CDK.pdb
     RDKit          3D

 24 23  0  0  1  0  0  0  0  0999 V2000
   19.5950   -8.3489  -15.5903 N   0  0  0  0  0  0  0  0  0  0  0  0
   19.4089   -9.2289  -14.4527 C   0  0  1  0  0  0  0  0  0  0  0  0
   20.5541  -10.2340  -14.4357 C   0  0  0  0  0  0  0  0  0  0  0  0
   20.5342  -11.2855  -15.8961 S   0  0  0  0  0  0  0  0  0  0  0  0
   19.4287   -8.4083  -13.2140 C   0  0  0  0  0  0  0  0  0  0  0  0
   19.3556   -8.9450  -12.0727 O   0  0  0  0  0  0  0  0  0  0  0  0
   19.5312   -6.9812  -13.2649 N   0  0  0  0  0  0  0  0  0  0  0  0
   19.5407   -6.1902  -12.0607 C   0  0  1  0  0  0  0  0  0  0  0  0
   20.3557   -4.9408  -12.1325 C   0  0  0  0  0  0  0  0  0  0  0  0
   21.7647   -5.2753  -12.3816 C   0  0  0  0  0  0  0  0  0  0  0  0
   22.4127   -5.9373  -11.5455 O   0  0  0  0  0  0  0  0  0  0  0  0
   18.1276   -5.7568  -11.7665 C   0  0  0  0  0  0  0  0  0  0  0  0
   17.3443   -5.5088  -12.6963 O   0  0  0  0  0  0  0  0  0  0  0  0
   22.4086   -4.8693  -13.5411 O   0  0  0  0  0  0  0  0  0  0  0  0
   17.6417   -5.6164  -10.4416 N   0  0  0  0  0  0  0  0  0  0  0  0
   16.2998   -5.1595  -10.1433 C   0  0  1  0  0  0  0  0  0  0  0  0
   15.9363   -5.4455   -8.6957 C   0  0  0  0  0  0  0  0  0  0  0  0
   14.5481   -5.0929   -8.3550 C   0  0  0  0  0  0  0  0  0  0  0  0
   14.2256   -5.3676   -6.9255 C   0  0  0  0  0  0  0  0  0  0  0  0
   12.8228   -5.1398   -6.5039 C   0  0  0  0  0  0  0  0  0  0  0  0
   12.4642   -5.5326   -5.1881 N   0  0  0  0  0  0  0  0  0  0  0  0
   16.0831   -3.7584  -10.5242 C   0  0  0  0  0  0  0  0  0  0  0  0
   14.9376   -3.2615  -11.0901 O   0  0  0  0  0  0  0  0  0  0  0  0
   17.0278   -2.9536  -10.3120 O   0  0  0  0  0  0  0  0  0  0  0  0
  2  1  1  6
  3  2  1  0
  4  3  1  0
  5  2  1  0
  5  6  2  0
  7  5  1  0
  8  7  1  0
  9 10  1  0
  8  9  1  6
 10 14  1  0
 10 11  2  0
 12  8  1  0
 13 12  2  0
 15 12  1  0
 16 15  1  0
 16 17  1  1
 17 18  1  0
 19 18  1  0
 20 19  1  0
 20 21  1  0
 22 16  1  0
 23 22  1  0
 24 22  2  0
M  END
$$$$
