CDK.pdb
     RDKit          3D

 24 23  0  0  1  0  0  0  0  0999 V2000
   16.0261  -12.0998  -16.7084 N   0  0  0  0  0  0  0  0  0  0  0  0
   16.7705  -11.6074  -15.5654 C   0  0  1  0  0  0  0  0  0  0  0  0
   17.8780  -12.6062  -15.2522 C   0  0  0  0  0  0  0  0  0  0  0  0
   17.2538  -14.0198  -14.3299 S   0  0  0  0  0  0  0  0  0  0  0  0
   17.3552  -10.2873  -15.9170 C   0  0  0  0  0  0  0  0  0  0  0  0
   17.8653  -10.0799  -17.0540 O   0  0  0  0  0  0  0  0  0  0  0  0
   17.3635   -9.2016  -14.9838 N   0  0  0  0  0  0  0  0  0  0  0  0
   17.9524   -7.9310  -15.3225 C   0  0  1  0  0  0  0  0  0  0  0  0
   17.1622   -6.7363  -14.8996 C   0  0  0  0  0  0  0  0  0  0  0  0
   17.7854   -5.5126  -15.4225 C   0  0  0  0  0  0  0  0  0  0  0  0
   18.1072   -5.4337  -16.6256 O   0  0  0  0  0  0  0  0  0  0  0  0
   19.2847   -7.8247  -14.6260 C   0  0  0  0  0  0  0  0  0  0  0  0
   19.3993   -8.1742  -13.4410 O   0  0  0  0  0  0  0  0  0  0  0  0
   18.0315   -4.4213  -14.6026 O   0  0  0  0  0  0  0  0  0  0  0  0
   20.4414   -7.3309  -15.2812 N   0  0  0  0  0  0  0  0  0  0  0  0
   21.7462   -7.3027  -14.6526 C   0  0  1  0  0  0  0  0  0  0  0  0
   22.8009   -7.9146  -15.5597 C   0  0  0  0  0  0  0  0  0  0  0  0
   23.8135   -8.7036  -14.8387 C   0  0  0  0  0  0  0  0  0  0  0  0
   24.8489   -9.2695  -15.7501 C   0  0  0  0  0  0  0  0  0  0  0  0
   25.9373  -10.0517  -15.1170 C   0  0  0  0  0  0  0  0  0  0  0  0
   26.9657  -10.5432  -15.9626 N   0  0  0  0  0  0  0  0  0  0  0  0
   22.1105   -5.9656  -14.1683 C   0  0  0  0  0  0  0  0  0  0  0  0
   22.9046   -5.7083  -13.0809 O   0  0  0  0  0  0  0  0  0  0  0  0
   21.6543   -4.9806  -14.8062 O   0  0  0  0  0  0  0  0  0  0  0  0
  2  1  1  6
  3  2  1  0
  4  3  1  0
  5  2  1  0
  5  6  2  0
  7  5  1  0
  8  7  1  0
  9 10  1  0
  8  9  1  1
 10 14  1  0
 10 11  2  0
 12  8  1  0
 13 12  2  0
 15 12  1  0
 16 15  1  0
 16 17  1  6
 17 18  1  0
 19 18  1  0
 20 19  1  0
 20 21  1  0
 22 16  1  0
 23 22  1  0
 24 22  2  0
M  END
$$$$
