CDK.pdb
     RDKit          3D

 24 23  0  0  1  0  0  0  0  0999 V2000
   17.6671  -12.4670  -15.6968 N   0  0  0  0  0  0  0  0  0  0  0  0
   16.9621  -11.2164  -15.4913 C   0  0  1  0  0  0  0  0  0  0  0  0
   15.5039  -11.5365  -15.1859 C   0  0  0  0  0  0  0  0  0  0  0  0
   14.6207  -12.0722  -16.6595 S   0  0  0  0  0  0  0  0  0  0  0  0
   17.5831  -10.5087  -14.3417 C   0  0  0  0  0  0  0  0  0  0  0  0
   17.9446  -11.1352  -13.3059 O   0  0  0  0  0  0  0  0  0  0  0  0
   17.7958   -9.0930  -14.3625 N   0  0  0  0  0  0  0  0  0  0  0  0
   18.4258   -8.4167  -13.2572 C   0  0  1  0  0  0  0  0  0  0  0  0
   19.3617   -7.3178  -13.6404 C   0  0  0  0  0  0  0  0  0  0  0  0
   19.8940   -6.6694  -12.4340 C   0  0  0  0  0  0  0  0  0  0  0  0
   19.6715   -5.4606  -12.2178 O   0  0  0  0  0  0  0  0  0  0  0  0
   17.3501   -7.7812  -12.4144 C   0  0  0  0  0  0  0  0  0  0  0  0
   16.5138   -7.0266  -12.9345 O   0  0  0  0  0  0  0  0  0  0  0  0
   20.6511   -7.3745  -11.5103 O   0  0  0  0  0  0  0  0  0  0  0  0
   17.2493   -8.0132  -11.0190 N   0  0  0  0  0  0  0  0  0  0  0  0
   16.2530   -7.3694  -10.1875 C   0  0  1  0  0  0  0  0  0  0  0  0
   15.2081   -8.3678   -9.7176 C   0  0  0  0  0  0  0  0  0  0  0  0
   14.0765   -7.7481   -9.0082 C   0  0  0  0  0  0  0  0  0  0  0  0
   12.9982   -8.7277   -8.6914 C   0  0  0  0  0  0  0  0  0  0  0  0
   11.7906   -8.1936   -8.0176 C   0  0  0  0  0  0  0  0  0  0  0  0
   10.6845   -9.0702   -7.8681 N   0  0  0  0  0  0  0  0  0  0  0  0
   16.8477   -6.5996   -9.0880 C   0  0  0  0  0  0  0  0  0  0  0  0
   18.1668   -6.6414   -8.7173 O   0  0  0  0  0  0  0  0  0  0  0  0
   16.0805   -5.8426   -8.4372 O   0  0  0  0  0  0  0  0  0  0  0  0
  2  1  1  1
  3  2  1  0
  4  3  1  0
  5  2  1  0
  5  6  2  0
  7  5  1  0
  8  7  1  0
  9 10  1  0
  8  9  1  6
 10 14  1  0
 10 11  2  0
 12  8  1  0
 13 12  2  0
 15 12  1  0
 16 15  1  0
 16 17  1  1
 17 18  1  0
 19 18  1  0
 20 19  1  0
 20 21  1  0
 22 16  1  0
 23 22  1  0
 24 22  2  0
M  END
$$$$
