CDK.pdb
     RDKit          3D

 24 23  0  0  1  0  0  0  0  0999 V2000
   27.3414  -20.8376  -13.5257 N   0  0  0  0  0  0  0  0  0  0  0  0
   26.2778  -21.1640  -12.5954 C   0  0  1  0  0  0  0  0  0  0  0  0
   26.6975  -20.6932  -11.2082 C   0  0  0  0  0  0  0  0  0  0  0  0
   25.5405  -21.2428   -9.9440 S   0  0  0  0  0  0  0  0  0  0  0  0
   25.0430  -20.4576  -13.0246 C   0  0  0  0  0  0  0  0  0  0  0  0
   24.6956  -19.3658  -12.4925 O   0  0  0  0  0  0  0  0  0  0  0  0
   24.2007  -20.9849  -14.0553 N   0  0  0  0  0  0  0  0  0  0  0  0
   23.0262  -20.2756  -14.4950 C   0  0  1  0  0  0  0  0  0  0  0  0
   23.1536  -19.6065  -15.8241 C   0  0  0  0  0  0  0  0  0  0  0  0
   21.9493  -18.8120  -16.1026 C   0  0  0  0  0  0  0  0  0  0  0  0
   21.2547  -18.3703  -15.1646 O   0  0  0  0  0  0  0  0  0  0  0  0
   21.8961  -21.2640  -14.6258 C   0  0  0  0  0  0  0  0  0  0  0  0
   22.0821  -22.3540  -15.1886 O   0  0  0  0  0  0  0  0  0  0  0  0
   21.5537  -18.5328  -17.4023 O   0  0  0  0  0  0  0  0  0  0  0  0
   20.5978  -20.9968  -14.1218 N   0  0  0  0  0  0  0  0  0  0  0  0
   19.5067  -21.9442  -14.2249 C   0  0  1  0  0  0  0  0  0  0  0  0
   18.7574  -22.0573  -12.9076 C   0  0  0  0  0  0  0  0  0  0  0  0
   17.6625  -23.0413  -12.9340 C   0  0  0  0  0  0  0  0  0  0  0  0
   16.9524  -23.1377  -11.6267 C   0  0  0  0  0  0  0  0  0  0  0  0
   15.8982  -24.1741  -11.5166 C   0  0  0  0  0  0  0  0  0  0  0  0
   15.2897  -24.3546  -10.2472 N   0  0  0  0  0  0  0  0  0  0  0  0
   18.6251  -21.6676  -15.3656 C   0  0  0  0  0  0  0  0  0  0  0  0
   18.0909  -22.6155  -16.1995 O   0  0  0  0  0  0  0  0  0  0  0  0
   18.3404  -20.4620  -15.5913 O   0  0  0  0  0  0  0  0  0  0  0  0
  2  1  1  6
  3  2  1  0
  4  3  1  0
  5  2  1  0
  5  6  2  0
  7  5  1  0
  8  7  1  0
  9 10  1  0
  8  9  1  6
 10 14  1  0
 10 11  2  0
 12  8  1  0
 13 12  2  0
 15 12  1  0
 16 15  1  0
 16 17  1  1
 17 18  1  0
 19 18  1  0
 20 19  1  0
 20 21  1  0
 22 16  1  0
 23 22  1  0
 24 22  2  0
M  END
$$$$
