CDK.pdb
     RDKit          3D

 24 23  0  0  1  0  0  0  0  0999 V2000
   19.1565  -11.9229  -15.8824 N   0  0  0  0  0  0  0  0  0  0  0  0
   18.4239  -10.6730  -15.8173 C   0  0  1  0  0  0  0  0  0  0  0  0
   16.9349  -10.9951  -15.7813 C   0  0  0  0  0  0  0  0  0  0  0  0
   16.3410  -11.5626  -17.3825 S   0  0  0  0  0  0  0  0  0  0  0  0
   18.8235   -9.9566  -14.5783 C   0  0  0  0  0  0  0  0  0  0  0  0
   19.0195  -10.5796  -13.4969 O   0  0  0  0  0  0  0  0  0  0  0  0
   19.0016   -8.5361  -14.5612 N   0  0  0  0  0  0  0  0  0  0  0  0
   19.4123   -7.8498  -13.3628 C   0  0  1  0  0  0  0  0  0  0  0  0
   20.2768   -6.6526  -13.5859 C   0  0  0  0  0  0  0  0  0  0  0  0
   20.6640   -6.0666  -12.2953 C   0  0  0  0  0  0  0  0  0  0  0  0
   21.4873   -6.6492  -11.5603 O   0  0  0  0  0  0  0  0  0  0  0  0
   18.1786   -7.3542  -12.6533 C   0  0  0  0  0  0  0  0  0  0  0  0
   17.2902   -6.7622  -13.2856 O   0  0  0  0  0  0  0  0  0  0  0  0
   20.1315   -4.8618  -11.8610 O   0  0  0  0  0  0  0  0  0  0  0  0
   17.9835   -7.5389  -11.2608 N   0  0  0  0  0  0  0  0  0  0  0  0
   16.8032   -7.0678  -10.5655 C   0  0  1  0  0  0  0  0  0  0  0  0
   15.8777   -8.2224  -10.2196 C   0  0  0  0  0  0  0  0  0  0  0  0
   14.6295   -7.8017   -9.5619 C   0  0  0  0  0  0  0  0  0  0  0  0
   13.7344   -8.9527   -9.2505 C   0  0  0  0  0  0  0  0  0  0  0  0
   12.4657   -8.6390   -8.5509 C   0  0  0  0  0  0  0  0  0  0  0  0
   11.5080   -9.6801   -8.4368 N   0  0  0  0  0  0  0  0  0  0  0  0
   17.1287   -6.2256   -9.4080 C   0  0  0  0  0  0  0  0  0  0  0  0
   16.2751   -5.3302   -8.8173 O   0  0  0  0  0  0  0  0  0  0  0  0
   18.2853   -6.3388   -8.9235 O   0  0  0  0  0  0  0  0  0  0  0  0
  2  1  1  1
  3  2  1  0
  4  3  1  0
  5  2  1  0
  5  6  2  0
  7  5  1  0
  8  7  1  0
  9 10  1  0
  8  9  1  6
 10 14  1  0
 10 11  2  0
 12  8  1  0
 13 12  2  0
 15 12  1  0
 16 15  1  0
 16 17  1  1
 17 18  1  0
 19 18  1  0
 20 19  1  0
 20 21  1  0
 22 16  1  0
 23 22  1  0
 24 22  2  0
M  END
$$$$
