CDK.pdb
     RDKit          3D

 24 23  0  0  1  0  0  0  0  0999 V2000
   19.7919  -12.8347  -16.7555 N   0  0  0  0  0  0  0  0  0  0  0  0
   20.4328  -11.6646  -17.3241 C   0  0  1  0  0  0  0  0  0  0  0  0
   19.8226  -11.4071  -18.6965 C   0  0  0  0  0  0  0  0  0  0  0  0
   18.0245  -11.3800  -18.6274 S   0  0  0  0  0  0  0  0  0  0  0  0
   20.1824  -10.5072  -16.4265 C   0  0  0  0  0  0  0  0  0  0  0  0
   19.1752  -10.4763  -15.6646 O   0  0  0  0  0  0  0  0  0  0  0  0
   21.0702   -9.3846  -16.3898 N   0  0  0  0  0  0  0  0  0  0  0  0
   20.8185   -8.2621  -15.5223 C   0  0  1  0  0  0  0  0  0  0  0  0
   22.0231   -7.4507  -15.1745 C   0  0  0  0  0  0  0  0  0  0  0  0
   21.6794   -6.4589  -14.1462 C   0  0  0  0  0  0  0  0  0  0  0  0
   21.0331   -6.7985  -13.1341 O   0  0  0  0  0  0  0  0  0  0  0  0
   19.8659   -7.3265  -16.2212 C   0  0  0  0  0  0  0  0  0  0  0  0
   19.9810   -7.1125  -17.4379 O   0  0  0  0  0  0  0  0  0  0  0  0
   22.0593   -5.1306  -14.2692 O   0  0  0  0  0  0  0  0  0  0  0  0
   18.8182   -6.6636  -15.5327 N   0  0  0  0  0  0  0  0  0  0  0  0
   17.8989   -5.7573  -16.1901 C   0  0  1  0  0  0  0  0  0  0  0  0
   16.5786   -6.4461  -16.4933 C   0  0  0  0  0  0  0  0  0  0  0  0
   15.6066   -5.5816  -17.1830 C   0  0  0  0  0  0  0  0  0  0  0  0
   14.3225   -6.2835  -17.4679 C   0  0  0  0  0  0  0  0  0  0  0  0
   13.3011   -5.5214  -18.2252 C   0  0  0  0  0  0  0  0  0  0  0  0
   12.0909   -6.1903  -18.5446 N   0  0  0  0  0  0  0  0  0  0  0  0
   17.7338   -4.4940  -15.4608 C   0  0  0  0  0  0  0  0  0  0  0  0
   17.7287   -3.2474  -16.0310 O   0  0  0  0  0  0  0  0  0  0  0  0
   17.5855   -4.5674  -14.2126 O   0  0  0  0  0  0  0  0  0  0  0  0
  2  1  1  1
  3  2  1  0
  4  3  1  0
  5  2  1  0
  5  6  2  0
  7  5  1  0
  8  7  1  0
  9 10  1  0
  8  9  1  6
 10 14  1  0
 10 11  2  0
 12  8  1  0
 13 12  2  0
 15 12  1  0
 16 15  1  0
 16 17  1  1
 17 18  1  0
 19 18  1  0
 20 19  1  0
 20 21  1  0
 22 16  1  0
 23 22  1  0
 24 22  2  0
M  END
$$$$
