CDK.pdb
     RDKit          3D

 24 23  0  0  1  0  0  0  0  0999 V2000
   27.2687  -21.7738  -16.3701 N   0  0  0  0  0  0  0  0  0  0  0  0
   26.5769  -20.5362  -16.0647 C   0  0  1  0  0  0  0  0  0  0  0  0
   26.7213  -19.6025  -17.2603 C   0  0  0  0  0  0  0  0  0  0  0  0
   28.4391  -19.1440  -17.5391 S   0  0  0  0  0  0  0  0  0  0  0  0
   25.1431  -20.8445  -15.8253 C   0  0  0  0  0  0  0  0  0  0  0  0
   24.5099  -21.6369  -16.5784 O   0  0  0  0  0  0  0  0  0  0  0  0
   24.4248  -20.2573  -14.7349 N   0  0  0  0  0  0  0  0  0  0  0  0
   23.0198  -20.5124  -14.5432 C   0  0  1  0  0  0  0  0  0  0  0  0
   22.5627  -20.4913  -13.1216 C   0  0  0  0  0  0  0  0  0  0  0  0
   21.1505  -20.8898  -13.0433 C   0  0  0  0  0  0  0  0  0  0  0  0
   20.6621  -21.6518  -13.9025 O   0  0  0  0  0  0  0  0  0  0  0  0
   22.2408  -19.4357  -15.2538 C   0  0  0  0  0  0  0  0  0  0  0  0
   22.5782  -18.2466  -15.1459 O   0  0  0  0  0  0  0  0  0  0  0  0
   20.3280  -20.4353  -12.0232 O   0  0  0  0  0  0  0  0  0  0  0  0
   21.1115  -19.7287  -16.0600 N   0  0  0  0  0  0  0  0  0  0  0  0
   20.4218  -18.7206  -16.8389 C   0  0  1  0  0  0  0  0  0  0  0  0
   20.3084  -19.1407  -18.2950 C   0  0  0  0  0  0  0  0  0  0  0  0
   19.7052  -18.1136  -19.1604 C   0  0  0  0  0  0  0  0  0  0  0  0
   19.5587  -18.5726  -20.5713 C   0  0  0  0  0  0  0  0  0  0  0  0
   19.0215  -17.5869  -21.5396 C   0  0  0  0  0  0  0  0  0  0  0  0
   18.8969  -18.0005  -22.8914 N   0  0  0  0  0  0  0  0  0  0  0  0
   19.1334  -18.3361  -16.2498 C   0  0  0  0  0  0  0  0  0  0  0  0
   18.5266  -17.1165  -16.4039 O   0  0  0  0  0  0  0  0  0  0  0  0
   18.5432  -19.1990  -15.5481 O   0  0  0  0  0  0  0  0  0  0  0  0
  2  1  1  6
  3  2  1  0
  4  3  1  0
  5  2  1  0
  5  6  2  0
  7  5  1  0
  8  7  1  0
  9 10  1  0
  8  9  1  1
 10 14  1  0
 10 11  2  0
 12  8  1  0
 13 12  2  0
 15 12  1  0
 16 15  1  0
 16 17  1  6
 17 18  1  0
 19 18  1  0
 20 19  1  0
 20 21  1  0
 22 16  1  0
 23 22  1  0
 24 22  2  0
M  END
$$$$
