CDK.pdb
     RDKit          3D

 24 23  0  0  1  0  0  0  0  0999 V2000
   18.7353  -23.7492  -11.7698 N   0  0  0  0  0  0  0  0  0  0  0  0
   19.1776  -23.7666  -10.3887 C   0  0  1  0  0  0  0  0  0  0  0  0
   19.1772  -22.3335   -9.8705 C   0  0  0  0  0  0  0  0  0  0  0  0
   20.4310  -21.3336  -10.6870 S   0  0  0  0  0  0  0  0  0  0  0  0
   18.2298  -24.5967   -9.6008 C   0  0  0  0  0  0  0  0  0  0  0  0
   16.9805  -24.4418   -9.7068 O   0  0  0  0  0  0  0  0  0  0  0  0
   18.6938  -25.6021   -8.6932 N   0  0  0  0  0  0  0  0  0  0  0  0
   17.7701  -26.4441   -7.9765 C   0  0  1  0  0  0  0  0  0  0  0  0
   18.0221  -27.9105   -8.1056 C   0  0  0  0  0  0  0  0  0  0  0  0
   16.9853  -28.6625   -7.3853 C   0  0  0  0  0  0  0  0  0  0  0  0
   17.2323  -29.7974   -6.9289 O   0  0  0  0  0  0  0  0  0  0  0  0
   17.8779  -26.1243   -6.5077 C   0  0  0  0  0  0  0  0  0  0  0  0
   18.9898  -26.0769   -5.9592 O   0  0  0  0  0  0  0  0  0  0  0  0
   15.7156  -28.1383   -7.1938 O   0  0  0  0  0  0  0  0  0  0  0  0
   16.7369  -25.8689   -5.7053 N   0  0  0  0  0  0  0  0  0  0  0  0
   16.8234  -25.5869   -4.2870 C   0  0  1  0  0  0  0  0  0  0  0  0
   15.5670  -24.8892   -3.7929 C   0  0  0  0  0  0  0  0  0  0  0  0
   15.6473  -24.4535   -2.3888 C   0  0  0  0  0  0  0  0  0  0  0  0
   14.3958  -23.7876   -1.9272 C   0  0  0  0  0  0  0  0  0  0  0  0
   14.3620  -23.3402   -0.5143 C   0  0  0  0  0  0  0  0  0  0  0  0
   13.1640  -22.7389   -0.0480 N   0  0  0  0  0  0  0  0  0  0  0  0
   17.1705  -26.7738   -3.4959 C   0  0  0  0  0  0  0  0  0  0  0  0
   17.9314  -26.7686   -2.3556 O   0  0  0  0  0  0  0  0  0  0  0  0
   16.7317  -27.8820   -3.9017 O   0  0  0  0  0  0  0  0  0  0  0  0
  2  1  1  6
  3  2  1  0
  4  3  1  0
  5  2  1  0
  5  6  2  0
  7  5  1  0
  8  7  1  0
  9 10  1  0
  8  9  1  1
 10 14  1  0
 10 11  2  0
 12  8  1  0
 13 12  2  0
 15 12  1  0
 16 15  1  0
 16 17  1  1
 17 18  1  0
 19 18  1  0
 20 19  1  0
 20 21  1  0
 22 16  1  0
 23 22  1  0
 24 22  2  0
M  END
$$$$
