CDK.pdb
     RDKit          3D

 24 23  0  0  1  0  0  0  0  0999 V2000
   23.7626  -12.9448  -16.7576 N   0  0  0  0  0  0  0  0  0  0  0  0
   24.1329  -11.7796  -15.9776 C   0  0  1  0  0  0  0  0  0  0  0  0
   25.4738  -11.2692  -16.4913 C   0  0  0  0  0  0  0  0  0  0  0  0
   26.8282  -12.3408  -15.9854 S   0  0  0  0  0  0  0  0  0  0  0  0
   23.0861  -10.7404  -16.1570 C   0  0  0  0  0  0  0  0  0  0  0  0
   22.6550  -10.4376  -17.3053 O   0  0  0  0  0  0  0  0  0  0  0  0
   22.5263  -10.0432  -15.0389 N   0  0  0  0  0  0  0  0  0  0  0  0
   21.4746   -9.0741  -15.2141 C   0  0  1  0  0  0  0  0  0  0  0  0
   20.4181   -9.0915  -14.1586 C   0  0  0  0  0  0  0  0  0  0  0  0
   19.3382   -8.1610  -14.5152 C   0  0  0  0  0  0  0  0  0  0  0  0
   18.9688   -7.2848  -13.7070 O   0  0  0  0  0  0  0  0  0  0  0  0
   22.0867   -7.6974  -15.1767 C   0  0  0  0  0  0  0  0  0  0  0  0
   23.0004   -7.4419  -14.3771 O   0  0  0  0  0  0  0  0  0  0  0  0
   18.7048   -8.2287  -15.7472 O   0  0  0  0  0  0  0  0  0  0  0  0
   21.6540   -6.6557  -16.0362 N   0  0  0  0  0  0  0  0  0  0  0  0
   22.2225   -5.3237  -16.0011 C   0  0  1  0  0  0  0  0  0  0  0  0
   21.8540   -4.5412  -17.2506 C   0  0  0  0  0  0  0  0  0  0  0  0
   22.4469   -3.1945  -17.2999 C   0  0  0  0  0  0  0  0  0  0  0  0
   22.0491   -2.4420  -18.5239 C   0  0  0  0  0  0  0  0  0  0  0  0
   22.6435   -1.0954  -18.7002 C   0  0  0  0  0  0  0  0  0  0  0  0
   22.2570   -0.3560  -19.8482 N   0  0  0  0  0  0  0  0  0  0  0  0
   21.9049   -4.6072  -14.7598 C   0  0  0  0  0  0  0  0  0  0  0  0
   20.6402   -4.3418  -14.3022 O   0  0  0  0  0  0  0  0  0  0  0  0
   22.8750   -4.2069  -14.0642 O   0  0  0  0  0  0  0  0  0  0  0  0
  2  1  1  6
  3  2  1  0
  4  3  1  0
  5  2  1  0
  5  6  2  0
  7  5  1  0
  8  7  1  0
  9 10  1  0
  8  9  1  1
 10 14  1  0
 10 11  2  0
 12  8  1  0
 13 12  2  0
 15 12  1  0
 16 15  1  0
 16 17  1  6
 17 18  1  0
 19 18  1  0
 20 19  1  0
 20 21  1  0
 22 16  1  0
 23 22  1  0
 24 22  2  0
M  END
$$$$
