CDK.pdb
     RDKit          3D

 24 23  0  0  1  0  0  0  0  0999 V2000
   31.3795  -13.6178  -20.5205 N   0  0  0  0  0  0  0  0  0  0  0  0
   31.4751  -13.0011  -19.2114 C   0  0  1  0  0  0  0  0  0  0  0  0
   32.9358  -12.6499  -18.9560 C   0  0  0  0  0  0  0  0  0  0  0  0
   33.9399  -14.1244  -18.7193 S   0  0  0  0  0  0  0  0  0  0  0  0
   30.6439  -11.7693  -19.2089 C   0  0  0  0  0  0  0  0  0  0  0  0
   30.5180  -11.0631  -20.2488 O   0  0  0  0  0  0  0  0  0  0  0  0
   29.9547  -11.3356  -18.0313 N   0  0  0  0  0  0  0  0  0  0  0  0
   29.0974  -10.1778  -18.0521 C   0  0  1  0  0  0  0  0  0  0  0  0
   27.9587  -10.2183  -17.0867 C   0  0  0  0  0  0  0  0  0  0  0  0
   27.0555   -9.0849  -17.3293 C   0  0  0  0  0  0  0  0  0  0  0  0
   27.1963   -8.0197  -16.6946 O   0  0  0  0  0  0  0  0  0  0  0  0
   29.9212   -8.9707  -17.6838 C   0  0  0  0  0  0  0  0  0  0  0  0
   30.8281   -9.0668  -16.8426 O   0  0  0  0  0  0  0  0  0  0  0  0
   26.0311   -9.1652  -18.2610 O   0  0  0  0  0  0  0  0  0  0  0  0
   29.7001   -7.6988  -18.2706 N   0  0  0  0  0  0  0  0  0  0  0  0
   30.7615   -6.7341  -18.4735 C   0  0  1  0  0  0  0  0  0  0  0  0
   31.8689   -7.3161  -19.3362 C   0  0  0  0  0  0  0  0  0  0  0  0
   32.9165   -6.3431  -19.6877 C   0  0  0  0  0  0  0  0  0  0  0  0
   34.1301   -6.4797  -18.8325 C   0  0  0  0  0  0  0  0  0  0  0  0
   35.2415   -5.5355  -19.0984 C   0  0  0  0  0  0  0  0  0  0  0  0
   36.4065   -5.6557  -18.2969 N   0  0  0  0  0  0  0  0  0  0  0  0
   30.2648   -5.4445  -18.9688 C   0  0  0  0  0  0  0  0  0  0  0  0
   30.8166   -4.2226  -18.6829 O   0  0  0  0  0  0  0  0  0  0  0  0
   29.2510   -5.4687  -19.7152 O   0  0  0  0  0  0  0  0  0  0  0  0
  2  1  1  6
  3  2  1  0
  4  3  1  0
  5  2  1  0
  5  6  2  0
  7  5  1  0
  8  7  1  0
  9 10  1  0
  8  9  1  1
 10 14  1  0
 10 11  2  0
 12  8  1  0
 13 12  2  0
 15 12  1  0
 16 15  1  0
 16 17  1  6
 17 18  1  0
 19 18  1  0
 20 19  1  0
 20 21  1  0
 22 16  1  0
 23 22  1  0
 24 22  2  0
M  END
$$$$
