ASL.pdb
     RDKit          3D

 20 19  0  0  1  0  0  0  0  0999 V2000
    8.7421  -12.2155   19.2139 C   0  0  0  0  0  0  0  0  0  0  0  0
    8.7274  -13.6919   19.0016 C   0  0  2  0  0  0  0  0  0  0  0  0
    8.0676  -14.0136   17.7541 N   0  0  0  0  0  0  0  0  0  0  0  0
    8.0937  -14.4400   20.1261 C   0  0  0  0  0  0  0  0  0  0  0  0
    6.8634  -14.6538   20.1743 O   0  0  0  0  0  0  0  0  0  0  0  0
    9.9181  -17.6019   22.0441 O   0  0  0  0  0  0  0  0  0  0  0  0
    8.6152  -17.1786   22.1335 C   0  0  0  0  0  0  0  0  0  0  0  0
    8.4559  -15.7070   22.2846 C   0  0  2  0  0  0  0  0  0  0  0  0
    8.9232  -14.9233   21.1752 N   0  0  0  0  0  0  0  0  0  0  0  0
    8.9165  -15.1850   23.6171 C   0  0  0  0  0  0  0  0  0  0  0  0
   10.1024  -14.8163   23.7206 O   0  0  0  0  0  0  0  0  0  0  0  0
    5.4847  -12.3565   26.5833 C   0  0  0  0  0  0  0  0  0  0  0  0
    6.7386  -12.8850   25.9242 C   0  0  1  0  0  0  0  0  0  0  0  0
    7.8244  -11.7989   25.9323 C   0  0  0  0  0  0  0  0  0  0  0  0
    7.3185  -14.0367   26.7068 C   0  0  0  0  0  0  0  0  0  0  0  0
    8.5227  -14.6667   26.0529 C   0  0  2  0  0  0  0  0  0  0  0  0
    8.0758  -15.0981   24.7327 N   0  0  0  0  0  0  0  0  0  0  0  0
    9.0596  -15.7985   26.8306 C   0  0  0  0  0  0  0  0  0  0  0  0
    8.9608  -17.1084   26.3931 O   0  0  0  0  0  0  0  0  0  0  0  0
    9.6255  -15.5777   27.9257 O   0  0  0  0  0  0  0  0  0  0  0  0
  2  1  1  1
  2  4  1  0
  2  3  1  0
  4  5  2  0
  8  7  1  6
  7  6  1  0
  9  4  1  0
  9  8  1  0
 10  8  1  0
 10 11  2  0
 13 12  1  1
 13 14  1  0
 13 15  1  0
 16 15  1  1
 16 17  1  0
 16 18  1  0
 17 10  1  0
 18 20  2  0
 18 19  1  0
M  END
$$$$
