ASL.pdb
     RDKit          3D

 20 19  0  0  1  0  0  0  0  0999 V2000
    8.8522  -12.2624   19.2660 C   0  0  0  0  0  0  0  0  0  0  0  0
    8.6702  -13.7182   18.9963 C   0  0  2  0  0  0  0  0  0  0  0  0
    7.9145  -13.9127   17.7772 N   0  0  0  0  0  0  0  0  0  0  0  0
    8.0216  -14.4472   20.1248 C   0  0  0  0  0  0  0  0  0  0  0  0
    6.7844  -14.6115   20.1885 O   0  0  0  0  0  0  0  0  0  0  0  0
    9.8150  -17.6681   22.1478 O   0  0  0  0  0  0  0  0  0  0  0  0
    8.5159  -17.2260   22.1104 C   0  0  0  0  0  0  0  0  0  0  0  0
    8.3627  -15.7539   22.2631 C   0  0  2  0  0  0  0  0  0  0  0  0
    8.8447  -14.9704   21.1598 N   0  0  0  0  0  0  0  0  0  0  0  0
    8.8133  -15.2371   23.6010 C   0  0  0  0  0  0  0  0  0  0  0  0
   10.0066  -14.8999   23.7241 O   0  0  0  0  0  0  0  0  0  0  0  0
    5.5408  -12.1395   26.5092 C   0  0  0  0  0  0  0  0  0  0  0  0
    6.7775  -12.7512   25.8906 C   0  0  1  0  0  0  0  0  0  0  0  0
    7.9566  -11.7756   26.0190 C   0  0  0  0  0  0  0  0  0  0  0  0
    7.2008  -13.9914   26.6375 C   0  0  0  0  0  0  0  0  0  0  0  0
    8.3890  -14.6899   26.0253 C   0  0  2  0  0  0  0  0  0  0  0  0
    7.9553  -15.1212   24.7006 N   0  0  0  0  0  0  0  0  0  0  0  0
    8.8498  -15.8331   26.8344 C   0  0  0  0  0  0  0  0  0  0  0  0
    9.7015  -15.6778   27.9150 O   0  0  0  0  0  0  0  0  0  0  0  0
    8.4636  -16.9880   26.5420 O   0  0  0  0  0  0  0  0  0  0  0  0
  2  1  1  1
  2  4  1  0
  2  3  1  0
  4  5  2  0
  8  7  1  6
  7  6  1  0
  9  4  1  0
  9  8  1  0
 10  8  1  0
 10 11  2  0
 13 12  1  1
 13 14  1  0
 13 15  1  0
 16 15  1  1
 16 17  1  0
 16 18  1  0
 17 10  1  0
 18 20  2  0
 18 19  1  0
M  END
$$$$
