ASL.pdb
     RDKit          3D

 20 19  0  0  1  0  0  0  0  0999 V2000
    8.7470  -12.1790   19.1265 C   0  0  0  0  0  0  0  0  0  0  0  0
    8.7043  -13.6396   18.8267 C   0  0  2  0  0  0  0  0  0  0  0  0
    8.0950  -13.8696   17.5340 N   0  0  0  0  0  0  0  0  0  0  0  0
    8.0000  -14.4333   19.8753 C   0  0  0  0  0  0  0  0  0  0  0  0
    6.7942  -14.7465   19.7763 O   0  0  0  0  0  0  0  0  0  0  0  0
    9.4775  -17.6962   21.6146 O   0  0  0  0  0  0  0  0  0  0  0  0
    8.2229  -17.1529   21.7390 C   0  0  0  0  0  0  0  0  0  0  0  0
    8.2112  -15.6989   22.0547 C   0  0  2  0  0  0  0  0  0  0  0  0
    8.7310  -14.8442   21.0238 N   0  0  0  0  0  0  0  0  0  0  0  0
    8.7466  -15.3751   23.4216 C   0  0  0  0  0  0  0  0  0  0  0  0
    9.9760  -15.2111   23.5425 O   0  0  0  0  0  0  0  0  0  0  0  0
    5.6914  -12.4345   26.7897 C   0  0  0  0  0  0  0  0  0  0  0  0
    6.9006  -12.9900   26.0719 C   0  0  1  0  0  0  0  0  0  0  0  0
    8.1097  -12.0736   26.3101 C   0  0  0  0  0  0  0  0  0  0  0  0
    7.2974  -14.3313   26.6363 C   0  0  0  0  0  0  0  0  0  0  0  0
    8.4339  -14.9878   25.8932 C   0  0  2  0  0  0  0  0  0  0  0  0
    7.9283  -15.2520   24.5503 N   0  0  0  0  0  0  0  0  0  0  0  0
    8.8918  -16.2287   26.5447 C   0  0  0  0  0  0  0  0  0  0  0  0
    9.8737  -16.2315   27.5210 O   0  0  0  0  0  0  0  0  0  0  0  0
    8.3817  -17.3224   26.2103 O   0  0  0  0  0  0  0  0  0  0  0  0
  2  1  1  1
  2  4  1  0
  2  3  1  0
  4  5  2  0
  8  7  1  6
  7  6  1  0
  9  4  1  0
  9  8  1  0
 10  8  1  0
 10 11  2  0
 13 12  1  1
 13 14  1  0
 13 15  1  0
 16 15  1  1
 16 17  1  0
 16 18  1  0
 17 10  1  0
 18 20  2  0
 18 19  1  0
M  END
$$$$
