ASL.pdb
     RDKit          3D

 20 19  0  0  1  0  0  0  0  0999 V2000
    8.9819  -12.1755   19.3465 C   0  0  0  0  0  0  0  0  0  0  0  0
    8.7940  -13.6056   18.9660 C   0  0  2  0  0  0  0  0  0  0  0  0
    7.9762  -13.7055   17.7759 N   0  0  0  0  0  0  0  0  0  0  0  0
    8.2100  -14.4324   20.0619 C   0  0  0  0  0  0  0  0  0  0  0  0
    6.9847  -14.6655   20.1400 O   0  0  0  0  0  0  0  0  0  0  0  0
   10.3698  -17.5007   21.9384 O   0  0  0  0  0  0  0  0  0  0  0  0
    9.0202  -17.2543   21.9854 C   0  0  0  0  0  0  0  0  0  0  0  0
    8.6622  -15.8173   22.1291 C   0  0  2  0  0  0  0  0  0  0  0  0
    9.0824  -14.9703   21.0476 N   0  0  0  0  0  0  0  0  0  0  0  0
    8.9781  -15.2507   23.4853 C   0  0  0  0  0  0  0  0  0  0  0  0
   10.1416  -14.8573   23.6963 O   0  0  0  0  0  0  0  0  0  0  0  0
    7.6476  -11.8491   25.4297 C   0  0  0  0  0  0  0  0  0  0  0  0
    7.1936  -12.5972   26.6627 C   0  0  1  0  0  0  0  0  0  0  0  0
    5.7823  -12.1370   27.0565 C   0  0  0  0  0  0  0  0  0  0  0  0
    7.0703  -14.0748   26.3858 C   0  0  0  0  0  0  0  0  0  0  0  0
    8.3387  -14.6995   25.8610 C   0  0  2  0  0  0  0  0  0  0  0  0
    8.0282  -15.1488   24.5080 N   0  0  0  0  0  0  0  0  0  0  0  0
    8.8060  -15.8179   26.7006 C   0  0  0  0  0  0  0  0  0  0  0  0
    9.6650  -15.6301   27.7701 O   0  0  0  0  0  0  0  0  0  0  0  0
    8.4186  -16.9812   26.4454 O   0  0  0  0  0  0  0  0  0  0  0  0
  2  1  1  1
  2  4  1  0
  2  3  1  0
  4  5  2  0
  8  7  1  6
  7  6  1  0
  9  4  1  0
  9  8  1  0
 10  8  1  0
 10 11  2  0
 13 12  1  6
 13 14  1  0
 13 15  1  0
 16 15  1  1
 16 17  1  0
 16 18  1  0
 17 10  1  0
 18 20  2  0
 18 19  1  0
M  END
$$$$
