ASL.pdb
     RDKit          3D

 20 19  0  0  1  0  0  0  0  0999 V2000
    8.6811  -12.0956   19.4083 C   0  0  0  0  0  0  0  0  0  0  0  0
    8.6493  -13.5572   19.1117 C   0  0  2  0  0  0  0  0  0  0  0  0
    7.9439  -13.8030   17.8719 N   0  0  0  0  0  0  0  0  0  0  0  0
    8.0506  -14.3663   20.2128 C   0  0  0  0  0  0  0  0  0  0  0  0
    6.8155  -14.5089   20.3391 O   0  0  0  0  0  0  0  0  0  0  0  0
    9.9741  -17.6513   21.9928 O   0  0  0  0  0  0  0  0  0  0  0  0
    8.6653  -17.2541   22.1094 C   0  0  0  0  0  0  0  0  0  0  0  0
    8.4797  -15.7856   22.2616 C   0  0  2  0  0  0  0  0  0  0  0  0
    8.9201  -14.9939   21.1468 N   0  0  0  0  0  0  0  0  0  0  0  0
    8.9446  -15.2542   23.5887 C   0  0  0  0  0  0  0  0  0  0  0  0
   10.1414  -14.9243   23.6980 O   0  0  0  0  0  0  0  0  0  0  0  0
    5.6900  -12.1895   26.5793 C   0  0  0  0  0  0  0  0  0  0  0  0
    6.9079  -12.7959   25.9197 C   0  0  1  0  0  0  0  0  0  0  0  0
    8.0812  -11.8077   25.9921 C   0  0  0  0  0  0  0  0  0  0  0  0
    7.3721  -14.0238   26.6626 C   0  0  0  0  0  0  0  0  0  0  0  0
    8.5506  -14.7104   26.0189 C   0  0  2  0  0  0  0  0  0  0  0  0
    8.0963  -15.1171   24.6934 N   0  0  0  0  0  0  0  0  0  0  0  0
    9.0241  -15.8684   26.7992 C   0  0  0  0  0  0  0  0  0  0  0  0
    9.8930  -15.7330   27.8688 O   0  0  0  0  0  0  0  0  0  0  0  0
    8.6329  -17.0176   26.4918 O   0  0  0  0  0  0  0  0  0  0  0  0
  2  1  1  1
  2  4  1  0
  2  3  1  0
  4  5  2  0
  8  7  1  6
  7  6  1  0
  9  4  1  0
  9  8  1  0
 10  8  1  0
 10 11  2  0
 13 12  1  1
 13 14  1  0
 13 15  1  0
 16 15  1  1
 16 17  1  0
 16 18  1  0
 17 10  1  0
 18 20  2  0
 18 19  1  0
M  END
$$$$
