ASL.pdb
     RDKit          3D

 20 19  0  0  1  0  0  0  0  0999 V2000
   11.9001  -14.5792   19.0624 C   0  0  0  0  0  0  0  0  0  0  0  0
   11.7714  -15.8259   19.8713 C   0  0  2  0  0  0  0  0  0  0  0  0
   11.0312  -16.8284   19.1349 N   0  0  0  0  0  0  0  0  0  0  0  0
   11.1414  -15.5979   21.2042 C   0  0  0  0  0  0  0  0  0  0  0  0
   11.5833  -14.7556   22.0147 O   0  0  0  0  0  0  0  0  0  0  0  0
    7.7107  -17.9634   23.3423 O   0  0  0  0  0  0  0  0  0  0  0  0
    7.8691  -16.7339   22.7526 C   0  0  0  0  0  0  0  0  0  0  0  0
    9.2625  -16.2130   22.7814 C   0  0  2  0  0  0  0  0  0  0  0  0
    9.9997  -16.3683   21.5583 N   0  0  0  0  0  0  0  0  0  0  0  0
   10.0371  -16.6324   23.9997 C   0  0  0  0  0  0  0  0  0  0  0  0
   10.8011  -17.6115   23.8966 O   0  0  0  0  0  0  0  0  0  0  0  0
    9.4474  -14.6400   28.8702 C   0  0  0  0  0  0  0  0  0  0  0  0
    9.9820  -14.2071   27.5238 C   0  0  1  0  0  0  0  0  0  0  0  0
   10.5839  -12.7985   27.6349 C   0  0  0  0  0  0  0  0  0  0  0  0
   11.1184  -15.0943   27.0807 C   0  0  0  0  0  0  0  0  0  0  0  0
   10.6656  -16.3763   26.4279 C   0  0  2  0  0  0  0  0  0  0  0  0
    9.9351  -15.9742   25.2307 N   0  0  0  0  0  0  0  0  0  0  0  0
    9.8220  -17.1951   27.3178 C   0  0  0  0  0  0  0  0  0  0  0  0
   10.3476  -17.9159   28.3768 O   0  0  0  0  0  0  0  0  0  0  0  0
    8.5870  -17.2472   27.1170 O   0  0  0  0  0  0  0  0  0  0  0  0
  2  1  1  6
  2  4  1  0
  2  3  1  0
  4  5  2  0
  8  7  1  6
  7  6  1  0
  9  4  1  0
  9  8  1  0
 10  8  1  0
 10 11  2  0
 13 12  1  1
 13 14  1  0
 13 15  1  0
 16 15  1  1
 16 17  1  0
 16 18  1  0
 17 10  1  0
 18 20  2  0
 18 19  1  0
M  END
$$$$
