ASL.pdb
     RDKit          3D

 20 19  0  0  1  0  0  0  0  0999 V2000
   11.4371  -18.7197   21.4120 C   0  0  0  0  0  0  0  0  0  0  0  0
   10.8568  -17.7637   20.4248 C   0  0  2  0  0  0  0  0  0  0  0  0
   11.8438  -17.4116   19.4263 N   0  0  0  0  0  0  0  0  0  0  0  0
   10.3032  -16.5313   21.0573 C   0  0  0  0  0  0  0  0  0  0  0  0
   11.0309  -15.5768   21.4058 O   0  0  0  0  0  0  0  0  0  0  0  0
    6.0937  -16.4107   22.1763 O   0  0  0  0  0  0  0  0  0  0  0  0
    6.7688  -15.2939   21.7504 C   0  0  0  0  0  0  0  0  0  0  0  0
    8.2434  -15.3578   21.9383 C   0  0  2  0  0  0  0  0  0  0  0  0
    8.8995  -16.4459   21.2681 N   0  0  0  0  0  0  0  0  0  0  0  0
    8.6760  -15.1931   23.3686 C   0  0  0  0  0  0  0  0  0  0  0  0
    9.8979  -15.2038   23.6132 O   0  0  0  0  0  0  0  0  0  0  0  0
    5.5799  -12.1417   26.6853 C   0  0  0  0  0  0  0  0  0  0  0  0
    6.8254  -12.7351   26.0667 C   0  0  1  0  0  0  0  0  0  0  0  0
    8.0651  -11.9916   26.5853 C   0  0  0  0  0  0  0  0  0  0  0  0
    7.0116  -14.1700   26.4927 C   0  0  0  0  0  0  0  0  0  0  0  0
    8.1718  -14.8559   25.8158 C   0  0  2  0  0  0  0  0  0  0  0  0
    7.7711  -15.0303   24.4238 N   0  0  0  0  0  0  0  0  0  0  0  0
    8.5054  -16.1490   26.4409 C   0  0  0  0  0  0  0  0  0  0  0  0
    9.4414  -16.2595   27.4552 O   0  0  0  0  0  0  0  0  0  0  0  0
    7.9281  -17.1884   26.0478 O   0  0  0  0  0  0  0  0  0  0  0  0
  2  1  1  1
  2  4  1  0
  2  3  1  0
  4  5  2  0
  8  7  1  1
  7  6  1  0
  9  4  1  0
  9  8  1  0
 10  8  1  0
 10 11  2  0
 13 12  1  1
 13 14  1  0
 13 15  1  0
 16 15  1  1
 16 17  1  0
 16 18  1  0
 17 10  1  0
 18 20  2  0
 18 19  1  0
M  END
$$$$
