ASL.pdb
     RDKit          3D

 20 19  0  0  1  0  0  0  0  0999 V2000
    8.6126  -12.1027   19.6588 C   0  0  0  0  0  0  0  0  0  0  0  0
    8.3887  -13.5444   19.3482 C   0  0  2  0  0  0  0  0  0  0  0  0
    7.3897  -13.6855   18.3102 N   0  0  0  0  0  0  0  0  0  0  0  0
    8.0047  -14.3494   20.5440 C   0  0  0  0  0  0  0  0  0  0  0  0
    6.8311  -14.3886   20.9719 O   0  0  0  0  0  0  0  0  0  0  0  0
   10.6474  -17.4484   21.9187 O   0  0  0  0  0  0  0  0  0  0  0  0
    9.2899  -17.3798   22.1110 C   0  0  0  0  0  0  0  0  0  0  0  0
    8.7648  -16.0007   22.3022 C   0  0  2  0  0  0  0  0  0  0  0  0
    9.0126  -15.0950   21.2151 N   0  0  0  0  0  0  0  0  0  0  0  0
    9.0864  -15.4152   23.6489 C   0  0  0  0  0  0  0  0  0  0  0  0
   10.1507  -14.7780   23.7687 O   0  0  0  0  0  0  0  0  0  0  0  0
    5.6849  -12.6586   26.2869 C   0  0  0  0  0  0  0  0  0  0  0  0
    7.0433  -13.1791   25.8748 C   0  0  1  0  0  0  0  0  0  0  0  0
    8.1217  -12.1423   26.2222 C   0  0  0  0  0  0  0  0  0  0  0  0
    7.4102  -14.4158   26.6567 C   0  0  0  0  0  0  0  0  0  0  0  0
    8.6142  -15.1415   26.1104 C   0  0  2  0  0  0  0  0  0  0  0  0
    8.2475  -15.5559   24.7603 N   0  0  0  0  0  0  0  0  0  0  0  0
    8.9984  -16.2996   26.9381 C   0  0  0  0  0  0  0  0  0  0  0  0
    8.8931  -17.6021   26.4805 O   0  0  0  0  0  0  0  0  0  0  0  0
    9.4357  -16.1089   28.0960 O   0  0  0  0  0  0  0  0  0  0  0  0
  2  1  1  1
  2  4  1  0
  2  3  1  0
  4  5  2  0
  8  7  1  6
  7  6  1  0
  9  4  1  0
  9  8  1  0
 10  8  1  0
 10 11  2  0
 13 12  1  1
 13 14  1  0
 13 15  1  0
 16 15  1  1
 16 17  1  0
 16 18  1  0
 17 10  1  0
 18 20  2  0
 18 19  1  0
M  END
$$$$
