ASL.pdb
     RDKit          3D

 20 19  0  0  1  0  0  0  0  0999 V2000
   13.4370  -16.9475   15.3509 C   0  0  0  0  0  0  0  0  0  0  0  0
   12.0429  -17.3087   14.9622 C   0  0  2  0  0  0  0  0  0  0  0  0
   11.6819  -16.6554   13.7220 N   0  0  0  0  0  0  0  0  0  0  0  0
   11.0389  -16.9944   16.0199 C   0  0  0  0  0  0  0  0  0  0  0  0
   10.4514  -15.8927   16.0746 O   0  0  0  0  0  0  0  0  0  0  0  0
   10.1167  -19.8929   19.2349 O   0  0  0  0  0  0  0  0  0  0  0  0
    9.2079  -19.1074   18.5705 C   0  0  0  0  0  0  0  0  0  0  0  0
    9.7677  -17.8359   18.0378 C   0  0  2  0  0  0  0  0  0  0  0  0
   10.7450  -17.9861   16.9957 N   0  0  0  0  0  0  0  0  0  0  0  0
   10.1843  -16.8661   19.1082 C   0  0  0  0  0  0  0  0  0  0  0  0
   11.3975  -16.7852   19.3818 O   0  0  0  0  0  0  0  0  0  0  0  0
    6.5213  -12.9831   19.9497 C   0  0  0  0  0  0  0  0  0  0  0  0
    7.8371  -13.6818   19.6917 C   0  0  1  0  0  0  0  0  0  0  0  0
    8.8516  -12.6799   19.1211 C   0  0  0  0  0  0  0  0  0  0  0  0
    8.4473  -14.1811   20.9776 C   0  0  0  0  0  0  0  0  0  0  0  0
    9.6668  -15.0446   20.7729 C   0  0  2  0  0  0  0  0  0  0  0  0
    9.2742  -16.0600   19.8015 N   0  0  0  0  0  0  0  0  0  0  0  0
   10.1391  -15.6600   22.0267 C   0  0  0  0  0  0  0  0  0  0  0  0
   11.0051  -15.0088   22.8888 O   0  0  0  0  0  0  0  0  0  0  0  0
    9.7498  -16.8108   22.3309 O   0  0  0  0  0  0  0  0  0  0  0  0
  2  1  1  1
  2  4  1  0
  2  3  1  0
  4  5  2  0
  8  7  1  1
  7  6  1  0
  9  4  1  0
  9  8  1  0
 10  8  1  0
 10 11  2  0
 13 12  1  1
 13 14  1  0
 13 15  1  0
 16 15  1  1
 16 17  1  0
 16 18  1  0
 17 10  1  0
 18 20  2  0
 18 19  1  0
M  END
$$$$
