ASL.pdb
     RDKit          3D

 20 19  0  0  1  0  0  0  0  0999 V2000
    8.7298  -12.2231   19.3725 C   0  0  0  0  0  0  0  0  0  0  0  0
    8.6475  -13.6959   19.1502 C   0  0  2  0  0  0  0  0  0  0  0  0
    7.8795  -13.9818   17.9571 N   0  0  0  0  0  0  0  0  0  0  0  0
    8.0803  -14.4343   20.3158 C   0  0  0  0  0  0  0  0  0  0  0  0
    6.8544  -14.6430   20.4397 O   0  0  0  0  0  0  0  0  0  0  0  0
   10.2388  -17.4424   22.2112 O   0  0  0  0  0  0  0  0  0  0  0  0
    8.8981  -17.1688   22.3217 C   0  0  0  0  0  0  0  0  0  0  0  0
    8.5734  -15.7212   22.4363 C   0  0  2  0  0  0  0  0  0  0  0  0
    8.9699  -14.9142   21.3160 N   0  0  0  0  0  0  0  0  0  0  0  0
    8.9499  -15.1228   23.7629 C   0  0  0  0  0  0  0  0  0  0  0  0
   10.1400  -14.7982   23.9396 O   0  0  0  0  0  0  0  0  0  0  0  0
    5.3659  -12.1891   26.6010 C   0  0  0  0  0  0  0  0  0  0  0  0
    6.6254  -12.7358   25.9680 C   0  0  1  0  0  0  0  0  0  0  0  0
    7.7324  -11.6725   26.0168 C   0  0  0  0  0  0  0  0  0  0  0  0
    7.1613  -13.9080   26.7514 C   0  0  0  0  0  0  0  0  0  0  0  0
    8.4001  -14.5223   26.1491 C   0  0  2  0  0  0  0  0  0  0  0  0
    8.0272  -14.9184   24.7953 N   0  0  0  0  0  0  0  0  0  0  0  0
    8.8930  -15.6747   26.9256 C   0  0  0  0  0  0  0  0  0  0  0  0
    9.6583  -15.5220   28.0693 O   0  0  0  0  0  0  0  0  0  0  0  0
    8.6156  -16.8353   26.5456 O   0  0  0  0  0  0  0  0  0  0  0  0
  2  1  1  1
  2  4  1  0
  2  3  1  0
  4  5  2  0
  8  7  1  6
  7  6  1  0
  9  4  1  0
  9  8  1  0
 10  8  1  0
 10 11  2  0
 13 12  1  1
 13 14  1  0
 13 15  1  0
 16 15  1  1
 16 17  1  0
 16 18  1  0
 17 10  1  0
 18 20  2  0
 18 19  1  0
M  END
$$$$
