ASL.pdb
     RDKit          3D

 20 19  0  0  1  0  0  0  0  0999 V2000
   11.8636  -18.0441   20.8117 C   0  0  0  0  0  0  0  0  0  0  0  0
   10.9065  -17.2582   19.9801 C   0  0  2  0  0  0  0  0  0  0  0  0
   11.6218  -16.4807   18.9905 N   0  0  0  0  0  0  0  0  0  0  0  0
   10.0191  -16.3714   20.7872 C   0  0  0  0  0  0  0  0  0  0  0  0
   10.3801  -15.2378   21.1702 O   0  0  0  0  0  0  0  0  0  0  0  0
    6.0698  -17.7997   22.0943 O   0  0  0  0  0  0  0  0  0  0  0  0
    6.3716  -16.4907   21.8114 C   0  0  0  0  0  0  0  0  0  0  0  0
    7.8062  -16.1382   21.9892 C   0  0  2  0  0  0  0  0  0  0  0  0
    8.7198  -16.8375   21.1291 N   0  0  0  0  0  0  0  0  0  0  0  0
    8.2458  -16.1107   23.4266 C   0  0  0  0  0  0  0  0  0  0  0  0
    9.2047  -16.8347   23.7571 O   0  0  0  0  0  0  0  0  0  0  0  0
    6.0412  -12.0723   26.4054 C   0  0  0  0  0  0  0  0  0  0  0  0
    7.1345  -12.9642   25.8620 C   0  0  1  0  0  0  0  0  0  0  0  0
    8.5068  -12.4024   26.2618 C   0  0  0  0  0  0  0  0  0  0  0  0
    7.0695  -14.3391   26.4791 C   0  0  0  0  0  0  0  0  0  0  0  0
    7.9758  -15.3441   25.8132 C   0  0  2  0  0  0  0  0  0  0  0  0
    7.6278  -15.3134   24.3967 N   0  0  0  0  0  0  0  0  0  0  0  0
    7.8211  -16.7000   26.3714 C   0  0  0  0  0  0  0  0  0  0  0  0
    8.6431  -17.1839   27.3752 O   0  0  0  0  0  0  0  0  0  0  0  0
    6.9188  -17.4471   25.9289 O   0  0  0  0  0  0  0  0  0  0  0  0
  2  1  1  1
  2  4  1  0
  2  3  1  0
  4  5  2  0
  8  7  1  1
  7  6  1  0
  9  4  1  0
  9  8  1  0
 10  8  1  0
 10 11  2  0
 13 12  1  1
 13 14  1  0
 13 15  1  0
 16 15  1  1
 16 17  1  0
 16 18  1  0
 17 10  1  0
 18 20  2  0
 18 19  1  0
M  END
$$$$
