ASL.pdb
     RDKit          3D

 20 19  0  0  1  0  0  0  0  0999 V2000
    8.4964  -12.2518   19.2391 C   0  0  0  0  0  0  0  0  0  0  0  0
    8.5346  -13.7107   18.9303 C   0  0  2  0  0  0  0  0  0  0  0  0
    7.8977  -13.9715   17.6569 N   0  0  0  0  0  0  0  0  0  0  0  0
    7.9167  -14.5523   19.9959 C   0  0  0  0  0  0  0  0  0  0  0  0
    6.9260  -15.2822   19.7778 O   0  0  0  0  0  0  0  0  0  0  0  0
    8.4623  -17.9384   22.6866 O   0  0  0  0  0  0  0  0  0  0  0  0
    8.5770  -16.9458   21.7452 C   0  0  0  0  0  0  0  0  0  0  0  0
    8.3496  -15.5720   22.2694 C   0  0  2  0  0  0  0  0  0  0  0  0
    8.4787  -14.5182   21.3018 N   0  0  0  0  0  0  0  0  0  0  0  0
    9.0754  -15.2904   23.5554 C   0  0  0  0  0  0  0  0  0  0  0  0
   10.3214  -15.3000   23.5361 O   0  0  0  0  0  0  0  0  0  0  0  0
    6.3705  -12.2755   27.1750 C   0  0  0  0  0  0  0  0  0  0  0  0
    6.9993  -13.2619   26.2171 C   0  0  1  0  0  0  0  0  0  0  0  0
    6.7998  -12.7794   24.7729 C   0  0  0  0  0  0  0  0  0  0  0  0
    8.4933  -13.3312   26.4134 C   0  0  0  0  0  0  0  0  0  0  0  0
    9.0979  -14.6475   25.9933 C   0  0  2  0  0  0  0  0  0  0  0  0
    8.4146  -15.0210   24.7594 N   0  0  0  0  0  0  0  0  0  0  0  0
    8.9478  -15.6916   27.0235 C   0  0  0  0  0  0  0  0  0  0  0  0
    9.5566  -15.5989   28.2635 O   0  0  0  0  0  0  0  0  0  0  0  0
    8.2480  -16.7008   26.7778 O   0  0  0  0  0  0  0  0  0  0  0  0
  2  1  1  1
  2  4  1  0
  2  3  1  0
  4  5  2  0
  8  7  1  6
  7  6  1  0
  9  4  1  0
  9  8  1  0
 10  8  1  0
 10 11  2  0
 13 12  1  1
 13 14  1  0
 13 15  1  0
 16 15  1  1
 16 17  1  0
 16 18  1  0
 17 10  1  0
 18 20  2  0
 18 19  1  0
M  END
$$$$
