ASL.pdb
     RDKit          3D

 20 19  0  0  1  0  0  0  0  0999 V2000
    8.6585  -12.2639   19.2343 C   0  0  0  0  0  0  0  0  0  0  0  0
    8.5933  -13.7396   19.0269 C   0  0  2  0  0  0  0  0  0  0  0  0
    7.8792  -14.0442   17.8052 N   0  0  0  0  0  0  0  0  0  0  0  0
    7.9796  -14.4669   20.1758 C   0  0  0  0  0  0  0  0  0  0  0  0
    6.7553  -14.7111   20.2324 O   0  0  0  0  0  0  0  0  0  0  0  0
    9.8956  -17.5446   22.1244 O   0  0  0  0  0  0  0  0  0  0  0  0
    8.5817  -17.1548   22.2040 C   0  0  0  0  0  0  0  0  0  0  0  0
    8.3837  -15.6877   22.3535 C   0  0  2  0  0  0  0  0  0  0  0  0
    8.8217  -14.8940   21.2392 N   0  0  0  0  0  0  0  0  0  0  0  0
    8.8396  -15.1507   23.6816 C   0  0  0  0  0  0  0  0  0  0  0  0
   10.0580  -14.9414   23.8388 O   0  0  0  0  0  0  0  0  0  0  0  0
    5.5591  -11.9674   26.6176 C   0  0  0  0  0  0  0  0  0  0  0  0
    6.7540  -12.6084   25.9487 C   0  0  1  0  0  0  0  0  0  0  0  0
    7.9403  -11.6333   25.9644 C   0  0  0  0  0  0  0  0  0  0  0  0
    7.2208  -13.8194   26.7174 C   0  0  0  0  0  0  0  0  0  0  0  0
    8.3939  -14.5233   26.0825 C   0  0  2  0  0  0  0  0  0  0  0  0
    7.9600  -14.8798   24.7359 N   0  0  0  0  0  0  0  0  0  0  0  0
    8.8141  -15.7158   26.8410 C   0  0  0  0  0  0  0  0  0  0  0  0
    9.6881  -15.6400   27.9122 O   0  0  0  0  0  0  0  0  0  0  0  0
    8.3712  -16.8402   26.5126 O   0  0  0  0  0  0  0  0  0  0  0  0
  2  1  1  1
  2  4  1  0
  2  3  1  0
  4  5  2  0
  8  7  1  6
  7  6  1  0
  9  4  1  0
  9  8  1  0
 10  8  1  0
 10 11  2  0
 13 12  1  1
 13 14  1  0
 13 15  1  0
 16 15  1  1
 16 17  1  0
 16 18  1  0
 17 10  1  0
 18 20  2  0
 18 19  1  0
M  END
$$$$
