ASL.pdb
     RDKit          3D

 20 19  0  0  1  0  0  0  0  0999 V2000
    8.9561  -12.3407   19.1345 C   0  0  0  0  0  0  0  0  0  0  0  0
    8.8411  -13.7910   18.8052 C   0  0  2  0  0  0  0  0  0  0  0  0
    8.2629  -13.9632   17.4894 N   0  0  0  0  0  0  0  0  0  0  0  0
    8.0589  -14.5616   19.8151 C   0  0  0  0  0  0  0  0  0  0  0  0
    7.0211  -15.1902   19.5158 O   0  0  0  0  0  0  0  0  0  0  0  0
    9.4642  -17.4400   21.6919 O   0  0  0  0  0  0  0  0  0  0  0  0
    8.1822  -16.9526   21.7511 C   0  0  0  0  0  0  0  0  0  0  0  0
    8.0857  -15.5235   22.1539 C   0  0  2  0  0  0  0  0  0  0  0  0
    8.5150  -14.5774   21.1619 N   0  0  0  0  0  0  0  0  0  0  0  0
    8.6427  -15.2445   23.5220 C   0  0  0  0  0  0  0  0  0  0  0  0
    9.8808  -15.1718   23.6439 O   0  0  0  0  0  0  0  0  0  0  0  0
    5.5125  -12.2407   26.7217 C   0  0  0  0  0  0  0  0  0  0  0  0
    6.7084  -12.8191   25.9997 C   0  0  1  0  0  0  0  0  0  0  0  0
    7.8715  -11.8172   26.0405 C   0  0  0  0  0  0  0  0  0  0  0  0
    7.2190  -14.0541   26.6991 C   0  0  0  0  0  0  0  0  0  0  0  0
    8.3532  -14.7343   25.9741 C   0  0  2  0  0  0  0  0  0  0  0  0
    7.8351  -15.0653   24.6509 N   0  0  0  0  0  0  0  0  0  0  0  0
    8.8301  -15.9393   26.6772 C   0  0  0  0  0  0  0  0  0  0  0  0
    9.7178  -15.8731   27.7377 O   0  0  0  0  0  0  0  0  0  0  0  0
    8.4245  -17.0658   26.3098 O   0  0  0  0  0  0  0  0  0  0  0  0
  2  1  1  1
  2  4  1  0
  2  3  1  0
  4  5  2  0
  8  7  1  6
  7  6  1  0
  9  4  1  0
  9  8  1  0
 10  8  1  0
 10 11  2  0
 13 12  1  1
 13 14  1  0
 13 15  1  0
 16 15  1  1
 16 17  1  0
 16 18  1  0
 17 10  1  0
 18 20  2  0
 18 19  1  0
M  END
$$$$
