ASL.pdb
     RDKit          3D

 20 19  0  0  1  0  0  0  0  0999 V2000
    9.7917  -16.6007   19.3685 C   0  0  0  0  0  0  0  0  0  0  0  0
    8.5095  -17.2356   19.7902 C   0  0  2  0  0  0  0  0  0  0  0  0
    7.5378  -17.1648   18.7197 N   0  0  0  0  0  0  0  0  0  0  0  0
    7.9442  -16.6437   21.0374 C   0  0  0  0  0  0  0  0  0  0  0  0
    7.5780  -15.4506   21.1022 O   0  0  0  0  0  0  0  0  0  0  0  0
    7.3495  -19.0987   24.6914 O   0  0  0  0  0  0  0  0  0  0  0  0
    6.5070  -18.1509   24.1656 C   0  0  0  0  0  0  0  0  0  0  0  0
    7.1945  -17.0651   23.4158 C   0  0  2  0  0  0  0  0  0  0  0  0
    7.8205  -17.4703   22.1879 N   0  0  0  0  0  0  0  0  0  0  0  0
    8.0760  -16.2036   24.2764 C   0  0  0  0  0  0  0  0  0  0  0  0
    9.3036  -16.2295   24.0636 O   0  0  0  0  0  0  0  0  0  0  0  0
    5.7802  -11.8443   26.5961 C   0  0  0  0  0  0  0  0  0  0  0  0
    6.7423  -12.7661   25.8814 C   0  0  1  0  0  0  0  0  0  0  0  0
    7.8009  -11.9356   25.1411 C   0  0  0  0  0  0  0  0  0  0  0  0
    7.5126  -13.6131   26.8634 C   0  0  0  0  0  0  0  0  0  0  0  0
    8.4232  -14.6212   26.2083 C   0  0  2  0  0  0  0  0  0  0  0  0
    7.5781  -15.3835   25.2953 N   0  0  0  0  0  0  0  0  0  0  0  0
    9.0838  -15.5044   27.1869 C   0  0  0  0  0  0  0  0  0  0  0  0
    8.7565  -16.8440   27.3119 O   0  0  0  0  0  0  0  0  0  0  0  0
    9.9721  -15.0363   27.9352 O   0  0  0  0  0  0  0  0  0  0  0  0
  2  1  1  6
  2  4  1  0
  2  3  1  0
  4  5  2  0
  8  7  1  1
  7  6  1  0
  9  4  1  0
  9  8  1  0
 10  8  1  0
 10 11  2  0
 13 12  1  1
 13 14  1  0
 13 15  1  0
 16 15  1  1
 16 17  1  0
 16 18  1  0
 17 10  1  0
 18 20  2  0
 18 19  1  0
M  END
$$$$
