ASL.pdb
     RDKit          3D

 20 19  0  0  1  0  0  0  0  0999 V2000
    8.6845  -12.2626   19.0246 C   0  0  0  0  0  0  0  0  0  0  0  0
    8.6279  -13.7191   18.7073 C   0  0  2  0  0  0  0  0  0  0  0  0
    7.8064  -13.9469   17.5374 N   0  0  0  0  0  0  0  0  0  0  0  0
    8.1406  -14.5492   19.8470 C   0  0  0  0  0  0  0  0  0  0  0  0
    6.9241  -14.7406   20.0596 O   0  0  0  0  0  0  0  0  0  0  0  0
   10.6478  -17.4096   21.9952 O   0  0  0  0  0  0  0  0  0  0  0  0
    9.2833  -17.3083   21.8846 C   0  0  0  0  0  0  0  0  0  0  0  0
    8.7685  -15.9123   21.8826 C   0  0  2  0  0  0  0  0  0  0  0  0
    9.0978  -15.1399   20.7171 N   0  0  0  0  0  0  0  0  0  0  0  0
    9.0140  -15.1781   23.1713 C   0  0  0  0  0  0  0  0  0  0  0  0
   10.1029  -14.5877   23.3078 O   0  0  0  0  0  0  0  0  0  0  0  0
    8.0870  -11.5491   26.6655 C   0  0  0  0  0  0  0  0  0  0  0  0
    7.1375  -12.7013   26.9040 C   0  0  1  0  0  0  0  0  0  0  0  0
    5.7136  -12.1640   27.1098 C   0  0  0  0  0  0  0  0  0  0  0  0
    7.0564  -13.5967   25.6928 C   0  0  0  0  0  0  0  0  0  0  0  0
    8.2977  -14.4233   25.4678 C   0  0  2  0  0  0  0  0  0  0  0  0
    8.0787  -15.1322   24.2115 N   0  0  0  0  0  0  0  0  0  0  0  0
    8.5571  -15.3641   26.5731 C   0  0  0  0  0  0  0  0  0  0  0  0
    8.4495  -16.7356   26.4164 O   0  0  0  0  0  0  0  0  0  0  0  0
    8.8862  -14.9171   27.6957 O   0  0  0  0  0  0  0  0  0  0  0  0
  2  1  1  1
  2  4  1  0
  2  3  1  0
  4  5  2  0
  8  7  1  1
  7  6  1  0
  9  4  1  0
  9  8  1  0
 10  8  1  0
 10 11  2  0
 13 12  1  6
 13 14  1  0
 13 15  1  0
 16 15  1  1
 16 17  1  0
 16 18  1  0
 17 10  1  0
 18 20  2  0
 18 19  1  0
M  END
$$$$
