ASL.pdb
     RDKit          3D

 20 19  0  0  1  0  0  0  0  0999 V2000
   -0.5363  -28.3858   23.4418 C   0  0  0  0  0  0  0  0  0  0  0  0
   -0.4392  -27.1528   24.2757 C   0  0  2  0  0  0  0  0  0  0  0  0
    0.6499  -27.2707   25.2218 N   0  0  0  0  0  0  0  0  0  0  0  0
   -1.7075  -26.8264   24.9901 C   0  0  0  0  0  0  0  0  0  0  0  0
   -2.6380  -26.1974   24.4420 O   0  0  0  0  0  0  0  0  0  0  0  0
   -4.4247  -27.9583   28.8920 O   0  0  0  0  0  0  0  0  0  0  0  0
   -3.2940  -28.1456   28.1364 C   0  0  0  0  0  0  0  0  0  0  0  0
   -3.0580  -27.0930   27.1116 C   0  0  2  0  0  0  0  0  0  0  0  0
   -1.8563  -27.2480   26.3400 N   0  0  0  0  0  0  0  0  0  0  0  0
   -3.2572  -25.6950   27.6273 C   0  0  0  0  0  0  0  0  0  0  0  0
   -2.3302  -25.1761   28.2788 O   0  0  0  0  0  0  0  0  0  0  0  0
   -3.3548  -20.8370   27.8551 C   0  0  0  0  0  0  0  0  0  0  0  0
   -4.5688  -21.2364   27.0472 C   0  0  1  0  0  0  0  0  0  0  0  0
   -4.5561  -20.5033   25.6977 C   0  0  0  0  0  0  0  0  0  0  0  0
   -4.5335  -22.7051   26.7054 C   0  0  0  0  0  0  0  0  0  0  0  0
   -4.6447  -23.6086   27.9078 C   0  0  2  0  0  0  0  0  0  0  0  0
   -4.4290  -24.9620   27.4073 N   0  0  0  0  0  0  0  0  0  0  0  0
   -5.9502  -23.4911   28.5829 C   0  0  0  0  0  0  0  0  0  0  0  0
   -6.1369  -22.6887   29.6958 O   0  0  0  0  0  0  0  0  0  0  0  0
   -6.9296  -24.1354   28.1425 O   0  0  0  0  0  0  0  0  0  0  0  0
  2  1  1  1
  2  4  1  0
  2  3  1  0
  4  5  2  0
  8  7  1  1
  7  6  1  0
  9  4  1  0
  9  8  1  0
 10  8  1  0
 10 11  2  0
 13 12  1  1
 13 14  1  0
 13 15  1  0
 16 15  1  6
 16 17  1  0
 16 18  1  0
 17 10  1  0
 18 20  2  0
 18 19  1  0
M  END
$$$$
