ASL.pdb
     RDKit          3D

 20 19  0  0  1  0  0  0  0  0999 V2000
    8.8067  -12.1920   19.2470 C   0  0  0  0  0  0  0  0  0  0  0  0
    8.7298  -13.6547   18.9647 C   0  0  2  0  0  0  0  0  0  0  0  0
    8.0396  -13.8895   17.7142 N   0  0  0  0  0  0  0  0  0  0  0  0
    8.0828  -14.4307   20.0623 C   0  0  0  0  0  0  0  0  0  0  0  0
    6.8527  -14.6497   20.0881 O   0  0  0  0  0  0  0  0  0  0  0  0
    9.8760  -17.6514   21.8960 O   0  0  0  0  0  0  0  0  0  0  0  0
    8.5745  -17.2236   21.9830 C   0  0  0  0  0  0  0  0  0  0  0  0
    8.4214  -15.7579   22.1884 C   0  0  2  0  0  0  0  0  0  0  0  0
    8.8990  -14.9355   21.1117 N   0  0  0  0  0  0  0  0  0  0  0  0
    8.8768  -15.2886   23.5420 C   0  0  0  0  0  0  0  0  0  0  0  0
   10.0964  -15.0982   23.7134 O   0  0  0  0  0  0  0  0  0  0  0  0
    5.5248  -12.2024   26.5229 C   0  0  0  0  0  0  0  0  0  0  0  0
    6.7449  -12.7923   25.8525 C   0  0  1  0  0  0  0  0  0  0  0  0
    7.9084  -11.7923   25.9235 C   0  0  0  0  0  0  0  0  0  0  0  0
    7.2264  -14.0195   26.5856 C   0  0  0  0  0  0  0  0  0  0  0  0
    8.4242  -14.6752   25.9453 C   0  0  2  0  0  0  0  0  0  0  0  0
    7.9954  -15.0600   24.6048 N   0  0  0  0  0  0  0  0  0  0  0  0
    8.9032  -15.8426   26.7080 C   0  0  0  0  0  0  0  0  0  0  0  0
    9.7910  -15.7217   27.7636 O   0  0  0  0  0  0  0  0  0  0  0  0
    8.4992  -16.9867   26.3979 O   0  0  0  0  0  0  0  0  0  0  0  0
  2  1  1  1
  2  4  1  0
  2  3  1  0
  4  5  2  0
  8  7  1  6
  7  6  1  0
  9  4  1  0
  9  8  1  0
 10  8  1  0
 10 11  2  0
 13 12  1  1
 13 14  1  0
 13 15  1  0
 16 15  1  1
 16 17  1  0
 16 18  1  0
 17 10  1  0
 18 20  2  0
 18 19  1  0
M  END
$$$$
