ASL.pdb
     RDKit          3D

 20 19  0  0  1  0  0  0  0  0999 V2000
   11.9333  -18.3643   20.6240 C   0  0  0  0  0  0  0  0  0  0  0  0
   10.5429  -18.0144   20.2125 C   0  0  2  0  0  0  0  0  0  0  0  0
   10.5534  -17.3335   18.9352 N   0  0  0  0  0  0  0  0  0  0  0  0
    9.8201  -17.1932   21.2267 C   0  0  0  0  0  0  0  0  0  0  0  0
    9.9166  -15.9478   21.2672 O   0  0  0  0  0  0  0  0  0  0  0  0
    7.3398  -19.0039   24.4729 O   0  0  0  0  0  0  0  0  0  0  0  0
    6.9886  -17.9957   23.6099 C   0  0  0  0  0  0  0  0  0  0  0  0
    8.1335  -17.1867   23.1112 C   0  0  2  0  0  0  0  0  0  0  0  0
    8.9950  -17.8559   22.1766 N   0  0  0  0  0  0  0  0  0  0  0  0
    8.8810  -16.4666   24.1986 C   0  0  0  0  0  0  0  0  0  0  0  0
   10.0037  -16.9012   24.5208 O   0  0  0  0  0  0  0  0  0  0  0  0
    6.8586  -11.7910   27.1592 C   0  0  0  0  0  0  0  0  0  0  0  0
    7.1805  -13.1927   26.6925 C   0  0  1  0  0  0  0  0  0  0  0  0
    6.0911  -13.6788   25.7253 C   0  0  0  0  0  0  0  0  0  0  0  0
    8.4622  -13.2186   25.8977 C   0  0  0  0  0  0  0  0  0  0  0  0
    9.1170  -14.5764   25.8504 C   0  0  2  0  0  0  0  0  0  0  0  0
    8.3718  -15.3407   24.8558 N   0  0  0  0  0  0  0  0  0  0  0  0
    9.1075  -15.2533   27.1603 C   0  0  0  0  0  0  0  0  0  0  0  0
    8.3473  -16.3851   27.4015 O   0  0  0  0  0  0  0  0  0  0  0  0
    9.8072  -14.7962   28.0929 O   0  0  0  0  0  0  0  0  0  0  0  0
  2  1  1  1
  2  4  1  0
  2  3  1  0
  4  5  2  0
  8  7  1  1
  7  6  1  0
  9  4  1  0
  9  8  1  0
 10  8  1  0
 10 11  2  0
 13 12  1  6
 13 14  1  0
 13 15  1  0
 16 15  1  1
 16 17  1  0
 16 18  1  0
 17 10  1  0
 18 20  2  0
 18 19  1  0
M  END
$$$$
