ASL.pdb
     RDKit          3D

 20 19  0  0  1  0  0  0  0  0999 V2000
    7.6896  -12.6360   18.8086 C   0  0  0  0  0  0  0  0  0  0  0  0
    8.7156  -13.3802   19.5953 C   0  0  2  0  0  0  0  0  0  0  0  0
    9.3264  -14.4078   18.7792 N   0  0  0  0  0  0  0  0  0  0  0  0
    8.1736  -13.9757   20.8511 C   0  0  0  0  0  0  0  0  0  0  0  0
    7.5779  -13.2910   21.7102 O   0  0  0  0  0  0  0  0  0  0  0  0
    9.2276  -18.0837   22.0849 O   0  0  0  0  0  0  0  0  0  0  0  0
    7.9695  -17.5434   22.1840 C   0  0  0  0  0  0  0  0  0  0  0  0
    7.9430  -16.0581   22.2676 C   0  0  2  0  0  0  0  0  0  0  0  0
    8.3438  -15.3702   21.0719 N   0  0  0  0  0  0  0  0  0  0  0  0
    8.5881  -15.5134   23.5115 C   0  0  0  0  0  0  0  0  0  0  0  0
    9.7733  -15.1357   23.4363 O   0  0  0  0  0  0  0  0  0  0  0  0
    5.6400  -12.4653   26.5266 C   0  0  0  0  0  0  0  0  0  0  0  0
    6.8761  -13.0308   25.8646 C   0  0  1  0  0  0  0  0  0  0  0  0
    7.9682  -11.9529   25.8019 C   0  0  0  0  0  0  0  0  0  0  0  0
    7.4659  -14.1511   26.6844 C   0  0  0  0  0  0  0  0  0  0  0  0
    8.5389  -14.9280   25.9633 C   0  0  2  0  0  0  0  0  0  0  0  0
    7.9178  -15.4149   24.7362 N   0  0  0  0  0  0  0  0  0  0  0  0
    9.0686  -16.0417   26.7715 C   0  0  0  0  0  0  0  0  0  0  0  0
    8.9169  -17.3654   26.3947 O   0  0  0  0  0  0  0  0  0  0  0  0
    9.6777  -15.7921   27.8369 O   0  0  0  0  0  0  0  0  0  0  0  0
  2  1  1  6
  2  4  1  0
  2  3  1  0
  4  5  2  0
  8  7  1  6
  7  6  1  0
  9  4  1  0
  9  8  1  0
 10  8  1  0
 10 11  2  0
 13 12  1  1
 13 14  1  0
 13 15  1  0
 16 15  1  1
 16 17  1  0
 16 18  1  0
 17 10  1  0
 18 20  2  0
 18 19  1  0
M  END
$$$$
