ITY.pdb
     RDKit          3D

 28 28  0  0  1  0  0  0  0  0999 V2000
    7.3275  -11.7547   19.7479 C   0  0  0  0  0  0  0  0  0  0  0  0
    7.6366  -13.2356   19.4576 C   0  0  0  0  0  0  0  0  0  0  0  0
    7.7535  -13.9364   20.7849 C   0  0  2  0  0  0  0  0  0  0  0  0
    8.7773  -13.2567   21.6746 C   0  0  0  0  0  0  0  0  0  0  0  0
    7.8962  -15.3951   20.7208 C   0  0  2  0  0  0  0  0  0  0  0  0
    6.8812  -16.0669   19.8938 N   0  0  0  0  0  0  0  0  0  0  0  0
    8.2218  -16.1594   21.9204 C   0  0  0  0  0  0  0  0  0  0  0  0
    7.2402  -16.6730   22.5785 O   0  0  0  0  0  0  0  0  0  0  0  0
   11.1930  -19.1138   24.3953 C   0  0  0  0  0  0  0  0  0  0  0  0
   10.8792  -18.1507   23.2801 C   0  0  1  0  0  0  0  0  0  0  0  0
   10.4471  -18.9159   22.1740 O   0  0  0  0  0  0  0  0  0  0  0  0
    9.7165  -17.2419   23.6318 C   0  0  2  0  0  0  0  0  0  0  0  0
    9.4835  -16.4078   22.4620 N   0  0  0  0  0  0  0  0  0  0  0  0
   10.1614  -16.4273   24.7922 C   0  0  0  0  0  0  0  0  0  0  0  0
   11.0013  -15.5125   24.6164 O   0  0  0  0  0  0  0  0  0  0  0  0
    5.8514  -11.5166   25.5231 O   0  0  0  0  0  0  0  0  0  0  0  0
    6.6406  -12.4839   26.1515 C   0  0  0  0  0  0  0  0  0  0  0  0
    6.2476  -13.7947   26.2479 C   0  0  0  0  0  0  0  0  0  0  0  0
    7.0476  -14.7230   26.8730 C   0  0  0  0  0  0  0  0  0  0  0  0
    8.2777  -14.3894   27.4327 C   0  0  0  0  0  0  0  0  0  0  0  0
    9.1083  -15.3837   28.1024 C   0  0  0  0  0  0  0  0  0  0  0  0
   10.1814  -16.0162   27.2846 C   0  0  2  0  0  0  0  0  0  0  0  0
    9.6533  -16.6660   26.0956 N   0  0  0  0  0  0  0  0  0  0  0  0
   11.0010  -16.9081   28.0966 C   0  0  0  0  0  0  0  0  0  0  0  0
   11.1490  -18.2745   27.8332 O   0  0  0  0  0  0  0  0  0  0  0  0
    8.6562  -13.0550   27.3232 C   0  0  0  0  0  0  0  0  0  0  0  0
    7.8559  -12.1291   26.6981 C   0  0  0  0  0  0  0  0  0  0  0  0
   11.6208  -16.4659   29.0908 O   0  0  0  0  0  0  0  0  0  0  0  0
  1  2  1  0
  2  3  1  0
  3  4  1  6
  5  3  1  0
  5  7  1  0
  5  6  1  1
  7  8  2  0
 10 12  1  0
 10  9  1  1
 11 10  1  0
 12 14  1  0
 13  7  1  0
 12 13  1  6
 14 15  2  0
 16 17  1  0
 17 18  2  0
 18 19  1  0
 20 19  2  0
 20 21  1  0
 22 21  1  1
 22 24  1  0
 23 22  1  0
 23 14  1  0
 24 28  2  0
 24 25  1  0
 26 20  1  0
 27 17  1  0
 27 26  2  0
M  END
$$$$
