ITY.pdb
     RDKit          3D

 28 28  0  0  1  0  0  0  0  0999 V2000
    7.3819  -11.7163   19.5119 C   0  0  0  0  0  0  0  0  0  0  0  0
    7.9622  -13.1097   19.2046 C   0  0  0  0  0  0  0  0  0  0  0  0
    7.9042  -13.9092   20.4789 C   0  0  2  0  0  0  0  0  0  0  0  0
    8.5429  -13.1533   21.6289 C   0  0  0  0  0  0  0  0  0  0  0  0
    8.3389  -15.3061   20.3709 C   0  0  2  0  0  0  0  0  0  0  0  0
    7.7582  -16.0345   19.2318 N   0  0  0  0  0  0  0  0  0  0  0  0
    8.4435  -16.1421   21.5623 C   0  0  0  0  0  0  0  0  0  0  0  0
    7.3740  -16.7407   21.9600 O   0  0  0  0  0  0  0  0  0  0  0  0
   10.2984  -19.1762   22.1287 C   0  0  0  0  0  0  0  0  0  0  0  0
   10.6466  -18.2801   23.2886 C   0  0  1  0  0  0  0  0  0  0  0  0
   11.8136  -17.5679   22.9332 O   0  0  0  0  0  0  0  0  0  0  0  0
    9.5793  -17.2290   23.5280 C   0  0  2  0  0  0  0  0  0  0  0  0
    9.5730  -16.3788   22.3466 N   0  0  0  0  0  0  0  0  0  0  0  0
   10.0048  -16.4708   24.7330 C   0  0  0  0  0  0  0  0  0  0  0  0
   10.2878  -15.2535   24.6264 O   0  0  0  0  0  0  0  0  0  0  0  0
    6.4596  -11.1671   25.9715 O   0  0  0  0  0  0  0  0  0  0  0  0
    7.0119  -12.3765   26.4024 C   0  0  0  0  0  0  0  0  0  0  0  0
    6.3247  -13.5611   26.3218 C   0  0  0  0  0  0  0  0  0  0  0  0
    6.8965  -14.7350   26.7548 C   0  0  0  0  0  0  0  0  0  0  0  0
    8.1808  -14.7847   27.2895 C   0  0  0  0  0  0  0  0  0  0  0  0
    8.7678  -16.0361   27.7548 C   0  0  0  0  0  0  0  0  0  0  0  0
   10.1333  -16.3592   27.2534 C   0  0  2  0  0  0  0  0  0  0  0  0
   10.0968  -17.0992   26.0021 N   0  0  0  0  0  0  0  0  0  0  0  0
   10.9230  -17.0285   28.2805 C   0  0  0  0  0  0  0  0  0  0  0  0
   11.4608  -16.3704   29.3923 O   0  0  0  0  0  0  0  0  0  0  0  0
    8.8592  -13.5720   27.3615 C   0  0  0  0  0  0  0  0  0  0  0  0
    8.2865  -12.4004   26.9282 C   0  0  0  0  0  0  0  0  0  0  0  0
   11.1540  -18.2566   28.1992 O   0  0  0  0  0  0  0  0  0  0  0  0
  1  2  1  0
  2  3  1  0
  3  4  1  1
  5  3  1  0
  5  7  1  0
  5  6  1  6
  7  8  2  0
 10 12  1  0
 10  9  1  6
 11 10  1  0
 12 14  1  0
 13  7  1  0
 12 13  1  6
 14 15  2  0
 16 17  1  0
 17 18  2  0
 18 19  1  0
 20 19  2  0
 20 21  1  0
 22 21  1  1
 22 24  1  0
 23 22  1  0
 23 14  1  0
 24 28  2  0
 24 25  1  0
 26 20  1  0
 27 17  1  0
 27 26  2  0
M  END
$$$$
