ITY.pdb
     RDKit          3D

 28 28  0  0  1  0  0  0  0  0999 V2000
   16.6204  -14.2429   18.3896 C   0  0  0  0  0  0  0  0  0  0  0  0
   15.0950  -14.0863   18.5358 C   0  0  0  0  0  0  0  0  0  0  0  0
   14.4918  -15.4613   18.4263 C   0  0  2  0  0  0  0  0  0  0  0  0
   14.9857  -16.1784   17.1838 C   0  0  0  0  0  0  0  0  0  0  0  0
   13.0389  -15.5329   18.6164 C   0  0  2  0  0  0  0  0  0  0  0  0
   12.2543  -14.9898   17.4961 N   0  0  0  0  0  0  0  0  0  0  0  0
   12.4459  -15.2109   19.9101 C   0  0  0  0  0  0  0  0  0  0  0  0
   12.7141  -14.0546   20.4118 O   0  0  0  0  0  0  0  0  0  0  0  0
    8.7990  -15.2509   21.1888 C   0  0  0  0  0  0  0  0  0  0  0  0
    9.6835  -16.0813   22.0820 C   0  0  1  0  0  0  0  0  0  0  0  0
    9.6667  -17.4014   21.5793 O   0  0  0  0  0  0  0  0  0  0  0  0
   11.1312  -15.6331   22.0144 C   0  0  2  0  0  0  0  0  0  0  0  0
   11.6128  -16.0102   20.6937 N   0  0  0  0  0  0  0  0  0  0  0  0
   11.8480  -16.3795   23.0808 C   0  0  0  0  0  0  0  0  0  0  0  0
   12.3306  -17.5084   22.8242 O   0  0  0  0  0  0  0  0  0  0  0  0
    8.5606  -14.4486   29.9797 O   0  0  0  0  0  0  0  0  0  0  0  0
    9.6515  -14.7549   29.1614 C   0  0  0  0  0  0  0  0  0  0  0  0
   10.5206  -15.7743   29.4573 C   0  0  0  0  0  0  0  0  0  0  0  0
   11.5854  -16.0506   28.6313 C   0  0  0  0  0  0  0  0  0  0  0  0
   11.8354  -15.3239   27.4706 C   0  0  0  0  0  0  0  0  0  0  0  0
   12.9759  -15.6225   26.6119 C   0  0  0  0  0  0  0  0  0  0  0  0
   12.7183  -16.5171   25.4483 C   0  0  2  0  0  0  0  0  0  0  0  0
   11.9963  -15.8380   24.3842 N   0  0  0  0  0  0  0  0  0  0  0  0
   12.0673  -17.7515   25.8715 C   0  0  0  0  0  0  0  0  0  0  0  0
   12.7184  -18.7609   26.5896 O   0  0  0  0  0  0  0  0  0  0  0  0
   10.9414  -14.2953   27.1900 C   0  0  0  0  0  0  0  0  0  0  0  0
    9.8782  -14.0208   28.0163 C   0  0  0  0  0  0  0  0  0  0  0  0
   10.8628  -17.9564   25.5971 O   0  0  0  0  0  0  0  0  0  0  0  0
  1  2  1  0
  2  3  1  0
  3  4  1  6
  5  3  1  0
  5  7  1  0
  5  6  1  6
  7  8  2  0
 10 12  1  0
 10  9  1  6
 11 10  1  0
 12 14  1  0
 13  7  1  0
 12 13  1  6
 14 15  2  0
 16 17  1  0
 17 18  2  0
 18 19  1  0
 20 19  2  0
 20 21  1  0
 22 21  1  1
 22 24  1  0
 23 22  1  0
 23 14  1  0
 24 28  2  0
 24 25  1  0
 26 20  1  0
 27 17  1  0
 27 26  2  0
M  END
$$$$
