ITY.pdb
     RDKit          3D

 28 28  0  0  1  0  0  0  0  0999 V2000
    7.3595  -11.8490   18.5362 C   0  0  0  0  0  0  0  0  0  0  0  0
    7.6921  -13.2762   18.0615 C   0  0  0  0  0  0  0  0  0  0  0  0
    7.9481  -14.1077   19.2902 C   0  0  2  0  0  0  0  0  0  0  0  0
    9.0037  -13.4691   20.1732 C   0  0  0  0  0  0  0  0  0  0  0  0
    8.1579  -15.5402   19.0534 C   0  0  2  0  0  0  0  0  0  0  0  0
    7.1817  -16.1518   18.1378 N   0  0  0  0  0  0  0  0  0  0  0  0
    8.5081  -16.4284   20.1569 C   0  0  0  0  0  0  0  0  0  0  0  0
    7.5405  -16.9048   20.8620 O   0  0  0  0  0  0  0  0  0  0  0  0
   10.1342  -19.6837   20.6373 C   0  0  0  0  0  0  0  0  0  0  0  0
   10.8919  -18.7122   21.5044 C   0  0  1  0  0  0  0  0  0  0  0  0
   11.9902  -18.2439   20.7493 O   0  0  0  0  0  0  0  0  0  0  0  0
   10.0629  -17.4844   21.8309 C   0  0  2  0  0  0  0  0  0  0  0  0
    9.7810  -16.8338   20.5599 N   0  0  0  0  0  0  0  0  0  0  0  0
   10.9132  -16.6265   22.6965 C   0  0  0  0  0  0  0  0  0  0  0  0
   11.6970  -15.8028   22.1670 O   0  0  0  0  0  0  0  0  0  0  0  0
   10.2438  -15.6686   31.3095 O   0  0  0  0  0  0  0  0  0  0  0  0
   10.4060  -15.4956   29.9322 C   0  0  0  0  0  0  0  0  0  0  0  0
   11.0468  -16.4242   29.1517 C   0  0  0  0  0  0  0  0  0  0  0  0
   11.1903  -16.2242   27.7982 C   0  0  0  0  0  0  0  0  0  0  0  0
   10.7024  -15.0889   27.1574 C   0  0  0  0  0  0  0  0  0  0  0  0
   10.8735  -14.8869   25.7232 C   0  0  0  0  0  0  0  0  0  0  0  0
   11.6750  -15.9117   24.9965 C   0  0  2  0  0  0  0  0  0  0  0  0
   10.8544  -16.7226   24.1111 N   0  0  0  0  0  0  0  0  0  0  0  0
   12.4638  -16.7136   25.9245 C   0  0  0  0  0  0  0  0  0  0  0  0
   13.6081  -16.2389   26.5754 O   0  0  0  0  0  0  0  0  0  0  0  0
   10.0561  -14.1609   27.9680 C   0  0  0  0  0  0  0  0  0  0  0  0
    9.9135  -14.3624   29.3199 C   0  0  0  0  0  0  0  0  0  0  0  0
   12.1321  -17.8941   26.1787 O   0  0  0  0  0  0  0  0  0  0  0  0
  1  2  1  0
  2  3  1  0
  3  4  1  6
  5  3  1  0
  5  7  1  0
  5  6  1  1
  7  8  2  0
 10 12  1  0
 10  9  1  6
 11 10  1  0
 12 14  1  0
 13  7  1  0
 12 13  1  6
 14 15  2  0
 16 17  1  0
 17 18  2  0
 18 19  1  0
 20 19  2  0
 20 21  1  0
 22 21  1  1
 22 24  1  0
 23 22  1  0
 23 14  1  0
 24 28  2  0
 24 25  1  0
 26 20  1  0
 27 17  1  0
 27 26  2  0
M  END
$$$$
