ITY.pdb
     RDKit          3D

 28 28  0  0  1  0  0  0  0  0999 V2000
    7.6526  -12.0197   18.5772 C   0  0  0  0  0  0  0  0  0  0  0  0
    8.1929  -13.3959   18.1448 C   0  0  0  0  0  0  0  0  0  0  0  0
    8.3050  -14.2419   19.3850 C   0  0  2  0  0  0  0  0  0  0  0  0
    9.1726  -13.5676   20.4311 C   0  0  0  0  0  0  0  0  0  0  0  0
    8.6327  -15.6543   19.1611 C   0  0  2  0  0  0  0  0  0  0  0  0
    7.8836  -16.2825   18.0613 N   0  0  0  0  0  0  0  0  0  0  0  0
    8.8127  -16.5595   20.2913 C   0  0  0  0  0  0  0  0  0  0  0  0
    7.7493  -17.0196   20.8553 O   0  0  0  0  0  0  0  0  0  0  0  0
   11.1494  -19.6244   20.9796 C   0  0  0  0  0  0  0  0  0  0  0  0
   11.3127  -18.5843   22.0572 C   0  0  1  0  0  0  0  0  0  0  0  0
   12.3948  -17.7574   21.6819 O   0  0  0  0  0  0  0  0  0  0  0  0
   10.1057  -17.6693   22.1437 C   0  0  2  0  0  0  0  0  0  0  0  0
   10.0111  -16.9974   20.8561 N   0  0  0  0  0  0  0  0  0  0  0  0
   10.3941  -16.7021   23.2343 C   0  0  0  0  0  0  0  0  0  0  0  0
   10.9464  -15.6102   22.9587 O   0  0  0  0  0  0  0  0  0  0  0  0
    5.9983  -11.2167   28.1078 O   0  0  0  0  0  0  0  0  0  0  0  0
    6.5888  -12.2172   27.3307 C   0  0  0  0  0  0  0  0  0  0  0  0
    7.9293  -12.2173   27.0390 C   0  0  0  0  0  0  0  0  0  0  0  0
    8.4802  -13.2168   26.2710 C   0  0  0  0  0  0  0  0  0  0  0  0
    7.7215  -14.2643   25.7563 C   0  0  0  0  0  0  0  0  0  0  0  0
    8.3194  -15.3098   24.9338 C   0  0  0  0  0  0  0  0  0  0  0  0
    9.5158  -15.9978   25.4957 C   0  0  2  0  0  0  0  0  0  0  0  0
   10.0561  -16.9917   24.5818 N   0  0  0  0  0  0  0  0  0  0  0  0
    9.2324  -16.5438   26.8178 C   0  0  0  0  0  0  0  0  0  0  0  0
    8.4333  -17.6724   27.0322 O   0  0  0  0  0  0  0  0  0  0  0  0
    6.3649  -14.2442   26.0647 C   0  0  0  0  0  0  0  0  0  0  0  0
    5.8163  -13.2450   26.8323 C   0  0  0  0  0  0  0  0  0  0  0  0
    9.7111  -16.0023   27.8405 O   0  0  0  0  0  0  0  0  0  0  0  0
  1  2  1  0
  2  3  1  0
  3  4  1  1
  5  3  1  0
  5  7  1  0
  5  6  1  6
  7  8  2  0
 10 12  1  0
 10  9  1  6
 11 10  1  0
 12 14  1  0
 13  7  1  0
 12 13  1  6
 14 15  2  0
 16 17  1  0
 17 18  2  0
 18 19  1  0
 20 19  2  0
 20 21  1  0
 22 21  1  6
 22 24  1  0
 23 22  1  0
 23 14  1  0
 24 28  2  0
 24 25  1  0
 26 20  1  0
 27 17  1  0
 27 26  2  0
M  END
$$$$
