ITY.pdb
     RDKit          3D

 28 28  0  0  1  0  0  0  0  0999 V2000
    7.5655  -11.9676   19.1826 C   0  0  0  0  0  0  0  0  0  0  0  0
    8.1483  -13.3773   18.9680 C   0  0  0  0  0  0  0  0  0  0  0  0
    8.0536  -14.1051   20.2824 C   0  0  2  0  0  0  0  0  0  0  0  0
    8.6107  -13.2638   21.4154 C   0  0  0  0  0  0  0  0  0  0  0  0
    8.5376  -15.4900   20.2762 C   0  0  2  0  0  0  0  0  0  0  0  0
    8.0362  -16.3014   19.1557 N   0  0  0  0  0  0  0  0  0  0  0  0
    8.6112  -16.2529   21.5179 C   0  0  0  0  0  0  0  0  0  0  0  0
    7.5534  -16.8922   21.8823 O   0  0  0  0  0  0  0  0  0  0  0  0
   10.3832  -19.2062   22.2760 C   0  0  0  0  0  0  0  0  0  0  0  0
   10.7458  -18.2609   23.3917 C   0  0  1  0  0  0  0  0  0  0  0  0
   11.9153  -17.5741   22.9965 O   0  0  0  0  0  0  0  0  0  0  0  0
    9.6876  -17.1922   23.5901 C   0  0  2  0  0  0  0  0  0  0  0  0
    9.6987  -16.3792   22.3829 N   0  0  0  0  0  0  0  0  0  0  0  0
   10.1120  -16.4011   24.7742 C   0  0  0  0  0  0  0  0  0  0  0  0
   10.8671  -15.4123   24.6156 O   0  0  0  0  0  0  0  0  0  0  0  0
    5.9775  -11.3495   25.8839 O   0  0  0  0  0  0  0  0  0  0  0  0
    6.7268  -12.3957   26.4291 C   0  0  0  0  0  0  0  0  0  0  0  0
    6.2291  -13.6696   26.5363 C   0  0  0  0  0  0  0  0  0  0  0  0
    6.9922  -14.6778   27.0781 C   0  0  0  0  0  0  0  0  0  0  0  0
    8.2881  -14.4649   27.5396 C   0  0  0  0  0  0  0  0  0  0  0  0
    9.0794  -15.5426   28.1221 C   0  0  0  0  0  0  0  0  0  0  0  0
   10.1795  -16.0922   27.2805 C   0  0  2  0  0  0  0  0  0  0  0  0
    9.6785  -16.7445   26.0812 N   0  0  0  0  0  0  0  0  0  0  0  0
   11.0578  -16.9529   28.0643 C   0  0  0  0  0  0  0  0  0  0  0  0
   11.8127  -16.5001   29.1522 O   0  0  0  0  0  0  0  0  0  0  0  0
    8.7725  -13.1660   27.4209 C   0  0  0  0  0  0  0  0  0  0  0  0
    8.0088  -12.1600   26.8792 C   0  0  0  0  0  0  0  0  0  0  0  0
   11.1696  -18.1674   27.7804 O   0  0  0  0  0  0  0  0  0  0  0  0
  1  2  1  0
  2  3  1  0
  3  4  1  1
  5  3  1  0
  5  7  1  0
  5  6  1  6
  7  8  2  0
 10 12  1  0
 10  9  1  6
 11 10  1  0
 12 14  1  0
 13  7  1  0
 12 13  1  6
 14 15  2  0
 16 17  1  0
 17 18  2  0
 18 19  1  0
 20 19  2  0
 20 21  1  0
 22 21  1  1
 22 24  1  0
 23 22  1  0
 23 14  1  0
 24 28  2  0
 24 25  1  0
 26 20  1  0
 27 17  1  0
 27 26  2  0
M  END
$$$$
