ITY.pdb
     RDKit          3D

 28 28  0  0  1  0  0  0  0  0999 V2000
    7.5349  -11.5097   19.9105 C   0  0  0  0  0  0  0  0  0  0  0  0
    7.8854  -12.9720   19.5764 C   0  0  0  0  0  0  0  0  0  0  0  0
    7.9116  -13.7333   20.8749 C   0  0  2  0  0  0  0  0  0  0  0  0
    8.7375  -13.0060   21.9193 C   0  0  0  0  0  0  0  0  0  0  0  0
    8.2180  -15.1638   20.7647 C   0  0  2  0  0  0  0  0  0  0  0  0
    7.4927  -15.8570   19.6882 N   0  0  0  0  0  0  0  0  0  0  0  0
    8.3429  -15.9875   21.9626 C   0  0  0  0  0  0  0  0  0  0  0  0
    7.2577  -16.4656   22.4669 O   0  0  0  0  0  0  0  0  0  0  0  0
    9.8013  -19.2087   22.4838 C   0  0  0  0  0  0  0  0  0  0  0  0
   10.4055  -18.3367   23.5535 C   0  0  1  0  0  0  0  0  0  0  0  0
   11.6102  -17.8112   23.0359 O   0  0  0  0  0  0  0  0  0  0  0  0
    9.5309  -17.1359   23.8613 C   0  0  2  0  0  0  0  0  0  0  0  0
    9.5080  -16.3281   22.6508 N   0  0  0  0  0  0  0  0  0  0  0  0
   10.1945  -16.4129   24.9770 C   0  0  0  0  0  0  0  0  0  0  0  0
   11.1575  -15.6486   24.7289 O   0  0  0  0  0  0  0  0  0  0  0  0
    6.1305  -11.3619   25.5546 O   0  0  0  0  0  0  0  0  0  0  0  0
    6.9397  -12.2805   26.2289 C   0  0  0  0  0  0  0  0  0  0  0  0
    8.1551  -11.9290   26.7593 C   0  0  0  0  0  0  0  0  0  0  0  0
    8.9283  -12.8571   27.4176 C   0  0  0  0  0  0  0  0  0  0  0  0
    8.5276  -14.1804   27.5786 C   0  0  0  0  0  0  0  0  0  0  0  0
    9.3650  -15.1546   28.2690 C   0  0  0  0  0  0  0  0  0  0  0  0
   10.3703  -15.8767   27.4393 C   0  0  2  0  0  0  0  0  0  0  0  0
    9.7582  -16.5717   26.3181 N   0  0  0  0  0  0  0  0  0  0  0  0
   11.1953  -16.7533   28.2624 C   0  0  0  0  0  0  0  0  0  0  0  0
   12.0409  -16.2899   29.2766 O   0  0  0  0  0  0  0  0  0  0  0  0
    7.2919  -14.5145   27.0331 C   0  0  0  0  0  0  0  0  0  0  0  0
    6.5207  -13.5860   26.3761 C   0  0  0  0  0  0  0  0  0  0  0  0
   11.1739  -17.9925   28.0830 O   0  0  0  0  0  0  0  0  0  0  0  0
  1  2  1  0
  2  3  1  0
  3  4  1  1
  5  3  1  0
  5  7  1  0
  5  6  1  6
  7  8  2  0
 10 12  1  0
 10  9  1  6
 11 10  1  0
 12 14  1  0
 13  7  1  0
 12 13  1  6
 14 15  2  0
 16 17  1  0
 17 18  2  0
 18 19  1  0
 20 19  2  0
 20 21  1  0
 22 21  1  1
 22 24  1  0
 23 22  1  0
 23 14  1  0
 24 28  2  0
 24 25  1  0
 26 20  1  0
 27 17  1  0
 27 26  2  0
M  END
$$$$
