ITY.pdb
     RDKit          3D

 28 28  0  0  1  0  0  0  0  0999 V2000
    7.2655  -11.8492   18.8342 C   0  0  0  0  0  0  0  0  0  0  0  0
    7.7518  -13.2174   18.3202 C   0  0  0  0  0  0  0  0  0  0  0  0
    7.9835  -14.0908   19.5243 C   0  0  2  0  0  0  0  0  0  0  0  0
    8.8634  -13.3939   20.5450 C   0  0  0  0  0  0  0  0  0  0  0  0
    8.3850  -15.4723   19.2373 C   0  0  2  0  0  0  0  0  0  0  0  0
    7.6078  -16.1189   18.1680 N   0  0  0  0  0  0  0  0  0  0  0  0
    8.6947  -16.3935   20.3258 C   0  0  0  0  0  0  0  0  0  0  0  0
    7.7144  -17.0553   20.8369 O   0  0  0  0  0  0  0  0  0  0  0  0
   10.9887  -19.2895   20.7870 C   0  0  0  0  0  0  0  0  0  0  0  0
   11.2742  -18.3371   21.9188 C   0  0  1  0  0  0  0  0  0  0  0  0
   12.3696  -17.5357   21.5269 O   0  0  0  0  0  0  0  0  0  0  0  0
   10.1230  -17.3766   22.1502 C   0  0  2  0  0  0  0  0  0  0  0  0
    9.9393  -16.6529   20.9008 N   0  0  0  0  0  0  0  0  0  0  0  0
   10.5549  -16.4644   23.2408 C   0  0  0  0  0  0  0  0  0  0  0  0
   11.0259  -15.3385   22.9513 O   0  0  0  0  0  0  0  0  0  0  0  0
    6.1939  -10.9617   27.5107 O   0  0  0  0  0  0  0  0  0  0  0  0
    6.7442  -12.0877   26.8919 C   0  0  0  0  0  0  0  0  0  0  0  0
    7.2100  -12.0555   25.6019 C   0  0  0  0  0  0  0  0  0  0  0  0
    7.7462  -13.1815   25.0212 C   0  0  0  0  0  0  0  0  0  0  0  0
    7.8435  -14.3939   25.6981 C   0  0  0  0  0  0  0  0  0  0  0  0
    8.4040  -15.5815   25.0635 C   0  0  0  0  0  0  0  0  0  0  0  0
    9.7128  -16.0631   25.5883 C   0  0  2  0  0  0  0  0  0  0  0  0
   10.4442  -16.8443   24.6036 N   0  0  0  0  0  0  0  0  0  0  0  0
    9.5416  -16.7692   26.8527 C   0  0  0  0  0  0  0  0  0  0  0  0
   10.0044  -16.2798   28.0794 O   0  0  0  0  0  0  0  0  0  0  0  0
    7.3654  -14.4035   27.0047 C   0  0  0  0  0  0  0  0  0  0  0  0
    6.8303  -13.2777   27.5833 C   0  0  0  0  0  0  0  0  0  0  0  0
    8.9545  -17.8749   26.8841 O   0  0  0  0  0  0  0  0  0  0  0  0
  1  2  1  0
  2  3  1  0
  3  4  1  1
  5  3  1  0
  5  7  1  0
  5  6  1  1
  7  8  2  0
 10 12  1  0
 10  9  1  6
 11 10  1  0
 12 14  1  0
 13  7  1  0
 12 13  1  6
 14 15  2  0
 16 17  1  0
 17 18  2  0
 18 19  1  0
 20 19  2  0
 20 21  1  0
 22 21  1  6
 22 24  1  0
 23 22  1  0
 23 14  1  0
 24 28  2  0
 24 25  1  0
 26 20  1  0
 27 17  1  0
 27 26  2  0
M  END
$$$$
