ITY.pdb
     RDKit          3D

 28 28  0  0  1  0  0  0  0  0999 V2000
    7.7757  -11.7772   19.4162 C   0  0  0  0  0  0  0  0  0  0  0  0
    8.3220  -13.2017   19.2045 C   0  0  0  0  0  0  0  0  0  0  0  0
    8.2393  -13.9136   20.5285 C   0  0  2  0  0  0  0  0  0  0  0  0
    8.8964  -13.1016   21.6287 C   0  0  0  0  0  0  0  0  0  0  0  0
    8.6352  -15.3261   20.5143 C   0  0  2  0  0  0  0  0  0  0  0  0
    8.0899  -16.0964   19.3853 N   0  0  0  0  0  0  0  0  0  0  0  0
    8.6539  -16.1011   21.7506 C   0  0  0  0  0  0  0  0  0  0  0  0
    7.5300  -16.5710   22.1706 O   0  0  0  0  0  0  0  0  0  0  0  0
    9.9869  -19.3134   22.5496 C   0  0  0  0  0  0  0  0  0  0  0  0
   10.5452  -18.3871   23.5984 C   0  0  1  0  0  0  0  0  0  0  0  0
   11.7799  -17.9004   23.1143 O   0  0  0  0  0  0  0  0  0  0  0  0
    9.6686  -17.1645   23.7938 C   0  0  2  0  0  0  0  0  0  0  0  0
    9.7522  -16.4018   22.5570 N   0  0  0  0  0  0  0  0  0  0  0  0
   10.2552  -16.4093   24.9312 C   0  0  0  0  0  0  0  0  0  0  0  0
   11.1908  -15.6019   24.7169 O   0  0  0  0  0  0  0  0  0  0  0  0
    5.6335  -11.7637   25.4318 O   0  0  0  0  0  0  0  0  0  0  0  0
    6.5186  -12.6005   26.1173 C   0  0  0  0  0  0  0  0  0  0  0  0
    7.7320  -12.1564   26.5782 C   0  0  0  0  0  0  0  0  0  0  0  0
    8.5811  -13.0054   27.2495 C   0  0  0  0  0  0  0  0  0  0  0  0
    8.2618  -14.3381   27.4936 C   0  0  0  0  0  0  0  0  0  0  0  0
    9.1787  -15.2280   28.1968 C   0  0  0  0  0  0  0  0  0  0  0  0
   10.2788  -15.8257   27.3888 C   0  0  2  0  0  0  0  0  0  0  0  0
    9.7760  -16.5853   26.2553 N   0  0  0  0  0  0  0  0  0  0  0  0
   11.1834  -16.6013   28.2295 C   0  0  0  0  0  0  0  0  0  0  0  0
   11.9486  -16.0438   29.2601 O   0  0  0  0  0  0  0  0  0  0  0  0
    7.0265  -14.7668   27.0178 C   0  0  0  0  0  0  0  0  0  0  0  0
    6.1795  -13.9172   26.3474 C   0  0  0  0  0  0  0  0  0  0  0  0
   11.3100  -17.8344   28.0512 O   0  0  0  0  0  0  0  0  0  0  0  0
  1  2  1  0
  2  3  1  0
  3  4  1  1
  5  3  1  0
  5  7  1  0
  5  6  1  6
  7  8  2  0
 10 12  1  0
 10  9  1  6
 11 10  1  0
 12 14  1  0
 13  7  1  0
 12 13  1  6
 14 15  2  0
 16 17  1  0
 17 18  2  0
 18 19  1  0
 20 19  2  0
 20 21  1  0
 22 21  1  1
 22 24  1  0
 23 22  1  0
 23 14  1  0
 24 28  2  0
 24 25  1  0
 26 20  1  0
 27 17  1  0
 27 26  2  0
M  END
$$$$
