ITY.pdb
     RDKit          3D

 28 28  0  0  1  0  0  0  0  0999 V2000
    7.9044  -11.7266   19.1213 C   0  0  0  0  0  0  0  0  0  0  0  0
    7.9780  -13.2482   18.8937 C   0  0  0  0  0  0  0  0  0  0  0  0
    8.1521  -13.8941   20.2424 C   0  0  2  0  0  0  0  0  0  0  0  0
    9.2874  -13.2498   21.0155 C   0  0  0  0  0  0  0  0  0  0  0  0
    8.1894  -15.3606   20.2426 C   0  0  2  0  0  0  0  0  0  0  0  0
    7.1496  -15.9928   19.4152 N   0  0  0  0  0  0  0  0  0  0  0  0
    8.4274  -16.0939   21.4815 C   0  0  0  0  0  0  0  0  0  0  0  0
    7.3941  -16.4942   22.1392 O   0  0  0  0  0  0  0  0  0  0  0  0
   10.6139  -19.1092   21.9258 C   0  0  0  0  0  0  0  0  0  0  0  0
   10.9215  -18.1671   23.0605 C   0  0  1  0  0  0  0  0  0  0  0  0
   12.0348  -17.3899   22.6707 O   0  0  0  0  0  0  0  0  0  0  0  0
    9.7926  -17.1811   23.2950 C   0  0  2  0  0  0  0  0  0  0  0  0
    9.6535  -16.4207   22.0619 N   0  0  0  0  0  0  0  0  0  0  0  0
   10.2279  -16.3096   24.4172 C   0  0  0  0  0  0  0  0  0  0  0  0
   10.2864  -15.0685   24.2458 O   0  0  0  0  0  0  0  0  0  0  0  0
    5.9599  -11.4185   26.0409 O   0  0  0  0  0  0  0  0  0  0  0  0
    6.6292  -12.6173   26.3022 C   0  0  0  0  0  0  0  0  0  0  0  0
    7.7875  -12.6600   27.0361 C   0  0  0  0  0  0  0  0  0  0  0  0
    8.4225  -13.8566   27.2758 C   0  0  0  0  0  0  0  0  0  0  0  0
    7.9339  -15.0682   26.7952 C   0  0  0  0  0  0  0  0  0  0  0  0
    8.6261  -16.3266   27.0486 C   0  0  0  0  0  0  0  0  0  0  0  0
   10.1122  -16.3038   26.9406 C   0  0  2  0  0  0  0  0  0  0  0  0
   10.5786  -16.8564   25.6789 N   0  0  0  0  0  0  0  0  0  0  0  0
   10.7306  -16.9411   28.0973 C   0  0  0  0  0  0  0  0  0  0  0  0
   11.5819  -18.0481   28.0058 O   0  0  0  0  0  0  0  0  0  0  0  0
    6.7583  -15.0012   26.0539 C   0  0  0  0  0  0  0  0  0  0  0  0
    6.1252  -13.8050   25.8157 C   0  0  0  0  0  0  0  0  0  0  0  0
   10.5130  -16.5042   29.2505 O   0  0  0  0  0  0  0  0  0  0  0  0
  1  2  1  0
  2  3  1  0
  3  4  1  6
  5  3  1  0
  5  7  1  0
  5  6  1  1
  7  8  2  0
 10 12  1  0
 10  9  1  6
 11 10  1  0
 12 14  1  0
 13  7  1  0
 12 13  1  6
 14 15  2  0
 16 17  1  0
 17 18  2  0
 18 19  1  0
 20 19  2  0
 20 21  1  0
 22 21  1  1
 22 24  1  0
 23 22  1  0
 23 14  1  0
 24 28  2  0
 24 25  1  0
 26 20  1  0
 27 17  1  0
 27 26  2  0
M  END
$$$$
