ITY.pdb
     RDKit          3D

 28 28  0  0  1  0  0  0  0  0999 V2000
    7.0007  -12.0747   17.6807 C   0  0  0  0  0  0  0  0  0  0  0  0
    7.3315  -13.5314   18.0568 C   0  0  0  0  0  0  0  0  0  0  0  0
    7.3305  -13.6163   19.5599 C   0  0  2  0  0  0  0  0  0  0  0  0
    8.2764  -12.5970   20.1665 C   0  0  0  0  0  0  0  0  0  0  0  0
    7.4721  -14.9654   20.1184 C   0  0  2  0  0  0  0  0  0  0  0  0
    6.5396  -15.9547   19.5553 N   0  0  0  0  0  0  0  0  0  0  0  0
    7.6757  -15.1549   21.5508 C   0  0  0  0  0  0  0  0  0  0  0  0
    6.6520  -15.0028   22.3185 O   0  0  0  0  0  0  0  0  0  0  0  0
    6.6853  -16.5673   23.7972 C   0  0  0  0  0  0  0  0  0  0  0  0
    8.1509  -16.7816   24.0726 C   0  0  1  0  0  0  0  0  0  0  0  0
    8.5807  -17.8478   23.2516 O   0  0  0  0  0  0  0  0  0  0  0  0
    8.9825  -15.5821   23.6591 C   0  0  2  0  0  0  0  0  0  0  0  0
    8.8602  -15.4812   22.2123 N   0  0  0  0  0  0  0  0  0  0  0  0
   10.3806  -15.8871   24.0598 C   0  0  0  0  0  0  0  0  0  0  0  0
   10.9124  -16.9555   23.6742 O   0  0  0  0  0  0  0  0  0  0  0  0
    9.1559  -16.3382   30.8719 O   0  0  0  0  0  0  0  0  0  0  0  0
   10.0335  -15.9567   29.8532 C   0  0  0  0  0  0  0  0  0  0  0  0
   11.1062  -16.7301   29.4880 C   0  0  0  0  0  0  0  0  0  0  0  0
   11.9519  -16.3264   28.4810 C   0  0  0  0  0  0  0  0  0  0  0  0
   11.7695  -15.1320   27.7896 C   0  0  0  0  0  0  0  0  0  0  0  0
   12.6825  -14.7132   26.7322 C   0  0  0  0  0  0  0  0  0  0  0  0
   12.4513  -15.2979   25.3812 C   0  0  2  0  0  0  0  0  0  0  0  0
   11.1245  -14.9913   24.8711 N   0  0  0  0  0  0  0  0  0  0  0  0
   12.7412  -16.7270   25.3732 C   0  0  0  0  0  0  0  0  0  0  0  0
   11.7542  -17.7147   25.2793 O   0  0  0  0  0  0  0  0  0  0  0  0
   10.6757  -14.3639   28.1762 C   0  0  0  0  0  0  0  0  0  0  0  0
    9.8318  -14.7689   29.1824 C   0  0  0  0  0  0  0  0  0  0  0  0
   13.9235  -17.1320   25.4526 O   0  0  0  0  0  0  0  0  0  0  0  0
  1  2  1  0
  2  3  1  0
  3  4  1  1
  5  3  1  0
  5  7  1  0
  5  6  1  1
  7  8  2  0
 10 12  1  0
 10  9  1  6
 11 10  1  0
 12 14  1  0
 13  7  1  0
 12 13  1  6
 14 15  2  0
 16 17  1  0
 17 18  2  0
 18 19  1  0
 20 19  2  0
 20 21  1  0
 22 21  1  1
 22 24  1  0
 23 22  1  0
 23 14  1  0
 24 28  2  0
 24 25  1  0
 26 20  1  0
 27 17  1  0
 27 26  2  0
M  END
$$$$
