ITY.pdb
     RDKit          3D

 28 28  0  0  1  0  0  0  0  0999 V2000
    6.8223  -11.7975   20.2982 C   0  0  0  0  0  0  0  0  0  0  0  0
    7.3448  -13.1527   19.7852 C   0  0  0  0  0  0  0  0  0  0  0  0
    7.6460  -14.0015   20.9916 C   0  0  2  0  0  0  0  0  0  0  0  0
    8.5469  -13.2669   21.9665 C   0  0  0  0  0  0  0  0  0  0  0  0
    8.0718  -15.3766   20.7086 C   0  0  2  0  0  0  0  0  0  0  0  0
    7.3184  -16.0334   19.6287 N   0  0  0  0  0  0  0  0  0  0  0  0
    8.3809  -16.2942   21.8002 C   0  0  0  0  0  0  0  0  0  0  0  0
    7.4134  -17.0071   22.2650 O   0  0  0  0  0  0  0  0  0  0  0  0
   10.8640  -19.1172   22.1099 C   0  0  0  0  0  0  0  0  0  0  0  0
   11.0590  -18.1843   23.2768 C   0  0  1  0  0  0  0  0  0  0  0  0
   12.0431  -17.2428   22.9015 O   0  0  0  0  0  0  0  0  0  0  0  0
    9.8074  -17.3781   23.5681 C   0  0  2  0  0  0  0  0  0  0  0  0
    9.6123  -16.5012   22.4230 N   0  0  0  0  0  0  0  0  0  0  0  0
   10.0925  -16.5976   24.7999 C   0  0  0  0  0  0  0  0  0  0  0  0
   10.7110  -15.5101   24.7103 O   0  0  0  0  0  0  0  0  0  0  0  0
    6.4065  -11.3246   25.3597 O   0  0  0  0  0  0  0  0  0  0  0  0
    7.0008  -12.4129   26.0046 C   0  0  0  0  0  0  0  0  0  0  0  0
    8.2495  -12.3333   26.5672 C   0  0  0  0  0  0  0  0  0  0  0  0
    8.8070  -13.4230   27.1951 C   0  0  0  0  0  0  0  0  0  0  0  0
    8.1470  -14.6447   27.2921 C   0  0  0  0  0  0  0  0  0  0  0  0
    8.7574  -15.7937   27.9511 C   0  0  0  0  0  0  0  0  0  0  0  0
    9.9801  -16.3570   27.3120 C   0  0  2  0  0  0  0  0  0  0  0  0
    9.6778  -17.0605   26.0757 N   0  0  0  0  0  0  0  0  0  0  0  0
   10.7339  -17.1746   28.2553 C   0  0  0  0  0  0  0  0  0  0  0  0
   11.3272  -16.6659   29.4161 O   0  0  0  0  0  0  0  0  0  0  0  0
    6.8822  -14.7026   26.7150 C   0  0  0  0  0  0  0  0  0  0  0  0
    6.3267  -13.6130   26.0883 C   0  0  0  0  0  0  0  0  0  0  0  0
   10.8805  -18.4014   28.0510 O   0  0  0  0  0  0  0  0  0  0  0  0
  1  2  1  0
  2  3  1  0
  3  4  1  6
  5  3  1  0
  5  7  1  0
  5  6  1  1
  7  8  2  0
 10 12  1  0
 10  9  1  6
 11 10  1  0
 12 14  1  0
 13  7  1  0
 12 13  1  6
 14 15  2  0
 16 17  1  0
 17 18  2  0
 18 19  1  0
 20 19  2  0
 20 21  1  0
 22 21  1  1
 22 24  1  0
 23 22  1  0
 23 14  1  0
 24 28  2  0
 24 25  1  0
 26 20  1  0
 27 17  1  0
 27 26  2  0
M  END
$$$$
