GKD.pdb
     RDKit          3D

 22 21  0  0  1  0  0  0  0  0999 V2000
   24.0950  -20.6218   -8.0879 N   0  0  0  0  0  0  0  0  0  0  0  0
   24.9800  -21.4282   -8.8761 C   0  0  0  0  0  0  0  0  0  0  0  0
   25.5070  -20.6612  -10.0608 C   0  0  0  0  0  0  0  0  0  0  0  0
   25.1830  -19.4672  -10.2728 O   0  0  0  0  0  0  0  0  0  0  0  0
   26.3876  -21.3022  -10.9557 N   0  0  0  0  0  0  0  0  0  0  0  0
   26.9480  -20.6043  -12.1486 C   0  0  1  0  0  0  0  0  0  0  0  0
   28.2897  -21.2365  -12.3440 C   0  0  0  0  0  0  0  0  0  0  0  0
   29.2288  -21.1940  -11.1978 C   0  0  0  0  0  0  0  0  0  0  0  0
   30.6073  -21.7303  -11.5459 C   0  0  0  0  0  0  0  0  0  0  0  0
   31.5491  -21.6551  -10.3515 C   0  0  0  0  0  0  0  0  0  0  0  0
   32.7832  -22.3104  -10.7608 N   0  0  0  0  0  0  0  0  0  0  0  0
   25.9762  -20.8266  -13.2275 C   0  0  0  0  0  0  0  0  0  0  0  0
   25.2218  -21.8226  -13.2000 O   0  0  0  0  0  0  0  0  0  0  0  0
   25.8694  -19.9324  -14.3044 N   0  0  0  0  0  0  0  0  0  0  0  0
   24.6011  -19.9075  -15.0928 C   0  0  1  0  0  0  0  0  0  0  0  0
   23.4970  -19.4598  -14.1900 C   0  0  0  0  0  0  0  0  0  0  0  0
   22.2363  -20.1172  -14.5114 C   0  0  0  0  0  0  0  0  0  0  0  0
   22.1443  -20.9800  -15.3995 O   0  0  0  0  0  0  0  0  0  0  0  0
   24.7857  -18.9136  -16.1695 C   0  0  0  0  0  0  0  0  0  0  0  0
   24.2984  -19.0790  -17.3097 O   0  0  0  0  0  0  0  0  0  0  0  0
   21.0368  -19.8175  -13.8350 O   0  0  0  0  0  0  0  0  0  0  0  0
   25.5311  -17.7597  -15.8796 O   0  0  0  0  0  0  0  0  0  0  0  0
  2  1  1  0
  2  3  1  0
  3  4  2  0
  5  3  1  0
  5  6  1  0
  6 12  1  0
  6  7  1  6
  8  7  1  0
  9  8  1  0
  9 10  1  0
 10 11  1  0
 12 13  2  0
 14 12  1  0
 14 15  1  0
 15 19  1  0
 15 16  1  1
 17 18  2  0
 17 16  1  0
 19 20  2  0
 19 22  1  0
 21 17  1  0
M  END
$$$$
