GKD.pdb
     RDKit          3D

 22 21  0  0  1  0  0  0  0  0999 V2000
   16.5213   -9.6173  -10.4251 N   0  0  0  0  0  0  0  0  0  0  0  0
   16.4135   -9.2181  -11.7976 C   0  0  0  0  0  0  0  0  0  0  0  0
   17.7098   -9.4380  -12.5329 C   0  0  0  0  0  0  0  0  0  0  0  0
   18.8111   -9.4831  -11.9325 O   0  0  0  0  0  0  0  0  0  0  0  0
   17.6850   -9.5970  -13.9333 N   0  0  0  0  0  0  0  0  0  0  0  0
   18.9349   -9.6414  -14.7457 C   0  0  1  0  0  0  0  0  0  0  0  0
   18.5210  -10.3163  -16.0150 C   0  0  0  0  0  0  0  0  0  0  0  0
   18.5038  -11.7986  -16.0162 C   0  0  0  0  0  0  0  0  0  0  0  0
   18.0163  -12.3806  -17.3326 C   0  0  0  0  0  0  0  0  0  0  0  0
   18.0677  -13.9026  -17.3185 C   0  0  0  0  0  0  0  0  0  0  0  0
   17.5533  -14.3420  -18.6078 N   0  0  0  0  0  0  0  0  0  0  0  0
   19.3676   -8.2440  -14.8793 C   0  0  0  0  0  0  0  0  0  0  0  0
   18.5225   -7.3335  -15.0150 O   0  0  0  0  0  0  0  0  0  0  0  0
   20.7283   -7.8996  -14.8549 N   0  0  0  0  0  0  0  0  0  0  0  0
   21.1082   -6.4656  -15.0286 C   0  0  1  0  0  0  0  0  0  0  0  0
   21.3957   -5.8903  -13.6792 C   0  0  0  0  0  0  0  0  0  0  0  0
   21.8600   -4.5114  -13.7675 C   0  0  0  0  0  0  0  0  0  0  0  0
   21.3686   -3.6945  -14.5631 O   0  0  0  0  0  0  0  0  0  0  0  0
   22.3410   -6.4448  -15.8416 C   0  0  0  0  0  0  0  0  0  0  0  0
   22.9645   -7.4930  -16.1203 O   0  0  0  0  0  0  0  0  0  0  0  0
   22.8980   -4.0127  -12.9552 O   0  0  0  0  0  0  0  0  0  0  0  0
   22.8043   -5.2025  -16.3034 O   0  0  0  0  0  0  0  0  0  0  0  0
  2  1  1  0
  2  3  1  0
  3  4  2  0
  5  3  1  0
  5  6  1  0
  6 12  1  0
  6  7  1  6
  8  7  1  0
  9  8  1  0
  9 10  1  0
 10 11  1  0
 12 13  2  0
 14 12  1  0
 14 15  1  0
 15 19  1  0
 15 16  1  1
 17 18  2  0
 17 16  1  0
 19 20  2  0
 19 22  1  0
 21 17  1  0
M  END
$$$$
