GKD.pdb
     RDKit          3D

 22 21  0  0  1  0  0  0  0  0999 V2000
   19.7710  -13.6228  -15.8697 N   0  0  0  0  0  0  0  0  0  0  0  0
   18.9505  -12.4518  -15.9712 C   0  0  0  0  0  0  0  0  0  0  0  0
   19.7007  -11.3143  -16.6136 C   0  0  0  0  0  0  0  0  0  0  0  0
   20.8973  -11.4313  -16.9740 O   0  0  0  0  0  0  0  0  0  0  0  0
   19.0408  -10.0850  -16.8150 N   0  0  0  0  0  0  0  0  0  0  0  0
   19.7098   -8.9285  -17.4776 C   0  0  1  0  0  0  0  0  0  0  0  0
   18.8428   -8.6348  -18.6609 C   0  0  0  0  0  0  0  0  0  0  0  0
   19.3493   -7.6422  -19.6385 C   0  0  0  0  0  0  0  0  0  0  0  0
   18.3975   -7.4238  -20.8027 C   0  0  0  0  0  0  0  0  0  0  0  0
   18.9284   -6.3669  -21.7620 C   0  0  0  0  0  0  0  0  0  0  0  0
   18.0140   -6.3452  -22.8948 N   0  0  0  0  0  0  0  0  0  0  0  0
   19.7739   -7.8734  -16.4576 C   0  0  0  0  0  0  0  0  0  0  0  0
   18.8211   -7.7032  -15.6671 O   0  0  0  0  0  0  0  0  0  0  0  0
   20.8979   -7.0400  -16.3444 N   0  0  0  0  0  0  0  0  0  0  0  0
   20.9191   -6.0072  -15.2657 C   0  0  1  0  0  0  0  0  0  0  0  0
   22.0625   -6.3083  -14.3512 C   0  0  0  0  0  0  0  0  0  0  0  0
   22.2336   -5.2718  -13.3407 C   0  0  0  0  0  0  0  0  0  0  0  0
   21.2772   -4.7981  -12.7062 O   0  0  0  0  0  0  0  0  0  0  0  0
   21.1493   -4.7052  -15.9239 C   0  0  0  0  0  0  0  0  0  0  0  0
   20.8821   -3.6232  -15.3558 O   0  0  0  0  0  0  0  0  0  0  0  0
   23.4967   -4.7379  -13.0159 O   0  0  0  0  0  0  0  0  0  0  0  0
   21.6845   -4.7092  -17.2218 O   0  0  0  0  0  0  0  0  0  0  0  0
  2  1  1  0
  2  3  1  0
  3  4  2  0
  5  3  1  0
  5  6  1  0
  6 12  1  0
  6  7  1  6
  8  7  1  0
  9  8  1  0
  9 10  1  0
 10 11  1  0
 12 13  2  0
 14 12  1  0
 14 15  1  0
 15 19  1  0
 15 16  1  1
 17 18  2  0
 17 16  1  0
 19 20  2  0
 19 22  1  0
 21 17  1  0
M  END
$$$$
