GKD.pdb
     RDKit          3D

 22 21  0  0  1  0  0  0  0  0999 V2000
   12.4788  -11.7896  -14.0879 N   0  0  0  0  0  0  0  0  0  0  0  0
   13.2953  -12.2544  -15.1705 C   0  0  0  0  0  0  0  0  0  0  0  0
   14.6850  -11.6784  -15.0917 C   0  0  0  0  0  0  0  0  0  0  0  0
   15.2297  -11.4137  -13.9923 O   0  0  0  0  0  0  0  0  0  0  0  0
   15.3927  -11.4298  -16.2852 N   0  0  0  0  0  0  0  0  0  0  0  0
   16.8103  -10.9666  -16.2814 C   0  0  1  0  0  0  0  0  0  0  0  0
   17.4306  -11.6816  -17.4399 C   0  0  0  0  0  0  0  0  0  0  0  0
   18.8463  -11.3670  -17.7470 C   0  0  0  0  0  0  0  0  0  0  0  0
   19.8240  -12.2117  -16.9471 C   0  0  0  0  0  0  0  0  0  0  0  0
   21.2665  -11.8592  -17.2850 C   0  0  0  0  0  0  0  0  0  0  0  0
   22.1022  -12.7617  -16.5060 N   0  0  0  0  0  0  0  0  0  0  0  0
   16.7469   -9.5036  -16.3959 C   0  0  0  0  0  0  0  0  0  0  0  0
   15.9568   -8.9689  -17.2033 O   0  0  0  0  0  0  0  0  0  0  0  0
   17.5622   -8.6772  -15.6066 N   0  0  0  0  0  0  0  0  0  0  0  0
   17.4843   -7.1982  -15.7992 C   0  0  1  0  0  0  0  0  0  0  0  0
   16.8234   -6.6033  -14.5976 C   0  0  0  0  0  0  0  0  0  0  0  0
   16.8112   -5.1468  -14.6532 C   0  0  0  0  0  0  0  0  0  0  0  0
   17.2562   -4.5152  -15.6253 O   0  0  0  0  0  0  0  0  0  0  0  0
   18.8734   -6.7042  -15.8879 C   0  0  0  0  0  0  0  0  0  0  0  0
   19.8431   -7.3899  -15.4949 O   0  0  0  0  0  0  0  0  0  0  0  0
   16.2932   -4.3574  -13.6071 O   0  0  0  0  0  0  0  0  0  0  0  0
   19.0847   -5.4279  -16.4333 O   0  0  0  0  0  0  0  0  0  0  0  0
  2  1  1  0
  2  3  1  0
  3  4  2  0
  5  3  1  0
  5  6  1  0
  6 12  1  0
  6  7  1  6
  8  7  1  0
  9  8  1  0
  9 10  1  0
 10 11  1  0
 12 13  2  0
 14 12  1  0
 14 15  1  0
 15 19  1  0
 15 16  1  1
 17 18  2  0
 17 16  1  0
 19 20  2  0
 19 22  1  0
 21 17  1  0
M  END
$$$$
