GKD.pdb
     RDKit          3D

 22 21  0  0  1  0  0  0  0  0999 V2000
   24.4864  -25.7161  -15.2426 N   0  0  0  0  0  0  0  0  0  0  0  0
   25.0663  -24.4089  -15.3403 C   0  0  0  0  0  0  0  0  0  0  0  0
   24.3140  -23.4141  -14.4956 C   0  0  0  0  0  0  0  0  0  0  0  0
   23.2893  -23.7383  -13.8471 O   0  0  0  0  0  0  0  0  0  0  0  0
   24.7732  -22.0828  -14.4320 N   0  0  0  0  0  0  0  0  0  0  0  0
   24.0879  -21.0494  -13.6034 C   0  0  1  0  0  0  0  0  0  0  0  0
   25.1972  -20.1587  -13.1407 C   0  0  0  0  0  0  0  0  0  0  0  0
   25.7590  -20.4245  -11.7948 C   0  0  0  0  0  0  0  0  0  0  0  0
   24.6865  -20.6823  -10.7496 C   0  0  0  0  0  0  0  0  0  0  0  0
   25.2717  -20.6829   -9.3436 C   0  0  0  0  0  0  0  0  0  0  0  0
   24.1495  -20.8588   -8.4327 N   0  0  0  0  0  0  0  0  0  0  0  0
   23.0984  -20.4252  -14.4916 C   0  0  0  0  0  0  0  0  0  0  0  0
   23.2127  -19.2236  -14.8157 O   0  0  0  0  0  0  0  0  0  0  0  0
   22.0117  -21.1567  -14.9962 N   0  0  0  0  0  0  0  0  0  0  0  0
   21.0051  -20.4519  -15.8452 C   0  0  1  0  0  0  0  0  0  0  0  0
   20.5640  -21.3881  -16.9238 C   0  0  0  0  0  0  0  0  0  0  0  0
   21.5668  -21.5132  -17.9741 C   0  0  0  0  0  0  0  0  0  0  0  0
   22.5816  -20.7987  -18.0125 O   0  0  0  0  0  0  0  0  0  0  0  0
   19.8562  -20.1348  -14.9729 C   0  0  0  0  0  0  0  0  0  0  0  0
   19.5755  -20.8323  -13.9731 O   0  0  0  0  0  0  0  0  0  0  0  0
   21.4520  -22.4541  -19.0169 O   0  0  0  0  0  0  0  0  0  0  0  0
   19.0744  -19.0141  -15.2954 O   0  0  0  0  0  0  0  0  0  0  0  0
  2  1  1  0
  2  3  1  0
  3  4  2  0
  5  3  1  0
  5  6  1  0
  6 12  1  0
  6  7  1  6
  8  7  1  0
  9  8  1  0
  9 10  1  0
 10 11  1  0
 12 13  2  0
 14 12  1  0
 14 15  1  0
 15 19  1  0
 15 16  1  6
 17 18  2  0
 17 16  1  0
 19 20  2  0
 19 22  1  0
 21 17  1  0
M  END
$$$$
