GKD.pdb
     RDKit          3D

 22 21  0  0  1  0  0  0  0  0999 V2000
   22.6603  -17.4536  -17.7970 N   0  0  0  0  0  0  0  0  0  0  0  0
   22.3977  -18.3495  -16.7093 C   0  0  0  0  0  0  0  0  0  0  0  0
   23.6039  -19.1963  -16.3969 C   0  0  0  0  0  0  0  0  0  0  0  0
   23.6219  -20.4306  -16.6241 O   0  0  0  0  0  0  0  0  0  0  0  0
   24.7429  -18.5857  -15.8340 N   0  0  0  0  0  0  0  0  0  0  0  0
   25.9706  -19.3625  -15.4971 C   0  0  1  0  0  0  0  0  0  0  0  0
   27.0897  -18.4013  -15.7453 C   0  0  0  0  0  0  0  0  0  0  0  0
   27.4018  -18.0797  -17.1583 C   0  0  0  0  0  0  0  0  0  0  0  0
   28.5903  -17.1435  -17.3003 C   0  0  0  0  0  0  0  0  0  0  0  0
   28.8844  -16.8391  -18.7632 C   0  0  0  0  0  0  0  0  0  0  0  0
   29.9644  -15.8627  -18.7696 N   0  0  0  0  0  0  0  0  0  0  0  0
   25.7958  -19.7900  -14.1027 C   0  0  0  0  0  0  0  0  0  0  0  0
   25.1632  -19.0723  -13.2987 O   0  0  0  0  0  0  0  0  0  0  0  0
   26.3275  -21.0055  -13.6436 N   0  0  0  0  0  0  0  0  0  0  0  0
   26.0818  -21.4057  -12.2258 C   0  0  1  0  0  0  0  0  0  0  0  0
   26.1829  -20.1843  -11.3700 C   0  0  0  0  0  0  0  0  0  0  0  0
   25.9772  -20.4937   -9.9605 C   0  0  0  0  0  0  0  0  0  0  0  0
   24.8773  -20.3506   -9.4023 O   0  0  0  0  0  0  0  0  0  0  0  0
   24.7042  -21.9343  -12.1627 C   0  0  0  0  0  0  0  0  0  0  0  0
   24.3496  -22.7458  -11.2791 O   0  0  0  0  0  0  0  0  0  0  0  0
   27.0134  -20.9765   -9.1364 O   0  0  0  0  0  0  0  0  0  0  0  0
   23.7864  -21.4976  -13.1312 O   0  0  0  0  0  0  0  0  0  0  0  0
  2  1  1  0
  2  3  1  0
  3  4  2  0
  5  3  1  0
  5  6  1  0
  6 12  1  0
  6  7  1  1
  8  7  1  0
  9  8  1  0
  9 10  1  0
 10 11  1  0
 12 13  2  0
 14 12  1  0
 14 15  1  0
 15 19  1  0
 15 16  1  1
 17 18  2  0
 17 16  1  0
 19 20  2  0
 19 22  1  0
 21 17  1  0
M  END
$$$$
