GKD.pdb
     RDKit          3D

 22 21  0  0  1  0  0  0  0  0999 V2000
   27.3933  -15.1540  -16.1844 N   0  0  0  0  0  0  0  0  0  0  0  0
   26.3751  -15.4051  -15.2073 C   0  0  0  0  0  0  0  0  0  0  0  0
   25.4613  -16.5196  -15.6459 C   0  0  0  0  0  0  0  0  0  0  0  0
   24.9991  -16.5757  -16.8115 O   0  0  0  0  0  0  0  0  0  0  0  0
   25.1160  -17.5266  -14.7219 N   0  0  0  0  0  0  0  0  0  0  0  0
   24.2494  -18.6806  -15.0982 C   0  0  1  0  0  0  0  0  0  0  0  0
   24.8896  -19.8524  -14.4237 C   0  0  0  0  0  0  0  0  0  0  0  0
   24.1864  -21.1538  -14.5212 C   0  0  0  0  0  0  0  0  0  0  0  0
   24.9590  -22.2905  -13.8729 C   0  0  0  0  0  0  0  0  0  0  0  0
   24.2553  -23.6256  -14.0761 C   0  0  0  0  0  0  0  0  0  0  0  0
   25.0759  -24.6270  -13.4099 N   0  0  0  0  0  0  0  0  0  0  0  0
   22.9027  -18.3319  -14.6265 C   0  0  0  0  0  0  0  0  0  0  0  0
   22.7491  -17.7651  -13.5233 O   0  0  0  0  0  0  0  0  0  0  0  0
   21.7656  -18.6212  -15.3973 N   0  0  0  0  0  0  0  0  0  0  0  0
   20.4268  -18.2007  -14.8861 C   0  0  1  0  0  0  0  0  0  0  0  0
   19.6868  -17.5359  -16.0019 C   0  0  0  0  0  0  0  0  0  0  0  0
   18.3124  -17.2250  -15.6290 C   0  0  0  0  0  0  0  0  0  0  0  0
   17.8647  -17.4513  -14.4932 O   0  0  0  0  0  0  0  0  0  0  0  0
   19.7131  -19.4321  -14.4915 C   0  0  0  0  0  0  0  0  0  0  0  0
   18.7913  -19.4173  -13.6459 O   0  0  0  0  0  0  0  0  0  0  0  0
   17.3993  -16.6463  -16.5330 O   0  0  0  0  0  0  0  0  0  0  0  0
   20.0975  -20.6388  -15.0974 O   0  0  0  0  0  0  0  0  0  0  0  0
  2  1  1  0
  2  3  1  0
  3  4  2  0
  5  3  1  0
  5  6  1  0
  6 12  1  0
  6  7  1  1
  8  7  1  0
  9  8  1  0
  9 10  1  0
 10 11  1  0
 12 13  2  0
 14 12  1  0
 14 15  1  0
 15 19  1  0
 15 16  1  6
 17 18  2  0
 17 16  1  0
 19 20  2  0
 19 22  1  0
 21 17  1  0
M  END
$$$$
