GKD.pdb
     RDKit          3D

 22 21  0  0  1  0  0  0  0  0999 V2000
   26.1559  -19.7563   -8.3060 N   0  0  0  0  0  0  0  0  0  0  0  0
   25.5316  -20.8243   -9.0301 C   0  0  0  0  0  0  0  0  0  0  0  0
   25.4816  -20.5263  -10.5060 C   0  0  0  0  0  0  0  0  0  0  0  0
   25.9724  -19.4752  -10.9853 O   0  0  0  0  0  0  0  0  0  0  0  0
   24.8667  -21.4532  -11.3720 N   0  0  0  0  0  0  0  0  0  0  0  0
   24.8532  -21.2638  -12.8512 C   0  0  1  0  0  0  0  0  0  0  0  0
   25.1782  -22.6189  -13.3952 C   0  0  0  0  0  0  0  0  0  0  0  0
   25.2638  -22.7513  -14.8692 C   0  0  0  0  0  0  0  0  0  0  0  0
   25.6040  -24.1637  -15.3147 C   0  0  0  0  0  0  0  0  0  0  0  0
   25.7664  -24.2440  -16.8267 C   0  0  0  0  0  0  0  0  0  0  0  0
   26.0431  -25.6397  -17.1357 N   0  0  0  0  0  0  0  0  0  0  0  0
   23.5132  -20.7538  -13.1707 C   0  0  0  0  0  0  0  0  0  0  0  0
   22.5214  -21.1337  -12.5121 O   0  0  0  0  0  0  0  0  0  0  0  0
   23.3157  -19.8333  -14.2121 N   0  0  0  0  0  0  0  0  0  0  0  0
   21.9459  -19.2787  -14.4287 C   0  0  1  0  0  0  0  0  0  0  0  0
   22.0418  -18.1698  -15.4265 C   0  0  0  0  0  0  0  0  0  0  0  0
   20.7299  -17.6311  -15.7633 C   0  0  0  0  0  0  0  0  0  0  0  0
   20.1419  -17.9239  -16.8170 O   0  0  0  0  0  0  0  0  0  0  0  0
   21.1253  -20.3712  -14.9893 C   0  0  0  0  0  0  0  0  0  0  0  0
   19.9350  -20.5444  -14.6457 O   0  0  0  0  0  0  0  0  0  0  0  0
   20.0406  -16.7416  -14.9150 O   0  0  0  0  0  0  0  0  0  0  0  0
   21.7202  -21.2240  -15.9327 O   0  0  0  0  0  0  0  0  0  0  0  0
  2  1  1  0
  2  3  1  0
  3  4  2  0
  5  3  1  0
  5  6  1  0
  6 12  1  0
  6  7  1  6
  8  7  1  0
  9  8  1  0
  9 10  1  0
 10 11  1  0
 12 13  2  0
 14 12  1  0
 14 15  1  0
 15 19  1  0
 15 16  1  6
 17 18  2  0
 17 16  1  0
 19 20  2  0
 19 22  1  0
 21 17  1  0
M  END
$$$$
