GKD.pdb
     RDKit          3D

 22 21  0  0  1  0  0  0  0  0999 V2000
   15.5267  -12.6842  -16.0277 N   0  0  0  0  0  0  0  0  0  0  0  0
   16.5451  -12.5774  -17.0307 C   0  0  0  0  0  0  0  0  0  0  0  0
   17.8742  -12.2141  -16.4216 C   0  0  0  0  0  0  0  0  0  0  0  0
   18.1628  -12.5133  -15.2373 O   0  0  0  0  0  0  0  0  0  0  0  0
   18.8193  -11.5191  -17.2032 N   0  0  0  0  0  0  0  0  0  0  0  0
   20.1054  -11.0241  -16.6330 C   0  0  1  0  0  0  0  0  0  0  0  0
   21.1410  -11.5003  -17.6018 C   0  0  0  0  0  0  0  0  0  0  0  0
   21.1483  -12.9471  -17.9245 C   0  0  0  0  0  0  0  0  0  0  0  0
   22.2040  -13.3155  -18.9535 C   0  0  0  0  0  0  0  0  0  0  0  0
   22.1421  -14.7959  -19.3056 C   0  0  0  0  0  0  0  0  0  0  0  0
   23.1073  -15.0034  -20.3757 N   0  0  0  0  0  0  0  0  0  0  0  0
   19.9544   -9.5668  -16.5274 C   0  0  0  0  0  0  0  0  0  0  0  0
   19.4513   -8.9162  -17.4683 O   0  0  0  0  0  0  0  0  0  0  0  0
   20.3647   -8.8756  -15.3765 N   0  0  0  0  0  0  0  0  0  0  0  0
   20.2153   -7.3899  -15.3408 C   0  0  1  0  0  0  0  0  0  0  0  0
   18.7622   -7.0620  -15.4660 C   0  0  0  0  0  0  0  0  0  0  0  0
   18.5216   -5.6278  -15.3671 C   0  0  0  0  0  0  0  0  0  0  0  0
   19.2975   -4.7888  -15.8526 O   0  0  0  0  0  0  0  0  0  0  0  0
   20.7057   -6.9419  -14.0217 C   0  0  0  0  0  0  0  0  0  0  0  0
   20.7826   -5.7292  -13.7243 O   0  0  0  0  0  0  0  0  0  0  0  0
   17.3915   -5.0971  -14.7136 O   0  0  0  0  0  0  0  0  0  0  0  0
   21.0885   -7.9232  -13.0935 O   0  0  0  0  0  0  0  0  0  0  0  0
  2  1  1  0
  2  3  1  0
  3  4  2  0
  5  3  1  0
  5  6  1  0
  6 12  1  0
  6  7  1  6
  8  7  1  0
  9  8  1  0
  9 10  1  0
 10 11  1  0
 12 13  2  0
 14 12  1  0
 14 15  1  0
 15 19  1  0
 15 16  1  1
 17 18  2  0
 17 16  1  0
 19 20  2  0
 19 22  1  0
 21 17  1  0
M  END
$$$$
