GKD.pdb
     RDKit          3D

 22 21  0  0  1  0  0  0  0  0999 V2000
   26.3495  -21.3965  -16.6518 N   0  0  0  0  0  0  0  0  0  0  0  0
   27.5877  -21.9165  -16.1505 C   0  0  0  0  0  0  0  0  0  0  0  0
   28.0884  -23.0514  -17.0053 C   0  0  0  0  0  0  0  0  0  0  0  0
   27.4287  -23.4853  -17.9810 O   0  0  0  0  0  0  0  0  0  0  0  0
   29.3315  -23.6421  -16.7007 N   0  0  0  0  0  0  0  0  0  0  0  0
   29.8590  -24.8103  -17.4631 C   0  0  1  0  0  0  0  0  0  0  0  0
   31.3445  -24.6888  -17.3347 C   0  0  0  0  0  0  0  0  0  0  0  0
   32.0828  -24.1679  -18.5099 C   0  0  0  0  0  0  0  0  0  0  0  0
   31.8114  -22.6957  -18.7706 C   0  0  0  0  0  0  0  0  0  0  0  0
   32.5246  -22.2147  -20.0272 C   0  0  0  0  0  0  0  0  0  0  0  0
   32.1955  -20.8036  -20.1706 N   0  0  0  0  0  0  0  0  0  0  0  0
   29.2602  -25.9946  -16.8332 C   0  0  0  0  0  0  0  0  0  0  0  0
   29.1474  -26.0573  -15.5901 O   0  0  0  0  0  0  0  0  0  0  0  0
   28.8013  -27.0738  -17.6047 N   0  0  0  0  0  0  0  0  0  0  0  0
   28.0704  -28.1834  -16.9226 C   0  0  1  0  0  0  0  0  0  0  0  0
   26.8280  -28.4745  -17.7013 C   0  0  0  0  0  0  0  0  0  0  0  0
   26.1393  -29.6564  -17.1978 C   0  0  0  0  0  0  0  0  0  0  0  0
   26.6870  -30.7691  -17.1369 O   0  0  0  0  0  0  0  0  0  0  0  0
   28.9567  -29.3644  -16.9566 C   0  0  0  0  0  0  0  0  0  0  0  0
   28.6365  -30.4446  -16.4129 O   0  0  0  0  0  0  0  0  0  0  0  0
   24.8051  -29.6153  -16.7461 O   0  0  0  0  0  0  0  0  0  0  0  0
   30.1858  -29.2461  -17.6248 O   0  0  0  0  0  0  0  0  0  0  0  0
  2  1  1  0
  2  3  1  0
  3  4  2  0
  5  3  1  0
  5  6  1  0
  6 12  1  0
  6  7  1  1
  8  7  1  0
  9  8  1  0
  9 10  1  0
 10 11  1  0
 12 13  2  0
 14 12  1  0
 14 15  1  0
 15 19  1  0
 15 16  1  6
 17 18  2  0
 17 16  1  0
 19 20  2  0
 19 22  1  0
 21 17  1  0
M  END
$$$$
