GKD.pdb
     RDKit          3D

 22 21  0  0  1  0  0  0  0  0999 V2000
   20.5831  -12.2589  -16.3015 N   0  0  0  0  0  0  0  0  0  0  0  0
   21.1008  -11.3845  -15.2905 C   0  0  0  0  0  0  0  0  0  0  0  0
   20.3448  -10.0820  -15.2568 C   0  0  0  0  0  0  0  0  0  0  0  0
   19.9786   -9.5025  -16.3082 O   0  0  0  0  0  0  0  0  0  0  0  0
   20.0406   -9.4981  -14.0103 N   0  0  0  0  0  0  0  0  0  0  0  0
   19.2870   -8.2158  -13.9013 C   0  0  1  0  0  0  0  0  0  0  0  0
   18.4791   -8.3727  -12.6521 C   0  0  0  0  0  0  0  0  0  0  0  0
   17.2176   -9.1441  -12.7570 C   0  0  0  0  0  0  0  0  0  0  0  0
   16.4186   -9.1447  -11.4645 C   0  0  0  0  0  0  0  0  0  0  0  0
   15.2572  -10.1275  -11.5312 C   0  0  0  0  0  0  0  0  0  0  0  0
   14.6777  -10.1685  -10.1962 N   0  0  0  0  0  0  0  0  0  0  0  0
   20.3082   -7.1603  -13.8709 C   0  0  0  0  0  0  0  0  0  0  0  0
   21.2384   -7.2081  -13.0377 O   0  0  0  0  0  0  0  0  0  0  0  0
   20.2667   -6.0835  -14.7706 N   0  0  0  0  0  0  0  0  0  0  0  0
   21.3829   -5.0913  -14.7533 C   0  0  1  0  0  0  0  0  0  0  0  0
   21.8201   -4.8533  -16.1629 C   0  0  0  0  0  0  0  0  0  0  0  0
   22.5278   -6.0039  -16.7106 C   0  0  0  0  0  0  0  0  0  0  0  0
   23.3539   -6.6528  -16.0484 O   0  0  0  0  0  0  0  0  0  0  0  0
   20.8343   -3.8394  -14.1937 C   0  0  0  0  0  0  0  0  0  0  0  0
   19.6027   -3.6543  -14.0756 O   0  0  0  0  0  0  0  0  0  0  0  0
   22.3216   -6.4574  -18.0288 O   0  0  0  0  0  0  0  0  0  0  0  0
   21.7405   -2.8463  -13.7894 O   0  0  0  0  0  0  0  0  0  0  0  0
  2  1  1  0
  2  3  1  0
  3  4  2  0
  5  3  1  0
  5  6  1  0
  6 12  1  0
  6  7  1  1
  8  7  1  0
  9  8  1  0
  9 10  1  0
 10 11  1  0
 12 13  2  0
 14 12  1  0
 14 15  1  0
 15 19  1  0
 15 16  1  6
 17 18  2  0
 17 16  1  0
 19 20  2  0
 19 22  1  0
 21 17  1  0
M  END
$$$$
