GKD.pdb
     RDKit          3D

 22 21  0  0  1  0  0  0  0  0999 V2000
   16.0078  -10.4206  -15.5057 N   0  0  0  0  0  0  0  0  0  0  0  0
   16.8421   -9.5771  -16.3102 C   0  0  0  0  0  0  0  0  0  0  0  0
   18.1666   -9.3211  -15.6397 C   0  0  0  0  0  0  0  0  0  0  0  0
   18.2582   -9.1522  -14.3993 O   0  0  0  0  0  0  0  0  0  0  0  0
   19.3348   -9.2698  -16.4270 N   0  0  0  0  0  0  0  0  0  0  0  0
   20.6843   -9.0661  -15.8259 C   0  0  1  0  0  0  0  0  0  0  0  0
   21.5998   -9.8522  -16.7103 C   0  0  0  0  0  0  0  0  0  0  0  0
   22.2220  -11.0656  -16.1289 C   0  0  0  0  0  0  0  0  0  0  0  0
   23.0613  -11.8362  -17.1343 C   0  0  0  0  0  0  0  0  0  0  0  0
   23.8197  -12.9751  -16.4659 C   0  0  0  0  0  0  0  0  0  0  0  0
   24.6182  -13.6034  -17.5087 N   0  0  0  0  0  0  0  0  0  0  0  0
   20.8975   -7.6128  -15.8198 C   0  0  0  0  0  0  0  0  0  0  0  0
   20.7009   -6.9433  -16.8566 O   0  0  0  0  0  0  0  0  0  0  0  0
   21.3204   -6.9456  -14.6593 N   0  0  0  0  0  0  0  0  0  0  0  0
   21.6102   -5.4825  -14.7386 C   0  0  1  0  0  0  0  0  0  0  0  0
   20.3492   -4.7750  -15.1181 C   0  0  0  0  0  0  0  0  0  0  0  0
   20.5200   -3.3274  -15.1146 C   0  0  0  0  0  0  0  0  0  0  0  0
   21.5601   -2.7801  -15.5151 O   0  0  0  0  0  0  0  0  0  0  0  0
   22.0234   -5.0541  -13.3869 C   0  0  0  0  0  0  0  0  0  0  0  0
   21.9520   -5.8216  -12.4017 O   0  0  0  0  0  0  0  0  0  0  0  0
   19.5154   -2.4516  -14.6567 O   0  0  0  0  0  0  0  0  0  0  0  0
   22.5073   -3.7455  -13.2303 O   0  0  0  0  0  0  0  0  0  0  0  0
  2  1  1  0
  2  3  1  0
  3  4  2  0
  5  3  1  0
  5  6  1  0
  6 12  1  0
  6  7  1  6
  8  7  1  0
  9  8  1  0
  9 10  1  0
 10 11  1  0
 12 13  2  0
 14 12  1  0
 14 15  1  0
 15 19  1  0
 15 16  1  1
 17 18  2  0
 17 16  1  0
 19 20  2  0
 19 22  1  0
 21 17  1  0
M  END
$$$$
