GKD.pdb
     RDKit          3D

 22 21  0  0  1  0  0  0  0  0999 V2000
   26.6807  -14.2643  -15.9179 N   0  0  0  0  0  0  0  0  0  0  0  0
   26.6703  -15.3945  -15.0363 C   0  0  0  0  0  0  0  0  0  0  0  0
   25.9136  -16.5493  -15.6391 C   0  0  0  0  0  0  0  0  0  0  0  0
   25.2726  -16.4319  -16.7119 O   0  0  0  0  0  0  0  0  0  0  0  0
   25.9256  -17.7953  -14.9800 N   0  0  0  0  0  0  0  0  0  0  0  0
   25.2784  -19.0048  -15.5652 C   0  0  1  0  0  0  0  0  0  0  0  0
   26.2364  -20.1133  -15.2627 C   0  0  0  0  0  0  0  0  0  0  0  0
   26.9718  -20.7007  -16.4079 C   0  0  0  0  0  0  0  0  0  0  0  0
   27.9717  -21.7631  -15.9830 C   0  0  0  0  0  0  0  0  0  0  0  0
   28.7979  -22.2512  -17.1655 C   0  0  0  0  0  0  0  0  0  0  0  0
   29.7180  -23.2490  -16.6386 N   0  0  0  0  0  0  0  0  0  0  0  0
   23.9652  -19.1027  -14.9142 C   0  0  0  0  0  0  0  0  0  0  0  0
   23.8437  -18.8384  -13.6988 O   0  0  0  0  0  0  0  0  0  0  0  0
   22.8242  -19.4888  -15.6351 N   0  0  0  0  0  0  0  0  0  0  0  0
   21.5008  -19.4780  -14.9428 C   0  0  1  0  0  0  0  0  0  0  0  0
   21.1709  -18.0647  -14.5847 C   0  0  0  0  0  0  0  0  0  0  0  0
   19.8556  -17.9571  -13.9657 C   0  0  0  0  0  0  0  0  0  0  0  0
   19.4954  -18.6992  -13.0376 O   0  0  0  0  0  0  0  0  0  0  0  0
   20.5065  -19.9817  -15.9118 C   0  0  0  0  0  0  0  0  0  0  0  0
   19.3012  -20.1209  -15.6071 O   0  0  0  0  0  0  0  0  0  0  0  0
   18.9044  -17.0031  -14.3790 O   0  0  0  0  0  0  0  0  0  0  0  0
   20.9512  -20.3047  -17.2037 O   0  0  0  0  0  0  0  0  0  0  0  0
  2  1  1  0
  2  3  1  0
  3  4  2  0
  5  3  1  0
  5  6  1  0
  6 12  1  0
  6  7  1  1
  8  7  1  0
  9  8  1  0
  9 10  1  0
 10 11  1  0
 12 13  2  0
 14 12  1  0
 14 15  1  0
 15 19  1  0
 15 16  1  6
 17 18  2  0
 17 16  1  0
 19 20  2  0
 19 22  1  0
 21 17  1  0
M  END
$$$$
