GKD.pdb
     RDKit          3D

 22 21  0  0  1  0  0  0  0  0999 V2000
   17.0836  -14.5717  -15.4639 N   0  0  0  0  0  0  0  0  0  0  0  0
   16.2873  -13.6241  -14.7409 C   0  0  0  0  0  0  0  0  0  0  0  0
   16.2652  -12.2876  -15.4357 C   0  0  0  0  0  0  0  0  0  0  0  0
   16.8171  -12.1121  -16.5493 O   0  0  0  0  0  0  0  0  0  0  0  0
   15.6069  -11.2049  -14.8181 N   0  0  0  0  0  0  0  0  0  0  0  0
   15.5784   -9.8449  -15.4295 C   0  0  1  0  0  0  0  0  0  0  0  0
   14.2021   -9.3400  -15.1314 C   0  0  0  0  0  0  0  0  0  0  0  0
   13.0733  -10.0136  -15.8166 C   0  0  0  0  0  0  0  0  0  0  0  0
   11.7195   -9.4601  -15.4042 C   0  0  0  0  0  0  0  0  0  0  0  0
   10.5821  -10.2308  -16.0613 C   0  0  0  0  0  0  0  0  0  0  0  0
    9.3546   -9.5345  -15.7031 N   0  0  0  0  0  0  0  0  0  0  0  0
   16.6788   -9.1055  -14.7970 C   0  0  0  0  0  0  0  0  0  0  0  0
   16.8737   -9.1980  -13.5660 O   0  0  0  0  0  0  0  0  0  0  0  0
   17.5328   -8.2869  -15.5528 N   0  0  0  0  0  0  0  0  0  0  0  0
   18.5926   -7.5087  -14.8444 C   0  0  1  0  0  0  0  0  0  0  0  0
   19.8415   -8.3299  -14.8229 C   0  0  0  0  0  0  0  0  0  0  0  0
   20.9098   -7.6693  -14.0833 C   0  0  0  0  0  0  0  0  0  0  0  0
   20.7157   -6.6460  -13.4073 O   0  0  0  0  0  0  0  0  0  0  0  0
   18.8263   -6.2842  -15.6365 C   0  0  0  0  0  0  0  0  0  0  0  0
   18.4283   -6.1774  -16.8176 O   0  0  0  0  0  0  0  0  0  0  0  0
   22.2352   -8.1481  -14.0858 O   0  0  0  0  0  0  0  0  0  0  0  0
   19.5149   -5.2252  -15.0238 O   0  0  0  0  0  0  0  0  0  0  0  0
  2  1  1  0
  2  3  1  0
  3  4  2  0
  5  3  1  0
  5  6  1  0
  6 12  1  0
  6  7  1  1
  8  7  1  0
  9  8  1  0
  9 10  1  0
 10 11  1  0
 12 13  2  0
 14 12  1  0
 14 15  1  0
 15 19  1  0
 15 16  1  6
 17 18  2  0
 17 16  1  0
 19 20  2  0
 19 22  1  0
 21 17  1  0
M  END
$$$$
