GKD.pdb
     RDKit          3D

 22 21  0  0  1  0  0  0  0  0999 V2000
   26.7487  -14.5733  -16.6184 N   0  0  0  0  0  0  0  0  0  0  0  0
   25.9707  -15.0475  -15.5117 C   0  0  0  0  0  0  0  0  0  0  0  0
   25.7076  -16.5265  -15.6241 C   0  0  0  0  0  0  0  0  0  0  0  0
   25.6110  -17.0982  -16.7373 O   0  0  0  0  0  0  0  0  0  0  0  0
   25.5658  -17.2888  -14.4468 N   0  0  0  0  0  0  0  0  0  0  0  0
   25.2600  -18.7480  -14.4826 C   0  0  1  0  0  0  0  0  0  0  0  0
   26.2855  -19.3577  -13.5800 C   0  0  0  0  0  0  0  0  0  0  0  0
   27.5682  -19.7701  -14.1979 C   0  0  0  0  0  0  0  0  0  0  0  0
   27.3843  -20.7813  -15.3172 C   0  0  0  0  0  0  0  0  0  0  0  0
   28.7252  -21.2672  -15.8510 C   0  0  0  0  0  0  0  0  0  0  0  0
   28.4243  -22.2616  -16.8711 N   0  0  0  0  0  0  0  0  0  0  0  0
   23.8659  -18.8693  -14.0360 C   0  0  0  0  0  0  0  0  0  0  0  0
   23.5298  -18.4614  -12.9036 O   0  0  0  0  0  0  0  0  0  0  0  0
   22.8850  -19.4382  -14.8636 N   0  0  0  0  0  0  0  0  0  0  0  0
   21.4875  -19.5481  -14.3481 C   0  0  1  0  0  0  0  0  0  0  0  0
   20.5734  -18.8847  -15.3273 C   0  0  0  0  0  0  0  0  0  0  0  0
   19.1873  -18.9125  -14.8770 C   0  0  0  0  0  0  0  0  0  0  0  0
   18.5406  -19.9682  -14.7819 O   0  0  0  0  0  0  0  0  0  0  0  0
   21.1684  -20.9885  -14.2797 C   0  0  0  0  0  0  0  0  0  0  0  0
   21.5705  -21.7946  -15.1478 O   0  0  0  0  0  0  0  0  0  0  0  0
   18.4882  -17.7426  -14.5189 O   0  0  0  0  0  0  0  0  0  0  0  0
   20.3925  -21.4404  -13.2005 O   0  0  0  0  0  0  0  0  0  0  0  0
  2  1  1  0
  2  3  1  0
  3  4  2  0
  5  3  1  0
  5  6  1  0
  6 12  1  0
  6  7  1  1
  8  7  1  0
  9  8  1  0
  9 10  1  0
 10 11  1  0
 12 13  2  0
 14 12  1  0
 14 15  1  0
 15 19  1  0
 15 16  1  6
 17 18  2  0
 17 16  1  0
 19 20  2  0
 19 22  1  0
 21 17  1  0
M  END
$$$$
