EKL.pdb
     RDKit          3D

 27 26  0  0  1  0  0  0  0  0999 V2000
   18.4887  -24.7860   -7.3019 N   0  0  0  0  0  0  0  0  0  0  0  0
   17.1707  -25.0018   -6.7128 C   0  0  1  0  0  0  0  0  0  0  0  0
   16.7480  -26.3935   -7.1164 C   0  0  0  0  0  0  0  0  0  0  0  0
   16.0352  -26.3849   -8.4577 C   0  0  0  0  0  0  0  0  0  0  0  0
   16.8640  -26.9720   -9.5164 C   0  0  0  0  0  0  0  0  0  0  0  0
   16.8827  -28.2408   -9.6335 O   0  0  0  0  0  0  0  0  0  0  0  0
   17.2757  -24.8094   -5.2630 C   0  0  0  0  0  0  0  0  0  0  0  0
   18.4037  -24.8398   -4.6704 O   0  0  0  0  0  0  0  0  0  0  0  0
   17.6160  -26.2208  -10.3782 O   0  0  0  0  0  0  0  0  0  0  0  0
   16.1591  -24.5795   -4.4256 N   0  0  0  0  0  0  0  0  0  0  0  0
   16.3042  -24.2739   -2.9880 C   0  0  1  0  0  0  0  0  0  0  0  0
   15.1411  -23.3979   -2.6452 C   0  0  0  0  0  0  0  0  0  0  0  0
   15.0873  -22.8957   -1.2479 C   0  0  0  0  0  0  0  0  0  0  0  0
   13.8560  -22.0437   -1.0674 C   0  0  0  0  0  0  0  0  0  0  0  0
   13.7372  -21.4926    0.3278 C   0  0  0  0  0  0  0  0  0  0  0  0
   12.5702  -20.6473    0.4317 N   0  0  0  0  0  0  0  0  0  0  0  0
   16.1794  -25.5501   -2.2153 C   0  0  0  0  0  0  0  0  0  0  0  0
   15.4658  -26.4695   -2.6465 O   0  0  0  0  0  0  0  0  0  0  0  0
   18.2018  -29.1153   -1.9696 C   0  0  0  0  0  0  0  0  0  0  0  0
   18.9161  -27.9728   -1.2925 C   0  0  2  0  0  0  0  0  0  0  0  0
   20.3719  -28.1895   -1.0443 C   0  0  0  0  0  0  0  0  0  0  0  0
   18.2170  -27.4158   -0.1277 C   0  0  0  0  0  0  0  0  0  0  0  0
   16.8060  -26.9730   -0.2449 C   0  0  2  0  0  0  0  0  0  0  0  0
   16.8771  -25.7016   -0.9935 N   0  0  0  0  0  0  0  0  0  0  0  0
   16.0797  -26.6929    0.9902 C   0  0  0  0  0  0  0  0  0  0  0  0
   15.9114  -25.4885    1.3463 O   0  0  0  0  0  0  0  0  0  0  0  0
   15.5283  -27.6404    1.8503 O   0  0  0  0  0  0  0  0  0  0  0  0
  2  1  1  6
  2  7  1  0
  3  2  1  0
  4  3  1  0
  5  4  1  0
  5  9  1  0
  6  5  2  0
  7  8  2  0
 10  7  1  0
 10 11  1  0
 11 12  1  1
 13 14  1  0
 13 12  1  0
 14 15  1  0
 16 15  1  0
 17 11  1  0
 17 18  2  0
 20 19  1  1
 20 21  1  0
 20 22  1  0
 23 22  1  1
 23 24  1  0
 24 17  1  0
 25 27  1  0
 25 23  1  0
 26 25  2  0
M  END
$$$$
