EKL.pdb
     RDKit          3D

 27 26  0  0  1  0  0  0  0  0999 V2000
   27.6226  -21.0235  -15.8750 N   0  0  0  0  0  0  0  0  0  0  0  0
   28.2553  -20.0742  -14.9644 C   0  0  1  0  0  0  0  0  0  0  0  0
   28.7027  -18.9074  -15.8111 C   0  0  0  0  0  0  0  0  0  0  0  0
   27.5617  -18.3742  -16.6604 C   0  0  0  0  0  0  0  0  0  0  0  0
   28.0476  -17.7808  -17.9111 C   0  0  0  0  0  0  0  0  0  0  0  0
   29.0098  -18.3560  -18.5172 O   0  0  0  0  0  0  0  0  0  0  0  0
   27.2862  -19.7165  -13.9238 C   0  0  0  0  0  0  0  0  0  0  0  0
   27.0708  -18.5005  -13.6085 O   0  0  0  0  0  0  0  0  0  0  0  0
   27.5172  -16.6413  -18.4518 O   0  0  0  0  0  0  0  0  0  0  0  0
   26.5301  -20.6707  -13.2035 N   0  0  0  0  0  0  0  0  0  0  0  0
   25.5062  -20.2781  -12.2141 C   0  0  1  0  0  0  0  0  0  0  0  0
   24.2178  -20.8393  -12.7267 C   0  0  0  0  0  0  0  0  0  0  0  0
   23.0208  -20.6179  -11.8749 C   0  0  0  0  0  0  0  0  0  0  0  0
   21.8118  -21.2273  -12.5393 C   0  0  0  0  0  0  0  0  0  0  0  0
   20.5286  -20.8668  -11.8410 C   0  0  0  0  0  0  0  0  0  0  0  0
   19.4029  -21.4461  -12.5370 N   0  0  0  0  0  0  0  0  0  0  0  0
   25.8257  -20.9406  -10.9103 C   0  0  0  0  0  0  0  0  0  0  0  0
   26.2401  -22.1105  -10.8937 O   0  0  0  0  0  0  0  0  0  0  0  0
   27.3009  -18.8845   -5.4532 C   0  0  0  0  0  0  0  0  0  0  0  0
   27.2898  -20.1053   -6.3384 C   0  0  2  0  0  0  0  0  0  0  0  0
   28.5192  -20.9494   -6.2746 C   0  0  0  0  0  0  0  0  0  0  0  0
   26.8372  -19.8623   -7.7138 C   0  0  0  0  0  0  0  0  0  0  0  0
   25.9848  -20.8592   -8.4067 C   0  0  2  0  0  0  0  0  0  0  0  0
   25.6522  -20.2281   -9.7001 N   0  0  0  0  0  0  0  0  0  0  0  0
   24.7178  -21.2203   -7.7776 C   0  0  0  0  0  0  0  0  0  0  0  0
   23.6564  -20.6379   -8.1516 O   0  0  0  0  0  0  0  0  0  0  0  0
   24.5415  -22.1729   -6.7761 O   0  0  0  0  0  0  0  0  0  0  0  0
  2  1  1  6
  2  7  1  0
  3  2  1  0
  4  3  1  0
  5  4  1  0
  5  9  1  0
  6  5  2  0
  7  8  2  0
 10  7  1  0
 10 11  1  0
 11 12  1  6
 13 14  1  0
 13 12  1  0
 14 15  1  0
 16 15  1  0
 17 11  1  0
 17 18  2  0
 20 19  1  6
 20 21  1  0
 20 22  1  0
 23 22  1  1
 23 24  1  0
 24 17  1  0
 25 27  1  0
 25 23  1  0
 26 25  2  0
M  END
$$$$
