EKL.pdb
     RDKit          3D

 27 26  0  0  1  0  0  0  0  0999 V2000
   26.2543  -17.6365  -16.7063 N   0  0  0  0  0  0  0  0  0  0  0  0
   26.8529  -18.7474  -15.9725 C   0  0  1  0  0  0  0  0  0  0  0  0
   28.2425  -18.3018  -15.5868 C   0  0  0  0  0  0  0  0  0  0  0  0
   29.1528  -18.2257  -16.8004 C   0  0  0  0  0  0  0  0  0  0  0  0
   29.1629  -19.4863  -17.5510 C   0  0  0  0  0  0  0  0  0  0  0  0
   28.1881  -19.7287  -18.3352 O   0  0  0  0  0  0  0  0  0  0  0  0
   25.9910  -19.0633  -14.8291 C   0  0  0  0  0  0  0  0  0  0  0  0
   25.5069  -18.1444  -14.0903 O   0  0  0  0  0  0  0  0  0  0  0  0
   30.1670  -20.4097  -17.4450 O   0  0  0  0  0  0  0  0  0  0  0  0
   25.6359  -20.3828  -14.4634 N   0  0  0  0  0  0  0  0  0  0  0  0
   24.7541  -20.6697  -13.3138 C   0  0  1  0  0  0  0  0  0  0  0  0
   23.9874  -21.8968  -13.6935 C   0  0  0  0  0  0  0  0  0  0  0  0
   22.7944  -22.2077  -12.8643 C   0  0  0  0  0  0  0  0  0  0  0  0
   21.5621  -21.6432  -13.5254 C   0  0  0  0  0  0  0  0  0  0  0  0
   20.3263  -21.8202  -12.6855 C   0  0  0  0  0  0  0  0  0  0  0  0
   19.1807  -21.2532  -13.3590 N   0  0  0  0  0  0  0  0  0  0  0  0
   25.6086  -20.9935  -12.1280 C   0  0  0  0  0  0  0  0  0  0  0  0
   26.5528  -21.7908  -12.2425 O   0  0  0  0  0  0  0  0  0  0  0  0
   27.7139  -18.6141   -7.1700 C   0  0  0  0  0  0  0  0  0  0  0  0
   27.5483  -19.9224   -7.9014 C   0  0  2  0  0  0  0  0  0  0  0  0
   28.7718  -20.7748   -7.9669 C   0  0  0  0  0  0  0  0  0  0  0  0
   26.8558  -19.8207   -9.1921 C   0  0  0  0  0  0  0  0  0  0  0  0
   25.9536  -20.9084   -9.6433 C   0  0  2  0  0  0  0  0  0  0  0  0
   25.3339  -20.3878  -10.8790 N   0  0  0  0  0  0  0  0  0  0  0  0
   24.8605  -21.2932   -8.7553 C   0  0  0  0  0  0  0  0  0  0  0  0
   23.7533  -20.6829   -8.8410 O   0  0  0  0  0  0  0  0  0  0  0  0
   24.9025  -22.2975   -7.7904 O   0  0  0  0  0  0  0  0  0  0  0  0
  2  1  1  1
  2  7  1  0
  3  2  1  0
  4  3  1  0
  5  4  1  0
  5  9  1  0
  6  5  2  0
  7  8  2  0
 10  7  1  0
 10 11  1  0
 11 12  1  6
 13 14  1  0
 13 12  1  0
 14 15  1  0
 16 15  1  0
 17 11  1  0
 17 18  2  0
 20 19  1  6
 20 21  1  0
 20 22  1  0
 23 22  1  1
 23 24  1  0
 24 17  1  0
 25 27  1  0
 25 23  1  0
 26 25  2  0
M  END
$$$$
