EKL.pdb
     RDKit          3D

 27 26  0  0  1  0  0  0  0  0999 V2000
   25.7063  -21.0360  -19.4306 N   0  0  0  0  0  0  0  0  0  0  0  0
   26.5587  -20.3718  -18.4493 C   0  0  1  0  0  0  0  0  0  0  0  0
   27.3065  -19.2943  -19.1965 C   0  0  0  0  0  0  0  0  0  0  0  0
   28.1358  -19.8818  -20.3254 C   0  0  0  0  0  0  0  0  0  0  0  0
   29.1857  -20.7734  -19.8202 C   0  0  0  0  0  0  0  0  0  0  0  0
   28.9757  -22.0300  -19.8510 O   0  0  0  0  0  0  0  0  0  0  0  0
   25.7088  -19.8645  -17.3675 C   0  0  0  0  0  0  0  0  0  0  0  0
   26.1795  -19.1134  -16.4516 O   0  0  0  0  0  0  0  0  0  0  0  0
   30.3739  -20.3173  -19.3177 O   0  0  0  0  0  0  0  0  0  0  0  0
   24.3302  -20.1612  -17.2567 N   0  0  0  0  0  0  0  0  0  0  0  0
   23.4816  -19.5724  -16.2011 C   0  0  1  0  0  0  0  0  0  0  0  0
   22.1004  -19.5303  -16.7742 C   0  0  0  0  0  0  0  0  0  0  0  0
   21.8388  -18.4668  -17.7781 C   0  0  0  0  0  0  0  0  0  0  0  0
   21.2652  -17.2547  -17.0879 C   0  0  0  0  0  0  0  0  0  0  0  0
   20.8766  -16.1710  -18.0568 C   0  0  0  0  0  0  0  0  0  0  0  0
   20.3041  -15.0502  -17.3472 N   0  0  0  0  0  0  0  0  0  0  0  0
   23.4774  -20.4965  -15.0233 C   0  0  0  0  0  0  0  0  0  0  0  0
   23.2745  -21.7099  -15.1872 O   0  0  0  0  0  0  0  0  0  0  0  0
   24.2035  -21.1154   -9.5282 C   0  0  0  0  0  0  0  0  0  0  0  0
   25.2476  -21.3285  -10.5952 C   0  0  2  0  0  0  0  0  0  0  0  0
   26.6602  -21.1449  -10.1495 C   0  0  0  0  0  0  0  0  0  0  0  0
   24.9634  -20.6649  -11.8736 C   0  0  0  0  0  0  0  0  0  0  0  0
   23.6582  -20.8707  -12.5479 C   0  0  2  0  0  0  0  0  0  0  0  0
   23.7044  -19.9801  -13.7255 N   0  0  0  0  0  0  0  0  0  0  0  0
   22.4503  -20.5225  -11.8055 C   0  0  0  0  0  0  0  0  0  0  0  0
   21.8009  -21.4399  -11.2205 O   0  0  0  0  0  0  0  0  0  0  0  0
   21.9159  -19.2437  -11.6620 O   0  0  0  0  0  0  0  0  0  0  0  0
  2  1  1  6
  2  7  1  0
  3  2  1  0
  4  3  1  0
  5  4  1  0
  5  9  1  0
  6  5  2  0
  7  8  2  0
 10  7  1  0
 10 11  1  0
 11 12  1  6
 13 14  1  0
 13 12  1  0
 14 15  1  0
 16 15  1  0
 17 11  1  0
 17 18  2  0
 20 19  1  1
 20 21  1  0
 20 22  1  0
 23 22  1  1
 23 24  1  0
 24 17  1  0
 25 27  1  0
 25 23  1  0
 26 25  2  0
M  END
$$$$
