EKL.pdb
     RDKit          3D

 27 26  0  0  1  0  0  0  0  0999 V2000
   16.0359  -13.0301  -17.6525 N   0  0  0  0  0  0  0  0  0  0  0  0
   16.9219  -12.8198  -16.5117 C   0  0  1  0  0  0  0  0  0  0  0  0
   18.0078  -13.8626  -16.6196 C   0  0  0  0  0  0  0  0  0  0  0  0
   17.5360  -15.0684  -17.4138 C   0  0  0  0  0  0  0  0  0  0  0  0
   18.5784  -16.0962  -17.5105 C   0  0  0  0  0  0  0  0  0  0  0  0
   18.2930  -17.2811  -17.1384 O   0  0  0  0  0  0  0  0  0  0  0  0
   17.4159  -11.4400  -16.5589 C   0  0  0  0  0  0  0  0  0  0  0  0
   18.3795  -11.1069  -17.3237 O   0  0  0  0  0  0  0  0  0  0  0  0
   19.8383  -15.8393  -17.9784 O   0  0  0  0  0  0  0  0  0  0  0  0
   16.8745  -10.3925  -15.7775 N   0  0  0  0  0  0  0  0  0  0  0  0
   17.4121   -9.0177  -15.8247 C   0  0  1  0  0  0  0  0  0  0  0  0
   16.3399   -8.1482  -15.2486 C   0  0  0  0  0  0  0  0  0  0  0  0
   15.1389   -7.9379  -16.0976 C   0  0  0  0  0  0  0  0  0  0  0  0
   13.9157   -7.8365  -15.2212 C   0  0  0  0  0  0  0  0  0  0  0  0
   12.6470   -7.6965  -16.0181 C   0  0  0  0  0  0  0  0  0  0  0  0
   11.5003   -7.7376  -15.1402 N   0  0  0  0  0  0  0  0  0  0  0  0
   18.6114   -8.9448  -14.9317 C   0  0  0  0  0  0  0  0  0  0  0  0
   18.7661   -9.7840  -14.0304 O   0  0  0  0  0  0  0  0  0  0  0  0
   23.4641  -10.7375  -15.3804 C   0  0  0  0  0  0  0  0  0  0  0  0
   22.8382   -9.6408  -14.5562 C   0  0  2  0  0  0  0  0  0  0  0  0
   22.9296   -9.8241  -13.0777 C   0  0  0  0  0  0  0  0  0  0  0  0
   21.4995   -9.2294  -14.9970 C   0  0  0  0  0  0  0  0  0  0  0  0
   20.8846   -7.9904  -14.4607 C   0  0  2  0  0  0  0  0  0  0  0  0
   19.5647   -7.9161  -15.1197 N   0  0  0  0  0  0  0  0  0  0  0  0
   21.5617   -6.7260  -14.7332 C   0  0  0  0  0  0  0  0  0  0  0  0
   21.3896   -6.1646  -15.8560 O   0  0  0  0  0  0  0  0  0  0  0  0
   22.4051   -6.0425  -13.8596 O   0  0  0  0  0  0  0  0  0  0  0  0
  2  1  1  6
  2  7  1  0
  3  2  1  0
  4  3  1  0
  5  4  1  0
  5  9  1  0
  6  5  2  0
  7  8  2  0
 10  7  1  0
 10 11  1  0
 11 12  1  1
 13 14  1  0
 13 12  1  0
 14 15  1  0
 16 15  1  0
 17 11  1  0
 17 18  2  0
 20 19  1  6
 20 21  1  0
 20 22  1  0
 23 22  1  6
 23 24  1  0
 24 17  1  0
 25 27  1  0
 25 23  1  0
 26 25  2  0
M  END
$$$$
