EKL.pdb
     RDKit          3D

 27 26  0  0  1  0  0  0  0  0999 V2000
   15.9715  -12.6301  -17.4618 N   0  0  0  0  0  0  0  0  0  0  0  0
   16.5647  -12.2299  -16.1895 C   0  0  1  0  0  0  0  0  0  0  0  0
   17.9317  -12.8680  -16.1391 C   0  0  0  0  0  0  0  0  0  0  0  0
   18.8347  -12.3216  -17.2315 C   0  0  0  0  0  0  0  0  0  0  0  0
   20.1708  -12.9258  -17.1837 C   0  0  0  0  0  0  0  0  0  0  0  0
   21.0808  -12.3249  -16.5245 O   0  0  0  0  0  0  0  0  0  0  0  0
   16.5899  -10.7650  -16.1323 C   0  0  0  0  0  0  0  0  0  0  0  0
   16.9512  -10.0686  -17.1368 O   0  0  0  0  0  0  0  0  0  0  0  0
   20.4819  -14.0994  -17.8148 O   0  0  0  0  0  0  0  0  0  0  0  0
   16.2234  -10.0247  -14.9840 N   0  0  0  0  0  0  0  0  0  0  0  0
   16.3143   -8.5513  -14.9363 C   0  0  1  0  0  0  0  0  0  0  0  0
   15.0870   -8.0974  -14.2114 C   0  0  0  0  0  0  0  0  0  0  0  0
   13.8146   -8.1539  -14.9764 C   0  0  0  0  0  0  0  0  0  0  0  0
   12.6721   -7.7425  -14.0820 C   0  0  0  0  0  0  0  0  0  0  0  0
   11.3434   -7.7923  -14.7863 C   0  0  0  0  0  0  0  0  0  0  0  0
   10.2701   -7.5940  -13.8398 N   0  0  0  0  0  0  0  0  0  0  0  0
   17.5121   -8.1747  -14.1210 C   0  0  0  0  0  0  0  0  0  0  0  0
   17.8679   -8.8920  -13.1727 O   0  0  0  0  0  0  0  0  0  0  0  0
   22.3651   -8.3263  -13.8599 C   0  0  0  0  0  0  0  0  0  0  0  0
   21.6683   -8.2777  -15.1964 C   0  0  2  0  0  0  0  0  0  0  0  0
   22.3517   -7.4601  -16.2415 C   0  0  0  0  0  0  0  0  0  0  0  0
   20.2244   -8.0208  -15.1269 C   0  0  0  0  0  0  0  0  0  0  0  0
   19.6981   -6.9478  -14.2482 C   0  0  2  0  0  0  0  0  0  0  0  0
   18.2339   -6.9991  -14.4362 N   0  0  0  0  0  0  0  0  0  0  0  0
   20.1102   -5.5765  -14.5331 C   0  0  0  0  0  0  0  0  0  0  0  0
   21.0931   -5.0850  -13.9024 O   0  0  0  0  0  0  0  0  0  0  0  0
   19.5207   -4.7187  -15.4596 O   0  0  0  0  0  0  0  0  0  0  0  0
  2  1  1  6
  2  7  1  0
  3  2  1  0
  4  3  1  0
  5  4  1  0
  5  9  1  0
  6  5  2  0
  7  8  2  0
 10  7  1  0
 10 11  1  0
 11 12  1  1
 13 14  1  0
 13 12  1  0
 14 15  1  0
 16 15  1  0
 17 11  1  0
 17 18  2  0
 20 19  1  1
 20 21  1  0
 20 22  1  0
 23 22  1  6
 23 24  1  0
 24 17  1  0
 25 27  1  0
 25 23  1  0
 26 25  2  0
M  END
$$$$
