EKL.pdb
     RDKit          3D

 27 26  0  0  1  0  0  0  0  0999 V2000
   22.3552  -20.5421  -14.8269 N   0  0  0  0  0  0  0  0  0  0  0  0
   22.3248  -19.2408  -15.4876 C   0  0  1  0  0  0  0  0  0  0  0  0
   21.2957  -18.4159  -14.7535 C   0  0  0  0  0  0  0  0  0  0  0  0
   19.8869  -18.7738  -15.1945 C   0  0  0  0  0  0  0  0  0  0  0  0
   19.6885  -18.5300  -16.6276 C   0  0  0  0  0  0  0  0  0  0  0  0
   19.6685  -17.3232  -17.0365 O   0  0  0  0  0  0  0  0  0  0  0  0
   23.6764  -18.6735  -15.4528 C   0  0  0  0  0  0  0  0  0  0  0  0
   24.1335  -18.1141  -14.4028 O   0  0  0  0  0  0  0  0  0  0  0  0
   19.5227  -19.5363  -17.5396 O   0  0  0  0  0  0  0  0  0  0  0  0
   24.5608  -18.7015  -16.5565 N   0  0  0  0  0  0  0  0  0  0  0  0
   25.9341  -18.1639  -16.4774 C   0  0  1  0  0  0  0  0  0  0  0  0
   26.7904  -19.1417  -17.2179 C   0  0  0  0  0  0  0  0  0  0  0  0
   27.1361  -20.3916  -16.4931 C   0  0  0  0  0  0  0  0  0  0  0  0
   28.0522  -21.2311  -17.3479 C   0  0  0  0  0  0  0  0  0  0  0  0
   28.4693  -22.5052  -16.6646 C   0  0  0  0  0  0  0  0  0  0  0  0
   29.4184  -23.2224  -17.4845 N   0  0  0  0  0  0  0  0  0  0  0  0
   25.9750  -16.8547  -17.2025 C   0  0  0  0  0  0  0  0  0  0  0  0
   25.2655  -16.6783  -18.2054 O   0  0  0  0  0  0  0  0  0  0  0  0
   25.0707  -12.2920  -16.6981 C   0  0  0  0  0  0  0  0  0  0  0  0
   26.1505  -12.7848  -15.7679 C   0  0  2  0  0  0  0  0  0  0  0  0
   26.6594  -11.7766  -14.7921 C   0  0  0  0  0  0  0  0  0  0  0  0
   27.2278  -13.5379  -16.4221 C   0  0  0  0  0  0  0  0  0  0  0  0
   26.9096  -14.5405  -17.4682 C   0  0  2  0  0  0  0  0  0  0  0  0
   26.8254  -15.8227  -16.7397 N   0  0  0  0  0  0  0  0  0  0  0  0
   27.8808  -14.7304  -18.5416 C   0  0  0  0  0  0  0  0  0  0  0  0
   28.7777  -15.6159  -18.4112 O   0  0  0  0  0  0  0  0  0  0  0  0
   27.9288  -14.0199  -19.7393 O   0  0  0  0  0  0  0  0  0  0  0  0
  2  1  1  1
  2  7  1  0
  3  2  1  0
  4  3  1  0
  5  4  1  0
  5  9  1  0
  6  5  2  0
  7  8  2  0
 10  7  1  0
 10 11  1  0
 11 12  1  6
 13 14  1  0
 13 12  1  0
 14 15  1  0
 16 15  1  0
 17 11  1  0
 17 18  2  0
 20 19  1  6
 20 21  1  0
 20 22  1  0
 23 22  1  1
 23 24  1  0
 24 17  1  0
 25 27  1  0
 25 23  1  0
 26 25  2  0
M  END
$$$$
