EKL.pdb
     RDKit          3D

 27 26  0  0  1  0  0  0  0  0999 V2000
   18.7842  -19.1901  -14.0507 N   0  0  0  0  0  0  0  0  0  0  0  0
   19.2016  -20.3283  -13.2377 C   0  0  1  0  0  0  0  0  0  0  0  0
   18.0989  -21.3535  -13.3445 C   0  0  0  0  0  0  0  0  0  0  0  0
   17.5063  -21.3806  -14.7429 C   0  0  0  0  0  0  0  0  0  0  0  0
   16.1993  -20.7158  -14.7912 C   0  0  0  0  0  0  0  0  0  0  0  0
   16.1526  -19.5067  -15.1911 O   0  0  0  0  0  0  0  0  0  0  0  0
   20.4997  -20.7977  -13.7322 C   0  0  0  0  0  0  0  0  0  0  0  0
   21.1391  -21.7262  -13.1376 O   0  0  0  0  0  0  0  0  0  0  0  0
   15.0342  -21.3330  -14.4255 O   0  0  0  0  0  0  0  0  0  0  0  0
   21.1314  -20.2697  -14.8825 N   0  0  0  0  0  0  0  0  0  0  0  0
   22.4396  -20.7637  -15.3577 C   0  0  1  0  0  0  0  0  0  0  0  0
   22.5943  -20.2198  -16.7426 C   0  0  0  0  0  0  0  0  0  0  0  0
   23.8633  -20.5522  -17.4401 C   0  0  0  0  0  0  0  0  0  0  0  0
   23.8569  -19.9349  -18.8161 C   0  0  0  0  0  0  0  0  0  0  0  0
   25.1228  -20.2167  -19.5790 C   0  0  0  0  0  0  0  0  0  0  0  0
   25.2406  -21.6323  -19.8431 N   0  0  0  0  0  0  0  0  0  0  0  0
   23.5124  -20.1749  -14.4954 C   0  0  0  0  0  0  0  0  0  0  0  0
   23.2522  -19.2202  -13.7461 O   0  0  0  0  0  0  0  0  0  0  0  0
   27.2915  -21.2366  -10.9942 C   0  0  0  0  0  0  0  0  0  0  0  0
   25.8560  -20.7774  -10.9445 C   0  0  2  0  0  0  0  0  0  0  0  0
   25.0564  -21.3092   -9.8019 C   0  0  0  0  0  0  0  0  0  0  0  0
   25.1414  -20.8564  -12.2247 C   0  0  0  0  0  0  0  0  0  0  0  0
   25.7947  -20.3956  -13.4743 C   0  0  2  0  0  0  0  0  0  0  0  0
   24.8213  -20.7108  -14.5398 N   0  0  0  0  0  0  0  0  0  0  0  0
   27.0532  -21.0307  -13.8542 C   0  0  0  0  0  0  0  0  0  0  0  0
   27.0277  -22.1845  -14.3773 O   0  0  0  0  0  0  0  0  0  0  0  0
   28.3261  -20.4849  -13.7014 O   0  0  0  0  0  0  0  0  0  0  0  0
  2  1  1  6
  2  7  1  0
  3  2  1  0
  4  3  1  0
  5  4  1  0
  5  9  1  0
  6  5  2  0
  7  8  2  0
 10  7  1  0
 10 11  1  0
 11 12  1  6
 13 14  1  0
 13 12  1  0
 14 15  1  0
 16 15  1  0
 17 11  1  0
 17 18  2  0
 20 19  1  6
 20 21  1  0
 20 22  1  0
 23 22  1  1
 23 24  1  0
 24 17  1  0
 25 27  1  0
 25 23  1  0
 26 25  2  0
M  END
$$$$
