EKL.pdb
     RDKit          3D

 27 26  0  0  1  0  0  0  0  0999 V2000
   24.5361  -17.2423  -20.3199 N   0  0  0  0  0  0  0  0  0  0  0  0
   24.1835  -16.6979  -19.0122 C   0  0  1  0  0  0  0  0  0  0  0  0
   23.1097  -15.6657  -19.2574 C   0  0  0  0  0  0  0  0  0  0  0  0
   23.7103  -14.3382  -19.6866 C   0  0  0  0  0  0  0  0  0  0  0  0
   24.3206  -13.6282  -18.5570 C   0  0  0  0  0  0  0  0  0  0  0  0
   23.5517  -13.0382  -17.7296 O   0  0  0  0  0  0  0  0  0  0  0  0
   23.7578  -17.8053  -18.1505 C   0  0  0  0  0  0  0  0  0  0  0  0
   23.0196  -18.7446  -18.5946 O   0  0  0  0  0  0  0  0  0  0  0  0
   25.6727  -13.5702  -18.3550 O   0  0  0  0  0  0  0  0  0  0  0  0
   24.1245  -17.9171  -16.7889 N   0  0  0  0  0  0  0  0  0  0  0  0
   23.6890  -19.0504  -15.9479 C   0  0  1  0  0  0  0  0  0  0  0  0
   24.6891  -19.1337  -14.8386 C   0  0  0  0  0  0  0  0  0  0  0  0
   24.4821  -20.2223  -13.8489 C   0  0  0  0  0  0  0  0  0  0  0  0
   25.6548  -20.2698  -12.9017 C   0  0  0  0  0  0  0  0  0  0  0  0
   25.5726  -21.4258  -11.9420 C   0  0  0  0  0  0  0  0  0  0  0  0
   26.7053  -21.4102  -11.0453 N   0  0  0  0  0  0  0  0  0  0  0  0
   22.3537  -18.7192  -15.3574 C   0  0  0  0  0  0  0  0  0  0  0  0
   22.0421  -17.5354  -15.1525 O   0  0  0  0  0  0  0  0  0  0  0  0
   17.4633  -18.2664  -14.5905 C   0  0  0  0  0  0  0  0  0  0  0  0
   18.0861  -18.4603  -15.9501 C   0  0  2  0  0  0  0  0  0  0  0  0
   17.1627  -18.9685  -17.0069 C   0  0  0  0  0  0  0  0  0  0  0  0
   19.3780  -19.1579  -15.9398 C   0  0  0  0  0  0  0  0  0  0  0  0
   20.0581  -19.4513  -14.6545 C   0  0  2  0  0  0  0  0  0  0  0  0
   21.4517  -19.7605  -15.0342 N   0  0  0  0  0  0  0  0  0  0  0  0
   19.5733  -20.5873  -13.8760 C   0  0  0  0  0  0  0  0  0  0  0  0
   19.8932  -21.7602  -14.2330 O   0  0  0  0  0  0  0  0  0  0  0  0
   18.7700  -20.5195  -12.7394 O   0  0  0  0  0  0  0  0  0  0  0  0
  2  1  1  6
  2  7  1  0
  3  2  1  0
  4  3  1  0
  5  4  1  0
  5  9  1  0
  6  5  2  0
  7  8  2  0
 10  7  1  0
 10 11  1  0
 11 12  1  1
 13 14  1  0
 13 12  1  0
 14 15  1  0
 16 15  1  0
 17 11  1  0
 17 18  2  0
 20 19  1  1
 20 21  1  0
 20 22  1  0
 23 22  1  6
 23 24  1  0
 24 17  1  0
 25 27  1  0
 25 23  1  0
 26 25  2  0
M  END
$$$$
