EKL.pdb
     RDKit          3D

 27 26  0  0  1  0  0  0  0  0999 V2000
   14.3537   -9.9950  -13.0046 N   0  0  0  0  0  0  0  0  0  0  0  0
   15.4565   -9.8858  -12.0545 C   0  0  1  0  0  0  0  0  0  0  0  0
   16.5993  -10.6815  -12.6370 C   0  0  0  0  0  0  0  0  0  0  0  0
   16.7189  -10.4573  -14.1346 C   0  0  0  0  0  0  0  0  0  0  0  0
   17.9124  -11.1076  -14.6869 C   0  0  0  0  0  0  0  0  0  0  0  0
   18.7617  -10.3848  -15.3035 O   0  0  0  0  0  0  0  0  0  0  0  0
   15.7598   -8.4644  -11.8605 C   0  0  0  0  0  0  0  0  0  0  0  0
   15.5384   -7.6082  -12.7784 O   0  0  0  0  0  0  0  0  0  0  0  0
   18.1515  -12.4499  -14.5717 O   0  0  0  0  0  0  0  0  0  0  0  0
   16.3094   -7.9418  -10.6664 N   0  0  0  0  0  0  0  0  0  0  0  0
   16.6083   -6.5049  -10.5014 C   0  0  1  0  0  0  0  0  0  0  0  0
   16.1034   -6.1444   -9.1402 C   0  0  0  0  0  0  0  0  0  0  0  0
   14.6405   -5.9127   -9.0232 C   0  0  0  0  0  0  0  0  0  0  0  0
   14.3117   -5.4779   -7.6170 C   0  0  0  0  0  0  0  0  0  0  0  0
   12.8670   -5.0883   -7.4583 C   0  0  0  0  0  0  0  0  0  0  0  0
   12.5938   -4.7373   -6.0836 N   0  0  0  0  0  0  0  0  0  0  0  0
   18.0941   -6.3230  -10.5187 C   0  0  0  0  0  0  0  0  0  0  0  0
   18.8162   -7.0468   -9.8150 O   0  0  0  0  0  0  0  0  0  0  0  0
   20.7693   -8.5728  -14.2130 C   0  0  0  0  0  0  0  0  0  0  0  0
   21.0682   -7.3690  -13.3554 C   0  0  2  0  0  0  0  0  0  0  0  0
   22.2924   -7.4785  -12.5085 C   0  0  0  0  0  0  0  0  0  0  0  0
   19.9138   -6.8366  -12.6208 C   0  0  0  0  0  0  0  0  0  0  0  0
   20.0050   -5.5237  -11.9363 C   0  0  2  0  0  0  0  0  0  0  0  0
   18.6691   -5.3233  -11.3387 N   0  0  0  0  0  0  0  0  0  0  0  0
   20.2773   -4.3488  -12.7591 C   0  0  0  0  0  0  0  0  0  0  0  0
   19.3370   -3.8435  -13.4418 O   0  0  0  0  0  0  0  0  0  0  0  0
   21.5030   -3.6967  -12.8774 O   0  0  0  0  0  0  0  0  0  0  0  0
  2  1  1  6
  2  7  1  0
  3  2  1  0
  4  3  1  0
  5  4  1  0
  5  9  1  0
  6  5  2  0
  7  8  2  0
 10  7  1  0
 10 11  1  0
 11 12  1  1
 13 14  1  0
 13 12  1  0
 14 15  1  0
 16 15  1  0
 17 11  1  0
 17 18  2  0
 20 19  1  1
 20 21  1  0
 20 22  1  0
 23 22  1  6
 23 24  1  0
 24 17  1  0
 25 27  1  0
 25 23  1  0
 26 25  2  0
M  END
$$$$
