EKL.pdb
     RDKit          3D

 27 26  0  0  1  0  0  0  0  0999 V2000
   27.9873  -21.9515  -15.4467 N   0  0  0  0  0  0  0  0  0  0  0  0
   28.1682  -20.5139  -15.2705 C   0  0  1  0  0  0  0  0  0  0  0  0
   27.7951  -19.8746  -16.5860 C   0  0  0  0  0  0  0  0  0  0  0  0
   26.4384  -20.3588  -17.0680 C   0  0  0  0  0  0  0  0  0  0  0  0
   26.3099  -20.2500  -18.5255 C   0  0  0  0  0  0  0  0  0  0  0  0
   27.2997  -19.7931  -19.1853 O   0  0  0  0  0  0  0  0  0  0  0  0
   27.3392  -20.0791  -14.1419 C   0  0  0  0  0  0  0  0  0  0  0  0
   27.3272  -18.8638  -13.7579 O   0  0  0  0  0  0  0  0  0  0  0  0
   25.1787  -20.6136  -19.2039 O   0  0  0  0  0  0  0  0  0  0  0  0
   26.5054  -20.9536  -13.4064 N   0  0  0  0  0  0  0  0  0  0  0  0
   25.6710  -20.4841  -12.2819 C   0  0  1  0  0  0  0  0  0  0  0  0
   24.3217  -21.0907  -12.5036 C   0  0  0  0  0  0  0  0  0  0  0  0
   23.2806  -20.1891  -13.0609 C   0  0  0  0  0  0  0  0  0  0  0  0
   22.6509  -20.8354  -14.2693 C   0  0  0  0  0  0  0  0  0  0  0  0
   21.6517  -19.9374  -14.9471 C   0  0  0  0  0  0  0  0  0  0  0  0
   20.9879  -20.6478  -16.0157 N   0  0  0  0  0  0  0  0  0  0  0  0
   26.2343  -21.0350  -11.0090 C   0  0  0  0  0  0  0  0  0  0  0  0
   27.3430  -21.5928  -11.0112 O   0  0  0  0  0  0  0  0  0  0  0  0
   28.7869  -20.7556   -6.8648 C   0  0  0  0  0  0  0  0  0  0  0  0
   27.9805  -19.5767   -7.3484 C   0  0  2  0  0  0  0  0  0  0  0  0
   27.2669  -18.8130   -6.2828 C   0  0  0  0  0  0  0  0  0  0  0  0
   27.1341  -19.8496   -8.5167 C   0  0  0  0  0  0  0  0  0  0  0  0
   26.1824  -20.9874   -8.5000 C   0  0  2  0  0  0  0  0  0  0  0  0
   25.4973  -20.9174   -9.8067 N   0  0  0  0  0  0  0  0  0  0  0  0
   25.1394  -20.9827   -7.4784 C   0  0  0  0  0  0  0  0  0  0  0  0
   24.1066  -20.2704   -7.6558 O   0  0  0  0  0  0  0  0  0  0  0  0
   25.1551  -21.7051   -6.2870 O   0  0  0  0  0  0  0  0  0  0  0  0
  2  1  1  6
  2  7  1  0
  3  2  1  0
  4  3  1  0
  5  4  1  0
  5  9  1  0
  6  5  2  0
  7  8  2  0
 10  7  1  0
 10 11  1  0
 11 12  1  6
 13 14  1  0
 13 12  1  0
 14 15  1  0
 16 15  1  0
 17 11  1  0
 17 18  2  0
 20 19  1  1
 20 21  1  0
 20 22  1  0
 23 22  1  1
 23 24  1  0
 24 17  1  0
 25 27  1  0
 25 23  1  0
 26 25  2  0
M  END
$$$$
