EKL.pdb
     RDKit          3D

 27 26  0  0  1  0  0  0  0  0999 V2000
   17.8927  -13.8147  -18.2207 N   0  0  0  0  0  0  0  0  0  0  0  0
   17.4118  -12.4820  -18.5718 C   0  0  1  0  0  0  0  0  0  0  0  0
   16.2606  -12.1872  -17.6411 C   0  0  0  0  0  0  0  0  0  0  0  0
   16.4978  -12.7858  -16.2654 C   0  0  0  0  0  0  0  0  0  0  0  0
   15.4537  -12.3898  -15.3138 C   0  0  0  0  0  0  0  0  0  0  0  0
   15.0703  -11.1746  -15.3110 O   0  0  0  0  0  0  0  0  0  0  0  0
   18.5298  -11.5409  -18.4511 C   0  0  0  0  0  0  0  0  0  0  0  0
   19.6625  -11.9119  -17.9995 O   0  0  0  0  0  0  0  0  0  0  0  0
   14.8777  -13.2633  -14.4320 O   0  0  0  0  0  0  0  0  0  0  0  0
   18.4426  -10.1777  -18.8182 N   0  0  0  0  0  0  0  0  0  0  0  0
   19.6190   -9.2848  -18.8117 C   0  0  1  0  0  0  0  0  0  0  0  0
   19.2632   -8.1465  -19.7147 C   0  0  0  0  0  0  0  0  0  0  0  0
   19.2912   -8.4320  -21.1725 C   0  0  0  0  0  0  0  0  0  0  0  0
   18.9333   -7.1817  -21.9361 C   0  0  0  0  0  0  0  0  0  0  0  0
   18.8687   -7.4135  -23.4215 C   0  0  0  0  0  0  0  0  0  0  0  0
   18.6775   -6.1597  -24.1135 N   0  0  0  0  0  0  0  0  0  0  0  0
   19.8027   -8.7499  -17.4256 C   0  0  0  0  0  0  0  0  0  0  0  0
   18.8324   -8.6764  -16.6551 O   0  0  0  0  0  0  0  0  0  0  0  0
   21.3373   -9.2735  -12.8979 C   0  0  0  0  0  0  0  0  0  0  0  0
   22.1176   -9.9593  -13.9910 C   0  0  2  0  0  0  0  0  0  0  0  0
   23.3530  -10.6674  -13.5435 C   0  0  0  0  0  0  0  0  0  0  0  0
   22.3320   -9.1465  -15.1948 C   0  0  0  0  0  0  0  0  0  0  0  0
   21.3571   -8.0925  -15.5677 C   0  0  2  0  0  0  0  0  0  0  0  0
   21.0849   -8.3288  -17.0002 N   0  0  0  0  0  0  0  0  0  0  0  0
   21.7840   -6.7017  -15.4454 C   0  0  0  0  0  0  0  0  0  0  0  0
   22.2858   -6.1204  -16.4533 O   0  0  0  0  0  0  0  0  0  0  0  0
   21.6935   -5.9138  -14.2997 O   0  0  0  0  0  0  0  0  0  0  0  0
  2  1  1  1
  2  7  1  0
  3  2  1  0
  4  3  1  0
  5  4  1  0
  5  9  1  0
  6  5  2  0
  7  8  2  0
 10  7  1  0
 10 11  1  0
 11 12  1  6
 13 14  1  0
 13 12  1  0
 14 15  1  0
 16 15  1  0
 17 11  1  0
 17 18  2  0
 20 19  1  1
 20 21  1  0
 20 22  1  0
 23 22  1  6
 23 24  1  0
 24 17  1  0
 25 27  1  0
 25 23  1  0
 26 25  2  0
M  END
$$$$
