EKL.pdb
     RDKit          3D

 27 26  0  0  1  0  0  0  0  0999 V2000
   23.1943  -18.7785  -13.7809 N   0  0  0  0  0  0  0  0  0  0  0  0
   22.6739  -20.1337  -13.6287 C   0  0  1  0  0  0  0  0  0  0  0  0
   21.9470  -20.4560  -14.9117 C   0  0  0  0  0  0  0  0  0  0  0  0
   20.8149  -19.4752  -15.1641 C   0  0  0  0  0  0  0  0  0  0  0  0
   19.5022  -20.1200  -15.0476 C   0  0  0  0  0  0  0  0  0  0  0  0
   18.7343  -20.1118  -16.0646 O   0  0  0  0  0  0  0  0  0  0  0  0
   23.7979  -21.0303  -13.3409 C   0  0  0  0  0  0  0  0  0  0  0  0
   23.6440  -22.2950  -13.3030 O   0  0  0  0  0  0  0  0  0  0  0  0
   19.0673  -20.7248  -13.8999 O   0  0  0  0  0  0  0  0  0  0  0  0
   25.1127  -20.5737  -13.0885 N   0  0  0  0  0  0  0  0  0  0  0  0
   26.2373  -21.5031  -12.8588 C   0  0  1  0  0  0  0  0  0  0  0  0
   27.3999  -20.9146  -13.5935 C   0  0  0  0  0  0  0  0  0  0  0  0
   27.2611  -20.8154  -15.0694 C   0  0  0  0  0  0  0  0  0  0  0  0
   28.5254  -20.2384  -15.6551 C   0  0  0  0  0  0  0  0  0  0  0  0
   28.4505  -20.0883  -17.1505 C   0  0  0  0  0  0  0  0  0  0  0  0
   29.6388  -19.4324  -17.6455 N   0  0  0  0  0  0  0  0  0  0  0  0
   26.5567  -21.5113  -11.3962 C   0  0  0  0  0  0  0  0  0  0  0  0
   27.4303  -22.2752  -10.9561 O   0  0  0  0  0  0  0  0  0  0  0  0
   28.3381  -21.0321   -7.4595 C   0  0  0  0  0  0  0  0  0  0  0  0
   27.8486  -19.7494   -8.0833 C   0  0  2  0  0  0  0  0  0  0  0  0
   28.2790  -18.4995   -7.3903 C   0  0  0  0  0  0  0  0  0  0  0  0
   26.4233  -19.7428   -8.4355 C   0  0  0  0  0  0  0  0  0  0  0  0
   25.8058  -20.9319   -9.0723 C   0  0  2  0  0  0  0  0  0  0  0  0
   25.8583  -20.6464  -10.5207 N   0  0  0  0  0  0  0  0  0  0  0  0
   24.4116  -21.2239   -8.7522 C   0  0  0  0  0  0  0  0  0  0  0  0
   23.5092  -20.9047   -9.5824 O   0  0  0  0  0  0  0  0  0  0  0  0
   23.9485  -21.8408   -7.5919 O   0  0  0  0  0  0  0  0  0  0  0  0
  2  1  1  6
  2  7  1  0
  3  2  1  0
  4  3  1  0
  5  4  1  0
  5  9  1  0
  6  5  2  0
  7  8  2  0
 10  7  1  0
 10 11  1  0
 11 12  1  6
 13 14  1  0
 13 12  1  0
 14 15  1  0
 16 15  1  0
 17 11  1  0
 17 18  2  0
 20 19  1  1
 20 21  1  0
 20 22  1  0
 23 22  1  1
 23 24  1  0
 24 17  1  0
 25 27  1  0
 25 23  1  0
 26 25  2  0
M  END
$$$$
