EKL.pdb
     RDKit          3D

 27 26  0  0  1  0  0  0  0  0999 V2000
   14.3846  -22.7250   -2.8381 N   0  0  0  0  0  0  0  0  0  0  0  0
   13.5320  -22.8206   -1.6571 C   0  0  1  0  0  0  0  0  0  0  0  0
   13.6211  -24.2511   -1.1837 C   0  0  0  0  0  0  0  0  0  0  0  0
   15.0442  -24.6154   -0.7975 C   0  0  0  0  0  0  0  0  0  0  0  0
   15.1455  -26.0095   -0.3517 C   0  0  0  0  0  0  0  0  0  0  0  0
   14.3623  -26.4052    0.5724 O   0  0  0  0  0  0  0  0  0  0  0  0
   13.9959  -21.8385   -0.6720 C   0  0  0  0  0  0  0  0  0  0  0  0
   15.1565  -21.3178   -0.7512 O   0  0  0  0  0  0  0  0  0  0  0  0
   16.0411  -26.8987   -0.8803 O   0  0  0  0  0  0  0  0  0  0  0  0
   13.2101  -21.4003    0.4196 N   0  0  0  0  0  0  0  0  0  0  0  0
   13.6391  -20.2991    1.3053 C   0  0  1  0  0  0  0  0  0  0  0  0
   12.3836  -19.5840    1.6925 C   0  0  0  0  0  0  0  0  0  0  0  0
   11.9239  -18.5171    0.7663 C   0  0  0  0  0  0  0  0  0  0  0  0
   10.6865  -17.8631    1.3280 C   0  0  0  0  0  0  0  0  0  0  0  0
   10.1476  -16.7836    0.4288 C   0  0  0  0  0  0  0  0  0  0  0  0
    8.9440  -16.2190    0.9943 N   0  0  0  0  0  0  0  0  0  0  0  0
   14.2470  -20.8902    2.5391 C   0  0  0  0  0  0  0  0  0  0  0  0
   13.8400  -21.9806    2.9703 O   0  0  0  0  0  0  0  0  0  0  0  0
   16.9169  -23.6073    4.4717 C   0  0  0  0  0  0  0  0  0  0  0  0
   17.5286  -22.5445    3.5940 C   0  0  2  0  0  0  0  0  0  0  0  0
   18.9583  -22.7667    3.2273 C   0  0  0  0  0  0  0  0  0  0  0  0
   17.2580  -21.1658    4.0201 C   0  0  0  0  0  0  0  0  0  0  0  0
   15.8902  -20.7663    4.4324 C   0  0  2  0  0  0  0  0  0  0  0  0
   15.2846  -20.2003    3.2097 N   0  0  0  0  0  0  0  0  0  0  0  0
   15.7666  -19.7486    5.4719 C   0  0  0  0  0  0  0  0  0  0  0  0
   15.5878  -18.5407    5.1333 O   0  0  0  0  0  0  0  0  0  0  0  0
   15.8229  -19.9694    6.8465 O   0  0  0  0  0  0  0  0  0  0  0  0
  2  1  1  6
  2  7  1  0
  3  2  1  0
  4  3  1  0
  5  4  1  0
  5  9  1  0
  6  5  2  0
  7  8  2  0
 10  7  1  0
 10 11  1  0
 11 12  1  1
 13 14  1  0
 13 12  1  0
 14 15  1  0
 16 15  1  0
 17 11  1  0
 17 18  2  0
 20 19  1  1
 20 21  1  0
 20 22  1  0
 23 22  1  6
 23 24  1  0
 24 17  1  0
 25 27  1  0
 25 23  1  0
 26 25  2  0
M  END
$$$$
