IWH.pdb
     RDKit          3D

 33 35  0  0  1  0  0  0  0  0999 V2000
    7.6711  -12.0205   20.5368 C   0  0  0  0  0  0  0  0  0  0  0  0
    7.4776  -13.4335   21.0965 C   0  0  0  0  0  0  0  0  0  0  0  0
    8.4861  -14.3083   20.4218 C   0  0  2  0  0  0  0  0  0  0  0  0
    8.0381  -14.4386   18.9600 C   0  0  0  0  0  0  0  0  0  0  0  0
    8.5886  -15.6870   20.9839 C   0  0  2  0  0  0  0  0  0  0  0  0
    7.3552  -16.4278   20.9626 N   0  0  0  0  0  0  0  0  0  0  0  0
    9.1246  -15.7185   22.3592 C   0  0  0  0  0  0  0  0  0  0  0  0
   10.1889  -15.0842   22.6746 O   0  0  0  0  0  0  0  0  0  0  0  0
    8.5209  -16.4381   23.4257 N   0  0  0  0  0  0  0  0  0  0  0  0
    9.0254  -16.4986   24.7556 C   0  0  1  0  0  0  0  0  0  0  0  0
    7.9964  -16.5447   25.8393 C   0  0  0  0  0  0  0  0  0  0  0  0
    7.0646  -15.3888   25.7654 C   0  0  0  0  0  0  0  0  0  0  0  0
    5.7412  -15.4387   25.3029 C   0  0  0  0  0  0  0  0  0  0  0  0
    5.1994  -14.2169   25.4029 N   0  0  0  0  0  0  0  0  0  0  0  0
    6.1062  -13.3567   25.9115 C   0  0  0  0  0  0  0  0  0  0  0  0
    6.0008  -11.9912   26.1871 C   0  0  0  0  0  0  0  0  0  0  0  0
    7.0936  -11.3375   26.7037 C   0  0  0  0  0  0  0  0  0  0  0  0
    8.2457  -12.0579   26.9270 C   0  0  0  0  0  0  0  0  0  0  0  0
    8.3495  -13.4024   26.6559 C   0  0  0  0  0  0  0  0  0  0  0  0
    7.2544  -14.0749   26.1351 C   0  0  0  0  0  0  0  0  0  0  0  0
   10.0724  -17.5232   24.9438 C   0  0  0  0  0  0  0  0  0  0  0  0
    9.8072  -18.7333   24.8130 O   0  0  0  0  0  0  0  0  0  0  0  0
   11.3816  -17.1174   25.2746 N   0  0  0  0  0  0  0  0  0  0  0  0
   12.4105  -18.1176   25.5601 C   0  0  1  0  0  0  0  0  0  0  0  0
   13.7835  -17.5514   25.2964 C   0  0  0  0  0  0  0  0  0  0  0  0
   13.9820  -17.1036   23.9059 C   0  0  0  0  0  0  0  0  0  0  0  0
   13.2832  -17.4298   22.7649 C   0  0  0  0  0  0  0  0  0  0  0  0
   13.8426  -16.7845   21.7134 N   0  0  0  0  0  0  0  0  0  0  0  0
   14.8626  -16.0722   22.1691 C   0  0  0  0  0  0  0  0  0  0  0  0
   14.9623  -16.2534   23.4961 N   0  0  0  0  0  0  0  0  0  0  0  0
   12.3237  -18.4998   26.9890 C   0  0  0  0  0  0  0  0  0  0  0  0
   11.4262  -17.9847   27.8881 O   0  0  0  0  0  0  0  0  0  0  0  0
   13.1319  -19.3730   27.4582 O   0  0  0  0  0  0  0  0  0  0  0  0
  2  1  1  0
  3  2  1  0
  3  4  1  6
  5  3  1  0
  5  6  1  1
  7  5  1  0
  7  8  2  0
  9  7  1  0
 10  9  1  0
 11 12  1  0
 10 11  1  1
 12 20  1  0
 13 12  2  0
 13 14  1  0
 14 15  1  0
 15 16  1  0
 16 17  2  0
 18 17  1  0
 19 18  2  0
 20 15  2  0
 20 19  1  0
 21 23  1  0
 21 10  1  0
 22 21  2  0
 24 23  1  0
 24 25  1  1
 25 26  1  0
 26 27  2  0
 27 28  1  0
 29 28  1  0
 30 26  1  0
 30 29  2  0
 31 24  1  0
 32 31  1  0
 33 31  2  0
M  END
$$$$
