IWH.pdb
     RDKit          3D

 33 35  0  0  1  0  0  0  0  0999 V2000
    7.2072  -12.2043   17.0954 C   0  0  0  0  0  0  0  0  0  0  0  0
    7.8817  -13.5536   17.3629 C   0  0  0  0  0  0  0  0  0  0  0  0
    8.0030  -13.6902   18.8475 C   0  0  2  0  0  0  0  0  0  0  0  0
    8.9161  -12.5489   19.3147 C   0  0  0  0  0  0  0  0  0  0  0  0
    8.6161  -14.9713   19.3062 C   0  0  2  0  0  0  0  0  0  0  0  0
    7.9241  -16.1515   18.8599 N   0  0  0  0  0  0  0  0  0  0  0  0
    8.7724  -15.0520   20.7720 C   0  0  0  0  0  0  0  0  0  0  0  0
    9.8333  -14.6381   21.3530 O   0  0  0  0  0  0  0  0  0  0  0  0
    7.7835  -15.5833   21.6435 N   0  0  0  0  0  0  0  0  0  0  0  0
    7.9181  -15.6941   23.0564 C   0  0  1  0  0  0  0  0  0  0  0  0
    6.6389  -15.7504   23.8284 C   0  0  0  0  0  0  0  0  0  0  0  0
    6.8428  -15.4077   25.2605 C   0  0  0  0  0  0  0  0  0  0  0  0
    6.9510  -16.3313   26.3108 C   0  0  0  0  0  0  0  0  0  0  0  0
    7.1528  -15.6653   27.4563 N   0  0  0  0  0  0  0  0  0  0  0  0
    7.1829  -14.3384   27.2125 C   0  0  0  0  0  0  0  0  0  0  0  0
    7.3592  -13.2630   28.0866 C   0  0  0  0  0  0  0  0  0  0  0  0
    7.3403  -11.9880   27.5741 C   0  0  0  0  0  0  0  0  0  0  0  0
    7.1479  -11.8264   26.2202 C   0  0  0  0  0  0  0  0  0  0  0  0
    6.9745  -12.8853   25.3595 C   0  0  0  0  0  0  0  0  0  0  0  0
    6.9921  -14.1772   25.8628 C   0  0  0  0  0  0  0  0  0  0  0  0
    8.8649  -16.7461   23.4786 C   0  0  0  0  0  0  0  0  0  0  0  0
    8.7340  -17.9173   23.0748 O   0  0  0  0  0  0  0  0  0  0  0  0
    9.9239  -16.4113   24.3473 N   0  0  0  0  0  0  0  0  0  0  0  0
   10.9991  -17.3711   24.5986 C   0  0  1  0  0  0  0  0  0  0  0  0
   12.3187  -16.8228   24.1158 C   0  0  0  0  0  0  0  0  0  0  0  0
   13.4427  -17.7643   24.2695 C   0  0  0  0  0  0  0  0  0  0  0  0
   13.4608  -19.0410   24.7856 C   0  0  0  0  0  0  0  0  0  0  0  0
   14.7302  -19.5113   24.7371 N   0  0  0  0  0  0  0  0  0  0  0  0
   15.4941  -18.5664   24.2087 C   0  0  0  0  0  0  0  0  0  0  0  0
   14.7307  -17.5001   23.9191 N   0  0  0  0  0  0  0  0  0  0  0  0
   11.0937  -17.6134   26.0573 C   0  0  0  0  0  0  0  0  0  0  0  0
   11.6970  -18.6993   26.6370 O   0  0  0  0  0  0  0  0  0  0  0  0
   10.5843  -16.7683   26.8711 O   0  0  0  0  0  0  0  0  0  0  0  0
  2  1  1  0
  3  2  1  0
  3  4  1  6
  5  3  1  0
  5  6  1  1
  7  5  1  0
  7  8  2  0
  9  7  1  0
 10  9  1  0
 11 12  1  0
 10 11  1  1
 12 20  1  0
 13 12  2  0
 13 14  1  0
 14 15  1  0
 15 16  1  0
 16 17  2  0
 18 17  1  0
 19 18  2  0
 20 15  2  0
 20 19  1  0
 21 23  1  0
 21 10  1  0
 22 21  2  0
 24 23  1  0
 24 25  1  1
 25 26  1  0
 26 27  2  0
 27 28  1  0
 29 28  1  0
 30 26  1  0
 30 29  2  0
 31 24  1  0
 32 31  1  0
 33 31  2  0
M  END
$$$$
