IWH.pdb
     RDKit          3D

 33 35  0  0  1  0  0  0  0  0999 V2000
    7.0799  -12.3979   19.3642 C   0  0  0  0  0  0  0  0  0  0  0  0
    7.1642  -13.9077   19.6104 C   0  0  0  0  0  0  0  0  0  0  0  0
    8.0858  -14.1063   20.7717 C   0  0  2  0  0  0  0  0  0  0  0  0
    9.4595  -13.5853   20.3290 C   0  0  0  0  0  0  0  0  0  0  0  0
    8.2595  -15.5278   21.1918 C   0  0  2  0  0  0  0  0  0  0  0  0
    7.0364  -16.2843   21.2394 N   0  0  0  0  0  0  0  0  0  0  0  0
    8.9453  -15.6730   22.4911 C   0  0  0  0  0  0  0  0  0  0  0  0
   10.0507  -15.0774   22.7317 O   0  0  0  0  0  0  0  0  0  0  0  0
    8.4505  -16.4672   23.5608 N   0  0  0  0  0  0  0  0  0  0  0  0
    9.0852  -16.6151   24.8265 C   0  0  1  0  0  0  0  0  0  0  0  0
    8.1919  -16.4936   26.0193 C   0  0  0  0  0  0  0  0  0  0  0  0
    7.2775  -15.3269   25.9078 C   0  0  0  0  0  0  0  0  0  0  0  0
    5.9426  -15.3773   25.4799 C   0  0  0  0  0  0  0  0  0  0  0  0
    5.4233  -14.1427   25.5293 N   0  0  0  0  0  0  0  0  0  0  0  0
    6.3561  -13.2735   25.9713 C   0  0  0  0  0  0  0  0  0  0  0  0
    6.2797  -11.8941   26.1783 C   0  0  0  0  0  0  0  0  0  0  0  0
    7.3954  -11.2339   26.6345 C   0  0  0  0  0  0  0  0  0  0  0  0
    8.5408  -11.9619   26.8674 C   0  0  0  0  0  0  0  0  0  0  0  0
    8.6160  -13.3203   26.6638 C   0  0  0  0  0  0  0  0  0  0  0  0
    7.4977  -13.9993   26.2044 C   0  0  0  0  0  0  0  0  0  0  0  0
    9.9630  -17.7998   24.9119 C   0  0  0  0  0  0  0  0  0  0  0  0
    9.4855  -18.9490   24.8561 O   0  0  0  0  0  0  0  0  0  0  0  0
   11.3535  -17.6176   25.0580 N   0  0  0  0  0  0  0  0  0  0  0  0
   12.2284  -18.7726   25.2602 C   0  0  1  0  0  0  0  0  0  0  0  0
   13.6227  -18.4698   24.7710 C   0  0  0  0  0  0  0  0  0  0  0  0
   13.6578  -17.8224   23.4469 C   0  0  0  0  0  0  0  0  0  0  0  0
   13.1208  -18.2350   22.2478 C   0  0  0  0  0  0  0  0  0  0  0  0
   13.4240  -17.3184   21.2976 N   0  0  0  0  0  0  0  0  0  0  0  0
   14.1301  -16.3556   21.8719 C   0  0  0  0  0  0  0  0  0  0  0  0
   14.2818  -16.6442   23.1747 N   0  0  0  0  0  0  0  0  0  0  0  0
   12.2920  -19.0776   26.7088 C   0  0  0  0  0  0  0  0  0  0  0  0
   11.6478  -18.3705   27.6907 O   0  0  0  0  0  0  0  0  0  0  0  0
   12.9926  -20.0678   27.1143 O   0  0  0  0  0  0  0  0  0  0  0  0
  2  1  1  0
  3  2  1  0
  3  4  1  6
  5  3  1  0
  5  6  1  1
  7  5  1  0
  7  8  2  0
  9  7  1  0
 10  9  1  0
 11 12  1  0
 10 11  1  1
 12 20  1  0
 13 12  2  0
 13 14  1  0
 14 15  1  0
 15 16  1  0
 16 17  2  0
 18 17  1  0
 19 18  2  0
 20 15  2  0
 20 19  1  0
 21 23  1  0
 21 10  1  0
 22 21  2  0
 24 23  1  0
 24 25  1  1
 25 26  1  0
 26 27  2  0
 27 28  1  0
 29 28  1  0
 30 26  1  0
 30 29  2  0
 31 24  1  0
 32 31  1  0
 33 31  2  0
M  END
$$$$
