IWH.pdb
     RDKit          3D

 33 35  0  0  1  0  0  0  0  0999 V2000
    8.5480  -15.3436   17.0435 C   0  0  0  0  0  0  0  0  0  0  0  0
    7.4861  -15.2152   18.1403 C   0  0  0  0  0  0  0  0  0  0  0  0
    8.2179  -15.0703   19.4367 C   0  0  2  0  0  0  0  0  0  0  0  0
    9.1099  -16.3115   19.5721 C   0  0  0  0  0  0  0  0  0  0  0  0
    7.3410  -15.0146   20.6431 C   0  0  2  0  0  0  0  0  0  0  0  0
    6.4008  -13.9253   20.6413 N   0  0  0  0  0  0  0  0  0  0  0  0
    8.0950  -14.9742   21.9117 C   0  0  0  0  0  0  0  0  0  0  0  0
    8.6731  -13.9056   22.3098 O   0  0  0  0  0  0  0  0  0  0  0  0
    8.2414  -16.0902   22.7793 N   0  0  0  0  0  0  0  0  0  0  0  0
    9.0328  -16.1035   23.9626 C   0  0  1  0  0  0  0  0  0  0  0  0
    8.2873  -16.3191   25.2405 C   0  0  0  0  0  0  0  0  0  0  0  0
    7.2289  -15.2948   25.4418 C   0  0  0  0  0  0  0  0  0  0  0  0
    5.8818  -15.4339   25.0763 C   0  0  0  0  0  0  0  0  0  0  0  0
    5.2183  -14.3247   25.4313 N   0  0  0  0  0  0  0  0  0  0  0  0
    6.0669  -13.4540   26.0167 C   0  0  0  0  0  0  0  0  0  0  0  0
    5.8355  -12.1785   26.5375 C   0  0  0  0  0  0  0  0  0  0  0  0
    6.8920  -11.4875   27.0804 C   0  0  0  0  0  0  0  0  0  0  0  0
    8.1336  -12.0831   27.0869 C   0  0  0  0  0  0  0  0  0  0  0  0
    8.3614  -13.3391   26.5743 C   0  0  0  0  0  0  0  0  0  0  0  0
    7.3043  -14.0480   26.0241 C   0  0  0  0  0  0  0  0  0  0  0  0
   10.2251  -16.9697   23.8656 C   0  0  0  0  0  0  0  0  0  0  0  0
   10.1052  -18.1990   23.7031 O   0  0  0  0  0  0  0  0  0  0  0  0
   11.5071  -16.3901   23.9591 N   0  0  0  0  0  0  0  0  0  0  0  0
   12.6921  -17.2414   24.0657 C   0  0  1  0  0  0  0  0  0  0  0  0
   13.8672  -16.5984   23.3722 C   0  0  0  0  0  0  0  0  0  0  0  0
   13.6158  -16.2793   21.9550 C   0  0  0  0  0  0  0  0  0  0  0  0
   13.0896  -17.0641   20.9531 C   0  0  0  0  0  0  0  0  0  0  0  0
   13.0643  -16.3447   19.8056 N   0  0  0  0  0  0  0  0  0  0  0  0
   13.5578  -15.1434   20.0678 C   0  0  0  0  0  0  0  0  0  0  0  0
   13.8975  -15.0855   21.3658 N   0  0  0  0  0  0  0  0  0  0  0  0
   13.0279  -17.4179   25.4980 C   0  0  0  0  0  0  0  0  0  0  0  0
   12.3237  -16.8790   26.5434 O   0  0  0  0  0  0  0  0  0  0  0  0
   14.0465  -18.1189   25.8250 O   0  0  0  0  0  0  0  0  0  0  0  0
  2  1  1  0
  3  2  1  0
  3  4  1  1
  5  3  1  0
  5  6  1  6
  7  5  1  0
  7  8  2  0
  9  7  1  0
 10  9  1  0
 11 12  1  0
 10 11  1  1
 12 20  1  0
 13 12  2  0
 13 14  1  0
 14 15  1  0
 15 16  1  0
 16 17  2  0
 18 17  1  0
 19 18  2  0
 20 15  2  0
 20 19  1  0
 21 23  1  0
 21 10  1  0
 22 21  2  0
 24 23  1  0
 24 25  1  6
 25 26  1  0
 26 27  2  0
 27 28  1  0
 29 28  1  0
 30 26  1  0
 30 29  2  0
 31 24  1  0
 32 31  1  0
 33 31  2  0
M  END
$$$$
