IWH.pdb
     RDKit          3D

 33 35  0  0  1  0  0  0  0  0999 V2000
    6.8331  -12.4855   19.1604 C   0  0  0  0  0  0  0  0  0  0  0  0
    7.0590  -13.9768   19.4290 C   0  0  0  0  0  0  0  0  0  0  0  0
    7.7877  -14.0767   20.7315 C   0  0  2  0  0  0  0  0  0  0  0  0
    9.1064  -13.3133   20.5500 C   0  0  0  0  0  0  0  0  0  0  0  0
    8.1290  -15.4685   21.1481 C   0  0  2  0  0  0  0  0  0  0  0  0
    6.9924  -16.3401   21.2868 N   0  0  0  0  0  0  0  0  0  0  0  0
    8.9141  -15.5283   22.3969 C   0  0  0  0  0  0  0  0  0  0  0  0
    9.9928  -14.8569   22.5390 O   0  0  0  0  0  0  0  0  0  0  0  0
    8.5500  -16.3171   23.5216 N   0  0  0  0  0  0  0  0  0  0  0  0
    9.2806  -16.3817   24.7418 C   0  0  1  0  0  0  0  0  0  0  0  0
    8.4608  -16.3587   25.9919 C   0  0  0  0  0  0  0  0  0  0  0  0
    7.3757  -15.3450   25.9220 C   0  0  0  0  0  0  0  0  0  0  0  0
    6.0427  -15.6028   25.5693 C   0  0  0  0  0  0  0  0  0  0  0  0
    5.3461  -14.4598   25.6376 N   0  0  0  0  0  0  0  0  0  0  0  0
    6.1591  -13.4530   26.0201 C   0  0  0  0  0  0  0  0  0  0  0  0
    5.8861  -12.0976   26.2200 C   0  0  0  0  0  0  0  0  0  0  0  0
    6.9120  -11.2697   26.6083 C   0  0  0  0  0  0  0  0  0  0  0  0
    8.1651  -11.8130   26.7831 C   0  0  0  0  0  0  0  0  0  0  0  0
    8.4339  -13.1477   26.5864 C   0  0  0  0  0  0  0  0  0  0  0  0
    7.4081  -13.9947   26.1953 C   0  0  0  0  0  0  0  0  0  0  0  0
   10.2954  -17.4545   24.7662 C   0  0  0  0  0  0  0  0  0  0  0  0
   10.0381  -18.5824   24.3041 O   0  0  0  0  0  0  0  0  0  0  0  0
   11.5647  -17.1895   25.3201 N   0  0  0  0  0  0  0  0  0  0  0  0
   12.5677  -18.2516   25.3996 C   0  0  1  0  0  0  0  0  0  0  0  0
   13.9531  -17.6829   25.2194 C   0  0  0  0  0  0  0  0  0  0  0  0
   14.1720  -17.0650   23.8988 C   0  0  0  0  0  0  0  0  0  0  0  0
   13.3971  -17.1144   22.7614 C   0  0  0  0  0  0  0  0  0  0  0  0
   14.0127  -16.4053   21.7851 N   0  0  0  0  0  0  0  0  0  0  0  0
   15.1409  -15.9214   22.2836 C   0  0  0  0  0  0  0  0  0  0  0  0
   15.2542  -16.3112   23.5638 N   0  0  0  0  0  0  0  0  0  0  0  0
   12.4880  -18.8866   26.7360 C   0  0  0  0  0  0  0  0  0  0  0  0
   13.2597  -19.9398   27.1538 O   0  0  0  0  0  0  0  0  0  0  0  0
   11.6461  -18.4480   27.5931 O   0  0  0  0  0  0  0  0  0  0  0  0
  2  1  1  0
  3  2  1  0
  3  4  1  6
  5  3  1  0
  5  6  1  1
  7  5  1  0
  7  8  2  0
  9  7  1  0
 10  9  1  0
 11 12  1  0
 10 11  1  1
 12 20  1  0
 13 12  2  0
 13 14  1  0
 14 15  1  0
 15 16  1  0
 16 17  2  0
 18 17  1  0
 19 18  2  0
 20 15  2  0
 20 19  1  0
 21 23  1  0
 21 10  1  0
 22 21  2  0
 24 23  1  0
 24 25  1  1
 25 26  1  0
 26 27  2  0
 27 28  1  0
 29 28  1  0
 30 26  1  0
 30 29  2  0
 31 24  1  0
 32 31  1  0
 33 31  2  0
M  END
$$$$
