IWH.pdb
     RDKit          3D

 33 35  0  0  1  0  0  0  0  0999 V2000
    6.6062  -12.4777   18.6392 C   0  0  0  0  0  0  0  0  0  0  0  0
    7.1003  -13.9074   18.8824 C   0  0  0  0  0  0  0  0  0  0  0  0
    7.8116  -13.9017   20.1982 C   0  0  2  0  0  0  0  0  0  0  0  0
    9.0167  -12.9658   20.0354 C   0  0  0  0  0  0  0  0  0  0  0  0
    8.3323  -15.2322   20.6295 C   0  0  2  0  0  0  0  0  0  0  0  0
    7.3212  -16.2467   20.7675 N   0  0  0  0  0  0  0  0  0  0  0  0
    9.1077  -15.1769   21.8845 C   0  0  0  0  0  0  0  0  0  0  0  0
   10.1304  -14.4189   22.0034 O   0  0  0  0  0  0  0  0  0  0  0  0
    8.7944  -15.9415   23.0408 N   0  0  0  0  0  0  0  0  0  0  0  0
    9.5821  -15.9859   24.2258 C   0  0  1  0  0  0  0  0  0  0  0  0
    8.8386  -16.2791   25.4894 C   0  0  0  0  0  0  0  0  0  0  0  0
    7.6686  -15.3787   25.6633 C   0  0  0  0  0  0  0  0  0  0  0  0
    6.3320  -15.7241   25.4145 C   0  0  0  0  0  0  0  0  0  0  0  0
    5.5507  -14.6740   25.7029 N   0  0  0  0  0  0  0  0  0  0  0  0
    6.3108  -13.6450   26.1322 C   0  0  0  0  0  0  0  0  0  0  0  0
    5.9452  -12.3586   26.5361 C   0  0  0  0  0  0  0  0  0  0  0  0
    6.9322  -11.4855   26.9261 C   0  0  0  0  0  0  0  0  0  0  0  0
    8.2395  -11.9174   26.9013 C   0  0  0  0  0  0  0  0  0  0  0  0
    8.5995  -13.1841   26.5038 C   0  0  0  0  0  0  0  0  0  0  0  0
    7.6139  -14.0757   26.1084 C   0  0  0  0  0  0  0  0  0  0  0  0
   10.7983  -16.8136   24.0956 C   0  0  0  0  0  0  0  0  0  0  0  0
   10.7251  -18.0571   24.1155 O   0  0  0  0  0  0  0  0  0  0  0  0
   12.0496  -16.1807   23.9478 N   0  0  0  0  0  0  0  0  0  0  0  0
   13.2566  -16.9801   23.7368 C   0  0  1  0  0  0  0  0  0  0  0  0
   14.3872  -16.1089   23.2488 C   0  0  0  0  0  0  0  0  0  0  0  0
   15.6316  -16.8513   22.9771 C   0  0  0  0  0  0  0  0  0  0  0  0
   15.8850  -18.2034   23.0411 C   0  0  0  0  0  0  0  0  0  0  0  0
   17.1835  -18.4178   22.7202 N   0  0  0  0  0  0  0  0  0  0  0  0
   17.7378  -17.2426   22.4613 C   0  0  0  0  0  0  0  0  0  0  0  0
   16.8121  -16.2814   22.6120 N   0  0  0  0  0  0  0  0  0  0  0  0
   13.6558  -17.5942   25.0249 C   0  0  0  0  0  0  0  0  0  0  0  0
   14.2332  -18.8298   25.1619 O   0  0  0  0  0  0  0  0  0  0  0  0
   13.4618  -16.9542   26.1152 O   0  0  0  0  0  0  0  0  0  0  0  0
  2  1  1  0
  3  2  1  0
  3  4  1  6
  5  3  1  0
  5  6  1  1
  7  5  1  0
  7  8  2  0
  9  7  1  0
 10  9  1  0
 11 12  1  0
 10 11  1  1
 12 20  1  0
 13 12  2  0
 13 14  1  0
 14 15  1  0
 15 16  1  0
 16 17  2  0
 18 17  1  0
 19 18  2  0
 20 15  2  0
 20 19  1  0
 21 23  1  0
 21 10  1  0
 22 21  2  0
 24 23  1  0
 24 25  1  1
 25 26  1  0
 26 27  2  0
 27 28  1  0
 29 28  1  0
 30 26  1  0
 30 29  2  0
 31 24  1  0
 32 31  1  0
 33 31  2  0
M  END
$$$$
