IWH.pdb
     RDKit          3D

 33 35  0  0  1  0  0  0  0  0999 V2000
    6.8601  -12.4912   19.1784 C   0  0  0  0  0  0  0  0  0  0  0  0
    7.1031  -13.9850   19.4164 C   0  0  0  0  0  0  0  0  0  0  0  0
    7.7715  -14.1081   20.7488 C   0  0  2  0  0  0  0  0  0  0  0  0
    9.0751  -13.3040   20.6558 C   0  0  0  0  0  0  0  0  0  0  0  0
    8.1321  -15.5033   21.1373 C   0  0  2  0  0  0  0  0  0  0  0  0
    7.0212  -16.4177   21.1571 N   0  0  0  0  0  0  0  0  0  0  0  0
    8.8244  -15.5866   22.4385 C   0  0  0  0  0  0  0  0  0  0  0  0
    9.8701  -14.8929   22.6829 O   0  0  0  0  0  0  0  0  0  0  0  0
    8.4011  -16.4238   23.5060 N   0  0  0  0  0  0  0  0  0  0  0  0
    9.0777  -16.5606   24.7511 C   0  0  1  0  0  0  0  0  0  0  0  0
    8.2107  -16.5277   25.9687 C   0  0  0  0  0  0  0  0  0  0  0  0
    7.2684  -15.3781   25.9446 C   0  0  0  0  0  0  0  0  0  0  0  0
    5.9066  -15.4490   25.6156 C   0  0  0  0  0  0  0  0  0  0  0  0
    5.3690  -14.2260   25.7239 N   0  0  0  0  0  0  0  0  0  0  0  0
    6.3153  -13.3451   26.1103 C   0  0  0  0  0  0  0  0  0  0  0  0
    6.2282  -11.9707   26.3455 C   0  0  0  0  0  0  0  0  0  0  0  0
    7.3618  -11.2952   26.7291 C   0  0  0  0  0  0  0  0  0  0  0  0
    8.5350  -12.0034   26.8646 C   0  0  0  0  0  0  0  0  0  0  0  0
    8.6208  -13.3566   26.6333 C   0  0  0  0  0  0  0  0  0  0  0  0
    7.4846  -14.0510   26.2464 C   0  0  0  0  0  0  0  0  0  0  0  0
   10.0329  -17.6867   24.7833 C   0  0  0  0  0  0  0  0  0  0  0  0
    9.6582  -18.8448   24.5182 O   0  0  0  0  0  0  0  0  0  0  0  0
   11.3797  -17.4380   25.1185 N   0  0  0  0  0  0  0  0  0  0  0  0
   12.3281  -18.5473   25.2202 C   0  0  1  0  0  0  0  0  0  0  0  0
   13.6923  -18.1203   24.7386 C   0  0  0  0  0  0  0  0  0  0  0  0
   13.6928  -17.5767   23.3683 C   0  0  0  0  0  0  0  0  0  0  0  0
   12.9650  -17.9631   22.2648 C   0  0  0  0  0  0  0  0  0  0  0  0
   13.3150  -17.1790   21.2171 N   0  0  0  0  0  0  0  0  0  0  0  0
   14.2343  -16.3231   21.6389 C   0  0  0  0  0  0  0  0  0  0  0  0
   14.4758  -16.5494   22.9405 N   0  0  0  0  0  0  0  0  0  0  0  0
   12.4355  -18.9571   26.6401 C   0  0  0  0  0  0  0  0  0  0  0  0
   13.2290  -19.9722   27.1081 O   0  0  0  0  0  0  0  0  0  0  0  0
   11.7498  -18.3419   27.5274 O   0  0  0  0  0  0  0  0  0  0  0  0
  2  1  1  0
  3  2  1  0
  3  4  1  6
  5  3  1  0
  5  6  1  1
  7  5  1  0
  7  8  2  0
  9  7  1  0
 10  9  1  0
 11 12  1  0
 10 11  1  1
 12 20  1  0
 13 12  2  0
 13 14  1  0
 14 15  1  0
 15 16  1  0
 16 17  2  0
 18 17  1  0
 19 18  2  0
 20 15  2  0
 20 19  1  0
 21 23  1  0
 21 10  1  0
 22 21  2  0
 24 23  1  0
 24 25  1  1
 25 26  1  0
 26 27  2  0
 27 28  1  0
 29 28  1  0
 30 26  1  0
 30 29  2  0
 31 24  1  0
 32 31  1  0
 33 31  2  0
M  END
$$$$
