IWH.pdb
     RDKit          3D

 33 35  0  0  1  0  0  0  0  0999 V2000
    7.0802  -18.6405   17.8656 C   0  0  0  0  0  0  0  0  0  0  0  0
    6.6723  -17.3392   18.5638 C   0  0  0  0  0  0  0  0  0  0  0  0
    7.5288  -17.2156   19.7838 C   0  0  2  0  0  0  0  0  0  0  0  0
    7.3283  -18.5075   20.5870 C   0  0  0  0  0  0  0  0  0  0  0  0
    7.1773  -16.0730   20.6774 C   0  0  2  0  0  0  0  0  0  0  0  0
    7.1756  -14.7904   20.0249 N   0  0  0  0  0  0  0  0  0  0  0  0
    8.0357  -15.9828   21.8750 C   0  0  0  0  0  0  0  0  0  0  0  0
    9.0942  -15.2657   21.8841 O   0  0  0  0  0  0  0  0  0  0  0  0
    7.7687  -16.6674   23.0915 N   0  0  0  0  0  0  0  0  0  0  0  0
    8.5631  -16.5750   24.2693 C   0  0  1  0  0  0  0  0  0  0  0  0
    7.8083  -16.5019   25.5578 C   0  0  0  0  0  0  0  0  0  0  0  0
    7.0068  -15.2539   25.6582 C   0  0  0  0  0  0  0  0  0  0  0  0
    5.6167  -15.1641   25.4931 C   0  0  0  0  0  0  0  0  0  0  0  0
    5.2383  -13.8916   25.6775 N   0  0  0  0  0  0  0  0  0  0  0  0
    6.3175  -13.1315   25.9576 C   0  0  0  0  0  0  0  0  0  0  0  0
    6.4156  -11.7621   26.2158 C   0  0  0  0  0  0  0  0  0  0  0  0
    7.6559  -11.2270   26.4687 C   0  0  0  0  0  0  0  0  0  0  0  0
    8.7486  -12.0649   26.4561 C   0  0  0  0  0  0  0  0  0  0  0  0
    8.6520  -13.4134   26.2020 C   0  0  0  0  0  0  0  0  0  0  0  0
    7.4067  -13.9669   25.9460 C   0  0  0  0  0  0  0  0  0  0  0  0
    9.6552  -17.5677   24.3242 C   0  0  0  0  0  0  0  0  0  0  0  0
    9.4045  -18.7803   24.4611 O   0  0  0  0  0  0  0  0  0  0  0  0
   10.9910  -17.1287   24.2198 N   0  0  0  0  0  0  0  0  0  0  0  0
   12.0863  -18.0984   24.2374 C   0  0  1  0  0  0  0  0  0  0  0  0
   13.3632  -17.4602   23.7499 C   0  0  0  0  0  0  0  0  0  0  0  0
   14.5254  -18.3670   23.7756 C   0  0  0  0  0  0  0  0  0  0  0  0
   14.6214  -19.6670   24.2199 C   0  0  0  0  0  0  0  0  0  0  0  0
   15.8990  -20.0877   24.0594 N   0  0  0  0  0  0  0  0  0  0  0  0
   16.5925  -19.0899   23.5315 C   0  0  0  0  0  0  0  0  0  0  0  0
   15.7763  -18.0385   23.3526 N   0  0  0  0  0  0  0  0  0  0  0  0
   12.2923  -18.5633   25.6291 C   0  0  0  0  0  0  0  0  0  0  0  0
   11.5958  -18.1125   26.7204 O   0  0  0  0  0  0  0  0  0  0  0  0
   13.1799  -19.4515   25.8722 O   0  0  0  0  0  0  0  0  0  0  0  0
  2  1  1  0
  3  2  1  0
  3  4  1  1
  5  3  1  0
  5  6  1  6
  7  5  1  0
  7  8  2  0
  9  7  1  0
 10  9  1  0
 11 12  1  0
 10 11  1  1
 12 20  1  0
 13 12  2  0
 13 14  1  0
 14 15  1  0
 15 16  1  0
 16 17  2  0
 18 17  1  0
 19 18  2  0
 20 15  2  0
 20 19  1  0
 21 23  1  0
 21 10  1  0
 22 21  2  0
 24 23  1  0
 24 25  1  1
 25 26  1  0
 26 27  2  0
 27 28  1  0
 29 28  1  0
 30 26  1  0
 30 29  2  0
 31 24  1  0
 32 31  1  0
 33 31  2  0
M  END
$$$$
