IWH.pdb
     RDKit          3D

 33 35  0  0  1  0  0  0  0  0999 V2000
    6.4921  -12.3002   18.9001 C   0  0  0  0  0  0  0  0  0  0  0  0
    6.9480  -13.7592   19.0033 C   0  0  0  0  0  0  0  0  0  0  0  0
    7.6837  -13.8923   20.2988 C   0  0  2  0  0  0  0  0  0  0  0  0
    8.9393  -13.0188   20.1761 C   0  0  0  0  0  0  0  0  0  0  0  0
    8.1320  -15.2792   20.6198 C   0  0  2  0  0  0  0  0  0  0  0  0
    7.0700  -16.2493   20.6623 N   0  0  0  0  0  0  0  0  0  0  0  0
    8.8931  -15.3695   21.8816 C   0  0  0  0  0  0  0  0  0  0  0  0
    9.9752  -14.7113   22.0560 O   0  0  0  0  0  0  0  0  0  0  0  0
    8.5006  -16.1752   22.9846 N   0  0  0  0  0  0  0  0  0  0  0  0
    9.2131  -16.2771   24.2129 C   0  0  1  0  0  0  0  0  0  0  0  0
    8.3759  -16.4828   25.4344 C   0  0  0  0  0  0  0  0  0  0  0  0
    7.3527  -15.4155   25.5887 C   0  0  0  0  0  0  0  0  0  0  0  0
    5.9722  -15.5783   25.4004 C   0  0  0  0  0  0  0  0  0  0  0  0
    5.3591  -14.4126   25.6486 N   0  0  0  0  0  0  0  0  0  0  0  0
    6.2731  -13.4816   25.9933 C   0  0  0  0  0  0  0  0  0  0  0  0
    6.1090  -12.1358   26.3304 C   0  0  0  0  0  0  0  0  0  0  0  0
    7.2237  -11.3936   26.6385 C   0  0  0  0  0  0  0  0  0  0  0  0
    8.4548  -12.0095   26.6009 C   0  0  0  0  0  0  0  0  0  0  0  0
    8.6164  -13.3346   26.2691 C   0  0  0  0  0  0  0  0  0  0  0  0
    7.5001  -14.0957   25.9568 C   0  0  0  0  0  0  0  0  0  0  0  0
   10.3517  -17.2163   24.1588 C   0  0  0  0  0  0  0  0  0  0  0  0
   10.1652  -18.4279   23.9369 O   0  0  0  0  0  0  0  0  0  0  0  0
   11.6584  -16.7270   24.3616 N   0  0  0  0  0  0  0  0  0  0  0  0
   12.8028  -17.6354   24.2861 C   0  0  1  0  0  0  0  0  0  0  0  0
   14.0682  -16.8663   23.9988 C   0  0  0  0  0  0  0  0  0  0  0  0
   15.2814  -17.7038   23.9932 C   0  0  0  0  0  0  0  0  0  0  0  0
   15.6233  -18.7682   24.7975 C   0  0  0  0  0  0  0  0  0  0  0  0
   16.8485  -19.2143   24.4303 N   0  0  0  0  0  0  0  0  0  0  0  0
   17.2723  -18.4596   23.4271 C   0  0  0  0  0  0  0  0  0  0  0  0
   16.3354  -17.5386   23.1486 N   0  0  0  0  0  0  0  0  0  0  0  0
   12.9544  -18.3243   25.5891 C   0  0  0  0  0  0  0  0  0  0  0  0
   13.5357  -19.5530   25.7664 O   0  0  0  0  0  0  0  0  0  0  0  0
   12.5211  -17.7626   26.6533 O   0  0  0  0  0  0  0  0  0  0  0  0
  2  1  1  0
  3  2  1  0
  3  4  1  6
  5  3  1  0
  5  6  1  1
  7  5  1  0
  7  8  2  0
  9  7  1  0
 10  9  1  0
 11 12  1  0
 10 11  1  1
 12 20  1  0
 13 12  2  0
 13 14  1  0
 14 15  1  0
 15 16  1  0
 16 17  2  0
 18 17  1  0
 19 18  2  0
 20 15  2  0
 20 19  1  0
 21 23  1  0
 21 10  1  0
 22 21  2  0
 24 23  1  0
 24 25  1  1
 25 26  1  0
 26 27  2  0
 27 28  1  0
 29 28  1  0
 30 26  1  0
 30 29  2  0
 31 24  1  0
 32 31  1  0
 33 31  2  0
M  END
$$$$
