IWH.pdb
     RDKit          3D

 33 35  0  0  1  0  0  0  0  0999 V2000
   11.9131  -17.8862   17.7921 C   0  0  0  0  0  0  0  0  0  0  0  0
   10.7913  -16.9049   18.1467 C   0  0  0  0  0  0  0  0  0  0  0  0
   10.9002  -16.6346   19.6138 C   0  0  2  0  0  0  0  0  0  0  0  0
   10.8575  -18.0010   20.3107 C   0  0  0  0  0  0  0  0  0  0  0  0
    9.7924  -15.8088   20.1780 C   0  0  2  0  0  0  0  0  0  0  0  0
    9.6075  -14.5405   19.5236 N   0  0  0  0  0  0  0  0  0  0  0  0
    9.9246  -15.5671   21.6284 C   0  0  0  0  0  0  0  0  0  0  0  0
   10.6628  -14.6275   22.0832 O   0  0  0  0  0  0  0  0  0  0  0  0
    9.2607  -16.3376   22.6211 N   0  0  0  0  0  0  0  0  0  0  0  0
    9.3768  -16.1311   24.0248 C   0  0  1  0  0  0  0  0  0  0  0  0
    8.0960  -16.1693   24.7953 C   0  0  0  0  0  0  0  0  0  0  0  0
    7.3421  -14.8936   24.6766 C   0  0  0  0  0  0  0  0  0  0  0  0
    6.3658  -14.6123   23.7095 C   0  0  0  0  0  0  0  0  0  0  0  0
    5.8848  -13.3796   23.9230 N   0  0  0  0  0  0  0  0  0  0  0  0
    6.5000  -12.8292   24.9905 C   0  0  0  0  0  0  0  0  0  0  0  0
    6.3356  -11.5733   25.5798 C   0  0  0  0  0  0  0  0  0  0  0  0
    7.1053  -11.2527   26.6722 C   0  0  0  0  0  0  0  0  0  0  0  0
    8.0059  -12.1843   27.1381 C   0  0  0  0  0  0  0  0  0  0  0  0
    8.1677  -13.4211   26.5580 C   0  0  0  0  0  0  0  0  0  0  0  0
    7.3971  -13.7582   25.4557 C   0  0  0  0  0  0  0  0  0  0  0  0
   10.4270  -16.9544   24.6578 C   0  0  0  0  0  0  0  0  0  0  0  0
   10.5477  -16.9864   25.8972 O   0  0  0  0  0  0  0  0  0  0  0  0
   11.2964  -17.7078   23.8425 N   0  0  0  0  0  0  0  0  0  0  0  0
   12.3404  -18.5341   24.4490 C   0  0  1  0  0  0  0  0  0  0  0  0
   12.5971  -19.7600   23.6084 C   0  0  0  0  0  0  0  0  0  0  0  0
   11.4188  -20.6337   23.4608 C   0  0  0  0  0  0  0  0  0  0  0  0
   10.3937  -20.8904   24.3439 C   0  0  0  0  0  0  0  0  0  0  0  0
    9.5411  -21.7758   23.7744 N   0  0  0  0  0  0  0  0  0  0  0  0
   10.0076  -22.0729   22.5705 C   0  0  0  0  0  0  0  0  0  0  0  0
   11.1453  -21.3899   22.3631 N   0  0  0  0  0  0  0  0  0  0  0  0
   13.5917  -17.7443   24.5267 C   0  0  0  0  0  0  0  0  0  0  0  0
   14.7534  -18.1673   25.1188 O   0  0  0  0  0  0  0  0  0  0  0  0
   13.6304  -16.5727   24.0152 O   0  0  0  0  0  0  0  0  0  0  0  0
  2  1  1  0
  3  2  1  0
  3  4  1  1
  5  3  1  0
  5  6  1  6
  7  5  1  0
  7  8  2  0
  9  7  1  0
 10  9  1  0
 11 12  1  0
 10 11  1  1
 12 20  1  0
 13 12  2  0
 13 14  1  0
 14 15  1  0
 15 16  1  0
 16 17  2  0
 18 17  1  0
 19 18  2  0
 20 15  2  0
 20 19  1  0
 21 23  1  0
 21 10  1  0
 22 21  2  0
 24 23  1  0
 24 25  1  6
 25 26  1  0
 26 27  2  0
 27 28  1  0
 29 28  1  0
 30 26  1  0
 30 29  2  0
 31 24  1  0
 32 31  1  0
 33 31  2  0
M  END
$$$$
