IWH.pdb
     RDKit          3D

 33 35  0  0  1  0  0  0  0  0999 V2000
   10.1085  -20.4911   17.2342 C   0  0  0  0  0  0  0  0  0  0  0  0
    9.3829  -19.1433   17.1685 C   0  0  0  0  0  0  0  0  0  0  0  0
    9.5144  -18.5146   18.5194 C   0  0  2  0  0  0  0  0  0  0  0  0
    8.8220  -19.4622   19.5079 C   0  0  0  0  0  0  0  0  0  0  0  0
    8.8636  -17.1777   18.6491 C   0  0  2  0  0  0  0  0  0  0  0  0
    9.3462  -16.1920   17.7184 N   0  0  0  0  0  0  0  0  0  0  0  0
    8.9547  -16.6137   20.0104 C   0  0  0  0  0  0  0  0  0  0  0  0
   10.0638  -16.1879   20.4828 O   0  0  0  0  0  0  0  0  0  0  0  0
    7.8467  -16.4977   20.8929 N   0  0  0  0  0  0  0  0  0  0  0  0
    7.9138  -15.9926   22.2222 C   0  0  1  0  0  0  0  0  0  0  0  0
    6.6238  -15.5010   22.7962 C   0  0  0  0  0  0  0  0  0  0  0  0
    6.7698  -15.1021   24.2208 C   0  0  0  0  0  0  0  0  0  0  0  0
    6.7395  -15.9759   25.3177 C   0  0  0  0  0  0  0  0  0  0  0  0
    6.9271  -15.2697   26.4414 N   0  0  0  0  0  0  0  0  0  0  0  0
    7.0802  -13.9637   26.1384 C   0  0  0  0  0  0  0  0  0  0  0  0
    7.2919  -12.8619   26.9708 C   0  0  0  0  0  0  0  0  0  0  0  0
    7.4080  -11.6176   26.3992 C   0  0  0  0  0  0  0  0  0  0  0  0
    7.3101  -11.5113   25.0298 C   0  0  0  0  0  0  0  0  0  0  0  0
    7.1017  -12.5962   24.2101 C   0  0  0  0  0  0  0  0  0  0  0  0
    6.9835  -13.8578   24.7732 C   0  0  0  0  0  0  0  0  0  0  0  0
    8.6305  -16.8837   23.1569 C   0  0  0  0  0  0  0  0  0  0  0  0
    8.4403  -18.1146   23.1323 O   0  0  0  0  0  0  0  0  0  0  0  0
    9.5366  -16.3260   24.0821 N   0  0  0  0  0  0  0  0  0  0  0  0
   10.7647  -17.0411   24.4297 C   0  0  1  0  0  0  0  0  0  0  0  0
   11.7580  -16.9641   23.2971 C   0  0  0  0  0  0  0  0  0  0  0  0
   13.0008  -17.7165   23.5478 C   0  0  0  0  0  0  0  0  0  0  0  0
   13.3949  -18.4248   24.6612 C   0  0  0  0  0  0  0  0  0  0  0  0
   14.6292  -18.9358   24.4367 N   0  0  0  0  0  0  0  0  0  0  0  0
   15.0081  -18.5652   23.2223 C   0  0  0  0  0  0  0  0  0  0  0  0
   14.0336  -17.8254   22.6685 N   0  0  0  0  0  0  0  0  0  0  0  0
   11.3646  -16.4086   25.6278 C   0  0  0  0  0  0  0  0  0  0  0  0
   10.8311  -15.3431   26.3054 O   0  0  0  0  0  0  0  0  0  0  0  0
   12.4655  -16.8617   26.0953 O   0  0  0  0  0  0  0  0  0  0  0  0
  2  1  1  0
  3  2  1  0
  3  4  1  1
  5  3  1  0
  5  6  1  6
  7  5  1  0
  7  8  2  0
  9  7  1  0
 10  9  1  0
 11 12  1  0
 10 11  1  1
 12 20  1  0
 13 12  2  0
 13 14  1  0
 14 15  1  0
 15 16  1  0
 16 17  2  0
 18 17  1  0
 19 18  2  0
 20 15  2  0
 20 19  1  0
 21 23  1  0
 21 10  1  0
 22 21  2  0
 24 23  1  0
 24 25  1  6
 25 26  1  0
 26 27  2  0
 27 28  1  0
 29 28  1  0
 30 26  1  0
 30 29  2  0
 31 24  1  0
 32 31  1  0
 33 31  2  0
M  END
$$$$
