TKS.pdb
     RDKit          3D

 23 22  0  0  1  0  0  0  0  0999 V2000
   14.0082  -21.3785   12.7961 C   0  0  0  0  0  0  0  0  0  0  0  0
   12.8423  -20.5382   12.3702 C   0  0  1  0  0  0  0  0  0  0  0  0
   12.8528  -20.5378   10.9605 O   0  0  0  0  0  0  0  0  0  0  0  0
   11.5179  -21.1336   12.8452 C   0  0  2  0  0  0  0  0  0  0  0  0
   10.4345  -20.2999   12.2971 N   0  0  0  0  0  0  0  0  0  0  0  0
   11.4193  -21.1841   14.3144 C   0  0  0  0  0  0  0  0  0  0  0  0
   10.9610  -20.1614   14.9200 O   0  0  0  0  0  0  0  0  0  0  0  0
   11.7925  -22.2833   15.0957 N   0  0  0  0  0  0  0  0  0  0  0  0
   11.7480  -22.2598   16.5597 C   0  0  1  0  0  0  0  0  0  0  0  0
   11.1995  -23.6168   16.9732 C   0  0  0  0  0  0  0  0  0  0  0  0
    9.8210  -23.4807   17.5788 C   0  0  0  0  0  0  0  0  0  0  0  0
    9.8018  -23.9423   19.0167 C   0  0  0  0  0  0  0  0  0  0  0  0
    8.4119  -23.9350   19.6131 C   0  0  0  0  0  0  0  0  0  0  0  0
    8.4719  -24.3865   20.9967 N   0  0  0  0  0  0  0  0  0  0  0  0
   13.1311  -22.0771   17.0521 C   0  0  0  0  0  0  0  0  0  0  0  0
   14.1445  -22.6185   16.5460 O   0  0  0  0  0  0  0  0  0  0  0  0
   16.4027  -19.4041   19.0973 O   0  0  0  0  0  0  0  0  0  0  0  0
   15.0570  -19.5741   18.7778 C   0  0  0  0  0  0  0  0  0  0  0  0
   14.7446  -21.0627   18.6965 C   0  0  2  0  0  0  0  0  0  0  0  0
   13.4141  -21.2329   18.1888 N   0  0  0  0  0  0  0  0  0  0  0  0
   14.9404  -21.7273   20.0069 C   0  0  0  0  0  0  0  0  0  0  0  0
   16.2351  -21.9337   20.4533 O   0  0  0  0  0  0  0  0  0  0  0  0
   14.0045  -22.1180   20.7438 O   0  0  0  0  0  0  0  0  0  0  0  0
  2  1  1  1
  2  4  1  0
  3  2  1  0
  4  5  1  1
  6  4  1  0
  6  7  2  0
  8  6  1  0
  9  8  1  0
 10 11  1  0
  9 10  1  1
 11 12  1  0
 12 13  1  0
 13 14  1  0
 15  9  1  0
 16 15  2  0
 17 18  1  0
 19 18  1  1
 19 20  1  0
 19 21  1  0
 20 15  1  0
 21 22  1  0
 23 21  2  0
M  END
$$$$
