TKS.pdb
     RDKit          3D

 23 22  0  0  1  0  0  0  0  0999 V2000
    8.8174  -12.1359   19.6450 C   0  0  0  0  0  0  0  0  0  0  0  0
    9.2659  -12.8293   18.3941 C   0  0  1  0  0  0  0  0  0  0  0  0
   10.5751  -13.2871   18.6469 O   0  0  0  0  0  0  0  0  0  0  0  0
    8.3840  -14.0350   18.0735 C   0  0  2  0  0  0  0  0  0  0  0  0
    7.0285  -13.5316   17.7936 N   0  0  0  0  0  0  0  0  0  0  0  0
    8.3405  -15.0089   19.1782 C   0  0  0  0  0  0  0  0  0  0  0  0
    7.4833  -14.8285   20.1031 O   0  0  0  0  0  0  0  0  0  0  0  0
    9.1766  -16.1261   19.2824 N   0  0  0  0  0  0  0  0  0  0  0  0
    9.0960  -17.0681   20.4012 C   0  0  1  0  0  0  0  0  0  0  0  0
    9.7193  -18.3591   19.8936 C   0  0  0  0  0  0  0  0  0  0  0  0
    9.5735  -19.4666   20.9124 C   0  0  0  0  0  0  0  0  0  0  0  0
   10.1914  -20.7539   20.4206 C   0  0  0  0  0  0  0  0  0  0  0  0
    9.9693  -21.9084   21.3721 C   0  0  0  0  0  0  0  0  0  0  0  0
   10.5481  -23.1218   20.8112 N   0  0  0  0  0  0  0  0  0  0  0  0
    9.8818  -16.5077   21.5226 C   0  0  0  0  0  0  0  0  0  0  0  0
   10.9588  -15.8760   21.3917 O   0  0  0  0  0  0  0  0  0  0  0  0
    8.3499  -14.7318   24.5532 O   0  0  0  0  0  0  0  0  0  0  0  0
    9.2268  -15.6784   25.0794 C   0  0  0  0  0  0  0  0  0  0  0  0
   10.1939  -16.1263   23.9911 C   0  0  2  0  0  0  0  0  0  0  0  0
    9.4436  -16.6574   22.8903 N   0  0  0  0  0  0  0  0  0  0  0  0
   11.1884  -17.0915   24.5171 C   0  0  0  0  0  0  0  0  0  0  0  0
   12.0263  -16.6810   25.5406 O   0  0  0  0  0  0  0  0  0  0  0  0
   11.3223  -18.2638   24.0938 O   0  0  0  0  0  0  0  0  0  0  0  0
  2  1  1  1
  2  4  1  0
  3  2  1  0
  4  5  1  1
  6  4  1  0
  6  7  2  0
  8  6  1  0
  9  8  1  0
 10 11  1  0
  9 10  1  6
 11 12  1  0
 12 13  1  0
 13 14  1  0
 15  9  1  0
 16 15  2  0
 17 18  1  0
 19 18  1  1
 19 20  1  0
 19 21  1  0
 20 15  1  0
 21 22  1  0
 23 21  2  0
M  END
$$$$
