TKS.pdb
     RDKit          3D

 23 22  0  0  1  0  0  0  0  0999 V2000
   10.0018  -20.8393   19.5413 C   0  0  0  0  0  0  0  0  0  0  0  0
   10.7293  -20.2811   18.3555 C   0  0  1  0  0  0  0  0  0  0  0  0
   10.4463  -21.1456   17.2785 O   0  0  0  0  0  0  0  0  0  0  0  0
   10.2302  -18.8819   17.9983 C   0  0  2  0  0  0  0  0  0  0  0  0
   10.9033  -18.4751   16.7530 N   0  0  0  0  0  0  0  0  0  0  0  0
   10.5036  -17.8994   19.0616 C   0  0  0  0  0  0  0  0  0  0  0  0
   11.7153  -17.5708   19.2773 O   0  0  0  0  0  0  0  0  0  0  0  0
    9.5205  -17.2958   19.8538 N   0  0  0  0  0  0  0  0  0  0  0  0
    9.8373  -16.2925   20.8729 C   0  0  1  0  0  0  0  0  0  0  0  0
    8.5936  -15.4252   20.9922 C   0  0  0  0  0  0  0  0  0  0  0  0
    8.5195  -14.4279   19.8584 C   0  0  0  0  0  0  0  0  0  0  0  0
    7.2590  -13.5995   19.9334 C   0  0  0  0  0  0  0  0  0  0  0  0
    7.1417  -12.6113   18.7944 C   0  0  0  0  0  0  0  0  0  0  0  0
    5.8775  -11.8951   18.8975 N   0  0  0  0  0  0  0  0  0  0  0  0
   10.1079  -17.0047   22.1411 C   0  0  0  0  0  0  0  0  0  0  0  0
    9.3540  -17.8731   22.6449 O   0  0  0  0  0  0  0  0  0  0  0  0
   13.7839  -16.4770   24.1376 O   0  0  0  0  0  0  0  0  0  0  0  0
   13.1313  -17.7083   24.1348 C   0  0  0  0  0  0  0  0  0  0  0  0
   11.6261  -17.4785   24.0923 C   0  0  2  0  0  0  0  0  0  0  0  0
   11.3009  -16.7363   22.9090 N   0  0  0  0  0  0  0  0  0  0  0  0
   11.1468  -16.8140   25.3275 C   0  0  0  0  0  0  0  0  0  0  0  0
   10.4282  -15.6364   25.2049 O   0  0  0  0  0  0  0  0  0  0  0  0
   11.3502  -17.2505   26.4849 O   0  0  0  0  0  0  0  0  0  0  0  0
  2  1  1  1
  2  4  1  0
  3  2  1  0
  4  5  1  6
  6  4  1  0
  6  7  2  0
  8  6  1  0
  9  8  1  0
 10 11  1  0
  9 10  1  1
 11 12  1  0
 12 13  1  0
 13 14  1  0
 15  9  1  0
 16 15  2  0
 17 18  1  0
 19 18  1  1
 19 20  1  0
 19 21  1  0
 20 15  1  0
 21 22  1  0
 23 21  2  0
M  END
$$$$
