TKS.pdb
     RDKit          3D

 23 22  0  0  1  0  0  0  0  0999 V2000
    7.5286  -12.3299   17.8954 C   0  0  0  0  0  0  0  0  0  0  0  0
    7.4343  -13.4475   18.8898 C   0  0  1  0  0  0  0  0  0  0  0  0
    7.0430  -14.5892   18.1613 O   0  0  0  0  0  0  0  0  0  0  0  0
    8.7846  -13.7304   19.5463 C   0  0  2  0  0  0  0  0  0  0  0  0
    9.7199  -14.1326   18.4821 N   0  0  0  0  0  0  0  0  0  0  0  0
    8.7016  -14.7878   20.5689 C   0  0  0  0  0  0  0  0  0  0  0  0
    7.9709  -14.5776   21.5909 O   0  0  0  0  0  0  0  0  0  0  0  0
    9.3700  -16.0149   20.4950 N   0  0  0  0  0  0  0  0  0  0  0  0
    9.2299  -17.0507   21.5213 C   0  0  1  0  0  0  0  0  0  0  0  0
    9.5500  -18.3633   20.8230 C   0  0  0  0  0  0  0  0  0  0  0  0
    9.4229  -19.5284   21.7779 C   0  0  0  0  0  0  0  0  0  0  0  0
    9.5990  -20.8482   21.0651 C   0  0  0  0  0  0  0  0  0  0  0  0
    9.3364  -22.0361   21.9637 C   0  0  0  0  0  0  0  0  0  0  0  0
    9.5659  -23.2690   21.2227 N   0  0  0  0  0  0  0  0  0  0  0  0
   10.2144  -16.7669   22.5887 C   0  0  0  0  0  0  0  0  0  0  0  0
   11.4219  -16.4879   22.3877 O   0  0  0  0  0  0  0  0  0  0  0  0
    8.8995  -15.9483   26.4132 O   0  0  0  0  0  0  0  0  0  0  0  0
   10.1211  -15.4531   25.9612 C   0  0  0  0  0  0  0  0  0  0  0  0
   10.7616  -16.4726   25.0280 C   0  0  2  0  0  0  0  0  0  0  0  0
    9.8350  -16.7937   23.9816 N   0  0  0  0  0  0  0  0  0  0  0  0
   11.2161  -17.6725   25.7703 C   0  0  0  0  0  0  0  0  0  0  0  0
   12.2113  -17.5202   26.7213 O   0  0  0  0  0  0  0  0  0  0  0  0
   10.7557  -18.8249   25.5931 O   0  0  0  0  0  0  0  0  0  0  0  0
  2  1  1  6
  2  4  1  0
  3  2  1  0
  4  5  1  6
  6  4  1  0
  6  7  2  0
  8  6  1  0
  9  8  1  0
 10 11  1  0
  9 10  1  6
 11 12  1  0
 12 13  1  0
 13 14  1  0
 15  9  1  0
 16 15  2  0
 17 18  1  0
 19 18  1  1
 19 20  1  0
 19 21  1  0
 20 15  1  0
 21 22  1  0
 23 21  2  0
M  END
$$$$
