TKS.pdb
     RDKit          3D

 23 22  0  0  1  0  0  0  0  0999 V2000
   12.5293  -21.0313   14.3349 C   0  0  0  0  0  0  0  0  0  0  0  0
   11.2538  -20.4933   14.9100 C   0  0  1  0  0  0  0  0  0  0  0  0
   10.4511  -20.1271   13.8105 O   0  0  0  0  0  0  0  0  0  0  0  0
   10.5116  -21.5548   15.7202 C   0  0  2  0  0  0  0  0  0  0  0  0
    9.2038  -20.9918   16.0969 N   0  0  0  0  0  0  0  0  0  0  0  0
   11.2517  -21.9589   16.9284 C   0  0  0  0  0  0  0  0  0  0  0  0
   11.1660  -21.2168   17.9603 O   0  0  0  0  0  0  0  0  0  0  0  0
   12.0442  -23.1082   17.0242 N   0  0  0  0  0  0  0  0  0  0  0  0
   12.7720  -23.4630   18.2449 C   0  0  1  0  0  0  0  0  0  0  0  0
   13.3461  -24.8481   17.9898 C   0  0  0  0  0  0  0  0  0  0  0  0
   14.5012  -24.7834   17.0166 C   0  0  0  0  0  0  0  0  0  0  0  0
   15.0713  -26.1552   16.7446 C   0  0  0  0  0  0  0  0  0  0  0  0
   16.2749  -26.1157   15.8295 C   0  0  0  0  0  0  0  0  0  0  0  0
   16.6996  -27.4748   15.5224 N   0  0  0  0  0  0  0  0  0  0  0  0
   13.8526  -22.4701   18.4328 C   0  0  0  0  0  0  0  0  0  0  0  0
   14.1438  -21.5699   17.6076 O   0  0  0  0  0  0  0  0  0  0  0  0
   14.4235  -19.9438   21.2436 O   0  0  0  0  0  0  0  0  0  0  0  0
   14.9475  -20.1056   19.9626 C   0  0  0  0  0  0  0  0  0  0  0  0
   15.6493  -21.4546   19.8740 C   0  0  2  0  0  0  0  0  0  0  0  0
   14.6717  -22.4732   19.6219 N   0  0  0  0  0  0  0  0  0  0  0  0
   16.4503  -21.7268   21.0911 C   0  0  0  0  0  0  0  0  0  0  0  0
   17.5693  -20.9467   21.3307 O   0  0  0  0  0  0  0  0  0  0  0  0
   16.1801  -22.6234   21.9246 O   0  0  0  0  0  0  0  0  0  0  0  0
  2  1  1  6
  2  4  1  0
  3  2  1  0
  4  5  1  1
  6  4  1  0
  6  7  2  0
  8  6  1  0
  9  8  1  0
 10 11  1  0
  9 10  1  6
 11 12  1  0
 12 13  1  0
 13 14  1  0
 15  9  1  0
 16 15  2  0
 17 18  1  0
 19 18  1  1
 19 20  1  0
 19 21  1  0
 20 15  1  0
 21 22  1  0
 23 21  2  0
M  END
$$$$
