TKS.pdb
     RDKit          3D

 23 22  0  0  1  0  0  0  0  0999 V2000
    9.1873  -12.5909   20.3513 C   0  0  0  0  0  0  0  0  0  0  0  0
    8.2817  -13.2411   19.3493 C   0  0  1  0  0  0  0  0  0  0  0  0
    8.8844  -13.0452   18.0900 O   0  0  0  0  0  0  0  0  0  0  0  0
    8.1556  -14.7433   19.5982 C   0  0  2  0  0  0  0  0  0  0  0  0
    7.2846  -15.2958   18.5469 N   0  0  0  0  0  0  0  0  0  0  0  0
    7.5955  -15.0476   20.9265 C   0  0  0  0  0  0  0  0  0  0  0  0
    6.4222  -14.6292   21.1927 O   0  0  0  0  0  0  0  0  0  0  0  0
    8.2637  -15.7707   21.9209 N   0  0  0  0  0  0  0  0  0  0  0  0
    7.6718  -16.0346   23.2345 C   0  0  1  0  0  0  0  0  0  0  0  0
    8.1057  -17.4453   23.6018 C   0  0  0  0  0  0  0  0  0  0  0  0
    7.5613  -17.8430   24.9549 C   0  0  0  0  0  0  0  0  0  0  0  0
    7.8414  -19.2959   25.2574 C   0  0  0  0  0  0  0  0  0  0  0  0
    7.3475  -19.7129   26.6248 C   0  0  0  0  0  0  0  0  0  0  0  0
    7.5673  -21.1410   26.8088 N   0  0  0  0  0  0  0  0  0  0  0  0
    8.2251  -15.0472   24.1873 C   0  0  0  0  0  0  0  0  0  0  0  0
    9.4483  -14.8023   24.3290 O   0  0  0  0  0  0  0  0  0  0  0  0
    5.6555  -13.0268   26.7857 O   0  0  0  0  0  0  0  0  0  0  0  0
    6.7848  -12.3343   26.3533 C   0  0  0  0  0  0  0  0  0  0  0  0
    7.8794  -13.3318   25.9968 C   0  0  2  0  0  0  0  0  0  0  0  0
    7.3611  -14.2733   25.0473 N   0  0  0  0  0  0  0  0  0  0  0  0
    8.4244  -13.9902   27.2079 C   0  0  0  0  0  0  0  0  0  0  0  0
    9.0549  -13.2034   28.1574 O   0  0  0  0  0  0  0  0  0  0  0  0
    8.3521  -15.2216   27.4315 O   0  0  0  0  0  0  0  0  0  0  0  0
  2  1  1  1
  2  4  1  0
  3  2  1  0
  4  5  1  6
  6  4  1  0
  6  7  2  0
  8  6  1  0
  9  8  1  0
 10 11  1  0
  9 10  1  1
 11 12  1  0
 12 13  1  0
 13 14  1  0
 15  9  1  0
 16 15  2  0
 17 18  1  0
 19 18  1  1
 19 20  1  0
 19 21  1  0
 20 15  1  0
 21 22  1  0
 23 21  2  0
M  END
$$$$
