TKS.pdb
     RDKit          3D

 23 22  0  0  1  0  0  0  0  0999 V2000
    8.7021  -12.6381   19.1108 C   0  0  0  0  0  0  0  0  0  0  0  0
    7.9215  -13.4318   18.1070 C   0  0  1  0  0  0  0  0  0  0  0  0
    7.8376  -12.6290   16.9512 O   0  0  0  0  0  0  0  0  0  0  0  0
    8.6346  -14.7330   17.7429 C   0  0  2  0  0  0  0  0  0  0  0  0
    7.8578  -15.3803   16.6721 N   0  0  0  0  0  0  0  0  0  0  0  0
    8.7618  -15.6448   18.8933 C   0  0  0  0  0  0  0  0  0  0  0  0
    7.7154  -16.2471   19.2995 O   0  0  0  0  0  0  0  0  0  0  0  0
    9.9581  -15.9000   19.5729 N   0  0  0  0  0  0  0  0  0  0  0  0
   10.0288  -16.7881   20.7356 C   0  0  1  0  0  0  0  0  0  0  0  0
   11.2294  -17.6886   20.4890 C   0  0  0  0  0  0  0  0  0  0  0  0
   10.8518  -18.8665   19.6197 C   0  0  0  0  0  0  0  0  0  0  0  0
   12.0181  -19.8064   19.4265 C   0  0  0  0  0  0  0  0  0  0  0  0
   11.7122  -20.9233   18.4536 C   0  0  0  0  0  0  0  0  0  0  0  0
   12.8751  -21.7911   18.3252 N   0  0  0  0  0  0  0  0  0  0  0  0
   10.2369  -15.9478   21.9355 C   0  0  0  0  0  0  0  0  0  0  0  0
   10.9225  -14.8963   21.9583 O   0  0  0  0  0  0  0  0  0  0  0  0
    7.4742  -15.2766   24.6047 O   0  0  0  0  0  0  0  0  0  0  0  0
    8.6547  -14.5407   24.5227 C   0  0  0  0  0  0  0  0  0  0  0  0
    9.8326  -15.4957   24.3785 C   0  0  2  0  0  0  0  0  0  0  0  0
    9.6424  -16.2967   23.2042 N   0  0  0  0  0  0  0  0  0  0  0  0
   10.0151  -16.3153   25.6001 C   0  0  0  0  0  0  0  0  0  0  0  0
   10.0088  -17.6945   25.4742 O   0  0  0  0  0  0  0  0  0  0  0  0
   10.1761  -15.8392   26.7485 O   0  0  0  0  0  0  0  0  0  0  0  0
  2  1  1  1
  2  4  1  0
  3  2  1  0
  4  5  1  6
  6  4  1  0
  6  7  2  0
  8  6  1  0
  9  8  1  0
 10 11  1  0
  9 10  1  6
 11 12  1  0
 12 13  1  0
 13 14  1  0
 15  9  1  0
 16 15  2  0
 17 18  1  0
 19 18  1  1
 19 20  1  0
 19 21  1  0
 20 15  1  0
 21 22  1  0
 23 21  2  0
M  END
$$$$
