TKS.pdb
     RDKit          3D

 23 22  0  0  1  0  0  0  0  0999 V2000
    7.3613  -14.4608   16.6796 C   0  0  0  0  0  0  0  0  0  0  0  0
    8.3744  -14.7155   17.7545 C   0  0  1  0  0  0  0  0  0  0  0  0
    9.6320  -14.4324   17.1838 O   0  0  0  0  0  0  0  0  0  0  0  0
    8.1664  -13.7906   18.9527 C   0  0  2  0  0  0  0  0  0  0  0  0
    8.1768  -12.4057   18.4515 N   0  0  0  0  0  0  0  0  0  0  0  0
    9.2074  -13.9608   19.9814 C   0  0  0  0  0  0  0  0  0  0  0  0
   10.2431  -13.2223   19.9142 O   0  0  0  0  0  0  0  0  0  0  0  0
    9.1370  -14.8794   21.0347 N   0  0  0  0  0  0  0  0  0  0  0  0
   10.2190  -15.0452   22.0080 C   0  0  1  0  0  0  0  0  0  0  0  0
    9.6835  -16.0121   23.0528 C   0  0  0  0  0  0  0  0  0  0  0  0
   10.7210  -16.2859   24.1178 C   0  0  0  0  0  0  0  0  0  0  0  0
   10.1820  -17.2013   25.1912 C   0  0  0  0  0  0  0  0  0  0  0  0
   11.2308  -17.5854   26.2111 C   0  0  0  0  0  0  0  0  0  0  0  0
   10.6793  -18.5707   27.1314 N   0  0  0  0  0  0  0  0  0  0  0  0
   11.3813  -15.6245   21.2992 C   0  0  0  0  0  0  0  0  0  0  0  0
   11.3476  -16.6803   20.6207 O   0  0  0  0  0  0  0  0  0  0  0  0
   13.4840  -14.4179   18.6850 O   0  0  0  0  0  0  0  0  0  0  0  0
   14.4058  -14.6000   19.7140 C   0  0  0  0  0  0  0  0  0  0  0  0
   13.8336  -15.5765   20.7335 C   0  0  2  0  0  0  0  0  0  0  0  0
   12.6768  -14.9886   21.3442 N   0  0  0  0  0  0  0  0  0  0  0  0
   14.8565  -15.9790   21.7280 C   0  0  0  0  0  0  0  0  0  0  0  0
   16.0441  -16.5227   21.2674 O   0  0  0  0  0  0  0  0  0  0  0  0
   14.7169  -15.8590   22.9680 O   0  0  0  0  0  0  0  0  0  0  0  0
  2  1  1  6
  2  4  1  0
  3  2  1  0
  4  5  1  6
  6  4  1  0
  6  7  2  0
  8  6  1  0
  9  8  1  0
 10 11  1  0
  9 10  1  1
 11 12  1  0
 12 13  1  0
 13 14  1  0
 15  9  1  0
 16 15  2  0
 17 18  1  0
 19 18  1  6
 19 20  1  0
 19 21  1  0
 20 15  1  0
 21 22  1  0
 23 21  2  0
M  END
$$$$
