TKS.pdb
     RDKit          3D

 23 22  0  0  1  0  0  0  0  0999 V2000
    8.7255  -21.2016   17.3120 C   0  0  0  0  0  0  0  0  0  0  0  0
    8.5425  -21.1518   18.7989 C   0  0  1  0  0  0  0  0  0  0  0  0
    9.5710  -20.3242   19.2936 O   0  0  0  0  0  0  0  0  0  0  0  0
    7.1979  -20.5340   19.1788 C   0  0  2  0  0  0  0  0  0  0  0  0
    7.1085  -19.2225   18.5146 N   0  0  0  0  0  0  0  0  0  0  0  0
    7.0457  -20.3713   20.6353 C   0  0  0  0  0  0  0  0  0  0  0  0
    7.3431  -19.2433   21.1469 O   0  0  0  0  0  0  0  0  0  0  0  0
    6.5920  -21.3729   21.5007 N   0  0  0  0  0  0  0  0  0  0  0  0
    6.5236  -21.1875   22.9521 C   0  0  1  0  0  0  0  0  0  0  0  0
    5.5266  -22.2228   23.4494 C   0  0  0  0  0  0  0  0  0  0  0  0
    4.1507  -21.9659   22.8780 C   0  0  0  0  0  0  0  0  0  0  0  0
    3.1472  -22.9773   23.3790 C   0  0  0  0  0  0  0  0  0  0  0  0
    1.7561  -22.7370   22.8362 C   0  0  0  0  0  0  0  0  0  0  0  0
    0.8485  -23.7530   23.3518 N   0  0  0  0  0  0  0  0  0  0  0  0
    7.8715  -21.4443   23.5056 C   0  0  0  0  0  0  0  0  0  0  0  0
    8.9043  -21.6182   22.8133 O   0  0  0  0  0  0  0  0  0  0  0  0
   10.1390  -18.7060   25.9634 O   0  0  0  0  0  0  0  0  0  0  0  0
    9.0693  -19.3524   25.3472 C   0  0  0  0  0  0  0  0  0  0  0  0
    9.2004  -20.8550   25.5606 C   0  0  2  0  0  0  0  0  0  0  0  0
    8.0932  -21.5138   24.9307 N   0  0  0  0  0  0  0  0  0  0  0  0
    9.3129  -21.1874   27.0008 C   0  0  0  0  0  0  0  0  0  0  0  0
   10.5775  -21.2819   27.5575 O   0  0  0  0  0  0  0  0  0  0  0  0
    8.3317  -21.3903   27.7541 O   0  0  0  0  0  0  0  0  0  0  0  0
  2  1  1  6
  2  4  1  0
  3  2  1  0
  4  5  1  6
  6  4  1  0
  6  7  2  0
  8  6  1  0
  9  8  1  0
 10 11  1  0
  9 10  1  1
 11 12  1  0
 12 13  1  0
 13 14  1  0
 15  9  1  0
 16 15  2  0
 17 18  1  0
 19 18  1  1
 19 20  1  0
 19 21  1  0
 20 15  1  0
 21 22  1  0
 23 21  2  0
M  END
$$$$
