TKS.pdb
     RDKit          3D

 23 22  0  0  1  0  0  0  0  0999 V2000
    4.2618  -20.4629   20.1282 C   0  0  0  0  0  0  0  0  0  0  0  0
    3.1129  -19.6230   20.5987 C   0  0  1  0  0  0  0  0  0  0  0  0
    2.4824  -19.1336   19.4365 O   0  0  0  0  0  0  0  0  0  0  0  0
    2.0995  -20.4496   21.3887 C   0  0  2  0  0  0  0  0  0  0  0  0
    0.9611  -19.5708   21.7063 N   0  0  0  0  0  0  0  0  0  0  0  0
    2.6702  -21.0015   22.6298 C   0  0  0  0  0  0  0  0  0  0  0  0
    2.8637  -20.2064   23.6061 O   0  0  0  0  0  0  0  0  0  0  0  0
    3.0137  -22.3454   22.8143 N   0  0  0  0  0  0  0  0  0  0  0  0
    3.5764  -22.8489   24.0695 C   0  0  1  0  0  0  0  0  0  0  0  0
    2.9789  -24.2348   24.2578 C   0  0  0  0  0  0  0  0  0  0  0  0
    3.4372  -24.8483   25.5613 C   0  0  0  0  0  0  0  0  0  0  0  0
    2.9219  -26.2592   25.7186 C   0  0  0  0  0  0  0  0  0  0  0  0
    3.3672  -26.9018   27.0134 C   0  0  0  0  0  0  0  0  0  0  0  0
    4.7526  -27.3351   26.8922 N   0  0  0  0  0  0  0  0  0  0  0  0
    5.0453  -22.9247   23.9093 C   0  0  0  0  0  0  0  0  0  0  0  0
    5.6421  -22.9219   22.8047 O   0  0  0  0  0  0  0  0  0  0  0  0
    8.4933  -20.4774   24.7713 O   0  0  0  0  0  0  0  0  0  0  0  0
    7.2074  -21.0087   24.6932 C   0  0  0  0  0  0  0  0  0  0  0  0
    7.2560  -22.4928   25.0328 C   0  0  2  0  0  0  0  0  0  0  0  0
    5.9186  -23.0099   25.0560 N   0  0  0  0  0  0  0  0  0  0  0  0
    7.9780  -22.7316   26.3051 C   0  0  0  0  0  0  0  0  0  0  0  0
    7.2400  -23.0703   27.4270 O   0  0  0  0  0  0  0  0  0  0  0  0
    9.2220  -22.6466   26.4341 O   0  0  0  0  0  0  0  0  0  0  0  0
  2  1  1  6
  2  4  1  0
  3  2  1  0
  4  5  1  1
  6  4  1  0
  6  7  2  0
  8  6  1  0
  9  8  1  0
 10 11  1  0
  9 10  1  6
 11 12  1  0
 12 13  1  0
 13 14  1  0
 15  9  1  0
 16 15  2  0
 17 18  1  0
 19 18  1  1
 19 20  1  0
 19 21  1  0
 20 15  1  0
 21 22  1  0
 23 21  2  0
M  END
$$$$
