TKS.pdb
     RDKit          3D

 23 22  0  0  1  0  0  0  0  0999 V2000
    9.4309  -13.9005   18.2019 C   0  0  0  0  0  0  0  0  0  0  0  0
    9.1840  -14.2737   19.6325 C   0  0  1  0  0  0  0  0  0  0  0  0
    9.8522  -13.3071   20.4113 O   0  0  0  0  0  0  0  0  0  0  0  0
    7.6959  -14.2288   19.9757 C   0  0  2  0  0  0  0  0  0  0  0  0
    7.2109  -12.8718   19.6713 N   0  0  0  0  0  0  0  0  0  0  0  0
    7.4354  -14.5503   21.3898 C   0  0  0  0  0  0  0  0  0  0  0  0
    7.1598  -13.5914   22.1817 O   0  0  0  0  0  0  0  0  0  0  0  0
    7.4664  -15.8421   21.9267 N   0  0  0  0  0  0  0  0  0  0  0  0
    7.1040  -16.1253   23.3175 C   0  0  1  0  0  0  0  0  0  0  0  0
    7.2746  -17.6272   23.4860 C   0  0  0  0  0  0  0  0  0  0  0  0
    7.0261  -18.0419   24.9184 C   0  0  0  0  0  0  0  0  0  0  0  0
    7.2504  -19.5230   25.1111 C   0  0  0  0  0  0  0  0  0  0  0  0
    6.8707  -19.9949   26.4970 C   0  0  0  0  0  0  0  0  0  0  0  0
    7.0260  -21.4409   26.5800 N   0  0  0  0  0  0  0  0  0  0  0  0
    8.0430  -15.3863   24.1898 C   0  0  0  0  0  0  0  0  0  0  0  0
    9.2839  -15.3245   24.0094 O   0  0  0  0  0  0  0  0  0  0  0  0
    6.4324  -13.0229   27.0389 O   0  0  0  0  0  0  0  0  0  0  0  0
    7.7454  -12.6870   26.7146 C   0  0  0  0  0  0  0  0  0  0  0  0
    8.4662  -13.9241   26.1946 C   0  0  2  0  0  0  0  0  0  0  0  0
    7.5745  -14.6619   25.3477 N   0  0  0  0  0  0  0  0  0  0  0  0
    8.9998  -14.7451   27.3075 C   0  0  0  0  0  0  0  0  0  0  0  0
    8.7046  -16.0981   27.3275 O   0  0  0  0  0  0  0  0  0  0  0  0
    9.7061  -14.2925   28.2390 O   0  0  0  0  0  0  0  0  0  0  0  0
  2  1  1  6
  2  4  1  0
  3  2  1  0
  4  5  1  1
  6  4  1  0
  6  7  2  0
  8  6  1  0
  9  8  1  0
 10 11  1  0
  9 10  1  1
 11 12  1  0
 12 13  1  0
 13 14  1  0
 15  9  1  0
 16 15  2  0
 17 18  1  0
 19 18  1  1
 19 20  1  0
 19 21  1  0
 20 15  1  0
 21 22  1  0
 23 21  2  0
M  END
$$$$
