TKS.pdb
     RDKit          3D

 23 22  0  0  1  0  0  0  0  0999 V2000
    5.0039  -20.3461   23.9398 C   0  0  0  0  0  0  0  0  0  0  0  0
    6.2055  -19.5105   23.6161 C   0  0  1  0  0  0  0  0  0  0  0  0
    7.3168  -20.3746   23.6925 O   0  0  0  0  0  0  0  0  0  0  0  0
    6.1294  -18.9424   22.1999 C   0  0  2  0  0  0  0  0  0  0  0  0
    6.1364  -20.0800   21.2643 N   0  0  0  0  0  0  0  0  0  0  0  0
    7.2506  -18.0357   21.8972 C   0  0  0  0  0  0  0  0  0  0  0  0
    8.2290  -18.4960   21.2238 O   0  0  0  0  0  0  0  0  0  0  0  0
    7.3157  -16.6962   22.2966 N   0  0  0  0  0  0  0  0  0  0  0  0
    8.4580  -15.8353   21.9812 C   0  0  1  0  0  0  0  0  0  0  0  0
    7.9211  -14.4130   22.0228 C   0  0  0  0  0  0  0  0  0  0  0  0
    7.1010  -14.1087   20.7897 C   0  0  0  0  0  0  0  0  0  0  0  0
    7.9578  -13.5409   19.6832 C   0  0  0  0  0  0  0  0  0  0  0  0
    7.1573  -13.1832   18.4508 C   0  0  0  0  0  0  0  0  0  0  0  0
    8.0491  -12.6622   17.4235 N   0  0  0  0  0  0  0  0  0  0  0  0
    9.4841  -16.0430   23.0266 C   0  0  0  0  0  0  0  0  0  0  0  0
    9.2861  -15.8967   24.2577 O   0  0  0  0  0  0  0  0  0  0  0  0
   10.8112  -18.5990   24.4258 O   0  0  0  0  0  0  0  0  0  0  0  0
   12.0260  -18.0759   23.9871 C   0  0  0  0  0  0  0  0  0  0  0  0
   11.8522  -16.5944   23.6781 C   0  0  2  0  0  0  0  0  0  0  0  0
   10.8290  -16.4422   22.6848 N   0  0  0  0  0  0  0  0  0  0  0  0
   13.1352  -15.9746   23.2696 C   0  0  0  0  0  0  0  0  0  0  0  0
   13.2058  -15.3650   22.0280 O   0  0  0  0  0  0  0  0  0  0  0  0
   14.1688  -15.9653   23.9789 O   0  0  0  0  0  0  0  0  0  0  0  0
  2  1  1  6
  2  4  1  0
  3  2  1  0
  4  5  1  6
  6  4  1  0
  6  7  2  0
  8  6  1  0
  9  8  1  0
 10 11  1  0
  9 10  1  1
 11 12  1  0
 12 13  1  0
 13 14  1  0
 15  9  1  0
 16 15  2  0
 17 18  1  0
 19 18  1  6
 19 20  1  0
 19 21  1  0
 20 15  1  0
 21 22  1  0
 23 21  2  0
M  END
$$$$
