TKS.pdb
     RDKit          3D

 23 22  0  0  1  0  0  0  0  0999 V2000
    9.5064  -12.4897   19.5039 C   0  0  0  0  0  0  0  0  0  0  0  0
    8.1987  -13.0467   19.0280 C   0  0  1  0  0  0  0  0  0  0  0  0
    7.6706  -12.0965   18.1304 O   0  0  0  0  0  0  0  0  0  0  0  0
    8.3889  -14.3659   18.2812 C   0  0  2  0  0  0  0  0  0  0  0  0
    7.0585  -14.8275   17.8498 N   0  0  0  0  0  0  0  0  0  0  0  0
    9.0324  -15.3960   19.1152 C   0  0  0  0  0  0  0  0  0  0  0  0
    8.3227  -15.9859   19.9934 O   0  0  0  0  0  0  0  0  0  0  0  0
   10.3747  -15.7766   19.0083 N   0  0  0  0  0  0  0  0  0  0  0  0
   10.9622  -16.8315   19.8375 C   0  0  1  0  0  0  0  0  0  0  0  0
   12.1193  -17.3924   19.0253 C   0  0  0  0  0  0  0  0  0  0  0  0
   12.7702  -18.5533   19.7424 C   0  0  0  0  0  0  0  0  0  0  0  0
   13.8453  -19.1923   18.8959 C   0  0  0  0  0  0  0  0  0  0  0  0
   14.5092  -20.3646   19.5833 C   0  0  0  0  0  0  0  0  0  0  0  0
   15.4910  -20.9630   18.6889 N   0  0  0  0  0  0  0  0  0  0  0  0
   11.4485  -16.2070   21.0875 C   0  0  0  0  0  0  0  0  0  0  0  0
   12.1592  -15.1732   21.1373 O   0  0  0  0  0  0  0  0  0  0  0  0
    9.7629  -17.2381   24.6922 O   0  0  0  0  0  0  0  0  0  0  0  0
   10.4187  -16.0164   24.5541 C   0  0  0  0  0  0  0  0  0  0  0  0
   11.5947  -16.1830   23.6004 C   0  0  2  0  0  0  0  0  0  0  0  0
   11.1246  -16.7677   22.3781 N   0  0  0  0  0  0  0  0  0  0  0  0
   12.6860  -16.9702   24.2220 C   0  0  0  0  0  0  0  0  0  0  0  0
   13.3667  -16.4187   25.2947 O   0  0  0  0  0  0  0  0  0  0  0  0
   13.0366  -18.1110   23.8383 O   0  0  0  0  0  0  0  0  0  0  0  0
  2  1  1  6
  2  4  1  0
  3  2  1  0
  4  5  1  1
  6  4  1  0
  6  7  2  0
  8  6  1  0
  9  8  1  0
 10 11  1  0
  9 10  1  6
 11 12  1  0
 12 13  1  0
 13 14  1  0
 15  9  1  0
 16 15  2  0
 17 18  1  0
 19 18  1  1
 19 20  1  0
 19 21  1  0
 20 15  1  0
 21 22  1  0
 23 21  2  0
M  END
$$$$
