DAS.pdb
     RDKit          3D

 20 19  0  0  1  0  0  0  0  0999 V2000
    8.7114  -20.0201   15.9561 N   0  0  0  0  0  0  0  0  0  0  0  0
    9.4790  -18.9975   16.6037 C   0  0  1  0  0  0  0  0  0  0  0  0
    9.3320  -17.6766   15.8885 C   0  0  0  0  0  0  0  0  0  0  0  0
   10.2254  -17.6231   14.7090 C   0  0  0  0  0  0  0  0  0  0  0  0
   11.0003  -18.5735   14.4921 O   0  0  0  0  0  0  0  0  0  0  0  0
    9.0290  -18.8746   18.0144 C   0  0  0  0  0  0  0  0  0  0  0  0
    7.7841  -18.7556   18.2034 O   0  0  0  0  0  0  0  0  0  0  0  0
   10.2101  -16.5185   13.8360 O   0  0  0  0  0  0  0  0  0  0  0  0
    9.8593  -19.9275   21.2425 C   0  0  0  0  0  0  0  0  0  0  0  0
    9.5356  -18.6993   20.4427 C   0  0  2  0  0  0  0  0  0  0  0  0
    9.9431  -18.8903   19.0761 N   0  0  0  0  0  0  0  0  0  0  0  0
   10.1963  -17.4976   21.0183 C   0  0  0  0  0  0  0  0  0  0  0  0
   11.2704  -17.0245   20.6050 O   0  0  0  0  0  0  0  0  0  0  0  0
    8.1800  -15.3340   24.0427 O   0  0  0  0  0  0  0  0  0  0  0  0
    9.0806  -14.6640   23.2034 C   0  0  0  0  0  0  0  0  0  0  0  0
   10.1243  -15.6746   22.7616 C   0  0  2  0  0  0  0  0  0  0  0  0
    9.5721  -16.8276   22.1207 N   0  0  0  0  0  0  0  0  0  0  0  0
   11.0301  -16.0081   23.8812 C   0  0  0  0  0  0  0  0  0  0  0  0
   11.9344  -15.1187   24.4363 O   0  0  0  0  0  0  0  0  0  0  0  0
   10.9779  -17.1666   24.3586 O   0  0  0  0  0  0  0  0  0  0  0  0
  2  1  1  6
  2  3  1  0
  3  4  1  0
  4  8  1  0
  5  4  2  0
  6  2  1  0
  6  7  2  0
 10  9  1  1
 10 11  1  0
 11  6  1  0
 12 13  2  0
 12 10  1  0
 14 15  1  0
 16 17  1  0
 16 15  1  1
 17 12  1  0
 18 16  1  0
 19 18  1  0
 20 18  2  0
M  END
$$$$
