DAS.pdb
     RDKit          3D

 20 19  0  0  1  0  0  0  0  0999 V2000
    7.6726  -17.5216   18.9260 N   0  0  0  0  0  0  0  0  0  0  0  0
    9.0329  -17.0839   18.8151 C   0  0  1  0  0  0  0  0  0  0  0  0
    9.4643  -17.0210   17.3701 C   0  0  0  0  0  0  0  0  0  0  0  0
    9.3596  -18.3561   16.7388 C   0  0  0  0  0  0  0  0  0  0  0  0
    9.2216  -19.3597   17.4631 O   0  0  0  0  0  0  0  0  0  0  0  0
    9.1653  -15.7486   19.4530 C   0  0  0  0  0  0  0  0  0  0  0  0
   10.3411  -15.3091   19.6080 O   0  0  0  0  0  0  0  0  0  0  0  0
    9.4142  -18.5040   15.3397 O   0  0  0  0  0  0  0  0  0  0  0  0
    6.8392  -12.9827   20.2906 C   0  0  0  0  0  0  0  0  0  0  0  0
    8.1452  -13.7071   20.4409 C   0  0  2  0  0  0  0  0  0  0  0  0
    8.0404  -15.0192   19.8598 N   0  0  0  0  0  0  0  0  0  0  0  0
    8.5414  -13.8028   21.8712 C   0  0  0  0  0  0  0  0  0  0  0  0
    8.6801  -12.8231   22.6256 O   0  0  0  0  0  0  0  0  0  0  0  0
    8.7397  -16.1030   25.9416 O   0  0  0  0  0  0  0  0  0  0  0  0
    8.2084  -16.0326   24.6466 C   0  0  0  0  0  0  0  0  0  0  0  0
    9.2219  -15.3052   23.7809 C   0  0  2  0  0  0  0  0  0  0  0  0
    8.7842  -15.0977   22.4355 N   0  0  0  0  0  0  0  0  0  0  0  0
   10.5443  -15.9601   23.8689 C   0  0  0  0  0  0  0  0  0  0  0  0
   11.3167  -15.9930   25.0176 O   0  0  0  0  0  0  0  0  0  0  0  0
   10.9958  -16.5205   22.8419 O   0  0  0  0  0  0  0  0  0  0  0  0
  2  1  1  6
  2  3  1  0
  3  4  1  0
  4  8  1  0
  5  4  2  0
  6  2  1  0
  6  7  2  0
 10  9  1  1
 10 11  1  0
 11  6  1  0
 12 13  2  0
 12 10  1  0
 14 15  1  0
 16 17  1  0
 16 15  1  1
 17 12  1  0
 18 16  1  0
 19 18  1  0
 20 18  2  0
M  END
$$$$
