DAS.pdb
     RDKit          3D

 20 19  0  0  1  0  0  0  0  0999 V2000
   10.5822  -15.8803   15.3128 N   0  0  0  0  0  0  0  0  0  0  0  0
    9.2991  -15.9314   15.9494 C   0  0  1  0  0  0  0  0  0  0  0  0
    8.8673  -17.3589   16.1814 C   0  0  0  0  0  0  0  0  0  0  0  0
    8.3344  -17.9492   14.9326 C   0  0  0  0  0  0  0  0  0  0  0  0
    9.0241  -17.9004   13.8968 O   0  0  0  0  0  0  0  0  0  0  0  0
    9.3686  -15.1961   17.2386 C   0  0  0  0  0  0  0  0  0  0  0  0
   10.3907  -15.4031   17.9542 O   0  0  0  0  0  0  0  0  0  0  0  0
    7.0664  -18.5604   14.9016 O   0  0  0  0  0  0  0  0  0  0  0  0
    7.3482  -12.5090   18.8570 C   0  0  0  0  0  0  0  0  0  0  0  0
    8.4261  -13.5535   18.8503 C   0  0  2  0  0  0  0  0  0  0  0  0
    8.3497  -14.3199   17.6350 N   0  0  0  0  0  0  0  0  0  0  0  0
    8.3127  -14.4456   20.0348 C   0  0  0  0  0  0  0  0  0  0  0  0
    8.4545  -14.0672   21.2116 O   0  0  0  0  0  0  0  0  0  0  0  0
    7.2488  -18.5332   19.4560 O   0  0  0  0  0  0  0  0  0  0  0  0
    6.8448  -17.8561   20.6147 C   0  0  0  0  0  0  0  0  0  0  0  0
    7.8782  -16.7787   20.8923 C   0  0  2  0  0  0  0  0  0  0  0  0
    8.0228  -15.8339   19.8286 N   0  0  0  0  0  0  0  0  0  0  0  0
    9.1598  -17.3848   21.3114 C   0  0  0  0  0  0  0  0  0  0  0  0
    9.3014  -18.2112   22.4132 O   0  0  0  0  0  0  0  0  0  0  0  0
   10.1821  -17.1365   20.6287 O   0  0  0  0  0  0  0  0  0  0  0  0
  2  1  1  1
  2  3  1  0
  3  4  1  0
  4  8  1  0
  5  4  2  0
  6  2  1  0
  6  7  2  0
 10  9  1  6
 10 11  1  0
 11  6  1  0
 12 13  2  0
 12 10  1  0
 14 15  1  0
 16 17  1  0
 16 15  1  6
 17 12  1  0
 18 16  1  0
 19 18  1  0
 20 18  2  0
M  END
$$$$
