DAS.pdb
     RDKit          3D

 20 19  0  0  1  0  0  0  0  0999 V2000
   10.5776  -19.5376   19.3161 N   0  0  0  0  0  0  0  0  0  0  0  0
   11.7785  -18.8697   18.9087 C   0  0  1  0  0  0  0  0  0  0  0  0
   11.6091  -18.2338   17.5504 C   0  0  0  0  0  0  0  0  0  0  0  0
   12.2149  -19.0838   16.5004 C   0  0  0  0  0  0  0  0  0  0  0  0
   12.4739  -20.2742   16.7590 O   0  0  0  0  0  0  0  0  0  0  0  0
   12.1276  -17.8404   19.9217 C   0  0  0  0  0  0  0  0  0  0  0  0
   13.3093  -17.3909   19.8884 O   0  0  0  0  0  0  0  0  0  0  0  0
   12.5001  -18.5666   15.2223 O   0  0  0  0  0  0  0  0  0  0  0  0
   10.2810  -15.9133   22.5222 C   0  0  0  0  0  0  0  0  0  0  0  0
   11.5334  -16.4693   21.9094 C   0  0  2  0  0  0  0  0  0  0  0  0
   11.1902  -17.3954   20.8631 N   0  0  0  0  0  0  0  0  0  0  0  0
   12.3797  -17.1353   22.9352 C   0  0  0  0  0  0  0  0  0  0  0  0
   12.2773  -18.3332   23.2560 O   0  0  0  0  0  0  0  0  0  0  0  0
   16.1546  -16.0028   23.5904 O   0  0  0  0  0  0  0  0  0  0  0  0
   15.5099  -16.0914   24.8318 C   0  0  0  0  0  0  0  0  0  0  0  0
   14.2386  -16.8955   24.6247 C   0  0  2  0  0  0  0  0  0  0  0  0
   13.3827  -16.3650   23.6093 N   0  0  0  0  0  0  0  0  0  0  0  0
   13.5477  -17.1147   25.9131 C   0  0  0  0  0  0  0  0  0  0  0  0
   14.0964  -17.8108   26.9767 O   0  0  0  0  0  0  0  0  0  0  0  0
   12.3944  -16.6424   26.0531 O   0  0  0  0  0  0  0  0  0  0  0  0
  2  1  1  1
  2  3  1  0
  3  4  1  0
  4  8  1  0
  5  4  2  0
  6  2  1  0
  6  7  2  0
 10  9  1  1
 10 11  1  0
 11  6  1  0
 12 13  2  0
 12 10  1  0
 14 15  1  0
 16 17  1  0
 16 15  1  1
 17 12  1  0
 18 16  1  0
 19 18  1  0
 20 18  2  0
M  END
$$$$
