DAS.pdb
     RDKit          3D

 20 19  0  0  1  0  0  0  0  0999 V2000
    9.3167  -16.8015   15.2405 N   0  0  0  0  0  0  0  0  0  0  0  0
   10.5998  -16.2606   14.9010 C   0  0  1  0  0  0  0  0  0  0  0  0
   10.5229  -15.4392   13.6371 C   0  0  0  0  0  0  0  0  0  0  0  0
   10.0159  -16.2608   12.5145 C   0  0  0  0  0  0  0  0  0  0  0  0
   10.6031  -17.3203   12.2255 O   0  0  0  0  0  0  0  0  0  0  0  0
   11.0882  -15.4275   16.0302 C   0  0  0  0  0  0  0  0  0  0  0  0
   12.2747  -14.9979   15.9452 O   0  0  0  0  0  0  0  0  0  0  0  0
    8.8865  -15.8615   11.7747 O   0  0  0  0  0  0  0  0  0  0  0  0
    9.5766  -13.9624   19.1086 C   0  0  0  0  0  0  0  0  0  0  0  0
   10.7412  -14.3770   18.2573 C   0  0  2  0  0  0  0  0  0  0  0  0
   10.2704  -15.1371   17.1300 N   0  0  0  0  0  0  0  0  0  0  0  0
   11.7228  -15.1698   19.0446 C   0  0  0  0  0  0  0  0  0  0  0  0
   11.7521  -16.4133   19.0771 O   0  0  0  0  0  0  0  0  0  0  0  0
   15.9475  -15.0334   21.3853 O   0  0  0  0  0  0  0  0  0  0  0  0
   14.9181  -14.2222   20.8888 C   0  0  0  0  0  0  0  0  0  0  0  0
   13.7520  -15.1317   20.5440 C   0  0  2  0  0  0  0  0  0  0  0  0
   12.7057  -14.4757   19.8230 N   0  0  0  0  0  0  0  0  0  0  0  0
   13.2731  -15.8409   21.7494 C   0  0  0  0  0  0  0  0  0  0  0  0
   12.0473  -15.6067   22.3491 O   0  0  0  0  0  0  0  0  0  0  0  0
   14.0210  -16.7075   22.2614 O   0  0  0  0  0  0  0  0  0  0  0  0
  2  1  1  1
  2  3  1  0
  3  4  1  0
  4  8  1  0
  5  4  2  0
  6  2  1  0
  6  7  2  0
 10  9  1  1
 10 11  1  0
 11  6  1  0
 12 13  2  0
 12 10  1  0
 14 15  1  0
 16 17  1  0
 16 15  1  1
 17 12  1  0
 18 16  1  0
 19 18  1  0
 20 18  2  0
M  END
$$$$
