DAS.pdb
     RDKit          3D

 20 19  0  0  1  0  0  0  0  0999 V2000
    6.4950  -17.5937   20.9372 N   0  0  0  0  0  0  0  0  0  0  0  0
    7.1400  -18.8523   20.7042 C   0  0  1  0  0  0  0  0  0  0  0  0
    6.7901  -19.3945   19.3398 C   0  0  0  0  0  0  0  0  0  0  0  0
    5.3216  -19.5032   19.1856 C   0  0  0  0  0  0  0  0  0  0  0  0
    4.5842  -19.0956   20.1026 O   0  0  0  0  0  0  0  0  0  0  0  0
    8.6097  -18.6734   20.8284 C   0  0  0  0  0  0  0  0  0  0  0  0
    9.3052  -19.7279   20.8907 O   0  0  0  0  0  0  0  0  0  0  0  0
    4.7526  -20.0581   18.0234 O   0  0  0  0  0  0  0  0  0  0  0  0
   11.1245  -16.3345   19.9271 C   0  0  0  0  0  0  0  0  0  0  0  0
   10.6050  -17.2038   21.0350 C   0  0  2  0  0  0  0  0  0  0  0  0
    9.1886  -17.3984   20.8738 N   0  0  0  0  0  0  0  0  0  0  0  0
   10.8990  -16.6065   22.3650 C   0  0  0  0  0  0  0  0  0  0  0  0
   11.9566  -16.0153   22.6479 O   0  0  0  0  0  0  0  0  0  0  0  0
    9.1476  -14.1124   24.0846 O   0  0  0  0  0  0  0  0  0  0  0  0
    9.0800  -15.0994   25.0773 C   0  0  0  0  0  0  0  0  0  0  0  0
   10.0897  -16.1743   24.7157 C   0  0  2  0  0  0  0  0  0  0  0  0
    9.9138  -16.7084   23.4009 N   0  0  0  0  0  0  0  0  0  0  0  0
   10.1387  -17.2143   25.7652 C   0  0  0  0  0  0  0  0  0  0  0  0
   10.4042  -16.9555   27.0992 O   0  0  0  0  0  0  0  0  0  0  0  0
    9.9272  -18.4038   25.4289 O   0  0  0  0  0  0  0  0  0  0  0  0
  2  1  1  6
  2  3  1  0
  3  4  1  0
  4  8  1  0
  5  4  2  0
  6  2  1  0
  6  7  2  0
 10  9  1  6
 10 11  1  0
 11  6  1  0
 12 13  2  0
 12 10  1  0
 14 15  1  0
 16 17  1  0
 16 15  1  1
 17 12  1  0
 18 16  1  0
 19 18  1  0
 20 18  2  0
M  END
$$$$
