DAS.pdb
     RDKit          3D

 20 19  0  0  1  0  0  0  0  0999 V2000
    9.5789  -16.1000   16.3794 N   0  0  0  0  0  0  0  0  0  0  0  0
    9.9747  -16.4663   17.7073 C   0  0  1  0  0  0  0  0  0  0  0  0
   11.3863  -17.0003   17.7226 C   0  0  0  0  0  0  0  0  0  0  0  0
   11.4712  -18.2640   16.9558 C   0  0  0  0  0  0  0  0  0  0  0  0
   10.4390  -18.9393   16.7844 O   0  0  0  0  0  0  0  0  0  0  0  0
    9.8619  -15.2774   18.5914 C   0  0  0  0  0  0  0  0  0  0  0  0
   10.9211  -14.8994   19.1699 O   0  0  0  0  0  0  0  0  0  0  0  0
   12.6960  -18.7087   16.4223 O   0  0  0  0  0  0  0  0  0  0  0  0
    7.2005  -12.8248   19.4772 C   0  0  0  0  0  0  0  0  0  0  0  0
    8.4650  -13.5832   19.7585 C   0  0  2  0  0  0  0  0  0  0  0  0
    8.6408  -14.6142   18.7704 N   0  0  0  0  0  0  0  0  0  0  0  0
    8.4424  -14.1715   21.1243 C   0  0  0  0  0  0  0  0  0  0  0  0
    7.4277  -14.2355   21.8415 O   0  0  0  0  0  0  0  0  0  0  0  0
    8.9106  -17.2967   24.1221 O   0  0  0  0  0  0  0  0  0  0  0  0
    8.7750  -16.6656   22.8780 C   0  0  0  0  0  0  0  0  0  0  0  0
    9.7157  -15.4737   22.8708 C   0  0  2  0  0  0  0  0  0  0  0  0
    9.6573  -14.7033   21.6674 N   0  0  0  0  0  0  0  0  0  0  0  0
   11.0875  -15.8933   23.2279 C   0  0  0  0  0  0  0  0  0  0  0  0
   11.5125  -16.1262   24.5249 O   0  0  0  0  0  0  0  0  0  0  0  0
   11.9182  -16.0482   22.3013 O   0  0  0  0  0  0  0  0  0  0  0  0
  2  1  1  6
  2  3  1  0
  3  4  1  0
  4  8  1  0
  5  4  2  0
  6  2  1  0
  6  7  2  0
 10  9  1  6
 10 11  1  0
 11  6  1  0
 12 13  2  0
 12 10  1  0
 14 15  1  0
 16 17  1  0
 16 15  1  6
 17 12  1  0
 18 16  1  0
 19 18  1  0
 20 18  2  0
M  END
$$$$
