DAS.pdb
     RDKit          3D

 20 19  0  0  1  0  0  0  0  0999 V2000
   10.9844  -16.0005   17.8437 N   0  0  0  0  0  0  0  0  0  0  0  0
   11.9106  -15.1105   18.4793 C   0  0  1  0  0  0  0  0  0  0  0  0
   12.7516  -14.3853   17.4571 C   0  0  0  0  0  0  0  0  0  0  0  0
   13.5213  -15.3503   16.6396 C   0  0  0  0  0  0  0  0  0  0  0  0
   13.2802  -15.4402   15.4212 O   0  0  0  0  0  0  0  0  0  0  0  0
   11.1550  -14.1384   19.3109 C   0  0  0  0  0  0  0  0  0  0  0  0
   11.8406  -13.3400   20.0124 O   0  0  0  0  0  0  0  0  0  0  0  0
   14.5152  -16.1622   17.2188 O   0  0  0  0  0  0  0  0  0  0  0  0
    7.7173  -12.8395   19.3752 C   0  0  0  0  0  0  0  0  0  0  0  0
    9.0047  -13.1542   20.0800 C   0  0  2  0  0  0  0  0  0  0  0  0
    9.7542  -14.1135   19.3131 N   0  0  0  0  0  0  0  0  0  0  0  0
    8.7504  -13.6705   21.4514 C   0  0  0  0  0  0  0  0  0  0  0  0
    8.0972  -13.0618   22.3180 O   0  0  0  0  0  0  0  0  0  0  0  0
    8.4148  -17.5160   22.0812 O   0  0  0  0  0  0  0  0  0  0  0  0
    8.1302  -16.6692   23.1612 C   0  0  0  0  0  0  0  0  0  0  0  0
    9.1307  -15.5278   23.1167 C   0  0  2  0  0  0  0  0  0  0  0  0
    9.2841  -14.9490   21.8181 N   0  0  0  0  0  0  0  0  0  0  0  0
   10.4132  -15.9379   23.7270 C   0  0  0  0  0  0  0  0  0  0  0  0
   10.5553  -16.3089   25.0533 O   0  0  0  0  0  0  0  0  0  0  0  0
   11.4356  -15.9512   23.0010 O   0  0  0  0  0  0  0  0  0  0  0  0
  2  1  1  6
  2  3  1  0
  3  4  1  0
  4  8  1  0
  5  4  2  0
  6  2  1  0
  6  7  2  0
 10  9  1  6
 10 11  1  0
 11  6  1  0
 12 13  2  0
 12 10  1  0
 14 15  1  0
 16 17  1  0
 16 15  1  6
 17 12  1  0
 18 16  1  0
 19 18  1  0
 20 18  2  0
M  END
$$$$
