DAS.pdb
     RDKit          3D

 20 19  0  0  1  0  0  0  0  0999 V2000
    9.5128  -16.0160   18.3956 N   0  0  0  0  0  0  0  0  0  0  0  0
    8.6925  -16.5496   19.4427 C   0  0  1  0  0  0  0  0  0  0  0  0
    8.6772  -18.0583   19.4017 C   0  0  0  0  0  0  0  0  0  0  0  0
    8.1479  -18.5367   18.1044 C   0  0  0  0  0  0  0  0  0  0  0  0
    7.0542  -18.1010   17.6984 O   0  0  0  0  0  0  0  0  0  0  0  0
    9.2081  -16.0731   20.7522 C   0  0  0  0  0  0  0  0  0  0  0  0
   10.4554  -16.1684   20.9383 O   0  0  0  0  0  0  0  0  0  0  0  0
    8.8605  -19.4718   17.3298 O   0  0  0  0  0  0  0  0  0  0  0  0
    7.7820  -14.2171   23.6464 C   0  0  0  0  0  0  0  0  0  0  0  0
    8.8306  -15.0726   22.9973 C   0  0  2  0  0  0  0  0  0  0  0  0
    8.3501  -15.5464   21.7266 N   0  0  0  0  0  0  0  0  0  0  0  0
    9.2023  -16.2172   23.8713 C   0  0  0  0  0  0  0  0  0  0  0  0
    8.4967  -17.2286   24.0371 O   0  0  0  0  0  0  0  0  0  0  0  0
   12.7057  -17.6360   24.0093 O   0  0  0  0  0  0  0  0  0  0  0  0
   12.3916  -17.4741   25.3656 C   0  0  0  0  0  0  0  0  0  0  0  0
   10.8998  -17.2055   25.4553 C   0  0  2  0  0  0  0  0  0  0  0  0
   10.4487  -16.1710   24.5771 N   0  0  0  0  0  0  0  0  0  0  0  0
   10.4943  -16.9942   26.8612 C   0  0  0  0  0  0  0  0  0  0  0  0
   10.7326  -17.9010   27.8799 O   0  0  0  0  0  0  0  0  0  0  0  0
    9.8982  -15.9295   27.1506 O   0  0  0  0  0  0  0  0  0  0  0  0
  2  1  1  6
  2  3  1  0
  3  4  1  0
  4  8  1  0
  5  4  2  0
  6  2  1  0
  6  7  2  0
 10  9  1  1
 10 11  1  0
 11  6  1  0
 12 13  2  0
 12 10  1  0
 14 15  1  0
 16 17  1  0
 16 15  1  1
 17 12  1  0
 18 16  1  0
 19 18  1  0
 20 18  2  0
M  END
$$$$
