DAS.pdb
     RDKit          3D

 20 19  0  0  1  0  0  0  0  0999 V2000
    8.4719  -16.8735   16.7304 N   0  0  0  0  0  0  0  0  0  0  0  0
    9.7164  -16.7323   17.4270 C   0  0  1  0  0  0  0  0  0  0  0  0
   10.8841  -16.8654   16.4800 C   0  0  0  0  0  0  0  0  0  0  0  0
   10.9850  -18.2526   15.9725 C   0  0  0  0  0  0  0  0  0  0  0  0
   10.1685  -18.6463   15.1185 O   0  0  0  0  0  0  0  0  0  0  0  0
    9.7461  -15.4090   18.1019 C   0  0  0  0  0  0  0  0  0  0  0  0
   10.8801  -14.8634   18.2289 O   0  0  0  0  0  0  0  0  0  0  0  0
   11.9851  -19.1262   16.4404 O   0  0  0  0  0  0  0  0  0  0  0  0
    7.1886  -13.1346   19.6083 C   0  0  0  0  0  0  0  0  0  0  0  0
    8.5942  -13.5966   19.3559 C   0  0  2  0  0  0  0  0  0  0  0  0
    8.5736  -14.8025   18.5713 N   0  0  0  0  0  0  0  0  0  0  0  0
    9.3203  -13.8213   20.6342 C   0  0  0  0  0  0  0  0  0  0  0  0
   10.4541  -13.3730   20.8827 O   0  0  0  0  0  0  0  0  0  0  0  0
    8.9770  -15.0863   25.2611 O   0  0  0  0  0  0  0  0  0  0  0  0
    8.2614  -14.9589   24.0627 C   0  0  0  0  0  0  0  0  0  0  0  0
    9.2769  -14.8469   22.9394 C   0  0  2  0  0  0  0  0  0  0  0  0
    8.6911  -14.6023   21.6580 N   0  0  0  0  0  0  0  0  0  0  0  0
   10.1920  -16.0079   22.9496 C   0  0  0  0  0  0  0  0  0  0  0  0
   11.2853  -16.1241   23.7911 O   0  0  0  0  0  0  0  0  0  0  0  0
    9.9661  -16.9455   22.1480 O   0  0  0  0  0  0  0  0  0  0  0  0
  2  1  1  6
  2  3  1  0
  3  4  1  0
  4  8  1  0
  5  4  2  0
  6  2  1  0
  6  7  2  0
 10  9  1  1
 10 11  1  0
 11  6  1  0
 12 13  2  0
 12 10  1  0
 14 15  1  0
 16 17  1  0
 16 15  1  1
 17 12  1  0
 18 16  1  0
 19 18  1  0
 20 18  2  0
M  END
$$$$
