CIF.pdb
     RDKit          3D

 26 26  0  0  1  0  0  0  0  0999 V2000
   11.8822  -11.5181  -10.4366 N   0  0  0  0  0  0  0  0  0  0  0  0
   13.2975  -11.3562  -10.2631 C   0  0  1  0  0  0  0  0  0  0  0  0
   13.9931  -12.2428  -11.2805 C   0  0  0  0  0  0  0  0  0  0  0  0
   14.0224  -13.9246  -10.5960 S   0  0  0  0  0  0  0  0  0  0  0  0
   13.7074   -9.9381  -10.4189 C   0  0  0  0  0  0  0  0  0  0  0  0
   13.2812   -9.2926  -11.3795 O   0  0  0  0  0  0  0  0  0  0  0  0
   13.1487   -5.9271   -7.0310 C   0  0  0  0  0  0  0  0  0  0  0  0
   13.2603   -6.8125   -8.2833 C   0  0  0  0  0  0  0  0  0  0  0  0
   14.7037   -7.0645   -8.4943 C   0  0  2  0  0  0  0  0  0  0  0  0
   15.3974   -5.7152   -8.7376 C   0  0  0  0  0  0  0  0  0  0  0  0
   15.0917   -8.0166   -9.5611 C   0  0  2  0  0  0  0  0  0  0  0  0
   14.5841   -9.3372   -9.4643 N   0  0  0  0  0  0  0  0  0  0  0  0
   16.5326   -7.9203   -9.9766 C   0  0  0  0  0  0  0  0  0  0  0  0
   17.3033   -8.7590   -9.4442 O   0  0  0  0  0  0  0  0  0  0  0  0
   17.0505   -6.9973  -10.8755 N   0  0  0  0  0  0  0  0  0  0  0  0
   18.3767   -7.0866  -11.4858 C   0  0  1  0  0  0  0  0  0  0  0  0
   18.5329   -8.3457  -12.2679 C   0  0  0  0  0  0  0  0  0  0  0  0
   19.8705   -8.4356  -12.8902 C   0  0  0  0  0  0  0  0  0  0  0  0
   20.9465   -9.0299  -12.2205 C   0  0  0  0  0  0  0  0  0  0  0  0
   22.1992   -9.1576  -12.7704 C   0  0  0  0  0  0  0  0  0  0  0  0
   22.4139   -8.6779  -14.0469 C   0  0  0  0  0  0  0  0  0  0  0  0
   21.3596   -8.0912  -14.7137 C   0  0  0  0  0  0  0  0  0  0  0  0
   20.0985   -7.9552  -14.1776 C   0  0  0  0  0  0  0  0  0  0  0  0
   18.6188   -5.9160  -12.3411 C   0  0  0  0  0  0  0  0  0  0  0  0
   19.8249   -5.2631  -12.4820 O   0  0  0  0  0  0  0  0  0  0  0  0
   17.6549   -5.4567  -13.0055 O   0  0  0  0  0  0  0  0  0  0  0  0
  2  1  1  6
  3  2  1  0
  3  4  1  0
  5  2  1  0
  5  6  2  0
  7  8  1  0
  9  8  1  0
  9 11  1  0
  9 10  1  6
 11 12  1  1
 12  5  1  0
 13 11  1  0
 13 15  1  0
 14 13  2  0
 16 15  1  0
 16 24  1  0
 16 17  1  6
 18 17  1  0
 19 18  2  0
 20 19  1  0
 21 22  1  0
 21 20  2  0
 22 23  2  0
 23 18  1  0
 24 26  2  0
 24 25  1  0
M  END
$$$$
