CIF.pdb
     RDKit          3D

 26 26  0  0  1  0  0  0  0  0999 V2000
   28.0579  -20.2568  -14.8340 N   0  0  0  0  0  0  0  0  0  0  0  0
   27.4313  -19.5210  -13.7733 C   0  0  1  0  0  0  0  0  0  0  0  0
   26.5298  -18.4753  -14.4049 C   0  0  0  0  0  0  0  0  0  0  0  0
   27.6045  -17.1708  -15.0691 S   0  0  0  0  0  0  0  0  0  0  0  0
   26.6643  -20.4141  -12.8691 C   0  0  0  0  0  0  0  0  0  0  0  0
   26.3142  -21.5239  -13.2774 O   0  0  0  0  0  0  0  0  0  0  0  0
   27.2239  -19.9221   -7.2622 C   0  0  0  0  0  0  0  0  0  0  0  0
   27.2291  -20.5644   -8.6594 C   0  0  0  0  0  0  0  0  0  0  0  0
   25.8431  -20.4719   -9.1712 C   0  0  2  0  0  0  0  0  0  0  0  0
   24.9527  -21.3884   -8.3177 C   0  0  0  0  0  0  0  0  0  0  0  0
   25.6141  -20.7610  -10.6062 C   0  0  2  0  0  0  0  0  0  0  0  0
   26.3403  -19.9855  -11.5453 N   0  0  0  0  0  0  0  0  0  0  0  0
   24.1744  -21.0030  -10.9622 C   0  0  0  0  0  0  0  0  0  0  0  0
   23.6045  -21.9141  -10.3097 O   0  0  0  0  0  0  0  0  0  0  0  0
   23.4587  -20.3129  -11.9317 N   0  0  0  0  0  0  0  0  0  0  0  0
   22.0142  -20.4228  -12.1329 C   0  0  1  0  0  0  0  0  0  0  0  0
   21.3314  -19.1177  -11.9050 C   0  0  0  0  0  0  0  0  0  0  0  0
   19.8751  -19.2196  -12.1355 C   0  0  0  0  0  0  0  0  0  0  0  0
   19.3218  -19.0037  -13.4030 C   0  0  0  0  0  0  0  0  0  0  0  0
   17.9779  -19.1129  -13.6678 C   0  0  0  0  0  0  0  0  0  0  0  0
   17.1254  -19.4523  -12.6365 C   0  0  0  0  0  0  0  0  0  0  0  0
   17.6620  -19.6668  -11.3849 C   0  0  0  0  0  0  0  0  0  0  0  0
   19.0056  -19.5617  -11.1024 C   0  0  0  0  0  0  0  0  0  0  0  0
   21.7293  -20.9235  -13.4851 C   0  0  0  0  0  0  0  0  0  0  0  0
   20.6644  -21.7268  -13.8337 O   0  0  0  0  0  0  0  0  0  0  0  0
   22.5144  -20.6039  -14.4141 O   0  0  0  0  0  0  0  0  0  0  0  0
  2  1  1  6
  3  2  1  0
  3  4  1  0
  5  2  1  0
  5  6  2  0
  7  8  1  0
  9  8  1  0
  9 11  1  0
  9 10  1  1
 11 12  1  6
 12  5  1  0
 13 11  1  0
 13 15  1  0
 14 13  2  0
 16 15  1  0
 16 24  1  0
 16 17  1  6
 18 17  1  0
 19 18  2  0
 20 19  1  0
 21 22  1  0
 21 20  2  0
 22 23  2  0
 23 18  1  0
 24 26  2  0
 24 25  1  0
M  END
$$$$
