CIF.pdb
     RDKit          3D

 26 26  0  0  1  0  0  0  0  0999 V2000
   28.5792  -18.4410  -16.3560 N   0  0  0  0  0  0  0  0  0  0  0  0
   27.2563  -18.9055  -16.6611 C   0  0  1  0  0  0  0  0  0  0  0  0
   27.3040  -19.5782  -18.0213 C   0  0  0  0  0  0  0  0  0  0  0  0
   29.0435  -19.9703  -18.3654 S   0  0  0  0  0  0  0  0  0  0  0  0
   26.7513  -19.8360  -15.6205 C   0  0  0  0  0  0  0  0  0  0  0  0
   25.9792  -20.7401  -15.9480 O   0  0  0  0  0  0  0  0  0  0  0  0
   29.6227  -21.1914  -10.9758 C   0  0  0  0  0  0  0  0  0  0  0  0
   28.8396  -21.2394  -12.2984 C   0  0  0  0  0  0  0  0  0  0  0  0
   27.5036  -20.6665  -12.0185 C   0  0  2  0  0  0  0  0  0  0  0  0
   26.7857  -21.5855  -11.0180 C   0  0  0  0  0  0  0  0  0  0  0  0
   26.6099  -20.3989  -13.1695 C   0  0  2  0  0  0  0  0  0  0  0  0
   27.1596  -19.6788  -14.2606 N   0  0  0  0  0  0  0  0  0  0  0  0
   25.2143  -19.9971  -12.7837 C   0  0  0  0  0  0  0  0  0  0  0  0
   25.1189  -18.9014  -12.1744 O   0  0  0  0  0  0  0  0  0  0  0  0
   24.0648  -20.7313  -13.0441 N   0  0  0  0  0  0  0  0  0  0  0  0
   22.7025  -20.2154  -12.9133 C   0  0  1  0  0  0  0  0  0  0  0  0
   22.4928  -19.0090  -13.7631 C   0  0  0  0  0  0  0  0  0  0  0  0
   21.0964  -18.5304  -13.6907 C   0  0  0  0  0  0  0  0  0  0  0  0
   20.6363  -17.7907  -12.5950 C   0  0  0  0  0  0  0  0  0  0  0  0
   19.3547  -17.3045  -12.4979 C   0  0  0  0  0  0  0  0  0  0  0  0
   18.4719  -17.5546  -13.5293 C   0  0  0  0  0  0  0  0  0  0  0  0
   18.9169  -18.2823  -14.6123 C   0  0  0  0  0  0  0  0  0  0  0  0
   20.1971  -18.7766  -14.7256 C   0  0  0  0  0  0  0  0  0  0  0  0
   21.7306  -21.2629  -13.2577 C   0  0  0  0  0  0  0  0  0  0  0  0
   20.5035  -21.4457  -12.6562 O   0  0  0  0  0  0  0  0  0  0  0  0
   22.0283  -22.0706  -14.1745 O   0  0  0  0  0  0  0  0  0  0  0  0
  2  1  1  1
  3  2  1  0
  3  4  1  0
  5  2  1  0
  5  6  2  0
  7  8  1  0
  9  8  1  0
  9 11  1  0
  9 10  1  1
 11 12  1  1
 12  5  1  0
 13 11  1  0
 13 15  1  0
 14 13  2  0
 16 15  1  0
 16 24  1  0
 16 17  1  6
 18 17  1  0
 19 18  2  0
 20 19  1  0
 21 22  1  0
 21 20  2  0
 22 23  2  0
 23 18  1  0
 24 26  2  0
 24 25  1  0
M  END
$$$$
