CIF.pdb
     RDKit          3D

 26 26  0  0  1  0  0  0  0  0999 V2000
   28.5988  -21.2056  -15.6277 N   0  0  0  0  0  0  0  0  0  0  0  0
   27.9448  -20.2254  -14.8088 C   0  0  1  0  0  0  0  0  0  0  0  0
   27.6477  -19.0180  -15.6800 C   0  0  0  0  0  0  0  0  0  0  0  0
   29.2286  -18.1819  -15.9957 S   0  0  0  0  0  0  0  0  0  0  0  0
   26.7035  -20.7646  -14.1989 C   0  0  0  0  0  0  0  0  0  0  0  0
   26.0765  -21.6447  -14.7932 O   0  0  0  0  0  0  0  0  0  0  0  0
   25.9771  -20.7592   -8.5986 C   0  0  0  0  0  0  0  0  0  0  0  0
   26.1443  -21.2006  -10.0621 C   0  0  0  0  0  0  0  0  0  0  0  0
   25.0239  -20.5943  -10.8161 C   0  0  2  0  0  0  0  0  0  0  0  0
   23.7108  -21.2015  -10.2983 C   0  0  0  0  0  0  0  0  0  0  0  0
   25.0568  -20.6817  -12.2948 C   0  0  2  0  0  0  0  0  0  0  0  0
   26.2487  -20.2648  -12.9402 N   0  0  0  0  0  0  0  0  0  0  0  0
   23.7859  -20.2415  -12.9649 C   0  0  0  0  0  0  0  0  0  0  0  0
   23.5163  -19.0182  -12.8566 O   0  0  0  0  0  0  0  0  0  0  0  0
   22.9195  -21.0679  -13.6682 N   0  0  0  0  0  0  0  0  0  0  0  0
   21.6623  -20.6297  -14.2738 C   0  0  1  0  0  0  0  0  0  0  0  0
   21.5971  -20.9934  -15.7177 C   0  0  0  0  0  0  0  0  0  0  0  0
   20.4128  -20.4006  -16.3736 C   0  0  0  0  0  0  0  0  0  0  0  0
   19.2333  -21.1342  -16.5471 C   0  0  0  0  0  0  0  0  0  0  0  0
   18.1011  -20.6155  -17.1279 C   0  0  0  0  0  0  0  0  0  0  0  0
   18.1214  -19.3059  -17.5642 C   0  0  0  0  0  0  0  0  0  0  0  0
   19.2790  -18.5763  -17.3971 C   0  0  0  0  0  0  0  0  0  0  0  0
   20.4219  -19.0803  -16.8174 C   0  0  0  0  0  0  0  0  0  0  0  0
   20.5232  -21.2066  -13.5458 C   0  0  0  0  0  0  0  0  0  0  0  0
   19.3285  -20.5670  -13.2917 O   0  0  0  0  0  0  0  0  0  0  0  0
   20.6312  -22.3808  -13.1087 O   0  0  0  0  0  0  0  0  0  0  0  0
  2  1  1  6
  3  2  1  0
  3  4  1  0
  5  2  1  0
  5  6  2  0
  7  8  1  0
  9  8  1  0
  9 11  1  0
  9 10  1  1
 11 12  1  6
 12  5  1  0
 13 11  1  0
 13 15  1  0
 14 13  2  0
 16 15  1  0
 16 24  1  0
 16 17  1  6
 18 17  1  0
 19 18  2  0
 20 19  1  0
 21 22  1  0
 21 20  2  0
 22 23  2  0
 23 18  1  0
 24 26  2  0
 24 25  1  0
M  END
$$$$
