CIF.pdb
     RDKit          3D

 26 26  0  0  1  0  0  0  0  0999 V2000
   17.0786  -13.6452  -18.7942 N   0  0  0  0  0  0  0  0  0  0  0  0
   17.5246  -13.1273  -17.5325 C   0  0  1  0  0  0  0  0  0  0  0  0
   18.5101  -14.1221  -16.9459 C   0  0  0  0  0  0  0  0  0  0  0  0
   17.5503  -15.5516  -16.3683 S   0  0  0  0  0  0  0  0  0  0  0  0
   18.1420  -11.7856  -17.6811 C   0  0  0  0  0  0  0  0  0  0  0  0
   18.7849  -11.5310  -18.7023 O   0  0  0  0  0  0  0  0  0  0  0  0
   15.4978   -7.6409  -16.2095 C   0  0  0  0  0  0  0  0  0  0  0  0
   16.6325   -8.0734  -17.1531 C   0  0  0  0  0  0  0  0  0  0  0  0
   17.8040   -8.3669  -16.2969 C   0  0  2  0  0  0  0  0  0  0  0  0
   18.6923   -7.1140  -16.2506 C   0  0  0  0  0  0  0  0  0  0  0  0
   18.6337   -9.5458  -16.6391 C   0  0  2  0  0  0  0  0  0  0  0  0
   17.9885  -10.8086  -16.6502 N   0  0  0  0  0  0  0  0  0  0  0  0
   20.0002   -9.5378  -16.0142 C   0  0  0  0  0  0  0  0  0  0  0  0
   20.0212   -9.6724  -14.7644 O   0  0  0  0  0  0  0  0  0  0  0  0
   21.1981   -9.3939  -16.7017 N   0  0  0  0  0  0  0  0  0  0  0  0
   22.5208   -9.4103  -16.0776 C   0  0  1  0  0  0  0  0  0  0  0  0
   23.5105  -10.1430  -16.9173 C   0  0  0  0  0  0  0  0  0  0  0  0
   24.8561  -10.1298  -16.3061 C   0  0  0  0  0  0  0  0  0  0  0  0
   25.1544  -10.9140  -15.1858 C   0  0  0  0  0  0  0  0  0  0  0  0
   26.3974  -10.9520  -14.6011 C   0  0  0  0  0  0  0  0  0  0  0  0
   27.4067  -10.1804  -15.1410 C   0  0  0  0  0  0  0  0  0  0  0  0
   27.1215   -9.4051  -16.2446 C   0  0  0  0  0  0  0  0  0  0  0  0
   25.8821   -9.3554  -16.8426 C   0  0  0  0  0  0  0  0  0  0  0  0
   22.9771   -8.0361  -15.8252 C   0  0  0  0  0  0  0  0  0  0  0  0
   23.5712   -7.5903  -14.6636 O   0  0  0  0  0  0  0  0  0  0  0  0
   22.8179   -7.1814  -16.7338 O   0  0  0  0  0  0  0  0  0  0  0  0
  2  1  1  6
  3  2  1  0
  3  4  1  0
  5  2  1  0
  5  6  2  0
  7  8  1  0
  9  8  1  0
  9 11  1  0
  9 10  1  6
 11 12  1  1
 12  5  1  0
 13 11  1  0
 13 15  1  0
 14 13  2  0
 16 15  1  0
 16 24  1  0
 16 17  1  6
 18 17  1  0
 19 18  2  0
 20 19  1  0
 21 22  1  0
 21 20  2  0
 22 23  2  0
 23 18  1  0
 24 26  2  0
 24 25  1  0
M  END
$$$$
