CIF.pdb
     RDKit          3D

 26 26  0  0  1  0  0  0  0  0999 V2000
   29.5007  -23.4507  -17.2149 N   0  0  0  0  0  0  0  0  0  0  0  0
   28.1878  -22.8840  -17.0953 C   0  0  1  0  0  0  0  0  0  0  0  0
   27.1914  -24.0288  -17.0546 C   0  0  0  0  0  0  0  0  0  0  0  0
   27.1639  -24.7756  -18.7098 S   0  0  0  0  0  0  0  0  0  0  0  0
   28.0709  -22.0287  -15.8877 C   0  0  0  0  0  0  0  0  0  0  0  0
   28.8067  -22.2493  -14.9229 O   0  0  0  0  0  0  0  0  0  0  0  0
   27.7519  -16.6169  -16.0227 C   0  0  0  0  0  0  0  0  0  0  0  0
   28.1293  -18.0444  -15.5927 C   0  0  0  0  0  0  0  0  0  0  0  0
   26.9070  -18.6479  -15.0154 C   0  0  2  0  0  0  0  0  0  0  0  0
   26.5601  -17.8908  -13.7241 C   0  0  0  0  0  0  0  0  0  0  0  0
   26.9156  -20.1045  -14.7444 C   0  0  2  0  0  0  0  0  0  0  0  0
   27.1161  -20.9666  -15.8524 N   0  0  0  0  0  0  0  0  0  0  0  0
   25.8611  -20.5552  -13.7734 C   0  0  0  0  0  0  0  0  0  0  0  0
   24.6968  -20.6332  -14.2414 O   0  0  0  0  0  0  0  0  0  0  0  0
   26.0799  -20.8770  -12.4404 N   0  0  0  0  0  0  0  0  0  0  0  0
   25.0404  -21.3195  -11.5116 C   0  0  1  0  0  0  0  0  0  0  0  0
   25.6228  -22.0469  -10.3483 C   0  0  0  0  0  0  0  0  0  0  0  0
   26.3894  -21.1391   -9.4692 C   0  0  0  0  0  0  0  0  0  0  0  0
   27.7857  -21.0680   -9.5365 C   0  0  0  0  0  0  0  0  0  0  0  0
   28.5361  -20.2208   -8.7571 C   0  0  0  0  0  0  0  0  0  0  0  0
   27.8863  -19.3961   -7.8608 C   0  0  0  0  0  0  0  0  0  0  0  0
   26.5112  -19.4598   -7.7881 C   0  0  0  0  0  0  0  0  0  0  0  0
   25.7443  -20.3024   -8.5615 C   0  0  0  0  0  0  0  0  0  0  0  0
   24.2481  -20.1688  -11.0549 C   0  0  0  0  0  0  0  0  0  0  0  0
   24.6319  -18.8474  -11.1415 O   0  0  0  0  0  0  0  0  0  0  0  0
   23.1238  -20.3903  -10.5368 O   0  0  0  0  0  0  0  0  0  0  0  0
  2  1  1  1
  3  2  1  0
  3  4  1  0
  5  2  1  0
  5  6  2  0
  7  8  1  0
  9  8  1  0
  9 11  1  0
  9 10  1  1
 11 12  1  6
 12  5  1  0
 13 11  1  0
 13 15  1  0
 14 13  2  0
 16 15  1  0
 16 24  1  0
 16 17  1  1
 18 17  1  0
 19 18  2  0
 20 19  1  0
 21 22  1  0
 21 20  2  0
 22 23  2  0
 23 18  1  0
 24 26  2  0
 24 25  1  0
M  END
$$$$
