CIF.pdb
     RDKit          3D

 26 26  0  0  1  0  0  0  0  0999 V2000
   27.8960  -18.1700  -16.7651 N   0  0  0  0  0  0  0  0  0  0  0  0
   27.4631  -17.8586  -15.4329 C   0  0  1  0  0  0  0  0  0  0  0  0
   26.4819  -16.7036  -15.5230 C   0  0  0  0  0  0  0  0  0  0  0  0
   27.4565  -15.1875  -15.7457 S   0  0  0  0  0  0  0  0  0  0  0  0
   26.8463  -19.0353  -14.7708 C   0  0  0  0  0  0  0  0  0  0  0  0
   26.2758  -19.8821  -15.4625 O   0  0  0  0  0  0  0  0  0  0  0  0
   29.2869  -21.4524  -10.5215 C   0  0  0  0  0  0  0  0  0  0  0  0
   28.5738  -21.2230  -11.8645 C   0  0  0  0  0  0  0  0  0  0  0  0
   27.1795  -20.8443  -11.5423 C   0  0  2  0  0  0  0  0  0  0  0  0
   26.4654  -22.0786  -10.9699 C   0  0  0  0  0  0  0  0  0  0  0  0
   26.3543  -20.2559  -12.6231 C   0  0  2  0  0  0  0  0  0  0  0  0
   26.9173  -19.1768  -13.3510 N   0  0  0  0  0  0  0  0  0  0  0  0
   24.9031  -20.0929  -12.2691 C   0  0  0  0  0  0  0  0  0  0  0  0
   24.6616  -19.2597  -11.3591 O   0  0  0  0  0  0  0  0  0  0  0  0
   23.8495  -20.7795  -12.8579 N   0  0  0  0  0  0  0  0  0  0  0  0
   22.4352  -20.4933  -12.6192 C   0  0  1  0  0  0  0  0  0  0  0  0
   22.0309  -19.1958  -13.2312 C   0  0  0  0  0  0  0  0  0  0  0  0
   22.2313  -19.2007  -14.6955 C   0  0  0  0  0  0  0  0  0  0  0  0
   23.4103  -18.7122  -15.2706 C   0  0  0  0  0  0  0  0  0  0  0  0
   23.6493  -18.7209  -16.6237 C   0  0  0  0  0  0  0  0  0  0  0  0
   22.6821  -19.2358  -17.4635 C   0  0  0  0  0  0  0  0  0  0  0  0
   21.5179  -19.7191  -16.9054 C   0  0  0  0  0  0  0  0  0  0  0  0
   21.2625  -19.7181  -15.5522 C   0  0  0  0  0  0  0  0  0  0  0  0
   21.6037  -21.5885  -13.1384 C   0  0  0  0  0  0  0  0  0  0  0  0
   20.2464  -21.7269  -12.9397 O   0  0  0  0  0  0  0  0  0  0  0  0
   22.1617  -22.4849  -13.8216 O   0  0  0  0  0  0  0  0  0  0  0  0
  2  1  1  6
  3  2  1  0
  3  4  1  0
  5  2  1  0
  5  6  2  0
  7  8  1  0
  9  8  1  0
  9 11  1  0
  9 10  1  6
 11 12  1  1
 12  5  1  0
 13 11  1  0
 13 15  1  0
 14 13  2  0
 16 15  1  0
 16 24  1  0
 16 17  1  6
 18 17  1  0
 19 18  2  0
 20 19  1  0
 21 22  1  0
 21 20  2  0
 22 23  2  0
 23 18  1  0
 24 26  2  0
 24 25  1  0
M  END
$$$$
