CIF.pdb
     RDKit          3D

 26 26  0  0  1  0  0  0  0  0999 V2000
   27.9288  -22.1270  -16.7666 N   0  0  0  0  0  0  0  0  0  0  0  0
   27.4811  -21.0175  -15.9742 C   0  0  1  0  0  0  0  0  0  0  0  0
   26.9007  -19.9791  -16.9176 C   0  0  0  0  0  0  0  0  0  0  0  0
   28.2969  -19.1782  -17.7586 S   0  0  0  0  0  0  0  0  0  0  0  0
   26.4814  -21.4391  -14.9610 C   0  0  0  0  0  0  0  0  0  0  0  0
   25.7337  -22.3866  -15.2142 O   0  0  0  0  0  0  0  0  0  0  0  0
   25.5088  -20.9176   -8.9110 C   0  0  0  0  0  0  0  0  0  0  0  0
   24.8420  -21.2255  -10.2620 C   0  0  0  0  0  0  0  0  0  0  0  0
   25.8060  -20.8209  -11.3101 C   0  0  2  0  0  0  0  0  0  0  0  0
   26.1880  -19.3518  -11.0716 C   0  0  0  0  0  0  0  0  0  0  0  0
   25.4068  -21.0019  -12.7254 C   0  0  2  0  0  0  0  0  0  0  0  0
   26.3938  -20.7509  -13.7122 N   0  0  0  0  0  0  0  0  0  0  0  0
   24.0375  -20.4747  -13.0500 C   0  0  0  0  0  0  0  0  0  0  0  0
   23.9373  -19.2219  -13.0832 O   0  0  0  0  0  0  0  0  0  0  0  0
   22.9155  -21.2525  -13.3037 N   0  0  0  0  0  0  0  0  0  0  0  0
   21.5676  -20.7233  -13.5096 C   0  0  1  0  0  0  0  0  0  0  0  0
   21.1098  -20.9294  -14.9130 C   0  0  0  0  0  0  0  0  0  0  0  0
   21.8640  -20.0814  -15.8598 C   0  0  0  0  0  0  0  0  0  0  0  0
   21.5766  -18.7192  -16.0051 C   0  0  0  0  0  0  0  0  0  0  0  0
   22.2683  -17.8888  -16.8537 C   0  0  0  0  0  0  0  0  0  0  0  0
   23.2995  -18.4184  -17.6033 C   0  0  0  0  0  0  0  0  0  0  0  0
   23.5893  -19.7591  -17.4662 C   0  0  0  0  0  0  0  0  0  0  0  0
   22.9065  -20.6050  -16.6209 C   0  0  0  0  0  0  0  0  0  0  0  0
   20.6302  -21.3480  -12.5654 C   0  0  0  0  0  0  0  0  0  0  0  0
   20.9234  -22.3998  -11.7237 O   0  0  0  0  0  0  0  0  0  0  0  0
   19.4568  -20.8991  -12.5094 O   0  0  0  0  0  0  0  0  0  0  0  0
  2  1  1  6
  3  2  1  0
  3  4  1  0
  5  2  1  0
  5  6  2  0
  7  8  1  0
  9  8  1  0
  9 11  1  0
  9 10  1  6
 11 12  1  6
 12  5  1  0
 13 11  1  0
 13 15  1  0
 14 13  2  0
 16 15  1  0
 16 24  1  0
 16 17  1  6
 18 17  1  0
 19 18  2  0
 20 19  1  0
 21 22  1  0
 21 20  2  0
 22 23  2  0
 23 18  1  0
 24 26  2  0
 24 25  1  0
M  END
$$$$
