CIF.pdb
     RDKit          3D

 26 26  0  0  1  0  0  0  0  0999 V2000
   21.2546  -21.4854  -13.3649 N   0  0  0  0  0  0  0  0  0  0  0  0
   21.9420  -20.6629  -12.4109 C   0  0  1  0  0  0  0  0  0  0  0  0
   21.0614  -20.5475  -11.1795 C   0  0  0  0  0  0  0  0  0  0  0  0
   19.6965  -19.4254  -11.5990 S   0  0  0  0  0  0  0  0  0  0  0  0
   23.2731  -21.2226  -12.0671 C   0  0  0  0  0  0  0  0  0  0  0  0
   23.3686  -22.4230  -11.8009 O   0  0  0  0  0  0  0  0  0  0  0  0
   27.6941  -21.2579  -14.9295 C   0  0  0  0  0  0  0  0  0  0  0  0
   26.4653  -21.4591  -14.0269 C   0  0  0  0  0  0  0  0  0  0  0  0
   26.7615  -20.7689  -12.7513 C   0  0  2  0  0  0  0  0  0  0  0  0
   28.0799  -21.3294  -12.1955 C   0  0  0  0  0  0  0  0  0  0  0  0
   25.7276  -20.8005  -11.6905 C   0  0  2  0  0  0  0  0  0  0  0  0
   24.4228  -20.3747  -12.0473 N   0  0  0  0  0  0  0  0  0  0  0  0
   26.2071  -20.3189  -10.3503 C   0  0  0  0  0  0  0  0  0  0  0  0
   25.4843  -19.4491   -9.8010 O   0  0  0  0  0  0  0  0  0  0  0  0
   27.3562  -20.7539   -9.7033 N   0  0  0  0  0  0  0  0  0  0  0  0
   27.8100  -20.2681   -8.4005 C   0  0  1  0  0  0  0  0  0  0  0  0
   26.8065  -20.5484   -7.3347 C   0  0  0  0  0  0  0  0  0  0  0  0
   27.2521  -20.0367   -6.0217 C   0  0  0  0  0  0  0  0  0  0  0  0
   28.1330  -18.9533   -5.9235 C   0  0  0  0  0  0  0  0  0  0  0  0
   28.5530  -18.4291   -4.7248 C   0  0  0  0  0  0  0  0  0  0  0  0
   28.0865  -18.9948   -3.5552 C   0  0  0  0  0  0  0  0  0  0  0  0
   27.2185  -20.0621   -3.6428 C   0  0  0  0  0  0  0  0  0  0  0  0
   26.7876  -20.5994   -4.8353 C   0  0  0  0  0  0  0  0  0  0  0  0
   29.1055  -20.8727   -8.0594 C   0  0  0  0  0  0  0  0  0  0  0  0
   30.1584  -20.2210   -7.4531 O   0  0  0  0  0  0  0  0  0  0  0  0
   29.2869  -22.0852   -8.3395 O   0  0  0  0  0  0  0  0  0  0  0  0
  2  1  1  6
  3  2  1  0
  3  4  1  0
  5  2  1  0
  5  6  2  0
  7  8  1  0
  9  8  1  0
  9 11  1  0
  9 10  1  1
 11 12  1  6
 12  5  1  0
 13 11  1  0
 13 15  1  0
 14 13  2  0
 16 15  1  0
 16 24  1  0
 16 17  1  1
 18 17  1  0
 19 18  2  0
 20 19  1  0
 21 22  1  0
 21 20  2  0
 22 23  2  0
 23 18  1  0
 24 26  2  0
 24 25  1  0
M  END
$$$$
