CIF.pdb
     RDKit          3D

 26 26  0  0  1  0  0  0  0  0999 V2000
   27.9404  -21.3659  -15.8160 N   0  0  0  0  0  0  0  0  0  0  0  0
   27.2150  -20.3465  -15.1133 C   0  0  1  0  0  0  0  0  0  0  0  0
   26.5791  -19.4345  -16.1473 C   0  0  0  0  0  0  0  0  0  0  0  0
   27.9181  -18.4768  -16.9141 S   0  0  0  0  0  0  0  0  0  0  0  0
   26.1907  -20.9297  -14.2110 C   0  0  0  0  0  0  0  0  0  0  0  0
   25.6741  -22.0093  -14.5084 O   0  0  0  0  0  0  0  0  0  0  0  0
   26.5495  -20.8244   -8.7371 C   0  0  0  0  0  0  0  0  0  0  0  0
   26.4052  -21.1946  -10.2227 C   0  0  0  0  0  0  0  0  0  0  0  0
   25.1144  -20.6284  -10.6749 C   0  0  2  0  0  0  0  0  0  0  0  0
   23.9863  -21.3117   -9.8864 C   0  0  0  0  0  0  0  0  0  0  0  0
   24.8043  -20.6812  -12.1228 C   0  0  2  0  0  0  0  0  0  0  0  0
   25.8146  -20.2427  -13.0162 N   0  0  0  0  0  0  0  0  0  0  0  0
   23.4129  -20.2327  -12.4702 C   0  0  0  0  0  0  0  0  0  0  0  0
   23.1719  -19.0164  -12.2622 O   0  0  0  0  0  0  0  0  0  0  0  0
   22.4109  -21.0449  -12.9846 N   0  0  0  0  0  0  0  0  0  0  0  0
   21.0827  -20.5763  -13.3790 C   0  0  1  0  0  0  0  0  0  0  0  0
   21.1643  -19.5560  -14.4624 C   0  0  0  0  0  0  0  0  0  0  0  0
   21.5664  -20.1618  -15.7491 C   0  0  0  0  0  0  0  0  0  0  0  0
   20.6296  -20.7747  -16.5895 C   0  0  0  0  0  0  0  0  0  0  0  0
   20.9546  -21.3274  -17.8048 C   0  0  0  0  0  0  0  0  0  0  0  0
   22.2691  -21.2792  -18.2237 C   0  0  0  0  0  0  0  0  0  0  0  0
   23.1982  -20.6774  -17.4022 C   0  0  0  0  0  0  0  0  0  0  0  0
   22.8897  -20.1188  -16.1819 C   0  0  0  0  0  0  0  0  0  0  0  0
   20.2518  -21.7121  -13.8031 C   0  0  0  0  0  0  0  0  0  0  0  0
   20.6860  -23.0130  -13.9448 O   0  0  0  0  0  0  0  0  0  0  0  0
   19.0409  -21.4966  -14.0651 O   0  0  0  0  0  0  0  0  0  0  0  0
  2  1  1  6
  3  2  1  0
  3  4  1  0
  5  2  1  0
  5  6  2  0
  7  8  1  0
  9  8  1  0
  9 11  1  0
  9 10  1  1
 11 12  1  6
 12  5  1  0
 13 11  1  0
 13 15  1  0
 14 13  2  0
 16 15  1  0
 16 24  1  0
 16 17  1  6
 18 17  1  0
 19 18  2  0
 20 19  1  0
 21 22  1  0
 21 20  2  0
 22 23  2  0
 23 18  1  0
 24 26  2  0
 24 25  1  0
M  END
$$$$
