CIF.pdb
     RDKit          3D

 26 26  0  0  1  0  0  0  0  0999 V2000
   25.0849  -16.4232  -16.9278 N   0  0  0  0  0  0  0  0  0  0  0  0
   26.0242  -16.8261  -15.9205 C   0  0  1  0  0  0  0  0  0  0  0  0
   25.8048  -15.9448  -14.7038 C   0  0  0  0  0  0  0  0  0  0  0  0
   26.5281  -14.3219  -15.0791 S   0  0  0  0  0  0  0  0  0  0  0  0
   25.8725  -18.2621  -15.5764 C   0  0  0  0  0  0  0  0  0  0  0  0
   24.7496  -18.7710  -15.6075 O   0  0  0  0  0  0  0  0  0  0  0  0
   28.2901  -22.2842  -17.8697 C   0  0  0  0  0  0  0  0  0  0  0  0
   27.2768  -21.3753  -17.1543 C   0  0  0  0  0  0  0  0  0  0  0  0
   27.6493  -21.3742  -15.7216 C   0  0  2  0  0  0  0  0  0  0  0  0
   27.4478  -22.7945  -15.1707 C   0  0  0  0  0  0  0  0  0  0  0  0
   26.9744  -20.4010  -14.8313 C   0  0  2  0  0  0  0  0  0  0  0  0
   27.0174  -19.0365  -15.2152 N   0  0  0  0  0  0  0  0  0  0  0  0
   27.1922  -20.6543  -13.3663 C   0  0  0  0  0  0  0  0  0  0  0  0
   28.3945  -20.7294  -13.0061 O   0  0  0  0  0  0  0  0  0  0  0  0
   26.1889  -20.8082  -12.4187 N   0  0  0  0  0  0  0  0  0  0  0  0
   26.4171  -20.9203  -10.9784 C   0  0  1  0  0  0  0  0  0  0  0  0
   27.2774  -19.8121  -10.4751 C   0  0  0  0  0  0  0  0  0  0  0  0
   27.6087  -19.9886   -9.0457 C   0  0  0  0  0  0  0  0  0  0  0  0
   28.4559  -21.0169   -8.6163 C   0  0  0  0  0  0  0  0  0  0  0  0
   28.8107  -21.2023   -7.3018 C   0  0  0  0  0  0  0  0  0  0  0  0
   28.3100  -20.3345   -6.3522 C   0  0  0  0  0  0  0  0  0  0  0  0
   27.4749  -19.3189   -6.7665 C   0  0  0  0  0  0  0  0  0  0  0  0
   27.1095  -19.1188   -8.0790 C   0  0  0  0  0  0  0  0  0  0  0  0
   25.1329  -20.9402  -10.2636 C   0  0  0  0  0  0  0  0  0  0  0  0
   24.8870  -21.5982   -9.0773 O   0  0  0  0  0  0  0  0  0  0  0  0
   24.1655  -20.3112  -10.7636 O   0  0  0  0  0  0  0  0  0  0  0  0
  2  1  1  6
  3  2  1  0
  3  4  1  0
  5  2  1  0
  5  6  2  0
  7  8  1  0
  9  8  1  0
  9 11  1  0
  9 10  1  1
 11 12  1  6
 12  5  1  0
 13 11  1  0
 13 15  1  0
 14 13  2  0
 16 15  1  0
 16 24  1  0
 16 17  1  1
 18 17  1  0
 19 18  2  0
 20 19  1  0
 21 22  1  0
 21 20  2  0
 22 23  2  0
 23 18  1  0
 24 26  2  0
 24 25  1  0
M  END
$$$$
