CIF.pdb
     RDKit          3D

 26 26  0  0  1  0  0  0  0  0999 V2000
   29.7063  -23.7936  -17.2578 N   0  0  0  0  0  0  0  0  0  0  0  0
   28.5590  -23.0035  -17.6021 C   0  0  1  0  0  0  0  0  0  0  0  0
   27.4712  -23.9496  -18.0781 C   0  0  0  0  0  0  0  0  0  0  0  0
   26.8155  -24.7952  -16.6107 S   0  0  0  0  0  0  0  0  0  0  0  0
   28.0940  -22.1872  -16.4528 C   0  0  0  0  0  0  0  0  0  0  0  0
   28.5692  -22.3998  -15.3348 O   0  0  0  0  0  0  0  0  0  0  0  0
   28.2328  -16.9921  -16.6043 C   0  0  0  0  0  0  0  0  0  0  0  0
   28.2936  -18.4026  -15.9949 C   0  0  0  0  0  0  0  0  0  0  0  0
   26.8925  -18.8487  -15.8237 C   0  0  2  0  0  0  0  0  0  0  0  0
   26.2783  -18.0673  -14.6518 C   0  0  0  0  0  0  0  0  0  0  0  0
   26.6453  -20.2971  -15.6324 C   0  0  2  0  0  0  0  0  0  0  0  0
   27.1089  -21.1712  -16.6484 N   0  0  0  0  0  0  0  0  0  0  0  0
   25.2819  -20.6216  -15.0906 C   0  0  0  0  0  0  0  0  0  0  0  0
   24.3391  -20.5331  -15.9177 O   0  0  0  0  0  0  0  0  0  0  0  0
   25.0044  -20.9967  -13.7827 N   0  0  0  0  0  0  0  0  0  0  0  0
   23.6834  -21.3911  -13.2945 C   0  0  1  0  0  0  0  0  0  0  0  0
   23.7837  -22.2175  -12.0581 C   0  0  0  0  0  0  0  0  0  0  0  0
   24.6077  -21.5530  -11.0267 C   0  0  0  0  0  0  0  0  0  0  0  0
   25.9865  -21.7785  -10.9399 C   0  0  0  0  0  0  0  0  0  0  0  0
   26.7945  -21.1632  -10.0142 C   0  0  0  0  0  0  0  0  0  0  0  0
   26.2239  -20.2774   -9.1223 C   0  0  0  0  0  0  0  0  0  0  0  0
   24.8666  -20.0495   -9.2009 C   0  0  0  0  0  0  0  0  0  0  0  0
   24.0428  -20.6572  -10.1220 C   0  0  0  0  0  0  0  0  0  0  0  0
   22.8583  -20.1992  -13.0513 C   0  0  0  0  0  0  0  0  0  0  0  0
   23.3239  -18.9032  -12.9842 O   0  0  0  0  0  0  0  0  0  0  0  0
   21.6217  -20.3569  -12.8860 O   0  0  0  0  0  0  0  0  0  0  0  0
  2  1  1  1
  3  2  1  0
  3  4  1  0
  5  2  1  0
  5  6  2  0
  7  8  1  0
  9  8  1  0
  9 11  1  0
  9 10  1  1
 11 12  1  6
 12  5  1  0
 13 11  1  0
 13 15  1  0
 14 13  2  0
 16 15  1  0
 16 24  1  0
 16 17  1  1
 18 17  1  0
 19 18  2  0
 20 19  1  0
 21 22  1  0
 21 20  2  0
 22 23  2  0
 23 18  1  0
 24 26  2  0
 24 25  1  0
M  END
$$$$
