CIF.pdb
     RDKit          3D

 26 26  0  0  1  0  0  0  0  0999 V2000
   27.7746  -23.1830  -15.9567 N   0  0  0  0  0  0  0  0  0  0  0  0
   27.3565  -21.8961  -15.4790 C   0  0  1  0  0  0  0  0  0  0  0  0
   26.9733  -21.0568  -16.6847 C   0  0  0  0  0  0  0  0  0  0  0  0
   28.4878  -20.7767  -17.6469 S   0  0  0  0  0  0  0  0  0  0  0  0
   26.2257  -22.0097  -14.5240 C   0  0  0  0  0  0  0  0  0  0  0  0
   25.4368  -22.9508  -14.6377 O   0  0  0  0  0  0  0  0  0  0  0  0
   26.7270  -20.8205   -9.1687 C   0  0  0  0  0  0  0  0  0  0  0  0
   26.4606  -21.4763  -10.5339 C   0  0  0  0  0  0  0  0  0  0  0  0
   25.3340  -20.7354  -11.1449 C   0  0  2  0  0  0  0  0  0  0  0  0
   24.0900  -20.9408  -10.2666 C   0  0  0  0  0  0  0  0  0  0  0  0
   24.9943  -21.0323  -12.5562 C   0  0  2  0  0  0  0  0  0  0  0  0
   26.0613  -21.0375  -13.4902 N   0  0  0  0  0  0  0  0  0  0  0  0
   23.7340  -20.3702  -13.0373 C   0  0  0  0  0  0  0  0  0  0  0  0
   23.8339  -19.1427  -13.2900 O   0  0  0  0  0  0  0  0  0  0  0  0
   22.5099  -21.0019  -13.2123 N   0  0  0  0  0  0  0  0  0  0  0  0
   21.3011  -20.3467  -13.7109 C   0  0  1  0  0  0  0  0  0  0  0  0
   21.4591  -19.9186  -15.1298 C   0  0  0  0  0  0  0  0  0  0  0  0
   21.5839  -21.0794  -16.0361 C   0  0  0  0  0  0  0  0  0  0  0  0
   21.6627  -20.9143  -17.4239 C   0  0  0  0  0  0  0  0  0  0  0  0
   21.8048  -21.9623  -18.3012 C   0  0  0  0  0  0  0  0  0  0  0  0
   21.8739  -23.2447  -17.7949 C   0  0  0  0  0  0  0  0  0  0  0  0
   21.7972  -23.4163  -16.4293 C   0  0  0  0  0  0  0  0  0  0  0  0
   21.6548  -22.3776  -15.5364 C   0  0  0  0  0  0  0  0  0  0  0  0
   20.1455  -21.2439  -13.5696 C   0  0  0  0  0  0  0  0  0  0  0  0
   20.1963  -22.5541  -13.1435 O   0  0  0  0  0  0  0  0  0  0  0  0
   19.0069  -20.7955  -13.8599 O   0  0  0  0  0  0  0  0  0  0  0  0
  2  1  1  6
  3  2  1  0
  3  4  1  0
  5  2  1  0
  5  6  2  0
  7  8  1  0
  9  8  1  0
  9 11  1  0
  9 10  1  1
 11 12  1  6
 12  5  1  0
 13 11  1  0
 13 15  1  0
 14 13  2  0
 16 15  1  0
 16 24  1  0
 16 17  1  6
 18 17  1  0
 19 18  2  0
 20 19  1  0
 21 22  1  0
 21 20  2  0
 22 23  2  0
 23 18  1  0
 24 26  2  0
 24 25  1  0
M  END
$$$$
