QCN.pdb
     RDKit          3D

 24 23  0  0  1  0  0  0  0  0999 V2000
   25.6055  -17.3847  -15.2580 N   0  0  0  0  0  0  0  0  0  0  0  0
   26.6749  -17.6057  -16.1723 C   0  0  0  0  0  0  0  0  0  0  0  0
   26.5503  -17.1338  -17.3203 O   0  0  0  0  0  0  0  0  0  0  0  0
   27.8560  -18.3506  -15.7814 C   0  0  0  0  0  0  0  0  0  0  0  0
   27.9601  -18.8397  -14.3928 C   0  0  0  0  0  0  0  0  0  0  0  0
   28.0808  -20.3040  -14.1728 C   0  0  2  0  0  0  0  0  0  0  0  0
   28.2844  -21.1167  -15.3221 N   0  0  0  0  0  0  0  0  0  0  0  0
   26.8274  -20.7389  -13.4894 C   0  0  0  0  0  0  0  0  0  0  0  0
   26.0597  -21.4712  -14.2022 O   0  0  0  0  0  0  0  0  0  0  0  0
   26.4466  -20.4188  -12.1849 N   0  0  0  0  0  0  0  0  0  0  0  0
   25.2124  -21.0026  -11.6577 C   0  0  1  0  0  0  0  0  0  0  0  0
   25.1709  -20.5483  -10.1927 C   0  0  0  0  0  0  0  0  0  0  0  0
   26.7369  -21.0589   -9.4499 S   0  0  0  0  0  0  0  0  0  0  0  0
   24.0251  -20.4517  -12.3292 C   0  0  0  0  0  0  0  0  0  0  0  0
   23.7462  -19.2197  -12.3547 O   0  0  0  0  0  0  0  0  0  0  0  0
   19.9095  -20.5154  -15.7900 N   0  0  0  0  0  0  0  0  0  0  0  0
   20.9393  -21.4383  -15.9830 C   0  0  0  0  0  0  0  0  0  0  0  0
   20.9468  -22.1315  -17.0431 O   0  0  0  0  0  0  0  0  0  0  0  0
   22.0297  -21.6672  -15.0386 C   0  0  0  0  0  0  0  0  0  0  0  0
   22.0073  -20.8578  -13.7862 C   0  0  2  0  0  0  0  0  0  0  0  0
   23.1472  -21.3326  -12.9802 N   0  0  0  0  0  0  0  0  0  0  0  0
   20.8039  -20.9938  -12.9582 C   0  0  0  0  0  0  0  0  0  0  0  0
   19.7626  -20.3688  -13.2571 O   0  0  0  0  0  0  0  0  0  0  0  0
   20.7944  -21.8024  -11.8485 O   0  0  0  0  0  0  0  0  0  0  0  0
  1  2  1  0
  2  4  1  0
  3  2  2  0
  5  4  1  0
  6  7  1  6
  6  5  1  0
  8  9  2  0
  8  6  1  0
 10  8  1  0
 11 10  1  0
 11 14  1  0
 11 12  1  1
 13 12  1  0
 14 21  1  0
 15 14  2  0
 16 17  1  0
 17 19  1  0
 18 17  2  0
 20 19  1  6
 20 22  1  0
 21 20  1  0
 22 23  2  0
 22 24  1  0
M  END
$$$$
