QCN.pdb
     RDKit          3D

 24 23  0  0  1  0  0  0  0  0999 V2000
   29.5191  -18.8396  -17.4042 N   0  0  0  0  0  0  0  0  0  0  0  0
   28.5940  -17.8745  -16.9132 C   0  0  0  0  0  0  0  0  0  0  0  0
   28.8869  -16.6721  -17.0708 O   0  0  0  0  0  0  0  0  0  0  0  0
   27.3658  -18.2771  -16.2560 C   0  0  0  0  0  0  0  0  0  0  0  0
   27.0313  -19.7133  -16.1936 C   0  0  0  0  0  0  0  0  0  0  0  0
   27.8507  -20.5859  -15.3137 C   0  0  2  0  0  0  0  0  0  0  0  0
   28.6063  -21.6134  -15.9431 N   0  0  0  0  0  0  0  0  0  0  0  0
   26.9122  -21.2075  -14.3338 C   0  0  0  0  0  0  0  0  0  0  0  0
   27.1467  -22.4381  -14.0800 O   0  0  0  0  0  0  0  0  0  0  0  0
   25.8422  -20.5724  -13.7008 N   0  0  0  0  0  0  0  0  0  0  0  0
   25.0319  -21.3468  -12.7597 C   0  0  1  0  0  0  0  0  0  0  0  0
   25.9776  -21.6297  -11.5849 C   0  0  0  0  0  0  0  0  0  0  0  0
   25.7126  -20.3094  -10.3802 S   0  0  0  0  0  0  0  0  0  0  0  0
   23.9028  -20.5579  -12.2433 C   0  0  0  0  0  0  0  0  0  0  0  0
   23.9944  -19.3420  -11.9121 O   0  0  0  0  0  0  0  0  0  0  0  0
   20.3258  -18.8197  -15.4269 N   0  0  0  0  0  0  0  0  0  0  0  0
   20.5234  -20.1283  -14.9818 C   0  0  0  0  0  0  0  0  0  0  0  0
   19.6799  -21.0164  -15.3044 O   0  0  0  0  0  0  0  0  0  0  0  0
   21.6512  -20.5585  -14.1594 C   0  0  0  0  0  0  0  0  0  0  0  0
   21.4209  -20.6088  -12.6868 C   0  0  2  0  0  0  0  0  0  0  0  0
   22.6511  -21.1784  -12.1067 N   0  0  0  0  0  0  0  0  0  0  0  0
   20.3027  -21.4480  -12.2425 C   0  0  0  0  0  0  0  0  0  0  0  0
   19.2454  -20.9198  -11.8335 O   0  0  0  0  0  0  0  0  0  0  0  0
   20.3914  -22.8181  -12.2662 O   0  0  0  0  0  0  0  0  0  0  0  0
  1  2  1  0
  2  4  1  0
  3  2  2  0
  5  4  1  0
  6  7  1  6
  6  5  1  0
  8  9  2  0
  8  6  1  0
 10  8  1  0
 11 10  1  0
 11 14  1  0
 11 12  1  1
 13 12  1  0
 14 21  1  0
 15 14  2  0
 16 17  1  0
 17 19  1  0
 18 17  2  0
 20 19  1  6
 20 22  1  0
 21 20  1  0
 22 23  2  0
 22 24  1  0
M  END
$$$$
