QCN.pdb
     RDKit          3D

 24 23  0  0  1  0  0  0  0  0999 V2000
   28.3761  -19.4533  -18.6029 N   0  0  0  0  0  0  0  0  0  0  0  0
   29.0610  -18.6948  -17.6110 C   0  0  0  0  0  0  0  0  0  0  0  0
   29.7485  -17.7309  -18.0040 O   0  0  0  0  0  0  0  0  0  0  0  0
   28.9624  -19.0339  -16.2046 C   0  0  0  0  0  0  0  0  0  0  0  0
   28.1325  -20.1884  -15.8088 C   0  0  0  0  0  0  0  0  0  0  0  0
   26.8844  -19.9258  -15.0470 C   0  0  2  0  0  0  0  0  0  0  0  0
   26.7893  -18.6786  -14.3700 N   0  0  0  0  0  0  0  0  0  0  0  0
   26.7517  -21.0282  -14.0497 C   0  0  0  0  0  0  0  0  0  0  0  0
   26.9535  -22.1990  -14.5213 O   0  0  0  0  0  0  0  0  0  0  0  0
   26.4366  -20.8825  -12.6975 N   0  0  0  0  0  0  0  0  0  0  0  0
   25.2499  -21.5670  -12.1823 C   0  0  1  0  0  0  0  0  0  0  0  0
   25.3950  -21.4861  -10.6569 C   0  0  0  0  0  0  0  0  0  0  0  0
   25.3764  -19.7306  -10.2295 S   0  0  0  0  0  0  0  0  0  0  0  0
   24.0151  -20.8577  -12.5511 C   0  0  0  0  0  0  0  0  0  0  0  0
   23.9880  -19.6505  -12.9229 O   0  0  0  0  0  0  0  0  0  0  0  0
   22.2249  -19.6344  -16.5966 N   0  0  0  0  0  0  0  0  0  0  0  0
   21.4865  -20.1036  -15.5083 C   0  0  0  0  0  0  0  0  0  0  0  0
   20.3858  -19.5420  -15.2301 O   0  0  0  0  0  0  0  0  0  0  0  0
   21.8939  -21.2148  -14.6524 C   0  0  0  0  0  0  0  0  0  0  0  0
   21.5884  -21.0829  -13.1988 C   0  0  2  0  0  0  0  0  0  0  0  0
   22.7948  -21.5489  -12.4905 N   0  0  0  0  0  0  0  0  0  0  0  0
   20.4607  -21.8821  -12.7071 C   0  0  0  0  0  0  0  0  0  0  0  0
   20.6700  -22.9477  -12.0865 O   0  0  0  0  0  0  0  0  0  0  0  0
   19.1638  -21.4816  -12.9149 O   0  0  0  0  0  0  0  0  0  0  0  0
  1  2  1  0
  2  4  1  0
  3  2  2  0
  5  4  1  0
  6  7  1  1
  6  5  1  0
  8  9  2  0
  8  6  1  0
 10  8  1  0
 11 10  1  0
 11 14  1  0
 11 12  1  1
 13 12  1  0
 14 21  1  0
 15 14  2  0
 16 17  1  0
 17 19  1  0
 18 17  2  0
 20 19  1  6
 20 22  1  0
 21 20  1  0
 22 23  2  0
 22 24  1  0
M  END
$$$$
