QCN.pdb
     RDKit          3D

 24 23  0  0  1  0  0  0  0  0999 V2000
   16.2766  -13.9737  -15.9059 N   0  0  0  0  0  0  0  0  0  0  0  0
   17.4388  -14.7723  -16.1059 C   0  0  0  0  0  0  0  0  0  0  0  0
   17.2641  -15.9856  -16.3375 O   0  0  0  0  0  0  0  0  0  0  0  0
   18.7675  -14.1954  -16.0397 C   0  0  0  0  0  0  0  0  0  0  0  0
   18.9042  -12.7617  -15.7173 C   0  0  0  0  0  0  0  0  0  0  0  0
   19.6283  -11.8928  -16.6807 C   0  0  2  0  0  0  0  0  0  0  0  0
   20.4344  -12.5404  -17.6572 N   0  0  0  0  0  0  0  0  0  0  0  0
   20.4889  -10.9810  -15.8713 C   0  0  0  0  0  0  0  0  0  0  0  0
   20.0011  -10.6593  -14.7345 O   0  0  0  0  0  0  0  0  0  0  0  0
   21.7342  -10.4740  -16.2473 N   0  0  0  0  0  0  0  0  0  0  0  0
   22.3840   -9.5021  -15.3669 C   0  0  1  0  0  0  0  0  0  0  0  0
   23.8801   -9.6486  -15.6751 C   0  0  0  0  0  0  0  0  0  0  0  0
   24.4538  -11.1015  -14.7669 S   0  0  0  0  0  0  0  0  0  0  0  0
   21.9925   -8.1243  -15.7020 C   0  0  0  0  0  0  0  0  0  0  0  0
   21.9108   -7.6901  -16.8857 O   0  0  0  0  0  0  0  0  0  0  0  0
   20.1108   -3.1832  -15.0245 N   0  0  0  0  0  0  0  0  0  0  0  0
   19.3792   -4.3094  -14.6419 C   0  0  0  0  0  0  0  0  0  0  0  0
   18.1559   -4.1702  -14.3444 O   0  0  0  0  0  0  0  0  0  0  0  0
   19.9276   -5.6606  -14.5598 C   0  0  0  0  0  0  0  0  0  0  0  0
   21.3713   -5.8155  -14.9002 C   0  0  2  0  0  0  0  0  0  0  0  0
   21.6912   -7.2346  -14.6589 N   0  0  0  0  0  0  0  0  0  0  0  0
   22.3064   -5.0177  -14.0995 C   0  0  0  0  0  0  0  0  0  0  0  0
   22.5015   -5.2993  -12.8967 O   0  0  0  0  0  0  0  0  0  0  0  0
   22.9817   -3.9552  -14.6479 O   0  0  0  0  0  0  0  0  0  0  0  0
  1  2  1  0
  2  4  1  0
  3  2  2  0
  5  4  1  0
  6  7  1  6
  6  5  1  0
  8  9  2  0
  8  6  1  0
 10  8  1  0
 11 10  1  0
 11 14  1  0
 11 12  1  6
 13 12  1  0
 14 21  1  0
 15 14  2  0
 16 17  1  0
 17 19  1  0
 18 17  2  0
 20 19  1  1
 20 22  1  0
 21 20  1  0
 22 23  2  0
 22 24  1  0
M  END
$$$$
