QCN.pdb
     RDKit          3D

 24 23  0  0  1  0  0  0  0  0999 V2000
   13.3623  -13.7120  -11.1662 N   0  0  0  0  0  0  0  0  0  0  0  0
   12.8920  -12.9188  -10.0808 C   0  0  0  0  0  0  0  0  0  0  0  0
   12.2919  -13.5100   -9.1607 O   0  0  0  0  0  0  0  0  0  0  0  0
   13.1020  -11.4844  -10.0520 C   0  0  0  0  0  0  0  0  0  0  0  0
   13.9264  -10.8657  -11.1084 C   0  0  0  0  0  0  0  0  0  0  0  0
   13.3336   -9.7578  -11.9011 C   0  0  2  0  0  0  0  0  0  0  0  0
   12.1297  -10.0374  -12.6048 N   0  0  0  0  0  0  0  0  0  0  0  0
   14.3754   -9.3258  -12.8784 C   0  0  0  0  0  0  0  0  0  0  0  0
   14.7725  -10.2447  -13.6733 O   0  0  0  0  0  0  0  0  0  0  0  0
   14.9258   -8.0472  -12.9847 N   0  0  0  0  0  0  0  0  0  0  0  0
   15.7811   -7.7517  -14.1350 C   0  0  1  0  0  0  0  0  0  0  0  0
   15.0532   -6.6188  -14.8705 C   0  0  0  0  0  0  0  0  0  0  0  0
   13.6434   -7.3728  -15.7125 S   0  0  0  0  0  0  0  0  0  0  0  0
   17.0939   -7.2387  -13.7137 C   0  0  0  0  0  0  0  0  0  0  0  0
   17.2762   -6.5722  -12.6559 O   0  0  0  0  0  0  0  0  0  0  0  0
   22.3374   -6.3886  -13.6280 N   0  0  0  0  0  0  0  0  0  0  0  0
   21.7669   -7.6441  -13.4093 C   0  0  0  0  0  0  0  0  0  0  0  0
   22.4951   -8.5738  -12.9514 O   0  0  0  0  0  0  0  0  0  0  0  0
   20.3677   -7.9714  -13.6711 C   0  0  0  0  0  0  0  0  0  0  0  0
   19.5300   -6.8892  -14.2636 C   0  0  2  0  0  0  0  0  0  0  0  0
   18.2118   -7.4973  -14.5223 N   0  0  0  0  0  0  0  0  0  0  0  0
   20.0082   -6.3331  -15.5341 C   0  0  0  0  0  0  0  0  0  0  0  0
   19.7551   -6.9182  -16.6101 O   0  0  0  0  0  0  0  0  0  0  0  0
   20.7364   -5.1695  -15.5694 O   0  0  0  0  0  0  0  0  0  0  0  0
  1  2  1  0
  2  4  1  0
  3  2  2  0
  5  4  1  0
  6  7  1  6
  6  5  1  0
  8  9  2  0
  8  6  1  0
 10  8  1  0
 11 10  1  0
 11 14  1  0
 11 12  1  6
 13 12  1  0
 14 21  1  0
 15 14  2  0
 16 17  1  0
 17 19  1  0
 18 17  2  0
 20 19  1  6
 20 22  1  0
 21 20  1  0
 22 23  2  0
 22 24  1  0
M  END
$$$$
