QCN.pdb
     RDKit          3D

 24 23  0  0  1  0  0  0  0  0999 V2000
   16.5205  -13.5064  -14.5772 N   0  0  0  0  0  0  0  0  0  0  0  0
   16.6647  -14.0452  -15.8876 C   0  0  0  0  0  0  0  0  0  0  0  0
   16.1729  -15.1722  -16.0980 O   0  0  0  0  0  0  0  0  0  0  0  0
   17.3570  -13.3122  -16.9297 C   0  0  0  0  0  0  0  0  0  0  0  0
   17.8950  -11.9735  -16.6189 C   0  0  0  0  0  0  0  0  0  0  0  0
   19.2949  -11.6717  -17.0147 C   0  0  2  0  0  0  0  0  0  0  0  0
   20.2677  -12.6808  -16.7735 N   0  0  0  0  0  0  0  0  0  0  0  0
   19.6900  -10.4343  -16.2799 C   0  0  0  0  0  0  0  0  0  0  0  0
   18.7317   -9.8502  -15.6681 O   0  0  0  0  0  0  0  0  0  0  0  0
   20.9738   -9.8895  -16.2141 N   0  0  0  0  0  0  0  0  0  0  0  0
   21.1466   -8.5941  -15.5554 C   0  0  1  0  0  0  0  0  0  0  0  0
   22.6447   -8.5285  -15.2297 C   0  0  0  0  0  0  0  0  0  0  0  0
   22.9155   -9.6312  -13.8241 S   0  0  0  0  0  0  0  0  0  0  0  0
   20.8391   -7.4804  -16.4659 C   0  0  0  0  0  0  0  0  0  0  0  0
   21.0902   -7.5012  -17.7040 O   0  0  0  0  0  0  0  0  0  0  0  0
   17.2394   -4.0989  -18.8405 N   0  0  0  0  0  0  0  0  0  0  0  0
   17.5730   -4.2481  -17.4929 C   0  0  0  0  0  0  0  0  0  0  0  0
   17.2197   -3.3490  -16.6737 O   0  0  0  0  0  0  0  0  0  0  0  0
   18.3098   -5.3846  -16.9463 C   0  0  0  0  0  0  0  0  0  0  0  0
   19.7840   -5.2143  -16.7994 C   0  0  2  0  0  0  0  0  0  0  0  0
   20.2338   -6.3270  -15.9426 N   0  0  0  0  0  0  0  0  0  0  0  0
   20.2236   -3.9693  -16.1601 C   0  0  0  0  0  0  0  0  0  0  0  0
   20.0800   -2.8760  -16.7503 O   0  0  0  0  0  0  0  0  0  0  0  0
   20.7960   -3.9768  -14.9119 O   0  0  0  0  0  0  0  0  0  0  0  0
  1  2  1  0
  2  4  1  0
  3  2  2  0
  5  4  1  0
  6  7  1  1
  6  5  1  0
  8  9  2  0
  8  6  1  0
 10  8  1  0
 11 10  1  0
 11 14  1  0
 11 12  1  6
 13 12  1  0
 14 21  1  0
 15 14  2  0
 16 17  1  0
 17 19  1  0
 18 17  2  0
 20 19  1  1
 20 22  1  0
 21 20  1  0
 22 23  2  0
 22 24  1  0
M  END
$$$$
