QCN.pdb
     RDKit          3D

 24 23  0  0  1  0  0  0  0  0999 V2000
   21.0341  -20.3940  -16.4345 N   0  0  0  0  0  0  0  0  0  0  0  0
   20.5009  -19.6803  -17.5457 C   0  0  0  0  0  0  0  0  0  0  0  0
   19.9555  -20.3507  -18.4454 O   0  0  0  0  0  0  0  0  0  0  0  0
   20.5927  -18.2354  -17.6249 C   0  0  0  0  0  0  0  0  0  0  0  0
   21.1327  -17.4935  -16.4690 C   0  0  0  0  0  0  0  0  0  0  0  0
   22.5034  -17.8253  -16.0018 C   0  0  2  0  0  0  0  0  0  0  0  0
   22.6235  -18.8516  -15.0245 N   0  0  0  0  0  0  0  0  0  0  0  0
   23.0853  -16.5652  -15.4532 C   0  0  0  0  0  0  0  0  0  0  0  0
   22.5053  -16.1250  -14.4027 O   0  0  0  0  0  0  0  0  0  0  0  0
   24.1695  -15.8608  -15.9798 N   0  0  0  0  0  0  0  0  0  0  0  0
   24.5836  -14.6238  -15.3161 C   0  0  1  0  0  0  0  0  0  0  0  0
   26.0465  -14.4353  -15.7391 C   0  0  0  0  0  0  0  0  0  0  0  0
   27.0179  -15.6167  -14.7771 S   0  0  0  0  0  0  0  0  0  0  0  0
   23.8236  -13.4656  -15.8107 C   0  0  0  0  0  0  0  0  0  0  0  0
   23.3859  -13.3707  -16.9922 O   0  0  0  0  0  0  0  0  0  0  0  0
   21.2947   -8.7053  -15.4202 N   0  0  0  0  0  0  0  0  0  0  0  0
   21.8918   -9.1425  -14.2361 C   0  0  0  0  0  0  0  0  0  0  0  0
   21.8034   -8.4146  -13.2033 O   0  0  0  0  0  0  0  0  0  0  0  0
   22.6217  -10.3998  -14.0955 C   0  0  0  0  0  0  0  0  0  0  0  0
   22.7545  -11.2340  -15.3245 C   0  0  2  0  0  0  0  0  0  0  0  0
   23.5644  -12.4021  -14.9319 N   0  0  0  0  0  0  0  0  0  0  0  0
   23.4323  -10.5977  -16.4593 C   0  0  0  0  0  0  0  0  0  0  0  0
   24.6697  -10.4180  -16.4309 O   0  0  0  0  0  0  0  0  0  0  0  0
   22.7301  -10.1901  -17.5668 O   0  0  0  0  0  0  0  0  0  0  0  0
  1  2  1  0
  2  4  1  0
  3  2  2  0
  5  4  1  0
  6  7  1  1
  6  5  1  0
  8  9  2  0
  8  6  1  0
 10  8  1  0
 11 10  1  0
 11 14  1  0
 11 12  1  6
 13 12  1  0
 14 21  1  0
 15 14  2  0
 16 17  1  0
 17 19  1  0
 18 17  2  0
 20 19  1  1
 20 22  1  0
 21 20  1  0
 22 23  2  0
 22 24  1  0
M  END
$$$$
