QCN.pdb
     RDKit          3D

 24 23  0  0  1  0  0  0  0  0999 V2000
   18.9566  -15.1136  -15.3205 N   0  0  0  0  0  0  0  0  0  0  0  0
   17.7897  -15.5092  -16.0348 C   0  0  0  0  0  0  0  0  0  0  0  0
   17.4368  -16.7015  -15.9348 O   0  0  0  0  0  0  0  0  0  0  0  0
   17.0475  -14.5629  -16.8450 C   0  0  0  0  0  0  0  0  0  0  0  0
   17.5112  -13.1630  -16.9060 C   0  0  0  0  0  0  0  0  0  0  0  0
   17.3918  -12.3313  -15.6807 C   0  0  2  0  0  0  0  0  0  0  0  0
   16.2425  -12.5365  -14.8685 N   0  0  0  0  0  0  0  0  0  0  0  0
   17.4209  -10.9071  -16.1258 C   0  0  0  0  0  0  0  0  0  0  0  0
   18.2777  -10.6530  -17.0397 O   0  0  0  0  0  0  0  0  0  0  0  0
   16.6167   -9.8751  -15.6388 N   0  0  0  0  0  0  0  0  0  0  0  0
   16.8227   -8.5252  -16.1656 C   0  0  1  0  0  0  0  0  0  0  0  0
   15.4261   -7.8900  -16.1439 C   0  0  0  0  0  0  0  0  0  0  0  0
   14.4493   -8.7491  -17.3980 S   0  0  0  0  0  0  0  0  0  0  0  0
   17.6889   -7.7281  -15.2835 C   0  0  0  0  0  0  0  0  0  0  0  0
   17.6000   -7.7378  -14.0232 O   0  0  0  0  0  0  0  0  0  0  0  0
   22.0520   -5.0302  -13.8630 N   0  0  0  0  0  0  0  0  0  0  0  0
   21.9627   -6.3812  -14.2042 C   0  0  0  0  0  0  0  0  0  0  0  0
   22.9559   -7.1344  -13.9789 O   0  0  0  0  0  0  0  0  0  0  0  0
   20.7883   -7.0032  -14.8101 C   0  0  0  0  0  0  0  0  0  0  0  0
   19.6141   -6.1160  -15.0510 C   0  0  2  0  0  0  0  0  0  0  0  0
   18.6710   -6.9084  -15.8615 N   0  0  0  0  0  0  0  0  0  0  0  0
   19.8882   -4.8788  -15.7900 C   0  0  0  0  0  0  0  0  0  0  0  0
   20.1858   -3.8321  -15.1734 O   0  0  0  0  0  0  0  0  0  0  0  0
   19.8251   -4.8432  -17.1613 O   0  0  0  0  0  0  0  0  0  0  0  0
  1  2  1  0
  2  4  1  0
  3  2  2  0
  5  4  1  0
  6  7  1  6
  6  5  1  0
  8  9  2  0
  8  6  1  0
 10  8  1  0
 11 10  1  0
 11 14  1  0
 11 12  1  1
 13 12  1  0
 14 21  1  0
 15 14  2  0
 16 17  1  0
 17 19  1  0
 18 17  2  0
 20 19  1  6
 20 22  1  0
 21 20  1  0
 22 23  2  0
 22 24  1  0
M  END
$$$$
