QCN.pdb
     RDKit          3D

 24 23  0  0  1  0  0  0  0  0999 V2000
   20.5629  -14.7298  -15.3177 N   0  0  0  0  0  0  0  0  0  0  0  0
   19.6690  -15.6664  -15.9111 C   0  0  0  0  0  0  0  0  0  0  0  0
   19.7711  -16.8573  -15.5538 O   0  0  0  0  0  0  0  0  0  0  0  0
   18.6848  -15.2492  -16.8909 C   0  0  0  0  0  0  0  0  0  0  0  0
   18.5349  -13.8094  -17.1785 C   0  0  0  0  0  0  0  0  0  0  0  0
   17.5429  -13.0365  -16.3875 C   0  0  2  0  0  0  0  0  0  0  0  0
   16.1697  -13.3453  -16.5919 N   0  0  0  0  0  0  0  0  0  0  0  0
   17.7674  -11.5966  -16.7092 C   0  0  0  0  0  0  0  0  0  0  0  0
   17.5244  -11.2788  -17.9232 O   0  0  0  0  0  0  0  0  0  0  0  0
   18.2049  -10.6123  -15.8210 N   0  0  0  0  0  0  0  0  0  0  0  0
   18.2577   -9.2267  -16.2894 C   0  0  1  0  0  0  0  0  0  0  0  0
   16.7870   -8.7985  -16.3805 C   0  0  0  0  0  0  0  0  0  0  0  0
   16.0800   -9.0288  -14.7336 S   0  0  0  0  0  0  0  0  0  0  0  0
   18.9174   -8.3505  -15.3091 C   0  0  0  0  0  0  0  0  0  0  0  0
   18.9385   -8.5835  -14.0675 O   0  0  0  0  0  0  0  0  0  0  0  0
   22.1591   -4.3402  -13.7285 N   0  0  0  0  0  0  0  0  0  0  0  0
   22.5439   -5.1874  -14.7696 C   0  0  0  0  0  0  0  0  0  0  0  0
   23.7432   -5.1495  -15.1755 O   0  0  0  0  0  0  0  0  0  0  0  0
   21.6523   -6.1328  -15.4364 C   0  0  0  0  0  0  0  0  0  0  0  0
   20.2856   -6.2807  -14.8584 C   0  0  2  0  0  0  0  0  0  0  0  0
   19.5615   -7.1899  -15.7658 N   0  0  0  0  0  0  0  0  0  0  0  0
   19.4964   -5.0480  -14.7587 C   0  0  0  0  0  0  0  0  0  0  0  0
   18.7546   -4.6996  -15.7035 O   0  0  0  0  0  0  0  0  0  0  0  0
   19.5540   -4.2580  -13.6370 O   0  0  0  0  0  0  0  0  0  0  0  0
  1  2  1  0
  2  4  1  0
  3  2  2  0
  5  4  1  0
  6  7  1  6
  6  5  1  0
  8  9  2  0
  8  6  1  0
 10  8  1  0
 11 10  1  0
 11 14  1  0
 11 12  1  1
 13 12  1  0
 14 21  1  0
 15 14  2  0
 16 17  1  0
 17 19  1  0
 18 17  2  0
 20 19  1  6
 20 22  1  0
 21 20  1  0
 22 23  2  0
 22 24  1  0
M  END
$$$$
