NYH.pdb
     RDKit          3D

 31 32  0  0  1  0  0  0  0  0999 V2000
   10.3370  -18.1714   14.8646 N   0  0  0  0  0  0  0  0  0  0  0  0
   10.5163  -16.7963   15.1340 C   0  0  0  0  0  0  0  0  0  0  0  0
   10.3809  -16.0004   14.1750 O   0  0  0  0  0  0  0  0  0  0  0  0
   10.8465  -16.2845   16.4620 C   0  0  0  0  0  0  0  0  0  0  0  0
   11.0484  -17.3409   17.5122 C   0  0  2  0  0  0  0  0  0  0  0  0
    9.9644  -18.2989   17.4834 N   0  0  0  0  0  0  0  0  0  0  0  0
   11.2423  -16.7742   18.8780 C   0  0  0  0  0  0  0  0  0  0  0  0
   12.3099  -16.1630   19.1396 O   0  0  0  0  0  0  0  0  0  0  0  0
    7.2141  -11.6894   17.9595 O   0  0  0  0  0  0  0  0  0  0  0  0
    7.7117  -12.6464   18.8672 C   0  0  0  0  0  0  0  0  0  0  0  0
    9.0154  -12.5988   19.3070 C   0  0  0  0  0  0  0  0  0  0  0  0
    9.4918  -13.5420   20.1964 C   0  0  0  0  0  0  0  0  0  0  0  0
    8.7060  -14.5631   20.6843 C   0  0  0  0  0  0  0  0  0  0  0  0
    9.2085  -15.5630   21.6291 C   0  0  0  0  0  0  0  0  0  0  0  0
   10.4445  -16.2816   21.2138 C   0  0  2  0  0  0  0  0  0  0  0  0
   10.2786  -16.8894   19.9090 N   0  0  0  0  0  0  0  0  0  0  0  0
   10.9828  -17.2505   22.1637 C   0  0  0  0  0  0  0  0  0  0  0  0
   10.2219  -18.1661   22.6251 O   0  0  0  0  0  0  0  0  0  0  0  0
    7.4035  -14.6026   20.2389 C   0  0  0  0  0  0  0  0  0  0  0  0
    6.9098  -13.6582   19.3420 C   0  0  0  0  0  0  0  0  0  0  0  0
   12.3155  -17.2665   22.6311 N   0  0  0  0  0  0  0  0  0  0  0  0
   12.7812  -18.2772   23.5951 C   0  0  1  0  0  0  0  0  0  0  0  0
   14.2956  -18.2231   23.5087 C   0  0  0  0  0  0  0  0  0  0  0  0
   14.9795  -19.1682   24.3873 C   0  0  0  0  0  0  0  0  0  0  0  0
   14.3997  -20.1833   25.1114 C   0  0  0  0  0  0  0  0  0  0  0  0
   15.3730  -20.8298   25.8039 N   0  0  0  0  0  0  0  0  0  0  0  0
   16.5553  -20.2239   25.5156 C   0  0  0  0  0  0  0  0  0  0  0  0
   16.2953  -19.2139   24.6509 N   0  0  0  0  0  0  0  0  0  0  0  0
   12.3409  -17.9262   24.9639 C   0  0  0  0  0  0  0  0  0  0  0  0
   12.3004  -16.7707   25.4380 O   0  0  0  0  0  0  0  0  0  0  0  0
   11.9304  -18.9510   25.8188 O   0  0  0  0  0  0  0  0  0  0  0  0
  2  4  1  0
  2  1  1  0
  3  2  2  0
  5  4  1  0
  5  6  1  1
  7  8  2  0
  7  5  1  0
  9 10  1  0
 10 20  2  0
 11 12  2  0
 11 10  1  0
 12 13  1  0
 13 14  1  0
 13 19  2  0
 15 14  1  1
 15 16  1  0
 16  7  1  0
 17 18  2  0
 17 15  1  0
 20 19  1  0
 21 17  1  0
 22 21  1  0
 22 23  1  1
 23 24  1  0
 24 25  2  0
 25 26  1  0
 27 26  1  0
 28 24  1  0
 28 27  2  0
 29 22  1  0
 30 29  2  0
 31 29  1  0
M  END
$$$$
