NYH.pdb
     RDKit          3D

 31 32  0  0  1  0  0  0  0  0999 V2000
    9.0470  -20.4002   17.2140 N   0  0  0  0  0  0  0  0  0  0  0  0
    8.6092  -19.2819   17.9579 C   0  0  0  0  0  0  0  0  0  0  0  0
    7.3821  -19.0259   17.9421 O   0  0  0  0  0  0  0  0  0  0  0  0
    9.5184  -18.4348   18.7262 C   0  0  0  0  0  0  0  0  0  0  0  0
    9.3990  -18.5729   20.2183 C   0  0  2  0  0  0  0  0  0  0  0  0
    8.0219  -18.8032   20.5981 N   0  0  0  0  0  0  0  0  0  0  0  0
    9.9855  -17.4186   20.9584 C   0  0  0  0  0  0  0  0  0  0  0  0
   11.2139  -17.1768   20.8382 O   0  0  0  0  0  0  0  0  0  0  0  0
    7.9197  -13.2658   16.6160 O   0  0  0  0  0  0  0  0  0  0  0  0
    8.1892  -13.4943   17.9808 C   0  0  0  0  0  0  0  0  0  0  0  0
    9.4606  -13.7966   18.4136 C   0  0  0  0  0  0  0  0  0  0  0  0
    9.7126  -14.0184   19.7534 C   0  0  0  0  0  0  0  0  0  0  0  0
    8.7266  -13.9512   20.7133 C   0  0  0  0  0  0  0  0  0  0  0  0
    8.9920  -14.1840   22.1347 C   0  0  0  0  0  0  0  0  0  0  0  0
    9.7834  -15.4040   22.4535 C   0  0  2  0  0  0  0  0  0  0  0  0
    9.2256  -16.5707   21.8001 N   0  0  0  0  0  0  0  0  0  0  0  0
   10.0182  -15.6746   23.8686 C   0  0  0  0  0  0  0  0  0  0  0  0
   10.6195  -14.8035   24.5826 O   0  0  0  0  0  0  0  0  0  0  0  0
    7.4581  -13.6482   20.2710 C   0  0  0  0  0  0  0  0  0  0  0  0
    7.1896  -13.4222   18.9231 C   0  0  0  0  0  0  0  0  0  0  0  0
    9.6238  -16.8527   24.5405 N   0  0  0  0  0  0  0  0  0  0  0  0
    9.7828  -16.9985   25.9969 C   0  0  1  0  0  0  0  0  0  0  0  0
    8.3653  -17.0179   26.5392 C   0  0  0  0  0  0  0  0  0  0  0  0
    7.6388  -15.7636   26.3603 C   0  0  0  0  0  0  0  0  0  0  0  0
    8.1460  -14.4935   26.5026 C   0  0  0  0  0  0  0  0  0  0  0  0
    7.1515  -13.6016   26.2568 N   0  0  0  0  0  0  0  0  0  0  0  0
    6.0282  -14.3082   25.9623 C   0  0  0  0  0  0  0  0  0  0  0  0
    6.3447  -15.6237   26.0305 N   0  0  0  0  0  0  0  0  0  0  0  0
   10.4631  -18.2734   26.3167 C   0  0  0  0  0  0  0  0  0  0  0  0
   10.7597  -19.1634   25.4910 O   0  0  0  0  0  0  0  0  0  0  0  0
   10.8154  -18.5303   27.6431 O   0  0  0  0  0  0  0  0  0  0  0  0
  2  4  1  0
  2  1  1  0
  3  2  2  0
  5  4  1  0
  5  6  1  6
  7  8  2  0
  7  5  1  0
  9 10  1  0
 10 20  2  0
 11 12  2  0
 11 10  1  0
 12 13  1  0
 13 14  1  0
 13 19  2  0
 15 14  1  1
 15 16  1  0
 16  7  1  0
 17 18  2  0
 17 15  1  0
 20 19  1  0
 21 17  1  0
 22 21  1  0
 22 23  1  1
 23 24  1  0
 24 25  2  0
 25 26  1  0
 27 26  1  0
 28 24  1  0
 28 27  2  0
 29 22  1  0
 30 29  2  0
 31 29  1  0
M  END
$$$$
