NYH.pdb
     RDKit          3D

 31 32  0  0  1  0  0  0  0  0999 V2000
   10.3097  -17.4844   16.0792 N   0  0  0  0  0  0  0  0  0  0  0  0
   10.8588  -17.8609   17.3252 C   0  0  0  0  0  0  0  0  0  0  0  0
   11.5444  -18.9098   17.3576 O   0  0  0  0  0  0  0  0  0  0  0  0
   10.6581  -17.0858   18.5472 C   0  0  0  0  0  0  0  0  0  0  0  0
   10.5361  -17.9061   19.8009 C   0  0  2  0  0  0  0  0  0  0  0  0
    9.3456  -18.7274   19.7563 N   0  0  0  0  0  0  0  0  0  0  0  0
   10.5866  -17.0821   21.0429 C   0  0  0  0  0  0  0  0  0  0  0  0
   11.6073  -16.3834   21.2711 O   0  0  0  0  0  0  0  0  0  0  0  0
    7.3287  -12.2333   18.7280 O   0  0  0  0  0  0  0  0  0  0  0  0
    7.6205  -13.0006   19.8740 C   0  0  0  0  0  0  0  0  0  0  0  0
    8.8143  -12.8529   20.5436 C   0  0  0  0  0  0  0  0  0  0  0  0
    9.0892  -13.6103   21.6654 C   0  0  0  0  0  0  0  0  0  0  0  0
    8.2029  -14.5377   22.1681 C   0  0  0  0  0  0  0  0  0  0  0  0
    8.4914  -15.3404   23.3587 C   0  0  0  0  0  0  0  0  0  0  0  0
    9.6214  -16.3014   23.2324 C   0  0  2  0  0  0  0  0  0  0  0  0
    9.5358  -17.0440   21.9912 N   0  0  0  0  0  0  0  0  0  0  0  0
    9.8312  -17.2086   24.3567 C   0  0  0  0  0  0  0  0  0  0  0  0
    8.8648  -17.9366   24.7643 O   0  0  0  0  0  0  0  0  0  0  0  0
    7.0115  -14.6785   21.4919 C   0  0  0  0  0  0  0  0  0  0  0  0
    6.7211  -13.9214   20.3594 C   0  0  0  0  0  0  0  0  0  0  0  0
   11.0497  -17.3586   25.0550 N   0  0  0  0  0  0  0  0  0  0  0  0
   11.1657  -18.2548   26.2174 C   0  0  1  0  0  0  0  0  0  0  0  0
   12.6076  -18.7281   26.1967 C   0  0  0  0  0  0  0  0  0  0  0  0
   12.9510  -19.5508   25.0399 C   0  0  0  0  0  0  0  0  0  0  0  0
   12.1129  -19.9116   24.0112 C   0  0  0  0  0  0  0  0  0  0  0  0
   12.8102  -20.6821   23.1366 N   0  0  0  0  0  0  0  0  0  0  0  0
   14.0772  -20.8035   23.6140 C   0  0  0  0  0  0  0  0  0  0  0  0
   14.1437  -20.1074   24.7744 N   0  0  0  0  0  0  0  0  0  0  0  0
   10.8957  -17.5132   27.4696 C   0  0  0  0  0  0  0  0  0  0  0  0
   10.6505  -16.2904   27.5490 O   0  0  0  0  0  0  0  0  0  0  0  0
   10.9090  -18.2123   28.6782 O   0  0  0  0  0  0  0  0  0  0  0  0
  2  4  1  0
  2  1  1  0
  3  2  2  0
  5  4  1  0
  5  6  1  6
  7  8  2  0
  7  5  1  0
  9 10  1  0
 10 20  2  0
 11 12  2  0
 11 10  1  0
 12 13  1  0
 13 14  1  0
 13 19  2  0
 15 14  1  1
 15 16  1  0
 16  7  1  0
 17 18  2  0
 17 15  1  0
 20 19  1  0
 21 17  1  0
 22 21  1  0
 22 23  1  1
 23 24  1  0
 24 25  2  0
 25 26  1  0
 27 26  1  0
 28 24  1  0
 28 27  2  0
 29 22  1  0
 30 29  2  0
 31 29  1  0
M  END
$$$$
