NYH.pdb
     RDKit          3D

 31 32  0  0  1  0  0  0  0  0999 V2000
   10.5617  -16.7294   13.7996 N   0  0  0  0  0  0  0  0  0  0  0  0
   10.4498  -15.3560   14.1112 C   0  0  0  0  0  0  0  0  0  0  0  0
   10.0743  -14.5876   13.1947 O   0  0  0  0  0  0  0  0  0  0  0  0
   10.7505  -14.8159   15.4349 C   0  0  0  0  0  0  0  0  0  0  0  0
   11.3020  -15.8152   16.4131 C   0  0  2  0  0  0  0  0  0  0  0  0
   10.3511  -16.8822   16.6391 N   0  0  0  0  0  0  0  0  0  0  0  0
   11.7420  -15.1931   17.6950 C   0  0  0  0  0  0  0  0  0  0  0  0
   12.6017  -14.2755   17.6651 O   0  0  0  0  0  0  0  0  0  0  0  0
    5.7357  -12.6390   19.0730 O   0  0  0  0  0  0  0  0  0  0  0  0
    6.9226  -13.1948   19.5924 C   0  0  0  0  0  0  0  0  0  0  0  0
    6.9343  -14.4548   20.1471 C   0  0  0  0  0  0  0  0  0  0  0  0
    8.1032  -14.9891   20.6528 C   0  0  0  0  0  0  0  0  0  0  0  0
    9.2995  -14.3059   20.6315 C   0  0  0  0  0  0  0  0  0  0  0  0
   10.5406  -14.8714   21.1653 C   0  0  0  0  0  0  0  0  0  0  0  0
   11.6705  -14.9762   20.2016 C   0  0  2  0  0  0  0  0  0  0  0  0
   11.2393  -15.5848   18.9594 N   0  0  0  0  0  0  0  0  0  0  0  0
   12.8847  -15.6213   20.6919 C   0  0  0  0  0  0  0  0  0  0  0  0
   12.9638  -16.8956   20.6869 O   0  0  0  0  0  0  0  0  0  0  0  0
    9.2781  -13.0466   20.0748 C   0  0  0  0  0  0  0  0  0  0  0  0
    8.1067  -12.4953   19.5611 C   0  0  0  0  0  0  0  0  0  0  0  0
   14.0180  -14.9379   21.1854 N   0  0  0  0  0  0  0  0  0  0  0  0
   15.2192  -15.6618   21.6333 C   0  0  1  0  0  0  0  0  0  0  0  0
   16.3757  -14.7441   21.2814 C   0  0  0  0  0  0  0  0  0  0  0  0
   16.5905  -14.5749   19.8468 C   0  0  0  0  0  0  0  0  0  0  0  0
   16.0600  -15.3473   18.8404 C   0  0  0  0  0  0  0  0  0  0  0  0
   16.5038  -14.8685   17.6494 N   0  0  0  0  0  0  0  0  0  0  0  0
   17.3074  -13.8029   17.9075 C   0  0  0  0  0  0  0  0  0  0  0  0
   17.3480  -13.6394   19.2517 N   0  0  0  0  0  0  0  0  0  0  0  0
   15.1747  -15.8796   23.0966 C   0  0  0  0  0  0  0  0  0  0  0  0
   14.2607  -15.4977   23.8585 O   0  0  0  0  0  0  0  0  0  0  0  0
   16.2278  -16.5665   23.7039 O   0  0  0  0  0  0  0  0  0  0  0  0
  2  4  1  0
  2  1  1  0
  3  2  2  0
  5  4  1  0
  5  6  1  1
  7  8  2  0
  7  5  1  0
  9 10  1  0
 10 20  2  0
 11 12  2  0
 11 10  1  0
 12 13  1  0
 13 14  1  0
 13 19  2  0
 15 14  1  1
 15 16  1  0
 16  7  1  0
 17 18  2  0
 17 15  1  0
 20 19  1  0
 21 17  1  0
 22 21  1  0
 22 23  1  1
 23 24  1  0
 24 25  2  0
 25 26  1  0
 27 26  1  0
 28 24  1  0
 28 27  2  0
 29 22  1  0
 30 29  2  0
 31 29  1  0
M  END
$$$$
