NYH.pdb
     RDKit          3D

 31 32  0  0  1  0  0  0  0  0999 V2000
   10.5382  -18.7505   17.7503 N   0  0  0  0  0  0  0  0  0  0  0  0
   11.4222  -17.6842   18.0284 C   0  0  0  0  0  0  0  0  0  0  0  0
   12.3014  -17.4285   17.1722 O   0  0  0  0  0  0  0  0  0  0  0  0
   11.3463  -16.8894   19.2518 C   0  0  0  0  0  0  0  0  0  0  0  0
   10.3667  -17.3964   20.2731 C   0  0  2  0  0  0  0  0  0  0  0  0
    9.0898  -17.6802   19.6544 N   0  0  0  0  0  0  0  0  0  0  0  0
   10.2178  -16.4814   21.4413 C   0  0  0  0  0  0  0  0  0  0  0  0
   11.2285  -16.2146   22.1407 O   0  0  0  0  0  0  0  0  0  0  0  0
    6.1329  -11.7232   27.8519 O   0  0  0  0  0  0  0  0  0  0  0  0
    6.5180  -12.3352   26.6417 C   0  0  0  0  0  0  0  0  0  0  0  0
    7.4571  -11.7552   25.8190 C   0  0  0  0  0  0  0  0  0  0  0  0
    7.8266  -12.3641   24.6356 C   0  0  0  0  0  0  0  0  0  0  0  0
    7.2876  -13.5617   24.2194 C   0  0  0  0  0  0  0  0  0  0  0  0
    7.6794  -14.2102   22.9660 C   0  0  0  0  0  0  0  0  0  0  0  0
    8.7901  -15.1964   23.0677 C   0  0  2  0  0  0  0  0  0  0  0  0
    8.9853  -15.8906   21.8110 N   0  0  0  0  0  0  0  0  0  0  0  0
    8.7137  -16.1492   24.1710 C   0  0  0  0  0  0  0  0  0  0  0  0
    7.8492  -17.0879   24.1304 O   0  0  0  0  0  0  0  0  0  0  0  0
    6.3491  -14.1344   25.0487 C   0  0  0  0  0  0  0  0  0  0  0  0
    5.9671  -13.5316   26.2448 C   0  0  0  0  0  0  0  0  0  0  0  0
    9.5403  -16.1250   25.3159 N   0  0  0  0  0  0  0  0  0  0  0  0
    9.7656  -17.3318   26.1286 C   0  0  1  0  0  0  0  0  0  0  0  0
   10.6535  -18.2142   25.2704 C   0  0  0  0  0  0  0  0  0  0  0  0
   11.0706  -19.4546   25.9186 C   0  0  0  0  0  0  0  0  0  0  0  0
   11.8802  -19.5714   27.0240 C   0  0  0  0  0  0  0  0  0  0  0  0
   12.0328  -20.8904   27.3097 N   0  0  0  0  0  0  0  0  0  0  0  0
   11.3234  -21.5959   26.3894 C   0  0  0  0  0  0  0  0  0  0  0  0
   10.7442  -20.7039   25.5502 N   0  0  0  0  0  0  0  0  0  0  0  0
   10.4640  -16.9840   27.3864 C   0  0  0  0  0  0  0  0  0  0  0  0
   10.6007  -17.7398   28.3722 O   0  0  0  0  0  0  0  0  0  0  0  0
   11.0276  -15.7125   27.5100 O   0  0  0  0  0  0  0  0  0  0  0  0
  2  4  1  0
  2  1  1  0
  3  2  2  0
  5  4  1  0
  5  6  1  6
  7  8  2  0
  7  5  1  0
  9 10  1  0
 10 20  2  0
 11 12  2  0
 11 10  1  0
 12 13  1  0
 13 14  1  0
 13 19  2  0
 15 14  1  6
 15 16  1  0
 16  7  1  0
 17 18  2  0
 17 15  1  0
 20 19  1  0
 21 17  1  0
 22 21  1  0
 22 23  1  6
 23 24  1  0
 24 25  2  0
 25 26  1  0
 27 26  1  0
 28 24  1  0
 28 27  2  0
 29 22  1  0
 30 29  2  0
 31 29  1  0
M  END
$$$$
