NYH.pdb
     RDKit          3D

 31 32  0  0  1  0  0  0  0  0999 V2000
   12.0671  -18.2396   17.1283 N   0  0  0  0  0  0  0  0  0  0  0  0
   10.9364  -17.4615   17.4625 C   0  0  0  0  0  0  0  0  0  0  0  0
    9.9834  -17.4534   16.6481 O   0  0  0  0  0  0  0  0  0  0  0  0
   10.8444  -16.6849   18.6965 C   0  0  0  0  0  0  0  0  0  0  0  0
   10.0501  -17.3368   19.7937 C   0  0  2  0  0  0  0  0  0  0  0  0
    8.7246  -17.6797   19.3256 N   0  0  0  0  0  0  0  0  0  0  0  0
    9.9962  -16.5177   21.0388 C   0  0  0  0  0  0  0  0  0  0  0  0
   11.0730  -16.1688   21.5872 O   0  0  0  0  0  0  0  0  0  0  0  0
    6.8218  -11.4718   27.7085 O   0  0  0  0  0  0  0  0  0  0  0  0
    6.9994  -12.2115   26.5216 C   0  0  0  0  0  0  0  0  0  0  0  0
    7.7741  -11.7279   25.4915 C   0  0  0  0  0  0  0  0  0  0  0  0
    7.9409  -12.4616   24.3333 C   0  0  0  0  0  0  0  0  0  0  0  0
    7.3537  -13.6938   24.1465 C   0  0  0  0  0  0  0  0  0  0  0  0
    7.5309  -14.4745   22.9200 C   0  0  0  0  0  0  0  0  0  0  0  0
    8.7377  -15.3452   22.8763 C   0  0  2  0  0  0  0  0  0  0  0  0
    8.7842  -16.1076   21.6450 N   0  0  0  0  0  0  0  0  0  0  0  0
    8.9503  -16.2190   24.0262 C   0  0  0  0  0  0  0  0  0  0  0  0
    8.0785  -17.1081   24.3082 O   0  0  0  0  0  0  0  0  0  0  0  0
    6.5807  -14.1696   25.1822 C   0  0  0  0  0  0  0  0  0  0  0  0
    6.4038  -13.4404   26.3556 C   0  0  0  0  0  0  0  0  0  0  0  0
   10.0733  -16.1674   24.8813 N   0  0  0  0  0  0  0  0  0  0  0  0
   10.2372  -17.1163   25.9950 C   0  0  1  0  0  0  0  0  0  0  0  0
   11.6963  -17.5301   25.9371 C   0  0  0  0  0  0  0  0  0  0  0  0
   12.0393  -18.3547   24.7815 C   0  0  0  0  0  0  0  0  0  0  0  0
   11.1757  -18.8130   23.8145 C   0  0  0  0  0  0  0  0  0  0  0  0
   11.8828  -19.5482   22.9178 N   0  0  0  0  0  0  0  0  0  0  0  0
   13.1813  -19.5508   23.3200 C   0  0  0  0  0  0  0  0  0  0  0  0
   13.2570  -18.8184   24.4573 N   0  0  0  0  0  0  0  0  0  0  0  0
    9.9520  -16.4510   27.2860 C   0  0  0  0  0  0  0  0  0  0  0  0
    9.7177  -15.2328   27.4371 O   0  0  0  0  0  0  0  0  0  0  0  0
    9.9364  -17.2239   28.4488 O   0  0  0  0  0  0  0  0  0  0  0  0
  2  4  1  0
  2  1  1  0
  3  2  2  0
  5  4  1  0
  5  6  1  6
  7  8  2  0
  7  5  1  0
  9 10  1  0
 10 20  2  0
 11 12  2  0
 11 10  1  0
 12 13  1  0
 13 14  1  0
 13 19  2  0
 15 14  1  1
 15 16  1  0
 16  7  1  0
 17 18  2  0
 17 15  1  0
 20 19  1  0
 21 17  1  0
 22 21  1  0
 22 23  1  1
 23 24  1  0
 24 25  2  0
 25 26  1  0
 27 26  1  0
 28 24  1  0
 28 27  2  0
 29 22  1  0
 30 29  2  0
 31 29  1  0
M  END
$$$$
