NYH.pdb
     RDKit          3D

 31 32  0  0  1  0  0  0  0  0999 V2000
    8.3661  -15.2697   18.6183 N   0  0  0  0  0  0  0  0  0  0  0  0
    8.0826  -14.2454   19.5489 C   0  0  0  0  0  0  0  0  0  0  0  0
    7.6323  -13.1666   19.0965 O   0  0  0  0  0  0  0  0  0  0  0  0
    8.2924  -14.3994   20.9865 C   0  0  0  0  0  0  0  0  0  0  0  0
    8.8275  -15.7403   21.4053 C   0  0  2  0  0  0  0  0  0  0  0  0
    7.9035  -16.7922   21.0400 N   0  0  0  0  0  0  0  0  0  0  0  0
    9.1804  -15.7998   22.8531 C   0  0  0  0  0  0  0  0  0  0  0  0
   10.3360  -15.4592   23.2144 O   0  0  0  0  0  0  0  0  0  0  0  0
    6.3599  -10.2082   26.3127 O   0  0  0  0  0  0  0  0  0  0  0  0
    6.6263  -11.5913   26.2559 C   0  0  0  0  0  0  0  0  0  0  0  0
    7.8645  -12.0913   26.5908 C   0  0  0  0  0  0  0  0  0  0  0  0
    8.1139  -13.4485   26.5314 C   0  0  0  0  0  0  0  0  0  0  0  0
    7.1577  -14.3606   26.1416 C   0  0  0  0  0  0  0  0  0  0  0  0
    7.4194  -15.8003   26.0799 C   0  0  0  0  0  0  0  0  0  0  0  0
    8.5978  -16.2092   25.2672 C   0  0  2  0  0  0  0  0  0  0  0  0
    8.2747  -16.2252   23.8548 N   0  0  0  0  0  0  0  0  0  0  0  0
    9.2538  -17.4542   25.6550 C   0  0  0  0  0  0  0  0  0  0  0  0
    8.6640  -18.5666   25.4433 O   0  0  0  0  0  0  0  0  0  0  0  0
    5.9223  -13.8514   25.8086 C   0  0  0  0  0  0  0  0  0  0  0  0
    5.6569  -12.4851   25.8639 C   0  0  0  0  0  0  0  0  0  0  0  0
   10.5264  -17.5400   26.2616 N   0  0  0  0  0  0  0  0  0  0  0  0
   11.0658  -18.8232   26.7415 C   0  0  1  0  0  0  0  0  0  0  0  0
   12.5569  -18.7398   26.4707 C   0  0  0  0  0  0  0  0  0  0  0  0
   12.9063  -18.6963   25.0533 C   0  0  0  0  0  0  0  0  0  0  0  0
   12.1832  -19.2300   24.0127 C   0  0  0  0  0  0  0  0  0  0  0  0
   12.8473  -18.9822   22.8540 N   0  0  0  0  0  0  0  0  0  0  0  0
   13.9793  -18.2975   23.1664 C   0  0  0  0  0  0  0  0  0  0  0  0
   13.9978  -18.1328   24.5110 N   0  0  0  0  0  0  0  0  0  0  0  0
   10.8241  -18.9736   28.1940 C   0  0  0  0  0  0  0  0  0  0  0  0
   10.3211  -18.1051   28.9386 O   0  0  0  0  0  0  0  0  0  0  0  0
   11.1770  -20.1756   28.8107 O   0  0  0  0  0  0  0  0  0  0  0  0
  2  4  1  0
  2  1  1  0
  3  2  2  0
  5  4  1  0
  5  6  1  1
  7  8  2  0
  7  5  1  0
  9 10  1  0
 10 20  2  0
 11 12  2  0
 11 10  1  0
 12 13  1  0
 13 14  1  0
 13 19  2  0
 15 14  1  1
 15 16  1  0
 16  7  1  0
 17 18  2  0
 17 15  1  0
 20 19  1  0
 21 17  1  0
 22 21  1  0
 22 23  1  1
 23 24  1  0
 24 25  2  0
 25 26  1  0
 27 26  1  0
 28 24  1  0
 28 27  2  0
 29 22  1  0
 30 29  2  0
 31 29  1  0
M  END
$$$$
