NYH.pdb
     RDKit          3D

 31 32  0  0  1  0  0  0  0  0999 V2000
   10.7692  -19.1391   15.7543 N   0  0  0  0  0  0  0  0  0  0  0  0
   10.8130  -17.7407   15.9503 C   0  0  0  0  0  0  0  0  0  0  0  0
   11.0091  -17.0248   14.9402 O   0  0  0  0  0  0  0  0  0  0  0  0
   10.6412  -17.1176   17.2605 C   0  0  0  0  0  0  0  0  0  0  0  0
   10.4648  -18.0829   18.3993 C   0  0  2  0  0  0  0  0  0  0  0  0
    9.1811  -18.7445   18.3095 N   0  0  0  0  0  0  0  0  0  0  0  0
   10.6623  -17.4496   19.7349 C   0  0  0  0  0  0  0  0  0  0  0  0
   11.7721  -16.9216   20.0023 O   0  0  0  0  0  0  0  0  0  0  0  0
    7.3301  -11.8162   18.7811 O   0  0  0  0  0  0  0  0  0  0  0  0
    7.6648  -12.8471   19.6825 C   0  0  0  0  0  0  0  0  0  0  0  0
    6.8870  -13.9779   19.7900 C   0  0  0  0  0  0  0  0  0  0  0  0
    7.2249  -14.9815   20.6767 C   0  0  0  0  0  0  0  0  0  0  0  0
    8.3364  -14.9097   21.4876 C   0  0  0  0  0  0  0  0  0  0  0  0
    8.6977  -15.9737   22.4271 C   0  0  0  0  0  0  0  0  0  0  0  0
    9.8620  -16.8147   22.0352 C   0  0  2  0  0  0  0  0  0  0  0  0
    9.6566  -17.4111   20.7309 N   0  0  0  0  0  0  0  0  0  0  0  0
   10.2860  -17.8264   22.9984 C   0  0  0  0  0  0  0  0  0  0  0  0
    9.6096  -18.9028   23.1163 O   0  0  0  0  0  0  0  0  0  0  0  0
    9.1083  -13.7751   21.3732 C   0  0  0  0  0  0  0  0  0  0  0  0
    8.7795  -12.7552   20.4833 C   0  0  0  0  0  0  0  0  0  0  0  0
   11.4169  -17.7170   23.8373 N   0  0  0  0  0  0  0  0  0  0  0  0
   11.7785  -18.7841   24.7851 C   0  0  1  0  0  0  0  0  0  0  0  0
   13.2962  -18.7916   24.7961 C   0  0  0  0  0  0  0  0  0  0  0  0
   13.8833  -19.7566   25.7220 C   0  0  0  0  0  0  0  0  0  0  0  0
   13.2066  -20.6787   26.4852 C   0  0  0  0  0  0  0  0  0  0  0  0
   14.1110  -21.3824   27.2143 N   0  0  0  0  0  0  0  0  0  0  0  0
   15.3467  -20.9045   26.9101 C   0  0  0  0  0  0  0  0  0  0  0  0
   15.1877  -19.9143   25.9992 N   0  0  0  0  0  0  0  0  0  0  0  0
   11.2654  -18.4690   26.1372 C   0  0  0  0  0  0  0  0  0  0  0  0
   11.1935  -19.2738   27.0906 O   0  0  0  0  0  0  0  0  0  0  0  0
   10.8181  -17.1724   26.3986 O   0  0  0  0  0  0  0  0  0  0  0  0
  2  4  1  0
  2  1  1  0
  3  2  2  0
  5  4  1  0
  5  6  1  1
  7  8  2  0
  7  5  1  0
  9 10  1  0
 10 20  2  0
 11 12  2  0
 11 10  1  0
 12 13  1  0
 13 14  1  0
 13 19  2  0
 15 14  1  1
 15 16  1  0
 16  7  1  0
 17 18  2  0
 17 15  1  0
 20 19  1  0
 21 17  1  0
 22 21  1  0
 22 23  1  1
 23 24  1  0
 24 25  2  0
 25 26  1  0
 27 26  1  0
 28 24  1  0
 28 27  2  0
 29 22  1  0
 30 29  2  0
 31 29  1  0
M  END
$$$$
