NYH.pdb
     RDKit          3D

 31 32  0  0  1  0  0  0  0  0999 V2000
    8.0079  -20.0361   18.3421 N   0  0  0  0  0  0  0  0  0  0  0  0
    9.2991  -19.8764   18.8926 C   0  0  0  0  0  0  0  0  0  0  0  0
   10.2360  -20.5117   18.3541 O   0  0  0  0  0  0  0  0  0  0  0  0
    9.5707  -19.0155   20.0413 C   0  0  0  0  0  0  0  0  0  0  0  0
    9.7114  -17.5549   19.7150 C   0  0  2  0  0  0  0  0  0  0  0  0
   10.8626  -17.3329   18.8668 N   0  0  0  0  0  0  0  0  0  0  0  0
    9.7500  -16.6885   20.9282 C   0  0  0  0  0  0  0  0  0  0  0  0
   10.8334  -16.5629   21.5548 O   0  0  0  0  0  0  0  0  0  0  0  0
    6.8070  -11.8602   27.8829 O   0  0  0  0  0  0  0  0  0  0  0  0
    6.9451  -12.5184   26.6440 C   0  0  0  0  0  0  0  0  0  0  0  0
    7.7286  -11.9913   25.6423 C   0  0  0  0  0  0  0  0  0  0  0  0
    7.8565  -12.6452   24.4324 C   0  0  0  0  0  0  0  0  0  0  0  0
    7.2206  -13.8376   24.1645 C   0  0  0  0  0  0  0  0  0  0  0  0
    7.3564  -14.5338   22.8831 C   0  0  0  0  0  0  0  0  0  0  0  0
    8.5977  -15.3379   22.7124 C   0  0  2  0  0  0  0  0  0  0  0  0
    8.6194  -15.9922   21.4198 N   0  0  0  0  0  0  0  0  0  0  0  0
    8.9042  -16.2927   23.7732 C   0  0  0  0  0  0  0  0  0  0  0  0
    8.2677  -17.3983   23.8253 O   0  0  0  0  0  0  0  0  0  0  0  0
    6.4392  -14.3573   25.1723 C   0  0  0  0  0  0  0  0  0  0  0  0
    6.3011  -13.7087   26.3972 C   0  0  0  0  0  0  0  0  0  0  0  0
    9.8762  -16.0960   24.7789 N   0  0  0  0  0  0  0  0  0  0  0  0
   10.1638  -17.1319   25.7848 C   0  0  1  0  0  0  0  0  0  0  0  0
   11.5701  -17.6027   25.4618 C   0  0  0  0  0  0  0  0  0  0  0  0
   12.0813  -18.6273   26.3684 C   0  0  0  0  0  0  0  0  0  0  0  0
   11.3741  -19.2836   27.3481 C   0  0  0  0  0  0  0  0  0  0  0  0
   12.2086  -20.1545   27.9727 N   0  0  0  0  0  0  0  0  0  0  0  0
   13.4310  -20.0447   27.3882 C   0  0  0  0  0  0  0  0  0  0  0  0
   13.3338  -19.1094   26.4130 N   0  0  0  0  0  0  0  0  0  0  0  0
   10.1254  -16.5535   27.1467 C   0  0  0  0  0  0  0  0  0  0  0  0
   10.2337  -17.1990   28.2113 O   0  0  0  0  0  0  0  0  0  0  0  0
    9.9557  -15.1744   27.2841 O   0  0  0  0  0  0  0  0  0  0  0  0
  2  4  1  0
  2  1  1  0
  3  2  2  0
  5  4  1  0
  5  6  1  1
  7  8  2  0
  7  5  1  0
  9 10  1  0
 10 20  2  0
 11 12  2  0
 11 10  1  0
 12 13  1  0
 13 14  1  0
 13 19  2  0
 15 14  1  1
 15 16  1  0
 16  7  1  0
 17 18  2  0
 17 15  1  0
 20 19  1  0
 21 17  1  0
 22 21  1  0
 22 23  1  6
 23 24  1  0
 24 25  2  0
 25 26  1  0
 27 26  1  0
 28 24  1  0
 28 27  2  0
 29 22  1  0
 30 29  2  0
 31 29  1  0
M  END
$$$$
