NYH.pdb
     RDKit          3D

 31 32  0  0  1  0  0  0  0  0999 V2000
   12.4890  -18.6115   18.1273 N   0  0  0  0  0  0  0  0  0  0  0  0
   11.6831  -17.4552   18.2231 C   0  0  0  0  0  0  0  0  0  0  0  0
   11.1531  -17.0351   17.1676 O   0  0  0  0  0  0  0  0  0  0  0  0
   11.4532  -16.7506   19.4821 C   0  0  0  0  0  0  0  0  0  0  0  0
   10.2290  -17.1898   20.2358 C   0  0  2  0  0  0  0  0  0  0  0  0
    9.0547  -17.0953   19.3956 N   0  0  0  0  0  0  0  0  0  0  0  0
   10.0429  -16.4572   21.5213 C   0  0  0  0  0  0  0  0  0  0  0  0
   10.9830  -16.4413   22.3568 O   0  0  0  0  0  0  0  0  0  0  0  0
    6.2006  -11.5021   27.9303 O   0  0  0  0  0  0  0  0  0  0  0  0
    6.5208  -12.1641   26.7275 C   0  0  0  0  0  0  0  0  0  0  0  0
    6.0260  -13.4192   26.4532 C   0  0  0  0  0  0  0  0  0  0  0  0
    6.3466  -14.0581   25.2714 C   0  0  0  0  0  0  0  0  0  0  0  0
    7.1629  -13.4878   24.3193 C   0  0  0  0  0  0  0  0  0  0  0  0
    7.5024  -14.1626   23.0645 C   0  0  0  0  0  0  0  0  0  0  0  0
    8.6605  -15.0962   23.1250 C   0  0  2  0  0  0  0  0  0  0  0  0
    8.8506  -15.7713   21.8571 N   0  0  0  0  0  0  0  0  0  0  0  0
    8.6614  -16.0597   24.2217 C   0  0  0  0  0  0  0  0  0  0  0  0
    7.8663  -17.0578   24.1806 O   0  0  0  0  0  0  0  0  0  0  0  0
    7.6530  -12.2324   24.6022 C   0  0  0  0  0  0  0  0  0  0  0  0
    7.3381  -11.5764   25.7899 C   0  0  0  0  0  0  0  0  0  0  0  0
    9.4932  -15.9840   25.3606 N   0  0  0  0  0  0  0  0  0  0  0  0
    9.5697  -17.0870   26.3329 C   0  0  1  0  0  0  0  0  0  0  0  0
   10.3272  -18.1858   25.6102 C   0  0  0  0  0  0  0  0  0  0  0  0
   10.7014  -19.3133   26.4598 C   0  0  0  0  0  0  0  0  0  0  0  0
   11.9155  -19.5106   27.0746 C   0  0  0  0  0  0  0  0  0  0  0  0
   11.8632  -20.6771   27.7684 N   0  0  0  0  0  0  0  0  0  0  0  0
   10.6244  -21.2075   27.5897 C   0  0  0  0  0  0  0  0  0  0  0  0
    9.9310  -20.3624   26.7895 N   0  0  0  0  0  0  0  0  0  0  0  0
   10.3206  -16.6632   27.5360 C   0  0  0  0  0  0  0  0  0  0  0  0
   10.9648  -15.5985   27.6503 O   0  0  0  0  0  0  0  0  0  0  0  0
   10.3270  -17.5027   28.6516 O   0  0  0  0  0  0  0  0  0  0  0  0
  2  4  1  0
  2  1  1  0
  3  2  2  0
  5  4  1  0
  5  6  1  6
  7  8  2  0
  7  5  1  0
  9 10  1  0
 10 20  2  0
 11 12  2  0
 11 10  1  0
 12 13  1  0
 13 14  1  0
 13 19  2  0
 15 14  1  6
 15 16  1  0
 16  7  1  0
 17 18  2  0
 17 15  1  0
 20 19  1  0
 21 17  1  0
 22 21  1  0
 22 23  1  6
 23 24  1  0
 24 25  2  0
 25 26  1  0
 27 26  1  0
 28 24  1  0
 28 27  2  0
 29 22  1  0
 30 29  2  0
 31 29  1  0
M  END
$$$$
