NYH.pdb
     RDKit          3D

 31 32  0  0  1  0  0  0  0  0999 V2000
   11.3116  -19.8664   18.6594 N   0  0  0  0  0  0  0  0  0  0  0  0
   12.1782  -19.5248   19.7214 C   0  0  0  0  0  0  0  0  0  0  0  0
   13.2140  -20.2166   19.8631 O   0  0  0  0  0  0  0  0  0  0  0  0
   11.9124  -18.4182   20.6375 C   0  0  0  0  0  0  0  0  0  0  0  0
   10.5703  -17.7641   20.4631 C   0  0  2  0  0  0  0  0  0  0  0  0
   10.3462  -17.4279   19.0736 N   0  0  0  0  0  0  0  0  0  0  0  0
   10.3798  -16.5807   21.3504 C   0  0  0  0  0  0  0  0  0  0  0  0
   11.2625  -15.6849   21.3715 O   0  0  0  0  0  0  0  0  0  0  0  0
    7.1356  -12.7578   17.3334 O   0  0  0  0  0  0  0  0  0  0  0  0
    7.2915  -13.2036   18.6616 C   0  0  0  0  0  0  0  0  0  0  0  0
    7.9718  -12.4482   19.5900 C   0  0  0  0  0  0  0  0  0  0  0  0
    8.1182  -12.8953   20.8886 C   0  0  0  0  0  0  0  0  0  0  0  0
    7.6025  -14.0977   21.3202 C   0  0  0  0  0  0  0  0  0  0  0  0
    7.7548  -14.5728   22.6973 C   0  0  0  0  0  0  0  0  0  0  0  0
    9.0484  -15.2389   23.0123 C   0  0  2  0  0  0  0  0  0  0  0  0
    9.2462  -16.4092   22.1812 N   0  0  0  0  0  0  0  0  0  0  0  0
    9.2875  -15.5627   24.4155 C   0  0  0  0  0  0  0  0  0  0  0  0
    8.7602  -14.8384   25.3251 O   0  0  0  0  0  0  0  0  0  0  0  0
    6.9236  -14.8464   20.3848 C   0  0  0  0  0  0  0  0  0  0  0  0
    6.7684  -14.4079   19.0719 C   0  0  0  0  0  0  0  0  0  0  0  0
   10.0747  -16.6434   24.8707 N   0  0  0  0  0  0  0  0  0  0  0  0
    9.6789  -17.4453   26.0403 C   0  0  1  0  0  0  0  0  0  0  0  0
    8.3642  -18.0890   25.6392 C   0  0  0  0  0  0  0  0  0  0  0  0
    7.8488  -19.0520   26.6088 C   0  0  0  0  0  0  0  0  0  0  0  0
    8.3512  -19.3021   27.8641 C   0  0  0  0  0  0  0  0  0  0  0  0
    7.5953  -20.2686   28.4466 N   0  0  0  0  0  0  0  0  0  0  0  0
    6.6254  -20.6220   27.5621 C   0  0  0  0  0  0  0  0  0  0  0  0
    6.7962  -19.8700   26.4483 N   0  0  0  0  0  0  0  0  0  0  0  0
   10.6899  -18.4909   26.3151 C   0  0  0  0  0  0  0  0  0  0  0  0
   11.5510  -18.8968   25.5054 O   0  0  0  0  0  0  0  0  0  0  0  0
   10.7070  -19.0912   27.5756 O   0  0  0  0  0  0  0  0  0  0  0  0
  2  4  1  0
  2  1  1  0
  3  2  2  0
  5  4  1  0
  5  6  1  6
  7  8  2  0
  7  5  1  0
  9 10  1  0
 10 20  2  0
 11 12  2  0
 11 10  1  0
 12 13  1  0
 13 14  1  0
 13 19  2  0
 15 14  1  1
 15 16  1  0
 16  7  1  0
 17 18  2  0
 17 15  1  0
 20 19  1  0
 21 17  1  0
 22 21  1  0
 22 23  1  6
 23 24  1  0
 24 25  2  0
 25 26  1  0
 27 26  1  0
 28 24  1  0
 28 27  2  0
 29 22  1  0
 30 29  2  0
 31 29  1  0
M  END
$$$$
