NYH.pdb
     RDKit          3D

 31 32  0  0  1  0  0  0  0  0999 V2000
    7.8980  -17.0498   15.8635 N   0  0  0  0  0  0  0  0  0  0  0  0
    9.0357  -16.9610   16.6961 C   0  0  0  0  0  0  0  0  0  0  0  0
   10.0632  -17.5806   16.3331 O   0  0  0  0  0  0  0  0  0  0  0  0
    9.0528  -16.1892   17.9364 C   0  0  0  0  0  0  0  0  0  0  0  0
    9.2246  -17.0074   19.1857 C   0  0  2  0  0  0  0  0  0  0  0  0
    8.1647  -17.9857   19.3014 N   0  0  0  0  0  0  0  0  0  0  0  0
    9.3368  -16.1734   20.4169 C   0  0  0  0  0  0  0  0  0  0  0  0
   10.4283  -15.6021   20.6701 O   0  0  0  0  0  0  0  0  0  0  0  0
    7.1510  -11.9700   28.0103 O   0  0  0  0  0  0  0  0  0  0  0  0
    7.1680  -12.5863   26.7425 C   0  0  0  0  0  0  0  0  0  0  0  0
    7.8088  -11.9990   25.6749 C   0  0  0  0  0  0  0  0  0  0  0  0
    7.8188  -12.6121   24.4374 C   0  0  0  0  0  0  0  0  0  0  0  0
    7.2008  -13.8214   24.2053 C   0  0  0  0  0  0  0  0  0  0  0  0
    7.2119  -14.4744   22.8943 C   0  0  0  0  0  0  0  0  0  0  0  0
    8.4200  -15.2886   22.5875 C   0  0  2  0  0  0  0  0  0  0  0  0
    8.2687  -15.9886   21.3280 N   0  0  0  0  0  0  0  0  0  0  0  0
    8.8671  -16.2061   23.6311 C   0  0  0  0  0  0  0  0  0  0  0  0
    8.2269  -17.2932   23.8272 O   0  0  0  0  0  0  0  0  0  0  0  0
    6.5624  -14.4013   25.2788 C   0  0  0  0  0  0  0  0  0  0  0  0
    6.5444  -13.7943   26.5323 C   0  0  0  0  0  0  0  0  0  0  0  0
    9.9834  -15.9915   24.4693 N   0  0  0  0  0  0  0  0  0  0  0  0
   10.4410  -17.0181   25.4203 C   0  0  1  0  0  0  0  0  0  0  0  0
   11.9442  -17.0848   25.2215 C   0  0  0  0  0  0  0  0  0  0  0  0
   12.3531  -17.4776   23.8756 C   0  0  0  0  0  0  0  0  0  0  0  0
   11.9086  -18.5698   23.1683 C   0  0  0  0  0  0  0  0  0  0  0  0
   12.5326  -18.5859   21.9620 N   0  0  0  0  0  0  0  0  0  0  0  0
   13.3629  -17.5106   21.9134 C   0  0  0  0  0  0  0  0  0  0  0  0
   13.2398  -16.8474   23.0883 N   0  0  0  0  0  0  0  0  0  0  0  0
   10.1331  -16.6090   26.8090 C   0  0  0  0  0  0  0  0  0  0  0  0
    9.5775  -15.5407   27.1433 O   0  0  0  0  0  0  0  0  0  0  0  0
   10.4804  -17.4685   27.8531 O   0  0  0  0  0  0  0  0  0  0  0  0
  2  4  1  0
  2  1  1  0
  3  2  2  0
  5  4  1  0
  5  6  1  1
  7  8  2  0
  7  5  1  0
  9 10  1  0
 10 20  2  0
 11 12  2  0
 11 10  1  0
 12 13  1  0
 13 14  1  0
 13 19  2  0
 15 14  1  1
 15 16  1  0
 16  7  1  0
 17 18  2  0
 17 15  1  0
 20 19  1  0
 21 17  1  0
 22 21  1  0
 22 23  1  1
 23 24  1  0
 24 25  2  0
 25 26  1  0
 27 26  1  0
 28 24  1  0
 28 27  2  0
 29 22  1  0
 30 29  2  0
 31 29  1  0
M  END
$$$$
