NYH.pdb
     RDKit          3D

 31 32  0  0  1  0  0  0  0  0999 V2000
    7.9021  -14.7738   17.6467 N   0  0  0  0  0  0  0  0  0  0  0  0
    8.0863  -13.6458   18.4770 C   0  0  0  0  0  0  0  0  0  0  0  0
    7.9808  -12.5163   17.9435 O   0  0  0  0  0  0  0  0  0  0  0  0
    8.3886  -13.7509   19.9024 C   0  0  0  0  0  0  0  0  0  0  0  0
    8.4680  -15.1571   20.4279 C   0  0  2  0  0  0  0  0  0  0  0  0
    7.2164  -15.8506   20.2130 N   0  0  0  0  0  0  0  0  0  0  0  0
    8.8916  -15.2216   21.8563 C   0  0  0  0  0  0  0  0  0  0  0  0
   10.0521  -14.8490   22.1665 O   0  0  0  0  0  0  0  0  0  0  0  0
    6.6318  -10.2755   26.9248 O   0  0  0  0  0  0  0  0  0  0  0  0
    6.8167  -11.6081   26.5038 C   0  0  0  0  0  0  0  0  0  0  0  0
    5.7787  -12.3337   25.9639 C   0  0  0  0  0  0  0  0  0  0  0  0
    5.9717  -13.6388   25.5548 C   0  0  0  0  0  0  0  0  0  0  0  0
    7.1887  -14.2757   25.6614 C   0  0  0  0  0  0  0  0  0  0  0  0
    7.3961  -15.6588   25.2263 C   0  0  0  0  0  0  0  0  0  0  0  0
    8.5056  -15.8723   24.2569 C   0  0  2  0  0  0  0  0  0  0  0  0
    8.0485  -15.6863   22.8946 N   0  0  0  0  0  0  0  0  0  0  0  0
    9.2446  -17.1251   24.3810 C   0  0  0  0  0  0  0  0  0  0  0  0
    8.8190  -18.1668   23.7778 O   0  0  0  0  0  0  0  0  0  0  0  0
    8.2209  -13.5422   26.2024 C   0  0  0  0  0  0  0  0  0  0  0  0
    8.0406  -12.2254   26.6192 C   0  0  0  0  0  0  0  0  0  0  0  0
   10.4290  -17.2915   25.1322 N   0  0  0  0  0  0  0  0  0  0  0  0
   11.0552  -18.6135   25.2995 C   0  0  1  0  0  0  0  0  0  0  0  0
   12.4195  -18.4787   24.6481 C   0  0  0  0  0  0  0  0  0  0  0  0
   13.2723  -19.6550   24.7961 C   0  0  0  0  0  0  0  0  0  0  0  0
   13.3247  -20.7421   23.9556 C   0  0  0  0  0  0  0  0  0  0  0  0
   14.2382  -21.6210   24.4434 N   0  0  0  0  0  0  0  0  0  0  0  0
   14.7551  -21.0882   25.5822 C   0  0  0  0  0  0  0  0  0  0  0  0
   14.1543  -19.8903   25.7808 N   0  0  0  0  0  0  0  0  0  0  0  0
   11.2112  -18.9325   26.7364 C   0  0  0  0  0  0  0  0  0  0  0  0
   11.0033  -18.1411   27.6810 O   0  0  0  0  0  0  0  0  0  0  0  0
   11.6232  -20.2171   27.0964 O   0  0  0  0  0  0  0  0  0  0  0  0
  2  4  1  0
  2  1  1  0
  3  2  2  0
  5  4  1  0
  5  6  1  1
  7  8  2  0
  7  5  1  0
  9 10  1  0
 10 20  2  0
 11 12  2  0
 11 10  1  0
 12 13  1  0
 13 14  1  0
 13 19  2  0
 15 14  1  1
 15 16  1  0
 16  7  1  0
 17 18  2  0
 17 15  1  0
 20 19  1  0
 21 17  1  0
 22 21  1  0
 22 23  1  6
 23 24  1  0
 24 25  2  0
 25 26  1  0
 27 26  1  0
 28 24  1  0
 28 27  2  0
 29 22  1  0
 30 29  2  0
 31 29  1  0
M  END
$$$$
