NYH.pdb
     RDKit          3D

 31 32  0  0  1  0  0  0  0  0999 V2000
   10.1538  -17.0921   15.7774 N   0  0  0  0  0  0  0  0  0  0  0  0
   10.8697  -17.4222   16.9497 C   0  0  0  0  0  0  0  0  0  0  0  0
   11.6514  -18.4003   16.8893 O   0  0  0  0  0  0  0  0  0  0  0  0
   10.7316  -16.6783   18.1994 C   0  0  0  0  0  0  0  0  0  0  0  0
   10.1798  -17.4743   19.3490 C   0  0  2  0  0  0  0  0  0  0  0  0
    8.8955  -18.0436   19.0020 N   0  0  0  0  0  0  0  0  0  0  0  0
   10.1076  -16.6924   20.6169 C   0  0  0  0  0  0  0  0  0  0  0  0
   11.1666  -16.2202   21.1042 O   0  0  0  0  0  0  0  0  0  0  0  0
    6.5898  -12.2382   27.5521 O   0  0  0  0  0  0  0  0  0  0  0  0
    6.8259  -12.9038   26.3321 C   0  0  0  0  0  0  0  0  0  0  0  0
    7.5442  -12.3041   25.3223 C   0  0  0  0  0  0  0  0  0  0  0  0
    7.7692  -12.9661   24.1311 C   0  0  0  0  0  0  0  0  0  0  0  0
    7.2976  -14.2380   23.8904 C   0  0  0  0  0  0  0  0  0  0  0  0
    7.5368  -14.9426   22.6289 C   0  0  0  0  0  0  0  0  0  0  0  0
    8.8307  -15.6725   22.5311 C   0  0  2  0  0  0  0  0  0  0  0  0
    8.8973  -16.4509   21.3109 N   0  0  0  0  0  0  0  0  0  0  0  0
    9.2027  -16.4920   23.6805 C   0  0  0  0  0  0  0  0  0  0  0  0
    8.2988  -17.1392   24.3083 O   0  0  0  0  0  0  0  0  0  0  0  0
    6.5803  -14.8299   24.9061 C   0  0  0  0  0  0  0  0  0  0  0  0
    6.3457  -14.1741   26.1123 C   0  0  0  0  0  0  0  0  0  0  0  0
   10.5178  -16.6386   24.1742 N   0  0  0  0  0  0  0  0  0  0  0  0
   10.8315  -16.4428   25.5994 C   0  0  1  0  0  0  0  0  0  0  0  0
   10.2095  -15.1036   25.9503 C   0  0  0  0  0  0  0  0  0  0  0  0
   10.4006  -14.7009   27.3411 C   0  0  0  0  0  0  0  0  0  0  0  0
   11.1413  -15.3616   28.2928 C   0  0  0  0  0  0  0  0  0  0  0  0
   11.0631  -14.6685   29.4582 N   0  0  0  0  0  0  0  0  0  0  0  0
   10.2785  -13.5803   29.2385 C   0  0  0  0  0  0  0  0  0  0  0  0
    9.8842  -13.6173   27.9429 N   0  0  0  0  0  0  0  0  0  0  0  0
   10.2168  -17.5141   26.4150 C   0  0  0  0  0  0  0  0  0  0  0  0
   10.8400  -18.3320   27.1252 O   0  0  0  0  0  0  0  0  0  0  0  0
    8.8268  -17.6455   26.4103 O   0  0  0  0  0  0  0  0  0  0  0  0
  2  4  1  0
  2  1  1  0
  3  2  2  0
  5  4  1  0
  5  6  1  6
  7  8  2  0
  7  5  1  0
  9 10  1  0
 10 20  2  0
 11 12  2  0
 11 10  1  0
 12 13  1  0
 13 14  1  0
 13 19  2  0
 15 14  1  1
 15 16  1  0
 16  7  1  0
 17 18  2  0
 17 15  1  0
 20 19  1  0
 21 17  1  0
 22 21  1  0
 22 23  1  1
 23 24  1  0
 24 25  2  0
 25 26  1  0
 27 26  1  0
 28 24  1  0
 28 27  2  0
 29 22  1  0
 30 29  2  0
 31 29  1  0
M  END
$$$$
