NYH.pdb
     RDKit          3D

 31 32  0  0  1  0  0  0  0  0999 V2000
   12.5675  -17.2467   17.4340 N   0  0  0  0  0  0  0  0  0  0  0  0
   11.1918  -17.1335   17.7344 C   0  0  0  0  0  0  0  0  0  0  0  0
   10.3920  -17.7803   17.0178 O   0  0  0  0  0  0  0  0  0  0  0  0
   10.6837  -16.3068   18.8266 C   0  0  0  0  0  0  0  0  0  0  0  0
   10.1320  -17.0754   19.9948 C   0  0  2  0  0  0  0  0  0  0  0  0
    8.8566  -17.6685   19.6553 N   0  0  0  0  0  0  0  0  0  0  0  0
   10.0421  -16.2583   21.2390 C   0  0  0  0  0  0  0  0  0  0  0  0
   11.1029  -15.8815   21.8001 O   0  0  0  0  0  0  0  0  0  0  0  0
    6.5886  -11.6429   28.0925 O   0  0  0  0  0  0  0  0  0  0  0  0
    6.8045  -12.3233   26.8769 C   0  0  0  0  0  0  0  0  0  0  0  0
    6.2238  -13.5478   26.6346 C   0  0  0  0  0  0  0  0  0  0  0  0
    6.4426  -14.2052   25.4397 C   0  0  0  0  0  0  0  0  0  0  0  0
    7.2380  -13.6840   24.4428 C   0  0  0  0  0  0  0  0  0  0  0  0
    7.4697  -14.3784   23.1742 C   0  0  0  0  0  0  0  0  0  0  0  0
    8.7307  -15.1650   23.0884 C   0  0  2  0  0  0  0  0  0  0  0  0
    8.8127  -15.8800   21.8308 N   0  0  0  0  0  0  0  0  0  0  0  0
    9.0144  -16.0615   24.2049 C   0  0  0  0  0  0  0  0  0  0  0  0
    8.2818  -17.0917   24.3840 O   0  0  0  0  0  0  0  0  0  0  0  0
    7.8145  -12.4589   24.6940 C   0  0  0  0  0  0  0  0  0  0  0  0
    7.6026  -11.7848   25.8943 C   0  0  0  0  0  0  0  0  0  0  0  0
   10.0636  -15.8853   25.1339 N   0  0  0  0  0  0  0  0  0  0  0  0
   10.3257  -16.8713   26.1954 C   0  0  1  0  0  0  0  0  0  0  0  0
   11.7860  -17.2464   26.0208 C   0  0  0  0  0  0  0  0  0  0  0  0
   12.0535  -18.0846   24.8550 C   0  0  0  0  0  0  0  0  0  0  0  0
   11.1300  -18.5478   23.9476 C   0  0  0  0  0  0  0  0  0  0  0  0
   11.7772  -19.2961   23.0171 N   0  0  0  0  0  0  0  0  0  0  0  0
   13.0979  -19.3019   23.3391 C   0  0  0  0  0  0  0  0  0  0  0  0
   13.2467  -18.5585   24.4619 N   0  0  0  0  0  0  0  0  0  0  0  0
   10.1168  -16.2625   27.5282 C   0  0  0  0  0  0  0  0  0  0  0  0
    9.8283  -15.0653   27.7407 O   0  0  0  0  0  0  0  0  0  0  0  0
   10.2457  -17.0691   28.6607 O   0  0  0  0  0  0  0  0  0  0  0  0
  2  4  1  0
  2  1  1  0
  3  2  2  0
  5  4  1  0
  5  6  1  6
  7  8  2  0
  7  5  1  0
  9 10  1  0
 10 20  2  0
 11 12  2  0
 11 10  1  0
 12 13  1  0
 13 14  1  0
 13 19  2  0
 15 14  1  1
 15 16  1  0
 16  7  1  0
 17 18  2  0
 17 15  1  0
 20 19  1  0
 21 17  1  0
 22 21  1  0
 22 23  1  1
 23 24  1  0
 24 25  2  0
 25 26  1  0
 27 26  1  0
 28 24  1  0
 28 27  2  0
 29 22  1  0
 30 29  2  0
 31 29  1  0
M  END
$$$$
