RCW.pdb
     RDKit          3D

 32 33  0  0  1  0  0  0  0  0999 V2000
   30.9892  -25.3876  -16.0521 N   0  0  0  0  0  0  0  0  0  0  0  0
   29.8790  -25.7274  -16.8361 C   0  0  0  0  0  0  0  0  0  0  0  0
   29.4813  -26.9726  -16.9332 N   0  0  0  0  0  0  0  0  0  0  0  0
   29.1427  -24.7397  -17.5523 N   0  0  0  0  0  0  0  0  0  0  0  0
   28.6878  -23.5275  -16.9385 C   0  0  0  0  0  0  0  0  0  0  0  0
   29.7612  -22.5526  -16.5659 C   0  0  0  0  0  0  0  0  0  0  0  0
   29.2562  -21.2520  -16.0431 C   0  0  0  0  0  0  0  0  0  0  0  0
   27.7230  -21.1948  -16.1035 C   0  0  2  0  0  0  0  0  0  0  0  0
   27.3822  -20.6223  -17.3848 N   0  0  0  0  0  0  0  0  0  0  0  0
   27.2668  -20.3202  -14.9932 C   0  0  0  0  0  0  0  0  0  0  0  0
   27.2793  -19.0675  -15.0969 O   0  0  0  0  0  0  0  0  0  0  0  0
   28.6425  -27.1524  -17.5141 N   0  0  0  0  0  0  0  0  0  0  0  0
   26.7966  -20.9004  -13.7626 C   0  0  2  0  0  0  0  0  0  0  0  0
   26.2510  -20.0945  -12.6757 C   0  0  0  0  0  0  0  0  0  0  0  0
   25.0034  -19.4057  -13.1434 S   0  0  0  0  0  0  0  0  0  0  0  0
   23.8205  -20.7207  -13.6231 C   0  0  0  0  0  0  0  0  0  0  0  0
   25.9648  -21.0354  -11.5526 O   0  0  0  0  0  0  0  0  0  0  0  0
   25.2681  -22.0912  -11.7399 N   0  0  0  0  0  0  0  0  0  0  0  0
   26.4222  -20.8484  -10.2345 C   0  0  1  0  0  0  0  0  0  0  0  0
   26.0336  -21.7224   -9.1529 C   0  0  0  0  0  0  0  0  0  0  0  0
   27.0253  -21.7112   -8.0175 C   0  0  0  0  0  0  0  0  0  0  0  0
   27.2679  -20.3933   -7.4387 C   0  0  0  0  0  0  0  0  0  0  0  0
   26.7585  -19.1871   -7.8432 N   0  0  0  0  0  0  0  0  0  0  0  0
   27.2407  -18.2388   -7.0327 C   0  0  0  0  0  0  0  0  0  0  0  0
   28.0496  -18.7905   -6.1115 C   0  0  0  0  0  0  0  0  0  0  0  0
   28.7918  -18.2655   -5.0569 C   0  0  0  0  0  0  0  0  0  0  0  0
   29.5492  -19.0856   -4.2578 C   0  0  0  0  0  0  0  0  0  0  0  0
   29.5909  -20.4435   -4.4819 C   0  0  0  0  0  0  0  0  0  0  0  0
   28.8535  -20.9449   -5.5256 C   0  0  0  0  0  0  0  0  0  0  0  0
   28.0780  -20.1475   -6.3526 C   0  0  0  0  0  0  0  0  0  0  0  0
   24.7277  -21.2791   -8.5520 O   0  0  0  0  0  0  0  0  0  0  0  0
   24.1694  -20.2222   -8.9224 O   0  0  0  0  0  0  0  0  0  0  0  0
  1  2  1  0
  2  3  2  0
  4  5  1  0
  4  2  1  0
  6  5  1  0
  7  6  1  0
  8 10  1  0
  8  7  1  0
  8  9  1  6
 10 11  2  0
 12 13  1  0
 12 10  1  0
 13 16  1  0
 13 14  1  6
 15 14  1  0
 16 17  2  0
 18 16  1  0
 18 19  1  0
 19 30  1  0
 19 20  1  1
 21 29  1  0
 21 20  1  0
 22 21  2  0
 23 22  1  0
 23 24  1  0
 24 25  1  0
 24 29  2  0
 25 26  2  0
 26 27  1  0
 28 27  2  0
 29 28  1  0
 30 31  2  0
 30 32  1  0
M  END
$$$$
