RCW.pdb
     RDKit          3D

 32 33  0  0  1  0  0  0  0  0999 V2000
   31.6131  -24.5846  -15.4024 N   0  0  0  0  0  0  0  0  0  0  0  0
   31.1072  -24.5730  -16.7088 C   0  0  0  0  0  0  0  0  0  0  0  0
   31.0575  -25.6733  -17.4194 N   0  0  0  0  0  0  0  0  0  0  0  0
   30.6287  -23.3736  -17.3115 N   0  0  0  0  0  0  0  0  0  0  0  0
   30.5496  -22.1346  -16.5960 C   0  0  0  0  0  0  0  0  0  0  0  0
   30.0712  -22.2380  -15.1812 C   0  0  0  0  0  0  0  0  0  0  0  0
   29.1581  -21.1388  -14.7589 C   0  0  0  0  0  0  0  0  0  0  0  0
   27.6961  -21.4910  -15.0686 C   0  0  2  0  0  0  0  0  0  0  0  0
   27.5066  -21.2587  -16.4813 N   0  0  0  0  0  0  0  0  0  0  0  0
   26.8400  -20.5840  -14.2621 C   0  0  0  0  0  0  0  0  0  0  0  0
   26.5527  -19.4267  -14.6600 O   0  0  0  0  0  0  0  0  0  0  0  0
   30.7254  -25.5849  -18.3968 N   0  0  0  0  0  0  0  0  0  0  0  0
   26.3181  -21.0209  -12.9936 C   0  0  1  0  0  0  0  0  0  0  0  0
   25.4956  -20.1623  -12.1483 C   0  0  0  0  0  0  0  0  0  0  0  0
   24.2147  -19.8417  -12.8597 S   0  0  0  0  0  0  0  0  0  0  0  0
   23.5396  -21.4299  -13.4765 C   0  0  0  0  0  0  0  0  0  0  0  0
   25.2431  -20.9235  -10.8892 O   0  0  0  0  0  0  0  0  0  0  0  0
   25.0251  -22.1832  -10.9143 N   0  0  0  0  0  0  0  0  0  0  0  0
   25.2240  -20.3400   -9.6083 C   0  0  1  0  0  0  0  0  0  0  0  0
   24.9112  -21.0990   -8.4205 C   0  0  0  0  0  0  0  0  0  0  0  0
   25.4846  -20.4789   -7.1718 C   0  0  0  0  0  0  0  0  0  0  0  0
   26.9291  -20.2717   -7.2073 C   0  0  0  0  0  0  0  0  0  0  0  0
   27.8005  -20.5748   -8.2205 N   0  0  0  0  0  0  0  0  0  0  0  0
   29.0297  -20.2174   -7.8331 C   0  0  0  0  0  0  0  0  0  0  0  0
   28.9861  -19.6903   -6.5972 C   0  0  0  0  0  0  0  0  0  0  0  0
   29.9590  -19.1733   -5.7459 C   0  0  0  0  0  0  0  0  0  0  0  0
   29.6194  -18.6911   -4.5062 C   0  0  0  0  0  0  0  0  0  0  0  0
   28.3107  -18.7084   -4.0787 C   0  0  0  0  0  0  0  0  0  0  0  0
   27.3639  -19.2213   -4.9300 C   0  0  0  0  0  0  0  0  0  0  0  0
   27.6700  -19.7167   -6.1878 C   0  0  0  0  0  0  0  0  0  0  0  0
   23.4243  -21.1524   -8.1981 O   0  0  0  0  0  0  0  0  0  0  0  0
   22.6357  -20.5176   -8.9336 O   0  0  0  0  0  0  0  0  0  0  0  0
  1  2  1  0
  2  3  2  0
  4  5  1  0
  4  2  1  0
  6  5  1  0
  7  6  1  0
  8 10  1  0
  8  7  1  0
  8  9  1  6
 10 11  2  0
 12 13  1  0
 12 10  1  0
 13 16  1  0
 13 14  1  6
 15 14  1  0
 16 17  2  0
 18 16  1  0
 18 19  1  0
 19 30  1  0
 19 20  1  1
 21 29  1  0
 21 20  1  0
 22 21  2  0
 23 22  1  0
 23 24  1  0
 24 25  1  0
 24 29  2  0
 25 26  2  0
 26 27  1  0
 28 27  2  0
 29 28  1  0
 30 31  2  0
 30 32  1  0
M  END
$$$$
