RCW.pdb
     RDKit          3D

 32 33  0  0  1  0  0  0  0  0999 V2000
   21.1348  -23.6874  -16.7053 N   0  0  0  0  0  0  0  0  0  0  0  0
   21.3309  -22.7652  -15.6692 C   0  0  0  0  0  0  0  0  0  0  0  0
   20.4624  -21.8086  -15.4483 N   0  0  0  0  0  0  0  0  0  0  0  0
   22.4732  -22.8312  -14.8197 N   0  0  0  0  0  0  0  0  0  0  0  0
   23.4685  -23.8535  -14.9514 C   0  0  0  0  0  0  0  0  0  0  0  0
   24.3807  -23.7155  -16.1304 C   0  0  0  0  0  0  0  0  0  0  0  0
   25.8255  -23.6113  -15.7813 C   0  0  0  0  0  0  0  0  0  0  0  0
   26.3847  -22.2342  -16.1665 C   0  0  2  0  0  0  0  0  0  0  0  0
   27.2339  -22.4412  -17.3162 N   0  0  0  0  0  0  0  0  0  0  0  0
   27.1704  -21.7340  -15.0096 C   0  0  0  0  0  0  0  0  0  0  0  0
   28.3674  -22.0746  -14.8328 O   0  0  0  0  0  0  0  0  0  0  0  0
   20.6577  -21.1730  -14.6537 N   0  0  0  0  0  0  0  0  0  0  0  0
   26.5657  -20.8389  -14.0581 C   0  0  2  0  0  0  0  0  0  0  0  0
   27.2164  -20.4734  -12.8046 C   0  0  0  0  0  0  0  0  0  0  0  0
   27.9465  -19.1752  -12.9818 S   0  0  0  0  0  0  0  0  0  0  0  0
   26.6902  -17.9177  -13.4280 C   0  0  0  0  0  0  0  0  0  0  0  0
   26.1336  -20.3539  -11.7839 O   0  0  0  0  0  0  0  0  0  0  0  0
   25.3307  -19.3587  -11.7896 N   0  0  0  0  0  0  0  0  0  0  0  0
   25.9099  -21.2952  -10.7613 C   0  0  2  0  0  0  0  0  0  0  0  0
   25.7891  -20.9119   -9.3745 C   0  0  0  0  0  0  0  0  0  0  0  0
   26.8644  -19.9455   -8.9472 C   0  0  0  0  0  0  0  0  0  0  0  0
   27.9574  -20.5511   -8.1926 C   0  0  0  0  0  0  0  0  0  0  0  0
   28.9211  -21.4127   -8.6474 N   0  0  0  0  0  0  0  0  0  0  0  0
   29.7234  -21.7184   -7.6220 C   0  0  0  0  0  0  0  0  0  0  0  0
   29.3119  -21.0818   -6.5119 C   0  0  0  0  0  0  0  0  0  0  0  0
   29.7795  -21.0518   -5.2006 C   0  0  0  0  0  0  0  0  0  0  0  0
   29.1445  -20.2938   -4.2484 C   0  0  0  0  0  0  0  0  0  0  0  0
   28.0328  -19.5475   -4.5693 C   0  0  0  0  0  0  0  0  0  0  0  0
   27.5848  -19.5880   -5.8662 C   0  0  0  0  0  0  0  0  0  0  0  0
   28.2002  -20.3416   -6.8534 C   0  0  0  0  0  0  0  0  0  0  0  0
   24.4867  -20.2000   -9.1296 O   0  0  0  0  0  0  0  0  0  0  0  0
   24.1063  -19.2698   -9.8751 O   0  0  0  0  0  0  0  0  0  0  0  0
  1  2  1  0
  2  3  2  0
  4  5  1  0
  4  2  1  0
  6  5  1  0
  7  6  1  0
  8 10  1  0
  8  7  1  0
  8  9  1  6
 10 11  2  0
 12 13  1  0
 12 10  1  0
 13 16  1  0
 13 14  1  6
 15 14  1  0
 16 17  2  0
 18 16  1  0
 18 19  1  0
 19 30  1  0
 19 20  1  6
 21 29  1  0
 21 20  1  0
 22 21  2  0
 23 22  1  0
 23 24  1  0
 24 25  1  0
 24 29  2  0
 25 26  2  0
 26 27  1  0
 28 27  2  0
 29 28  1  0
 30 31  2  0
 30 32  1  0
M  END
$$$$
