RCW.pdb
     RDKit          3D

 32 33  0  0  1  0  0  0  0  0999 V2000
   25.6301  -33.9906  -14.9130 N   0  0  0  0  0  0  0  0  0  0  0  0
   24.9398  -33.1816  -14.0011 C   0  0  0  0  0  0  0  0  0  0  0  0
   25.1775  -33.2658  -12.7148 N   0  0  0  0  0  0  0  0  0  0  0  0
   23.9602  -32.2410  -14.4329 N   0  0  0  0  0  0  0  0  0  0  0  0
   23.5887  -32.0983  -15.8095 C   0  0  0  0  0  0  0  0  0  0  0  0
   24.1491  -30.8975  -16.5061 C   0  0  0  0  0  0  0  0  0  0  0  0
   23.2889  -29.6834  -16.4271 C   0  0  0  0  0  0  0  0  0  0  0  0
   22.0947  -29.7942  -17.3858 C   0  0  2  0  0  0  0  0  0  0  0  0
   22.6118  -29.5703  -18.7156 N   0  0  0  0  0  0  0  0  0  0  0  0
   21.1228  -28.7362  -17.0092 C   0  0  0  0  0  0  0  0  0  0  0  0
   21.2623  -27.5486  -17.3971 O   0  0  0  0  0  0  0  0  0  0  0  0
   24.6212  -32.6501  -12.0944 N   0  0  0  0  0  0  0  0  0  0  0  0
   19.9894  -29.0573  -16.1819 C   0  0  2  0  0  0  0  0  0  0  0  0
   19.0000  -28.0599  -15.7885 C   0  0  0  0  0  0  0  0  0  0  0  0
   17.6563  -28.4505  -16.3284 S   0  0  0  0  0  0  0  0  0  0  0  0
   17.3472  -30.1730  -15.7842 C   0  0  0  0  0  0  0  0  0  0  0  0
   18.9990  -28.0294  -14.2960 O   0  0  0  0  0  0  0  0  0  0  0  0
   19.1650  -29.0994  -13.6158 N   0  0  0  0  0  0  0  0  0  0  0  0
   18.8216  -26.8593  -13.5338 C   0  0  1  0  0  0  0  0  0  0  0  0
   18.9159  -26.8567  -12.0930 C   0  0  0  0  0  0  0  0  0  0  0  0
   19.9548  -25.8898  -11.5846 C   0  0  0  0  0  0  0  0  0  0  0  0
   19.8006  -24.5231  -12.0739 C   0  0  0  0  0  0  0  0  0  0  0  0
   19.1878  -23.4677  -11.4506 N   0  0  0  0  0  0  0  0  0  0  0  0
   19.2763  -22.4019  -12.2537 C   0  0  0  0  0  0  0  0  0  0  0  0
   19.9284  -22.7306  -13.3822 C   0  0  0  0  0  0  0  0  0  0  0  0
   20.2830  -22.0141  -14.5223 C   0  0  0  0  0  0  0  0  0  0  0  0
   20.9639  -22.6223  -15.5474 C   0  0  0  0  0  0  0  0  0  0  0  0
   21.3106  -23.9526  -15.4703 C   0  0  0  0  0  0  0  0  0  0  0  0
   20.9536  -24.6445  -14.3398 C   0  0  0  0  0  0  0  0  0  0  0  0
   20.2661  -24.0637  -13.2857 C   0  0  0  0  0  0  0  0  0  0  0  0
   17.6175  -26.4156  -11.4745 O   0  0  0  0  0  0  0  0  0  0  0  0
   16.6970  -25.9352  -12.1729 O   0  0  0  0  0  0  0  0  0  0  0  0
  1  2  1  0
  2  3  2  0
  4  5  1  0
  4  2  1  0
  6  5  1  0
  7  6  1  0
  8 10  1  0
  8  7  1  0
  8  9  1  6
 10 11  2  0
 12 13  1  0
 12 10  1  0
 13 16  1  0
 13 14  1  6
 15 14  1  0
 16 17  2  0
 18 16  1  0
 18 19  1  0
 19 30  1  0
 19 20  1  1
 21 29  1  0
 21 20  1  0
 22 21  2  0
 23 22  1  0
 23 24  1  0
 24 25  1  0
 24 29  2  0
 25 26  2  0
 26 27  1  0
 28 27  2  0
 29 28  1  0
 30 31  2  0
 30 32  1  0
M  END
$$$$
