RCW.pdb
     RDKit          3D

 32 33  0  0  1  0  0  0  0  0999 V2000
   28.4057  -28.1131  -18.6449 N   0  0  0  0  0  0  0  0  0  0  0  0
   28.0782  -28.3117  -17.2974 C   0  0  0  0  0  0  0  0  0  0  0  0
   28.4852  -29.3810  -16.6578 N   0  0  0  0  0  0  0  0  0  0  0  0
   27.2967  -27.3650  -16.5736 N   0  0  0  0  0  0  0  0  0  0  0  0
   26.8548  -26.1318  -17.1542 C   0  0  0  0  0  0  0  0  0  0  0  0
   27.9378  -25.2499  -17.6934 C   0  0  0  0  0  0  0  0  0  0  0  0
   28.2789  -24.0913  -16.8210 C   0  0  0  0  0  0  0  0  0  0  0  0
   27.1430  -23.0582  -16.8124 C   0  0  2  0  0  0  0  0  0  0  0  0
   26.9833  -22.6101  -18.1760 N   0  0  0  0  0  0  0  0  0  0  0  0
   27.5665  -21.9393  -15.9322 C   0  0  0  0  0  0  0  0  0  0  0  0
   28.4471  -21.1179  -16.2926 O   0  0  0  0  0  0  0  0  0  0  0  0
   28.1153  -29.5234  -15.7006 N   0  0  0  0  0  0  0  0  0  0  0  0
   26.9675  -21.7749  -14.6336 C   0  0  2  0  0  0  0  0  0  0  0  0
   27.1972  -20.5929  -13.8099 C   0  0  0  0  0  0  0  0  0  0  0  0
   26.5834  -19.3959  -14.4732 S   0  0  0  0  0  0  0  0  0  0  0  0
   26.6405  -18.0279  -13.2551 C   0  0  0  0  0  0  0  0  0  0  0  0
   26.5618  -20.8678  -12.4873 O   0  0  0  0  0  0  0  0  0  0  0  0
   25.4165  -21.4312  -12.4119 N   0  0  0  0  0  0  0  0  0  0  0  0
   27.1491  -20.5418  -11.2502 C   0  0  2  0  0  0  0  0  0  0  0  0
   26.5467  -20.9099   -9.9906 C   0  0  0  0  0  0  0  0  0  0  0  0
   27.5673  -21.1059   -8.8985 C   0  0  0  0  0  0  0  0  0  0  0  0
   27.0225  -21.0568   -7.5451 C   0  0  0  0  0  0  0  0  0  0  0  0
   25.9110  -21.6943   -7.0591 N   0  0  0  0  0  0  0  0  0  0  0  0
   25.7777  -21.3720   -5.7680 C   0  0  0  0  0  0  0  0  0  0  0  0
   26.7689  -20.5432   -5.3972 C   0  0  0  0  0  0  0  0  0  0  0  0
   27.0926  -19.9213   -4.1942 C   0  0  0  0  0  0  0  0  0  0  0  0
   28.1920  -19.1044   -4.1024 C   0  0  0  0  0  0  0  0  0  0  0  0
   28.9975  -18.8828   -5.1969 C   0  0  0  0  0  0  0  0  0  0  0  0
   28.6646  -19.5033   -6.3752 C   0  0  0  0  0  0  0  0  0  0  0  0
   27.5626  -20.3341   -6.5048 C   0  0  0  0  0  0  0  0  0  0  0  0
   25.6331  -19.8210   -9.4981 O   0  0  0  0  0  0  0  0  0  0  0  0
   25.9913  -18.6220   -9.5047 O   0  0  0  0  0  0  0  0  0  0  0  0
  1  2  1  0
  2  3  2  0
  4  5  1  0
  4  2  1  0
  6  5  1  0
  7  6  1  0
  8 10  1  0
  8  7  1  0
  8  9  1  6
 10 11  2  0
 12 13  1  0
 12 10  1  0
 13 16  1  0
 13 14  1  1
 15 14  1  0
 16 17  2  0
 18 16  1  0
 18 19  1  0
 19 30  1  0
 19 20  1  1
 21 29  1  0
 21 20  1  0
 22 21  2  0
 23 22  1  0
 23 24  1  0
 24 25  1  0
 24 29  2  0
 25 26  2  0
 26 27  1  0
 28 27  2  0
 29 28  1  0
 30 31  2  0
 30 32  1  0
M  END
$$$$
