RCW.pdb
     RDKit          3D

 32 33  0  0  1  0  0  0  0  0999 V2000
   26.3696  -30.3039  -16.5482 N   0  0  0  0  0  0  0  0  0  0  0  0
   26.2901  -30.2077  -17.9435 C   0  0  0  0  0  0  0  0  0  0  0  0
   25.7322  -31.1593  -18.6516 N   0  0  0  0  0  0  0  0  0  0  0  0
   26.8073  -29.0789  -18.6428 N   0  0  0  0  0  0  0  0  0  0  0  0
   27.2584  -27.8988  -17.9667 C   0  0  0  0  0  0  0  0  0  0  0  0
   26.2857  -27.2999  -16.9990 C   0  0  0  0  0  0  0  0  0  0  0  0
   26.7699  -26.0612  -16.3274 C   0  0  0  0  0  0  0  0  0  0  0  0
   27.9331  -25.4330  -17.1084 C   0  0  2  0  0  0  0  0  0  0  0  0
   29.1453  -26.0134  -16.5798 N   0  0  0  0  0  0  0  0  0  0  0  0
   27.8944  -23.9688  -16.8620 C   0  0  0  0  0  0  0  0  0  0  0  0
   28.8187  -23.3827  -16.2435 O   0  0  0  0  0  0  0  0  0  0  0  0
   25.7532  -31.0502  -19.6817 N   0  0  0  0  0  0  0  0  0  0  0  0
   26.7824  -23.1857  -17.3334 C   0  0  2  0  0  0  0  0  0  0  0  0
   26.7498  -21.7309  -17.2293 C   0  0  0  0  0  0  0  0  0  0  0  0
   27.8814  -21.1487  -18.0230 S   0  0  0  0  0  0  0  0  0  0  0  0
   27.6203  -21.6526  -19.7656 C   0  0  0  0  0  0  0  0  0  0  0  0
   25.4271  -21.2968  -17.7682 O   0  0  0  0  0  0  0  0  0  0  0  0
   24.8668  -21.9311  -18.7268 N   0  0  0  0  0  0  0  0  0  0  0  0
   24.7061  -20.1891  -17.2837 C   0  0  1  0  0  0  0  0  0  0  0  0
   23.4493  -19.7753  -17.8618 C   0  0  0  0  0  0  0  0  0  0  0  0
   22.3176  -20.7068  -17.5091 C   0  0  0  0  0  0  0  0  0  0  0  0
   22.1752  -20.9726  -16.0808 C   0  0  0  0  0  0  0  0  0  0  0  0
   22.4433  -20.1292  -15.0345 N   0  0  0  0  0  0  0  0  0  0  0  0
   22.1722  -20.7780  -13.8970 C   0  0  0  0  0  0  0  0  0  0  0  0
   21.7353  -22.0196  -14.1699 C   0  0  0  0  0  0  0  0  0  0  0  0
   21.3271  -23.0844  -13.3709 C   0  0  0  0  0  0  0  0  0  0  0  0
   20.9215  -24.2680  -13.9359 C   0  0  0  0  0  0  0  0  0  0  0  0
   20.9096  -24.4273  -15.3035 C   0  0  0  0  0  0  0  0  0  0  0  0
   21.3150  -23.3681  -16.0768 C   0  0  0  0  0  0  0  0  0  0  0  0
   21.7308  -22.1591  -15.5414 C   0  0  0  0  0  0  0  0  0  0  0  0
   23.0395  -18.4263  -17.3372 O   0  0  0  0  0  0  0  0  0  0  0  0
   23.7130  -17.8399  -16.4606 O   0  0  0  0  0  0  0  0  0  0  0  0
  1  2  1  0
  2  3  2  0
  4  5  1  0
  4  2  1  0
  6  5  1  0
  7  6  1  0
  8 10  1  0
  8  7  1  0
  8  9  1  1
 10 11  2  0
 12 13  1  0
 12 10  1  0
 13 16  1  0
 13 14  1  1
 15 14  1  0
 16 17  2  0
 18 16  1  0
 18 19  1  0
 19 30  1  0
 19 20  1  6
 21 29  1  0
 21 20  1  0
 22 21  2  0
 23 22  1  0
 23 24  1  0
 24 25  1  0
 24 29  2  0
 25 26  2  0
 26 27  1  0
 28 27  2  0
 29 28  1  0
 30 31  2  0
 30 32  1  0
M  END
$$$$
