RCW.pdb
     RDKit          3D

 32 33  0  0  1  0  0  0  0  0999 V2000
   23.3195  -16.7434  -18.7228 N   0  0  0  0  0  0  0  0  0  0  0  0
   22.1709  -16.9762  -17.9553 C   0  0  0  0  0  0  0  0  0  0  0  0
   20.9859  -17.0137  -18.5143 N   0  0  0  0  0  0  0  0  0  0  0  0
   22.2453  -17.1816  -16.5471 N   0  0  0  0  0  0  0  0  0  0  0  0
   22.9203  -18.3066  -15.9709 C   0  0  0  0  0  0  0  0  0  0  0  0
   24.2629  -18.6196  -16.5545 C   0  0  0  0  0  0  0  0  0  0  0  0
   24.8993  -19.8508  -16.0075 C   0  0  0  0  0  0  0  0  0  0  0  0
   24.8220  -19.8732  -14.4742 C   0  0  2  0  0  0  0  0  0  0  0  0
   25.1392  -18.5374  -14.0261 N   0  0  0  0  0  0  0  0  0  0  0  0
   25.8330  -20.8487  -13.9924 C   0  0  0  0  0  0  0  0  0  0  0  0
   25.8620  -22.0299  -14.4215 O   0  0  0  0  0  0  0  0  0  0  0  0
   20.1734  -17.1300  -17.8822 N   0  0  0  0  0  0  0  0  0  0  0  0
   26.8100  -20.4524  -13.0122 C   0  0  1  0  0  0  0  0  0  0  0  0
   27.6493  -21.4169  -12.3096 C   0  0  0  0  0  0  0  0  0  0  0  0
   29.0866  -21.0036  -12.4240 S   0  0  0  0  0  0  0  0  0  0  0  0
   29.1654  -19.2299  -11.9700 C   0  0  0  0  0  0  0  0  0  0  0  0
   27.1948  -21.4179  -10.8877 O   0  0  0  0  0  0  0  0  0  0  0  0
   27.7405  -22.1855  -10.0228 N   0  0  0  0  0  0  0  0  0  0  0  0
   26.1609  -20.6009  -10.3924 C   0  0  1  0  0  0  0  0  0  0  0  0
   25.3794  -20.9647   -9.2341 C   0  0  0  0  0  0  0  0  0  0  0  0
   25.4150  -19.9084   -8.1591 C   0  0  0  0  0  0  0  0  0  0  0  0
   26.7569  -19.5284   -7.7281 C   0  0  0  0  0  0  0  0  0  0  0  0
   27.7120  -18.8513   -8.4403 N   0  0  0  0  0  0  0  0  0  0  0  0
   28.7924  -18.7160   -7.6637 C   0  0  0  0  0  0  0  0  0  0  0  0
   28.5705  -19.2847   -6.4660 C   0  0  0  0  0  0  0  0  0  0  0  0
   29.3459  -19.4241   -5.3179 C   0  0  0  0  0  0  0  0  0  0  0  0
   28.8499  -20.0697   -4.2126 C   0  0  0  0  0  0  0  0  0  0  0  0
   27.5762  -20.5927   -4.2157 C   0  0  0  0  0  0  0  0  0  0  0  0
   26.8250  -20.4467   -5.3552 C   0  0  0  0  0  0  0  0  0  0  0  0
   27.2927  -19.8014   -6.4893 C   0  0  0  0  0  0  0  0  0  0  0  0
   23.9281  -21.1212   -9.5977 O   0  0  0  0  0  0  0  0  0  0  0  0
   23.5181  -20.8661  -10.7521 O   0  0  0  0  0  0  0  0  0  0  0  0
  1  2  1  0
  2  3  2  0
  4  5  1  0
  4  2  1  0
  6  5  1  0
  7  6  1  0
  8 10  1  0
  8  7  1  0
  8  9  1  1
 10 11  2  0
 12 13  1  0
 12 10  1  0
 13 16  1  0
 13 14  1  6
 15 14  1  0
 16 17  2  0
 18 16  1  0
 18 19  1  0
 19 30  1  0
 19 20  1  1
 21 29  1  0
 21 20  1  0
 22 21  2  0
 23 22  1  0
 23 24  1  0
 24 25  1  0
 24 29  2  0
 25 26  2  0
 26 27  1  0
 28 27  2  0
 29 28  1  0
 30 31  2  0
 30 32  1  0
M  END
$$$$
