RCW.pdb
     RDKit          3D

 32 33  0  0  1  0  0  0  0  0999 V2000
   27.4779  -19.4992  -21.3969 N   0  0  0  0  0  0  0  0  0  0  0  0
   26.1374  -19.1962  -21.6687 C   0  0  0  0  0  0  0  0  0  0  0  0
   25.7764  -18.7424  -22.8442 N   0  0  0  0  0  0  0  0  0  0  0  0
   25.1206  -19.3697  -20.6855 N   0  0  0  0  0  0  0  0  0  0  0  0
   25.4129  -19.7818  -19.3446 C   0  0  0  0  0  0  0  0  0  0  0  0
   25.2350  -21.2421  -19.0669 C   0  0  0  0  0  0  0  0  0  0  0  0
   25.4580  -21.6294  -17.6455 C   0  0  0  0  0  0  0  0  0  0  0  0
   26.9352  -21.4686  -17.2587 C   0  0  2  0  0  0  0  0  0  0  0  0
   27.6642  -22.4811  -17.9863 N   0  0  0  0  0  0  0  0  0  0  0  0
   27.0377  -21.6906  -15.7937 C   0  0  0  0  0  0  0  0  0  0  0  0
   27.7658  -22.5976  -15.3167 O   0  0  0  0  0  0  0  0  0  0  0  0
   24.7759  -18.5033  -22.9669 N   0  0  0  0  0  0  0  0  0  0  0  0
   26.2946  -20.8595  -14.8831 C   0  0  2  0  0  0  0  0  0  0  0  0
   26.6866  -20.6808  -13.4893 C   0  0  0  0  0  0  0  0  0  0  0  0
   28.0622  -20.0859  -13.4306 S   0  0  0  0  0  0  0  0  0  0  0  0
   27.9653  -18.4462  -14.2434 C   0  0  0  0  0  0  0  0  0  0  0  0
   25.6736  -19.7710  -12.8773 O   0  0  0  0  0  0  0  0  0  0  0  0
   25.4827  -18.5936  -13.3382 N   0  0  0  0  0  0  0  0  0  0  0  0
   24.8675  -20.1189  -11.7769 C   0  0  1  0  0  0  0  0  0  0  0  0
   23.4322  -19.9621  -11.7932 C   0  0  0  0  0  0  0  0  0  0  0  0
   22.7733  -20.7920  -12.8655 C   0  0  0  0  0  0  0  0  0  0  0  0
   22.5333  -20.0823  -14.1183 C   0  0  0  0  0  0  0  0  0  0  0  0
   23.4406  -19.7620  -15.0941 N   0  0  0  0  0  0  0  0  0  0  0  0
   22.7929  -19.1132  -16.0678 C   0  0  0  0  0  0  0  0  0  0  0  0
   21.4901  -19.0007  -15.7563 C   0  0  0  0  0  0  0  0  0  0  0  0
   20.4001  -18.4273  -16.4059 C   0  0  0  0  0  0  0  0  0  0  0  0
   19.1507  -18.4599  -15.8381 C   0  0  0  0  0  0  0  0  0  0  0  0
   18.9488  -19.0597  -14.6153 C   0  0  0  0  0  0  0  0  0  0  0  0
   20.0337  -19.6202  -13.9882 C   0  0  0  0  0  0  0  0  0  0  0  0
   21.3090  -19.6061  -14.5311 C   0  0  0  0  0  0  0  0  0  0  0  0
   22.8301  -20.4280  -10.4958 O   0  0  0  0  0  0  0  0  0  0  0  0
   21.6246  -20.2232  -10.2302 O   0  0  0  0  0  0  0  0  0  0  0  0
  1  2  1  0
  2  3  2  0
  4  5  1  0
  4  2  1  0
  6  5  1  0
  7  6  1  0
  8 10  1  0
  8  7  1  0
  8  9  1  6
 10 11  2  0
 12 13  1  0
 12 10  1  0
 13 16  1  0
 13 14  1  6
 15 14  1  0
 16 17  2  0
 18 16  1  0
 18 19  1  0
 19 30  1  0
 19 20  1  1
 21 29  1  0
 21 20  1  0
 22 21  2  0
 23 22  1  0
 23 24  1  0
 24 25  1  0
 24 29  2  0
 25 26  2  0
 26 27  1  0
 28 27  2  0
 29 28  1  0
 30 31  2  0
 30 32  1  0
M  END
$$$$
