VTN.pdb
     RDKit          3D

 23 22  0  0  1  0  0  0  0  0999 V2000
   22.5416  -11.2697  -21.9116 C   0  0  0  0  0  0  0  0  0  0  0  0
   23.3138  -12.1765  -20.9442 C   0  0  2  0  0  0  0  0  0  0  0  0
   22.7273  -13.5446  -21.0804 C   0  0  0  0  0  0  0  0  0  0  0  0
   23.1328  -11.5851  -19.5761 C   0  0  2  0  0  0  0  0  0  0  0  0
   21.7492  -11.7524  -19.1698 N   0  0  0  0  0  0  0  0  0  0  0  0
   23.5299  -10.1668  -19.4677 C   0  0  0  0  0  0  0  0  0  0  0  0
   24.7121   -9.8142  -19.6520 O   0  0  0  0  0  0  0  0  0  0  0  0
   22.6310   -7.2939  -21.5042 C   0  0  0  0  0  0  0  0  0  0  0  0
   22.1035   -7.0397  -20.1254 C   0  0  1  0  0  0  0  0  0  0  0  0
   20.7444   -7.3635  -20.1181 O   0  0  0  0  0  0  0  0  0  0  0  0
   22.8597   -7.7638  -19.0521 C   0  0  2  0  0  0  0  0  0  0  0  0
   22.5667   -9.1804  -19.1503 N   0  0  0  0  0  0  0  0  0  0  0  0
   22.3339   -7.2821  -17.7304 C   0  0  0  0  0  0  0  0  0  0  0  0
   21.8901   -8.0392  -16.8398 O   0  0  0  0  0  0  0  0  0  0  0  0
   21.1521   -4.6213  -13.5832 N   0  0  0  0  0  0  0  0  0  0  0  0
   22.1219   -5.6424  -13.6874 C   0  0  0  0  0  0  0  0  0  0  0  0
   22.6029   -6.1196  -12.6233 O   0  0  0  0  0  0  0  0  0  0  0  0
   22.5463   -6.1239  -14.9963 C   0  0  0  0  0  0  0  0  0  0  0  0
   21.8833   -5.3908  -16.1426 C   0  0  2  0  0  0  0  0  0  0  0  0
   22.3158   -5.8846  -17.4223 N   0  0  0  0  0  0  0  0  0  0  0  0
   21.9171   -3.9311  -16.0310 C   0  0  0  0  0  0  0  0  0  0  0  0
   22.9701   -3.3304  -16.4457 O   0  0  0  0  0  0  0  0  0  0  0  0
   20.9316   -3.1171  -15.5240 O   0  0  0  0  0  0  0  0  0  0  0  0
  2  1  1  6
  2  3  1  0
  4  6  1  0
  4  2  1  0
  4  5  1  6
  6 12  1  0
  7  6  2  0
  9 10  1  0
  9  8  1  6
  9 11  1  0
 11 13  1  0
 11 12  1  6
 13 20  1  0
 13 14  2  0
 16 15  1  0
 16 18  1  0
 17 16  2  0
 19 21  1  0
 19 18  1  1
 20 19  1  0
 21 23  1  0
 22 21  2  0
M  END
$$$$
