VTN.pdb
     RDKit          3D

 23 22  0  0  1  0  0  0  0  0999 V2000
   20.6157  -13.5219  -17.2609 C   0  0  0  0  0  0  0  0  0  0  0  0
   19.1185  -13.2801  -17.0281 C   0  0  2  0  0  0  0  0  0  0  0  0
   18.4028  -13.8728  -18.1989 C   0  0  0  0  0  0  0  0  0  0  0  0
   18.9437  -11.7934  -16.9144 C   0  0  2  0  0  0  0  0  0  0  0  0
   19.2338  -11.1851  -18.2001 N   0  0  0  0  0  0  0  0  0  0  0  0
   19.7573  -11.1632  -15.8551 C   0  0  0  0  0  0  0  0  0  0  0  0
   19.6256  -11.4953  -14.6599 O   0  0  0  0  0  0  0  0  0  0  0  0
   23.3986  -11.1368  -15.2086 C   0  0  0  0  0  0  0  0  0  0  0  0
   22.9672   -9.7359  -15.5167 C   0  0  1  0  0  0  0  0  0  0  0  0
   23.2733   -9.4757  -16.8549 O   0  0  0  0  0  0  0  0  0  0  0  0
   21.5236   -9.4725  -15.2087 C   0  0  2  0  0  0  0  0  0  0  0  0
   20.7050  -10.1657  -16.1842 N   0  0  0  0  0  0  0  0  0  0  0  0
   21.2892   -7.9995  -15.3843 C   0  0  0  0  0  0  0  0  0  0  0  0
   20.5797   -7.5104  -16.2903 O   0  0  0  0  0  0  0  0  0  0  0  0
   20.7127   -3.0183  -14.6752 N   0  0  0  0  0  0  0  0  0  0  0  0
   19.7247   -3.9998  -14.4424 C   0  0  0  0  0  0  0  0  0  0  0  0
   18.5422   -3.6171  -14.2267 O   0  0  0  0  0  0  0  0  0  0  0  0
   20.0754   -5.4148  -14.4549 C   0  0  0  0  0  0  0  0  0  0  0  0
   21.5679   -5.6564  -14.5280 C   0  0  2  0  0  0  0  0  0  0  0  0
   21.8911   -7.0573  -14.4909 N   0  0  0  0  0  0  0  0  0  0  0  0
   22.3611   -4.8428  -13.6043 C   0  0  0  0  0  0  0  0  0  0  0  0
   22.4818   -5.2632  -12.4000 O   0  0  0  0  0  0  0  0  0  0  0  0
   23.0024   -3.6594  -13.8857 O   0  0  0  0  0  0  0  0  0  0  0  0
  2  1  1  6
  2  3  1  0
  4  6  1  0
  4  2  1  0
  4  5  1  6
  6 12  1  0
  7  6  2  0
  9 10  1  0
  9  8  1  6
  9 11  1  0
 11 13  1  0
 11 12  1  6
 13 20  1  0
 13 14  2  0
 16 15  1  0
 16 18  1  0
 17 16  2  0
 19 21  1  0
 19 18  1  1
 20 19  1  0
 21 23  1  0
 22 21  2  0
M  END
$$$$
