VTN.pdb
     RDKit          3D

 23 22  0  0  1  0  0  0  0  0999 V2000
   16.9115  -13.6714  -17.8801 C   0  0  0  0  0  0  0  0  0  0  0  0
   17.1875  -12.4756  -16.9591 C   0  0  2  0  0  0  0  0  0  0  0  0
   16.7820  -11.2514  -17.7149 C   0  0  0  0  0  0  0  0  0  0  0  0
   18.6538  -12.5188  -16.6395 C   0  0  2  0  0  0  0  0  0  0  0  0
   18.9657  -13.7990  -16.0304 N   0  0  0  0  0  0  0  0  0  0  0  0
   19.1227  -11.4146  -15.7781 C   0  0  0  0  0  0  0  0  0  0  0  0
   18.6967  -11.2824  -14.6132 O   0  0  0  0  0  0  0  0  0  0  0  0
   22.7952  -10.4349  -14.9019 C   0  0  0  0  0  0  0  0  0  0  0  0
   22.0876   -9.3465  -15.6493 C   0  0  1  0  0  0  0  0  0  0  0  0
   22.4714   -9.4256  -16.9904 O   0  0  0  0  0  0  0  0  0  0  0  0
   20.5973   -9.3805  -15.4880 C   0  0  2  0  0  0  0  0  0  0  0  0
   20.0694  -10.4837  -16.2667 N   0  0  0  0  0  0  0  0  0  0  0  0
   20.0538   -8.1095  -16.0749 C   0  0  0  0  0  0  0  0  0  0  0  0
   19.2326   -8.0730  -17.0172 O   0  0  0  0  0  0  0  0  0  0  0  0
   18.6646   -3.2376  -16.7645 N   0  0  0  0  0  0  0  0  0  0  0  0
   17.8314   -4.3375  -16.4649 C   0  0  0  0  0  0  0  0  0  0  0  0
   16.5819   -4.1693  -16.5091 O   0  0  0  0  0  0  0  0  0  0  0  0
   18.4128   -5.6282  -16.1161 C   0  0  0  0  0  0  0  0  0  0  0  0
   19.9251   -5.6026  -16.0596 C   0  0  2  0  0  0  0  0  0  0  0  0
   20.4684   -6.8386  -15.5639 N   0  0  0  0  0  0  0  0  0  0  0  0
   20.4893   -4.4117  -15.4211 C   0  0  0  0  0  0  0  0  0  0  0  0
   20.1386   -3.2699  -15.8845 O   0  0  0  0  0  0  0  0  0  0  0  0
   21.3670   -4.3775  -14.3631 O   0  0  0  0  0  0  0  0  0  0  0  0
  2  1  1  6
  2  3  1  0
  4  6  1  0
  4  2  1  0
  4  5  1  1
  6 12  1  0
  7  6  2  0
  9 10  1  0
  9  8  1  1
  9 11  1  0
 11 13  1  0
 11 12  1  6
 13 20  1  0
 13 14  2  0
 16 15  1  0
 16 18  1  0
 17 16  2  0
 19 21  1  0
 19 18  1  1
 20 19  1  0
 21 23  1  0
 22 21  2  0
M  END
$$$$
