VTN.pdb
     RDKit          3D

 23 22  0  0  1  0  0  0  0  0999 V2000
   25.9832  -19.2132   -9.3783 C   0  0  0  0  0  0  0  0  0  0  0  0
   25.3949  -20.6256   -9.4941 C   0  0  2  0  0  0  0  0  0  0  0  0
   25.6484  -21.3028   -8.1859 C   0  0  0  0  0  0  0  0  0  0  0  0
   26.0954  -21.2812  -10.6488 C   0  0  2  0  0  0  0  0  0  0  0  0
   27.5104  -21.3879  -10.3426 N   0  0  0  0  0  0  0  0  0  0  0  0
   25.9024  -20.6003  -11.9450 C   0  0  0  0  0  0  0  0  0  0  0  0
   26.6956  -19.7192  -12.3330 O   0  0  0  0  0  0  0  0  0  0  0  0
   26.3391  -21.6019  -15.2403 C   0  0  0  0  0  0  0  0  0  0  0  0
   24.8749  -21.3022  -15.1404 C   0  0  1  0  0  0  0  0  0  0  0  0
   24.1973  -22.5139  -14.9830 O   0  0  0  0  0  0  0  0  0  0  0  0
   24.5367  -20.3239  -14.0556 C   0  0  2  0  0  0  0  0  0  0  0  0
   24.8056  -20.9407  -12.7713 N   0  0  0  0  0  0  0  0  0  0  0  0
   23.0599  -20.0618  -14.1329 C   0  0  0  0  0  0  0  0  0  0  0  0
   22.2473  -20.3873  -13.2400 O   0  0  0  0  0  0  0  0  0  0  0  0
   18.4532  -18.3445  -15.7211 N   0  0  0  0  0  0  0  0  0  0  0  0
   19.4267  -17.5750  -16.3949 C   0  0  0  0  0  0  0  0  0  0  0  0
   19.0351  -16.6261  -17.1280 O   0  0  0  0  0  0  0  0  0  0  0  0
   20.8438  -17.8792  -16.2377 C   0  0  0  0  0  0  0  0  0  0  0  0
   21.0988  -19.0832  -15.3566 C   0  0  2  0  0  0  0  0  0  0  0  0
   22.4979  -19.4059  -15.2739 N   0  0  0  0  0  0  0  0  0  0  0  0
   20.2427  -20.2367  -15.6412 C   0  0  0  0  0  0  0  0  0  0  0  0
   20.6594  -21.0828  -16.5083 O   0  0  0  0  0  0  0  0  0  0  0  0
   19.0223  -20.5210  -15.0748 O   0  0  0  0  0  0  0  0  0  0  0  0
  2  1  1  1
  2  3  1  0
  4  6  1  0
  4  2  1  0
  4  5  1  1
  6 12  1  0
  7  6  2  0
  9 10  1  0
  9  8  1  1
  9 11  1  0
 11 13  1  0
 11 12  1  1
 13 20  1  0
 13 14  2  0
 16 15  1  0
 16 18  1  0
 17 16  2  0
 19 21  1  0
 19 18  1  6
 20 19  1  0
 21 23  1  0
 22 21  2  0
M  END
$$$$
