VTN.pdb
     RDKit          3D

 23 22  0  0  1  0  0  0  0  0999 V2000
   19.7109  -13.9967  -15.8511 C   0  0  0  0  0  0  0  0  0  0  0  0
   18.4237  -13.5510  -16.5574 C   0  0  2  0  0  0  0  0  0  0  0  0
   18.1485  -14.5627  -17.6227 C   0  0  0  0  0  0  0  0  0  0  0  0
   18.6932  -12.1764  -17.0978 C   0  0  2  0  0  0  0  0  0  0  0  0
   19.6218  -12.2806  -18.2087 N   0  0  0  0  0  0  0  0  0  0  0  0
   19.1991  -11.2161  -16.0964 C   0  0  0  0  0  0  0  0  0  0  0  0
   18.5490  -10.9631  -15.0623 O   0  0  0  0  0  0  0  0  0  0  0  0
   23.2633  -10.1364  -16.2176 C   0  0  0  0  0  0  0  0  0  0  0  0
   22.3671   -9.8928  -15.0423 C   0  0  1  0  0  0  0  0  0  0  0  0
   22.9609   -8.9116  -14.2443 O   0  0  0  0  0  0  0  0  0  0  0  0
   20.9628   -9.5325  -15.4248 C   0  0  2  0  0  0  0  0  0  0  0  0
   20.4384  -10.5642  -16.2982 N   0  0  0  0  0  0  0  0  0  0  0  0
   21.0267   -8.2575  -16.2158 C   0  0  0  0  0  0  0  0  0  0  0  0
   21.2499   -8.2112  -17.4453 O   0  0  0  0  0  0  0  0  0  0  0  0
   19.6004   -3.6438  -17.7984 N   0  0  0  0  0  0  0  0  0  0  0  0
   18.9383   -4.8720  -18.0156 C   0  0  0  0  0  0  0  0  0  0  0  0
   18.0099   -4.9068  -18.8690 O   0  0  0  0  0  0  0  0  0  0  0  0
   19.3280   -6.0609  -17.2674 C   0  0  0  0  0  0  0  0  0  0  0  0
   20.4726   -5.8110  -16.3090 C   0  0  2  0  0  0  0  0  0  0  0  0
   20.8296   -6.9940  -15.5732 N   0  0  0  0  0  0  0  0  0  0  0  0
   20.3150   -4.6201  -15.4716 C   0  0  0  0  0  0  0  0  0  0  0  0
   20.0694   -3.5100  -16.0623 O   0  0  0  0  0  0  0  0  0  0  0  0
   20.4016   -4.5552  -14.1008 O   0  0  0  0  0  0  0  0  0  0  0  0
  2  1  1  6
  2  3  1  0
  4  6  1  0
  4  2  1  0
  4  5  1  6
  6 12  1  0
  7  6  2  0
  9 10  1  0
  9  8  1  6
  9 11  1  0
 11 13  1  0
 11 12  1  6
 13 20  1  0
 13 14  2  0
 16 15  1  0
 16 18  1  0
 17 16  2  0
 19 21  1  0
 19 18  1  1
 20 19  1  0
 21 23  1  0
 22 21  2  0
M  END
$$$$
