VTN.pdb
     RDKit          3D

 23 22  0  0  1  0  0  0  0  0999 V2000
   16.1887  -13.3806  -16.4642 C   0  0  0  0  0  0  0  0  0  0  0  0
   17.5554  -13.8446  -16.9852 C   0  0  2  0  0  0  0  0  0  0  0  0
   17.7252  -15.2605  -16.5374 C   0  0  0  0  0  0  0  0  0  0  0  0
   18.5712  -12.9087  -16.3968 C   0  0  2  0  0  0  0  0  0  0  0  0
   18.5121  -12.9988  -14.9491 N   0  0  0  0  0  0  0  0  0  0  0  0
   18.4276  -11.5036  -16.8283 C   0  0  0  0  0  0  0  0  0  0  0  0
   18.6494  -11.1676  -18.0089 O   0  0  0  0  0  0  0  0  0  0  0  0
   15.5958   -9.2160  -17.0612 C   0  0  0  0  0  0  0  0  0  0  0  0
   16.5320   -8.6470  -16.0397 C   0  0  1  0  0  0  0  0  0  0  0  0
   16.0320   -8.9635  -14.7740 O   0  0  0  0  0  0  0  0  0  0  0  0
   17.9517   -9.0974  -16.2120 C   0  0  2  0  0  0  0  0  0  0  0  0
   18.0333  -10.5110  -15.9004 N   0  0  0  0  0  0  0  0  0  0  0  0
   18.7816   -8.3609  -15.1999 C   0  0  0  0  0  0  0  0  0  0  0  0
   19.5469   -8.9221  -14.3858 O   0  0  0  0  0  0  0  0  0  0  0  0
   22.0147   -4.8830  -13.4771 N   0  0  0  0  0  0  0  0  0  0  0  0
   22.2631   -5.8847  -14.4408 C   0  0  0  0  0  0  0  0  0  0  0  0
   23.4581   -6.1020  -14.7817 O   0  0  0  0  0  0  0  0  0  0  0  0
   21.1585   -6.6412  -15.0179 C   0  0  0  0  0  0  0  0  0  0  0  0
   19.8014   -6.1610  -14.5504 C   0  0  2  0  0  0  0  0  0  0  0  0
   18.7295   -6.9330  -15.1192 N   0  0  0  0  0  0  0  0  0  0  0  0
   19.6024   -4.7135  -14.6473 C   0  0  0  0  0  0  0  0  0  0  0  0
   19.3888   -4.2225  -15.8112 O   0  0  0  0  0  0  0  0  0  0  0  0
   19.6186   -3.8052  -13.6149 O   0  0  0  0  0  0  0  0  0  0  0  0
  2  1  1  1
  2  3  1  0
  4  6  1  0
  4  2  1  0
  4  5  1  1
  6 12  1  0
  7  6  2  0
  9 10  1  0
  9  8  1  6
  9 11  1  0
 11 13  1  0
 11 12  1  1
 13 20  1  0
 13 14  2  0
 16 15  1  0
 16 18  1  0
 17 16  2  0
 19 21  1  0
 19 18  1  6
 20 19  1  0
 21 23  1  0
 22 21  2  0
M  END
$$$$
