VTN.pdb
     RDKit          3D

 23 22  0  0  1  0  0  0  0  0999 V2000
   20.9717  -13.7069  -17.6861 C   0  0  0  0  0  0  0  0  0  0  0  0
   20.2621  -13.0178  -18.8592 C   0  0  2  0  0  0  0  0  0  0  0  0
   20.5791  -13.8190  -20.0806 C   0  0  0  0  0  0  0  0  0  0  0  0
   20.7976  -11.6162  -18.9117 C   0  0  2  0  0  0  0  0  0  0  0  0
   22.1627  -11.6514  -19.4043 N   0  0  0  0  0  0  0  0  0  0  0  0
   20.7360  -10.8916  -17.6263 C   0  0  0  0  0  0  0  0  0  0  0  0
   19.6524  -10.7313  -17.0297 O   0  0  0  0  0  0  0  0  0  0  0  0
   22.9092  -11.5716  -14.5037 C   0  0  0  0  0  0  0  0  0  0  0  0
   23.0961  -10.1613  -14.9727 C   0  0  1  0  0  0  0  0  0  0  0  0
   24.3069  -10.0954  -15.6668 O   0  0  0  0  0  0  0  0  0  0  0  0
   21.9503   -9.6456  -15.7907 C   0  0  2  0  0  0  0  0  0  0  0  0
   21.9154  -10.3646  -17.0493 N   0  0  0  0  0  0  0  0  0  0  0  0
   22.2333   -8.2034  -16.0996 C   0  0  0  0  0  0  0  0  0  0  0  0
   22.6271   -7.7941  -17.2136 O   0  0  0  0  0  0  0  0  0  0  0  0
   22.0945   -3.1034  -16.0477 N   0  0  0  0  0  0  0  0  0  0  0  0
   21.3003   -3.9668  -16.8336 C   0  0  0  0  0  0  0  0  0  0  0  0
   20.6315   -3.4671  -17.7792 O   0  0  0  0  0  0  0  0  0  0  0  0
   21.2642   -5.3963  -16.5495 C   0  0  0  0  0  0  0  0  0  0  0  0
   22.1581   -5.7953  -15.3950 C   0  0  2  0  0  0  0  0  0  0  0  0
   22.0601   -7.1985  -15.0954 N   0  0  0  0  0  0  0  0  0  0  0  0
   22.0518   -4.9314  -14.2174 C   0  0  0  0  0  0  0  0  0  0  0  0
   21.3725   -5.3681  -13.2228 O   0  0  0  0  0  0  0  0  0  0  0  0
   22.6071   -3.6841  -14.0535 O   0  0  0  0  0  0  0  0  0  0  0  0
  2  1  1  1
  2  3  1  0
  4  6  1  0
  4  2  1  0
  4  5  1  1
  6 12  1  0
  7  6  2  0
  9 10  1  0
  9  8  1  6
  9 11  1  0
 11 13  1  0
 11 12  1  6
 13 20  1  0
 13 14  2  0
 16 15  1  0
 16 18  1  0
 17 16  2  0
 19 21  1  0
 19 18  1  6
 20 19  1  0
 21 23  1  0
 22 21  2  0
M  END
$$$$
