VTN.pdb
     RDKit          3D

 23 22  0  0  1  0  0  0  0  0999 V2000
   26.3828  -20.0586  -16.9391 C   0  0  0  0  0  0  0  0  0  0  0  0
   27.2952  -20.6626  -15.8634 C   0  0  2  0  0  0  0  0  0  0  0  0
   28.4039  -21.3586  -16.5849 C   0  0  0  0  0  0  0  0  0  0  0  0
   26.4366  -21.5913  -15.0545 C   0  0  2  0  0  0  0  0  0  0  0  0
   25.9749  -22.6702  -15.9089 N   0  0  0  0  0  0  0  0  0  0  0  0
   25.2905  -20.9385  -14.3902 C   0  0  0  0  0  0  0  0  0  0  0  0
   25.4645  -20.0322  -13.5510 O   0  0  0  0  0  0  0  0  0  0  0  0
   22.6545  -18.9435  -15.9233 C   0  0  0  0  0  0  0  0  0  0  0  0
   21.9860  -20.1132  -15.2685 C   0  0  1  0  0  0  0  0  0  0  0  0
   21.6950  -21.0533  -16.2603 O   0  0  0  0  0  0  0  0  0  0  0  0
   22.7837  -20.7080  -14.1468 C   0  0  2  0  0  0  0  0  0  0  0  0
   23.9682  -21.3357  -14.6991 N   0  0  0  0  0  0  0  0  0  0  0  0
   21.9460  -21.7879  -13.5245 C   0  0  0  0  0  0  0  0  0  0  0  0
   22.1817  -23.0098  -13.6471 O   0  0  0  0  0  0  0  0  0  0  0  0
   19.3377  -24.3926   -9.5390 N   0  0  0  0  0  0  0  0  0  0  0  0
   18.7804  -23.2387  -10.1321 C   0  0  0  0  0  0  0  0  0  0  0  0
   17.5249  -23.1172  -10.1372 O   0  0  0  0  0  0  0  0  0  0  0  0
   19.6449  -22.2217  -10.7185 C   0  0  0  0  0  0  0  0  0  0  0  0
   19.9319  -22.4599  -12.1855 C   0  0  2  0  0  0  0  0  0  0  0  0
   20.7988  -21.4535  -12.7369 N   0  0  0  0  0  0  0  0  0  0  0  0
   18.7456  -22.7286  -13.0009 C   0  0  0  0  0  0  0  0  0  0  0  0
   18.0747  -23.7879  -12.7379 O   0  0  0  0  0  0  0  0  0  0  0  0
   18.2606  -21.9613  -14.0338 O   0  0  0  0  0  0  0  0  0  0  0  0
  2  1  1  6
  2  3  1  0
  4  6  1  0
  4  2  1  0
  4  5  1  6
  6 12  1  0
  7  6  2  0
  9 10  1  0
  9  8  1  6
  9 11  1  0
 11 13  1  0
 11 12  1  6
 13 20  1  0
 13 14  2  0
 16 15  1  0
 16 18  1  0
 17 16  2  0
 19 21  1  0
 19 18  1  1
 20 19  1  0
 21 23  1  0
 22 21  2  0
M  END
$$$$
