EKM.pdb
     RDKit          3D

 27 26  0  0  1  0  0  0  0  0999 V2000
   10.6976  -18.5455   18.6783 N   0  0  0  0  0  0  0  0  0  0  0  0
   11.1540  -18.6011   20.0457 C   0  0  1  0  0  0  0  0  0  0  0  0
   12.3647  -17.7088   20.1750 C   0  0  0  0  0  0  0  0  0  0  0  0
   12.7586  -17.1678   18.8184 C   0  0  0  0  0  0  0  0  0  0  0  0
   13.8256  -17.9997   18.2263 C   0  0  0  0  0  0  0  0  0  0  0  0
   14.9210  -18.1240   18.8074 O   0  0  0  0  0  0  0  0  0  0  0  0
   10.0441  -18.1547   20.9211 C   0  0  0  0  0  0  0  0  0  0  0  0
    9.0440  -17.5829   20.4349 O   0  0  0  0  0  0  0  0  0  0  0  0
   13.6051  -18.6371   17.0299 O   0  0  0  0  0  0  0  0  0  0  0  0
   10.0958  -18.3671   22.3229 N   0  0  0  0  0  0  0  0  0  0  0  0
    9.0163  -18.0537   23.2241 C   0  0  1  0  0  0  0  0  0  0  0  0
    8.7203  -19.3101   24.0332 C   0  0  0  0  0  0  0  0  0  0  0  0
    9.9763  -19.8722   24.6520 C   0  0  0  0  0  0  0  0  0  0  0  0
    9.6626  -21.0845   25.4616 C   0  0  0  0  0  0  0  0  0  0  0  0
   10.8128  -21.7140   26.1676 C   0  0  0  0  0  0  0  0  0  0  0  0
   10.3453  -22.8341   27.0002 N   0  0  0  0  0  0  0  0  0  0  0  0
    9.3729  -16.9167   24.1100 C   0  0  0  0  0  0  0  0  0  0  0  0
   10.5431  -16.8180   24.5110 O   0  0  0  0  0  0  0  0  0  0  0  0
    6.3953  -11.4167   25.2570 C   0  0  0  0  0  0  0  0  0  0  0  0
    7.7295  -11.6964   26.4532 S   0  0  0  0  0  0  0  0  0  0  0  0
    7.6020  -13.3845   27.0947 C   0  0  0  0  0  0  0  0  0  0  0  0
    7.2687  -14.3777   26.0048 C   0  0  0  0  0  0  0  0  0  0  0  0
    8.5641  -15.0697   25.6280 C   0  0  2  0  0  0  0  0  0  0  0  0
    8.4143  -15.9463   24.5066 N   0  0  0  0  0  0  0  0  0  0  0  0
    9.2173  -15.7264   26.7870 C   0  0  0  0  0  0  0  0  0  0  0  0
    8.8622  -16.8458   27.2310 O   0  0  0  0  0  0  0  0  0  0  0  0
   10.2720  -15.0863   27.4215 O   0  0  0  0  0  0  0  0  0  0  0  0
  2  1  1  6
  2  7  1  0
  3  2  1  0
  3  4  1  0
  4  5  1  0
  5  9  1  0
  5  6  2  0
  7 10  1  0
  7  8  2  0
 10 11  1  0
 11 12  1  1
 11 17  1  0
 13 14  1  0
 13 12  1  0
 15 16  1  0
 15 14  1  0
 17 18  2  0
 20 19  1  0
 20 21  1  0
 21 22  1  0
 23 22  1  1
 23 25  1  0
 24 23  1  0
 24 17  1  0
 25 26  2  0
 25 27  1  0
M  END
$$$$
