EKM.pdb
     RDKit          3D

 27 26  0  0  1  0  0  0  0  0999 V2000
    9.4277  -19.3780   18.7864 N   0  0  0  0  0  0  0  0  0  0  0  0
    9.7330  -18.0505   19.2617 C   0  0  1  0  0  0  0  0  0  0  0  0
    9.5145  -17.0812   18.1253 C   0  0  0  0  0  0  0  0  0  0  0  0
    9.2376  -17.8365   16.8442 C   0  0  0  0  0  0  0  0  0  0  0  0
   10.4898  -18.0350   16.0868 C   0  0  0  0  0  0  0  0  0  0  0  0
   11.5896  -17.7738   16.6113 O   0  0  0  0  0  0  0  0  0  0  0  0
    8.8473  -17.7579   20.4138 C   0  0  0  0  0  0  0  0  0  0  0  0
    8.1041  -16.7524   20.4028 O   0  0  0  0  0  0  0  0  0  0  0  0
   10.4370  -18.5098   14.7991 O   0  0  0  0  0  0  0  0  0  0  0  0
    8.8266  -18.6108   21.5474 N   0  0  0  0  0  0  0  0  0  0  0  0
    8.1344  -18.3030   22.7728 C   0  0  1  0  0  0  0  0  0  0  0  0
    7.9712  -19.6073   23.5428 C   0  0  0  0  0  0  0  0  0  0  0  0
    7.2066  -19.3944   24.8259 C   0  0  0  0  0  0  0  0  0  0  0  0
    7.1672  -20.6525   25.6256 C   0  0  0  0  0  0  0  0  0  0  0  0
    6.3696  -20.6029   26.8822 C   0  0  0  0  0  0  0  0  0  0  0  0
    6.5274  -21.8590   27.6329 N   0  0  0  0  0  0  0  0  0  0  0  0
    8.8821  -17.2987   23.5711 C   0  0  0  0  0  0  0  0  0  0  0  0
    9.8330  -17.6816   24.2705 O   0  0  0  0  0  0  0  0  0  0  0  0
    6.6290  -10.9593   27.5039 C   0  0  0  0  0  0  0  0  0  0  0  0
    6.1353  -12.2286   26.3063 S   0  0  0  0  0  0  0  0  0  0  0  0
    7.4868  -13.4183   26.1172 C   0  0  0  0  0  0  0  0  0  0  0  0
    7.2784  -14.3226   24.9238 C   0  0  0  0  0  0  0  0  0  0  0  0
    8.5840  -15.0590   24.6957 C   0  0  2  0  0  0  0  0  0  0  0  0
    8.5381  -15.9206   23.5538 N   0  0  0  0  0  0  0  0  0  0  0  0
    9.0701  -15.7484   25.9161 C   0  0  0  0  0  0  0  0  0  0  0  0
   10.1135  -15.4089   26.5262 O   0  0  0  0  0  0  0  0  0  0  0  0
    8.3488  -16.8211   26.4200 O   0  0  0  0  0  0  0  0  0  0  0  0
  2  1  1  6
  2  7  1  0
  3  2  1  0
  3  4  1  0
  4  5  1  0
  5  9  1  0
  5  6  2  0
  7 10  1  0
  7  8  2  0
 10 11  1  0
 11 12  1  1
 11 17  1  0
 13 14  1  0
 13 12  1  0
 15 16  1  0
 15 14  1  0
 17 18  2  0
 20 19  1  0
 20 21  1  0
 21 22  1  0
 23 22  1  1
 23 25  1  0
 24 23  1  0
 24 17  1  0
 25 26  2  0
 25 27  1  0
M  END
$$$$
