EKM.pdb
     RDKit          3D

 27 26  0  0  1  0  0  0  0  0999 V2000
   10.0194  -16.9568   18.9355 N   0  0  0  0  0  0  0  0  0  0  0  0
   10.9646  -16.8664   20.0216 C   0  0  1  0  0  0  0  0  0  0  0  0
   11.7302  -15.5739   19.8736 C   0  0  0  0  0  0  0  0  0  0  0  0
   12.9199  -15.7762   18.9615 C   0  0  0  0  0  0  0  0  0  0  0  0
   13.6683  -14.5122   18.8090 C   0  0  0  0  0  0  0  0  0  0  0  0
   13.2752  -13.4765   19.3797 O   0  0  0  0  0  0  0  0  0  0  0  0
   10.2093  -16.9169   21.2961 C   0  0  0  0  0  0  0  0  0  0  0  0
    9.0703  -16.4075   21.3785 O   0  0  0  0  0  0  0  0  0  0  0  0
   14.8018  -14.4830   18.0341 O   0  0  0  0  0  0  0  0  0  0  0  0
   10.7630  -17.5421   22.4429 N   0  0  0  0  0  0  0  0  0  0  0  0
   10.0592  -17.7034   23.6896 C   0  0  1  0  0  0  0  0  0  0  0  0
   10.6486  -18.9210   24.3902 C   0  0  0  0  0  0  0  0  0  0  0  0
   10.1019  -20.2035   23.8132 C   0  0  0  0  0  0  0  0  0  0  0  0
   10.6263  -21.3799   24.5647 C   0  0  0  0  0  0  0  0  0  0  0  0
   10.2093  -22.7169   24.0586 C   0  0  0  0  0  0  0  0  0  0  0  0
   10.8279  -23.7805   24.8664 N   0  0  0  0  0  0  0  0  0  0  0  0
   10.1815  -16.4877   24.5333 C   0  0  0  0  0  0  0  0  0  0  0  0
   11.2836  -15.9222   24.6075 O   0  0  0  0  0  0  0  0  0  0  0  0
    6.1396  -11.1955   25.8797 C   0  0  0  0  0  0  0  0  0  0  0  0
    6.5130  -12.0011   27.4611 S   0  0  0  0  0  0  0  0  0  0  0  0
    8.0038  -13.0105   27.2710 C   0  0  0  0  0  0  0  0  0  0  0  0
    7.8281  -14.0825   26.2197 C   0  0  0  0  0  0  0  0  0  0  0  0
    9.1432  -14.8317   26.1301 C   0  0  2  0  0  0  0  0  0  0  0  0
    9.0757  -15.9599   25.2522 N   0  0  0  0  0  0  0  0  0  0  0  0
    9.6959  -15.1740   27.4637 C   0  0  0  0  0  0  0  0  0  0  0  0
    9.6519  -16.3315   27.9480 O   0  0  0  0  0  0  0  0  0  0  0  0
   10.2931  -14.1792   28.2244 O   0  0  0  0  0  0  0  0  0  0  0  0
  2  1  1  6
  2  7  1  0
  3  2  1  0
  3  4  1  0
  4  5  1  0
  5  9  1  0
  5  6  2  0
  7 10  1  0
  7  8  2  0
 10 11  1  0
 11 12  1  1
 11 17  1  0
 13 14  1  0
 13 12  1  0
 15 16  1  0
 15 14  1  0
 17 18  2  0
 20 19  1  0
 20 21  1  0
 21 22  1  0
 23 22  1  1
 23 25  1  0
 24 23  1  0
 24 17  1  0
 25 26  2  0
 25 27  1  0
M  END
$$$$
