EKM.pdb
     RDKit          3D

 27 26  0  0  1  0  0  0  0  0999 V2000
   11.1390  -19.6816   20.7898 N   0  0  0  0  0  0  0  0  0  0  0  0
   11.6360  -18.3435   20.9991 C   0  0  1  0  0  0  0  0  0  0  0  0
   12.0164  -17.7668   19.6569 C   0  0  0  0  0  0  0  0  0  0  0  0
   12.7394  -18.8073   18.8304 C   0  0  0  0  0  0  0  0  0  0  0  0
   13.1667  -18.2291   17.5404 C   0  0  0  0  0  0  0  0  0  0  0  0
   14.2252  -17.5757   17.4645 O   0  0  0  0  0  0  0  0  0  0  0  0
   10.5687  -17.5524   21.6565 C   0  0  0  0  0  0  0  0  0  0  0  0
   10.6323  -16.3040   21.6869 O   0  0  0  0  0  0  0  0  0  0  0  0
   12.3911  -18.4150   16.4224 O   0  0  0  0  0  0  0  0  0  0  0  0
    9.4583  -18.1952   22.2621 N   0  0  0  0  0  0  0  0  0  0  0  0
    8.3916  -17.4961   22.9322 C   0  0  1  0  0  0  0  0  0  0  0  0
    7.1153  -18.2992   22.7158 C   0  0  0  0  0  0  0  0  0  0  0  0
    6.7693  -18.3945   21.2503 C   0  0  0  0  0  0  0  0  0  0  0  0
    5.5745  -19.2642   21.0509 C   0  0  0  0  0  0  0  0  0  0  0  0
    5.1517  -19.4793   19.6393 C   0  0  0  0  0  0  0  0  0  0  0  0
    3.9171  -20.2797   19.5961 N   0  0  0  0  0  0  0  0  0  0  0  0
    8.6847  -17.3343   24.3788 C   0  0  0  0  0  0  0  0  0  0  0  0
    8.1365  -18.0998   25.1871 O   0  0  0  0  0  0  0  0  0  0  0  0
    6.1143  -11.6348   26.0448 C   0  0  0  0  0  0  0  0  0  0  0  0
    7.7353  -12.1069   26.7070 S   0  0  0  0  0  0  0  0  0  0  0  0
    7.7502  -13.8912   27.0131 C   0  0  0  0  0  0  0  0  0  0  0  0
    7.9924  -14.6783   25.7454 C   0  0  0  0  0  0  0  0  0  0  0  0
    9.2840  -15.4473   25.9441 C   0  0  2  0  0  0  0  0  0  0  0  0
    9.5710  -16.3321   24.8564 N   0  0  0  0  0  0  0  0  0  0  0  0
    9.3488  -16.1205   27.2645 C   0  0  0  0  0  0  0  0  0  0  0  0
    8.6696  -17.1369   27.5504 O   0  0  0  0  0  0  0  0  0  0  0  0
   10.1954  -15.6154   28.2407 O   0  0  0  0  0  0  0  0  0  0  0  0
  2  1  1  6
  2  7  1  0
  3  2  1  0
  3  4  1  0
  4  5  1  0
  5  9  1  0
  5  6  2  0
  7 10  1  0
  7  8  2  0
 10 11  1  0
 11 12  1  1
 11 17  1  0
 13 14  1  0
 13 12  1  0
 15 16  1  0
 15 14  1  0
 17 18  2  0
 20 19  1  0
 20 21  1  0
 21 22  1  0
 23 22  1  6
 23 25  1  0
 24 23  1  0
 24 17  1  0
 25 26  2  0
 25 27  1  0
M  END
$$$$
