EKM.pdb
     RDKit          3D

 27 26  0  0  1  0  0  0  0  0999 V2000
    9.8973  -15.3831   18.8209 N   0  0  0  0  0  0  0  0  0  0  0  0
    8.7934  -14.4842   19.0548 C   0  0  1  0  0  0  0  0  0  0  0  0
    7.9856  -14.3889   17.7832 C   0  0  0  0  0  0  0  0  0  0  0  0
    8.8843  -14.5793   16.5813 C   0  0  0  0  0  0  0  0  0  0  0  0
    8.0937  -14.5110   15.3358 C   0  0  0  0  0  0  0  0  0  0  0  0
    8.2359  -13.5519   14.5530 O   0  0  0  0  0  0  0  0  0  0  0  0
    7.9907  -15.0220   20.1790 C   0  0  0  0  0  0  0  0  0  0  0  0
    7.0028  -14.3895   20.6120 O   0  0  0  0  0  0  0  0  0  0  0  0
    7.1992  -15.5113   15.0432 O   0  0  0  0  0  0  0  0  0  0  0  0
    8.3276  -16.2607   20.7831 N   0  0  0  0  0  0  0  0  0  0  0  0
    7.6802  -16.7844   21.9588 C   0  0  1  0  0  0  0  0  0  0  0  0
    7.9380  -18.2855   21.9891 C   0  0  0  0  0  0  0  0  0  0  0  0
    7.3587  -18.9163   23.2312 C   0  0  0  0  0  0  0  0  0  0  0  0
    7.5987  -20.3880   23.2306 C   0  0  0  0  0  0  0  0  0  0  0  0
    6.9565  -21.1550   24.3337 C   0  0  0  0  0  0  0  0  0  0  0  0
    7.2475  -22.5906   24.1896 N   0  0  0  0  0  0  0  0  0  0  0  0
    8.1920  -16.1273   23.1880 C   0  0  0  0  0  0  0  0  0  0  0  0
    9.4182  -16.0847   23.3745 O   0  0  0  0  0  0  0  0  0  0  0  0
    7.0211  -10.2105   26.6520 C   0  0  0  0  0  0  0  0  0  0  0  0
    6.3580  -11.6796   27.4834 S   0  0  0  0  0  0  0  0  0  0  0  0
    7.3278  -13.1257   26.9877 C   0  0  0  0  0  0  0  0  0  0  0  0
    6.7326  -13.8167   25.7820 C   0  0  0  0  0  0  0  0  0  0  0  0
    7.7506  -14.8374   25.3120 C   0  0  2  0  0  0  0  0  0  0  0  0
    7.3188  -15.5504   24.1486 N   0  0  0  0  0  0  0  0  0  0  0  0
    8.2010  -15.7369   26.4025 C   0  0  0  0  0  0  0  0  0  0  0  0
    7.7223  -16.8825   26.5885 O   0  0  0  0  0  0  0  0  0  0  0  0
    9.1976  -15.3066   27.2664 O   0  0  0  0  0  0  0  0  0  0  0  0
  2  1  1  6
  2  7  1  0
  3  2  1  0
  3  4  1  0
  4  5  1  0
  5  9  1  0
  5  6  2  0
  7 10  1  0
  7  8  2  0
 10 11  1  0
 11 12  1  1
 11 17  1  0
 13 14  1  0
 13 12  1  0
 15 16  1  0
 15 14  1  0
 17 18  2  0
 20 19  1  0
 20 21  1  0
 21 22  1  0
 23 22  1  1
 23 25  1  0
 24 23  1  0
 24 17  1  0
 25 26  2  0
 25 27  1  0
M  END
$$$$
