EKM.pdb
     RDKit          3D

 27 26  0  0  1  0  0  0  0  0999 V2000
    8.5245  -20.2751   18.3198 N   0  0  0  0  0  0  0  0  0  0  0  0
    9.2648  -19.3792   19.1745 C   0  0  1  0  0  0  0  0  0  0  0  0
    9.6954  -18.1900   18.3504 C   0  0  0  0  0  0  0  0  0  0  0  0
   10.1715  -18.6463   16.9890 C   0  0  0  0  0  0  0  0  0  0  0  0
   10.4483  -17.4797   16.1266 C   0  0  0  0  0  0  0  0  0  0  0  0
   11.4880  -16.8119   16.2876 O   0  0  0  0  0  0  0  0  0  0  0  0
    8.3844  -18.9812   20.2987 C   0  0  0  0  0  0  0  0  0  0  0  0
    7.1723  -18.7458   20.1019 O   0  0  0  0  0  0  0  0  0  0  0  0
    9.5530  -17.1333   15.1445 O   0  0  0  0  0  0  0  0  0  0  0  0
    8.8993  -18.8602   21.6152 N   0  0  0  0  0  0  0  0  0  0  0  0
    8.0873  -18.5922   22.7747 C   0  0  1  0  0  0  0  0  0  0  0  0
    8.2127  -19.7922   23.7047 C   0  0  0  0  0  0  0  0  0  0  0  0
    9.6331  -19.9707   24.1810 C   0  0  0  0  0  0  0  0  0  0  0  0
    9.7631  -21.2234   24.9794 C   0  0  0  0  0  0  0  0  0  0  0  0
   11.1352  -21.5572   25.4522 C   0  0  0  0  0  0  0  0  0  0  0  0
   11.1125  -22.8028   26.2360 N   0  0  0  0  0  0  0  0  0  0  0  0
    8.5176  -17.3422   23.4509 C   0  0  0  0  0  0  0  0  0  0  0  0
    9.7098  -17.0056   23.3785 O   0  0  0  0  0  0  0  0  0  0  0  0
    7.5248  -10.4846   26.3334 C   0  0  0  0  0  0  0  0  0  0  0  0
    6.9375  -11.8856   25.3427 S   0  0  0  0  0  0  0  0  0  0  0  0
    7.2979  -13.4244   26.2257 C   0  0  0  0  0  0  0  0  0  0  0  0
    6.7691  -14.6338   25.4887 C   0  0  0  0  0  0  0  0  0  0  0  0
    7.9693  -15.3548   24.9068 C   0  0  2  0  0  0  0  0  0  0  0  0
    7.6044  -16.5283   24.1732 N   0  0  0  0  0  0  0  0  0  0  0  0
    9.0235  -15.6142   25.9179 C   0  0  0  0  0  0  0  0  0  0  0  0
    9.0432  -16.6407   26.6405 O   0  0  0  0  0  0  0  0  0  0  0  0
   10.0431  -14.6885   26.0852 O   0  0  0  0  0  0  0  0  0  0  0  0
  2  1  1  6
  2  7  1  0
  3  2  1  0
  3  4  1  0
  4  5  1  0
  5  9  1  0
  5  6  2  0
  7 10  1  0
  7  8  2  0
 10 11  1  0
 11 12  1  1
 11 17  1  0
 13 14  1  0
 13 12  1  0
 15 16  1  0
 15 14  1  0
 17 18  2  0
 20 19  1  0
 20 21  1  0
 21 22  1  0
 23 22  1  1
 23 25  1  0
 24 23  1  0
 24 17  1  0
 25 26  2  0
 25 27  1  0
M  END
$$$$
