EKM.pdb
     RDKit          3D

 27 26  0  0  1  0  0  0  0  0999 V2000
    9.3131  -13.9073   18.0331 N   0  0  0  0  0  0  0  0  0  0  0  0
    9.5659  -15.2383   18.5289 C   0  0  1  0  0  0  0  0  0  0  0  0
   11.0492  -15.3767   18.7723 C   0  0  0  0  0  0  0  0  0  0  0  0
   11.6402  -14.0375   19.1541 C   0  0  0  0  0  0  0  0  0  0  0  0
   13.0884  -14.1722   19.4108 C   0  0  0  0  0  0  0  0  0  0  0  0
   13.4965  -14.5451   20.5276 O   0  0  0  0  0  0  0  0  0  0  0  0
    8.7833  -15.4232   19.7741 C   0  0  0  0  0  0  0  0  0  0  0  0
    8.3127  -14.4356   20.3796 O   0  0  0  0  0  0  0  0  0  0  0  0
   13.9852  -13.8841   18.4114 O   0  0  0  0  0  0  0  0  0  0  0  0
    8.5545  -16.7205   20.3009 N   0  0  0  0  0  0  0  0  0  0  0  0
    7.7123  -16.9896   21.4384 C   0  0  1  0  0  0  0  0  0  0  0  0
    7.6272  -18.5027   21.5933 C   0  0  0  0  0  0  0  0  0  0  0  0
    6.8075  -18.8849   22.8009 C   0  0  0  0  0  0  0  0  0  0  0  0
    6.5858  -20.3591   22.8367 C   0  0  0  0  0  0  0  0  0  0  0  0
    5.8257  -20.8770   24.0079 C   0  0  0  0  0  0  0  0  0  0  0  0
    5.7433  -22.3454   23.9499 N   0  0  0  0  0  0  0  0  0  0  0  0
    8.2538  -16.3542   22.6663 C   0  0  0  0  0  0  0  0  0  0  0  0
    9.4672  -16.4576   22.9052 O   0  0  0  0  0  0  0  0  0  0  0  0
    7.2794  -10.7082   27.7790 C   0  0  0  0  0  0  0  0  0  0  0  0
    6.3468  -12.1968   27.3277 S   0  0  0  0  0  0  0  0  0  0  0  0
    7.4691  -13.3800   26.5416 C   0  0  0  0  0  0  0  0  0  0  0  0
    6.8645  -13.9884   25.2968 C   0  0  0  0  0  0  0  0  0  0  0  0
    7.8935  -14.9471   24.7303 C   0  0  2  0  0  0  0  0  0  0  0  0
    7.4230  -15.6361   23.5675 N   0  0  0  0  0  0  0  0  0  0  0  0
    8.4440  -15.8646   25.7581 C   0  0  0  0  0  0  0  0  0  0  0  0
    7.9687  -17.0042   25.9855 O   0  0  0  0  0  0  0  0  0  0  0  0
    9.5356  -15.4592   26.5122 O   0  0  0  0  0  0  0  0  0  0  0  0
  2  1  1  1
  2  7  1  0
  3  2  1  0
  3  4  1  0
  4  5  1  0
  5  9  1  0
  5  6  2  0
  7 10  1  0
  7  8  2  0
 10 11  1  0
 11 12  1  1
 11 17  1  0
 13 14  1  0
 13 12  1  0
 15 16  1  0
 15 14  1  0
 17 18  2  0
 20 19  1  0
 20 21  1  0
 21 22  1  0
 23 22  1  1
 23 25  1  0
 24 23  1  0
 24 17  1  0
 25 26  2  0
 25 27  1  0
M  END
$$$$
