EKM.pdb
     RDKit          3D

 27 26  0  0  1  0  0  0  0  0999 V2000
    9.1244  -18.7019   19.7672 N   0  0  0  0  0  0  0  0  0  0  0  0
   10.4623  -18.1623   19.7817 C   0  0  1  0  0  0  0  0  0  0  0  0
   10.7579  -17.5986   18.4129 C   0  0  0  0  0  0  0  0  0  0  0  0
   10.6989  -18.6973   17.3747 C   0  0  0  0  0  0  0  0  0  0  0  0
   11.0700  -18.1669   16.0473 C   0  0  0  0  0  0  0  0  0  0  0  0
   10.2542  -18.2024   15.1059 O   0  0  0  0  0  0  0  0  0  0  0  0
   10.5279  -17.1197   20.8333 C   0  0  0  0  0  0  0  0  0  0  0  0
   11.5287  -16.3759   20.9269 O   0  0  0  0  0  0  0  0  0  0  0  0
   12.3207  -17.6333   15.8543 O   0  0  0  0  0  0  0  0  0  0  0  0
    9.4596  -16.9468   21.7507 N   0  0  0  0  0  0  0  0  0  0  0  0
    9.4963  -16.0347   22.8652 C   0  0  1  0  0  0  0  0  0  0  0  0
    8.0583  -15.6408   23.1780 C   0  0  0  0  0  0  0  0  0  0  0  0
    8.0041  -14.5119   24.1775 C   0  0  0  0  0  0  0  0  0  0  0  0
    6.5899  -14.1370   24.4661 C   0  0  0  0  0  0  0  0  0  0  0  0
    6.3951  -12.9522   25.3470 C   0  0  0  0  0  0  0  0  0  0  0  0
    4.9590  -12.7005   25.5482 N   0  0  0  0  0  0  0  0  0  0  0  0
   10.1504  -16.6573   24.0438 C   0  0  0  0  0  0  0  0  0  0  0  0
    9.9279  -17.8539   24.2859 O   0  0  0  0  0  0  0  0  0  0  0  0
   10.8012  -13.8729   31.0153 C   0  0  0  0  0  0  0  0  0  0  0  0
   10.3689  -13.6035   29.2746 S   0  0  0  0  0  0  0  0  0  0  0  0
   10.1737  -15.2086   28.4603 C   0  0  0  0  0  0  0  0  0  0  0  0
   10.0166  -15.0656   26.9636 C   0  0  0  0  0  0  0  0  0  0  0  0
   11.0174  -16.0076   26.3234 C   0  0  2  0  0  0  0  0  0  0  0  0
   11.0184  -15.9221   24.8948 N   0  0  0  0  0  0  0  0  0  0  0  0
   10.8836  -17.4009   26.8152 C   0  0  0  0  0  0  0  0  0  0  0  0
    9.9752  -18.1789   26.4334 O   0  0  0  0  0  0  0  0  0  0  0  0
   11.7977  -17.8824   27.7411 O   0  0  0  0  0  0  0  0  0  0  0  0
  2  1  1  6
  2  7  1  0
  3  2  1  0
  3  4  1  0
  4  5  1  0
  5  9  1  0
  5  6  2  0
  7 10  1  0
  7  8  2  0
 10 11  1  0
 11 12  1  1
 11 17  1  0
 13 14  1  0
 13 12  1  0
 15 16  1  0
 15 14  1  0
 17 18  2  0
 20 19  1  0
 20 21  1  0
 21 22  1  0
 23 22  1  1
 23 25  1  0
 24 23  1  0
 24 17  1  0
 25 26  2  0
 25 27  1  0
M  END
$$$$
