EKM.pdb
     RDKit          3D

 27 26  0  0  1  0  0  0  0  0999 V2000
    9.0926  -13.6440   18.5111 N   0  0  0  0  0  0  0  0  0  0  0  0
    9.8311  -14.6149   19.2815 C   0  0  1  0  0  0  0  0  0  0  0  0
   11.1852  -14.0302   19.6028 C   0  0  0  0  0  0  0  0  0  0  0  0
   12.2755  -15.0134   19.2384 C   0  0  0  0  0  0  0  0  0  0  0  0
   13.5940  -14.4903   19.6492 C   0  0  0  0  0  0  0  0  0  0  0  0
   14.4738  -14.2640   18.7961 O   0  0  0  0  0  0  0  0  0  0  0  0
    9.0557  -14.9169   20.5082 C   0  0  0  0  0  0  0  0  0  0  0  0
    8.4545  -14.0060   21.1184 O   0  0  0  0  0  0  0  0  0  0  0  0
   13.8471  -14.2536   20.9782 O   0  0  0  0  0  0  0  0  0  0  0  0
    8.9817  -16.2412   21.0116 N   0  0  0  0  0  0  0  0  0  0  0  0
    8.1511  -16.6346   22.1210 C   0  0  1  0  0  0  0  0  0  0  0  0
    7.8126  -18.1083   21.9354 C   0  0  0  0  0  0  0  0  0  0  0  0
    6.9402  -18.6158   23.0569 C   0  0  0  0  0  0  0  0  0  0  0  0
    6.4563  -19.9946   22.7595 C   0  0  0  0  0  0  0  0  0  0  0  0
    5.5729  -20.6125   23.7868 C   0  0  0  0  0  0  0  0  0  0  0  0
    6.3185  -21.6218   24.5561 N   0  0  0  0  0  0  0  0  0  0  0  0
    8.8419  -16.4017   23.4146 C   0  0  0  0  0  0  0  0  0  0  0  0
    9.9605  -16.9086   23.5925 O   0  0  0  0  0  0  0  0  0  0  0  0
    5.6743  -11.8289   26.2905 C   0  0  0  0  0  0  0  0  0  0  0  0
    7.3828  -11.7930   26.8978 S   0  0  0  0  0  0  0  0  0  0  0  0
    8.3379  -13.0743   26.0471 C   0  0  0  0  0  0  0  0  0  0  0  0
    8.0433  -14.4527   26.5935 C   0  0  0  0  0  0  0  0  0  0  0  0
    8.8251  -15.4385   25.7474 C   0  0  2  0  0  0  0  0  0  0  0  0
    8.2579  -15.6184   24.4458 N   0  0  0  0  0  0  0  0  0  0  0  0
    9.0708  -16.7223   26.4492 C   0  0  0  0  0  0  0  0  0  0  0  0
    8.3136  -17.7180   26.3429 O   0  0  0  0  0  0  0  0  0  0  0  0
   10.1858  -16.8446   27.2656 O   0  0  0  0  0  0  0  0  0  0  0  0
  2  1  1  6
  2  7  1  0
  3  2  1  0
  3  4  1  0
  4  5  1  0
  5  9  1  0
  5  6  2  0
  7 10  1  0
  7  8  2  0
 10 11  1  0
 11 12  1  6
 11 17  1  0
 13 14  1  0
 13 12  1  0
 15 16  1  0
 15 14  1  0
 17 18  2  0
 20 19  1  0
 20 21  1  0
 21 22  1  0
 23 22  1  1
 23 25  1  0
 24 23  1  0
 24 17  1  0
 25 26  2  0
 25 27  1  0
M  END
$$$$
