EKM.pdb
     RDKit          3D

 27 26  0  0  1  0  0  0  0  0999 V2000
   12.9321  -16.5372   19.6728 N   0  0  0  0  0  0  0  0  0  0  0  0
   12.7749  -16.9912   21.0331 C   0  0  1  0  0  0  0  0  0  0  0  0
   14.0055  -16.5889   21.8093 C   0  0  0  0  0  0  0  0  0  0  0  0
   15.1967  -16.4937   20.8818 C   0  0  0  0  0  0  0  0  0  0  0  0
   16.4191  -16.1819   21.6497 C   0  0  0  0  0  0  0  0  0  0  0  0
   16.3560  -15.9849   22.8786 O   0  0  0  0  0  0  0  0  0  0  0  0
   11.5470  -16.3725   21.5870 C   0  0  0  0  0  0  0  0  0  0  0  0
   11.5117  -15.1480   21.8375 O   0  0  0  0  0  0  0  0  0  0  0  0
   17.6282  -16.1099   21.0024 O   0  0  0  0  0  0  0  0  0  0  0  0
   10.3922  -17.1561   21.8428 N   0  0  0  0  0  0  0  0  0  0  0  0
    9.1471  -16.6185   22.3289 C   0  0  1  0  0  0  0  0  0  0  0  0
    8.0731  -17.6722   22.0905 C   0  0  0  0  0  0  0  0  0  0  0  0
    7.5425  -17.6047   20.6797 C   0  0  0  0  0  0  0  0  0  0  0  0
    7.6715  -18.9303   20.0089 C   0  0  0  0  0  0  0  0  0  0  0  0
    7.3448  -18.9617   18.5563 C   0  0  0  0  0  0  0  0  0  0  0  0
    7.6810  -20.2777   17.9893 N   0  0  0  0  0  0  0  0  0  0  0  0
    9.2429  -16.2663   23.7682 C   0  0  0  0  0  0  0  0  0  0  0  0
   10.1715  -16.7447   24.4382 O   0  0  0  0  0  0  0  0  0  0  0  0
    6.4114  -10.8955   27.3970 C   0  0  0  0  0  0  0  0  0  0  0  0
    6.1947  -11.5977   25.7389 S   0  0  0  0  0  0  0  0  0  0  0  0
    7.4784  -12.8419   25.4532 C   0  0  0  0  0  0  0  0  0  0  0  0
    7.1737  -14.1397   26.1661 C   0  0  0  0  0  0  0  0  0  0  0  0
    8.2730  -15.1154   25.7942 C   0  0  2  0  0  0  0  0  0  0  0  0
    8.3046  -15.4013   24.3922 N   0  0  0  0  0  0  0  0  0  0  0  0
    8.2536  -16.3411   26.6299 C   0  0  0  0  0  0  0  0  0  0  0  0
    7.5397  -17.3397   26.3666 O   0  0  0  0  0  0  0  0  0  0  0  0
    9.0568  -16.4027   27.7595 O   0  0  0  0  0  0  0  0  0  0  0  0
  2  1  1  6
  2  7  1  0
  3  2  1  0
  3  4  1  0
  4  5  1  0
  5  9  1  0
  5  6  2  0
  7 10  1  0
  7  8  2  0
 10 11  1  0
 11 12  1  1
 11 17  1  0
 13 14  1  0
 13 12  1  0
 15 16  1  0
 15 14  1  0
 17 18  2  0
 20 19  1  0
 20 21  1  0
 21 22  1  0
 23 22  1  6
 23 25  1  0
 24 23  1  0
 24 17  1  0
 25 26  2  0
 25 27  1  0
M  END
$$$$
