EKM.pdb
     RDKit          3D

 27 26  0  0  1  0  0  0  0  0999 V2000
    7.7591  -19.3505   20.5897 N   0  0  0  0  0  0  0  0  0  0  0  0
    7.0990  -18.2913   21.3135 C   0  0  1  0  0  0  0  0  0  0  0  0
    6.7115  -18.8202   22.6732 C   0  0  0  0  0  0  0  0  0  0  0  0
    7.9423  -19.2843   23.4203 C   0  0  0  0  0  0  0  0  0  0  0  0
    7.5654  -19.8193   24.7442 C   0  0  0  0  0  0  0  0  0  0  0  0
    6.3654  -19.9024   25.0700 O   0  0  0  0  0  0  0  0  0  0  0  0
    8.0361  -17.1471   21.4135 C   0  0  0  0  0  0  0  0  0  0  0  0
    9.2719  -17.3364   21.3937 O   0  0  0  0  0  0  0  0  0  0  0  0
    8.5451  -20.2259   25.6167 O   0  0  0  0  0  0  0  0  0  0  0  0
    7.5497  -15.8198   21.5333 N   0  0  0  0  0  0  0  0  0  0  0  0
    8.3706  -14.6457   21.3813 C   0  0  1  0  0  0  0  0  0  0  0  0
    7.5360  -13.5982   20.6555 C   0  0  0  0  0  0  0  0  0  0  0  0
    7.1304  -14.0752   19.2828 C   0  0  0  0  0  0  0  0  0  0  0  0
    8.0838  -13.5728   18.2522 C   0  0  0  0  0  0  0  0  0  0  0  0
    7.7268  -13.8627   16.8358 C   0  0  0  0  0  0  0  0  0  0  0  0
    8.8104  -13.4265   15.9403 N   0  0  0  0  0  0  0  0  0  0  0  0
    8.8338  -14.1433   22.6996 C   0  0  0  0  0  0  0  0  0  0  0  0
    8.9441  -12.9184   22.8653 O   0  0  0  0  0  0  0  0  0  0  0  0
    8.0007  -11.6082   27.8263 C   0  0  0  0  0  0  0  0  0  0  0  0
    6.6270  -12.4001   26.9459 S   0  0  0  0  0  0  0  0  0  0  0  0
    7.0158  -14.1510   26.6996 C   0  0  0  0  0  0  0  0  0  0  0  0
    7.2722  -14.4719   25.2448 C   0  0  0  0  0  0  0  0  0  0  0  0
    8.7398  -14.8339   25.1254 C   0  0  2  0  0  0  0  0  0  0  0  0
    9.1514  -15.0242   23.7679 N   0  0  0  0  0  0  0  0  0  0  0  0
    9.1208  -15.9661   26.0051 C   0  0  0  0  0  0  0  0  0  0  0  0
    9.2918  -17.1358   25.5824 O   0  0  0  0  0  0  0  0  0  0  0  0
    9.3004  -15.7383   27.3617 O   0  0  0  0  0  0  0  0  0  0  0  0
  2  1  1  6
  2  7  1  0
  3  2  1  0
  3  4  1  0
  4  5  1  0
  5  9  1  0
  5  6  2  0
  7 10  1  0
  7  8  2  0
 10 11  1  0
 11 12  1  1
 11 17  1  0
 13 14  1  0
 13 12  1  0
 15 16  1  0
 15 14  1  0
 17 18  2  0
 20 19  1  0
 20 21  1  0
 21 22  1  0
 23 22  1  6
 23 25  1  0
 24 23  1  0
 24 17  1  0
 25 26  2  0
 25 27  1  0
M  END
$$$$
