EKM.pdb
     RDKit          3D

 27 26  0  0  1  0  0  0  0  0999 V2000
   10.2290  -17.7739   18.1187 N   0  0  0  0  0  0  0  0  0  0  0  0
   10.6980  -17.9681   19.4692 C   0  0  1  0  0  0  0  0  0  0  0  0
   11.8815  -17.0580   19.6925 C   0  0  0  0  0  0  0  0  0  0  0  0
   12.9375  -17.7698   20.5089 C   0  0  0  0  0  0  0  0  0  0  0  0
   14.0430  -16.8455   20.8322 C   0  0  0  0  0  0  0  0  0  0  0  0
   14.4868  -16.7788   21.9948 O   0  0  0  0  0  0  0  0  0  0  0  0
    9.5820  -17.6584   20.3942 C   0  0  0  0  0  0  0  0  0  0  0  0
    9.0043  -16.5506   20.3421 O   0  0  0  0  0  0  0  0  0  0  0  0
   14.5813  -16.0581   19.8439 O   0  0  0  0  0  0  0  0  0  0  0  0
    9.1497  -18.6102   21.3534 N   0  0  0  0  0  0  0  0  0  0  0  0
    8.0527  -18.3949   22.2621 C   0  0  1  0  0  0  0  0  0  0  0  0
    7.6699  -19.7506   22.8419 C   0  0  0  0  0  0  0  0  0  0  0  0
    6.3901  -19.6655   23.6365 C   0  0  0  0  0  0  0  0  0  0  0  0
    5.2095  -19.8733   22.7495 C   0  0  0  0  0  0  0  0  0  0  0  0
    3.8757  -19.7810   23.4053 C   0  0  0  0  0  0  0  0  0  0  0  0
    2.8074  -19.9671   22.4101 N   0  0  0  0  0  0  0  0  0  0  0  0
    8.4272  -17.4391   23.3349 C   0  0  0  0  0  0  0  0  0  0  0  0
    9.5708  -17.4981   23.8131 O   0  0  0  0  0  0  0  0  0  0  0  0
    6.6188  -11.1350   27.7300 C   0  0  0  0  0  0  0  0  0  0  0  0
    6.0032  -12.1958   26.3940 S   0  0  0  0  0  0  0  0  0  0  0  0
    7.1599  -13.5667   26.1491 C   0  0  0  0  0  0  0  0  0  0  0  0
    6.7354  -14.4652   25.0098 C   0  0  0  0  0  0  0  0  0  0  0  0
    7.8149  -15.5184   24.8535 C   0  0  2  0  0  0  0  0  0  0  0  0
    7.5151  -16.4657   23.8234 N   0  0  0  0  0  0  0  0  0  0  0  0
    8.1720  -16.1636   26.1408 C   0  0  0  0  0  0  0  0  0  0  0  0
    7.6321  -17.2200   26.5517 O   0  0  0  0  0  0  0  0  0  0  0  0
    9.1470  -15.5849   26.9402 O   0  0  0  0  0  0  0  0  0  0  0  0
  2  1  1  6
  2  7  1  0
  3  2  1  0
  3  4  1  0
  4  5  1  0
  5  9  1  0
  5  6  2  0
  7 10  1  0
  7  8  2  0
 10 11  1  0
 11 12  1  1
 11 17  1  0
 13 14  1  0
 13 12  1  0
 15 16  1  0
 15 14  1  0
 17 18  2  0
 20 19  1  0
 20 21  1  0
 21 22  1  0
 23 22  1  1
 23 25  1  0
 24 23  1  0
 24 17  1  0
 25 26  2  0
 25 27  1  0
M  END
$$$$
