EKM.pdb
     RDKit          3D

 27 26  0  0  1  0  0  0  0  0999 V2000
    8.7936  -13.4806   18.2735 N   0  0  0  0  0  0  0  0  0  0  0  0
    9.2348  -14.8037   18.6423 C   0  0  1  0  0  0  0  0  0  0  0  0
   10.7416  -14.8385   18.5580 C   0  0  0  0  0  0  0  0  0  0  0  0
   11.3422  -13.9442   19.6199 C   0  0  0  0  0  0  0  0  0  0  0  0
   12.8154  -13.9465   19.5172 C   0  0  0  0  0  0  0  0  0  0  0  0
   13.3693  -14.2147   18.4335 O   0  0  0  0  0  0  0  0  0  0  0  0
    8.7528  -15.0848   20.0156 C   0  0  0  0  0  0  0  0  0  0  0  0
    8.2335  -14.1785   20.7030 O   0  0  0  0  0  0  0  0  0  0  0  0
   13.5741  -13.6513   20.6233 O   0  0  0  0  0  0  0  0  0  0  0  0
    8.8717  -16.3835   20.5743 N   0  0  0  0  0  0  0  0  0  0  0  0
    8.3136  -16.7659   21.8462 C   0  0  1  0  0  0  0  0  0  0  0  0
    8.1964  -18.2848   21.8531 C   0  0  0  0  0  0  0  0  0  0  0  0
    7.5592  -18.7798   23.1280 C   0  0  0  0  0  0  0  0  0  0  0  0
    7.3899  -20.2607   23.0868 C   0  0  0  0  0  0  0  0  0  0  0  0
    6.7923  -20.8837   24.3002 C   0  0  0  0  0  0  0  0  0  0  0  0
    5.3233  -20.8589   24.2118 N   0  0  0  0  0  0  0  0  0  0  0  0
    9.1621  -16.2883   22.9673 C   0  0  0  0  0  0  0  0  0  0  0  0
   10.0103  -17.0592   23.4429 O   0  0  0  0  0  0  0  0  0  0  0  0
    7.6781  -11.5299   28.0447 C   0  0  0  0  0  0  0  0  0  0  0  0
    6.7755  -12.1107   26.5828 S   0  0  0  0  0  0  0  0  0  0  0  0
    6.9846  -13.9028   26.4341 C   0  0  0  0  0  0  0  0  0  0  0  0
    7.1949  -14.3283   24.9988 C   0  0  0  0  0  0  0  0  0  0  0  0
    8.6598  -14.6930   24.8574 C   0  0  2  0  0  0  0  0  0  0  0  0
    9.0277  -14.9801   23.5045 N   0  0  0  0  0  0  0  0  0  0  0  0
    9.0759  -15.7570   25.8039 C   0  0  0  0  0  0  0  0  0  0  0  0
    9.7425  -15.5285   26.8429 O   0  0  0  0  0  0  0  0  0  0  0  0
    8.7196  -17.0722   25.5428 O   0  0  0  0  0  0  0  0  0  0  0  0
  2  1  1  1
  2  7  1  0
  3  2  1  0
  3  4  1  0
  4  5  1  0
  5  9  1  0
  5  6  2  0
  7 10  1  0
  7  8  2  0
 10 11  1  0
 11 12  1  6
 11 17  1  0
 13 14  1  0
 13 12  1  0
 15 16  1  0
 15 14  1  0
 17 18  2  0
 20 19  1  0
 20 21  1  0
 21 22  1  0
 23 22  1  6
 23 25  1  0
 24 23  1  0
 24 17  1  0
 25 26  2  0
 25 27  1  0
M  END
$$$$
