EKM.pdb
     RDKit          3D

 27 26  0  0  1  0  0  0  0  0999 V2000
   10.1013  -16.6345   18.8206 N   0  0  0  0  0  0  0  0  0  0  0  0
    9.0078  -15.7103   18.9980 C   0  0  1  0  0  0  0  0  0  0  0  0
    8.1670  -15.7291   17.7444 C   0  0  0  0  0  0  0  0  0  0  0  0
    8.7899  -16.6455   16.7146 C   0  0  0  0  0  0  0  0  0  0  0  0
    7.9651  -16.6741   15.4899 C   0  0  0  0  0  0  0  0  0  0  0  0
    8.1859  -17.5214   14.6032 O   0  0  0  0  0  0  0  0  0  0  0  0
    8.2329  -16.1353   20.1880 C   0  0  0  0  0  0  0  0  0  0  0  0
    7.2137  -15.5022   20.5400 O   0  0  0  0  0  0  0  0  0  0  0  0
    6.9513  -15.7610   15.3321 O   0  0  0  0  0  0  0  0  0  0  0  0
    8.6323  -17.2649   20.9479 N   0  0  0  0  0  0  0  0  0  0  0  0
    8.0267  -17.6483   22.1976 C   0  0  1  0  0  0  0  0  0  0  0  0
    8.1858  -19.1570   22.3359 C   0  0  0  0  0  0  0  0  0  0  0  0
    7.6725  -19.6426   23.6690 C   0  0  0  0  0  0  0  0  0  0  0  0
    7.7638  -21.1285   23.7544 C   0  0  0  0  0  0  0  0  0  0  0  0
    7.2601  -21.7425   25.0142 C   0  0  0  0  0  0  0  0  0  0  0  0
    5.7989  -21.5893   25.1040 N   0  0  0  0  0  0  0  0  0  0  0  0
    8.6570  -16.9357   23.3376 C   0  0  0  0  0  0  0  0  0  0  0  0
    9.8955  -16.8870   23.3986 O   0  0  0  0  0  0  0  0  0  0  0  0
    5.6367  -11.9920   26.7348 C   0  0  0  0  0  0  0  0  0  0  0  0
    7.4323  -11.7765   26.8721 S   0  0  0  0  0  0  0  0  0  0  0  0
    8.2385  -13.3800   26.6344 C   0  0  0  0  0  0  0  0  0  0  0  0
    7.6236  -14.1557   25.4918 C   0  0  0  0  0  0  0  0  0  0  0  0
    8.4127  -15.4435   25.3585 C   0  0  2  0  0  0  0  0  0  0  0  0
    7.8825  -16.3127   24.3526 N   0  0  0  0  0  0  0  0  0  0  0  0
    8.6128  -16.1265   26.6602 C   0  0  0  0  0  0  0  0  0  0  0  0
    7.9614  -17.1412   27.0097 O   0  0  0  0  0  0  0  0  0  0  0  0
    9.5609  -15.6329   27.5447 O   0  0  0  0  0  0  0  0  0  0  0  0
  2  1  1  6
  2  7  1  0
  3  2  1  0
  3  4  1  0
  4  5  1  0
  5  9  1  0
  5  6  2  0
  7 10  1  0
  7  8  2  0
 10 11  1  0
 11 12  1  1
 11 17  1  0
 13 14  1  0
 13 12  1  0
 15 16  1  0
 15 14  1  0
 17 18  2  0
 20 19  1  0
 20 21  1  0
 21 22  1  0
 23 22  1  1
 23 25  1  0
 24 23  1  0
 24 17  1  0
 25 26  2  0
 25 27  1  0
M  END
$$$$
