EKM.pdb
     RDKit          3D

 27 26  0  0  1  0  0  0  0  0999 V2000
    9.1270  -13.2084   18.5990 N   0  0  0  0  0  0  0  0  0  0  0  0
    9.2620  -14.6025   18.9446 C   0  0  1  0  0  0  0  0  0  0  0  0
   10.7339  -14.9274   19.0260 C   0  0  0  0  0  0  0  0  0  0  0  0
   11.5524  -13.7611   18.5178 C   0  0  0  0  0  0  0  0  0  0  0  0
   12.9931  -14.0287   18.7017 C   0  0  0  0  0  0  0  0  0  0  0  0
   13.4384  -14.3256   19.8271 O   0  0  0  0  0  0  0  0  0  0  0  0
    8.5757  -14.8255   20.2394 C   0  0  0  0  0  0  0  0  0  0  0  0
    8.1842  -13.8555   20.9245 O   0  0  0  0  0  0  0  0  0  0  0  0
   13.8418  -13.9488   17.6249 O   0  0  0  0  0  0  0  0  0  0  0  0
    8.3511  -16.1397   20.7242 N   0  0  0  0  0  0  0  0  0  0  0  0
    7.6490  -16.4369   21.9466 C   0  0  1  0  0  0  0  0  0  0  0  0
    7.2757  -17.9134   21.9091 C   0  0  0  0  0  0  0  0  0  0  0  0
    5.9361  -18.1236   21.2476 C   0  0  0  0  0  0  0  0  0  0  0  0
    6.0790  -18.9874   20.0405 C   0  0  0  0  0  0  0  0  0  0  0  0
    4.8766  -19.0956   19.1687 C   0  0  0  0  0  0  0  0  0  0  0  0
    5.2035  -19.8446   17.9446 N   0  0  0  0  0  0  0  0  0  0  0  0
    8.4859  -16.1252   23.1328 C   0  0  0  0  0  0  0  0  0  0  0  0
    9.6946  -16.4045   23.0993 O   0  0  0  0  0  0  0  0  0  0  0  0
    5.4678  -11.6437   26.3136 C   0  0  0  0  0  0  0  0  0  0  0  0
    7.1783  -11.7818   26.9006 S   0  0  0  0  0  0  0  0  0  0  0  0
    8.0499  -13.0083   25.8941 C   0  0  0  0  0  0  0  0  0  0  0  0
    7.9388  -14.3982   26.4782 C   0  0  0  0  0  0  0  0  0  0  0  0
    8.6529  -15.3356   25.5242 C   0  0  2  0  0  0  0  0  0  0  0  0
    7.9409  -15.5193   24.2964 N   0  0  0  0  0  0  0  0  0  0  0  0
    9.0340  -16.6185   26.1645 C   0  0  0  0  0  0  0  0  0  0  0  0
    8.5622  -17.7275   25.8128 O   0  0  0  0  0  0  0  0  0  0  0  0
    9.9542  -16.6095   27.2027 O   0  0  0  0  0  0  0  0  0  0  0  0
  2  1  1  1
  2  7  1  0
  3  2  1  0
  3  4  1  0
  4  5  1  0
  5  9  1  0
  5  6  2  0
  7 10  1  0
  7  8  2  0
 10 11  1  0
 11 12  1  6
 11 17  1  0
 13 14  1  0
 13 12  1  0
 15 16  1  0
 15 14  1  0
 17 18  2  0
 20 19  1  0
 20 21  1  0
 21 22  1  0
 23 22  1  1
 23 25  1  0
 24 23  1  0
 24 17  1  0
 25 26  2  0
 25 27  1  0
M  END
$$$$
