EKM.pdb
     RDKit          3D

 27 26  0  0  1  0  0  0  0  0999 V2000
   11.6634  -14.5627   18.0235 N   0  0  0  0  0  0  0  0  0  0  0  0
   12.1031  -15.3047   19.1800 C   0  0  1  0  0  0  0  0  0  0  0  0
   13.3291  -14.6237   19.7385 C   0  0  0  0  0  0  0  0  0  0  0  0
   14.5222  -14.8887   18.8471 C   0  0  0  0  0  0  0  0  0  0  0  0
   15.7540  -14.3671   19.4729 C   0  0  0  0  0  0  0  0  0  0  0  0
   16.4558  -15.1060   20.1902 O   0  0  0  0  0  0  0  0  0  0  0  0
   10.9921  -15.3313   20.1609 C   0  0  0  0  0  0  0  0  0  0  0  0
   10.2768  -14.3207   20.3360 O   0  0  0  0  0  0  0  0  0  0  0  0
   16.1235  -13.0615   19.2607 O   0  0  0  0  0  0  0  0  0  0  0  0
   10.7204  -16.5004   20.9173 N   0  0  0  0  0  0  0  0  0  0  0  0
    9.5962  -16.6391   21.8075 C   0  0  1  0  0  0  0  0  0  0  0  0
    9.1954  -18.1088   21.8081 C   0  0  0  0  0  0  0  0  0  0  0  0
    8.4489  -18.4740   20.5489 C   0  0  0  0  0  0  0  0  0  0  0  0
    8.0366  -19.9067   20.5827 C   0  0  0  0  0  0  0  0  0  0  0  0
    7.3002  -20.4028   19.3872 C   0  0  0  0  0  0  0  0  0  0  0  0
    7.0120  -21.8392   19.5290 N   0  0  0  0  0  0  0  0  0  0  0  0
    9.9381  -16.1757   23.1761 C   0  0  0  0  0  0  0  0  0  0  0  0
   11.0701  -16.4194   23.6223 O   0  0  0  0  0  0  0  0  0  0  0  0
    5.9820  -12.4089   26.8940 C   0  0  0  0  0  0  0  0  0  0  0  0
    7.3674  -12.6658   28.0358 S   0  0  0  0  0  0  0  0  0  0  0  0
    8.5966  -13.7312   27.2411 C   0  0  0  0  0  0  0  0  0  0  0  0
    8.0914  -14.2953   25.9327 C   0  0  0  0  0  0  0  0  0  0  0  0
    9.2042  -15.1541   25.3642 C   0  0  2  0  0  0  0  0  0  0  0  0
    9.0079  -15.4652   23.9811 N   0  0  0  0  0  0  0  0  0  0  0  0
    9.4749  -16.3562   26.1904 C   0  0  0  0  0  0  0  0  0  0  0  0
    8.7727  -17.3957   26.1398 O   0  0  0  0  0  0  0  0  0  0  0  0
   10.5513  -16.3474   27.0656 O   0  0  0  0  0  0  0  0  0  0  0  0
  2  1  1  6
  2  7  1  0
  3  2  1  0
  3  4  1  0
  4  5  1  0
  5  9  1  0
  5  6  2  0
  7 10  1  0
  7  8  2  0
 10 11  1  0
 11 12  1  1
 11 17  1  0
 13 14  1  0
 13 12  1  0
 15 16  1  0
 15 14  1  0
 17 18  2  0
 20 19  1  0
 20 21  1  0
 21 22  1  0
 23 22  1  1
 23 25  1  0
 24 23  1  0
 24 17  1  0
 25 26  2  0
 25 27  1  0
M  END
$$$$
