DTP.pdb
     RDKit          3D

 23 23  0  0  1  0  0  0  0  0999 V2000
   11.3181  -16.6074   19.7079 N   0  0  0  0  0  0  0  0  0  0  0  0
   11.1498  -16.8694   21.1436 C   0  0  1  0  0  0  0  0  0  0  0  0
   12.5386  -16.9957   21.7180 C   0  0  0  0  0  0  0  0  0  0  0  0
   13.0935  -18.2958   21.2546 C   0  0  0  0  0  0  0  0  0  0  0  0
   14.1751  -18.4238   20.6562 O   0  0  0  0  0  0  0  0  0  0  0  0
   10.3831  -15.7625   21.7637 C   0  0  0  0  0  0  0  0  0  0  0  0
   10.8987  -14.6147   21.7306 O   0  0  0  0  0  0  0  0  0  0  0  0
   12.3295  -19.4302   21.5222 O   0  0  0  0  0  0  0  0  0  0  0  0
    6.8262  -14.7278   21.0097 C   0  0  0  0  0  0  0  0  0  0  0  0
    6.9738  -15.0175   22.4600 C   0  0  1  0  0  0  0  0  0  0  0  0
    6.7309  -16.4118   22.6031 O   0  0  0  0  0  0  0  0  0  0  0  0
    8.3966  -14.7999   23.0036 C   0  0  2  0  0  0  0  0  0  0  0  0
    9.1318  -15.9203   22.3771 N   0  0  0  0  0  0  0  0  0  0  0  0
    8.4708  -14.9116   24.4656 C   0  0  0  0  0  0  0  0  0  0  0  0
    9.1786  -15.8739   24.9316 O   0  0  0  0  0  0  0  0  0  0  0  0
    7.8643  -14.0904   25.4414 N   0  0  0  0  0  0  0  0  0  0  0  0
    7.0130  -12.9292   25.1404 C   0  0  0  0  0  0  0  0  0  0  0  0
    7.4444  -11.9235   26.2012 C   0  0  0  0  0  0  0  0  0  0  0  0
    7.5412  -12.8245   27.4024 C   0  0  0  0  0  0  0  0  0  0  0  0
    7.9556  -14.1495   26.8693 C   0  0  1  0  0  0  0  0  0  0  0  0
    7.0748  -15.1849   27.4594 C   0  0  0  0  0  0  0  0  0  0  0  0
    6.1597  -15.6993   26.7973 O   0  0  0  0  0  0  0  0  0  0  0  0
    7.2792  -15.5790   28.7637 O   0  0  0  0  0  0  0  0  0  0  0  0
  2  1  1  6
  3  4  1  0
  3  2  1  0
  4  8  1  0
  4  5  2  0
  6  2  1  0
  7  6  2  0
 10  9  1  6
 10 12  1  0
 11 10  1  0
 12 14  1  0
 12 13  1  6
 13  6  1  0
 14 16  1  0
 15 14  2  0
 16 20  1  0
 16 17  1  0
 17 18  1  0
 19 18  1  0
 20 21  1  1
 20 19  1  0
 21 23  1  0
 22 21  2  0
M  END
$$$$
