DTP.pdb
     RDKit          3D

 23 23  0  0  1  0  0  0  0  0999 V2000
   11.4101  -17.5910   20.7107 N   0  0  0  0  0  0  0  0  0  0  0  0
   12.3397  -17.2118   21.7832 C   0  0  1  0  0  0  0  0  0  0  0  0
   13.5329  -16.5827   21.1084 C   0  0  0  0  0  0  0  0  0  0  0  0
   14.2689  -17.6684   20.4067 C   0  0  0  0  0  0  0  0  0  0  0  0
   13.9459  -18.1340   19.3007 O   0  0  0  0  0  0  0  0  0  0  0  0
   11.6656  -16.2794   22.7179 C   0  0  0  0  0  0  0  0  0  0  0  0
   12.2468  -15.1907   22.9653 O   0  0  0  0  0  0  0  0  0  0  0  0
   15.3917  -18.1797   21.0546 O   0  0  0  0  0  0  0  0  0  0  0  0
    7.8058  -15.5029   22.6188 C   0  0  0  0  0  0  0  0  0  0  0  0
    8.2794  -15.8827   23.9755 C   0  0  1  0  0  0  0  0  0  0  0  0
    8.1795  -17.3003   24.0378 O   0  0  0  0  0  0  0  0  0  0  0  0
    9.7643  -15.5730   24.2332 C   0  0  2  0  0  0  0  0  0  0  0  0
   10.4327  -16.5389   23.3340 N   0  0  0  0  0  0  0  0  0  0  0  0
   10.1659  -15.8263   25.6225 C   0  0  0  0  0  0  0  0  0  0  0  0
   10.7951  -16.9208   25.8466 O   0  0  0  0  0  0  0  0  0  0  0  0
    9.9545  -15.0162   26.7597 N   0  0  0  0  0  0  0  0  0  0  0  0
    9.2128  -13.7459   26.7512 C   0  0  0  0  0  0  0  0  0  0  0  0
   10.0392  -12.8782   27.6930 C   0  0  0  0  0  0  0  0  0  0  0  0
   10.3348  -13.8714   28.7839 C   0  0  0  0  0  0  0  0  0  0  0  0
   10.4153  -15.1917   28.1042 C   0  0  1  0  0  0  0  0  0  0  0  0
    9.5967  -16.1606   28.8706 C   0  0  0  0  0  0  0  0  0  0  0  0
    8.5184  -16.5817   28.4233 O   0  0  0  0  0  0  0  0  0  0  0  0
   10.0443  -16.5973   30.0983 O   0  0  0  0  0  0  0  0  0  0  0  0
  2  1  1  6
  3  4  1  0
  3  2  1  0
  4  8  1  0
  4  5  2  0
  6  2  1  0
  7  6  2  0
 10  9  1  6
 10 12  1  0
 11 10  1  0
 12 14  1  0
 12 13  1  6
 13  6  1  0
 14 16  1  0
 15 14  2  0
 16 20  1  0
 16 17  1  0
 17 18  1  0
 19 18  1  0
 20 21  1  1
 20 19  1  0
 21 23  1  0
 22 21  2  0
M  END
$$$$
