DTP.pdb
     RDKit          3D

 23 23  0  0  1  0  0  0  0  0999 V2000
   11.0380  -15.7515   19.1769 N   0  0  0  0  0  0  0  0  0  0  0  0
   11.5676  -15.0069   20.3273 C   0  0  1  0  0  0  0  0  0  0  0  0
   12.6318  -14.0865   19.7840 C   0  0  0  0  0  0  0  0  0  0  0  0
   13.8213  -14.9220   19.4677 C   0  0  0  0  0  0  0  0  0  0  0  0
   14.2189  -15.8697   20.1663 O   0  0  0  0  0  0  0  0  0  0  0  0
   10.4670  -14.2659   20.9883 C   0  0  0  0  0  0  0  0  0  0  0  0
   10.4008  -13.0261   20.7815 O   0  0  0  0  0  0  0  0  0  0  0  0
   14.5182  -14.5990   18.3049 O   0  0  0  0  0  0  0  0  0  0  0  0
    7.1189  -14.0096   20.3618 C   0  0  0  0  0  0  0  0  0  0  0  0
    7.1928  -14.5198   21.7558 C   0  0  1  0  0  0  0  0  0  0  0  0
    7.2913  -15.9346   21.6457 O   0  0  0  0  0  0  0  0  0  0  0  0
    8.4574  -14.0872   22.5180 C   0  0  2  0  0  0  0  0  0  0  0  0
    9.5076  -14.8610   21.8205 N   0  0  0  0  0  0  0  0  0  0  0  0
    8.4229  -14.4620   23.9371 C   0  0  0  0  0  0  0  0  0  0  0  0
    9.1886  -15.4266   24.2938 O   0  0  0  0  0  0  0  0  0  0  0  0
    7.6544  -13.8945   24.9772 N   0  0  0  0  0  0  0  0  0  0  0  0
    6.8157  -12.6946   24.8337 C   0  0  0  0  0  0  0  0  0  0  0  0
    7.0550  -11.9686   26.1522 C   0  0  0  0  0  0  0  0  0  0  0  0
    7.0091  -13.1281   27.1100 C   0  0  0  0  0  0  0  0  0  0  0  0
    7.5414  -14.2896   26.3490 C   0  0  1  0  0  0  0  0  0  0  0  0
    6.6211  -15.4348   26.5435 C   0  0  0  0  0  0  0  0  0  0  0  0
    5.8457  -15.7924   25.6429 O   0  0  0  0  0  0  0  0  0  0  0  0
    6.6305  -16.1095   27.7448 O   0  0  0  0  0  0  0  0  0  0  0  0
  2  1  1  6
  3  4  1  0
  3  2  1  0
  4  8  1  0
  4  5  2  0
  6  2  1  0
  7  6  2  0
 10  9  1  6
 10 12  1  0
 11 10  1  0
 12 14  1  0
 12 13  1  6
 13  6  1  0
 14 16  1  0
 15 14  2  0
 16 20  1  0
 16 17  1  0
 17 18  1  0
 19 18  1  0
 20 21  1  6
 20 19  1  0
 21 23  1  0
 22 21  2  0
M  END
$$$$
