DTP.pdb
     RDKit          3D

 23 23  0  0  1  0  0  0  0  0999 V2000
   12.9556  -17.0376   20.8691 N   0  0  0  0  0  0  0  0  0  0  0  0
   11.8305  -17.5695   21.6499 C   0  0  1  0  0  0  0  0  0  0  0  0
   12.4347  -18.2852   22.8320 C   0  0  0  0  0  0  0  0  0  0  0  0
   13.0452  -19.5431   22.3241 C   0  0  0  0  0  0  0  0  0  0  0  0
   14.2680  -19.7577   22.2702 O   0  0  0  0  0  0  0  0  0  0  0  0
   10.9412  -16.4568   22.0603 C   0  0  0  0  0  0  0  0  0  0  0  0
   11.4828  -15.4499   22.5868 O   0  0  0  0  0  0  0  0  0  0  0  0
   12.1647  -20.5302   21.8856 O   0  0  0  0  0  0  0  0  0  0  0  0
    6.4851  -14.3966   21.6083 C   0  0  0  0  0  0  0  0  0  0  0  0
    7.4248  -15.5460   21.5377 C   0  0  1  0  0  0  0  0  0  0  0  0
    7.9181  -15.5616   20.2036 O   0  0  0  0  0  0  0  0  0  0  0  0
    8.6723  -15.3944   22.4254 C   0  0  2  0  0  0  0  0  0  0  0  0
    9.5482  -16.4630   21.8972 N   0  0  0  0  0  0  0  0  0  0  0  0
    8.3928  -15.6369   23.8462 C   0  0  0  0  0  0  0  0  0  0  0  0
    8.7994  -16.7536   24.3277 O   0  0  0  0  0  0  0  0  0  0  0  0
    7.7323  -14.7951   24.7679 N   0  0  0  0  0  0  0  0  0  0  0  0
    7.2569  -13.4369   24.4629 C   0  0  0  0  0  0  0  0  0  0  0  0
    7.5878  -12.6792   25.7432 C   0  0  0  0  0  0  0  0  0  0  0  0
    7.1662  -13.6928   26.7722 C   0  0  0  0  0  0  0  0  0  0  0  0
    7.4212  -15.0183   26.1478 C   0  0  1  0  0  0  0  0  0  0  0  0
    6.2171  -15.8613   26.3366 C   0  0  0  0  0  0  0  0  0  0  0  0
    5.4150  -16.0480   25.4081 O   0  0  0  0  0  0  0  0  0  0  0  0
    5.9892  -16.4443   27.5640 O   0  0  0  0  0  0  0  0  0  0  0  0
  2  1  1  6
  3  4  1  0
  3  2  1  0
  4  8  1  0
  4  5  2  0
  6  2  1  0
  7  6  2  0
 10  9  1  6
 10 12  1  0
 11 10  1  0
 12 14  1  0
 12 13  1  6
 13  6  1  0
 14 16  1  0
 15 14  2  0
 16 20  1  0
 16 17  1  0
 17 18  1  0
 19 18  1  0
 20 21  1  6
 20 19  1  0
 21 23  1  0
 22 21  2  0
M  END
$$$$
