DTP.pdb
     RDKit          3D

 23 23  0  0  1  0  0  0  0  0999 V2000
   11.2638  -17.1877   19.8214 N   0  0  0  0  0  0  0  0  0  0  0  0
   11.6674  -16.8845   21.2011 C   0  0  1  0  0  0  0  0  0  0  0  0
   13.0025  -16.1887   21.1098 C   0  0  0  0  0  0  0  0  0  0  0  0
   14.0272  -17.2304   20.8308 C   0  0  0  0  0  0  0  0  0  0  0  0
   14.0665  -18.3422   21.3847 O   0  0  0  0  0  0  0  0  0  0  0  0
   10.6351  -16.0384   21.8458 C   0  0  0  0  0  0  0  0  0  0  0  0
   10.4688  -14.8793   21.3841 O   0  0  0  0  0  0  0  0  0  0  0  0
   14.9960  -16.9128   19.8808 O   0  0  0  0  0  0  0  0  0  0  0  0
    6.9925  -16.6878   22.1776 C   0  0  0  0  0  0  0  0  0  0  0  0
    7.5817  -16.4971   23.5288 C   0  0  1  0  0  0  0  0  0  0  0  0
    8.0559  -17.7772   23.9286 O   0  0  0  0  0  0  0  0  0  0  0  0
    8.8203  -15.5847   23.5520 C   0  0  2  0  0  0  0  0  0  0  0  0
    9.8434  -16.4515   22.9272 N   0  0  0  0  0  0  0  0  0  0  0  0
    9.2369  -15.2249   24.9131 C   0  0  0  0  0  0  0  0  0  0  0  0
   10.3180  -15.7639   25.3428 O   0  0  0  0  0  0  0  0  0  0  0  0
    8.6030  -14.3513   25.8238 N   0  0  0  0  0  0  0  0  0  0  0  0
    7.3790  -13.5894   25.5325 C   0  0  0  0  0  0  0  0  0  0  0  0
    7.6619  -12.2484   26.1993 C   0  0  0  0  0  0  0  0  0  0  0  0
    8.2823  -12.7145   27.4883 C   0  0  0  0  0  0  0  0  0  0  0  0
    8.9900  -13.9783   27.1511 C   0  0  1  0  0  0  0  0  0  0  0  0
    8.6287  -14.9985   28.1635 C   0  0  0  0  0  0  0  0  0  0  0  0
    7.8746  -15.9424   27.8795 O   0  0  0  0  0  0  0  0  0  0  0  0
    9.1409  -14.8928   29.4382 O   0  0  0  0  0  0  0  0  0  0  0  0
  2  1  1  6
  3  4  1  0
  3  2  1  0
  4  8  1  0
  4  5  2  0
  6  2  1  0
  7  6  2  0
 10  9  1  6
 10 12  1  0
 11 10  1  0
 12 14  1  0
 12 13  1  1
 13  6  1  0
 14 16  1  0
 15 14  2  0
 16 20  1  0
 16 17  1  0
 17 18  1  0
 19 18  1  0
 20 21  1  1
 20 19  1  0
 21 23  1  0
 22 21  2  0
M  END
$$$$
