DTP.pdb
     RDKit          3D

 23 23  0  0  1  0  0  0  0  0999 V2000
   11.4984  -16.9856   20.1862 N   0  0  0  0  0  0  0  0  0  0  0  0
   12.0776  -16.9044   21.5338 C   0  0  1  0  0  0  0  0  0  0  0  0
   13.3340  -16.0796   21.4071 C   0  0  0  0  0  0  0  0  0  0  0  0
   14.3675  -16.9407   20.7721 C   0  0  0  0  0  0  0  0  0  0  0  0
   14.7854  -18.0070   21.2544 O   0  0  0  0  0  0  0  0  0  0  0  0
   11.0949  -16.2939   22.4605 C   0  0  0  0  0  0  0  0  0  0  0  0
   10.4240  -15.3199   22.0297 O   0  0  0  0  0  0  0  0  0  0  0  0
   14.8850  -16.4991   19.5558 O   0  0  0  0  0  0  0  0  0  0  0  0
    7.9829  -17.0599   23.2917 C   0  0  0  0  0  0  0  0  0  0  0  0
    8.7088  -17.0936   24.5883 C   0  0  1  0  0  0  0  0  0  0  0  0
    9.3010  -18.3845   24.6670 O   0  0  0  0  0  0  0  0  0  0  0  0
    9.8851  -16.1059   24.6767 C   0  0  2  0  0  0  0  0  0  0  0  0
   10.8735  -16.7348   23.7734 N   0  0  0  0  0  0  0  0  0  0  0  0
   10.4427  -16.0045   26.0311 C   0  0  0  0  0  0  0  0  0  0  0  0
   11.4727  -16.7257   26.2822 O   0  0  0  0  0  0  0  0  0  0  0  0
    9.9959  -15.2072   27.1076 N   0  0  0  0  0  0  0  0  0  0  0  0
    8.8531  -14.2835   27.0418 C   0  0  0  0  0  0  0  0  0  0  0  0
    9.3496  -13.0905   27.8500 C   0  0  0  0  0  0  0  0  0  0  0  0
   10.0130  -13.8010   28.9984 C   0  0  0  0  0  0  0  0  0  0  0  0
   10.5328  -15.0724   28.4284 C   0  0  1  0  0  0  0  0  0  0  0  0
   10.1354  -16.1822   29.3265 C   0  0  0  0  0  0  0  0  0  0  0  0
   10.6598  -16.3207   30.4428 O   0  0  0  0  0  0  0  0  0  0  0  0
    9.1683  -17.0712   28.9109 O   0  0  0  0  0  0  0  0  0  0  0  0
  2  1  1  6
  3  4  1  0
  3  2  1  0
  4  8  1  0
  4  5  2  0
  6  2  1  0
  7  6  2  0
 10  9  1  6
 10 12  1  0
 11 10  1  0
 12 14  1  0
 12 13  1  6
 13  6  1  0
 14 16  1  0
 15 14  2  0
 16 20  1  0
 16 17  1  0
 17 18  1  0
 19 18  1  0
 20 21  1  1
 20 19  1  0
 21 23  1  0
 22 21  2  0
M  END
$$$$
