DTP.pdb
     RDKit          3D

 23 23  0  0  1  0  0  0  0  0999 V2000
   11.5043  -16.5128   19.9695 N   0  0  0  0  0  0  0  0  0  0  0  0
   11.0128  -16.8797   21.3045 C   0  0  1  0  0  0  0  0  0  0  0  0
   12.2294  -17.2343   22.1223 C   0  0  0  0  0  0  0  0  0  0  0  0
   12.7258  -18.5481   21.6319 C   0  0  0  0  0  0  0  0  0  0  0  0
   12.4303  -19.0433   20.5311 O   0  0  0  0  0  0  0  0  0  0  0  0
   10.2565  -15.7443   21.8843 C   0  0  0  0  0  0  0  0  0  0  0  0
   10.8135  -14.6155   21.8745 O   0  0  0  0  0  0  0  0  0  0  0  0
   13.5773  -19.2497   22.4833 O   0  0  0  0  0  0  0  0  0  0  0  0
    6.6259  -14.7162   21.0793 C   0  0  0  0  0  0  0  0  0  0  0  0
    6.8145  -14.9531   22.5345 C   0  0  1  0  0  0  0  0  0  0  0  0
    6.5837  -16.3425   22.7338 O   0  0  0  0  0  0  0  0  0  0  0  0
    8.2503  -14.7093   23.0307 C   0  0  2  0  0  0  0  0  0  0  0  0
    8.9720  -15.8556   22.4362 N   0  0  0  0  0  0  0  0  0  0  0  0
    8.3625  -14.7553   24.4939 C   0  0  0  0  0  0  0  0  0  0  0  0
    9.0692  -15.7059   24.9848 O   0  0  0  0  0  0  0  0  0  0  0  0
    7.7941  -13.8814   25.4465 N   0  0  0  0  0  0  0  0  0  0  0  0
    6.9884  -12.6966   25.1135 C   0  0  0  0  0  0  0  0  0  0  0  0
    7.4648  -11.6774   26.1417 C   0  0  0  0  0  0  0  0  0  0  0  0
    7.5314  -12.5449   27.3693 C   0  0  0  0  0  0  0  0  0  0  0  0
    7.8900  -13.9009   26.8752 C   0  0  1  0  0  0  0  0  0  0  0  0
    6.9713  -14.8819   27.4997 C   0  0  0  0  0  0  0  0  0  0  0  0
    6.0381  -15.3850   26.8545 O   0  0  0  0  0  0  0  0  0  0  0  0
    7.1608  -15.2375   28.8172 O   0  0  0  0  0  0  0  0  0  0  0  0
  2  1  1  6
  3  4  1  0
  3  2  1  0
  4  8  1  0
  4  5  2  0
  6  2  1  0
  7  6  2  0
 10  9  1  6
 10 12  1  0
 11 10  1  0
 12 14  1  0
 12 13  1  6
 13  6  1  0
 14 16  1  0
 15 14  2  0
 16 20  1  0
 16 17  1  0
 17 18  1  0
 19 18  1  0
 20 21  1  1
 20 19  1  0
 21 23  1  0
 22 21  2  0
M  END
$$$$
