DTP.pdb
     RDKit          3D

 23 23  0  0  1  0  0  0  0  0999 V2000
   10.5767  -17.4710   20.2611 N   0  0  0  0  0  0  0  0  0  0  0  0
   11.2344  -16.7915   21.3853 C   0  0  1  0  0  0  0  0  0  0  0  0
   12.5558  -16.2866   20.8619 C   0  0  0  0  0  0  0  0  0  0  0  0
   13.4273  -17.4718   20.6414 C   0  0  0  0  0  0  0  0  0  0  0  0
   13.6832  -18.3256   21.5074 O   0  0  0  0  0  0  0  0  0  0  0  0
   10.3680  -15.6941   21.8775 C   0  0  0  0  0  0  0  0  0  0  0  0
   10.7497  -14.5150   21.6572 O   0  0  0  0  0  0  0  0  0  0  0  0
   13.9811  -17.6101   19.3701 O   0  0  0  0  0  0  0  0  0  0  0  0
    6.6817  -15.2281   21.2008 C   0  0  0  0  0  0  0  0  0  0  0  0
    6.9204  -15.2285   22.6678 C   0  0  1  0  0  0  0  0  0  0  0  0
    6.8323  -16.5888   23.0742 O   0  0  0  0  0  0  0  0  0  0  0  0
    8.3340  -14.7783   23.0754 C   0  0  2  0  0  0  0  0  0  0  0  0
    9.1625  -15.8931   22.5661 N   0  0  0  0  0  0  0  0  0  0  0  0
    8.4970  -14.6614   24.5298 C   0  0  0  0  0  0  0  0  0  0  0  0
    9.3297  -15.4666   25.0797 O   0  0  0  0  0  0  0  0  0  0  0  0
    7.8566  -13.7682   25.4166 N   0  0  0  0  0  0  0  0  0  0  0  0
    6.8657  -12.7595   25.0113 C   0  0  0  0  0  0  0  0  0  0  0  0
    7.2390  -11.5658   25.8823 C   0  0  0  0  0  0  0  0  0  0  0  0
    7.5012  -12.2595   27.1914 C   0  0  0  0  0  0  0  0  0  0  0  0
    8.0315  -13.6005   26.8280 C   0  0  1  0  0  0  0  0  0  0  0  0
    7.3053  -14.6193   27.6224 C   0  0  0  0  0  0  0  0  0  0  0  0
    7.5088  -14.7452   28.8402 O   0  0  0  0  0  0  0  0  0  0  0  0
    6.3912  -15.4367   26.9943 O   0  0  0  0  0  0  0  0  0  0  0  0
  2  1  1  6
  3  4  1  0
  3  2  1  0
  4  8  1  0
  4  5  2  0
  6  2  1  0
  7  6  2  0
 10  9  1  6
 10 12  1  0
 11 10  1  0
 12 14  1  0
 12 13  1  1
 13  6  1  0
 14 16  1  0
 15 14  2  0
 16 20  1  0
 16 17  1  0
 17 18  1  0
 19 18  1  0
 20 21  1  1
 20 19  1  0
 21 23  1  0
 22 21  2  0
M  END
$$$$
