DTP.pdb
     RDKit          3D

 23 23  0  0  1  0  0  0  0  0999 V2000
   10.2930  -16.8203   19.2633 N   0  0  0  0  0  0  0  0  0  0  0  0
   10.6217  -16.8168   20.6951 C   0  0  1  0  0  0  0  0  0  0  0  0
   12.0817  -16.4519   20.7947 C   0  0  0  0  0  0  0  0  0  0  0  0
   12.8669  -17.6788   20.4930 C   0  0  0  0  0  0  0  0  0  0  0  0
   12.8644  -18.2612   19.3952 O   0  0  0  0  0  0  0  0  0  0  0  0
    9.7502  -15.8483   21.4021 C   0  0  0  0  0  0  0  0  0  0  0  0
    9.6381  -14.6997   20.8994 O   0  0  0  0  0  0  0  0  0  0  0  0
   13.6491  -18.1882   21.5278 O   0  0  0  0  0  0  0  0  0  0  0  0
    6.2409  -16.1402   21.7775 C   0  0  0  0  0  0  0  0  0  0  0  0
    6.7871  -15.9749   23.1500 C   0  0  1  0  0  0  0  0  0  0  0  0
    7.1159  -17.2849   23.5963 O   0  0  0  0  0  0  0  0  0  0  0  0
    8.1070  -15.1867   23.2111 C   0  0  2  0  0  0  0  0  0  0  0  0
    9.0527  -16.1360   22.5844 N   0  0  0  0  0  0  0  0  0  0  0  0
    8.5326  -14.8948   24.5856 C   0  0  0  0  0  0  0  0  0  0  0  0
    9.6017  -15.4758   24.9901 O   0  0  0  0  0  0  0  0  0  0  0  0
    7.9192  -14.0469   25.5338 N   0  0  0  0  0  0  0  0  0  0  0  0
    6.6843  -13.2846   25.2938 C   0  0  0  0  0  0  0  0  0  0  0  0
    6.9787  -11.9586   25.9852 C   0  0  0  0  0  0  0  0  0  0  0  0
    7.6355  -12.4525   27.2456 C   0  0  0  0  0  0  0  0  0  0  0  0
    8.3398  -13.7040   26.8591 C   0  0  1  0  0  0  0  0  0  0  0  0
    8.0105  -14.7503   27.8556 C   0  0  0  0  0  0  0  0  0  0  0  0
    7.2409  -15.6823   27.5739 O   0  0  0  0  0  0  0  0  0  0  0  0
    8.5701  -14.6826   29.1128 O   0  0  0  0  0  0  0  0  0  0  0  0
  2  1  1  6
  3  4  1  0
  3  2  1  0
  4  8  1  0
  4  5  2  0
  6  2  1  0
  7  6  2  0
 10  9  1  6
 10 12  1  0
 11 10  1  0
 12 14  1  0
 12 13  1  1
 13  6  1  0
 14 16  1  0
 15 14  2  0
 16 20  1  0
 16 17  1  0
 17 18  1  0
 19 18  1  0
 20 21  1  1
 20 19  1  0
 21 23  1  0
 22 21  2  0
M  END
$$$$
