DTP.pdb
     RDKit          3D

 23 23  0  0  1  0  0  0  0  0999 V2000
   10.9800  -15.3142   18.9921 N   0  0  0  0  0  0  0  0  0  0  0  0
   11.2573  -15.1497   20.4254 C   0  0  1  0  0  0  0  0  0  0  0  0
   12.5485  -14.3764   20.5222 C   0  0  0  0  0  0  0  0  0  0  0  0
   13.6491  -15.3016   20.1406 C   0  0  0  0  0  0  0  0  0  0  0  0
   13.7856  -16.4525   20.5892 O   0  0  0  0  0  0  0  0  0  0  0  0
   10.1271  -14.4407   21.0714 C   0  0  0  0  0  0  0  0  0  0  0  0
    9.8450  -13.2922   20.6405 O   0  0  0  0  0  0  0  0  0  0  0  0
   14.5752  -14.8209   19.2169 O   0  0  0  0  0  0  0  0  0  0  0  0
    6.7886  -14.5002   20.8133 C   0  0  0  0  0  0  0  0  0  0  0  0
    7.0314  -14.8244   22.2434 C   0  0  1  0  0  0  0  0  0  0  0  0
    7.2492  -16.2293   22.2903 O   0  0  0  0  0  0  0  0  0  0  0  0
    8.3132  -14.1997   22.8213 C   0  0  2  0  0  0  0  0  0  0  0  0
    9.3644  -14.9709   22.1223 N   0  0  0  0  0  0  0  0  0  0  0  0
    8.4363  -14.3920   24.2716 C   0  0  0  0  0  0  0  0  0  0  0  0
    9.3251  -15.2281   24.6654 O   0  0  0  0  0  0  0  0  0  0  0  0
    7.7026  -13.7701   25.3057 N   0  0  0  0  0  0  0  0  0  0  0  0
    6.6968  -12.7173   25.0964 C   0  0  0  0  0  0  0  0  0  0  0  0
    6.9618  -11.7748   26.2644 C   0  0  0  0  0  0  0  0  0  0  0  0
    7.1697  -12.7713   27.3723 C   0  0  0  0  0  0  0  0  0  0  0  0
    7.7797  -13.9619   26.7227 C   0  0  1  0  0  0  0  0  0  0  0  0
    7.0491  -15.1674   27.1803 C   0  0  0  0  0  0  0  0  0  0  0  0
    6.2372  -15.7431   26.4390 O   0  0  0  0  0  0  0  0  0  0  0  0
    7.2786  -15.6523   28.4494 O   0  0  0  0  0  0  0  0  0  0  0  0
  2  1  1  6
  3  4  1  0
  3  2  1  0
  4  8  1  0
  4  5  2  0
  6  2  1  0
  7  6  2  0
 10  9  1  6
 10 12  1  0
 11 10  1  0
 12 14  1  0
 12 13  1  6
 13  6  1  0
 14 16  1  0
 15 14  2  0
 16 20  1  0
 16 17  1  0
 17 18  1  0
 19 18  1  0
 20 21  1  6
 20 19  1  0
 21 23  1  0
 22 21  2  0
M  END
$$$$
