DTP.pdb
     RDKit          3D

 23 23  0  0  1  0  0  0  0  0999 V2000
   10.8545  -16.9978   19.8731 N   0  0  0  0  0  0  0  0  0  0  0  0
   11.1536  -16.7374   21.2877 C   0  0  1  0  0  0  0  0  0  0  0  0
   12.6161  -16.3746   21.3527 C   0  0  0  0  0  0  0  0  0  0  0  0
   13.3840  -17.6447   21.4533 C   0  0  0  0  0  0  0  0  0  0  0  0
   13.6174  -18.4014   20.4956 O   0  0  0  0  0  0  0  0  0  0  0  0
   10.2811  -15.6481   21.7872 C   0  0  0  0  0  0  0  0  0  0  0  0
   10.4375  -14.5062   21.2813 O   0  0  0  0  0  0  0  0  0  0  0  0
   13.8621  -17.9853   22.7173 O   0  0  0  0  0  0  0  0  0  0  0  0
    6.8128  -15.2726   21.3412 C   0  0  0  0  0  0  0  0  0  0  0  0
    7.0340  -15.2453   22.8107 C   0  0  1  0  0  0  0  0  0  0  0  0
    7.0098  -16.6040   23.2312 O   0  0  0  0  0  0  0  0  0  0  0  0
    8.4183  -14.7200   23.2290 C   0  0  2  0  0  0  0  0  0  0  0  0
    9.3038  -15.8162   22.7790 N   0  0  0  0  0  0  0  0  0  0  0  0
    8.5448  -14.5423   24.6809 C   0  0  0  0  0  0  0  0  0  0  0  0
    9.4764  -15.2060   25.2604 O   0  0  0  0  0  0  0  0  0  0  0  0
    7.7730  -13.7260   25.5366 N   0  0  0  0  0  0  0  0  0  0  0  0
    6.6714  -12.8592   25.0907 C   0  0  0  0  0  0  0  0  0  0  0  0
    6.8666  -11.6147   25.9486 C   0  0  0  0  0  0  0  0  0  0  0  0
    7.1825  -12.2496   27.2756 C   0  0  0  0  0  0  0  0  0  0  0  0
    7.8894  -13.5165   26.9485 C   0  0  1  0  0  0  0  0  0  0  0  0
    7.2802  -14.6084   27.7440 C   0  0  0  0  0  0  0  0  0  0  0  0
    7.4521  -14.6785   28.9710 O   0  0  0  0  0  0  0  0  0  0  0  0
    6.5118  -15.5578   27.1064 O   0  0  0  0  0  0  0  0  0  0  0  0
  2  1  1  6
  3  4  1  0
  3  2  1  0
  4  8  1  0
  4  5  2  0
  6  2  1  0
  7  6  2  0
 10  9  1  6
 10 12  1  0
 11 10  1  0
 12 14  1  0
 12 13  1  1
 13  6  1  0
 14 16  1  0
 15 14  2  0
 16 20  1  0
 16 17  1  0
 17 18  1  0
 19 18  1  0
 20 21  1  1
 20 19  1  0
 21 23  1  0
 22 21  2  0
M  END
$$$$
