DTP.pdb
     RDKit          3D

 23 23  0  0  1  0  0  0  0  0999 V2000
   12.9421  -16.6257   21.0351 N   0  0  0  0  0  0  0  0  0  0  0  0
   12.0575  -17.0374   22.1334 C   0  0  1  0  0  0  0  0  0  0  0  0
   12.9511  -17.3207   23.3149 C   0  0  0  0  0  0  0  0  0  0  0  0
   13.9866  -18.2896   22.8653 C   0  0  0  0  0  0  0  0  0  0  0  0
   13.7474  -19.3202   22.2135 O   0  0  0  0  0  0  0  0  0  0  0  0
   11.0793  -15.9595   22.4136 C   0  0  0  0  0  0  0  0  0  0  0  0
   11.4885  -14.7723   22.3254 O   0  0  0  0  0  0  0  0  0  0  0  0
   15.3047  -17.9983   23.2115 O   0  0  0  0  0  0  0  0  0  0  0  0
    6.4866  -14.4531   22.2629 C   0  0  0  0  0  0  0  0  0  0  0  0
    7.5898  -15.4479   22.2118 C   0  0  1  0  0  0  0  0  0  0  0  0
    8.0794  -15.4150   20.8767 O   0  0  0  0  0  0  0  0  0  0  0  0
    8.8000  -15.0910   23.0923 C   0  0  2  0  0  0  0  0  0  0  0  0
    9.7410  -16.1851   22.7669 N   0  0  0  0  0  0  0  0  0  0  0  0
    8.4870  -15.1139   24.5266 C   0  0  0  0  0  0  0  0  0  0  0  0
    8.8904  -16.1377   25.1848 O   0  0  0  0  0  0  0  0  0  0  0  0
    7.7969  -14.1474   25.2908 N   0  0  0  0  0  0  0  0  0  0  0  0
    7.2135  -12.9134   24.7424 C   0  0  0  0  0  0  0  0  0  0  0  0
    7.5294  -11.8916   25.8282 C   0  0  0  0  0  0  0  0  0  0  0  0
    7.2170  -12.7004   27.0578 C   0  0  0  0  0  0  0  0  0  0  0  0
    7.5481  -14.1055   26.7004 C   0  0  1  0  0  0  0  0  0  0  0  0
    6.4158  -14.9693   27.1102 C   0  0  0  0  0  0  0  0  0  0  0  0
    5.5699  -15.3493   26.2853 O   0  0  0  0  0  0  0  0  0  0  0  0
    6.3051  -15.3536   28.4287 O   0  0  0  0  0  0  0  0  0  0  0  0
  2  1  1  6
  3  4  1  0
  3  2  1  0
  4  8  1  0
  4  5  2  0
  6  2  1  0
  7  6  2  0
 10  9  1  6
 10 12  1  0
 11 10  1  0
 12 14  1  0
 12 13  1  1
 13  6  1  0
 14 16  1  0
 15 14  2  0
 16 20  1  0
 16 17  1  0
 17 18  1  0
 19 18  1  0
 20 21  1  6
 20 19  1  0
 21 23  1  0
 22 21  2  0
M  END
$$$$
