DTP.pdb
     RDKit          3D

 23 23  0  0  1  0  0  0  0  0999 V2000
   11.7377  -15.6629   17.8293 N   0  0  0  0  0  0  0  0  0  0  0  0
   12.4600  -15.2781   19.0493 C   0  0  1  0  0  0  0  0  0  0  0  0
   13.5215  -14.2955   18.6223 C   0  0  0  0  0  0  0  0  0  0  0  0
   14.6805  -15.0835   18.1236 C   0  0  0  0  0  0  0  0  0  0  0  0
   14.7192  -16.3249   18.0822 O   0  0  0  0  0  0  0  0  0  0  0  0
   11.5101  -14.6917   20.0245 C   0  0  0  0  0  0  0  0  0  0  0  0
   11.9995  -14.0804   21.0100 O   0  0  0  0  0  0  0  0  0  0  0  0
   15.7833  -14.3567   17.6792 O   0  0  0  0  0  0  0  0  0  0  0  0
    8.0904  -12.9083   18.9565 C   0  0  0  0  0  0  0  0  0  0  0  0
    7.9332  -13.9372   20.0177 C   0  0  1  0  0  0  0  0  0  0  0  0
    7.7386  -15.1702   19.3357 O   0  0  0  0  0  0  0  0  0  0  0  0
    9.1898  -14.1489   20.8798 C   0  0  2  0  0  0  0  0  0  0  0  0
   10.1148  -14.7787   19.9124 N   0  0  0  0  0  0  0  0  0  0  0  0
    8.9582  -15.0567   22.0103 C   0  0  0  0  0  0  0  0  0  0  0  0
    9.4250  -16.2454   21.8956 O   0  0  0  0  0  0  0  0  0  0  0  0
    8.2863  -14.7943   23.2244 N   0  0  0  0  0  0  0  0  0  0  0  0
    7.6878  -13.4990   23.5820 C   0  0  0  0  0  0  0  0  0  0  0  0
    8.0296  -13.3783   25.0624 C   0  0  0  0  0  0  0  0  0  0  0  0
    7.7492  -14.7843   25.5187 C   0  0  0  0  0  0  0  0  0  0  0  0
    8.0729  -15.6493   24.3531 C   0  0  1  0  0  0  0  0  0  0  0  0
    6.9523  -16.5980   24.1520 C   0  0  0  0  0  0  0  0  0  0  0  0
    6.2113  -16.5117   23.1601 O   0  0  0  0  0  0  0  0  0  0  0  0
    6.7342  -17.5894   25.0835 O   0  0  0  0  0  0  0  0  0  0  0  0
  2  1  1  6
  3  4  1  0
  3  2  1  0
  4  8  1  0
  4  5  2  0
  6  2  1  0
  7  6  2  0
 10  9  1  6
 10 12  1  0
 11 10  1  0
 12 14  1  0
 12 13  1  6
 13  6  1  0
 14 16  1  0
 15 14  2  0
 16 20  1  0
 16 17  1  0
 17 18  1  0
 19 18  1  0
 20 21  1  6
 20 19  1  0
 21 23  1  0
 22 21  2  0
M  END
$$$$
