DTP.pdb
     RDKit          3D

 23 23  0  0  1  0  0  0  0  0999 V2000
   11.3840  -18.3603   21.4170 N   0  0  0  0  0  0  0  0  0  0  0  0
   12.3337  -17.3668   21.9361 C   0  0  1  0  0  0  0  0  0  0  0  0
   12.9261  -16.6767   20.7330 C   0  0  0  0  0  0  0  0  0  0  0  0
   13.7812  -17.6695   20.0287 C   0  0  0  0  0  0  0  0  0  0  0  0
   14.4550  -18.5447   20.5984 O   0  0  0  0  0  0  0  0  0  0  0  0
   11.6245  -16.4236   22.8332 C   0  0  0  0  0  0  0  0  0  0  0  0
   12.1103  -15.2689   22.9559 O   0  0  0  0  0  0  0  0  0  0  0  0
   13.8109  -17.5909   18.6377 O   0  0  0  0  0  0  0  0  0  0  0  0
    7.7396  -15.7560   23.0429 C   0  0  0  0  0  0  0  0  0  0  0  0
    8.3322  -16.1716   24.3411 C   0  0  1  0  0  0  0  0  0  0  0  0
    8.2937  -17.5936   24.3467 O   0  0  0  0  0  0  0  0  0  0  0  0
    9.8192  -15.8095   24.4986 C   0  0  2  0  0  0  0  0  0  0  0  0
   10.4578  -16.7414   23.5437 N   0  0  0  0  0  0  0  0  0  0  0  0
   10.3258  -16.0607   25.8535 C   0  0  0  0  0  0  0  0  0  0  0  0
   11.0595  -17.1010   26.0072 O   0  0  0  0  0  0  0  0  0  0  0  0
   10.1160  -15.3004   27.0250 N   0  0  0  0  0  0  0  0  0  0  0  0
    9.2092  -14.1459   27.1173 C   0  0  0  0  0  0  0  0  0  0  0  0
    9.9955  -13.1819   27.9978 C   0  0  0  0  0  0  0  0  0  0  0  0
   10.5291  -14.1361   29.0315 C   0  0  0  0  0  0  0  0  0  0  0  0
   10.7244  -15.4248   28.3153 C   0  0  1  0  0  0  0  0  0  0  0  0
   10.1249  -16.5066   29.1318 C   0  0  0  0  0  0  0  0  0  0  0  0
   10.6250  -16.8407   30.2174 O   0  0  0  0  0  0  0  0  0  0  0  0
    8.9949  -17.1482   28.6739 O   0  0  0  0  0  0  0  0  0  0  0  0
  2  1  1  6
  3  4  1  0
  3  2  1  0
  4  8  1  0
  4  5  2  0
  6  2  1  0
  7  6  2  0
 10  9  1  6
 10 12  1  0
 11 10  1  0
 12 14  1  0
 12 13  1  6
 13  6  1  0
 14 16  1  0
 15 14  2  0
 16 20  1  0
 16 17  1  0
 17 18  1  0
 19 18  1  0
 20 21  1  1
 20 19  1  0
 21 23  1  0
 22 21  2  0
M  END
$$$$
