AMW.pdb
     RDKit          3D

 28 29  0  0  1  0  0  0  0  0999 V2000
    8.3719  -20.4230   18.7477 C   0  0  0  0  0  0  0  0  0  0  0  0
    9.0275  -19.8858   20.0067 C   0  0  2  0  0  0  0  0  0  0  0  0
    7.9926  -19.8545   21.0244 N   0  0  0  0  0  0  0  0  0  0  0  0
    9.5608  -18.5211   19.7567 C   0  0  0  0  0  0  0  0  0  0  0  0
   10.5414  -18.3153   18.9747 O   0  0  0  0  0  0  0  0  0  0  0  0
    7.4510  -11.1726   20.7620 C   0  0  0  0  0  0  0  0  0  0  0  0
    7.9687  -12.4811   19.5953 S   0  0  0  0  0  0  0  0  0  0  0  0
    8.0437  -14.0355   20.5269 C   0  0  0  0  0  0  0  0  0  0  0  0
    8.3516  -15.1877   19.6364 C   0  0  0  0  0  0  0  0  0  0  0  0
    9.4643  -16.0689   20.1387 C   0  0  2  0  0  0  0  0  0  0  0  0
    8.9665  -17.4048   20.4039 N   0  0  0  0  0  0  0  0  0  0  0  0
   10.1583  -15.5291   21.3065 C   0  0  0  0  0  0  0  0  0  0  0  0
   10.6859  -14.3909   21.3644 O   0  0  0  0  0  0  0  0  0  0  0  0
   10.2549  -16.3330   22.4727 N   0  0  0  0  0  0  0  0  0  0  0  0
    9.5558  -15.9585   23.7110 C   0  0  1  0  0  0  0  0  0  0  0  0
    8.0831  -15.7398   23.4285 C   0  0  0  0  0  0  0  0  0  0  0  0
    7.4535  -15.2020   24.6501 C   0  0  0  0  0  0  0  0  0  0  0  0
    6.7016  -15.9058   25.5919 C   0  0  0  0  0  0  0  0  0  0  0  0
    6.2930  -15.0688   26.5550 N   0  0  0  0  0  0  0  0  0  0  0  0
    6.7476  -13.8361   26.2846 C   0  0  0  0  0  0  0  0  0  0  0  0
    6.5967  -12.6274   26.9725 C   0  0  0  0  0  0  0  0  0  0  0  0
    7.1800  -11.4957   26.4583 C   0  0  0  0  0  0  0  0  0  0  0  0
    7.8945  -11.5836   25.2835 C   0  0  0  0  0  0  0  0  0  0  0  0
    8.0534  -12.7578   24.5954 C   0  0  0  0  0  0  0  0  0  0  0  0
    7.4666  -13.8968   25.1125 C   0  0  0  0  0  0  0  0  0  0  0  0
    9.6865  -17.0798   24.6454 C   0  0  0  0  0  0  0  0  0  0  0  0
    9.8897  -18.2314   24.2134 O   0  0  0  0  0  0  0  0  0  0  0  0
    9.5872  -16.8750   26.0002 O   0  0  0  0  0  0  0  0  0  0  0  0
  2  1  1  6
  3  2  1  0
  4 11  1  0
  4  2  1  0
  5  4  2  0
  6  7  1  0
  8  7  1  0
  9  8  1  0
 10  9  1  1
 10 11  1  0
 12 10  1  0
 12 14  1  0
 13 12  2  0
 15 14  1  0
 15 16  1  6
 16 17  1  0
 17 25  1  0
 18 19  1  0
 18 17  2  0
 19 20  1  0
 20 25  2  0
 20 21  1  0
 21 22  2  0
 22 23  1  0
 24 23  2  0
 25 24  1  0
 26 15  1  0
 27 26  2  0
 28 26  1  0
M  END
$$$$
