AMW.pdb
     RDKit          3D

 28 29  0  0  1  0  0  0  0  0999 V2000
   10.3101  -18.4270   17.8891 C   0  0  0  0  0  0  0  0  0  0  0  0
   10.1205  -18.8351   19.3386 C   0  0  2  0  0  0  0  0  0  0  0  0
    8.7580  -19.3239   19.4502 N   0  0  0  0  0  0  0  0  0  0  0  0
   10.3329  -17.6622   20.2266 C   0  0  0  0  0  0  0  0  0  0  0  0
   11.4597  -17.0804   20.3140 O   0  0  0  0  0  0  0  0  0  0  0  0
    7.1143  -12.3044   21.2860 C   0  0  0  0  0  0  0  0  0  0  0  0
    7.1925  -13.3208   19.7685 S   0  0  0  0  0  0  0  0  0  0  0  0
    8.3416  -14.6862   20.0926 C   0  0  0  0  0  0  0  0  0  0  0  0
    8.5016  -14.9260   21.5528 C   0  0  0  0  0  0  0  0  0  0  0  0
    9.4628  -16.0351   21.8890 C   0  0  2  0  0  0  0  0  0  0  0  0
    9.2537  -17.1660   21.0059 N   0  0  0  0  0  0  0  0  0  0  0  0
    9.4126  -16.4503   23.2896 C   0  0  0  0  0  0  0  0  0  0  0  0
    8.8534  -17.4938   23.7087 O   0  0  0  0  0  0  0  0  0  0  0  0
   10.0355  -15.6288   24.2657 N   0  0  0  0  0  0  0  0  0  0  0  0
   10.1073  -16.0469   25.6737 C   0  0  1  0  0  0  0  0  0  0  0  0
    8.7661  -16.5924   26.1209 C   0  0  0  0  0  0  0  0  0  0  0  0
    7.7525  -15.5362   25.9342 C   0  0  0  0  0  0  0  0  0  0  0  0
    6.5045  -15.6627   25.3223 C   0  0  0  0  0  0  0  0  0  0  0  0
    5.8760  -14.4797   25.3377 N   0  0  0  0  0  0  0  0  0  0  0  0
    6.6629  -13.5744   25.9381 C   0  0  0  0  0  0  0  0  0  0  0  0
    6.4680  -12.2142   26.2004 C   0  0  0  0  0  0  0  0  0  0  0  0
    7.4601  -11.5149   26.8421 C   0  0  0  0  0  0  0  0  0  0  0  0
    8.6150  -12.1712   27.2076 C   0  0  0  0  0  0  0  0  0  0  0  0
    8.8246  -13.5024   26.9596 C   0  0  0  0  0  0  0  0  0  0  0  0
    7.8265  -14.2065   26.3139 C   0  0  0  0  0  0  0  0  0  0  0  0
   11.0979  -17.1232   25.7624 C   0  0  0  0  0  0  0  0  0  0  0  0
   12.0183  -17.0563   26.6006 O   0  0  0  0  0  0  0  0  0  0  0  0
   11.0232  -18.2114   24.9274 O   0  0  0  0  0  0  0  0  0  0  0  0
  2  1  1  6
  3  2  1  0
  4 11  1  0
  4  2  1  0
  5  4  2  0
  6  7  1  0
  8  7  1  0
  9  8  1  0
 10  9  1  1
 10 11  1  0
 12 10  1  0
 12 14  1  0
 13 12  2  0
 15 14  1  0
 15 16  1  6
 16 17  1  0
 17 25  1  0
 18 19  1  0
 18 17  2  0
 19 20  1  0
 20 25  2  0
 20 21  1  0
 21 22  2  0
 22 23  1  0
 24 23  2  0
 25 24  1  0
 26 15  1  0
 27 26  2  0
 28 26  1  0
M  END
$$$$
