AMW.pdb
     RDKit          3D

 28 29  0  0  1  0  0  0  0  0999 V2000
    6.1950  -20.0445   23.0634 C   0  0  0  0  0  0  0  0  0  0  0  0
    6.2112  -19.3645   21.7066 C   0  0  2  0  0  0  0  0  0  0  0  0
    6.6252  -20.3739   20.7490 N   0  0  0  0  0  0  0  0  0  0  0  0
    7.1699  -18.2287   21.7212 C   0  0  0  0  0  0  0  0  0  0  0  0
    8.4228  -18.4048   21.6000 O   0  0  0  0  0  0  0  0  0  0  0  0
    8.4321  -11.5127   18.6378 C   0  0  0  0  0  0  0  0  0  0  0  0
    7.1443  -12.4494   19.5355 S   0  0  0  0  0  0  0  0  0  0  0  0
    7.9774  -13.7877   20.4325 C   0  0  0  0  0  0  0  0  0  0  0  0
    7.0120  -14.5844   21.2379 C   0  0  0  0  0  0  0  0  0  0  0  0
    7.6188  -15.7926   21.9007 C   0  0  2  0  0  0  0  0  0  0  0  0
    6.6854  -16.9020   21.8741 N   0  0  0  0  0  0  0  0  0  0  0  0
    8.0912  -15.5403   23.2607 C   0  0  0  0  0  0  0  0  0  0  0  0
    7.5249  -14.7835   24.0877 O   0  0  0  0  0  0  0  0  0  0  0  0
    9.2753  -16.1879   23.7011 N   0  0  0  0  0  0  0  0  0  0  0  0
    9.9995  -15.7157   24.8906 C   0  0  1  0  0  0  0  0  0  0  0  0
    9.2492  -16.1139   26.1456 C   0  0  0  0  0  0  0  0  0  0  0  0
    7.9870  -15.3506   26.1907 C   0  0  0  0  0  0  0  0  0  0  0  0
    6.7019  -15.8287   25.9306 C   0  0  0  0  0  0  0  0  0  0  0  0
    5.8171  -14.8317   26.0656 N   0  0  0  0  0  0  0  0  0  0  0  0
    6.4703  -13.7107   26.4059 C   0  0  0  0  0  0  0  0  0  0  0  0
    6.0067  -12.4154   26.6593 C   0  0  0  0  0  0  0  0  0  0  0  0
    6.9144  -11.4409   26.9937 C   0  0  0  0  0  0  0  0  0  0  0  0
    8.2510  -11.7664   27.0694 C   0  0  0  0  0  0  0  0  0  0  0  0
    8.7244  -13.0287   26.8248 C   0  0  0  0  0  0  0  0  0  0  0  0
    7.8114  -14.0096   26.4884 C   0  0  0  0  0  0  0  0  0  0  0  0
   11.3059  -16.3796   24.9018 C   0  0  0  0  0  0  0  0  0  0  0  0
   12.1197  -16.1397   25.8152 O   0  0  0  0  0  0  0  0  0  0  0  0
   11.6458  -17.2687   23.9113 O   0  0  0  0  0  0  0  0  0  0  0  0
  2  1  1  1
  3  2  1  0
  4 11  1  0
  4  2  1  0
  5  4  2  0
  6  7  1  0
  8  7  1  0
  9  8  1  0
 10  9  1  1
 10 11  1  0
 12 10  1  0
 12 14  1  0
 13 12  2  0
 15 14  1  0
 15 16  1  1
 16 17  1  0
 17 25  1  0
 18 19  1  0
 18 17  2  0
 19 20  1  0
 20 25  2  0
 20 21  1  0
 21 22  2  0
 22 23  1  0
 24 23  2  0
 25 24  1  0
 26 15  1  0
 27 26  2  0
 28 26  1  0
M  END
$$$$
