AMW.pdb
     RDKit          3D

 28 29  0  0  1  0  0  0  0  0999 V2000
    8.4659  -19.9481   21.5504 C   0  0  0  0  0  0  0  0  0  0  0  0
    8.0080  -18.7407   20.7528 C   0  0  2  0  0  0  0  0  0  0  0  0
    8.0171  -19.1451   19.3586 N   0  0  0  0  0  0  0  0  0  0  0  0
    8.9388  -17.6037   20.9768 C   0  0  0  0  0  0  0  0  0  0  0  0
   10.0976  -17.5706   20.4554 O   0  0  0  0  0  0  0  0  0  0  0  0
    6.5692  -12.4588   18.6012 C   0  0  0  0  0  0  0  0  0  0  0  0
    7.6538  -12.3630   20.0696 S   0  0  0  0  0  0  0  0  0  0  0  0
    8.1633  -14.0558   20.4751 C   0  0  0  0  0  0  0  0  0  0  0  0
    8.8638  -14.1122   21.7872 C   0  0  0  0  0  0  0  0  0  0  0  0
    9.4743  -15.4531   22.0976 C   0  0  2  0  0  0  0  0  0  0  0  0
    8.5345  -16.5151   21.7951 N   0  0  0  0  0  0  0  0  0  0  0  0
    9.9694  -15.5689   23.4681 C   0  0  0  0  0  0  0  0  0  0  0  0
   10.8339  -14.8181   23.9841 O   0  0  0  0  0  0  0  0  0  0  0  0
    9.4487  -16.5987   24.2952 N   0  0  0  0  0  0  0  0  0  0  0  0
    9.8537  -16.7165   25.7039 C   0  0  1  0  0  0  0  0  0  0  0  0
    8.6380  -16.9682   26.5729 C   0  0  0  0  0  0  0  0  0  0  0  0
    7.6157  -15.9569   26.2408 C   0  0  0  0  0  0  0  0  0  0  0  0
    6.3896  -16.1720   25.6099 C   0  0  0  0  0  0  0  0  0  0  0  0
    5.7439  -15.0057   25.4761 N   0  0  0  0  0  0  0  0  0  0  0  0
    6.4986  -14.0262   25.9960 C   0  0  0  0  0  0  0  0  0  0  0  0
    6.2761  -12.6491   26.1008 C   0  0  0  0  0  0  0  0  0  0  0  0
    7.2375  -11.8661   26.6906 C   0  0  0  0  0  0  0  0  0  0  0  0
    8.3896  -12.4578   27.1604 C   0  0  0  0  0  0  0  0  0  0  0  0
    8.6258  -13.8042   27.0670 C   0  0  0  0  0  0  0  0  0  0  0  0
    7.6587  -14.5925   26.4736 C   0  0  0  0  0  0  0  0  0  0  0  0
   10.7458  -17.8744   25.8090 C   0  0  0  0  0  0  0  0  0  0  0  0
   10.9242  -18.6160   24.8230 O   0  0  0  0  0  0  0  0  0  0  0  0
   11.3916  -18.1534   26.9890 O   0  0  0  0  0  0  0  0  0  0  0  0
  2  1  1  1
  3  2  1  0
  4 11  1  0
  4  2  1  0
  5  4  2  0
  6  7  1  0
  8  7  1  0
  9  8  1  0
 10  9  1  1
 10 11  1  0
 12 10  1  0
 12 14  1  0
 13 12  2  0
 15 14  1  0
 15 16  1  1
 16 17  1  0
 17 25  1  0
 18 19  1  0
 18 17  2  0
 19 20  1  0
 20 25  2  0
 20 21  1  0
 21 22  2  0
 22 23  1  0
 24 23  2  0
 25 24  1  0
 26 15  1  0
 27 26  2  0
 28 26  1  0
M  END
$$$$
