AMW.pdb
     RDKit          3D

 28 29  0  0  1  0  0  0  0  0999 V2000
    8.6850  -20.3139   21.9975 C   0  0  0  0  0  0  0  0  0  0  0  0
    8.3656  -19.3198   20.8961 C   0  0  2  0  0  0  0  0  0  0  0  0
    8.8203  -19.9236   19.6567 N   0  0  0  0  0  0  0  0  0  0  0  0
    9.0761  -18.0389   21.1488 C   0  0  0  0  0  0  0  0  0  0  0  0
   10.2300  -17.8042   20.6701 O   0  0  0  0  0  0  0  0  0  0  0  0
    6.8533  -12.6768   19.5111 C   0  0  0  0  0  0  0  0  0  0  0  0
    7.5813  -12.0424   21.0633 S   0  0  0  0  0  0  0  0  0  0  0  0
    8.7544  -13.2910   21.6586 C   0  0  0  0  0  0  0  0  0  0  0  0
    8.1503  -14.6513   21.6496 C   0  0  0  0  0  0  0  0  0  0  0  0
    9.0905  -15.7412   22.0915 C   0  0  2  0  0  0  0  0  0  0  0  0
    8.4592  -17.0385   21.9468 N   0  0  0  0  0  0  0  0  0  0  0  0
    9.6037  -15.5588   23.4479 C   0  0  0  0  0  0  0  0  0  0  0  0
   10.2573  -14.5602   23.8391 O   0  0  0  0  0  0  0  0  0  0  0  0
    9.3569  -16.5722   24.4111 N   0  0  0  0  0  0  0  0  0  0  0  0
   10.1203  -16.6262   25.6667 C   0  0  1  0  0  0  0  0  0  0  0  0
    9.1977  -16.3854   26.8445 C   0  0  0  0  0  0  0  0  0  0  0  0
    7.9789  -15.7181   26.3474 C   0  0  0  0  0  0  0  0  0  0  0  0
    6.8770  -16.3191   25.7370 C   0  0  0  0  0  0  0  0  0  0  0  0
    5.9747  -15.3814   25.4184 N   0  0  0  0  0  0  0  0  0  0  0  0
    6.4396  -14.1812   25.7960 C   0  0  0  0  0  0  0  0  0  0  0  0
    5.8831  -12.9022   25.6879 C   0  0  0  0  0  0  0  0  0  0  0  0
    6.5924  -11.8289   26.1675 C   0  0  0  0  0  0  0  0  0  0  0  0
    7.8276  -12.0423   26.7394 C   0  0  0  0  0  0  0  0  0  0  0  0
    8.3893  -13.2867   26.8543 C   0  0  0  0  0  0  0  0  0  0  0  0
    7.6759  -14.3671   26.3718 C   0  0  0  0  0  0  0  0  0  0  0  0
   10.6781  -17.9762   25.7838 C   0  0  0  0  0  0  0  0  0  0  0  0
   10.3450  -18.8615   24.9717 O   0  0  0  0  0  0  0  0  0  0  0  0
   11.5693  -18.2792   26.7845 O   0  0  0  0  0  0  0  0  0  0  0  0
  2  1  1  1
  3  2  1  0
  4 11  1  0
  4  2  1  0
  5  4  2  0
  6  7  1  0
  8  7  1  0
  9  8  1  0
 10  9  1  1
 10 11  1  0
 12 10  1  0
 12 14  1  0
 13 12  2  0
 15 14  1  0
 15 16  1  1
 16 17  1  0
 17 25  1  0
 18 19  1  0
 18 17  2  0
 19 20  1  0
 20 25  2  0
 20 21  1  0
 21 22  2  0
 22 23  1  0
 24 23  2  0
 25 24  1  0
 26 15  1  0
 27 26  2  0
 28 26  1  0
M  END
$$$$
