AMW.pdb
     RDKit          3D

 28 29  0  0  1  0  0  0  0  0999 V2000
    7.4539  -12.7249   18.8750 C   0  0  0  0  0  0  0  0  0  0  0  0
    8.6041  -13.6861   19.1129 C   0  0  2  0  0  0  0  0  0  0  0  0
    8.6570  -14.5551   17.9512 N   0  0  0  0  0  0  0  0  0  0  0  0
    8.3576  -14.4744   20.3487 C   0  0  0  0  0  0  0  0  0  0  0  0
    8.2009  -13.9183   21.4809 O   0  0  0  0  0  0  0  0  0  0  0  0
    5.9476  -20.6989   20.7982 C   0  0  0  0  0  0  0  0  0  0  0  0
    7.4480  -20.7246   21.8422 S   0  0  0  0  0  0  0  0  0  0  0  0
    7.7958  -19.0124   22.3289 C   0  0  0  0  0  0  0  0  0  0  0  0
    7.8361  -18.1095   21.1463 C   0  0  0  0  0  0  0  0  0  0  0  0
    8.0971  -16.6663   21.4871 C   0  0  2  0  0  0  0  0  0  0  0  0
    8.2923  -15.8917   20.2769 N   0  0  0  0  0  0  0  0  0  0  0  0
    9.2105  -16.4748   22.4147 C   0  0  0  0  0  0  0  0  0  0  0  0
   10.4247  -16.5247   22.0978 O   0  0  0  0  0  0  0  0  0  0  0  0
    8.9216  -16.2114   23.7795 N   0  0  0  0  0  0  0  0  0  0  0  0
   10.0013  -16.0107   24.7575 C   0  0  1  0  0  0  0  0  0  0  0  0
    9.7488  -14.7477   25.5559 C   0  0  0  0  0  0  0  0  0  0  0  0
    8.2915  -14.5985   25.7353 C   0  0  0  0  0  0  0  0  0  0  0  0
    7.3209  -15.5950   25.6222 C   0  0  0  0  0  0  0  0  0  0  0  0
    6.1098  -15.0683   25.8476 N   0  0  0  0  0  0  0  0  0  0  0  0
    6.2437  -13.7589   26.1059 C   0  0  0  0  0  0  0  0  0  0  0  0
    5.2926  -12.7762   26.4003 C   0  0  0  0  0  0  0  0  0  0  0  0
    5.7175  -11.4901   26.6255 C   0  0  0  0  0  0  0  0  0  0  0  0
    7.0638  -11.2061   26.5550 C   0  0  0  0  0  0  0  0  0  0  0  0
    8.0102  -12.1544   26.2681 C   0  0  0  0  0  0  0  0  0  0  0  0
    7.5832  -13.4487   26.0414 C   0  0  0  0  0  0  0  0  0  0  0  0
    9.9791  -17.1519   25.6766 C   0  0  0  0  0  0  0  0  0  0  0  0
    9.0192  -17.9472   25.6605 O   0  0  0  0  0  0  0  0  0  0  0  0
   11.0102  -17.3563   26.5610 O   0  0  0  0  0  0  0  0  0  0  0  0
  2  1  1  6
  3  2  1  0
  4 11  1  0
  4  2  1  0
  5  4  2  0
  6  7  1  0
  8  7  1  0
  9  8  1  0
 10  9  1  6
 10 11  1  0
 12 10  1  0
 12 14  1  0
 13 12  2  0
 15 14  1  0
 15 16  1  1
 16 17  1  0
 17 25  1  0
 18 19  1  0
 18 17  2  0
 19 20  1  0
 20 25  2  0
 20 21  1  0
 21 22  2  0
 22 23  1  0
 24 23  2  0
 25 24  1  0
 26 15  1  0
 27 26  2  0
 28 26  1  0
M  END
$$$$
