AMW.pdb
     RDKit          3D

 28 29  0  0  1  0  0  0  0  0999 V2000
   10.0684  -20.7440   20.2105 C   0  0  0  0  0  0  0  0  0  0  0  0
    9.2342  -19.6426   20.8384 C   0  0  2  0  0  0  0  0  0  0  0  0
    8.1089  -19.4244   19.9475 N   0  0  0  0  0  0  0  0  0  0  0  0
   10.0472  -18.4054   20.9716 C   0  0  0  0  0  0  0  0  0  0  0  0
   10.9301  -18.0856   20.1150 O   0  0  0  0  0  0  0  0  0  0  0  0
    7.2109  -11.8282   20.2491 C   0  0  0  0  0  0  0  0  0  0  0  0
    7.1121  -13.6490   20.3792 S   0  0  0  0  0  0  0  0  0  0  0  0
    8.8093  -14.2723   20.5225 C   0  0  0  0  0  0  0  0  0  0  0  0
    8.8285  -15.7261   20.8414 C   0  0  0  0  0  0  0  0  0  0  0  0
    9.8364  -16.1086   21.8925 C   0  0  2  0  0  0  0  0  0  0  0  0
    9.8419  -17.5459   22.0839 N   0  0  0  0  0  0  0  0  0  0  0  0
    9.6497  -15.4133   23.1647 C   0  0  0  0  0  0  0  0  0  0  0  0
    8.8013  -14.5105   23.3707 O   0  0  0  0  0  0  0  0  0  0  0  0
   10.4772  -15.7685   24.2623 N   0  0  0  0  0  0  0  0  0  0  0  0
    9.8949  -16.2133   25.5373 C   0  0  1  0  0  0  0  0  0  0  0  0
    8.5284  -16.8229   25.2978 C   0  0  0  0  0  0  0  0  0  0  0  0
    7.5138  -15.7660   25.4753 C   0  0  0  0  0  0  0  0  0  0  0  0
    6.1341  -15.8826   25.3001 C   0  0  0  0  0  0  0  0  0  0  0  0
    5.5499  -14.7024   25.5464 N   0  0  0  0  0  0  0  0  0  0  0  0
    6.4933  -13.8086   25.8785 C   0  0  0  0  0  0  0  0  0  0  0  0
    6.4002  -12.4554   26.2211 C   0  0  0  0  0  0  0  0  0  0  0  0
    7.5502  -11.7678   26.5209 C   0  0  0  0  0  0  0  0  0  0  0  0
    8.7583  -12.4285   26.4756 C   0  0  0  0  0  0  0  0  0  0  0  0
    8.8700  -13.7529   26.1424 C   0  0  0  0  0  0  0  0  0  0  0  0
    7.7130  -14.4453   25.8407 C   0  0  0  0  0  0  0  0  0  0  0  0
   10.7749  -17.2496   26.0842 C   0  0  0  0  0  0  0  0  0  0  0  0
   11.4641  -17.9509   25.3178 O   0  0  0  0  0  0  0  0  0  0  0  0
   10.8494  -17.4583   27.4399 O   0  0  0  0  0  0  0  0  0  0  0  0
  2  1  1  6
  3  2  1  0
  4 11  1  0
  4  2  1  0
  5  4  2  0
  6  7  1  0
  8  7  1  0
  9  8  1  0
 10  9  1  6
 10 11  1  0
 12 10  1  0
 12 14  1  0
 13 12  2  0
 15 14  1  0
 15 16  1  6
 16 17  1  0
 17 25  1  0
 18 19  1  0
 18 17  2  0
 19 20  1  0
 20 25  2  0
 20 21  1  0
 21 22  2  0
 22 23  1  0
 24 23  2  0
 25 24  1  0
 26 15  1  0
 27 26  2  0
 28 26  1  0
M  END
$$$$
