AMW.pdb
     RDKit          3D

 28 29  0  0  1  0  0  0  0  0999 V2000
    7.8463  -20.0963   19.4246 C   0  0  0  0  0  0  0  0  0  0  0  0
    8.2524  -19.8564   20.8671 C   0  0  2  0  0  0  0  0  0  0  0  0
    7.0207  -19.6685   21.6122 N   0  0  0  0  0  0  0  0  0  0  0  0
    9.1110  -18.6463   20.9566 C   0  0  0  0  0  0  0  0  0  0  0  0
   10.2682  -18.6028   20.4325 O   0  0  0  0  0  0  0  0  0  0  0  0
    6.3681  -12.9623   21.0709 C   0  0  0  0  0  0  0  0  0  0  0  0
    8.0370  -12.5264   20.4652 S   0  0  0  0  0  0  0  0  0  0  0  0
    9.1747  -13.8143   21.0455 C   0  0  0  0  0  0  0  0  0  0  0  0
    8.4719  -15.1118   21.2402 C   0  0  0  0  0  0  0  0  0  0  0  0
    9.3870  -16.2582   21.5801 C   0  0  2  0  0  0  0  0  0  0  0  0
    8.6370  -17.4975   21.6448 N   0  0  0  0  0  0  0  0  0  0  0  0
   10.1579  -16.0501   22.8045 C   0  0  0  0  0  0  0  0  0  0  0  0
   11.2989  -15.5276   22.8534 O   0  0  0  0  0  0  0  0  0  0  0  0
    9.5949  -16.4609   24.0414 N   0  0  0  0  0  0  0  0  0  0  0  0
   10.4043  -16.4933   25.2686 C   0  0  1  0  0  0  0  0  0  0  0  0
   10.0088  -15.3491   26.1802 C   0  0  0  0  0  0  0  0  0  0  0  0
    8.5570  -15.1257   26.0374 C   0  0  0  0  0  0  0  0  0  0  0  0
    7.5698  -16.0922   25.8398 C   0  0  0  0  0  0  0  0  0  0  0  0
    6.3725  -15.4978   25.7498 N   0  0  0  0  0  0  0  0  0  0  0  0
    6.5315  -14.1724   25.8810 C   0  0  0  0  0  0  0  0  0  0  0  0
    5.6024  -13.1268   25.8604 C   0  0  0  0  0  0  0  0  0  0  0  0
    6.0511  -11.8392   26.0219 C   0  0  0  0  0  0  0  0  0  0  0  0
    7.3991  -11.6155   26.1989 C   0  0  0  0  0  0  0  0  0  0  0  0
    8.3242  -12.6259   26.2219 C   0  0  0  0  0  0  0  0  0  0  0  0
    7.8731  -13.9217   26.0594 C   0  0  0  0  0  0  0  0  0  0  0  0
   10.1113  -17.7545   25.9548 C   0  0  0  0  0  0  0  0  0  0  0  0
    9.1569  -18.4626   25.5781 O   0  0  0  0  0  0  0  0  0  0  0  0
   10.8811  -18.1679   27.0149 O   0  0  0  0  0  0  0  0  0  0  0  0
  2  1  1  6
  3  2  1  0
  4 11  1  0
  4  2  1  0
  5  4  2  0
  6  7  1  0
  8  7  1  0
  9  8  1  0
 10  9  1  1
 10 11  1  0
 12 10  1  0
 12 14  1  0
 13 12  2  0
 15 14  1  0
 15 16  1  1
 16 17  1  0
 17 25  1  0
 18 19  1  0
 18 17  2  0
 19 20  1  0
 20 25  2  0
 20 21  1  0
 21 22  2  0
 22 23  1  0
 24 23  2  0
 25 24  1  0
 26 15  1  0
 27 26  2  0
 28 26  1  0
M  END
$$$$
