AMW.pdb
     RDKit          3D

 28 29  0  0  1  0  0  0  0  0999 V2000
    5.5503  -19.8303   23.8325 C   0  0  0  0  0  0  0  0  0  0  0  0
    5.5777  -19.4448   22.3648 C   0  0  2  0  0  0  0  0  0  0  0  0
    5.8579  -20.6637   21.6276 N   0  0  0  0  0  0  0  0  0  0  0  0
    6.6384  -18.4310   22.1275 C   0  0  0  0  0  0  0  0  0  0  0  0
    7.8635  -18.7522   22.0198 O   0  0  0  0  0  0  0  0  0  0  0  0
    8.5865  -11.6385   19.0022 C   0  0  0  0  0  0  0  0  0  0  0  0
    7.6000  -13.1740   19.1052 S   0  0  0  0  0  0  0  0  0  0  0  0
    7.8258  -13.8492   20.7734 C   0  0  0  0  0  0  0  0  0  0  0  0
    6.7958  -14.8769   21.0870 C   0  0  0  0  0  0  0  0  0  0  0  0
    7.3254  -16.0602   21.8528 C   0  0  2  0  0  0  0  0  0  0  0  0
    6.2870  -17.0591   22.0154 N   0  0  0  0  0  0  0  0  0  0  0  0
    7.9168  -15.7073   23.1421 C   0  0  0  0  0  0  0  0  0  0  0  0
    7.2754  -15.2716   24.1300 O   0  0  0  0  0  0  0  0  0  0  0  0
    9.3178  -15.8606   23.3131 N   0  0  0  0  0  0  0  0  0  0  0  0
    9.9897  -15.3799   24.5296 C   0  0  1  0  0  0  0  0  0  0  0  0
    9.3520  -16.0040   25.7545 C   0  0  0  0  0  0  0  0  0  0  0  0
    8.0417  -15.3605   25.9714 C   0  0  0  0  0  0  0  0  0  0  0  0
    6.7811  -15.9345   25.8006 C   0  0  0  0  0  0  0  0  0  0  0  0
    5.8347  -15.0306   26.0876 N   0  0  0  0  0  0  0  0  0  0  0  0
    6.4236  -13.8789   26.4424 C   0  0  0  0  0  0  0  0  0  0  0  0
    5.8819  -12.6481   26.8283 C   0  0  0  0  0  0  0  0  0  0  0  0
    6.7345  -11.6190   27.1430 C   0  0  0  0  0  0  0  0  0  0  0  0
    8.0944  -11.8280   27.0697 C   0  0  0  0  0  0  0  0  0  0  0  0
    8.6439  -13.0256   26.6940 C   0  0  0  0  0  0  0  0  0  0  0  0
    7.7863  -14.0615   26.3772 C   0  0  0  0  0  0  0  0  0  0  0  0
   11.3869  -15.8167   24.4615 C   0  0  0  0  0  0  0  0  0  0  0  0
   11.7714  -16.5321   23.5157 O   0  0  0  0  0  0  0  0  0  0  0  0
   12.2830  -15.4445   25.4339 O   0  0  0  0  0  0  0  0  0  0  0  0
  2  1  1  1
  3  2  1  0
  4 11  1  0
  4  2  1  0
  5  4  2  0
  6  7  1  0
  8  7  1  0
  9  8  1  0
 10  9  1  1
 10 11  1  0
 12 10  1  0
 12 14  1  0
 13 12  2  0
 15 14  1  0
 15 16  1  1
 16 17  1  0
 17 25  1  0
 18 19  1  0
 18 17  2  0
 19 20  1  0
 20 25  2  0
 20 21  1  0
 21 22  2  0
 22 23  1  0
 24 23  2  0
 25 24  1  0
 26 15  1  0
 27 26  2  0
 28 26  1  0
M  END
$$$$
