AMW.pdb
     RDKit          3D

 28 29  0  0  1  0  0  0  0  0999 V2000
    5.6295  -19.0939   23.6860 C   0  0  0  0  0  0  0  0  0  0  0  0
    5.7560  -18.9421   22.1812 C   0  0  2  0  0  0  0  0  0  0  0  0
    5.6500  -20.2791   21.6256 N   0  0  0  0  0  0  0  0  0  0  0  0
    7.0696  -18.3343   21.8426 C   0  0  0  0  0  0  0  0  0  0  0  0
    8.0977  -19.0435   21.6068 O   0  0  0  0  0  0  0  0  0  0  0  0
    7.9379  -11.1566   19.9792 C   0  0  0  0  0  0  0  0  0  0  0  0
    8.1388  -12.8624   19.3534 S   0  0  0  0  0  0  0  0  0  0  0  0
    8.0815  -13.9728   20.7864 C   0  0  0  0  0  0  0  0  0  0  0  0
    8.4553  -15.3636   20.4106 C   0  0  0  0  0  0  0  0  0  0  0  0
    8.4980  -16.3207   21.5721 C   0  0  2  0  0  0  0  0  0  0  0  0
    7.1939  -16.9207   21.7769 N   0  0  0  0  0  0  0  0  0  0  0  0
    8.9965  -15.7209   22.8084 C   0  0  0  0  0  0  0  0  0  0  0  0
    8.8891  -14.5066   23.1104 O   0  0  0  0  0  0  0  0  0  0  0  0
    9.6537  -16.5534   23.7521 N   0  0  0  0  0  0  0  0  0  0  0  0
   10.2523  -15.9905   24.9716 C   0  0  1  0  0  0  0  0  0  0  0  0
    9.4069  -16.3500   26.1769 C   0  0  0  0  0  0  0  0  0  0  0  0
    8.1208  -15.6343   26.0688 C   0  0  0  0  0  0  0  0  0  0  0  0
    6.8776  -16.1777   25.7416 C   0  0  0  0  0  0  0  0  0  0  0  0
    5.9525  -15.2085   25.7367 N   0  0  0  0  0  0  0  0  0  0  0  0
    6.5386  -14.0431   26.0489 C   0  0  0  0  0  0  0  0  0  0  0  0
    6.0135  -12.7526   26.1743 C   0  0  0  0  0  0  0  0  0  0  0  0
    6.8584  -11.7239   26.5109 C   0  0  0  0  0  0  0  0  0  0  0  0
    8.1944  -11.9921   26.7146 C   0  0  0  0  0  0  0  0  0  0  0  0
    8.7274  -13.2488   26.5965 C   0  0  0  0  0  0  0  0  0  0  0  0
    7.8776  -14.2843   26.2578 C   0  0  0  0  0  0  0  0  0  0  0  0
   11.5743  -16.6015   25.1344 C   0  0  0  0  0  0  0  0  0  0  0  0
   11.9336  -17.5226   24.3749 O   0  0  0  0  0  0  0  0  0  0  0  0
   12.4272  -16.1681   26.1202 O   0  0  0  0  0  0  0  0  0  0  0  0
  2  1  1  1
  3  2  1  0
  4 11  1  0
  4  2  1  0
  5  4  2  0
  6  7  1  0
  8  7  1  0
  9  8  1  0
 10  9  1  6
 10 11  1  0
 12 10  1  0
 12 14  1  0
 13 12  2  0
 15 14  1  0
 15 16  1  1
 16 17  1  0
 17 25  1  0
 18 19  1  0
 18 17  2  0
 19 20  1  0
 20 25  2  0
 20 21  1  0
 21 22  2  0
 22 23  1  0
 24 23  2  0
 25 24  1  0
 26 15  1  0
 27 26  2  0
 28 26  1  0
M  END
$$$$
