AMW.pdb
     RDKit          3D

 28 29  0  0  1  0  0  0  0  0999 V2000
    7.3245  -12.5279   18.5495 C   0  0  0  0  0  0  0  0  0  0  0  0
    8.2533  -13.6781   18.8926 C   0  0  2  0  0  0  0  0  0  0  0  0
    8.1194  -14.6454   17.8185 N   0  0  0  0  0  0  0  0  0  0  0  0
    7.8566  -14.2782   20.1934 C   0  0  0  0  0  0  0  0  0  0  0  0
    7.8576  -13.6060   21.2721 O   0  0  0  0  0  0  0  0  0  0  0  0
    3.9117  -19.4174   22.1351 C   0  0  0  0  0  0  0  0  0  0  0  0
    3.9162  -18.6633   20.4698 S   0  0  0  0  0  0  0  0  0  0  0  0
    4.9626  -17.1840   20.5505 C   0  0  0  0  0  0  0  0  0  0  0  0
    6.2290  -17.4544   21.2845 C   0  0  0  0  0  0  0  0  0  0  0  0
    7.0759  -16.2309   21.5145 C   0  0  2  0  0  0  0  0  0  0  0  0
    7.4624  -15.6419   20.2471 N   0  0  0  0  0  0  0  0  0  0  0  0
    8.2468  -16.4775   22.3541 C   0  0  0  0  0  0  0  0  0  0  0  0
    9.3957  -16.7436   21.9223 O   0  0  0  0  0  0  0  0  0  0  0  0
    8.0978  -16.4167   23.7647 N   0  0  0  0  0  0  0  0  0  0  0  0
    9.2574  -16.5677   24.6562 C   0  0  1  0  0  0  0  0  0  0  0  0
    9.4122  -15.3311   25.5185 C   0  0  0  0  0  0  0  0  0  0  0  0
    8.0682  -14.7822   25.7840 C   0  0  0  0  0  0  0  0  0  0  0  0
    6.8572  -15.4759   25.7792 C   0  0  0  0  0  0  0  0  0  0  0  0
    5.8557  -14.6307   26.0575 N   0  0  0  0  0  0  0  0  0  0  0  0
    6.3602  -13.4023   26.2464 C   0  0  0  0  0  0  0  0  0  0  0  0
    5.7374  -12.1884   26.5560 C   0  0  0  0  0  0  0  0  0  0  0  0
    6.5121  -11.0633   26.6943 C   0  0  0  0  0  0  0  0  0  0  0  0
    7.8758  -11.1625   26.5246 C   0  0  0  0  0  0  0  0  0  0  0  0
    8.5040  -12.3417   26.2213 C   0  0  0  0  0  0  0  0  0  0  0  0
    7.7249  -13.4742   26.0820 C   0  0  0  0  0  0  0  0  0  0  0  0
    8.9921  -17.7125   25.5318 C   0  0  0  0  0  0  0  0  0  0  0  0
    7.8478  -18.2041   25.5864 O   0  0  0  0  0  0  0  0  0  0  0  0
    9.9963  -18.2533   26.2976 O   0  0  0  0  0  0  0  0  0  0  0  0
  2  1  1  6
  3  2  1  0
  4 11  1  0
  4  2  1  0
  5  4  2  0
  6  7  1  0
  8  7  1  0
  9  8  1  0
 10  9  1  6
 10 11  1  0
 12 10  1  0
 12 14  1  0
 13 12  2  0
 15 14  1  0
 15 16  1  1
 16 17  1  0
 17 25  1  0
 18 19  1  0
 18 17  2  0
 19 20  1  0
 20 25  2  0
 20 21  1  0
 21 22  2  0
 22 23  1  0
 24 23  2  0
 25 24  1  0
 26 15  1  0
 27 26  2  0
 28 26  1  0
M  END
$$$$
