AMW.pdb
     RDKit          3D

 28 29  0  0  1  0  0  0  0  0999 V2000
    8.1183  -18.2469   18.7032 C   0  0  0  0  0  0  0  0  0  0  0  0
    7.7270  -16.7829   18.7873 C   0  0  2  0  0  0  0  0  0  0  0  0
    8.1923  -16.1647   17.5589 N   0  0  0  0  0  0  0  0  0  0  0  0
    8.3717  -16.1539   19.9697 C   0  0  0  0  0  0  0  0  0  0  0  0
    9.6139  -15.8854   19.9948 O   0  0  0  0  0  0  0  0  0  0  0  0
    7.0621  -11.7800   26.1367 C   0  0  0  0  0  0  0  0  0  0  0  0
    6.8841  -13.5276   25.6307 S   0  0  0  0  0  0  0  0  0  0  0  0
    7.2999  -13.6236   23.8679 C   0  0  0  0  0  0  0  0  0  0  0  0
    7.2050  -15.0207   23.3632 C   0  0  0  0  0  0  0  0  0  0  0  0
    8.2354  -15.3660   22.3211 C   0  0  2  0  0  0  0  0  0  0  0  0
    7.5887  -15.8379   21.1121 N   0  0  0  0  0  0  0  0  0  0  0  0
    9.2395  -16.3225   22.7833 C   0  0  0  0  0  0  0  0  0  0  0  0
    9.1111  -17.5712   22.7461 O   0  0  0  0  0  0  0  0  0  0  0  0
   10.4576  -15.8258   23.3174 N   0  0  0  0  0  0  0  0  0  0  0  0
   10.8372  -16.0919   24.7129 C   0  0  1  0  0  0  0  0  0  0  0  0
    9.5959  -16.2068   25.5744 C   0  0  0  0  0  0  0  0  0  0  0  0
   10.0215  -16.4151   26.9721 C   0  0  0  0  0  0  0  0  0  0  0  0
   10.2908  -17.6321   27.5998 C   0  0  0  0  0  0  0  0  0  0  0  0
   10.6410  -17.4111   28.8740 N   0  0  0  0  0  0  0  0  0  0  0  0
   10.6134  -16.0914   29.1123 C   0  0  0  0  0  0  0  0  0  0  0  0
   10.8926  -15.3586   30.2708 C   0  0  0  0  0  0  0  0  0  0  0  0
   10.7814  -13.9907   30.2318 C   0  0  0  0  0  0  0  0  0  0  0  0
   10.3991  -13.3817   29.0565 C   0  0  0  0  0  0  0  0  0  0  0  0
   10.1214  -14.0819   27.9119 C   0  0  0  0  0  0  0  0  0  0  0  0
   10.2332  -15.4584   27.9507 C   0  0  0  0  0  0  0  0  0  0  0  0
   11.5400  -17.3775   24.7394 C   0  0  0  0  0  0  0  0  0  0  0  0
   10.9899  -18.3987   24.2824 O   0  0  0  0  0  0  0  0  0  0  0  0
   12.8056  -17.4708   25.2653 O   0  0  0  0  0  0  0  0  0  0  0  0
  2  1  1  6
  3  2  1  0
  4 11  1  0
  4  2  1  0
  5  4  2  0
  6  7  1  0
  8  7  1  0
  9  8  1  0
 10  9  1  1
 10 11  1  0
 12 10  1  0
 12 14  1  0
 13 12  2  0
 15 14  1  0
 15 16  1  1
 16 17  1  0
 17 25  1  0
 18 19  1  0
 18 17  2  0
 19 20  1  0
 20 25  2  0
 20 21  1  0
 21 22  2  0
 22 23  1  0
 24 23  2  0
 25 24  1  0
 26 15  1  0
 27 26  2  0
 28 26  1  0
M  END
$$$$
