AMW.pdb
     RDKit          3D

 28 29  0  0  1  0  0  0  0  0999 V2000
    8.8757  -20.5945   22.0710 C   0  0  0  0  0  0  0  0  0  0  0  0
    8.4568  -19.6914   20.9253 C   0  0  2  0  0  0  0  0  0  0  0  0
    8.9592  -20.3111   19.7124 N   0  0  0  0  0  0  0  0  0  0  0  0
    9.0442  -18.3381   21.1068 C   0  0  0  0  0  0  0  0  0  0  0  0
   10.1514  -18.0090   20.5762 O   0  0  0  0  0  0  0  0  0  0  0  0
    7.5847  -10.9398   20.3290 C   0  0  0  0  0  0  0  0  0  0  0  0
    7.0159  -12.6759   20.2632 S   0  0  0  0  0  0  0  0  0  0  0  0
    8.2395  -13.6783   21.1506 C   0  0  0  0  0  0  0  0  0  0  0  0
    7.8550  -15.1162   21.1659 C   0  0  0  0  0  0  0  0  0  0  0  0
    8.8195  -15.9995   21.9119 C   0  0  2  0  0  0  0  0  0  0  0  0
    8.3588  -17.3742   21.8937 N   0  0  0  0  0  0  0  0  0  0  0  0
    9.0840  -15.5556   23.2792 C   0  0  0  0  0  0  0  0  0  0  0  0
    9.3009  -14.3658   23.6176 O   0  0  0  0  0  0  0  0  0  0  0  0
    9.1014  -16.5235   24.3177 N   0  0  0  0  0  0  0  0  0  0  0  0
   10.1189  -16.4785   25.3784 C   0  0  1  0  0  0  0  0  0  0  0  0
    9.5823  -15.7258   26.5792 C   0  0  0  0  0  0  0  0  0  0  0  0
    8.2320  -15.2309   26.2482 C   0  0  0  0  0  0  0  0  0  0  0  0
    7.1190  -15.9919   25.8876 C   0  0  0  0  0  0  0  0  0  0  0  0
    6.0780  -15.1811   25.6554 N   0  0  0  0  0  0  0  0  0  0  0  0
    6.4618  -13.9106   25.8494 C   0  0  0  0  0  0  0  0  0  0  0  0
    5.7562  -12.7079   25.7367 C   0  0  0  0  0  0  0  0  0  0  0  0
    6.4103  -11.5295   25.9988 C   0  0  0  0  0  0  0  0  0  0  0  0
    7.7384  -11.5660   26.3639 C   0  0  0  0  0  0  0  0  0  0  0  0
    8.4463  -12.7334   26.4796 C   0  0  0  0  0  0  0  0  0  0  0  0
    7.7885  -13.9194   26.2160 C   0  0  0  0  0  0  0  0  0  0  0  0
   10.3934  -17.8601   25.7826 C   0  0  0  0  0  0  0  0  0  0  0  0
    9.6561  -18.7841   25.3867 O   0  0  0  0  0  0  0  0  0  0  0  0
   11.4605  -18.1502   26.5977 O   0  0  0  0  0  0  0  0  0  0  0  0
  2  1  1  1
  3  2  1  0
  4 11  1  0
  4  2  1  0
  5  4  2  0
  6  7  1  0
  8  7  1  0
  9  8  1  0
 10  9  1  1
 10 11  1  0
 12 10  1  0
 12 14  1  0
 13 12  2  0
 15 14  1  0
 15 16  1  1
 16 17  1  0
 17 25  1  0
 18 19  1  0
 18 17  2  0
 19 20  1  0
 20 25  2  0
 20 21  1  0
 21 22  2  0
 22 23  1  0
 24 23  2  0
 25 24  1  0
 26 15  1  0
 27 26  2  0
 28 26  1  0
M  END
$$$$
