AMW.pdb
     RDKit          3D

 28 29  0  0  1  0  0  0  0  0999 V2000
    8.3805  -20.5353   22.5240 C   0  0  0  0  0  0  0  0  0  0  0  0
    7.9934  -19.8302   21.2371 C   0  0  2  0  0  0  0  0  0  0  0  0
    8.4136  -20.6994   20.1529 N   0  0  0  0  0  0  0  0  0  0  0  0
    8.6814  -18.5152   21.1539 C   0  0  0  0  0  0  0  0  0  0  0  0
    9.8302  -18.3897   20.6248 O   0  0  0  0  0  0  0  0  0  0  0  0
    8.0659  -10.9751   19.7798 C   0  0  0  0  0  0  0  0  0  0  0  0
    7.2087  -12.5747   19.9999 S   0  0  0  0  0  0  0  0  0  0  0  0
    8.3686  -13.6992   20.8243 C   0  0  0  0  0  0  0  0  0  0  0  0
    7.7411  -15.0207   21.0988 C   0  0  0  0  0  0  0  0  0  0  0  0
    8.7083  -16.0689   21.5814 C   0  0  2  0  0  0  0  0  0  0  0  0
    8.0478  -17.3562   21.6767 N   0  0  0  0  0  0  0  0  0  0  0  0
    9.3656  -15.7249   22.8409 C   0  0  0  0  0  0  0  0  0  0  0  0
   10.0205  -14.6727   23.0440 O   0  0  0  0  0  0  0  0  0  0  0  0
    9.2696  -16.6321   23.9287 N   0  0  0  0  0  0  0  0  0  0  0  0
    9.9443  -16.3575   25.2061 C   0  0  1  0  0  0  0  0  0  0  0  0
    8.9886  -16.5945   26.3580 C   0  0  0  0  0  0  0  0  0  0  0  0
    7.8375  -15.6850   26.1976 C   0  0  0  0  0  0  0  0  0  0  0  0
    6.5499  -16.0197   25.7759 C   0  0  0  0  0  0  0  0  0  0  0  0
    5.7868  -14.9188   25.7494 N   0  0  0  0  0  0  0  0  0  0  0  0
    6.5231  -13.8672   26.1384 C   0  0  0  0  0  0  0  0  0  0  0  0
    6.1952  -12.5144   26.2779 C   0  0  0  0  0  0  0  0  0  0  0  0
    7.1640  -11.6388   26.7021 C   0  0  0  0  0  0  0  0  0  0  0  0
    8.4266  -12.1166   26.9770 C   0  0  0  0  0  0  0  0  0  0  0  0
    8.7670  -13.4374   26.8466 C   0  0  0  0  0  0  0  0  0  0  0  0
    7.7925  -14.3190   26.4197 C   0  0  0  0  0  0  0  0  0  0  0  0
   11.0580  -17.3023   25.3266 C   0  0  0  0  0  0  0  0  0  0  0  0
   11.2283  -18.1799   24.4576 O   0  0  0  0  0  0  0  0  0  0  0  0
   11.9217  -17.2313   26.3925 O   0  0  0  0  0  0  0  0  0  0  0  0
  2  1  1  1
  3  2  1  0
  4 11  1  0
  4  2  1  0
  5  4  2  0
  6  7  1  0
  8  7  1  0
  9  8  1  0
 10  9  1  1
 10 11  1  0
 12 10  1  0
 12 14  1  0
 13 12  2  0
 15 14  1  0
 15 16  1  1
 16 17  1  0
 17 25  1  0
 18 19  1  0
 18 17  2  0
 19 20  1  0
 20 25  2  0
 20 21  1  0
 21 22  2  0
 22 23  1  0
 24 23  2  0
 25 24  1  0
 26 15  1  0
 27 26  2  0
 28 26  1  0
M  END
$$$$
