AMW.pdb
     RDKit          3D

 28 29  0  0  1  0  0  0  0  0999 V2000
    9.3495  -21.0286   21.9000 C   0  0  0  0  0  0  0  0  0  0  0  0
    8.4017  -20.0007   21.3096 C   0  0  2  0  0  0  0  0  0  0  0  0
    8.1323  -20.4280   19.9486 N   0  0  0  0  0  0  0  0  0  0  0  0
    9.0392  -18.6580   21.3229 C   0  0  0  0  0  0  0  0  0  0  0  0
   10.2186  -18.4694   20.8881 O   0  0  0  0  0  0  0  0  0  0  0  0
    7.9651  -11.3399   19.6267 C   0  0  0  0  0  0  0  0  0  0  0  0
    7.0812  -12.7738   20.3369 S   0  0  0  0  0  0  0  0  0  0  0  0
    8.3234  -13.8413   21.1158 C   0  0  0  0  0  0  0  0  0  0  0  0
    7.8457  -15.2476   21.2143 C   0  0  0  0  0  0  0  0  0  0  0  0
    8.8834  -16.2120   21.7241 C   0  0  2  0  0  0  0  0  0  0  0  0
    8.3208  -17.5440   21.8336 N   0  0  0  0  0  0  0  0  0  0  0  0
    9.4982  -15.7998   22.9845 C   0  0  0  0  0  0  0  0  0  0  0  0
   10.0817  -14.7038   23.1731 O   0  0  0  0  0  0  0  0  0  0  0  0
    9.4437  -16.6879   24.0909 N   0  0  0  0  0  0  0  0  0  0  0  0
   10.0566  -16.3318   25.3792 C   0  0  1  0  0  0  0  0  0  0  0  0
    9.0628  -16.5474   26.5027 C   0  0  0  0  0  0  0  0  0  0  0  0
    7.8843  -15.6968   26.2463 C   0  0  0  0  0  0  0  0  0  0  0  0
    6.6099  -16.1147   25.8601 C   0  0  0  0  0  0  0  0  0  0  0  0
    5.8127  -15.0474   25.7174 N   0  0  0  0  0  0  0  0  0  0  0  0
    6.5135  -13.9380   25.9955 C   0  0  0  0  0  0  0  0  0  0  0  0
    6.1424  -12.5892   25.9922 C   0  0  0  0  0  0  0  0  0  0  0  0
    7.0810  -11.6436   26.3239 C   0  0  0  0  0  0  0  0  0  0  0  0
    8.3568  -12.0496   26.6492 C   0  0  0  0  0  0  0  0  0  0  0  0
    8.7393  -13.3652   26.6581 C   0  0  0  0  0  0  0  0  0  0  0  0
    7.7952  -14.3172   26.3244 C   0  0  0  0  0  0  0  0  0  0  0  0
   11.1941  -17.2317   25.5881 C   0  0  0  0  0  0  0  0  0  0  0  0
   11.9165  -17.1005   26.5957 O   0  0  0  0  0  0  0  0  0  0  0  0
   11.4751  -18.2242   24.6809 O   0  0  0  0  0  0  0  0  0  0  0  0
  2  1  1  6
  3  2  1  0
  4 11  1  0
  4  2  1  0
  5  4  2  0
  6  7  1  0
  8  7  1  0
  9  8  1  0
 10  9  1  1
 10 11  1  0
 12 10  1  0
 12 14  1  0
 13 12  2  0
 15 14  1  0
 15 16  1  1
 16 17  1  0
 17 25  1  0
 18 19  1  0
 18 17  2  0
 19 20  1  0
 20 25  2  0
 20 21  1  0
 21 22  2  0
 22 23  1  0
 24 23  2  0
 25 24  1  0
 26 15  1  0
 27 26  2  0
 28 26  1  0
M  END
$$$$
