SHC.pdb
     RDKit          3D

 23 23  0  0  1  0  0  0  0  0999 V2000
    8.8655  -11.8838   18.5021 O   0  0  0  0  0  0  0  0  0  0  0  0
    8.2217  -12.5827   19.4939 C   0  0  0  0  0  0  0  0  0  0  0  0
    8.4358  -14.0729   19.3945 C   0  0  2  0  0  0  0  0  0  0  0  0
    7.6906  -14.6489   18.2962 N   0  0  0  0  0  0  0  0  0  0  0  0
    8.0794  -14.7856   20.6306 C   0  0  0  0  0  0  0  0  0  0  0  0
    6.8869  -15.1834   20.8636 O   0  0  0  0  0  0  0  0  0  0  0  0
    9.0852  -15.0441   21.6011 N   0  0  0  0  0  0  0  0  0  0  0  0
    8.7747  -15.6373   22.9071 C   0  0  1  0  0  0  0  0  0  0  0  0
    9.7302  -16.8135   23.1024 C   0  0  0  0  0  0  0  0  0  0  0  0
    9.3105  -18.0022   22.3414 C   0  0  0  0  0  0  0  0  0  0  0  0
    8.1712  -18.0152   21.5359 C   0  0  0  0  0  0  0  0  0  0  0  0
    8.0613  -19.2299   20.9825 N   0  0  0  0  0  0  0  0  0  0  0  0
    9.0954  -19.9989   21.4075 C   0  0  0  0  0  0  0  0  0  0  0  0
    9.8345  -19.2221   22.2313 N   0  0  0  0  0  0  0  0  0  0  0  0
    9.0368  -14.6840   24.0021 C   0  0  0  0  0  0  0  0  0  0  0  0
   10.0973  -14.0289   23.9962 O   0  0  0  0  0  0  0  0  0  0  0  0
    8.1173  -14.4954   25.0553 N   0  0  0  0  0  0  0  0  0  0  0  0
    8.4930  -13.6742   26.1701 C   0  0  1  0  0  0  0  0  0  0  0  0
    7.4794  -12.6141   26.5083 C   0  0  0  0  0  0  0  0  0  0  0  0
    5.8255  -13.3837   26.3292 S   0  0  0  0  0  0  0  0  0  0  0  0
    8.6351  -14.5503   27.3712 C   0  0  0  0  0  0  0  0  0  0  0  0
    9.1137  -13.9543   28.5517 O   0  0  0  0  0  0  0  0  0  0  0  0
    8.3415  -15.7708   27.3376 O   0  0  0  0  0  0  0  0  0  0  0  0
  2  1  1  0
  3  2  1  0
  3  5  1  0
  3  4  1  6
  5  6  2  0
  7  8  1  0
  7  5  1  0
  8 15  1  0
  8  9  1  1
 10  9  1  0
 10 11  2  0
 12 11  1  0
 13 12  1  0
 14 13  2  0
 14 10  1  0
 15 17  1  0
 15 16  2  0
 17 18  1  0
 18 21  1  0
 18 19  1  1
 20 19  1  0
 21 23  2  0
 21 22  1  0
M  END
$$$$
