SHC.pdb
     RDKit          3D

 23 23  0  0  1  0  0  0  0  0999 V2000
   12.0009  -18.7250   16.0039 O   0  0  0  0  0  0  0  0  0  0  0  0
   10.8503  -18.3306   15.3660 C   0  0  0  0  0  0  0  0  0  0  0  0
   10.8180  -16.8500   15.0775 C   0  0  2  0  0  0  0  0  0  0  0  0
   11.5391  -16.5246   13.8661 N   0  0  0  0  0  0  0  0  0  0  0  0
   11.3594  -16.0407   16.1798 C   0  0  0  0  0  0  0  0  0  0  0  0
   12.4818  -15.4353   16.0880 O   0  0  0  0  0  0  0  0  0  0  0  0
   10.6189  -15.9227   17.3872 N   0  0  0  0  0  0  0  0  0  0  0  0
   11.0767  -15.0885   18.5045 C   0  0  1  0  0  0  0  0  0  0  0  0
    9.8684  -14.8502   19.4089 C   0  0  0  0  0  0  0  0  0  0  0  0
    8.7820  -14.1439   18.7095 C   0  0  0  0  0  0  0  0  0  0  0  0
    8.8305  -12.7773   18.4318 C   0  0  0  0  0  0  0  0  0  0  0  0
    7.7033  -12.4377   17.7931 N   0  0  0  0  0  0  0  0  0  0  0  0
    6.9310  -13.5444   17.6513 C   0  0  0  0  0  0  0  0  0  0  0  0
    7.6162  -14.5626   18.2189 N   0  0  0  0  0  0  0  0  0  0  0  0
   12.0889  -15.7914   19.3156 C   0  0  0  0  0  0  0  0  0  0  0  0
   11.9384  -17.0052   19.5561 O   0  0  0  0  0  0  0  0  0  0  0  0
   13.2225  -15.1242   19.8256 N   0  0  0  0  0  0  0  0  0  0  0  0
   14.2944  -15.8976   20.3833 C   0  0  1  0  0  0  0  0  0  0  0  0
   15.6023  -15.7286   19.6578 C   0  0  0  0  0  0  0  0  0  0  0  0
   15.7826  -13.9407   19.2962 S   0  0  0  0  0  0  0  0  0  0  0  0
   14.5094  -15.4532   21.7928 C   0  0  0  0  0  0  0  0  0  0  0  0
   15.4887  -16.1309   22.5409 O   0  0  0  0  0  0  0  0  0  0  0  0
   13.8471  -14.5134   22.2980 O   0  0  0  0  0  0  0  0  0  0  0  0
  2  1  1  0
  3  2  1  0
  3  5  1  0
  3  4  1  6
  5  6  2  0
  7  8  1  0
  7  5  1  0
  8 15  1  0
  8  9  1  1
 10  9  1  0
 10 11  2  0
 12 11  1  0
 13 12  1  0
 14 13  2  0
 14 10  1  0
 15 17  1  0
 15 16  2  0
 17 18  1  0
 18 21  1  0
 18 19  1  6
 20 19  1  0
 21 23  2  0
 21 22  1  0
M  END
$$$$
