SHC.pdb
     RDKit          3D

 23 23  0  0  1  0  0  0  0  0999 V2000
    8.5744  -13.9836   19.2308 O   0  0  0  0  0  0  0  0  0  0  0  0
    9.5672  -14.8992   19.4804 C   0  0  0  0  0  0  0  0  0  0  0  0
    9.0305  -16.2519   19.8788 C   0  0  2  0  0  0  0  0  0  0  0  0
    8.0968  -16.7668   18.9009 N   0  0  0  0  0  0  0  0  0  0  0  0
    8.3757  -16.2421   21.1957 C   0  0  0  0  0  0  0  0  0  0  0  0
    7.1035  -16.2685   21.3200 O   0  0  0  0  0  0  0  0  0  0  0  0
    9.1740  -16.2022   22.3710 N   0  0  0  0  0  0  0  0  0  0  0  0
    8.5936  -16.3311   23.7127 C   0  0  1  0  0  0  0  0  0  0  0  0
    9.5976  -17.1100   24.5612 C   0  0  0  0  0  0  0  0  0  0  0  0
    9.5435  -18.5575   24.2965 C   0  0  0  0  0  0  0  0  0  0  0  0
    8.5728  -19.1360   23.4777 C   0  0  0  0  0  0  0  0  0  0  0  0
    8.7902  -20.4569   23.4366 N   0  0  0  0  0  0  0  0  0  0  0  0
    9.8713  -20.7459   24.2041 C   0  0  0  0  0  0  0  0  0  0  0  0
   10.3041  -19.5695   24.7113 N   0  0  0  0  0  0  0  0  0  0  0  0
    8.4244  -15.0114   24.3501 C   0  0  0  0  0  0  0  0  0  0  0  0
    9.2996  -14.1395   24.1829 O   0  0  0  0  0  0  0  0  0  0  0  0
    7.2973  -14.7116   25.1438 N   0  0  0  0  0  0  0  0  0  0  0  0
    7.1787  -13.4033   25.7204 C   0  0  1  0  0  0  0  0  0  0  0  0
    5.7569  -12.9870   25.9866 C   0  0  0  0  0  0  0  0  0  0  0  0
    5.8294  -11.3852   26.8746 S   0  0  0  0  0  0  0  0  0  0  0  0
    7.8932  -13.4023   27.0319 C   0  0  0  0  0  0  0  0  0  0  0  0
    8.1723  -12.1526   27.6137 O   0  0  0  0  0  0  0  0  0  0  0  0
    8.2349  -14.4691   27.5994 O   0  0  0  0  0  0  0  0  0  0  0  0
  2  1  1  0
  3  2  1  0
  3  5  1  0
  3  4  1  6
  5  6  2  0
  7  8  1  0
  7  5  1  0
  8 15  1  0
  8  9  1  1
 10  9  1  0
 10 11  2  0
 12 11  1  0
 13 12  1  0
 14 13  2  0
 14 10  1  0
 15 17  1  0
 15 16  2  0
 17 18  1  0
 18 21  1  0
 18 19  1  1
 20 19  1  0
 21 23  2  0
 21 22  1  0
M  END
$$$$
