SHC.pdb
     RDKit          3D

 23 23  0  0  1  0  0  0  0  0999 V2000
    7.9545  -15.0535   20.1328 O   0  0  0  0  0  0  0  0  0  0  0  0
    8.4147  -16.3429   20.2425 C   0  0  0  0  0  0  0  0  0  0  0  0
    7.3958  -17.2798   20.8432 C   0  0  2  0  0  0  0  0  0  0  0  0
    6.2034  -17.3678   20.0285 N   0  0  0  0  0  0  0  0  0  0  0  0
    7.0058  -16.9006   22.2096 C   0  0  0  0  0  0  0  0  0  0  0  0
    5.8403  -16.4508   22.4814 O   0  0  0  0  0  0  0  0  0  0  0  0
    7.9472  -17.0351   23.2660 N   0  0  0  0  0  0  0  0  0  0  0  0
    7.5878  -16.7867   24.6671 C   0  0  1  0  0  0  0  0  0  0  0  0
    8.3703  -17.7894   25.5139 C   0  0  0  0  0  0  0  0  0  0  0  0
    7.8049  -19.1465   25.4316 C   0  0  0  0  0  0  0  0  0  0  0  0
    6.4870  -19.3892   25.0423 C   0  0  0  0  0  0  0  0  0  0  0  0
    6.2779  -20.7118   25.0675 N   0  0  0  0  0  0  0  0  0  0  0  0
    7.4213  -21.3275   25.4611 C   0  0  0  0  0  0  0  0  0  0  0  0
    8.3282  -20.3474   25.6739 N   0  0  0  0  0  0  0  0  0  0  0  0
    8.0103  -15.4397   25.0957 C   0  0  0  0  0  0  0  0  0  0  0  0
    9.0779  -14.9696   24.6561 O   0  0  0  0  0  0  0  0  0  0  0  0
    7.2365  -14.6708   25.9903 N   0  0  0  0  0  0  0  0  0  0  0  0
    7.7423  -13.4058   26.4399 C   0  0  1  0  0  0  0  0  0  0  0  0
    6.6903  -12.5147   27.0439 C   0  0  0  0  0  0  0  0  0  0  0  0
    5.5028  -12.1124   25.7068 S   0  0  0  0  0  0  0  0  0  0  0  0
    8.7674  -13.6592   27.4960 C   0  0  0  0  0  0  0  0  0  0  0  0
    9.5338  -12.5619   27.9280 O   0  0  0  0  0  0  0  0  0  0  0  0
    8.9449  -14.8025   27.9842 O   0  0  0  0  0  0  0  0  0  0  0  0
  2  1  1  0
  3  2  1  0
  3  5  1  0
  3  4  1  6
  5  6  2  0
  7  8  1  0
  7  5  1  0
  8 15  1  0
  8  9  1  1
 10  9  1  0
 10 11  2  0
 12 11  1  0
 13 12  1  0
 14 13  2  0
 14 10  1  0
 15 17  1  0
 15 16  2  0
 17 18  1  0
 18 21  1  0
 18 19  1  1
 20 19  1  0
 21 23  2  0
 21 22  1  0
M  END
$$$$
