SHC.pdb
     RDKit          3D

 23 23  0  0  1  0  0  0  0  0999 V2000
   10.1821  -12.8213   20.4741 O   0  0  0  0  0  0  0  0  0  0  0  0
   10.0239  -13.8500   19.5780 C   0  0  0  0  0  0  0  0  0  0  0  0
    8.5862  -14.2840   19.4316 C   0  0  2  0  0  0  0  0  0  0  0  0
    7.7924  -13.2857   18.7486 N   0  0  0  0  0  0  0  0  0  0  0  0
    7.9480  -14.5925   20.7202 C   0  0  0  0  0  0  0  0  0  0  0  0
    6.9647  -13.9101   21.1698 O   0  0  0  0  0  0  0  0  0  0  0  0
    8.4328  -15.6806   21.4956 N   0  0  0  0  0  0  0  0  0  0  0  0
    7.8912  -15.9947   22.8230 C   0  0  1  0  0  0  0  0  0  0  0  0
    8.4366  -17.3671   23.2150 C   0  0  0  0  0  0  0  0  0  0  0  0
    7.9416  -17.8063   24.5305 C   0  0  0  0  0  0  0  0  0  0  0  0
    6.9610  -17.1078   25.2359 C   0  0  0  0  0  0  0  0  0  0  0  0
    6.7294  -17.7543   26.3858 N   0  0  0  0  0  0  0  0  0  0  0  0
    7.5314  -18.8475   26.4416 C   0  0  0  0  0  0  0  0  0  0  0  0
    8.2543  -18.8486   25.2989 N   0  0  0  0  0  0  0  0  0  0  0  0
    8.3718  -15.0357   23.8359 C   0  0  0  0  0  0  0  0  0  0  0  0
    9.5220  -14.5668   23.7309 O   0  0  0  0  0  0  0  0  0  0  0  0
    7.5622  -14.6363   24.9200 N   0  0  0  0  0  0  0  0  0  0  0  0
    8.0070  -13.5657   25.7650 C   0  0  1  0  0  0  0  0  0  0  0  0
    6.9728  -12.4926   25.9756 C   0  0  0  0  0  0  0  0  0  0  0  0
    5.5105  -13.3036   26.7264 S   0  0  0  0  0  0  0  0  0  0  0  0
    8.3360  -14.1329   27.1068 C   0  0  0  0  0  0  0  0  0  0  0  0
    8.9784  -13.2844   28.0263 O   0  0  0  0  0  0  0  0  0  0  0  0
    8.0542  -15.3184   27.4106 O   0  0  0  0  0  0  0  0  0  0  0  0
  2  1  1  0
  3  2  1  0
  3  5  1  0
  3  4  1  1
  5  6  2  0
  7  8  1  0
  7  5  1  0
  8 15  1  0
  8  9  1  1
 10  9  1  0
 10 11  2  0
 12 11  1  0
 13 12  1  0
 14 13  2  0
 14 10  1  0
 15 17  1  0
 15 16  2  0
 17 18  1  0
 18 21  1  0
 18 19  1  1
 20 19  1  0
 21 23  2  0
 21 22  1  0
M  END
$$$$
