SHC.pdb
     RDKit          3D

 23 23  0  0  1  0  0  0  0  0999 V2000
   11.6818  -15.3466   21.0754 O   0  0  0  0  0  0  0  0  0  0  0  0
   10.7759  -16.0977   20.3671 C   0  0  0  0  0  0  0  0  0  0  0  0
   10.7389  -17.5403   20.8075 C   0  0  2  0  0  0  0  0  0  0  0  0
    9.8351  -18.3253   19.9950 N   0  0  0  0  0  0  0  0  0  0  0  0
   10.3598  -17.6975   22.2199 C   0  0  0  0  0  0  0  0  0  0  0  0
    9.1382  -17.7754   22.5888 O   0  0  0  0  0  0  0  0  0  0  0  0
   11.3762  -17.7658   23.2111 N   0  0  0  0  0  0  0  0  0  0  0  0
   11.0658  -17.9258   24.6365 C   0  0  1  0  0  0  0  0  0  0  0  0
   12.1434  -18.8321   25.2298 C   0  0  0  0  0  0  0  0  0  0  0  0
   11.8269  -20.2594   25.0545 C   0  0  0  0  0  0  0  0  0  0  0  0
   10.5665  -20.7062   24.6556 C   0  0  0  0  0  0  0  0  0  0  0  0
   10.5964  -22.0435   24.5881 N   0  0  0  0  0  0  0  0  0  0  0  0
   11.8378  -22.4707   24.9315 C   0  0  0  0  0  0  0  0  0  0  0  0
   12.5595  -21.3614   25.2086 N   0  0  0  0  0  0  0  0  0  0  0  0
   11.1485  -16.6364   25.3487 C   0  0  0  0  0  0  0  0  0  0  0  0
   11.4778  -15.6136   24.7168 O   0  0  0  0  0  0  0  0  0  0  0  0
   10.8643  -16.5322   26.7266 N   0  0  0  0  0  0  0  0  0  0  0  0
   10.5499  -15.2457   27.2783 C   0  0  1  0  0  0  0  0  0  0  0  0
    9.3286  -14.6098   26.6704 C   0  0  0  0  0  0  0  0  0  0  0  0
    9.0285  -13.0513   27.5874 S   0  0  0  0  0  0  0  0  0  0  0  0
   10.2814  -15.4142   28.7378 C   0  0  0  0  0  0  0  0  0  0  0  0
   10.5060  -14.3014   29.5679 O   0  0  0  0  0  0  0  0  0  0  0  0
    9.8715  -16.5018   29.2133 O   0  0  0  0  0  0  0  0  0  0  0  0
  2  1  1  0
  3  2  1  0
  3  5  1  0
  3  4  1  6
  5  6  2  0
  7  8  1  0
  7  5  1  0
  8 15  1  0
  8  9  1  1
 10  9  1  0
 10 11  2  0
 12 11  1  0
 13 12  1  0
 14 13  2  0
 14 10  1  0
 15 17  1  0
 15 16  2  0
 17 18  1  0
 18 21  1  0
 18 19  1  6
 20 19  1  0
 21 23  2  0
 21 22  1  0
M  END
$$$$
