SHC.pdb
     RDKit          3D

 23 23  0  0  1  0  0  0  0  0999 V2000
   16.0306  -16.4232   17.3980 O   0  0  0  0  0  0  0  0  0  0  0  0
   14.6721  -16.4818   17.5914 C   0  0  0  0  0  0  0  0  0  0  0  0
   14.0253  -15.1191   17.6235 C   0  0  2  0  0  0  0  0  0  0  0  0
   15.0002  -14.0600   17.4785 N   0  0  0  0  0  0  0  0  0  0  0  0
   13.2515  -14.8822   18.8516 C   0  0  0  0  0  0  0  0  0  0  0  0
   13.7411  -14.2504   19.8496 O   0  0  0  0  0  0  0  0  0  0  0  0
   11.9183  -15.3668   18.9401 N   0  0  0  0  0  0  0  0  0  0  0  0
   11.1558  -15.3275   20.1935 C   0  0  1  0  0  0  0  0  0  0  0  0
    9.7173  -15.7147   19.8540 C   0  0  0  0  0  0  0  0  0  0  0  0
    9.0205  -14.6579   19.1017 C   0  0  0  0  0  0  0  0  0  0  0  0
    9.6370  -13.4578   18.7456 C   0  0  0  0  0  0  0  0  0  0  0  0
    8.7496  -12.7120   18.0747 N   0  0  0  0  0  0  0  0  0  0  0  0
    7.5808  -13.3960   17.9882 C   0  0  0  0  0  0  0  0  0  0  0  0
    7.7804  -14.5735   18.6223 N   0  0  0  0  0  0  0  0  0  0  0  0
   11.6556  -16.3297   21.1539 C   0  0  0  0  0  0  0  0  0  0  0  0
   12.7107  -16.9424   20.8984 O   0  0  0  0  0  0  0  0  0  0  0  0
   10.9694  -16.6118   22.3538 N   0  0  0  0  0  0  0  0  0  0  0  0
   11.6827  -17.2240   23.4376 C   0  0  1  0  0  0  0  0  0  0  0  0
   12.7735  -16.3582   24.0084 C   0  0  0  0  0  0  0  0  0  0  0  0
   13.7661  -17.4205   25.1247 S   0  0  0  0  0  0  0  0  0  0  0  0
   10.7139  -17.5001   24.5401 C   0  0  0  0  0  0  0  0  0  0  0  0
    9.4450  -16.9005   24.4494 O   0  0  0  0  0  0  0  0  0  0  0  0
   11.0116  -18.2366   25.5127 O   0  0  0  0  0  0  0  0  0  0  0  0
  2  1  1  0
  3  2  1  0
  3  5  1  0
  3  4  1  1
  5  6  2  0
  7  8  1  0
  7  5  1  0
  8 15  1  0
  8  9  1  6
 10  9  1  0
 10 11  2  0
 12 11  1  0
 13 12  1  0
 14 13  2  0
 14 10  1  0
 15 17  1  0
 15 16  2  0
 17 18  1  0
 18 21  1  0
 18 19  1  1
 20 19  1  0
 21 23  2  0
 21 22  1  0
M  END
$$$$
