SHC.pdb
     RDKit          3D

 23 23  0  0  1  0  0  0  0  0999 V2000
    6.2104  -19.0484   23.0719 O   0  0  0  0  0  0  0  0  0  0  0  0
    5.2836  -18.2545   22.4417 C   0  0  0  0  0  0  0  0  0  0  0  0
    5.7447  -17.7778   21.0865 C   0  0  2  0  0  0  0  0  0  0  0  0
    5.9149  -18.8772   20.1615 N   0  0  0  0  0  0  0  0  0  0  0  0
    6.9999  -17.0135   21.1457 C   0  0  0  0  0  0  0  0  0  0  0  0
    8.1316  -17.5481   20.8845 O   0  0  0  0  0  0  0  0  0  0  0  0
    6.9627  -15.6384   21.5034 N   0  0  0  0  0  0  0  0  0  0  0  0
    8.1815  -14.8762   21.7985 C   0  0  1  0  0  0  0  0  0  0  0  0
    8.0479  -13.5281   21.0915 C   0  0  0  0  0  0  0  0  0  0  0  0
    8.1892  -13.6507   19.6309 C   0  0  0  0  0  0  0  0  0  0  0  0
    7.2768  -13.0878   18.7377 C   0  0  0  0  0  0  0  0  0  0  0  0
    7.6782  -13.3717   17.4919 N   0  0  0  0  0  0  0  0  0  0  0  0
    8.8212  -14.1002   17.5564 C   0  0  0  0  0  0  0  0  0  0  0  0
    9.1032  -14.2512   18.8702 N   0  0  0  0  0  0  0  0  0  0  0  0
    8.2988  -14.5948   23.2420 C   0  0  0  0  0  0  0  0  0  0  0  0
    7.7551  -13.5745   23.7080 O   0  0  0  0  0  0  0  0  0  0  0  0
    9.0106  -15.4516   24.1077 N   0  0  0  0  0  0  0  0  0  0  0  0
    8.7524  -15.3895   25.5176 C   0  0  1  0  0  0  0  0  0  0  0  0
    7.3278  -15.7066   25.8854 C   0  0  0  0  0  0  0  0  0  0  0  0
    6.4326  -14.1094   25.9705 S   0  0  0  0  0  0  0  0  0  0  0  0
    9.6201  -16.3967   26.1980 C   0  0  0  0  0  0  0  0  0  0  0  0
    9.5851  -16.4342   27.6035 O   0  0  0  0  0  0  0  0  0  0  0  0
   10.3545  -17.1824   25.5496 O   0  0  0  0  0  0  0  0  0  0  0  0
  2  1  1  0
  3  2  1  0
  3  5  1  0
  3  4  1  6
  5  6  2  0
  7  8  1  0
  7  5  1  0
  8 15  1  0
  8  9  1  6
 10  9  1  0
 10 11  2  0
 12 11  1  0
 13 12  1  0
 14 13  2  0
 14 10  1  0
 15 17  1  0
 15 16  2  0
 17 18  1  0
 18 21  1  0
 18 19  1  6
 20 19  1  0
 21 23  2  0
 21 22  1  0
M  END
$$$$
