SHC.pdb
     RDKit          3D

 23 23  0  0  1  0  0  0  0  0999 V2000
   14.1093  -14.2869   20.1241 O   0  0  0  0  0  0  0  0  0  0  0  0
   12.7466  -14.3490   19.9646 C   0  0  0  0  0  0  0  0  0  0  0  0
   12.2185  -15.7623   19.9788 C   0  0  2  0  0  0  0  0  0  0  0  0
   11.5348  -16.0909   18.7468 N   0  0  0  0  0  0  0  0  0  0  0  0
   11.3097  -16.0219   21.1056 C   0  0  0  0  0  0  0  0  0  0  0  0
   10.0599  -15.7597   21.0423 O   0  0  0  0  0  0  0  0  0  0  0  0
   11.8282  -16.5812   22.3050 N   0  0  0  0  0  0  0  0  0  0  0  0
   10.9572  -17.0105   23.4054 C   0  0  1  0  0  0  0  0  0  0  0  0
   11.5360  -18.3153   23.9506 C   0  0  0  0  0  0  0  0  0  0  0  0
   10.9821  -19.4966   23.2679 C   0  0  0  0  0  0  0  0  0  0  0  0
    9.9081  -19.4170   22.3806 C   0  0  0  0  0  0  0  0  0  0  0  0
    9.6423  -20.6500   21.9303 N   0  0  0  0  0  0  0  0  0  0  0  0
   10.5128  -21.5206   22.5011 C   0  0  0  0  0  0  0  0  0  0  0  0
   11.3122  -20.7866   23.3077 N   0  0  0  0  0  0  0  0  0  0  0  0
   10.9765  -16.0358   24.5127 C   0  0  0  0  0  0  0  0  0  0  0  0
   12.0413  -15.4481   24.7861 O   0  0  0  0  0  0  0  0  0  0  0  0
    9.8202  -15.7524   25.2697 N   0  0  0  0  0  0  0  0  0  0  0  0
    9.8984  -14.7852   26.3264 C   0  0  1  0  0  0  0  0  0  0  0  0
    8.6599  -13.9413   26.4659 C   0  0  0  0  0  0  0  0  0  0  0  0
    8.8858  -12.9092   27.9637 S   0  0  0  0  0  0  0  0  0  0  0  0
   10.0851  -15.5141   27.6165 C   0  0  0  0  0  0  0  0  0  0  0  0
   10.5181  -14.7642   28.7246 O   0  0  0  0  0  0  0  0  0  0  0  0
    9.8668  -16.7467   27.7170 O   0  0  0  0  0  0  0  0  0  0  0  0
  2  1  1  0
  3  2  1  0
  3  5  1  0
  3  4  1  6
  5  6  2  0
  7  8  1  0
  7  5  1  0
  8 15  1  0
  8  9  1  1
 10  9  1  0
 10 11  2  0
 12 11  1  0
 13 12  1  0
 14 13  2  0
 14 10  1  0
 15 17  1  0
 15 16  2  0
 17 18  1  0
 18 21  1  0
 18 19  1  1
 20 19  1  0
 21 23  2  0
 21 22  1  0
M  END
$$$$
