SHC.pdb
     RDKit          3D

 23 23  0  0  1  0  0  0  0  0999 V2000
   15.3566  -18.8839    9.6751 O   0  0  0  0  0  0  0  0  0  0  0  0
   15.2472  -18.0548   10.7647 C   0  0  0  0  0  0  0  0  0  0  0  0
   13.8227  -17.8863   11.2323 C   0  0  2  0  0  0  0  0  0  0  0  0
   12.9743  -17.3589   10.1857 N   0  0  0  0  0  0  0  0  0  0  0  0
   13.7076  -17.0184   12.4141 C   0  0  0  0  0  0  0  0  0  0  0  0
   13.5760  -15.7506   12.3133 O   0  0  0  0  0  0  0  0  0  0  0  0
   13.7427  -17.5984   13.7112 N   0  0  0  0  0  0  0  0  0  0  0  0
   13.6342  -16.7890   14.9306 C   0  0  1  0  0  0  0  0  0  0  0  0
   12.5370  -17.4177   15.7882 C   0  0  0  0  0  0  0  0  0  0  0  0
   11.1946  -17.1900   15.2273 C   0  0  0  0  0  0  0  0  0  0  0  0
   10.7571  -15.9315   14.8125 C   0  0  0  0  0  0  0  0  0  0  0  0
    9.5043  -16.0519   14.3543 N   0  0  0  0  0  0  0  0  0  0  0  0
    9.1226  -17.3497   14.4617 C   0  0  0  0  0  0  0  0  0  0  0  0
   10.1730  -18.0130   14.9956 N   0  0  0  0  0  0  0  0  0  0  0  0
   14.8799  -16.8422   15.7192 C   0  0  0  0  0  0  0  0  0  0  0  0
   15.4922  -17.9238   15.8150 O   0  0  0  0  0  0  0  0  0  0  0  0
   15.3951  -15.6999   16.3672 N   0  0  0  0  0  0  0  0  0  0  0  0
   16.6571  -15.7918   17.0434 C   0  0  1  0  0  0  0  0  0  0  0  0
   17.3112  -14.4580   17.2856 C   0  0  0  0  0  0  0  0  0  0  0  0
   17.7151  -13.7575   15.6406 S   0  0  0  0  0  0  0  0  0  0  0  0
   16.4292  -16.4220   18.3781 C   0  0  0  0  0  0  0  0  0  0  0  0
   17.5626  -16.6953   19.1647 O   0  0  0  0  0  0  0  0  0  0  0  0
   15.2758  -16.7001   18.7896 O   0  0  0  0  0  0  0  0  0  0  0  0
  2  1  1  0
  3  2  1  0
  3  5  1  0
  3  4  1  6
  5  6  2  0
  7  8  1  0
  7  5  1  0
  8 15  1  0
  8  9  1  1
 10  9  1  0
 10 11  2  0
 12 11  1  0
 13 12  1  0
 14 13  2  0
 14 10  1  0
 15 17  1  0
 15 16  2  0
 17 18  1  0
 18 21  1  0
 18 19  1  1
 20 19  1  0
 21 23  2  0
 21 22  1  0
M  END
$$$$
