SHC.pdb
     RDKit          3D

 23 23  0  0  1  0  0  0  0  0999 V2000
    8.9152  -11.7042   19.6097 O   0  0  0  0  0  0  0  0  0  0  0  0
    9.5766  -12.9002   19.7459 C   0  0  0  0  0  0  0  0  0  0  0  0
    8.6795  -14.0940   19.5306 C   0  0  2  0  0  0  0  0  0  0  0  0
    7.6163  -13.8029   18.5935 N   0  0  0  0  0  0  0  0  0  0  0  0
    8.0835  -14.5940   20.7788 C   0  0  0  0  0  0  0  0  0  0  0  0
    6.8560  -14.3899   21.0727 O   0  0  0  0  0  0  0  0  0  0  0  0
    8.8894  -15.3272   21.6915 N   0  0  0  0  0  0  0  0  0  0  0  0
    8.3546  -15.8601   22.9500 C   0  0  1  0  0  0  0  0  0  0  0  0
    9.0285  -17.2111   23.1856 C   0  0  0  0  0  0  0  0  0  0  0  0
    8.4787  -18.2649   22.3164 C   0  0  0  0  0  0  0  0  0  0  0  0
    7.2539  -18.1352   21.6606 C   0  0  0  0  0  0  0  0  0  0  0  0
    7.0348  -19.2518   20.9542 N   0  0  0  0  0  0  0  0  0  0  0  0
    8.0816  -20.0960   21.1355 C   0  0  0  0  0  0  0  0  0  0  0  0
    8.9401  -19.4652   21.9682 N   0  0  0  0  0  0  0  0  0  0  0  0
    8.7133  -14.9960   24.0907 C   0  0  0  0  0  0  0  0  0  0  0  0
    9.8375  -14.4578   24.1150 O   0  0  0  0  0  0  0  0  0  0  0  0
    7.8161  -14.7637   25.1543 N   0  0  0  0  0  0  0  0  0  0  0  0
    8.1968  -13.8622   26.2033 C   0  0  1  0  0  0  0  0  0  0  0  0
    7.0358  -13.1330   26.8244 C   0  0  0  0  0  0  0  0  0  0  0  0
    6.0968  -12.3619   25.4519 S   0  0  0  0  0  0  0  0  0  0  0  0
    8.8532  -14.6536   27.2865 C   0  0  0  0  0  0  0  0  0  0  0  0
    9.0049  -16.0356   27.0746 O   0  0  0  0  0  0  0  0  0  0  0  0
    9.2564  -14.1152   28.3470 O   0  0  0  0  0  0  0  0  0  0  0  0
  2  1  1  0
  3  2  1  0
  3  5  1  0
  3  4  1  6
  5  6  2  0
  7  8  1  0
  7  5  1  0
  8 15  1  0
  8  9  1  1
 10  9  1  0
 10 11  2  0
 12 11  1  0
 13 12  1  0
 14 13  2  0
 14 10  1  0
 15 17  1  0
 15 16  2  0
 17 18  1  0
 18 21  1  0
 18 19  1  1
 20 19  1  0
 21 23  2  0
 21 22  1  0
M  END
$$$$
