FGR.pdb
     RDKit          3D

 27 27  0  0  1  0  0  0  0  0999 V2000
   29.2693  -20.8981   -8.2604 N   0  0  0  0  0  0  0  0  0  0  0  0
   27.8712  -20.5765   -8.4729 C   0  0  1  0  0  0  0  0  0  0  0  0
   27.4723  -19.3249   -7.7240 C   0  0  0  0  0  0  0  0  0  0  0  0
   27.8056  -19.4001   -6.2706 C   0  0  0  0  0  0  0  0  0  0  0  0
   28.6809  -18.4970   -5.7158 C   0  0  0  0  0  0  0  0  0  0  0  0
   29.0025  -18.5463   -4.3773 C   0  0  0  0  0  0  0  0  0  0  0  0
   28.4591  -19.5078   -3.5276 C   0  0  0  0  0  0  0  0  0  0  0  0
   27.5878  -20.3918   -4.1243 C   0  0  0  0  0  0  0  0  0  0  0  0
   27.2554  -20.3580   -5.4570 C   0  0  0  0  0  0  0  0  0  0  0  0
   27.7019  -20.2847   -9.9201 C   0  0  0  0  0  0  0  0  0  0  0  0
   28.7691  -20.1983  -10.6028 O   0  0  0  0  0  0  0  0  0  0  0  0
   26.4510  -20.1039  -10.5570 N   0  0  0  0  0  0  0  0  0  0  0  0
   25.5483  -21.1461  -10.8944 C   0  0  0  0  0  0  0  0  0  0  0  0
   24.3533  -20.7342  -11.6676 C   0  0  0  0  0  0  0  0  0  0  0  0
   23.5989  -19.7978  -11.2186 O   0  0  0  0  0  0  0  0  0  0  0  0
   22.2758  -25.6429  -15.3828 N   0  0  0  0  0  0  0  0  0  0  0  0
   23.5437  -25.5829  -16.0041 C   0  0  0  0  0  0  0  0  0  0  0  0
   23.8727  -26.4600  -16.9198 N   0  0  0  0  0  0  0  0  0  0  0  0
   24.4239  -24.5456  -15.5915 N   0  0  0  0  0  0  0  0  0  0  0  0
   23.9636  -23.5751  -14.6441 C   0  0  0  0  0  0  0  0  0  0  0  0
   23.7521  -22.2402  -15.3601 C   0  0  0  0  0  0  0  0  0  0  0  0
   22.4928  -21.6599  -14.8166 C   0  0  0  0  0  0  0  0  0  0  0  0
   22.6076  -21.0408  -13.4566 C   0  0  2  0  0  0  0  0  0  0  0  0
   23.9494  -21.2937  -12.9024 N   0  0  0  0  0  0  0  0  0  0  0  0
   21.5702  -21.4875  -12.4982 C   0  0  0  0  0  0  0  0  0  0  0  0
   20.3749  -21.0472  -12.6079 O   0  0  0  0  0  0  0  0  0  0  0  0
   21.7826  -22.3705  -11.4567 O   0  0  0  0  0  0  0  0  0  0  0  0
  2  1  1  6
  3  2  1  0
  4  3  1  0
  5  4  2  0
  6  5  1  0
  7  6  2  0
  7  8  1  0
  8  9  2  0
  9  4  1  0
 10  2  1  0
 10 12  1  0
 11 10  2  0
 13 12  1  0
 14 13  1  0
 15 14  2  0
 16 17  1  0
 17 19  1  0
 17 18  2  0
 19 20  1  0
 20 21  1  0
 21 22  1  0
 23 22  1  6
 23 25  1  0
 23 24  1  0
 24 14  1  0
 25 27  1  0
 26 25  2  0
M  END
$$$$
