FGR.pdb
     RDKit          3D

 27 27  0  0  1  0  0  0  0  0999 V2000
   29.0096  -20.9961   -8.2868 N   0  0  0  0  0  0  0  0  0  0  0  0
   27.6554  -20.6828   -7.8730 C   0  0  1  0  0  0  0  0  0  0  0  0
   27.5709  -19.3040   -7.2579 C   0  0  0  0  0  0  0  0  0  0  0  0
   28.2877  -19.2183   -5.9511 C   0  0  0  0  0  0  0  0  0  0  0  0
   29.4900  -18.5573   -5.8657 C   0  0  0  0  0  0  0  0  0  0  0  0
   30.1688  -18.4645   -4.6706 C   0  0  0  0  0  0  0  0  0  0  0  0
   29.6721  -19.0325   -3.4992 C   0  0  0  0  0  0  0  0  0  0  0  0
   28.4661  -19.6846   -3.6299 C   0  0  0  0  0  0  0  0  0  0  0  0
   27.7750  -19.7873   -4.8128 C   0  0  0  0  0  0  0  0  0  0  0  0
   26.8150  -20.6599   -9.0984 C   0  0  0  0  0  0  0  0  0  0  0  0
   27.4278  -20.4713  -10.1945 O   0  0  0  0  0  0  0  0  0  0  0  0
   25.4104  -20.8323   -9.1063 N   0  0  0  0  0  0  0  0  0  0  0  0
   24.6894  -21.6180  -10.0432 C   0  0  0  0  0  0  0  0  0  0  0  0
   24.0361  -20.8678  -11.1413 C   0  0  0  0  0  0  0  0  0  0  0  0
   23.7508  -19.6268  -10.9798 O   0  0  0  0  0  0  0  0  0  0  0  0
   25.3847  -22.9358  -19.0405 N   0  0  0  0  0  0  0  0  0  0  0  0
   26.4654  -22.7306  -18.1531 C   0  0  0  0  0  0  0  0  0  0  0  0
   27.6919  -22.9854  -18.5360 N   0  0  0  0  0  0  0  0  0  0  0  0
   26.1584  -22.2461  -16.8525 N   0  0  0  0  0  0  0  0  0  0  0  0
   24.7991  -21.9333  -16.5268 C   0  0  0  0  0  0  0  0  0  0  0  0
   24.7431  -21.3732  -15.1045 C   0  0  0  0  0  0  0  0  0  0  0  0
   23.3043  -21.1521  -14.7900 C   0  0  0  0  0  0  0  0  0  0  0  0
   23.0255  -20.5861  -13.4307 C   0  0  2  0  0  0  0  0  0  0  0  0
   23.6849  -21.4080  -12.4006 N   0  0  0  0  0  0  0  0  0  0  0  0
   21.5846  -20.4414  -13.1188 C   0  0  0  0  0  0  0  0  0  0  0  0
   20.9247  -19.4641  -13.6128 O   0  0  0  0  0  0  0  0  0  0  0  0
   20.8595  -21.2981  -12.3126 O   0  0  0  0  0  0  0  0  0  0  0  0
  2  1  1  6
  3  2  1  0
  4  3  1  0
  5  4  2  0
  6  5  1  0
  7  6  2  0
  7  8  1  0
  8  9  2  0
  9  4  1  0
 10  2  1  0
 10 12  1  0
 11 10  2  0
 13 12  1  0
 14 13  1  0
 15 14  2  0
 16 17  1  0
 17 19  1  0
 17 18  2  0
 19 20  1  0
 20 21  1  0
 21 22  1  0
 23 22  1  6
 23 25  1  0
 23 24  1  0
 24 14  1  0
 25 27  1  0
 26 25  2  0
M  END
$$$$
