FGR.pdb
     RDKit          3D

 27 27  0  0  1  0  0  0  0  0999 V2000
   24.4092  -19.9336  -15.6694 N   0  0  0  0  0  0  0  0  0  0  0  0
   23.5932  -18.9553  -14.9762 C   0  0  1  0  0  0  0  0  0  0  0  0
   23.3573  -17.7290  -15.8289 C   0  0  0  0  0  0  0  0  0  0  0  0
   24.6240  -17.0084  -16.1532 C   0  0  0  0  0  0  0  0  0  0  0  0
   25.2035  -16.1788  -15.2229 C   0  0  0  0  0  0  0  0  0  0  0  0
   26.3724  -15.5045  -15.4993 C   0  0  0  0  0  0  0  0  0  0  0  0
   27.0188  -15.6307  -16.7273 C   0  0  0  0  0  0  0  0  0  0  0  0
   26.4045  -16.4710  -17.6291 C   0  0  0  0  0  0  0  0  0  0  0  0
   25.2392  -17.1514  -17.3712 C   0  0  0  0  0  0  0  0  0  0  0  0
   22.2646  -19.5780  -14.7407 C   0  0  0  0  0  0  0  0  0  0  0  0
   21.9264  -20.4984  -15.5476 O   0  0  0  0  0  0  0  0  0  0  0  0
   21.3843  -19.2096  -13.6956 N   0  0  0  0  0  0  0  0  0  0  0  0
   20.1169  -19.7994  -13.4495 C   0  0  0  0  0  0  0  0  0  0  0  0
   20.1451  -21.1879  -12.9329 C   0  0  0  0  0  0  0  0  0  0  0  0
   20.8840  -22.0646  -13.5099 O   0  0  0  0  0  0  0  0  0  0  0  0
   17.5452  -24.7773   -5.4077 N   0  0  0  0  0  0  0  0  0  0  0  0
   18.0072  -25.9364   -6.0714 C   0  0  0  0  0  0  0  0  0  0  0  0
   17.9926  -27.0962   -5.4626 N   0  0  0  0  0  0  0  0  0  0  0  0
   18.4794  -25.7809   -7.4032 N   0  0  0  0  0  0  0  0  0  0  0  0
   18.5671  -24.4658   -7.9637 C   0  0  0  0  0  0  0  0  0  0  0  0
   19.0275  -24.5732   -9.4184 C   0  0  0  0  0  0  0  0  0  0  0  0
   19.0510  -23.1866   -9.9614 C   0  0  0  0  0  0  0  0  0  0  0  0
   19.4828  -23.0660  -11.3914 C   0  0  2  0  0  0  0  0  0  0  0  0
   19.4090  -21.6581  -11.8202 N   0  0  0  0  0  0  0  0  0  0  0  0
   18.7202  -23.9227  -12.3288 C   0  0  0  0  0  0  0  0  0  0  0  0
   17.5988  -23.5162  -12.7888 O   0  0  0  0  0  0  0  0  0  0  0  0
   19.1244  -25.1685  -12.7695 O   0  0  0  0  0  0  0  0  0  0  0  0
  2  1  1  6
  3  2  1  0
  4  3  1  0
  5  4  2  0
  6  5  1  0
  7  6  2  0
  7  8  1  0
  8  9  2  0
  9  4  1  0
 10  2  1  0
 10 12  1  0
 11 10  2  0
 13 12  1  0
 14 13  1  0
 15 14  2  0
 16 17  1  0
 17 19  1  0
 17 18  2  0
 19 20  1  0
 20 21  1  0
 21 22  1  0
 23 22  1  1
 23 25  1  0
 23 24  1  0
 24 14  1  0
 25 27  1  0
 26 25  2  0
M  END
$$$$
