FGR.pdb
     RDKit          3D

 27 27  0  0  1  0  0  0  0  0999 V2000
   21.0752  -19.6777  -13.3024 N   0  0  0  0  0  0  0  0  0  0  0  0
   20.6165  -20.7248  -14.1948 C   0  0  1  0  0  0  0  0  0  0  0  0
   21.6304  -21.0090  -15.2801 C   0  0  0  0  0  0  0  0  0  0  0  0
   21.8939  -19.8172  -16.1398 C   0  0  0  0  0  0  0  0  0  0  0  0
   20.9623  -19.4163  -17.0678 C   0  0  0  0  0  0  0  0  0  0  0  0
   21.1831  -18.3193  -17.8712 C   0  0  0  0  0  0  0  0  0  0  0  0
   22.3537  -17.5688  -17.7818 C   0  0  0  0  0  0  0  0  0  0  0  0
   23.2589  -18.0050  -16.8400 C   0  0  0  0  0  0  0  0  0  0  0  0
   23.0561  -19.0963  -16.0303 C   0  0  0  0  0  0  0  0  0  0  0  0
   20.4898  -21.9663  -13.3881 C   0  0  0  0  0  0  0  0  0  0  0  0
   20.7663  -23.0527  -13.9847 O   0  0  0  0  0  0  0  0  0  0  0  0
   20.0893  -21.9992  -12.0311 N   0  0  0  0  0  0  0  0  0  0  0  0
   19.9681  -23.1741  -11.2438 C   0  0  0  0  0  0  0  0  0  0  0  0
   19.5701  -22.9619   -9.8324 C   0  0  0  0  0  0  0  0  0  0  0  0
   19.3956  -21.7679   -9.3950 O   0  0  0  0  0  0  0  0  0  0  0  0
   12.8860  -21.6169   -8.9719 N   0  0  0  0  0  0  0  0  0  0  0  0
   12.9034  -23.0259   -9.0813 C   0  0  0  0  0  0  0  0  0  0  0  0
   11.8122  -23.6772   -9.3991 N   0  0  0  0  0  0  0  0  0  0  0  0
   14.1384  -23.6843   -8.8324 N   0  0  0  0  0  0  0  0  0  0  0  0
   15.2052  -22.9564   -8.2131 C   0  0  0  0  0  0  0  0  0  0  0  0
   16.4338  -23.8618   -8.1113 C   0  0  0  0  0  0  0  0  0  0  0  0
   17.5415  -23.0191   -7.5816 C   0  0  0  0  0  0  0  0  0  0  0  0
   18.8817  -23.6870   -7.5210 C   0  0  2  0  0  0  0  0  0  0  0  0
   19.3534  -23.9889   -8.8840 N   0  0  0  0  0  0  0  0  0  0  0  0
   18.9103  -24.9134   -6.6907 C   0  0  0  0  0  0  0  0  0  0  0  0
   18.9825  -26.0585   -7.2546 O   0  0  0  0  0  0  0  0  0  0  0  0
   18.8649  -24.9354   -5.3097 O   0  0  0  0  0  0  0  0  0  0  0  0
  2  1  1  1
  3  2  1  0
  4  3  1  0
  5  4  2  0
  6  5  1  0
  7  6  2  0
  7  8  1  0
  8  9  2  0
  9  4  1  0
 10  2  1  0
 10 12  1  0
 11 10  2  0
 13 12  1  0
 14 13  1  0
 15 14  2  0
 16 17  1  0
 17 19  1  0
 17 18  2  0
 19 20  1  0
 20 21  1  0
 21 22  1  0
 23 22  1  6
 23 25  1  0
 23 24  1  0
 24 14  1  0
 25 27  1  0
 26 25  2  0
M  END
$$$$
