FGR.pdb
     RDKit          3D

 27 27  0  0  1  0  0  0  0  0999 V2000
   27.2437  -20.7347  -14.6012 N   0  0  0  0  0  0  0  0  0  0  0  0
   26.3712  -19.7363  -14.0137 C   0  0  1  0  0  0  0  0  0  0  0  0
   25.6380  -18.9493  -15.0767 C   0  0  0  0  0  0  0  0  0  0  0  0
   26.5554  -18.0949  -15.8874 C   0  0  0  0  0  0  0  0  0  0  0  0
   27.0797  -18.5702  -17.0658 C   0  0  0  0  0  0  0  0  0  0  0  0
   27.9273  -17.7996  -17.8308 C   0  0  0  0  0  0  0  0  0  0  0  0
   28.2911  -16.5099  -17.4488 C   0  0  0  0  0  0  0  0  0  0  0  0
   27.7436  -16.0738  -16.2628 C   0  0  0  0  0  0  0  0  0  0  0  0
   26.8969  -16.8278  -15.4869 C   0  0  0  0  0  0  0  0  0  0  0  0
   25.3400  -20.4612  -13.2267 C   0  0  0  0  0  0  0  0  0  0  0  0
   25.3175  -21.7237  -13.3614 O   0  0  0  0  0  0  0  0  0  0  0  0
   24.4107  -19.8363  -12.3614 N   0  0  0  0  0  0  0  0  0  0  0  0
   23.3939  -20.5075  -11.6331 C   0  0  0  0  0  0  0  0  0  0  0  0
   22.0893  -20.6366  -12.3235 C   0  0  0  0  0  0  0  0  0  0  0  0
   21.6943  -19.7047  -13.1128 O   0  0  0  0  0  0  0  0  0  0  0  0
   23.6882  -25.3708  -15.1316 N   0  0  0  0  0  0  0  0  0  0  0  0
   22.6521  -25.1713  -16.0718 C   0  0  0  0  0  0  0  0  0  0  0  0
   22.4730  -26.0255  -17.0486 N   0  0  0  0  0  0  0  0  0  0  0  0
   21.8343  -24.0203  -15.9068 N   0  0  0  0  0  0  0  0  0  0  0  0
   21.4079  -23.6498  -14.5906 C   0  0  0  0  0  0  0  0  0  0  0  0
   19.8791  -23.6196  -14.5515 C   0  0  0  0  0  0  0  0  0  0  0  0
   19.4968  -23.1499  -13.1910 C   0  0  0  0  0  0  0  0  0  0  0  0
   19.8920  -21.7416  -12.8650 C   0  0  2  0  0  0  0  0  0  0  0  0
   21.2035  -21.7317  -12.1931 N   0  0  0  0  0  0  0  0  0  0  0  0
   18.8979  -21.0071  -12.0485 C   0  0  0  0  0  0  0  0  0  0  0  0
   19.0744  -20.8926  -10.7874 O   0  0  0  0  0  0  0  0  0  0  0  0
   17.7535  -20.4106  -12.5427 O   0  0  0  0  0  0  0  0  0  0  0  0
  2  1  1  6
  3  2  1  0
  4  3  1  0
  5  4  2  0
  6  5  1  0
  7  6  2  0
  7  8  1  0
  8  9  2  0
  9  4  1  0
 10  2  1  0
 10 12  1  0
 11 10  2  0
 13 12  1  0
 14 13  1  0
 15 14  2  0
 16 17  1  0
 17 19  1  0
 17 18  2  0
 19 20  1  0
 20 21  1  0
 21 22  1  0
 23 22  1  1
 23 25  1  0
 23 24  1  0
 24 14  1  0
 25 27  1  0
 26 25  2  0
M  END
$$$$
