FGR.pdb
     RDKit          3D

 27 27  0  0  1  0  0  0  0  0999 V2000
   24.9992  -17.3374  -17.1339 N   0  0  0  0  0  0  0  0  0  0  0  0
   25.6818  -18.3570  -16.3607 C   0  0  1  0  0  0  0  0  0  0  0  0
   27.0312  -17.8737  -15.8786 C   0  0  0  0  0  0  0  0  0  0  0  0
   28.0116  -17.7165  -16.9936 C   0  0  0  0  0  0  0  0  0  0  0  0
   28.3928  -18.8086  -17.7362 C   0  0  0  0  0  0  0  0  0  0  0  0
   29.2951  -18.6876  -18.7701 C   0  0  0  0  0  0  0  0  0  0  0  0
   29.8603  -17.4602  -19.1100 C   0  0  0  0  0  0  0  0  0  0  0  0
   29.4509  -16.3935  -18.3410 C   0  0  0  0  0  0  0  0  0  0  0  0
   28.5526  -16.4951  -17.3064 C   0  0  0  0  0  0  0  0  0  0  0  0
   24.8595  -18.6156  -15.1503 C   0  0  0  0  0  0  0  0  0  0  0  0
   24.2446  -17.6153  -14.6665 O   0  0  0  0  0  0  0  0  0  0  0  0
   24.7302  -19.8802  -14.5282 N   0  0  0  0  0  0  0  0  0  0  0  0
   23.9175  -20.1546  -13.3973 C   0  0  0  0  0  0  0  0  0  0  0  0
   22.5557  -20.6579  -13.6931 C   0  0  0  0  0  0  0  0  0  0  0  0
   22.1746  -20.7775  -14.9129 O   0  0  0  0  0  0  0  0  0  0  0  0
   18.2839  -26.7467  -12.3464 N   0  0  0  0  0  0  0  0  0  0  0  0
   19.4472  -26.3916  -11.6266 C   0  0  0  0  0  0  0  0  0  0  0  0
   20.4470  -27.2325  -11.5308 N   0  0  0  0  0  0  0  0  0  0  0  0
   19.4740  -25.1042  -11.0244 N   0  0  0  0  0  0  0  0  0  0  0  0
   18.3341  -24.2472  -11.1576 C   0  0  0  0  0  0  0  0  0  0  0  0
   18.5668  -23.2851  -12.3237 C   0  0  0  0  0  0  0  0  0  0  0  0
   19.8233  -22.5450  -12.0212 C   0  0  0  0  0  0  0  0  0  0  0  0
   20.3102  -21.6378  -13.1102 C   0  0  2  0  0  0  0  0  0  0  0  0
   21.5984  -21.0362  -12.7228 N   0  0  0  0  0  0  0  0  0  0  0  0
   19.3485  -20.5771  -13.4900 C   0  0  0  0  0  0  0  0  0  0  0  0
   19.2812  -19.5051  -12.7965 O   0  0  0  0  0  0  0  0  0  0  0  0
   18.4843  -20.6409  -14.5665 O   0  0  0  0  0  0  0  0  0  0  0  0
  2  1  1  6
  3  2  1  0
  4  3  1  0
  5  4  2  0
  6  5  1  0
  7  6  2  0
  7  8  1  0
  8  9  2  0
  9  4  1  0
 10  2  1  0
 10 12  1  0
 11 10  2  0
 13 12  1  0
 14 13  1  0
 15 14  2  0
 16 17  1  0
 17 19  1  0
 17 18  2  0
 19 20  1  0
 20 21  1  0
 21 22  1  0
 23 22  1  1
 23 25  1  0
 23 24  1  0
 24 14  1  0
 25 27  1  0
 26 25  2  0
M  END
$$$$
