FGR.pdb
     RDKit          3D

 27 27  0  0  1  0  0  0  0  0999 V2000
   21.6343  -22.4859  -16.9679 N   0  0  0  0  0  0  0  0  0  0  0  0
   20.4993  -21.6992  -16.5251 C   0  0  1  0  0  0  0  0  0  0  0  0
   19.2092  -22.1986  -17.1358 C   0  0  0  0  0  0  0  0  0  0  0  0
   19.1344  -21.9354  -18.6035 C   0  0  0  0  0  0  0  0  0  0  0  0
   18.5193  -20.7980  -19.0700 C   0  0  0  0  0  0  0  0  0  0  0  0
   18.4391  -20.5336  -20.4195 C   0  0  0  0  0  0  0  0  0  0  0  0
   18.9745  -21.4010  -21.3696 C   0  0  0  0  0  0  0  0  0  0  0  0
   19.5811  -22.5271  -20.8591 C   0  0  0  0  0  0  0  0  0  0  0  0
   19.6705  -22.8073  -19.5171 C   0  0  0  0  0  0  0  0  0  0  0  0
   20.3807  -21.8862  -15.0556 C   0  0  0  0  0  0  0  0  0  0  0  0
   21.3587  -22.4592  -14.4831 O   0  0  0  0  0  0  0  0  0  0  0  0
   19.2683  -21.4714  -14.2853 N   0  0  0  0  0  0  0  0  0  0  0  0
   19.1401  -21.6364  -12.8813 C   0  0  0  0  0  0  0  0  0  0  0  0
   18.6107  -22.9465  -12.4353 C   0  0  0  0  0  0  0  0  0  0  0  0
   18.2945  -23.8333  -13.3077 O   0  0  0  0  0  0  0  0  0  0  0  0
   19.1920  -27.8247   -5.5792 N   0  0  0  0  0  0  0  0  0  0  0  0
   18.1842  -28.5321   -6.2729 C   0  0  0  0  0  0  0  0  0  0  0  0
   17.9482  -29.7899   -5.9930 N   0  0  0  0  0  0  0  0  0  0  0  0
   17.4578  -27.8239   -7.2687 N   0  0  0  0  0  0  0  0  0  0  0  0
   17.8977  -26.5174   -7.6571 C   0  0  0  0  0  0  0  0  0  0  0  0
   17.0117  -26.0108   -8.7964 C   0  0  0  0  0  0  0  0  0  0  0  0
   17.6141  -24.7335   -9.2689 C   0  0  0  0  0  0  0  0  0  0  0  0
   17.9062  -24.6677  -10.7374 C   0  0  2  0  0  0  0  0  0  0  0  0
   18.4146  -23.3298  -11.0879 N   0  0  0  0  0  0  0  0  0  0  0  0
   16.7534  -25.0148  -11.6004 C   0  0  0  0  0  0  0  0  0  0  0  0
   16.7077  -26.1606  -12.1657 O   0  0  0  0  0  0  0  0  0  0  0  0
   15.6811  -24.1829  -11.8609 O   0  0  0  0  0  0  0  0  0  0  0  0
  2  1  1  6
  3  2  1  0
  4  3  1  0
  5  4  2  0
  6  5  1  0
  7  6  2  0
  7  8  1  0
  8  9  2  0
  9  4  1  0
 10  2  1  0
 10 12  1  0
 11 10  2  0
 13 12  1  0
 14 13  1  0
 15 14  2  0
 16 17  1  0
 17 19  1  0
 17 18  2  0
 19 20  1  0
 20 21  1  0
 21 22  1  0
 23 22  1  1
 23 25  1  0
 23 24  1  0
 24 14  1  0
 25 27  1  0
 26 25  2  0
M  END
$$$$
