FGR.pdb
     RDKit          3D

 27 27  0  0  1  0  0  0  0  0999 V2000
   23.9354  -14.8297  -20.5705 N   0  0  0  0  0  0  0  0  0  0  0  0
   24.4164  -15.7054  -19.5193 C   0  0  1  0  0  0  0  0  0  0  0  0
   25.7432  -15.2318  -18.9698 C   0  0  0  0  0  0  0  0  0  0  0  0
   26.8418  -15.3224  -19.9767 C   0  0  0  0  0  0  0  0  0  0  0  0
   27.3441  -14.1807  -20.5545 C   0  0  0  0  0  0  0  0  0  0  0  0
   28.3581  -14.2397  -21.4850 C   0  0  0  0  0  0  0  0  0  0  0  0
   28.9192  -15.4517  -21.8820 C   0  0  0  0  0  0  0  0  0  0  0  0
   28.3868  -16.5694  -21.2788 C   0  0  0  0  0  0  0  0  0  0  0  0
   27.3758  -16.5300  -20.3493 C   0  0  0  0  0  0  0  0  0  0  0  0
   23.4376  -15.6324  -18.4035 C   0  0  0  0  0  0  0  0  0  0  0  0
   23.0114  -14.4735  -18.1071 O   0  0  0  0  0  0  0  0  0  0  0  0
   22.9704  -16.7534  -17.6769 N   0  0  0  0  0  0  0  0  0  0  0  0
   21.9875  -16.7114  -16.6536 C   0  0  0  0  0  0  0  0  0  0  0  0
   21.5994  -18.0225  -16.0829 C   0  0  0  0  0  0  0  0  0  0  0  0
   20.8832  -18.8299  -16.7776 O   0  0  0  0  0  0  0  0  0  0  0  0
   26.7033  -20.9677  -10.6912 N   0  0  0  0  0  0  0  0  0  0  0  0
   25.4118  -20.6925  -10.1875 C   0  0  0  0  0  0  0  0  0  0  0  0
   25.2117  -20.6031   -8.8960 N   0  0  0  0  0  0  0  0  0  0  0  0
   24.3649  -20.5233  -11.1342 N   0  0  0  0  0  0  0  0  0  0  0  0
   24.6863  -20.4730  -12.5290 C   0  0  0  0  0  0  0  0  0  0  0  0
   23.5299  -21.0745  -13.3294 C   0  0  0  0  0  0  0  0  0  0  0  0
   22.3514  -20.1923  -13.1040 C   0  0  0  0  0  0  0  0  0  0  0  0
   21.5742  -19.8349  -14.3345 C   0  0  2  0  0  0  0  0  0  0  0  0
   21.9583  -18.4894  -14.7967 N   0  0  0  0  0  0  0  0  0  0  0  0
   20.1045  -19.9135  -14.1667 C   0  0  0  0  0  0  0  0  0  0  0  0
   19.4701  -18.9225  -13.6668 O   0  0  0  0  0  0  0  0  0  0  0  0
   19.3254  -21.0006  -14.5144 O   0  0  0  0  0  0  0  0  0  0  0  0
  2  1  1  6
  3  2  1  0
  4  3  1  0
  5  4  2  0
  6  5  1  0
  7  6  2  0
  7  8  1  0
  8  9  2  0
  9  4  1  0
 10  2  1  0
 10 12  1  0
 11 10  2  0
 13 12  1  0
 14 13  1  0
 15 14  2  0
 16 17  1  0
 17 19  1  0
 17 18  2  0
 19 20  1  0
 20 21  1  0
 21 22  1  0
 23 22  1  1
 23 25  1  0
 23 24  1  0
 24 14  1  0
 25 27  1  0
 26 25  2  0
M  END
$$$$
