FGR.pdb
     RDKit          3D

 27 27  0  0  1  0  0  0  0  0999 V2000
   25.3335  -20.6188   -7.4480 N   0  0  0  0  0  0  0  0  0  0  0  0
   26.3883  -20.1798   -8.3414 C   0  0  1  0  0  0  0  0  0  0  0  0
   27.7413  -20.6776   -7.8852 C   0  0  0  0  0  0  0  0  0  0  0  0
   28.1568  -20.0831   -6.5803 C   0  0  0  0  0  0  0  0  0  0  0  0
   28.8259  -20.8486   -5.6551 C   0  0  0  0  0  0  0  0  0  0  0  0
   29.2199  -20.3214   -4.4450 C   0  0  0  0  0  0  0  0  0  0  0  0
   28.9607  -18.9956   -4.1036 C   0  0  0  0  0  0  0  0  0  0  0  0
   28.2890  -18.2652   -5.0586 C   0  0  0  0  0  0  0  0  0  0  0  0
   27.8882  -18.7738   -6.2704 C   0  0  0  0  0  0  0  0  0  0  0  0
   26.1270  -20.7972   -9.6676 C   0  0  0  0  0  0  0  0  0  0  0  0
   25.4319  -21.8599   -9.6637 O   0  0  0  0  0  0  0  0  0  0  0  0
   26.5985  -20.2777  -10.8967 N   0  0  0  0  0  0  0  0  0  0  0  0
   26.1644  -20.6982  -12.1811 C   0  0  0  0  0  0  0  0  0  0  0  0
   24.7581  -20.3771  -12.5197 C   0  0  0  0  0  0  0  0  0  0  0  0
   24.2115  -19.3249  -12.0282 O   0  0  0  0  0  0  0  0  0  0  0  0
   22.0226  -16.7787  -18.0253 N   0  0  0  0  0  0  0  0  0  0  0  0
   21.7151  -16.0706  -16.8414 C   0  0  0  0  0  0  0  0  0  0  0  0
   20.9551  -15.0046  -16.8879 N   0  0  0  0  0  0  0  0  0  0  0  0
   22.2628  -16.5634  -15.6257 N   0  0  0  0  0  0  0  0  0  0  0  0
   22.8715  -17.8598  -15.6091 C   0  0  0  0  0  0  0  0  0  0  0  0
   21.8031  -18.9086  -15.2958 C   0  0  0  0  0  0  0  0  0  0  0  0
   22.5174  -20.2021  -15.1100 C   0  0  0  0  0  0  0  0  0  0  0  0
   22.5601  -20.7137  -13.7019 C   0  0  2  0  0  0  0  0  0  0  0  0
   23.9281  -21.1474  -13.3676 N   0  0  0  0  0  0  0  0  0  0  0  0
   21.5993  -21.8066  -13.4252 C   0  0  0  0  0  0  0  0  0  0  0  0
   20.5189  -21.5543  -12.7898 O   0  0  0  0  0  0  0  0  0  0  0  0
   21.7687  -23.1244  -13.8053 O   0  0  0  0  0  0  0  0  0  0  0  0
  2  1  1  1
  3  2  1  0
  4  3  1  0
  5  4  2  0
  6  5  1  0
  7  6  2  0
  7  8  1  0
  8  9  2  0
  9  4  1  0
 10  2  1  0
 10 12  1  0
 11 10  2  0
 13 12  1  0
 14 13  1  0
 15 14  2  0
 16 17  1  0
 17 19  1  0
 17 18  2  0
 19 20  1  0
 20 21  1  0
 21 22  1  0
 23 22  1  6
 23 25  1  0
 23 24  1  0
 24 14  1  0
 25 27  1  0
 26 25  2  0
M  END
$$$$
