FGR.pdb
     RDKit          3D

 27 27  0  0  1  0  0  0  0  0999 V2000
   30.2614  -22.4576   -8.4863 N   0  0  0  0  0  0  0  0  0  0  0  0
   29.1014  -21.5871   -8.4828 C   0  0  1  0  0  0  0  0  0  0  0  0
   29.4279  -20.2342   -7.8912 C   0  0  0  0  0  0  0  0  0  0  0  0
   29.1988  -20.1870   -6.4166 C   0  0  0  0  0  0  0  0  0  0  0  0
   30.2463  -20.3859   -5.5489 C   0  0  0  0  0  0  0  0  0  0  0  0
   30.0591  -20.3459   -4.1848 C   0  0  0  0  0  0  0  0  0  0  0  0
   28.8070  -20.1033   -3.6234 C   0  0  0  0  0  0  0  0  0  0  0  0
   27.7868  -19.9097   -4.5281 C   0  0  0  0  0  0  0  0  0  0  0  0
   27.9546  -19.9460   -5.8912 C   0  0  0  0  0  0  0  0  0  0  0  0
   28.7200  -21.3564   -9.9003 C   0  0  0  0  0  0  0  0  0  0  0  0
   29.6502  -21.4737  -10.7569 O   0  0  0  0  0  0  0  0  0  0  0  0
   27.4139  -21.0232  -10.3315 N   0  0  0  0  0  0  0  0  0  0  0  0
   26.8843  -21.2977  -11.6195 C   0  0  0  0  0  0  0  0  0  0  0  0
   25.5056  -20.8125  -11.8628 C   0  0  0  0  0  0  0  0  0  0  0  0
   24.7906  -20.4114  -10.8751 O   0  0  0  0  0  0  0  0  0  0  0  0
   18.9434  -17.5000  -15.7465 N   0  0  0  0  0  0  0  0  0  0  0  0
   20.0142  -16.6106  -15.9914 C   0  0  0  0  0  0  0  0  0  0  0  0
   19.7782  -15.3930  -16.4130 N   0  0  0  0  0  0  0  0  0  0  0  0
   21.3306  -17.0961  -15.7632 N   0  0  0  0  0  0  0  0  0  0  0  0
   21.5081  -18.4355  -15.2878 C   0  0  0  0  0  0  0  0  0  0  0  0
   23.0037  -18.7147  -15.1298 C   0  0  0  0  0  0  0  0  0  0  0  0
   23.1293  -20.1375  -14.7081 C   0  0  0  0  0  0  0  0  0  0  0  0
   23.4640  -20.3500  -13.2629 C   0  0  2  0  0  0  0  0  0  0  0  0
   24.8776  -20.7439  -13.1285 N   0  0  0  0  0  0  0  0  0  0  0  0
   22.5952  -21.3354  -12.5785 C   0  0  0  0  0  0  0  0  0  0  0  0
   22.9185  -22.5723  -12.5782 O   0  0  0  0  0  0  0  0  0  0  0  0
   21.4227  -21.0298  -11.9140 O   0  0  0  0  0  0  0  0  0  0  0  0
  2  1  1  6
  3  2  1  0
  4  3  1  0
  5  4  2  0
  6  5  1  0
  7  6  2  0
  7  8  1  0
  8  9  2  0
  9  4  1  0
 10  2  1  0
 10 12  1  0
 11 10  2  0
 13 12  1  0
 14 13  1  0
 15 14  2  0
 16 17  1  0
 17 19  1  0
 17 18  2  0
 19 20  1  0
 20 21  1  0
 21 22  1  0
 23 22  1  6
 23 25  1  0
 23 24  1  0
 24 14  1  0
 25 27  1  0
 26 25  2  0
M  END
$$$$
