FGR.pdb
     RDKit          3D

 27 27  0  0  1  0  0  0  0  0999 V2000
   29.3365  -21.0350   -8.9917 N   0  0  0  0  0  0  0  0  0  0  0  0
   27.9233  -20.7757   -8.7947 C   0  0  1  0  0  0  0  0  0  0  0  0
   27.6996  -19.5049   -8.0062 C   0  0  0  0  0  0  0  0  0  0  0  0
   28.2200  -19.6017   -6.6102 C   0  0  0  0  0  0  0  0  0  0  0  0
   27.3557  -19.8304   -5.5660 C   0  0  0  0  0  0  0  0  0  0  0  0
   27.8130  -19.9245   -4.2700 C   0  0  0  0  0  0  0  0  0  0  0  0
   29.1647  -19.7932   -3.9581 C   0  0  0  0  0  0  0  0  0  0  0  0
   29.9946  -19.5651   -5.0333 C   0  0  0  0  0  0  0  0  0  0  0  0
   29.5568  -19.4683   -6.3319 C   0  0  0  0  0  0  0  0  0  0  0  0
   27.3240  -20.5604  -10.1374 C   0  0  0  0  0  0  0  0  0  0  0  0
   28.0179  -19.8849  -10.9588 O   0  0  0  0  0  0  0  0  0  0  0  0
   26.0589  -21.0544  -10.5355 N   0  0  0  0  0  0  0  0  0  0  0  0
   25.3760  -20.6868  -11.7243 C   0  0  0  0  0  0  0  0  0  0  0  0
   24.0239  -21.2688  -11.8933 C   0  0  0  0  0  0  0  0  0  0  0  0
   23.4864  -21.9166  -10.9243 O   0  0  0  0  0  0  0  0  0  0  0  0
   20.0303  -23.1719   -8.1278 N   0  0  0  0  0  0  0  0  0  0  0  0
   19.3258  -23.5037   -9.3072 C   0  0  0  0  0  0  0  0  0  0  0  0
   18.8825  -24.7226   -9.4910 N   0  0  0  0  0  0  0  0  0  0  0  0
   19.1296  -22.4695  -10.2625 N   0  0  0  0  0  0  0  0  0  0  0  0
   20.2157  -22.0930  -11.1170 C   0  0  0  0  0  0  0  0  0  0  0  0
   20.5788  -20.6317  -10.8479 C   0  0  0  0  0  0  0  0  0  0  0  0
   21.2760  -20.1346  -12.0663 C   0  0  0  0  0  0  0  0  0  0  0  0
   21.7645  -21.1973  -13.0033 C   0  0  2  0  0  0  0  0  0  0  0  0
   23.2366  -21.1735  -13.0646 N   0  0  0  0  0  0  0  0  0  0  0  0
   21.1980  -21.1076  -14.3690 C   0  0  0  0  0  0  0  0  0  0  0  0
   21.7389  -20.3318  -15.2294 O   0  0  0  0  0  0  0  0  0  0  0  0
   20.0970  -21.8124  -14.8170 O   0  0  0  0  0  0  0  0  0  0  0  0
  2  1  1  6
  3  2  1  0
  4  3  1  0
  5  4  2  0
  6  5  1  0
  7  6  2  0
  7  8  1  0
  8  9  2  0
  9  4  1  0
 10  2  1  0
 10 12  1  0
 11 10  2  0
 13 12  1  0
 14 13  1  0
 15 14  2  0
 16 17  1  0
 17 19  1  0
 17 18  2  0
 19 20  1  0
 20 21  1  0
 21 22  1  0
 23 22  1  1
 23 25  1  0
 23 24  1  0
 24 14  1  0
 25 27  1  0
 26 25  2  0
M  END
$$$$
