SID.pdb
     RDKit          3D

 23 22  0  0  1  0  0  0  0  0999 V2000
   16.4610  -12.4579  -17.2707 O   0  0  0  0  0  0  0  0  0  0  0  0
   17.1760  -11.6608  -16.3579 C   0  0  0  0  0  0  0  0  0  0  0  0
   17.9755  -10.6420  -17.1775 C   0  0  2  0  0  0  0  0  0  0  0  0
   18.8028  -11.4196  -18.0806 N   0  0  0  0  0  0  0  0  0  0  0  0
   18.8088   -9.8943  -16.1988 C   0  0  0  0  0  0  0  0  0  0  0  0
   18.2286   -9.4831  -15.1563 O   0  0  0  0  0  0  0  0  0  0  0  0
   23.5878  -11.8678  -14.9932 C   0  0  0  0  0  0  0  0  0  0  0  0
   22.2032  -11.2049  -14.8784 C   0  0  0  0  0  0  0  0  0  0  0  0
   22.3142   -9.7530  -15.2092 C   0  0  2  0  0  0  0  0  0  0  0  0
   23.2379   -9.1489  -14.1555 C   0  0  0  0  0  0  0  0  0  0  0  0
   21.0336   -9.0147  -15.3643 C   0  0  2  0  0  0  0  0  0  0  0  0
   20.1899   -9.6279  -16.3766 N   0  0  0  0  0  0  0  0  0  0  0  0
   21.1409   -7.5616  -15.5382 C   0  0  0  0  0  0  0  0  0  0  0  0
   21.4676   -7.0928  -16.6545 O   0  0  0  0  0  0  0  0  0  0  0  0
   20.8931   -6.6102  -14.4983 N   0  0  0  0  0  0  0  0  0  0  0  0
   21.0034   -5.1876  -14.7016 C   0  0  1  0  0  0  0  0  0  0  0  0
   19.6997   -4.4659  -14.4433 C   0  0  0  0  0  0  0  0  0  0  0  0
   19.8312   -3.0011  -14.6348 C   0  0  0  0  0  0  0  0  0  0  0  0
   19.9160   -2.2506  -13.6325 O   0  0  0  0  0  0  0  0  0  0  0  0
   21.9963   -4.6350  -13.7657 C   0  0  0  0  0  0  0  0  0  0  0  0
   22.5165   -3.5293  -13.9794 O   0  0  0  0  0  0  0  0  0  0  0  0
   19.8657   -2.4084  -15.8847 O   0  0  0  0  0  0  0  0  0  0  0  0
   22.3434   -5.3562  -12.6501 O   0  0  0  0  0  0  0  0  0  0  0  0
  2  1  1  0
  3  2  1  0
  3  4  1  6
  5  3  1  0
  5  6  2  0
  7  8  1  0
  8  9  1  0
  9 11  1  0
  9 10  1  1
 11 12  1  6
 11 13  1  0
 12  5  1  0
 13 15  1  0
 14 13  2  0
 15 16  1  0
 16 20  1  0
 17 18  1  0
 16 17  1  1
 18 22  1  0
 19 18  2  0
 20 21  2  0
 20 23  1  0
M  END
$$$$
