SID.pdb
     RDKit          3D

 23 22  0  0  1  0  0  0  0  0999 V2000
   26.5781   -9.9075  -19.6871 O   0  0  0  0  0  0  0  0  0  0  0  0
   25.2856   -9.4858  -19.3247 C   0  0  0  0  0  0  0  0  0  0  0  0
   24.4478  -10.7476  -19.0902 C   0  0  2  0  0  0  0  0  0  0  0  0
   24.2568  -11.3465  -20.3976 N   0  0  0  0  0  0  0  0  0  0  0  0
   23.1556  -10.2800  -18.5222 C   0  0  0  0  0  0  0  0  0  0  0  0
   22.3831   -9.6597  -19.3039 O   0  0  0  0  0  0  0  0  0  0  0  0
   19.7079  -13.3984  -16.3358 C   0  0  0  0  0  0  0  0  0  0  0  0
   20.2827  -12.1785  -17.0782 C   0  0  0  0  0  0  0  0  0  0  0  0
   20.6876  -11.1356  -16.0892 C   0  0  2  0  0  0  0  0  0  0  0  0
   19.4016  -10.6780  -15.4072 C   0  0  0  0  0  0  0  0  0  0  0  0
   21.5075  -10.0134  -16.6162 C   0  0  2  0  0  0  0  0  0  0  0  0
   22.7596  -10.4925  -17.1775 N   0  0  0  0  0  0  0  0  0  0  0  0
   21.7053   -8.8752  -15.7113 C   0  0  0  0  0  0  0  0  0  0  0  0
   22.5532   -8.9546  -14.7907 O   0  0  0  0  0  0  0  0  0  0  0  0
   20.9816   -7.6441  -15.8031 N   0  0  0  0  0  0  0  0  0  0  0  0
   21.2183   -6.5334  -14.9156 C   0  0  1  0  0  0  0  0  0  0  0  0
   22.1948   -5.5330  -15.4924 C   0  0  0  0  0  0  0  0  0  0  0  0
   22.4136   -4.3845  -14.5799 C   0  0  0  0  0  0  0  0  0  0  0  0
   22.0044   -4.4480  -13.3952 O   0  0  0  0  0  0  0  0  0  0  0  0
   19.9540   -5.8172  -14.6799 C   0  0  0  0  0  0  0  0  0  0  0  0
   19.0339   -5.8731  -15.5101 O   0  0  0  0  0  0  0  0  0  0  0  0
   23.0575   -3.2252  -14.9747 O   0  0  0  0  0  0  0  0  0  0  0  0
   19.8007   -5.0839  -13.5292 O   0  0  0  0  0  0  0  0  0  0  0  0
  2  1  1  0
  3  2  1  0
  3  4  1  6
  5  3  1  0
  5  6  2  0
  7  8  1  0
  8  9  1  0
  9 11  1  0
  9 10  1  6
 11 12  1  1
 11 13  1  0
 12  5  1  0
 13 15  1  0
 14 13  2  0
 15 16  1  0
 16 20  1  0
 17 18  1  0
 16 17  1  6
 18 22  1  0
 19 18  2  0
 20 21  2  0
 20 23  1  0
M  END
$$$$
