SID.pdb
     RDKit          3D

 23 22  0  0  1  0  0  0  0  0999 V2000
   26.7634  -21.8941  -17.5571 O   0  0  0  0  0  0  0  0  0  0  0  0
   25.6468  -22.1113  -16.7290 C   0  0  0  0  0  0  0  0  0  0  0  0
   26.1325  -22.9139  -15.5170 C   0  0  2  0  0  0  0  0  0  0  0  0
   26.1146  -24.3050  -15.9283 N   0  0  0  0  0  0  0  0  0  0  0  0
   25.1417  -22.6626  -14.4371 C   0  0  0  0  0  0  0  0  0  0  0  0
   24.2005  -23.4959  -14.3251 O   0  0  0  0  0  0  0  0  0  0  0  0
   26.6558  -20.8475   -9.5883 C   0  0  0  0  0  0  0  0  0  0  0  0
   25.9069  -21.6379  -10.6764 C   0  0  0  0  0  0  0  0  0  0  0  0
   24.8455  -20.7777  -11.2791 C   0  0  2  0  0  0  0  0  0  0  0  0
   23.8467  -20.4932  -10.1611 C   0  0  0  0  0  0  0  0  0  0  0  0
   24.2105  -21.2909  -12.5211 C   0  0  2  0  0  0  0  0  0  0  0  0
   25.2022  -21.5590  -13.5493 N   0  0  0  0  0  0  0  0  0  0  0  0
   23.0746  -20.5170  -13.0350 C   0  0  0  0  0  0  0  0  0  0  0  0
   23.2842  -19.4708  -13.6943 O   0  0  0  0  0  0  0  0  0  0  0  0
   21.7042  -20.8770  -12.8348 N   0  0  0  0  0  0  0  0  0  0  0  0
   20.6368  -20.3690  -13.6594 C   0  0  1  0  0  0  0  0  0  0  0  0
   20.8229  -20.7140  -15.1200 C   0  0  0  0  0  0  0  0  0  0  0  0
   19.6586  -20.2983  -15.9391 C   0  0  0  0  0  0  0  0  0  0  0  0
   18.9798  -19.3021  -15.5900 O   0  0  0  0  0  0  0  0  0  0  0  0
   19.3614  -20.9676  -13.2327 C   0  0  0  0  0  0  0  0  0  0  0  0
   18.2892  -20.5826  -13.7237 O   0  0  0  0  0  0  0  0  0  0  0  0
   19.2750  -20.9644  -17.0896 O   0  0  0  0  0  0  0  0  0  0  0  0
   19.3682  -21.9593  -12.2831 O   0  0  0  0  0  0  0  0  0  0  0  0
  2  1  1  0
  3  2  1  0
  3  4  1  6
  5  3  1  0
  5  6  2  0
  7  8  1  0
  8  9  1  0
  9 11  1  0
  9 10  1  1
 11 12  1  6
 11 13  1  0
 12  5  1  0
 13 15  1  0
 14 13  2  0
 15 16  1  0
 16 20  1  0
 17 18  1  0
 16 17  1  6
 18 22  1  0
 19 18  2  0
 20 21  2  0
 20 23  1  0
M  END
$$$$
