SID.pdb
     RDKit          3D

 23 22  0  0  1  0  0  0  0  0999 V2000
   17.7104  -11.4907  -19.6510 O   0  0  0  0  0  0  0  0  0  0  0  0
   18.0931  -10.8496  -18.4583 C   0  0  0  0  0  0  0  0  0  0  0  0
   18.8763  -11.8718  -17.6272 C   0  0  2  0  0  0  0  0  0  0  0  0
   17.8945  -12.8196  -17.1347 N   0  0  0  0  0  0  0  0  0  0  0  0
   19.4883  -11.1061  -16.5091 C   0  0  0  0  0  0  0  0  0  0  0  0
   18.7982  -10.9847  -15.4595 O   0  0  0  0  0  0  0  0  0  0  0  0
   23.9636  -12.2041  -14.1943 C   0  0  0  0  0  0  0  0  0  0  0  0
   22.5468  -11.7066  -14.5332 C   0  0  0  0  0  0  0  0  0  0  0  0
   22.6108  -10.2864  -14.9903 C   0  0  2  0  0  0  0  0  0  0  0  0
   23.2159   -9.4969  -13.8331 C   0  0  0  0  0  0  0  0  0  0  0  0
   21.3434   -9.7036  -15.5033 C   0  0  2  0  0  0  0  0  0  0  0  0
   20.7782  -10.5203  -16.5645 N   0  0  0  0  0  0  0  0  0  0  0  0
   21.3828   -8.2808  -15.8602 C   0  0  0  0  0  0  0  0  0  0  0  0
   22.1256   -7.8958  -16.7944 O   0  0  0  0  0  0  0  0  0  0  0  0
   20.6139   -7.2687  -15.2026 N   0  0  0  0  0  0  0  0  0  0  0  0
   20.6412   -5.8851  -15.6052 C   0  0  1  0  0  0  0  0  0  0  0  0
   19.3442   -5.1702  -15.2990 C   0  0  0  0  0  0  0  0  0  0  0  0
   18.1956   -5.7777  -16.0140 C   0  0  0  0  0  0  0  0  0  0  0  0
   18.3102   -6.0786  -17.2270 O   0  0  0  0  0  0  0  0  0  0  0  0
   21.7060   -5.1825  -14.8706 C   0  0  0  0  0  0  0  0  0  0  0  0
   22.2201   -5.6938  -13.8641 O   0  0  0  0  0  0  0  0  0  0  0  0
   16.9818   -6.0345  -15.4014 O   0  0  0  0  0  0  0  0  0  0  0  0
   22.1273   -3.9519  -15.3103 O   0  0  0  0  0  0  0  0  0  0  0  0
  2  1  1  0
  3  2  1  0
  3  4  1  1
  5  3  1  0
  5  6  2  0
  7  8  1  0
  8  9  1  0
  9 11  1  0
  9 10  1  1
 11 12  1  6
 11 13  1  0
 12  5  1  0
 13 15  1  0
 14 13  2  0
 15 16  1  0
 16 20  1  0
 17 18  1  0
 16 17  1  1
 18 22  1  0
 19 18  2  0
 20 21  2  0
 20 23  1  0
M  END
$$$$
