SID.pdb
     RDKit          3D

 23 22  0  0  1  0  0  0  0  0999 V2000
   19.5658  -12.3716  -14.8608 O   0  0  0  0  0  0  0  0  0  0  0  0
   18.1668  -12.2490  -14.9481 C   0  0  0  0  0  0  0  0  0  0  0  0
   17.8172  -12.1108  -16.4340 C   0  0  2  0  0  0  0  0  0  0  0  0
   18.6729  -13.0512  -17.1327 N   0  0  0  0  0  0  0  0  0  0  0  0
   18.1494  -10.7093  -16.8030 C   0  0  0  0  0  0  0  0  0  0  0  0
   19.2088  -10.5325  -17.4656 O   0  0  0  0  0  0  0  0  0  0  0  0
   14.5206   -7.6462  -18.9997 C   0  0  0  0  0  0  0  0  0  0  0  0
   15.9458   -8.1609  -18.7285 C   0  0  0  0  0  0  0  0  0  0  0  0
   16.4589   -7.5680  -17.4577 C   0  0  2  0  0  0  0  0  0  0  0  0
   16.6641   -6.0820  -17.7373 C   0  0  0  0  0  0  0  0  0  0  0  0
   17.6501   -8.2258  -16.8597 C   0  0  2  0  0  0  0  0  0  0  0  0
   17.3525   -9.5896  -16.4547 N   0  0  0  0  0  0  0  0  0  0  0  0
   18.3451   -7.4745  -15.8081 C   0  0  0  0  0  0  0  0  0  0  0  0
   17.8270   -7.3761  -14.6703 O   0  0  0  0  0  0  0  0  0  0  0  0
   19.6080   -6.8261  -15.9886 N   0  0  0  0  0  0  0  0  0  0  0  0
   20.2798   -6.1200  -14.9268 C   0  0  1  0  0  0  0  0  0  0  0  0
   21.7700   -6.0112  -15.1598 C   0  0  0  0  0  0  0  0  0  0  0  0
   22.4406   -5.2268  -14.0947 C   0  0  0  0  0  0  0  0  0  0  0  0
   22.4811   -5.6791  -12.9247 O   0  0  0  0  0  0  0  0  0  0  0  0
   19.7540   -4.7476  -14.8425 C   0  0  0  0  0  0  0  0  0  0  0  0
   19.7419   -4.1429  -13.7594 O   0  0  0  0  0  0  0  0  0  0  0  0
   23.0347   -3.9993  -14.3287 O   0  0  0  0  0  0  0  0  0  0  0  0
   19.2753   -4.1398  -15.9768 O   0  0  0  0  0  0  0  0  0  0  0  0
  2  1  1  0
  3  2  1  0
  3  4  1  6
  5  3  1  0
  5  6  2  0
  7  8  1  0
  8  9  1  0
  9 11  1  0
  9 10  1  6
 11 12  1  1
 11 13  1  0
 12  5  1  0
 13 15  1  0
 14 13  2  0
 15 16  1  0
 16 20  1  0
 17 18  1  0
 16 17  1  6
 18 22  1  0
 19 18  2  0
 20 21  2  0
 20 23  1  0
M  END
$$$$
