SID.pdb
     RDKit          3D

 23 22  0  0  1  0  0  0  0  0999 V2000
   26.5671  -11.8666  -16.0951 O   0  0  0  0  0  0  0  0  0  0  0  0
   25.4623  -11.0581  -16.4202 C   0  0  0  0  0  0  0  0  0  0  0  0
   24.3141  -11.9965  -16.8076 C   0  0  2  0  0  0  0  0  0  0  0  0
   24.6552  -12.5229  -18.1158 N   0  0  0  0  0  0  0  0  0  0  0  0
   23.0963  -11.1460  -16.8742 C   0  0  0  0  0  0  0  0  0  0  0  0
   22.8893  -10.5347  -17.9587 O   0  0  0  0  0  0  0  0  0  0  0  0
   18.8243  -13.1859  -15.9039 C   0  0  0  0  0  0  0  0  0  0  0  0
   19.3934  -11.9422  -16.6102 C   0  0  0  0  0  0  0  0  0  0  0  0
   19.7625  -10.9134  -15.5927 C   0  0  2  0  0  0  0  0  0  0  0  0
   18.5280  -10.0347  -15.4132 C   0  0  0  0  0  0  0  0  0  0  0  0
   21.0033  -10.1402  -15.8604 C   0  0  2  0  0  0  0  0  0  0  0  0
   22.1792  -10.9926  -15.8040 N   0  0  0  0  0  0  0  0  0  0  0  0
   21.1764   -8.9053  -15.0868 C   0  0  0  0  0  0  0  0  0  0  0  0
   21.8810   -8.9167  -14.0494 O   0  0  0  0  0  0  0  0  0  0  0  0
   20.5837   -7.6509  -15.4376 N   0  0  0  0  0  0  0  0  0  0  0  0
   20.8789   -6.4268  -14.7364 C   0  0  1  0  0  0  0  0  0  0  0  0
   22.3428   -6.0558  -14.8159 C   0  0  0  0  0  0  0  0  0  0  0  0
   22.6240   -4.7660  -14.1401 C   0  0  0  0  0  0  0  0  0  0  0  0
   22.1514   -4.5493  -12.9978 O   0  0  0  0  0  0  0  0  0  0  0  0
   20.1191   -5.3207  -15.3417 C   0  0  0  0  0  0  0  0  0  0  0  0
   19.5452   -5.4723  -16.4309 O   0  0  0  0  0  0  0  0  0  0  0  0
   23.3947   -3.7708  -14.7147 O   0  0  0  0  0  0  0  0  0  0  0  0
   20.0504   -4.1150  -14.6882 O   0  0  0  0  0  0  0  0  0  0  0  0
  2  1  1  0
  3  2  1  0
  3  4  1  6
  5  3  1  0
  5  6  2  0
  7  8  1  0
  8  9  1  0
  9 11  1  0
  9 10  1  6
 11 12  1  1
 11 13  1  0
 12  5  1  0
 13 15  1  0
 14 13  2  0
 15 16  1  0
 16 20  1  0
 17 18  1  0
 16 17  1  6
 18 22  1  0
 19 18  2  0
 20 21  2  0
 20 23  1  0
M  END
$$$$
