SID.pdb
     RDKit          3D

 23 22  0  0  1  0  0  0  0  0999 V2000
   21.2498  -22.0233  -10.0256 O   0  0  0  0  0  0  0  0  0  0  0  0
   22.0618  -21.3223  -10.9362 C   0  0  0  0  0  0  0  0  0  0  0  0
   23.4663  -21.2508  -10.3267 C   0  0  2  0  0  0  0  0  0  0  0  0
   23.3283  -20.4911   -9.0985 N   0  0  0  0  0  0  0  0  0  0  0  0
   24.3038  -20.5214  -11.3155 C   0  0  0  0  0  0  0  0  0  0  0  0
   24.2605  -19.2608  -11.2761 O   0  0  0  0  0  0  0  0  0  0  0  0
   29.3753  -21.0121  -11.5543 C   0  0  0  0  0  0  0  0  0  0  0  0
   27.9084  -20.5516  -11.6301 C   0  0  0  0  0  0  0  0  0  0  0  0
   27.3983  -20.7317  -13.0220 C   0  0  2  0  0  0  0  0  0  0  0  0
   28.3184  -19.9086  -13.9190 C   0  0  0  0  0  0  0  0  0  0  0  0
   25.9556  -20.4453  -13.2353 C   0  0  2  0  0  0  0  0  0  0  0  0
   25.1283  -21.1588  -12.2767 N   0  0  0  0  0  0  0  0  0  0  0  0
   25.4627  -20.5913  -14.6097 C   0  0  0  0  0  0  0  0  0  0  0  0
   25.0887  -21.7164  -15.0184 O   0  0  0  0  0  0  0  0  0  0  0  0
   25.3737  -19.5138  -15.5473 N   0  0  0  0  0  0  0  0  0  0  0  0
   24.3541  -19.4479  -16.5637 C   0  0  1  0  0  0  0  0  0  0  0  0
   22.9632  -19.3457  -15.9790 C   0  0  0  0  0  0  0  0  0  0  0  0
   21.9234  -19.2760  -17.0342 C   0  0  0  0  0  0  0  0  0  0  0  0
   21.2311  -18.2361  -17.1537 O   0  0  0  0  0  0  0  0  0  0  0  0
   24.5646  -18.2486  -17.3911 C   0  0  0  0  0  0  0  0  0  0  0  0
   25.1041  -17.2395  -16.9121 O   0  0  0  0  0  0  0  0  0  0  0  0
   21.6726  -20.3177  -17.9097 O   0  0  0  0  0  0  0  0  0  0  0  0
   24.1574  -18.2560  -18.7023 O   0  0  0  0  0  0  0  0  0  0  0  0
  2  1  1  0
  3  2  1  0
  3  4  1  1
  5  3  1  0
  5  6  2  0
  7  8  1  0
  8  9  1  0
  9 11  1  0
  9 10  1  6
 11 12  1  1
 11 13  1  0
 12  5  1  0
 13 15  1  0
 14 13  2  0
 15 16  1  0
 16 20  1  0
 17 18  1  0
 16 17  1  1
 18 22  1  0
 19 18  2  0
 20 21  2  0
 20 23  1  0
M  END
$$$$
