SID.pdb
     RDKit          3D

 23 22  0  0  1  0  0  0  0  0999 V2000
   28.0996  -18.7144  -16.7429 O   0  0  0  0  0  0  0  0  0  0  0  0
   27.0909  -19.5458  -16.2225 C   0  0  0  0  0  0  0  0  0  0  0  0
   27.7577  -20.4887  -15.2148 C   0  0  2  0  0  0  0  0  0  0  0  0
   28.3752  -21.5393  -16.0019 N   0  0  0  0  0  0  0  0  0  0  0  0
   26.6585  -21.0283  -14.3712 C   0  0  0  0  0  0  0  0  0  0  0  0
   26.1051  -22.0898  -14.7705 O   0  0  0  0  0  0  0  0  0  0  0  0
   26.6109  -20.5055   -8.9048 C   0  0  0  0  0  0  0  0  0  0  0  0
   26.4409  -21.1428  -10.2956 C   0  0  0  0  0  0  0  0  0  0  0  0
   25.2256  -20.5823  -10.9581 C   0  0  2  0  0  0  0  0  0  0  0  0
   24.0380  -21.0315  -10.1117 C   0  0  0  0  0  0  0  0  0  0  0  0
   25.0673  -20.8847  -12.4046 C   0  0  2  0  0  0  0  0  0  0  0  0
   26.2134  -20.4221  -13.1693 N   0  0  0  0  0  0  0  0  0  0  0  0
   23.7949  -20.4823  -13.0149 C   0  0  0  0  0  0  0  0  0  0  0  0
   23.5447  -19.2648  -13.1820 O   0  0  0  0  0  0  0  0  0  0  0  0
   22.7875  -21.4024  -13.4468 N   0  0  0  0  0  0  0  0  0  0  0  0
   21.5725  -20.9787  -14.0960 C   0  0  1  0  0  0  0  0  0  0  0  0
   21.4230  -21.5685  -15.4805 C   0  0  0  0  0  0  0  0  0  0  0  0
   20.2081  -21.0666  -16.1672 C   0  0  0  0  0  0  0  0  0  0  0  0
   19.9848  -19.8322  -16.2074 O   0  0  0  0  0  0  0  0  0  0  0  0
   20.4137  -21.4283  -13.3071 C   0  0  0  0  0  0  0  0  0  0  0  0
   20.5138  -22.3936  -12.5344 O   0  0  0  0  0  0  0  0  0  0  0  0
   19.2914  -21.9045  -16.7772 O   0  0  0  0  0  0  0  0  0  0  0  0
   19.2167  -20.7678  -13.4338 O   0  0  0  0  0  0  0  0  0  0  0  0
  2  1  1  0
  3  2  1  0
  3  4  1  6
  5  3  1  0
  5  6  2  0
  7  8  1  0
  8  9  1  0
  9 11  1  0
  9 10  1  1
 11 12  1  6
 11 13  1  0
 12  5  1  0
 13 15  1  0
 14 13  2  0
 15 16  1  0
 16 20  1  0
 17 18  1  0
 16 17  1  6
 18 22  1  0
 19 18  2  0
 20 21  2  0
 20 23  1  0
M  END
$$$$
