SID.pdb
     RDKit          3D

 23 22  0  0  1  0  0  0  0  0999 V2000
   28.1612  -19.3510  -16.8637 O   0  0  0  0  0  0  0  0  0  0  0  0
   27.0686  -19.9038  -16.1706 C   0  0  0  0  0  0  0  0  0  0  0  0
   27.6352  -20.9083  -15.1612 C   0  0  2  0  0  0  0  0  0  0  0  0
   28.1108  -22.0333  -15.9440 N   0  0  0  0  0  0  0  0  0  0  0  0
   26.4938  -21.3042  -14.2944 C   0  0  0  0  0  0  0  0  0  0  0  0
   25.7502  -22.2298  -14.7224 O   0  0  0  0  0  0  0  0  0  0  0  0
   26.6448  -20.7641   -8.8416 C   0  0  0  0  0  0  0  0  0  0  0  0
   26.2948  -21.4329  -10.1832 C   0  0  0  0  0  0  0  0  0  0  0  0
   25.1829  -20.6840  -10.8410 C   0  0  2  0  0  0  0  0  0  0  0  0
   23.9372  -20.9545  -10.0022 C   0  0  0  0  0  0  0  0  0  0  0  0
   24.9851  -20.9416  -12.2913 C   0  0  2  0  0  0  0  0  0  0  0  0
   26.2078  -20.7065  -13.0410 N   0  0  0  0  0  0  0  0  0  0  0  0
   23.8221  -20.2959  -12.9110 C   0  0  0  0  0  0  0  0  0  0  0  0
   23.9644  -19.2011  -13.5061 O   0  0  0  0  0  0  0  0  0  0  0  0
   22.4979  -20.8377  -12.8868 N   0  0  0  0  0  0  0  0  0  0  0  0
   21.5086  -20.5216  -13.8861 C   0  0  1  0  0  0  0  0  0  0  0  0
   21.9521  -20.9094  -15.2789 C   0  0  0  0  0  0  0  0  0  0  0  0
   20.8761  -20.7053  -16.2789 C   0  0  0  0  0  0  0  0  0  0  0  0
   20.0137  -19.8139  -16.0876 O   0  0  0  0  0  0  0  0  0  0  0  0
   20.2713  -21.2673  -13.6030 C   0  0  0  0  0  0  0  0  0  0  0  0
   19.2209  -20.9970  -14.2050 O   0  0  0  0  0  0  0  0  0  0  0  0
   20.7720  -21.4612  -17.4332 O   0  0  0  0  0  0  0  0  0  0  0  0
   20.2894  -22.2685  -12.6636 O   0  0  0  0  0  0  0  0  0  0  0  0
  2  1  1  0
  3  2  1  0
  3  4  1  6
  5  3  1  0
  5  6  2  0
  7  8  1  0
  8  9  1  0
  9 11  1  0
  9 10  1  1
 11 12  1  6
 11 13  1  0
 12  5  1  0
 13 15  1  0
 14 13  2  0
 15 16  1  0
 16 20  1  0
 17 18  1  0
 16 17  1  6
 18 22  1  0
 19 18  2  0
 20 21  2  0
 20 23  1  0
M  END
$$$$
