SID.pdb
     RDKit          3D

 23 22  0  0  1  0  0  0  0  0999 V2000
   17.0374  -11.0435  -19.0198 O   0  0  0  0  0  0  0  0  0  0  0  0
   17.6565  -10.6057  -17.8345 C   0  0  0  0  0  0  0  0  0  0  0  0
   18.8183  -11.5643  -17.5509 C   0  0  2  0  0  0  0  0  0  0  0  0
   18.2157  -12.7741  -17.0237 N   0  0  0  0  0  0  0  0  0  0  0  0
   19.6592  -10.8942  -16.5239 C   0  0  0  0  0  0  0  0  0  0  0  0
   19.2543  -10.9557  -15.3302 O   0  0  0  0  0  0  0  0  0  0  0  0
   25.2289  -10.7129  -14.6500 C   0  0  0  0  0  0  0  0  0  0  0  0
   23.9751   -9.8201  -14.6738 C   0  0  0  0  0  0  0  0  0  0  0  0
   23.0159  -10.3313  -15.6978 C   0  0  2  0  0  0  0  0  0  0  0  0
   23.7890  -10.3829  -17.0124 C   0  0  0  0  0  0  0  0  0  0  0  0
   21.7208   -9.6097  -15.8030 C   0  0  2  0  0  0  0  0  0  0  0  0
   20.8644  -10.2064  -16.8144 N   0  0  0  0  0  0  0  0  0  0  0  0
   21.8014   -8.1505  -15.9357 C   0  0  0  0  0  0  0  0  0  0  0  0
   22.2443   -7.6475  -16.9958 O   0  0  0  0  0  0  0  0  0  0  0  0
   21.4005   -7.2302  -14.9158 N   0  0  0  0  0  0  0  0  0  0  0  0
   21.5399   -5.8026  -15.0564 C   0  0  1  0  0  0  0  0  0  0  0  0
   20.2050   -5.0921  -15.0721 C   0  0  0  0  0  0  0  0  0  0  0  0
   19.4018   -5.4505  -16.2662 C   0  0  0  0  0  0  0  0  0  0  0  0
   19.9058   -5.3335  -17.4096 O   0  0  0  0  0  0  0  0  0  0  0  0
   22.2996   -5.2701  -13.9134 C   0  0  0  0  0  0  0  0  0  0  0  0
   22.5334   -5.9828  -12.9253 O   0  0  0  0  0  0  0  0  0  0  0  0
   18.1013   -5.9156  -16.1831 O   0  0  0  0  0  0  0  0  0  0  0  0
   22.7492   -3.9733  -13.9500 O   0  0  0  0  0  0  0  0  0  0  0  0
  2  1  1  0
  3  2  1  0
  3  4  1  1
  5  3  1  0
  5  6  2  0
  7  8  1  0
  8  9  1  0
  9 11  1  0
  9 10  1  6
 11 12  1  6
 11 13  1  0
 12  5  1  0
 13 15  1  0
 14 13  2  0
 15 16  1  0
 16 20  1  0
 17 18  1  0
 16 17  1  1
 18 22  1  0
 19 18  2  0
 20 21  2  0
 20 23  1  0
M  END
$$$$
