SID.pdb
     RDKit          3D

 23 22  0  0  1  0  0  0  0  0999 V2000
   23.3401  -11.2622  -22.6253 O   0  0  0  0  0  0  0  0  0  0  0  0
   23.1840  -10.8966  -21.2756 C   0  0  0  0  0  0  0  0  0  0  0  0
   24.0580  -11.8444  -20.4467 C   0  0  2  0  0  0  0  0  0  0  0  0
   23.4716  -13.1624  -20.6006 N   0  0  0  0  0  0  0  0  0  0  0  0
   23.9521  -11.3727  -19.0406 C   0  0  0  0  0  0  0  0  0  0  0  0
   22.9544  -11.7747  -18.3805 O   0  0  0  0  0  0  0  0  0  0  0  0
   28.1982  -11.2914  -15.7480 C   0  0  0  0  0  0  0  0  0  0  0  0
   26.7926  -11.4379  -16.3582 C   0  0  0  0  0  0  0  0  0  0  0  0
   26.1050  -10.1123  -16.3559 C   0  0  2  0  0  0  0  0  0  0  0  0
   26.0427   -9.6713  -14.8963 C   0  0  0  0  0  0  0  0  0  0  0  0
   24.7905  -10.0527  -17.0469 C   0  0  2  0  0  0  0  0  0  0  0  0
   24.8950  -10.5140  -18.4212 N   0  0  0  0  0  0  0  0  0  0  0  0
   24.0608   -8.7839  -16.9422 C   0  0  0  0  0  0  0  0  0  0  0  0
   24.4217   -7.8018  -17.6337 O   0  0  0  0  0  0  0  0  0  0  0  0
   22.9341   -8.5764  -16.0846 N   0  0  0  0  0  0  0  0  0  0  0  0
   22.1524   -7.3658  -16.1047 C   0  0  1  0  0  0  0  0  0  0  0  0
   21.5417   -7.0966  -17.4617 C   0  0  0  0  0  0  0  0  0  0  0  0
   20.6914   -5.8816  -17.4544 C   0  0  0  0  0  0  0  0  0  0  0  0
   21.0285   -4.8939  -16.7573 O   0  0  0  0  0  0  0  0  0  0  0  0
   21.0413   -7.4847  -15.1464 C   0  0  0  0  0  0  0  0  0  0  0  0
   20.8183   -8.5606  -14.5705 O   0  0  0  0  0  0  0  0  0  0  0  0
   19.5239   -5.7789  -18.1900 O   0  0  0  0  0  0  0  0  0  0  0  0
   20.2507   -6.3908  -14.8940 O   0  0  0  0  0  0  0  0  0  0  0  0
  2  1  1  0
  3  2  1  0
  3  4  1  1
  5  3  1  0
  5  6  2  0
  7  8  1  0
  8  9  1  0
  9 11  1  0
  9 10  1  1
 11 12  1  6
 11 13  1  0
 12  5  1  0
 13 15  1  0
 14 13  2  0
 15 16  1  0
 16 20  1  0
 17 18  1  0
 16 17  1  6
 18 22  1  0
 19 18  2  0
 20 21  2  0
 20 23  1  0
M  END
$$$$
