SID.pdb
     RDKit          3D

 23 22  0  0  1  0  0  0  0  0999 V2000
   14.5273  -13.4228  -12.5448 O   0  0  0  0  0  0  0  0  0  0  0  0
   14.7028  -12.0279  -12.6021 C   0  0  0  0  0  0  0  0  0  0  0  0
   14.0889  -11.4425  -11.3256 C   0  0  2  0  0  0  0  0  0  0  0  0
   12.6514  -11.5437  -11.4932 N   0  0  0  0  0  0  0  0  0  0  0  0
   14.5231  -10.0212  -11.2783 C   0  0  0  0  0  0  0  0  0  0  0  0
   13.9163   -9.2166  -12.0379 O   0  0  0  0  0  0  0  0  0  0  0  0
   14.0627   -6.9746   -7.2491 C   0  0  0  0  0  0  0  0  0  0  0  0
   14.2107   -7.4143   -8.7169 C   0  0  0  0  0  0  0  0  0  0  0  0
   15.6588   -7.5479   -9.0560 C   0  0  2  0  0  0  0  0  0  0  0  0
   16.2687   -6.1634   -8.8572 C   0  0  0  0  0  0  0  0  0  0  0  0
   15.9709   -8.1456  -10.3806 C   0  0  2  0  0  0  0  0  0  0  0  0
   15.5607   -9.5386  -10.4413 N   0  0  0  0  0  0  0  0  0  0  0  0
   17.3390   -7.9487  -10.8736 C   0  0  0  0  0  0  0  0  0  0  0  0
   18.2724   -8.6449  -10.4079 O   0  0  0  0  0  0  0  0  0  0  0  0
   17.6991   -6.9933  -11.8763 N   0  0  0  0  0  0  0  0  0  0  0  0
   18.9809   -7.0015  -12.5353 C   0  0  1  0  0  0  0  0  0  0  0  0
   19.2426   -8.2968  -13.2706 C   0  0  0  0  0  0  0  0  0  0  0  0
   20.5347   -8.2685  -13.9980 C   0  0  0  0  0  0  0  0  0  0  0  0
   21.4555   -7.5166  -13.5958 O   0  0  0  0  0  0  0  0  0  0  0  0
   19.0245   -5.9209  -13.5341 C   0  0  0  0  0  0  0  0  0  0  0  0
   17.9753   -5.4202  -13.9670 O   0  0  0  0  0  0  0  0  0  0  0  0
   20.7819   -9.0427  -15.1178 O   0  0  0  0  0  0  0  0  0  0  0  0
   20.2407   -5.4699  -13.9844 O   0  0  0  0  0  0  0  0  0  0  0  0
  2  1  1  0
  3  2  1  0
  3  4  1  6
  5  3  1  0
  5  6  2  0
  7  8  1  0
  8  9  1  0
  9 11  1  0
  9 10  1  6
 11 12  1  1
 11 13  1  0
 12  5  1  0
 13 15  1  0
 14 13  2  0
 15 16  1  0
 16 20  1  0
 17 18  1  0
 16 17  1  6
 18 22  1  0
 19 18  2  0
 20 21  2  0
 20 23  1  0
M  END
$$$$
