SID.pdb
     RDKit          3D

 23 22  0  0  1  0  0  0  0  0999 V2000
   19.2990  -11.1656  -17.8696 O   0  0  0  0  0  0  0  0  0  0  0  0
   20.3743  -11.7666  -18.5495 C   0  0  0  0  0  0  0  0  0  0  0  0
   21.1213  -12.6374  -17.5333 C   0  0  2  0  0  0  0  0  0  0  0  0
   20.1075  -13.4427  -16.8787 N   0  0  0  0  0  0  0  0  0  0  0  0
   21.7558  -11.6938  -16.5752 C   0  0  0  0  0  0  0  0  0  0  0  0
   21.2018  -11.5712  -15.4479 O   0  0  0  0  0  0  0  0  0  0  0  0
   27.0272  -11.5095  -15.5112 C   0  0  0  0  0  0  0  0  0  0  0  0
   25.4883  -11.4958  -15.4762 C   0  0  0  0  0  0  0  0  0  0  0  0
   24.9905  -10.1438  -15.8687 C   0  0  2  0  0  0  0  0  0  0  0  0
   25.6604   -9.1548  -14.9192 C   0  0  0  0  0  0  0  0  0  0  0  0
   23.5148   -9.9831  -15.9432 C   0  0  2  0  0  0  0  0  0  0  0  0
   22.9246  -10.9438  -16.8604 N   0  0  0  0  0  0  0  0  0  0  0  0
   23.0227   -8.6203  -16.1757 C   0  0  0  0  0  0  0  0  0  0  0  0
   23.1951   -8.0810  -17.2947 O   0  0  0  0  0  0  0  0  0  0  0  0
   22.3401   -7.8366  -15.1919 N   0  0  0  0  0  0  0  0  0  0  0  0
   21.8926   -6.4897  -15.4424 C   0  0  1  0  0  0  0  0  0  0  0  0
   20.3867   -6.3917  -15.5405 C   0  0  0  0  0  0  0  0  0  0  0  0
   19.9320   -4.9874  -15.6840 C   0  0  0  0  0  0  0  0  0  0  0  0
   20.6307   -4.1737  -16.3357 O   0  0  0  0  0  0  0  0  0  0  0  0
   22.3110   -5.6202  -14.3306 C   0  0  0  0  0  0  0  0  0  0  0  0
   22.7006   -6.1103  -13.2597 O   0  0  0  0  0  0  0  0  0  0  0  0
   18.7554   -4.5195  -15.1262 O   0  0  0  0  0  0  0  0  0  0  0  0
   22.2663   -4.2571  -14.4892 O   0  0  0  0  0  0  0  0  0  0  0  0
  2  1  1  0
  3  2  1  0
  3  4  1  1
  5  3  1  0
  5  6  2  0
  7  8  1  0
  8  9  1  0
  9 11  1  0
  9 10  1  1
 11 12  1  6
 11 13  1  0
 12  5  1  0
 13 15  1  0
 14 13  2  0
 15 16  1  0
 16 20  1  0
 17 18  1  0
 16 17  1  1
 18 22  1  0
 19 18  2  0
 20 21  2  0
 20 23  1  0
M  END
$$$$
