SID.pdb
     RDKit          3D

 23 22  0  0  1  0  0  0  0  0999 V2000
   21.7932   -9.9398  -21.2264 O   0  0  0  0  0  0  0  0  0  0  0  0
   21.2838   -9.4794  -19.9982 C   0  0  0  0  0  0  0  0  0  0  0  0
   21.3736  -10.6446  -19.0066 C   0  0  2  0  0  0  0  0  0  0  0  0
   20.4291  -11.6404  -19.4768 N   0  0  0  0  0  0  0  0  0  0  0  0
   20.9580  -10.0930  -17.6898 C   0  0  0  0  0  0  0  0  0  0  0  0
   19.7329  -10.1788  -17.3994 O   0  0  0  0  0  0  0  0  0  0  0  0
   23.7203  -11.3014  -13.4003 C   0  0  0  0  0  0  0  0  0  0  0  0
   22.5756  -10.9716  -14.3752 C   0  0  0  0  0  0  0  0  0  0  0  0
   22.3399   -9.4971  -14.3903 C   0  0  2  0  0  0  0  0  0  0  0  0
   21.8674   -9.1304  -12.9864 C   0  0  0  0  0  0  0  0  0  0  0  0
   21.4500   -8.9850  -15.4649 C   0  0  2  0  0  0  0  0  0  0  0  0
   21.8503   -9.4903  -16.7675 N   0  0  0  0  0  0  0  0  0  0  0  0
   21.2201   -7.5357  -15.4793 C   0  0  0  0  0  0  0  0  0  0  0  0
   22.1991   -6.7525  -15.5088 O   0  0  0  0  0  0  0  0  0  0  0  0
   19.9235   -6.9304  -15.4620 N   0  0  0  0  0  0  0  0  0  0  0  0
   19.7291   -5.5036  -15.5223 C   0  0  1  0  0  0  0  0  0  0  0  0
   19.5754   -5.0024  -16.9408 C   0  0  0  0  0  0  0  0  0  0  0  0
   19.3509   -3.5372  -16.9885 C   0  0  0  0  0  0  0  0  0  0  0  0
   19.7391   -2.8198  -16.0347 O   0  0  0  0  0  0  0  0  0  0  0  0
   18.4960   -5.1468  -14.8016 C   0  0  0  0  0  0  0  0  0  0  0  0
   17.7070   -6.0281  -14.4281 O   0  0  0  0  0  0  0  0  0  0  0  0
   18.7240   -2.9088  -18.0499 O   0  0  0  0  0  0  0  0  0  0  0  0
   18.2253   -3.8253  -14.5452 O   0  0  0  0  0  0  0  0  0  0  0  0
  2  1  1  0
  3  2  1  0
  3  4  1  6
  5  3  1  0
  5  6  2  0
  7  8  1  0
  8  9  1  0
  9 11  1  0
  9 10  1  1
 11 12  1  6
 11 13  1  0
 12  5  1  0
 13 15  1  0
 14 13  2  0
 15 16  1  0
 16 20  1  0
 17 18  1  0
 16 17  1  6
 18 22  1  0
 19 18  2  0
 20 21  2  0
 20 23  1  0
M  END
$$$$
