SID.pdb
     RDKit          3D

 23 22  0  0  1  0  0  0  0  0999 V2000
   18.0374  -25.8334   -9.4300 O   0  0  0  0  0  0  0  0  0  0  0  0
   18.1894  -24.5142   -9.8951 C   0  0  0  0  0  0  0  0  0  0  0  0
   19.2867  -23.8601   -9.0483 C   0  0  2  0  0  0  0  0  0  0  0  0
   18.6820  -23.5835   -7.7589 N   0  0  0  0  0  0  0  0  0  0  0  0
   19.6483  -22.6004   -9.7507 C   0  0  0  0  0  0  0  0  0  0  0  0
   19.0897  -21.5439   -9.3454 O   0  0  0  0  0  0  0  0  0  0  0  0
   24.4281  -20.6684   -9.8332 C   0  0  0  0  0  0  0  0  0  0  0  0
   22.9030  -20.8763   -9.8556 C   0  0  0  0  0  0  0  0  0  0  0  0
   22.4424  -21.0528  -11.2651 C   0  0  2  0  0  0  0  0  0  0  0  0
   22.9654  -19.8435  -12.0351 C   0  0  0  0  0  0  0  0  0  0  0  0
   20.9877  -21.2898  -11.4561 C   0  0  2  0  0  0  0  0  0  0  0  0
   20.5679  -22.5313  -10.8275 N   0  0  0  0  0  0  0  0  0  0  0  0
   20.4864  -21.1671  -12.8298 C   0  0  0  0  0  0  0  0  0  0  0  0
   20.8140  -22.0206  -13.6883 O   0  0  0  0  0  0  0  0  0  0  0  0
   19.6258  -20.1149  -13.2772 N   0  0  0  0  0  0  0  0  0  0  0  0
   19.0586  -20.0827  -14.6018 C   0  0  1  0  0  0  0  0  0  0  0  0
   17.5787  -19.7713  -14.5875 C   0  0  0  0  0  0  0  0  0  0  0  0
   17.0227  -19.6650  -15.9582 C   0  0  0  0  0  0  0  0  0  0  0  0
   17.4558  -20.4198  -16.8626 O   0  0  0  0  0  0  0  0  0  0  0  0
   19.7150  -19.0267  -15.3898 C   0  0  0  0  0  0  0  0  0  0  0  0
   20.0610  -17.9630  -14.8533 O   0  0  0  0  0  0  0  0  0  0  0  0
   16.0327  -18.7599  -16.2977 O   0  0  0  0  0  0  0  0  0  0  0  0
   19.9424  -19.2294  -16.7287 O   0  0  0  0  0  0  0  0  0  0  0  0
  2  1  1  0
  3  2  1  0
  3  4  1  1
  5  3  1  0
  5  6  2  0
  7  8  1  0
  8  9  1  0
  9 11  1  0
  9 10  1  6
 11 12  1  6
 11 13  1  0
 12  5  1  0
 13 15  1  0
 14 13  2  0
 15 16  1  0
 16 20  1  0
 17 18  1  0
 16 17  1  1
 18 22  1  0
 19 18  2  0
 20 21  2  0
 20 23  1  0
M  END
$$$$
