VSV.pdb
     RDKit          3D

 21 20  0  0  1  0  0  0  0  0999 V2000
   18.2501  -13.4034  -18.6857 C   0  0  0  0  0  0  0  0  0  0  0  0
   18.7655  -12.6964  -17.4554 C   0  0  1  0  0  0  0  0  0  0  0  0
   20.0339  -13.3332  -16.9737 C   0  0  0  0  0  0  0  0  0  0  0  0
   18.9091  -11.2076  -17.6942 C   0  0  2  0  0  0  0  0  0  0  0  0
   19.6094  -11.0157  -18.9246 N   0  0  0  0  0  0  0  0  0  0  0  0
   19.5038  -10.5094  -16.5498 C   0  0  0  0  0  0  0  0  0  0  0  0
   18.9025  -10.5081  -15.4552 O   0  0  0  0  0  0  0  0  0  0  0  0
   23.3446   -9.2395  -14.0646 O   0  0  0  0  0  0  0  0  0  0  0  0
   22.7308   -9.8639  -15.1457 C   0  0  0  0  0  0  0  0  0  0  0  0
   21.3852   -9.2469  -15.4507 C   0  0  2  0  0  0  0  0  0  0  0  0
   20.7570   -9.8123  -16.6036 N   0  0  0  0  0  0  0  0  0  0  0  0
   21.6070   -7.7994  -15.6759 C   0  0  0  0  0  0  0  0  0  0  0  0
   22.0839   -7.4095  -16.7512 O   0  0  0  0  0  0  0  0  0  0  0  0
   19.2647   -4.8494  -14.0925 C   0  0  0  0  0  0  0  0  0  0  0  0
   20.2557   -4.7054  -15.2134 C   0  0  2  0  0  0  0  0  0  0  0  0
   19.6418   -5.2184  -16.4786 C   0  0  0  0  0  0  0  0  0  0  0  0
   21.5683   -5.4069  -14.8923 C   0  0  2  0  0  0  0  0  0  0  0  0
   21.2939   -6.8126  -14.7001 N   0  0  0  0  0  0  0  0  0  0  0  0
   22.2436   -4.8048  -13.7202 C   0  0  0  0  0  0  0  0  0  0  0  0
   22.9082   -3.6128  -13.8301 O   0  0  0  0  0  0  0  0  0  0  0  0
   22.2139   -5.3839  -12.6076 O   0  0  0  0  0  0  0  0  0  0  0  0
  2  1  1  6
  2  4  1  0
  3  2  1  0
  4  5  1  6
  6  4  1  0
  7  6  2  0
  8  9  1  0
 10  9  1  6
 10 11  1  0
 10 12  1  0
 11  6  1  0
 12 18  1  0
 12 13  2  0
 15 14  1  1
 16 15  1  0
 17 15  1  0
 17 18  1  1
 19 17  1  0
 19 20  1  0
 21 19  2  0
M  END
$$$$
