VSV.pdb
     RDKit          3D

 21 20  0  0  1  0  0  0  0  0999 V2000
   18.2408  -11.9487  -19.5275 C   0  0  0  0  0  0  0  0  0  0  0  0
   18.5693  -10.9807  -18.4166 C   0  0  1  0  0  0  0  0  0  0  0  0
   17.3889  -10.1095  -18.1100 C   0  0  0  0  0  0  0  0  0  0  0  0
   19.1005  -11.7021  -17.1953 C   0  0  2  0  0  0  0  0  0  0  0  0
   18.1352  -12.6759  -16.7940 N   0  0  0  0  0  0  0  0  0  0  0  0
   19.5025  -10.7800  -16.1282 C   0  0  0  0  0  0  0  0  0  0  0  0
   18.6241  -10.1557  -15.4970 O   0  0  0  0  0  0  0  0  0  0  0  0
   23.5283  -10.2842  -14.9831 O   0  0  0  0  0  0  0  0  0  0  0  0
   22.5439   -9.8966  -14.0798 C   0  0  0  0  0  0  0  0  0  0  0  0
   21.2482   -9.5623  -14.7824 C   0  0  2  0  0  0  0  0  0  0  0  0
   20.8665  -10.5411  -15.7517 N   0  0  0  0  0  0  0  0  0  0  0  0
   21.4385   -8.2563  -15.4559 C   0  0  0  0  0  0  0  0  0  0  0  0
   21.6511   -8.2181  -16.6762 O   0  0  0  0  0  0  0  0  0  0  0  0
   20.4635   -3.9338  -16.6807 C   0  0  0  0  0  0  0  0  0  0  0  0
   20.3060   -5.2624  -15.9957 C   0  0  2  0  0  0  0  0  0  0  0  0
   19.2328   -5.1541  -14.9577 C   0  0  0  0  0  0  0  0  0  0  0  0
   21.6232   -5.7458  -15.4044 C   0  0  2  0  0  0  0  0  0  0  0  0
   21.3887   -7.0172  -14.7587 N   0  0  0  0  0  0  0  0  0  0  0  0
   22.2114   -4.7503  -14.4796 C   0  0  0  0  0  0  0  0  0  0  0  0
   23.0135   -3.7451  -14.9496 O   0  0  0  0  0  0  0  0  0  0  0  0
   21.9797   -4.8177  -13.2484 O   0  0  0  0  0  0  0  0  0  0  0  0
  2  1  1  6
  2  4  1  0
  3  2  1  0
  4  5  1  1
  6  4  1  0
  7  6  2  0
  8  9  1  0
 10  9  1  6
 10 11  1  0
 10 12  1  0
 11  6  1  0
 12 18  1  0
 12 13  2  0
 15 14  1  1
 16 15  1  0
 17 15  1  0
 17 18  1  1
 19 17  1  0
 19 20  1  0
 21 19  2  0
M  END
$$$$
