VSV.pdb
     RDKit          3D

 21 20  0  0  1  0  0  0  0  0999 V2000
   13.6920  -10.1689  -13.9848 C   0  0  0  0  0  0  0  0  0  0  0  0
   14.2455  -11.5719  -14.0523 C   0  0  1  0  0  0  0  0  0  0  0  0
   13.7672  -12.2685  -15.2902 C   0  0  0  0  0  0  0  0  0  0  0  0
   15.7543  -11.5766  -13.9209 C   0  0  2  0  0  0  0  0  0  0  0  0
   16.1974  -12.9343  -13.8813 N   0  0  0  0  0  0  0  0  0  0  0  0
   16.2234  -10.7590  -12.7973 C   0  0  0  0  0  0  0  0  0  0  0  0
   15.9513  -11.1107  -11.6303 O   0  0  0  0  0  0  0  0  0  0  0  0
   18.1627   -7.0066  -13.3250 O   0  0  0  0  0  0  0  0  0  0  0  0
   18.4741   -7.7535  -12.1935 C   0  0  0  0  0  0  0  0  0  0  0  0
   17.3694   -8.7263  -11.8506 C   0  0  2  0  0  0  0  0  0  0  0  0
   16.9906   -9.5560  -12.9513 N   0  0  0  0  0  0  0  0  0  0  0  0
   16.1999   -7.9269  -11.4165 C   0  0  0  0  0  0  0  0  0  0  0  0
   15.3247   -7.6198  -12.2382 O   0  0  0  0  0  0  0  0  0  0  0  0
   13.3097   -6.1373   -7.8765 C   0  0  0  0  0  0  0  0  0  0  0  0
   14.5072   -6.9455   -8.2913 C   0  0  2  0  0  0  0  0  0  0  0  0
   15.5855   -6.7850   -7.2654 C   0  0  0  0  0  0  0  0  0  0  0  0
   14.9854   -6.5610   -9.6847 C   0  0  2  0  0  0  0  0  0  0  0  0
   16.0263   -7.4841  -10.0756 N   0  0  0  0  0  0  0  0  0  0  0  0
   15.4377   -5.1524   -9.7439 C   0  0  0  0  0  0  0  0  0  0  0  0
   14.5399   -4.1351   -9.9277 O   0  0  0  0  0  0  0  0  0  0  0  0
   16.6554   -4.8743   -9.6256 O   0  0  0  0  0  0  0  0  0  0  0  0
  2  1  1  6
  2  4  1  0
  3  2  1  0
  4  5  1  1
  6  4  1  0
  7  6  2  0
  8  9  1  0
 10  9  1  6
 10 11  1  0
 10 12  1  0
 11  6  1  0
 12 18  1  0
 12 13  2  0
 15 14  1  1
 16 15  1  0
 17 15  1  0
 17 18  1  1
 19 17  1  0
 19 20  1  0
 21 19  2  0
M  END
$$$$
