VSV.pdb
     RDKit          3D

 21 20  0  0  1  0  0  0  0  0999 V2000
   16.9115  -15.4627  -18.6796 C   0  0  0  0  0  0  0  0  0  0  0  0
   17.1582  -14.4006  -17.6355 C   0  0  1  0  0  0  0  0  0  0  0  0
   18.3331  -14.7654  -16.7794 C   0  0  0  0  0  0  0  0  0  0  0  0
   17.2925  -13.0293  -18.2646 C   0  0  2  0  0  0  0  0  0  0  0  0
   18.2239  -13.1199  -19.3442 N   0  0  0  0  0  0  0  0  0  0  0  0
   17.6121  -11.9888  -17.2818 C   0  0  0  0  0  0  0  0  0  0  0  0
   16.7867  -11.7230  -16.3831 O   0  0  0  0  0  0  0  0  0  0  0  0
   21.2361   -9.8603  -17.4124 O   0  0  0  0  0  0  0  0  0  0  0  0
   20.5574   -9.8665  -16.1980 C   0  0  0  0  0  0  0  0  0  0  0  0
   19.0855  -10.1527  -16.3876 C   0  0  2  0  0  0  0  0  0  0  0  0
   18.8357  -11.2389  -17.2827 N   0  0  0  0  0  0  0  0  0  0  0  0
   18.4652   -8.9210  -16.9293 C   0  0  0  0  0  0  0  0  0  0  0  0
   18.3946   -8.7550  -18.1553 O   0  0  0  0  0  0  0  0  0  0  0  0
   15.6491   -6.7203  -14.8457 C   0  0  0  0  0  0  0  0  0  0  0  0
   15.9204   -6.6030  -16.3194 C   0  0  2  0  0  0  0  0  0  0  0  0
   15.1668   -7.6751  -17.0430 C   0  0  0  0  0  0  0  0  0  0  0  0
   17.4124   -6.6550  -16.6188 C   0  0  2  0  0  0  0  0  0  0  0  0
   17.9348   -7.8969  -16.0962 N   0  0  0  0  0  0  0  0  0  0  0  0
   18.1258   -5.4768  -16.0753 C   0  0  0  0  0  0  0  0  0  0  0  0
   19.0067   -5.6090  -15.0355 O   0  0  0  0  0  0  0  0  0  0  0  0
   17.9295   -4.3384  -16.5646 O   0  0  0  0  0  0  0  0  0  0  0  0
  2  1  1  6
  2  4  1  0
  3  2  1  0
  4  5  1  6
  6  4  1  0
  7  6  2  0
  8  9  1  0
 10  9  1  6
 10 11  1  0
 10 12  1  0
 11  6  1  0
 12 18  1  0
 12 13  2  0
 15 14  1  1
 16 15  1  0
 17 15  1  0
 17 18  1  1
 19 17  1  0
 19 20  1  0
 21 19  2  0
M  END
$$$$
