VSV.pdb
     RDKit          3D

 21 20  0  0  1  0  0  0  0  0999 V2000
   17.9627  -13.6606  -19.2992 C   0  0  0  0  0  0  0  0  0  0  0  0
   19.0640  -12.6461  -19.1065 C   0  0  1  0  0  0  0  0  0  0  0  0
   19.4764  -12.0590  -20.4224 C   0  0  0  0  0  0  0  0  0  0  0  0
   18.6727  -11.5936  -18.0900 C   0  0  2  0  0  0  0  0  0  0  0  0
   17.3898  -11.0776  -18.4491 N   0  0  0  0  0  0  0  0  0  0  0  0
   19.7059  -10.5671  -17.9176 C   0  0  0  0  0  0  0  0  0  0  0  0
   20.8053  -10.8847  -17.4175 O   0  0  0  0  0  0  0  0  0  0  0  0
   21.3676   -6.0507  -18.7768 O   0  0  0  0  0  0  0  0  0  0  0  0
   20.3104   -6.9457  -18.9054 C   0  0  0  0  0  0  0  0  0  0  0  0
   20.5437   -8.1989  -18.0934 C   0  0  2  0  0  0  0  0  0  0  0  0
   19.5355   -9.1925  -18.2927 N   0  0  0  0  0  0  0  0  0  0  0  0
   20.5613   -7.8003  -16.6665 C   0  0  0  0  0  0  0  0  0  0  0  0
   19.4933   -7.6338  -16.0605 O   0  0  0  0  0  0  0  0  0  0  0  0
   22.1485   -9.6328  -14.0607 C   0  0  0  0  0  0  0  0  0  0  0  0
   22.6110   -8.2304  -13.7806 C   0  0  2  0  0  0  0  0  0  0  0  0
   22.5710   -7.9872  -12.3041 C   0  0  0  0  0  0  0  0  0  0  0  0
   21.7867   -7.2063  -14.5487 C   0  0  2  0  0  0  0  0  0  0  0  0
   21.7674   -7.5944  -15.9406 N   0  0  0  0  0  0  0  0  0  0  0  0
   22.3006   -5.8306  -14.3600 C   0  0  0  0  0  0  0  0  0  0  0  0
   22.9617   -5.1846  -15.3701 O   0  0  0  0  0  0  0  0  0  0  0  0
   22.1348   -5.2388  -13.2662 O   0  0  0  0  0  0  0  0  0  0  0  0
  2  1  1  6
  2  4  1  0
  3  2  1  0
  4  5  1  6
  6  4  1  0
  7  6  2  0
  8  9  1  0
 10  9  1  6
 10 11  1  0
 10 12  1  0
 11  6  1  0
 12 18  1  0
 12 13  2  0
 15 14  1  1
 16 15  1  0
 17 15  1  0
 17 18  1  6
 19 17  1  0
 19 20  1  0
 21 19  2  0
M  END
$$$$
