VSV.pdb
     RDKit          3D

 21 20  0  0  1  0  0  0  0  0999 V2000
   15.2623  -10.4784  -10.9959 C   0  0  0  0  0  0  0  0  0  0  0  0
   14.3819  -11.6435  -11.3785 C   0  0  1  0  0  0  0  0  0  0  0  0
   13.1172  -11.6355  -10.5742 C   0  0  0  0  0  0  0  0  0  0  0  0
   14.1288  -11.6767  -12.8715 C   0  0  2  0  0  0  0  0  0  0  0  0
   13.4025  -12.8684  -13.1774 N   0  0  0  0  0  0  0  0  0  0  0  0
   15.3572  -11.5047  -13.6539 C   0  0  0  0  0  0  0  0  0  0  0  0
   16.0256  -12.5109  -13.9709 O   0  0  0  0  0  0  0  0  0  0  0  0
   15.9251   -8.5337  -16.3879 O   0  0  0  0  0  0  0  0  0  0  0  0
   16.6815   -9.7002  -16.3386 C   0  0  0  0  0  0  0  0  0  0  0  0
   17.0120  -10.0863  -14.9153 C   0  0  2  0  0  0  0  0  0  0  0  0
   15.8541  -10.2309  -14.0896 N   0  0  0  0  0  0  0  0  0  0  0  0
   17.8770   -9.0188  -14.3606 C   0  0  0  0  0  0  0  0  0  0  0  0
   17.3841   -8.1389  -13.6406 O   0  0  0  0  0  0  0  0  0  0  0  0
   22.0661   -8.9446  -15.2610 C   0  0  0  0  0  0  0  0  0  0  0  0
   21.5306   -8.4681  -13.9398 C   0  0  2  0  0  0  0  0  0  0  0  0
   21.5956   -9.5907  -12.9515 C   0  0  0  0  0  0  0  0  0  0  0  0
   20.1202   -7.9111  -14.0766 C   0  0  2  0  0  0  0  0  0  0  0  0
   19.2747   -8.9506  -14.6176 N   0  0  0  0  0  0  0  0  0  0  0  0
   20.0899   -6.6816  -14.9010 C   0  0  0  0  0  0  0  0  0  0  0  0
   20.5000   -5.4815  -14.3850 O   0  0  0  0  0  0  0  0  0  0  0  0
   19.6858   -6.7266  -16.0879 O   0  0  0  0  0  0  0  0  0  0  0  0
  2  1  1  6
  2  4  1  0
  3  2  1  0
  4  5  1  6
  6  4  1  0
  7  6  2  0
  8  9  1  0
 10  9  1  6
 10 11  1  0
 10 12  1  0
 11  6  1  0
 12 18  1  0
 12 13  2  0
 15 14  1  6
 16 15  1  0
 17 15  1  0
 17 18  1  6
 19 17  1  0
 19 20  1  0
 21 19  2  0
M  END
$$$$
