VSV.pdb
     RDKit          3D

 21 20  0  0  1  0  0  0  0  0999 V2000
   12.4561  -11.9752  -10.5428 C   0  0  0  0  0  0  0  0  0  0  0  0
   12.7871  -10.5145  -10.3530 C   0  0  1  0  0  0  0  0  0  0  0  0
   12.9072  -10.1860   -8.8956 C   0  0  0  0  0  0  0  0  0  0  0  0
   14.0143  -10.1192  -11.1478 C   0  0  2  0  0  0  0  0  0  0  0  0
   15.0971  -10.9625  -10.7508 N   0  0  0  0  0  0  0  0  0  0  0  0
   14.3057   -8.6848  -11.0558 C   0  0  0  0  0  0  0  0  0  0  0  0
   13.4646   -7.8624  -11.4751 O   0  0  0  0  0  0  0  0  0  0  0  0
   16.1899   -6.2527   -8.1847 O   0  0  0  0  0  0  0  0  0  0  0  0
   16.8101   -6.3647   -9.4248 C   0  0  0  0  0  0  0  0  0  0  0  0
   15.8255   -6.7544  -10.5033 C   0  0  2  0  0  0  0  0  0  0  0  0
   15.5183   -8.1505  -10.5048 N   0  0  0  0  0  0  0  0  0  0  0  0
   16.4314   -6.3864  -11.8044 C   0  0  0  0  0  0  0  0  0  0  0  0
   17.3237   -7.0955  -12.2907 O   0  0  0  0  0  0  0  0  0  0  0  0
   14.5335   -3.5214  -14.1762 C   0  0  0  0  0  0  0  0  0  0  0  0
   15.4474   -4.5558  -14.7710 C   0  0  2  0  0  0  0  0  0  0  0  0
   14.6452   -5.7653  -15.1379 C   0  0  0  0  0  0  0  0  0  0  0  0
   16.5933   -4.8974  -13.8283 C   0  0  2  0  0  0  0  0  0  0  0  0
   16.0327   -5.2358  -12.5401 N   0  0  0  0  0  0  0  0  0  0  0  0
   17.5790   -3.7964  -13.7361 C   0  0  0  0  0  0  0  0  0  0  0  0
   17.7350   -3.0908  -12.5732 O   0  0  0  0  0  0  0  0  0  0  0  0
   18.2858   -3.4966  -14.7284 O   0  0  0  0  0  0  0  0  0  0  0  0
  2  1  1  1
  2  4  1  0
  3  2  1  0
  4  5  1  1
  6  4  1  0
  7  6  2  0
  8  9  1  0
 10  9  1  1
 10 11  1  0
 10 12  1  0
 11  6  1  0
 12 18  1  0
 12 13  2  0
 15 14  1  1
 16 15  1  0
 17 15  1  0
 17 18  1  1
 19 17  1  0
 19 20  1  0
 21 19  2  0
M  END
$$$$
