VSV.pdb
     RDKit          3D

 21 20  0  0  1  0  0  0  0  0999 V2000
   13.7723  -12.9681  -15.6419 C   0  0  0  0  0  0  0  0  0  0  0  0
   14.3711  -12.0435  -14.6096 C   0  0  1  0  0  0  0  0  0  0  0  0
   13.5403  -12.0370  -13.3622 C   0  0  0  0  0  0  0  0  0  0  0  0
   15.8245  -12.3784  -14.3460 C   0  0  2  0  0  0  0  0  0  0  0  0
   15.9129  -13.7655  -14.0154 N   0  0  0  0  0  0  0  0  0  0  0  0
   16.4368  -11.4854  -13.3568 C   0  0  0  0  0  0  0  0  0  0  0  0
   16.4581  -11.8270  -12.1558 O   0  0  0  0  0  0  0  0  0  0  0  0
   18.1995   -7.7607  -14.3984 O   0  0  0  0  0  0  0  0  0  0  0  0
   18.6621   -8.4349  -13.2729 C   0  0  0  0  0  0  0  0  0  0  0  0
   17.6046   -9.3522  -12.7032 C   0  0  2  0  0  0  0  0  0  0  0  0
   17.0259  -10.2180  -13.6824 N   0  0  0  0  0  0  0  0  0  0  0  0
   16.5453   -8.4939  -12.1231 C   0  0  0  0  0  0  0  0  0  0  0  0
   15.5219   -8.2512  -12.7784 O   0  0  0  0  0  0  0  0  0  0  0  0
   14.8472   -8.6128   -8.6800 C   0  0  0  0  0  0  0  0  0  0  0  0
   15.4352   -7.2414   -8.8608 C   0  0  2  0  0  0  0  0  0  0  0  0
   14.5202   -6.2309   -8.2423 C   0  0  0  0  0  0  0  0  0  0  0  0
   15.7081   -6.9395  -10.3280 C   0  0  2  0  0  0  0  0  0  0  0  0
   16.6448   -7.9215  -10.8244 N   0  0  0  0  0  0  0  0  0  0  0  0
   16.1941   -5.5549  -10.5254 C   0  0  0  0  0  0  0  0  0  0  0  0
   15.3140   -4.5240  -10.7185 O   0  0  0  0  0  0  0  0  0  0  0  0
   17.4247   -5.3102  -10.5178 O   0  0  0  0  0  0  0  0  0  0  0  0
  2  1  1  6
  2  4  1  0
  3  2  1  0
  4  5  1  1
  6  4  1  0
  7  6  2  0
  8  9  1  0
 10  9  1  6
 10 11  1  0
 10 12  1  0
 11  6  1  0
 12 18  1  0
 12 13  2  0
 15 14  1  6
 16 15  1  0
 17 15  1  0
 17 18  1  1
 19 17  1  0
 19 20  1  0
 21 19  2  0
M  END
$$$$
