VSV.pdb
     RDKit          3D

 21 20  0  0  1  0  0  0  0  0999 V2000
   24.5888  -11.6397  -21.8770 C   0  0  0  0  0  0  0  0  0  0  0  0
   24.2676  -10.9115  -20.5941 C   0  0  1  0  0  0  0  0  0  0  0  0
   22.9825  -10.1517  -20.7265 C   0  0  0  0  0  0  0  0  0  0  0  0
   24.2737  -11.8541  -19.4085 C   0  0  2  0  0  0  0  0  0  0  0  0
   23.4121  -12.9544  -19.7052 N   0  0  0  0  0  0  0  0  0  0  0  0
   23.9646  -11.1728  -18.1471 C   0  0  0  0  0  0  0  0  0  0  0  0
   22.7712  -11.0028  -17.8209 O   0  0  0  0  0  0  0  0  0  0  0  0
   26.9803   -9.7414  -15.5414 O   0  0  0  0  0  0  0  0  0  0  0  0
   25.7622  -10.1237  -14.9889 C   0  0  0  0  0  0  0  0  0  0  0  0
   24.6441  -10.0411  -16.0025 C   0  0  2  0  0  0  0  0  0  0  0  0
   24.9624  -10.6774  -17.2424 N   0  0  0  0  0  0  0  0  0  0  0  0
   24.3772   -8.6041  -16.2454 C   0  0  0  0  0  0  0  0  0  0  0  0
   25.0905   -7.9705  -17.0363 O   0  0  0  0  0  0  0  0  0  0  0  0
   20.6369   -6.9046  -15.9573 C   0  0  0  0  0  0  0  0  0  0  0  0
   21.8401   -6.3093  -16.6333 C   0  0  2  0  0  0  0  0  0  0  0  0
   21.9881   -6.9166  -17.9935 C   0  0  0  0  0  0  0  0  0  0  0  0
   23.0972   -6.4839  -15.7921 C   0  0  2  0  0  0  0  0  0  0  0  0
   23.3214   -7.8989  -15.6035 N   0  0  0  0  0  0  0  0  0  0  0  0
   23.0056   -5.7570  -14.5054 C   0  0  0  0  0  0  0  0  0  0  0  0
   22.8787   -6.4369  -13.3237 O   0  0  0  0  0  0  0  0  0  0  0  0
   23.0435   -4.5031  -14.4840 O   0  0  0  0  0  0  0  0  0  0  0  0
  2  1  1  6
  2  4  1  0
  3  2  1  0
  4  5  1  6
  6  4  1  0
  7  6  2  0
  8  9  1  0
 10  9  1  1
 10 11  1  0
 10 12  1  0
 11  6  1  0
 12 18  1  0
 12 13  2  0
 15 14  1  1
 16 15  1  0
 17 15  1  0
 17 18  1  1
 19 17  1  0
 19 20  1  0
 21 19  2  0
M  END
$$$$
