VSV.pdb
     RDKit          3D

 21 20  0  0  1  0  0  0  0  0999 V2000
   18.1603  -14.2385  -17.0808 C   0  0  0  0  0  0  0  0  0  0  0  0
   18.2355  -13.0362  -16.1709 C   0  0  1  0  0  0  0  0  0  0  0  0
   19.2462  -13.2579  -15.0866 C   0  0  0  0  0  0  0  0  0  0  0  0
   18.4849  -11.7651  -16.9559 C   0  0  2  0  0  0  0  0  0  0  0  0
   19.6197  -11.9731  -17.7986 N   0  0  0  0  0  0  0  0  0  0  0  0
   18.5857  -10.5827  -16.0941 C   0  0  0  0  0  0  0  0  0  0  0  0
   17.5947  -10.2315  -15.4203 O   0  0  0  0  0  0  0  0  0  0  0  0
   22.1690   -8.3794  -15.6941 O   0  0  0  0  0  0  0  0  0  0  0  0
   21.2433   -8.3230  -14.6573 C   0  0  0  0  0  0  0  0  0  0  0  0
   19.8442   -8.6178  -15.1473 C   0  0  2  0  0  0  0  0  0  0  0  0
   19.7719   -9.7846  -15.9699 N   0  0  0  0  0  0  0  0  0  0  0  0
   19.3958   -7.4412  -15.9282 C   0  0  0  0  0  0  0  0  0  0  0  0
   19.5821   -7.4076  -17.1528 O   0  0  0  0  0  0  0  0  0  0  0  0
   16.1858   -5.8760  -16.6400 C   0  0  0  0  0  0  0  0  0  0  0  0
   16.9953   -4.8046  -15.9647 C   0  0  2  0  0  0  0  0  0  0  0  0
   16.6499   -3.4778  -16.5658 C   0  0  0  0  0  0  0  0  0  0  0  0
   18.4875   -5.0959  -16.0475 C   0  0  2  0  0  0  0  0  0  0  0  0
   18.7482   -6.3237  -15.3315 N   0  0  0  0  0  0  0  0  0  0  0  0
   19.2992   -3.9683  -15.5358 C   0  0  0  0  0  0  0  0  0  0  0  0
   19.7089   -2.9638  -16.3712 O   0  0  0  0  0  0  0  0  0  0  0  0
   19.6219   -3.9209  -14.3243 O   0  0  0  0  0  0  0  0  0  0  0  0
  2  1  1  6
  2  4  1  0
  3  2  1  0
  4  5  1  1
  6  4  1  0
  7  6  2  0
  8  9  1  0
 10  9  1  6
 10 11  1  0
 10 12  1  0
 11  6  1  0
 12 18  1  0
 12 13  2  0
 15 14  1  6
 16 15  1  0
 17 15  1  0
 17 18  1  1
 19 17  1  0
 19 20  1  0
 21 19  2  0
M  END
$$$$
