YYN.pdb
     RDKit          3D

 33 34  0  0  1  0  0  0  0  0999 V2000
   10.1767  -23.1543   14.5041 O   0  0  0  0  0  0  0  0  0  0  0  0
   10.3584  -22.2438   15.5240 C   0  0  0  0  0  0  0  0  0  0  0  0
   11.5836  -21.5956   15.6225 C   0  0  0  0  0  0  0  0  0  0  0  0
   11.7783  -20.6726   16.6504 C   0  0  0  0  0  0  0  0  0  0  0  0
   10.7770  -20.4149   17.5420 C   0  0  0  0  0  0  0  0  0  0  0  0
   10.9964  -19.4317   18.6307 C   0  0  0  0  0  0  0  0  0  0  0  0
   10.2390  -18.1416   18.3796 C   0  0  2  0  0  0  0  0  0  0  0  0
   10.6628  -17.5160   17.1637 N   0  0  0  0  0  0  0  0  0  0  0  0
   10.4246  -17.2802   19.5739 C   0  0  0  0  0  0  0  0  0  0  0  0
   11.5349  -16.7099   19.7130 O   0  0  0  0  0  0  0  0  0  0  0  0
    9.5544  -21.0790   17.4224 C   0  0  0  0  0  0  0  0  0  0  0  0
    9.3402  -21.9910   16.4193 C   0  0  0  0  0  0  0  0  0  0  0  0
    7.1385  -11.8099   17.8500 O   0  0  0  0  0  0  0  0  0  0  0  0
    7.4491  -12.6984   18.8717 C   0  0  0  0  0  0  0  0  0  0  0  0
    8.3068  -12.3543   19.8893 C   0  0  0  0  0  0  0  0  0  0  0  0
    8.6100  -13.2494   20.9047 C   0  0  0  0  0  0  0  0  0  0  0  0
    8.0603  -14.5195   20.9292 C   0  0  0  0  0  0  0  0  0  0  0  0
    8.4169  -15.4447   22.0418 C   0  0  0  0  0  0  0  0  0  0  0  0
    9.6287  -16.2692   21.6661 C   0  0  2  0  0  0  0  0  0  0  0  0
    9.3970  -17.1001   20.5273 N   0  0  0  0  0  0  0  0  0  0  0  0
    9.9646  -17.1161   22.8645 C   0  0  0  0  0  0  0  0  0  0  0  0
    9.2021  -18.0188   23.2811 O   0  0  0  0  0  0  0  0  0  0  0  0
    7.2060  -14.8650   19.9173 C   0  0  0  0  0  0  0  0  0  0  0  0
    6.9018  -13.9690   18.8999 C   0  0  0  0  0  0  0  0  0  0  0  0
   14.2162  -20.4020   24.2622 N   0  0  0  0  0  0  0  0  0  0  0  0
   14.0201  -19.0314   24.6339 C   0  0  0  0  0  0  0  0  0  0  0  0
   14.5190  -18.6726   25.7392 O   0  0  0  0  0  0  0  0  0  0  0  0
   13.2659  -18.1264   23.7350 C   0  0  0  0  0  0  0  0  0  0  0  0
   11.9061  -17.8729   24.2840 C   0  0  2  0  0  0  0  0  0  0  0  0
   11.1727  -16.8771   23.5271 N   0  0  0  0  0  0  0  0  0  0  0  0
   11.8898  -17.5110   25.7169 C   0  0  0  0  0  0  0  0  0  0  0  0
   12.0369  -18.3251   26.6609 O   0  0  0  0  0  0  0  0  0  0  0  0
   11.6966  -16.1627   26.0452 O   0  0  0  0  0  0  0  0  0  0  0  0
  2  3  2  0
  2  1  1  0
  4  3  1  0
  5  4  2  0
  6  5  1  0
  7  6  1  0
  7  8  1  6
  9  7  1  0
  9 10  2  0
 11  5  1  0
 11 12  2  0
 12  2  1  0
 13 14  1  0
 14 24  2  0
 15 16  2  0
 15 14  1  0
 16 17  1  0
 17 23  2  0
 17 18  1  0
 19 20  1  0
 19 18  1  1
 20  9  1  0
 21 19  1  0
 22 21  2  0
 24 23  1  0
 25 26  1  0
 26 28  1  0
 27 26  2  0
 29 28  1  6
 29 30  1  0
 30 21  1  0
 31 29  1  0
 31 33  1  0
 32 31  2  0
M  END
$$$$
