YYN.pdb
     RDKit          3D

 33 34  0  0  1  0  0  0  0  0999 V2000
    5.9909  -24.4779   18.8986 O   0  0  0  0  0  0  0  0  0  0  0  0
    6.7083  -23.4265   19.4297 C   0  0  0  0  0  0  0  0  0  0  0  0
    6.0094  -22.3477   19.9576 C   0  0  0  0  0  0  0  0  0  0  0  0
    6.7252  -21.2787   20.4974 C   0  0  0  0  0  0  0  0  0  0  0  0
    8.0903  -21.2984   20.5037 C   0  0  0  0  0  0  0  0  0  0  0  0
    8.8398  -20.1556   21.0802 C   0  0  0  0  0  0  0  0  0  0  0  0
    8.7555  -18.9277   20.1935 C   0  0  2  0  0  0  0  0  0  0  0  0
    9.3014  -19.1833   18.8951 N   0  0  0  0  0  0  0  0  0  0  0  0
    9.4396  -17.8199   20.9059 C   0  0  0  0  0  0  0  0  0  0  0  0
   10.6945  -17.7888   20.8643 O   0  0  0  0  0  0  0  0  0  0  0  0
    8.7702  -22.3938   19.9674 C   0  0  0  0  0  0  0  0  0  0  0  0
    8.0872  -23.4566   19.4310 C   0  0  0  0  0  0  0  0  0  0  0  0
    7.1279  -12.3817   17.5229 O   0  0  0  0  0  0  0  0  0  0  0  0
    7.4872  -12.9183   18.7528 C   0  0  0  0  0  0  0  0  0  0  0  0
    8.7706  -12.8183   19.2348 C   0  0  0  0  0  0  0  0  0  0  0  0
    9.1185  -13.3578   20.4645 C   0  0  0  0  0  0  0  0  0  0  0  0
    8.1867  -14.0152   21.2489 C   0  0  0  0  0  0  0  0  0  0  0  0
    8.6095  -14.5774   22.5629 C   0  0  0  0  0  0  0  0  0  0  0  0
    9.4228  -15.8360   22.3539 C   0  0  2  0  0  0  0  0  0  0  0  0
    8.7167  -16.8299   21.6090 N   0  0  0  0  0  0  0  0  0  0  0  0
    9.7658  -16.3619   23.7221 C   0  0  0  0  0  0  0  0  0  0  0  0
    8.8955  -16.5561   24.6023 O   0  0  0  0  0  0  0  0  0  0  0  0
    6.9080  -14.1164   20.7716 C   0  0  0  0  0  0  0  0  0  0  0  0
    6.5586  -13.5763   19.5401 C   0  0  0  0  0  0  0  0  0  0  0  0
   12.5706  -18.8138   27.2364 N   0  0  0  0  0  0  0  0  0  0  0  0
   11.5561  -19.4413   26.4414 C   0  0  0  0  0  0  0  0  0  0  0  0
   11.2477  -20.6262   26.7580 O   0  0  0  0  0  0  0  0  0  0  0  0
   10.9346  -18.6970   25.3208 C   0  0  0  0  0  0  0  0  0  0  0  0
   11.5648  -17.3558   25.1827 C   0  0  2  0  0  0  0  0  0  0  0  0
   11.1063  -16.6395   24.0084 N   0  0  0  0  0  0  0  0  0  0  0  0
   13.0425  -17.3770   25.1994 C   0  0  0  0  0  0  0  0  0  0  0  0
   13.7388  -17.9373   26.0807 O   0  0  0  0  0  0  0  0  0  0  0  0
   13.7143  -16.7250   24.1570 O   0  0  0  0  0  0  0  0  0  0  0  0
  2  3  2  0
  2  1  1  0
  4  3  1  0
  5  4  2  0
  6  5  1  0
  7  6  1  0
  7  8  1  6
  9  7  1  0
  9 10  2  0
 11  5  1  0
 11 12  2  0
 12  2  1  0
 13 14  1  0
 14 24  2  0
 15 16  2  0
 15 14  1  0
 16 17  1  0
 17 23  2  0
 17 18  1  0
 19 20  1  0
 19 18  1  1
 20  9  1  0
 21 19  1  0
 22 21  2  0
 24 23  1  0
 25 26  1  0
 26 28  1  0
 27 26  2  0
 29 28  1  6
 29 30  1  0
 30 21  1  0
 31 29  1  0
 31 33  1  0
 32 31  2  0
M  END
$$$$
