YYN.pdb
     RDKit          3D

 33 34  0  0  1  0  0  0  0  0999 V2000
    7.6124  -11.3031   27.4354 O   0  0  0  0  0  0  0  0  0  0  0  0
    7.4412  -12.6029   27.0069 C   0  0  0  0  0  0  0  0  0  0  0  0
    6.1903  -13.1895   27.1547 C   0  0  0  0  0  0  0  0  0  0  0  0
    6.0060  -14.5039   26.7247 C   0  0  0  0  0  0  0  0  0  0  0  0
    7.0423  -15.1970   26.1684 C   0  0  0  0  0  0  0  0  0  0  0  0
    6.8338  -16.5940   25.7154 C   0  0  0  0  0  0  0  0  0  0  0  0
    6.5231  -16.6601   24.2320 C   0  0  2  0  0  0  0  0  0  0  0  0
    5.6497  -17.7533   23.9302 N   0  0  0  0  0  0  0  0  0  0  0  0
    7.8186  -16.7326   23.5116 C   0  0  0  0  0  0  0  0  0  0  0  0
    8.2384  -17.8697   23.1825 O   0  0  0  0  0  0  0  0  0  0  0  0
    8.2903  -14.5859   26.0304 C   0  0  0  0  0  0  0  0  0  0  0  0
    8.4949  -13.2941   26.4462 C   0  0  0  0  0  0  0  0  0  0  0  0
    6.1387  -13.5022   17.2862 O   0  0  0  0  0  0  0  0  0  0  0  0
    7.0388  -13.6907   18.3273 C   0  0  0  0  0  0  0  0  0  0  0  0
    7.7394  -14.8647   18.4697 C   0  0  0  0  0  0  0  0  0  0  0  0
    8.6360  -15.0424   19.5132 C   0  0  0  0  0  0  0  0  0  0  0  0
    8.8568  -14.0448   20.4469 C   0  0  0  0  0  0  0  0  0  0  0  0
    9.8306  -14.2837   21.5496 C   0  0  0  0  0  0  0  0  0  0  0  0
    9.5715  -15.6292   22.1914 C   0  0  2  0  0  0  0  0  0  0  0  0
    8.5625  -15.5718   23.2013 N   0  0  0  0  0  0  0  0  0  0  0  0
   10.8766  -16.0820   22.7895 C   0  0  0  0  0  0  0  0  0  0  0  0
   11.8939  -16.2982   22.0908 O   0  0  0  0  0  0  0  0  0  0  0  0
    8.1607  -12.8747   20.3077 C   0  0  0  0  0  0  0  0  0  0  0  0
    7.2625  -12.6959   19.2629 C   0  0  0  0  0  0  0  0  0  0  0  0
   13.9819  -17.1703   22.9664 N   0  0  0  0  0  0  0  0  0  0  0  0
   14.2400  -16.1522   23.9420 C   0  0  0  0  0  0  0  0  0  0  0  0
   15.3580  -15.5667   23.8602 O   0  0  0  0  0  0  0  0  0  0  0  0
   13.2179  -15.8419   24.9692 C   0  0  0  0  0  0  0  0  0  0  0  0
   12.0886  -16.8069   24.8783 C   0  0  2  0  0  0  0  0  0  0  0  0
   10.9430  -16.2641   24.1745 N   0  0  0  0  0  0  0  0  0  0  0  0
   11.6520  -17.3519   26.1808 C   0  0  0  0  0  0  0  0  0  0  0  0
   10.4790  -17.2914   26.6234 O   0  0  0  0  0  0  0  0  0  0  0  0
   12.6165  -17.9813   26.9789 O   0  0  0  0  0  0  0  0  0  0  0  0
  2  3  2  0
  2  1  1  0
  4  3  1  0
  5  4  2  0
  6  5  1  0
  7  6  1  0
  7  8  1  1
  9  7  1  0
  9 10  2  0
 11  5  1  0
 11 12  2  0
 12  2  1  0
 13 14  1  0
 14 24  2  0
 15 16  2  0
 15 14  1  0
 16 17  1  0
 17 23  2  0
 17 18  1  0
 19 20  1  0
 19 18  1  1
 20  9  1  0
 21 19  1  0
 22 21  2  0
 24 23  1  0
 25 26  1  0
 26 28  1  0
 27 26  2  0
 29 28  1  1
 29 30  1  0
 30 21  1  0
 31 29  1  0
 31 33  1  0
 32 31  2  0
M  END
$$$$
