YYN.pdb
     RDKit          3D

 33 34  0  0  1  0  0  0  0  0999 V2000
    9.0439  -23.0119   17.1741 O   0  0  0  0  0  0  0  0  0  0  0  0
    9.2545  -22.0177   18.1065 C   0  0  0  0  0  0  0  0  0  0  0  0
   10.4885  -21.3792   18.1264 C   0  0  0  0  0  0  0  0  0  0  0  0
   10.7123  -20.3720   19.0656 C   0  0  0  0  0  0  0  0  0  0  0  0
    9.7305  -20.0242   19.9481 C   0  0  0  0  0  0  0  0  0  0  0  0
    9.9809  -18.9521   20.9420 C   0  0  0  0  0  0  0  0  0  0  0  0
    9.8012  -17.5737   20.3345 C   0  0  2  0  0  0  0  0  0  0  0  0
   10.8530  -17.2688   19.4126 N   0  0  0  0  0  0  0  0  0  0  0  0
    9.7091  -16.6050   21.4552 C   0  0  0  0  0  0  0  0  0  0  0  0
   10.7744  -16.0699   21.8506 O   0  0  0  0  0  0  0  0  0  0  0  0
    8.4986  -20.6804   19.9085 C   0  0  0  0  0  0  0  0  0  0  0  0
    8.2557  -21.6742   18.9935 C   0  0  0  0  0  0  0  0  0  0  0  0
    7.3146  -11.1424   27.7747 O   0  0  0  0  0  0  0  0  0  0  0  0
    7.2598  -12.0203   26.6996 C   0  0  0  0  0  0  0  0  0  0  0  0
    7.9552  -11.7810   25.5383 C   0  0  0  0  0  0  0  0  0  0  0  0
    7.8935  -12.6646   24.4707 C   0  0  0  0  0  0  0  0  0  0  0  0
    7.1303  -13.8173   24.5369 C   0  0  0  0  0  0  0  0  0  0  0  0
    7.0967  -14.7354   23.3633 C   0  0  0  0  0  0  0  0  0  0  0  0
    8.4452  -15.3966   23.1800 C   0  0  2  0  0  0  0  0  0  0  0  0
    8.4737  -16.2877   22.0637 N   0  0  0  0  0  0  0  0  0  0  0  0
    8.7342  -16.1501   24.4508 C   0  0  0  0  0  0  0  0  0  0  0  0
    7.9733  -17.0453   24.8860 O   0  0  0  0  0  0  0  0  0  0  0  0
    6.4367  -14.0584   25.6919 C   0  0  0  0  0  0  0  0  0  0  0  0
    6.4980  -13.1739   26.7617 C   0  0  0  0  0  0  0  0  0  0  0  0
   13.1123  -17.1012   24.1674 N   0  0  0  0  0  0  0  0  0  0  0  0
   12.1886  -17.6128   25.1370 C   0  0  0  0  0  0  0  0  0  0  0  0
   11.7272  -18.7696   24.9170 O   0  0  0  0  0  0  0  0  0  0  0  0
   11.8279  -16.7895   26.3152 C   0  0  0  0  0  0  0  0  0  0  0  0
   10.3611  -16.5391   26.3374 C   0  0  2  0  0  0  0  0  0  0  0  0
    9.8957  -15.8305   25.1612 N   0  0  0  0  0  0  0  0  0  0  0  0
    9.8844  -15.8430   27.5509 C   0  0  0  0  0  0  0  0  0  0  0  0
    9.2748  -14.7458   27.5520 O   0  0  0  0  0  0  0  0  0  0  0  0
   10.1304  -16.4515   28.7888 O   0  0  0  0  0  0  0  0  0  0  0  0
  2  3  2  0
  2  1  1  0
  4  3  1  0
  5  4  2  0
  6  5  1  0
  7  6  1  0
  7  8  1  6
  9  7  1  0
  9 10  2  0
 11  5  1  0
 11 12  2  0
 12  2  1  0
 13 14  1  0
 14 24  2  0
 15 16  2  0
 15 14  1  0
 16 17  1  0
 17 23  2  0
 17 18  1  0
 19 20  1  0
 19 18  1  1
 20  9  1  0
 21 19  1  0
 22 21  2  0
 24 23  1  0
 25 26  1  0
 26 28  1  0
 27 26  2  0
 29 28  1  1
 29 30  1  0
 30 21  1  0
 31 29  1  0
 31 33  1  0
 32 31  2  0
M  END
$$$$
