YYN.pdb
     RDKit          3D

 33 34  0  0  1  0  0  0  0  0999 V2000
    6.1392  -10.7046   26.9741 O   0  0  0  0  0  0  0  0  0  0  0  0
    6.3547  -12.0424   26.7165 C   0  0  0  0  0  0  0  0  0  0  0  0
    5.3184  -12.7858   26.1648 C   0  0  0  0  0  0  0  0  0  0  0  0
    5.5255  -14.1399   25.9003 C   0  0  0  0  0  0  0  0  0  0  0  0
    6.7294  -14.7192   26.1814 C   0  0  0  0  0  0  0  0  0  0  0  0
    6.9370  -16.1598   25.8959 C   0  0  0  0  0  0  0  0  0  0  0  0
    6.5502  -16.5086   24.4711 C   0  0  2  0  0  0  0  0  0  0  0  0
    5.7041  -17.6625   24.4279 N   0  0  0  0  0  0  0  0  0  0  0  0
    7.8072  -16.6781   23.7004 C   0  0  0  0  0  0  0  0  0  0  0  0
    8.1563  -17.8483   23.4069 O   0  0  0  0  0  0  0  0  0  0  0  0
    7.7556  -13.9513   26.7357 C   0  0  0  0  0  0  0  0  0  0  0  0
    7.5748  -12.6176   27.0044 C   0  0  0  0  0  0  0  0  0  0  0  0
    6.5985  -13.7585   17.2601 O   0  0  0  0  0  0  0  0  0  0  0  0
    7.4509  -13.9408   18.3417 C   0  0  0  0  0  0  0  0  0  0  0  0
    8.3169  -15.0063   18.4044 C   0  0  0  0  0  0  0  0  0  0  0  0
    9.1640  -15.1787   19.4894 C   0  0  0  0  0  0  0  0  0  0  0  0
    9.1671  -14.2847   20.5461 C   0  0  0  0  0  0  0  0  0  0  0  0
   10.0961  -14.5132   21.6888 C   0  0  0  0  0  0  0  0  0  0  0  0
    9.7062  -15.7710   22.4341 C   0  0  2  0  0  0  0  0  0  0  0  0
    8.5917  -15.5710   23.3053 N   0  0  0  0  0  0  0  0  0  0  0  0
   10.9131  -16.1957   23.2275 C   0  0  0  0  0  0  0  0  0  0  0  0
   11.5320  -15.4066   23.9787 O   0  0  0  0  0  0  0  0  0  0  0  0
    8.3058  -13.2228   20.4864 C   0  0  0  0  0  0  0  0  0  0  0  0
    7.4571  -13.0494   19.4002 C   0  0  0  0  0  0  0  0  0  0  0  0
   11.6486  -20.3992   23.0856 N   0  0  0  0  0  0  0  0  0  0  0  0
   12.3444  -20.0822   21.8729 C   0  0  0  0  0  0  0  0  0  0  0  0
   12.4179  -21.0042   21.0104 O   0  0  0  0  0  0  0  0  0  0  0  0
   12.9272  -18.7319   21.6909 C   0  0  0  0  0  0  0  0  0  0  0  0
   12.7296  -17.9170   22.9204 C   0  0  2  0  0  0  0  0  0  0  0  0
   11.3487  -17.5197   23.1134 N   0  0  0  0  0  0  0  0  0  0  0  0
   13.5998  -16.7253   23.0027 C   0  0  0  0  0  0  0  0  0  0  0  0
   13.7961  -15.9178   22.0620 O   0  0  0  0  0  0  0  0  0  0  0  0
   14.2525  -16.4791   24.2179 O   0  0  0  0  0  0  0  0  0  0  0  0
  2  3  2  0
  2  1  1  0
  4  3  1  0
  5  4  2  0
  6  5  1  0
  7  6  1  0
  7  8  1  1
  9  7  1  0
  9 10  2  0
 11  5  1  0
 11 12  2  0
 12  2  1  0
 13 14  1  0
 14 24  2  0
 15 16  2  0
 15 14  1  0
 16 17  1  0
 17 23  2  0
 17 18  1  0
 19 20  1  0
 19 18  1  1
 20  9  1  0
 21 19  1  0
 22 21  2  0
 24 23  1  0
 25 26  1  0
 26 28  1  0
 27 26  2  0
 29 28  1  6
 29 30  1  0
 30 21  1  0
 31 29  1  0
 31 33  1  0
 32 31  2  0
M  END
$$$$
