YYN.pdb
     RDKit          3D

 33 34  0  0  1  0  0  0  0  0999 V2000
    9.8559  -22.1810   15.6444 O   0  0  0  0  0  0  0  0  0  0  0  0
    9.9032  -21.3167   16.7181 C   0  0  0  0  0  0  0  0  0  0  0  0
    8.7111  -20.7804   17.1895 C   0  0  0  0  0  0  0  0  0  0  0  0
    8.7475  -19.9049   18.2752 C   0  0  0  0  0  0  0  0  0  0  0  0
    9.9384  -19.5843   18.8605 C   0  0  0  0  0  0  0  0  0  0  0  0
    9.9639  -18.6520   20.0139 C   0  0  0  0  0  0  0  0  0  0  0  0
    9.7851  -17.2118   19.5724 C   0  0  2  0  0  0  0  0  0  0  0  0
   10.8330  -16.8039   18.6864 N   0  0  0  0  0  0  0  0  0  0  0  0
    9.7019  -16.3803   20.7989 C   0  0  0  0  0  0  0  0  0  0  0  0
   10.7719  -15.9043   21.2527 O   0  0  0  0  0  0  0  0  0  0  0  0
   11.1232  -20.1361   18.3688 C   0  0  0  0  0  0  0  0  0  0  0  0
   11.1119  -20.9995   17.3020 C   0  0  0  0  0  0  0  0  0  0  0  0
    7.0324  -11.6332   27.6486 O   0  0  0  0  0  0  0  0  0  0  0  0
    7.0293  -12.4538   26.5278 C   0  0  0  0  0  0  0  0  0  0  0  0
    6.4081  -13.6800   26.5348 C   0  0  0  0  0  0  0  0  0  0  0  0
    6.4110  -14.4915   25.4098 C   0  0  0  0  0  0  0  0  0  0  0  0
    7.0389  -14.0957   24.2415 C   0  0  0  0  0  0  0  0  0  0  0  0
    7.0139  -15.0030   23.0594 C   0  0  0  0  0  0  0  0  0  0  0  0
    8.4086  -15.1614   22.4943 C   0  0  2  0  0  0  0  0  0  0  0  0
    8.4695  -16.1260   21.4422 N   0  0  0  0  0  0  0  0  0  0  0  0
    9.2929  -15.5853   23.6365 C   0  0  0  0  0  0  0  0  0  0  0  0
    9.9154  -14.7592   24.3435 O   0  0  0  0  0  0  0  0  0  0  0  0
    7.6583  -12.8753   24.2315 C   0  0  0  0  0  0  0  0  0  0  0  0
    7.6559  -12.0619   25.3579 C   0  0  0  0  0  0  0  0  0  0  0  0
   11.5686  -17.1819   27.9006 N   0  0  0  0  0  0  0  0  0  0  0  0
   10.2428  -17.5566   27.5045 C   0  0  0  0  0  0  0  0  0  0  0  0
    9.6864  -18.4613   28.1910 O   0  0  0  0  0  0  0  0  0  0  0  0
    9.6049  -16.8882   26.3459 C   0  0  0  0  0  0  0  0  0  0  0  0
   10.0765  -17.5021   25.0749 C   0  0  2  0  0  0  0  0  0  0  0  0
    9.4155  -16.9518   23.9077 N   0  0  0  0  0  0  0  0  0  0  0  0
    9.9819  -18.9767   25.0435 C   0  0  0  0  0  0  0  0  0  0  0  0
   10.6395  -19.7505   25.7814 O   0  0  0  0  0  0  0  0  0  0  0  0
    9.0946  -19.5523   24.1245 O   0  0  0  0  0  0  0  0  0  0  0  0
  2  3  2  0
  2  1  1  0
  4  3  1  0
  5  4  2  0
  6  5  1  0
  7  6  1  0
  7  8  1  6
  9  7  1  0
  9 10  2  0
 11  5  1  0
 11 12  2  0
 12  2  1  0
 13 14  1  0
 14 24  2  0
 15 16  2  0
 15 14  1  0
 16 17  1  0
 17 23  2  0
 17 18  1  0
 19 20  1  0
 19 18  1  1
 20  9  1  0
 21 19  1  0
 22 21  2  0
 24 23  1  0
 25 26  1  0
 26 28  1  0
 27 26  2  0
 29 28  1  1
 29 30  1  0
 30 21  1  0
 31 29  1  0
 31 33  1  0
 32 31  2  0
M  END
$$$$
