YYN.pdb
     RDKit          3D

 33 34  0  0  1  0  0  0  0  0999 V2000
    5.9138  -10.7363   27.9415 O   0  0  0  0  0  0  0  0  0  0  0  0
    6.4253  -11.9622   27.5704 C   0  0  0  0  0  0  0  0  0  0  0  0
    7.3023  -12.6035   28.4368 C   0  0  0  0  0  0  0  0  0  0  0  0
    7.8258  -13.8440   28.0714 C   0  0  0  0  0  0  0  0  0  0  0  0
    7.4780  -14.4133   26.8803 C   0  0  0  0  0  0  0  0  0  0  0  0
    8.0416  -15.7324   26.5031 C   0  0  0  0  0  0  0  0  0  0  0  0
    7.0688  -16.5356   25.6607 C   0  0  2  0  0  0  0  0  0  0  0  0
    7.0094  -17.8998   26.0906 N   0  0  0  0  0  0  0  0  0  0  0  0
    7.4846  -16.3884   24.2436 C   0  0  0  0  0  0  0  0  0  0  0  0
    8.0463  -17.3700   23.6972 O   0  0  0  0  0  0  0  0  0  0  0  0
    6.5948  -13.7495   26.0264 C   0  0  0  0  0  0  0  0  0  0  0  0
    6.0673  -12.5284   26.3648 C   0  0  0  0  0  0  0  0  0  0  0  0
    9.0408  -13.5936   16.1038 O   0  0  0  0  0  0  0  0  0  0  0  0
    8.6286  -13.6363   17.4297 C   0  0  0  0  0  0  0  0  0  0  0  0
    9.1261  -12.7625   18.3668 C   0  0  0  0  0  0  0  0  0  0  0  0
    8.7075  -12.8139   19.6884 C   0  0  0  0  0  0  0  0  0  0  0  0
    7.7751  -13.7460   20.1097 C   0  0  0  0  0  0  0  0  0  0  0  0
    7.3571  -13.7608   21.5402 C   0  0  0  0  0  0  0  0  0  0  0  0
    7.7262  -15.0826   22.1774 C   0  0  2  0  0  0  0  0  0  0  0  0
    7.2624  -15.1925   23.5242 N   0  0  0  0  0  0  0  0  0  0  0  0
    9.2281  -15.1775   22.1384 C   0  0  0  0  0  0  0  0  0  0  0  0
    9.9574  -14.6009   22.9783 O   0  0  0  0  0  0  0  0  0  0  0  0
    7.2779  -14.6174   19.1788 C   0  0  0  0  0  0  0  0  0  0  0  0
    7.6966  -14.5666   17.8550 C   0  0  0  0  0  0  0  0  0  0  0  0
   12.2326  -17.6612   22.9983 N   0  0  0  0  0  0  0  0  0  0  0  0
   12.1182  -18.2972   21.7187 C   0  0  0  0  0  0  0  0  0  0  0  0
   12.4924  -19.5036   21.6559 O   0  0  0  0  0  0  0  0  0  0  0  0
   11.5839  -17.5366   20.5646 C   0  0  0  0  0  0  0  0  0  0  0  0
   11.2451  -16.1474   20.9772 C   0  0  2  0  0  0  0  0  0  0  0  0
    9.8178  -15.9388   21.1243 N   0  0  0  0  0  0  0  0  0  0  0  0
   11.8065  -15.1010   20.0974 C   0  0  0  0  0  0  0  0  0  0  0  0
   11.1559  -14.4784   19.2229 O   0  0  0  0  0  0  0  0  0  0  0  0
   13.1619  -14.7807   20.2504 O   0  0  0  0  0  0  0  0  0  0  0  0
  2  3  2  0
  2  1  1  0
  4  3  1  0
  5  4  2  0
  6  5  1  0
  7  6  1  0
  7  8  1  1
  9  7  1  0
  9 10  2  0
 11  5  1  0
 11 12  2  0
 12  2  1  0
 13 14  1  0
 14 24  2  0
 15 16  2  0
 15 14  1  0
 16 17  1  0
 17 23  2  0
 17 18  1  0
 19 20  1  0
 19 18  1  1
 20  9  1  0
 21 19  1  0
 22 21  2  0
 24 23  1  0
 25 26  1  0
 26 28  1  0
 27 26  2  0
 29 28  1  6
 29 30  1  0
 30 21  1  0
 31 29  1  0
 31 33  1  0
 32 31  2  0
M  END
$$$$
