YYN.pdb
     RDKit          3D

 33 34  0  0  1  0  0  0  0  0999 V2000
    3.9581  -21.7975   12.4846 O   0  0  0  0  0  0  0  0  0  0  0  0
    4.8357  -21.1426   13.3232 C   0  0  0  0  0  0  0  0  0  0  0  0
    5.2807  -21.8027   14.4621 C   0  0  0  0  0  0  0  0  0  0  0  0
    6.1687  -21.1495   15.3173 C   0  0  0  0  0  0  0  0  0  0  0  0
    6.5897  -19.8821   15.0340 C   0  0  0  0  0  0  0  0  0  0  0  0
    7.5336  -19.1982   15.9513 C   0  0  0  0  0  0  0  0  0  0  0  0
    7.9587  -17.8465   15.4098 C   0  0  2  0  0  0  0  0  0  0  0  0
    9.0062  -17.9778   14.4431 N   0  0  0  0  0  0  0  0  0  0  0  0
    8.3393  -17.0046   16.5713 C   0  0  0  0  0  0  0  0  0  0  0  0
    9.5644  -16.8459   16.7982 O   0  0  0  0  0  0  0  0  0  0  0  0
    6.1284  -19.2394   13.8833 C   0  0  0  0  0  0  0  0  0  0  0  0
    5.2547  -19.8622   13.0275 C   0  0  0  0  0  0  0  0  0  0  0  0
    8.4264  -12.1846   23.8598 O   0  0  0  0  0  0  0  0  0  0  0  0
    7.9926  -12.8345   22.7113 C   0  0  0  0  0  0  0  0  0  0  0  0
    7.3671  -14.0572   22.7685 C   0  0  0  0  0  0  0  0  0  0  0  0
    6.9377  -14.6974   21.6153 C   0  0  0  0  0  0  0  0  0  0  0  0
    7.1236  -14.1283   20.3673 C   0  0  0  0  0  0  0  0  0  0  0  0
    6.6442  -14.8555   19.1580 C   0  0  0  0  0  0  0  0  0  0  0  0
    7.7852  -15.6195   18.5226 C   0  0  2  0  0  0  0  0  0  0  0  0
    7.3681  -16.3980   17.3996 N   0  0  0  0  0  0  0  0  0  0  0  0
    8.3538  -16.5155   19.5904 C   0  0  0  0  0  0  0  0  0  0  0  0
    7.8622  -17.6373   19.8547 O   0  0  0  0  0  0  0  0  0  0  0  0
    7.7461  -12.9109   20.3071 C   0  0  0  0  0  0  0  0  0  0  0  0
    8.1765  -12.2690   21.4617 C   0  0  0  0  0  0  0  0  0  0  0  0
   12.9536  -19.0232   20.6448 N   0  0  0  0  0  0  0  0  0  0  0  0
   12.7148  -17.7138   21.1774 C   0  0  0  0  0  0  0  0  0  0  0  0
   13.3162  -17.4266   22.2521 O   0  0  0  0  0  0  0  0  0  0  0  0
   11.8031  -16.7861   20.4672 C   0  0  0  0  0  0  0  0  0  0  0  0
   10.4145  -16.9367   20.9809 C   0  0  2  0  0  0  0  0  0  0  0  0
    9.4698  -16.0688   20.3052 N   0  0  0  0  0  0  0  0  0  0  0  0
   10.2873  -16.7579   22.4425 C   0  0  0  0  0  0  0  0  0  0  0  0
   10.8896  -17.4470   23.3015 O   0  0  0  0  0  0  0  0  0  0  0  0
    9.4334  -15.7467   22.9023 O   0  0  0  0  0  0  0  0  0  0  0  0
  2  3  2  0
  2  1  1  0
  4  3  1  0
  5  4  2  0
  6  5  1  0
  7  6  1  0
  7  8  1  6
  9  7  1  0
  9 10  2  0
 11  5  1  0
 11 12  2  0
 12  2  1  0
 13 14  1  0
 14 24  2  0
 15 16  2  0
 15 14  1  0
 16 17  1  0
 17 23  2  0
 17 18  1  0
 19 20  1  0
 19 18  1  1
 20  9  1  0
 21 19  1  0
 22 21  2  0
 24 23  1  0
 25 26  1  0
 26 28  1  0
 27 26  2  0
 29 28  1  6
 29 30  1  0
 30 21  1  0
 31 29  1  0
 31 33  1  0
 32 31  2  0
M  END
$$$$
