YYN.pdb
     RDKit          3D

 33 34  0  0  1  0  0  0  0  0999 V2000
    6.0164  -13.3887   16.4595 O   0  0  0  0  0  0  0  0  0  0  0  0
    7.1322  -13.9412   17.0529 C   0  0  0  0  0  0  0  0  0  0  0  0
    7.8359  -13.1795   17.9779 C   0  0  0  0  0  0  0  0  0  0  0  0
    8.9661  -13.7284   18.5842 C   0  0  0  0  0  0  0  0  0  0  0  0
    9.3690  -14.9943   18.2693 C   0  0  0  0  0  0  0  0  0  0  0  0
   10.5726  -15.5665   18.9205 C   0  0  0  0  0  0  0  0  0  0  0  0
   10.2159  -16.7194   19.8396 C   0  0  2  0  0  0  0  0  0  0  0  0
    9.0577  -17.4195   19.3730 N   0  0  0  0  0  0  0  0  0  0  0  0
   10.0493  -16.1615   21.2048 C   0  0  0  0  0  0  0  0  0  0  0  0
   11.0788  -15.7490   21.7942 O   0  0  0  0  0  0  0  0  0  0  0  0
    8.6454  -15.7402   17.3366 C   0  0  0  0  0  0  0  0  0  0  0  0
    7.5305  -15.2209   16.7275 C   0  0  0  0  0  0  0  0  0  0  0  0
    7.3248  -12.0470   28.2950 O   0  0  0  0  0  0  0  0  0  0  0  0
    7.3134  -12.7684   27.1079 C   0  0  0  0  0  0  0  0  0  0  0  0
    7.8931  -12.2784   25.9619 C   0  0  0  0  0  0  0  0  0  0  0  0
    7.8760  -13.0073   24.7818 C   0  0  0  0  0  0  0  0  0  0  0  0
    7.2752  -14.2525   24.7164 C   0  0  0  0  0  0  0  0  0  0  0  0
    7.2833  -14.9968   23.4252 C   0  0  0  0  0  0  0  0  0  0  0  0
    8.6721  -15.5230   23.1357 C   0  0  2  0  0  0  0  0  0  0  0  0
    8.7837  -16.0915   21.8298 N   0  0  0  0  0  0  0  0  0  0  0  0
    8.9663  -16.5660   24.1806 C   0  0  0  0  0  0  0  0  0  0  0  0
    8.3118  -17.6309   24.2664 O   0  0  0  0  0  0  0  0  0  0  0  0
    6.6971  -14.7430   25.8559 C   0  0  0  0  0  0  0  0  0  0  0  0
    6.7138  -14.0136   27.0383 C   0  0  0  0  0  0  0  0  0  0  0  0
   12.8784  -18.8450   27.7062 N   0  0  0  0  0  0  0  0  0  0  0  0
   12.0007  -17.7310   27.9157 C   0  0  0  0  0  0  0  0  0  0  0  0
   11.5353  -17.5948   29.0836 O   0  0  0  0  0  0  0  0  0  0  0  0
   11.6887  -16.8188   26.7902 C   0  0  0  0  0  0  0  0  0  0  0  0
   10.4452  -17.2593   26.1015 C   0  0  2  0  0  0  0  0  0  0  0  0
   10.0092  -16.3261   25.0810 N   0  0  0  0  0  0  0  0  0  0  0  0
    9.3194  -17.5513   27.0134 C   0  0  0  0  0  0  0  0  0  0  0  0
    8.9149  -18.7038   27.3027 O   0  0  0  0  0  0  0  0  0  0  0  0
    8.6561  -16.4639   27.5971 O   0  0  0  0  0  0  0  0  0  0  0  0
  2  3  2  0
  2  1  1  0
  4  3  1  0
  5  4  2  0
  6  5  1  0
  7  6  1  0
  7  8  1  6
  9  7  1  0
  9 10  2  0
 11  5  1  0
 11 12  2  0
 12  2  1  0
 13 14  1  0
 14 24  2  0
 15 16  2  0
 15 14  1  0
 16 17  1  0
 17 23  2  0
 17 18  1  0
 19 20  1  0
 19 18  1  1
 20  9  1  0
 21 19  1  0
 22 21  2  0
 24 23  1  0
 25 26  1  0
 26 28  1  0
 27 26  2  0
 29 28  1  1
 29 30  1  0
 30 21  1  0
 31 29  1  0
 31 33  1  0
 32 31  2  0
M  END
$$$$
