YYN.pdb
     RDKit          3D

 33 34  0  0  1  0  0  0  0  0999 V2000
    7.6551  -13.6331   15.5243 O   0  0  0  0  0  0  0  0  0  0  0  0
    8.0373  -13.7476   16.8446 C   0  0  0  0  0  0  0  0  0  0  0  0
    7.3450  -13.0141   17.8003 C   0  0  0  0  0  0  0  0  0  0  0  0
    7.7233  -13.1224   19.1389 C   0  0  0  0  0  0  0  0  0  0  0  0
    8.7581  -13.9377   19.4972 C   0  0  0  0  0  0  0  0  0  0  0  0
    9.1509  -14.0439   20.9235 C   0  0  0  0  0  0  0  0  0  0  0  0
    9.0970  -15.4788   21.4127 C   0  0  2  0  0  0  0  0  0  0  0  0
    7.8663  -16.1098   21.0436 N   0  0  0  0  0  0  0  0  0  0  0  0
    9.3230  -15.4549   22.8794 C   0  0  0  0  0  0  0  0  0  0  0  0
   10.3845  -14.9283   23.2958 O   0  0  0  0  0  0  0  0  0  0  0  0
    9.4386  -14.6649   18.5185 C   0  0  0  0  0  0  0  0  0  0  0  0
    9.0842  -14.5742   17.1956 C   0  0  0  0  0  0  0  0  0  0  0  0
    6.4882  -10.1612   26.7004 O   0  0  0  0  0  0  0  0  0  0  0  0
    6.7182  -11.5212   26.5357 C   0  0  0  0  0  0  0  0  0  0  0  0
    5.7976  -12.3382   25.9237 C   0  0  0  0  0  0  0  0  0  0  0  0
    6.0374  -13.6952   25.7643 C   0  0  0  0  0  0  0  0  0  0  0  0
    7.2110  -14.2739   26.2153 C   0  0  0  0  0  0  0  0  0  0  0  0
    7.4222  -15.7363   26.0201 C   0  0  0  0  0  0  0  0  0  0  0  0
    8.6617  -15.9773   25.1864 C   0  0  2  0  0  0  0  0  0  0  0  0
    8.3858  -16.0015   23.7849 N   0  0  0  0  0  0  0  0  0  0  0  0
    9.2276  -17.3015   25.6250 C   0  0  0  0  0  0  0  0  0  0  0  0
    8.6169  -18.3815   25.4502 O   0  0  0  0  0  0  0  0  0  0  0  0
    8.1296  -13.4630   26.8250 C   0  0  0  0  0  0  0  0  0  0  0  0
    7.8902  -12.1038   26.9851 C   0  0  0  0  0  0  0  0  0  0  0  0
   11.9338  -19.8744   24.5336 N   0  0  0  0  0  0  0  0  0  0  0  0
   12.9679  -19.2472   25.3033 C   0  0  0  0  0  0  0  0  0  0  0  0
   14.1508  -19.3974   24.8821 O   0  0  0  0  0  0  0  0  0  0  0  0
   12.6151  -18.4760   26.5186 C   0  0  0  0  0  0  0  0  0  0  0  0
   11.1433  -18.5062   26.7370 C   0  0  2  0  0  0  0  0  0  0  0  0
   10.4796  -17.3134   26.2481 N   0  0  0  0  0  0  0  0  0  0  0  0
   10.7445  -18.7506   28.1390 C   0  0  0  0  0  0  0  0  0  0  0  0
   10.0862  -17.9479   28.8446 O   0  0  0  0  0  0  0  0  0  0  0  0
   11.1286  -19.9652   28.7223 O   0  0  0  0  0  0  0  0  0  0  0  0
  2  3  2  0
  2  1  1  0
  4  3  1  0
  5  4  2  0
  6  5  1  0
  7  6  1  0
  7  8  1  1
  9  7  1  0
  9 10  2  0
 11  5  1  0
 11 12  2  0
 12  2  1  0
 13 14  1  0
 14 24  2  0
 15 16  2  0
 15 14  1  0
 16 17  1  0
 17 23  2  0
 17 18  1  0
 19 20  1  0
 19 18  1  1
 20  9  1  0
 21 19  1  0
 22 21  2  0
 24 23  1  0
 25 26  1  0
 26 28  1  0
 27 26  2  0
 29 28  1  1
 29 30  1  0
 30 21  1  0
 31 29  1  0
 31 33  1  0
 32 31  2  0
M  END
$$$$
