YYN.pdb
     RDKit          3D

 33 34  0  0  1  0  0  0  0  0999 V2000
    6.2074  -13.7224   15.7463 O   0  0  0  0  0  0  0  0  0  0  0  0
    6.7097  -14.1276   16.9652 C   0  0  0  0  0  0  0  0  0  0  0  0
    6.9312  -13.1655   17.9431 C   0  0  0  0  0  0  0  0  0  0  0  0
    7.4391  -13.5645   19.1797 C   0  0  0  0  0  0  0  0  0  0  0  0
    7.7120  -14.8806   19.4188 C   0  0  0  0  0  0  0  0  0  0  0  0
    8.2521  -15.2920   20.7376 C   0  0  0  0  0  0  0  0  0  0  0  0
    9.6098  -14.6701   21.0042 C   0  0  2  0  0  0  0  0  0  0  0  0
   10.5612  -15.0454   20.0027 N   0  0  0  0  0  0  0  0  0  0  0  0
   10.0176  -15.0689   22.3744 C   0  0  0  0  0  0  0  0  0  0  0  0
   10.9801  -15.8682   22.4854 O   0  0  0  0  0  0  0  0  0  0  0  0
    7.4811  -15.8290   18.4203 C   0  0  0  0  0  0  0  0  0  0  0  0
    6.9819  -15.4599   17.1962 C   0  0  0  0  0  0  0  0  0  0  0  0
   11.0546  -15.9116   30.9977 O   0  0  0  0  0  0  0  0  0  0  0  0
   10.5469  -15.5329   29.7614 C   0  0  0  0  0  0  0  0  0  0  0  0
   10.9983  -14.4091   29.1112 C   0  0  0  0  0  0  0  0  0  0  0  0
   10.4844  -14.0401   27.8767 C   0  0  0  0  0  0  0  0  0  0  0  0
    9.5000  -14.7897   27.2565 C   0  0  0  0  0  0  0  0  0  0  0  0
    8.9803  -14.3521   25.9300 C   0  0  0  0  0  0  0  0  0  0  0  0
    9.8001  -14.9709   24.8190 C   0  0  2  0  0  0  0  0  0  0  0  0
    9.3551  -14.5744   23.5206 N   0  0  0  0  0  0  0  0  0  0  0  0
    9.6808  -16.4637   24.9729 C   0  0  0  0  0  0  0  0  0  0  0  0
    8.5793  -17.0573   24.9094 O   0  0  0  0  0  0  0  0  0  0  0  0
    9.0486  -15.9093   27.9014 C   0  0  0  0  0  0  0  0  0  0  0  0
    9.5627  -16.2796   29.1379 C   0  0  0  0  0  0  0  0  0  0  0  0
   10.0063  -20.1341   22.8089 N   0  0  0  0  0  0  0  0  0  0  0  0
   11.1035  -19.2947   23.1920 C   0  0  0  0  0  0  0  0  0  0  0  0
   11.5220  -18.4835   22.3167 O   0  0  0  0  0  0  0  0  0  0  0  0
   11.6789  -19.4119   24.5526 C   0  0  0  0  0  0  0  0  0  0  0  0
   10.8768  -18.6149   25.5201 C   0  0  2  0  0  0  0  0  0  0  0  0
   10.8475  -17.2023   25.1942 N   0  0  0  0  0  0  0  0  0  0  0  0
   11.2855  -18.7854   26.9301 C   0  0  0  0  0  0  0  0  0  0  0  0
   11.2945  -19.8804   27.5437 O   0  0  0  0  0  0  0  0  0  0  0  0
   11.6921  -17.6432   27.6323 O   0  0  0  0  0  0  0  0  0  0  0  0
  2  3  2  0
  2  1  1  0
  4  3  1  0
  5  4  2  0
  6  5  1  0
  7  6  1  0
  7  8  1  6
  9  7  1  0
  9 10  2  0
 11  5  1  0
 11 12  2  0
 12  2  1  0
 13 14  1  0
 14 24  2  0
 15 16  2  0
 15 14  1  0
 16 17  1  0
 17 23  2  0
 17 18  1  0
 19 20  1  0
 19 18  1  1
 20  9  1  0
 21 19  1  0
 22 21  2  0
 24 23  1  0
 25 26  1  0
 26 28  1  0
 27 26  2  0
 29 28  1  6
 29 30  1  0
 30 21  1  0
 31 29  1  0
 31 33  1  0
 32 31  2  0
M  END
$$$$
