YYN.pdb
     RDKit          3D

 33 34  0  0  1  0  0  0  0  0999 V2000
    6.9428  -13.2911   15.3019 O   0  0  0  0  0  0  0  0  0  0  0  0
    7.4621  -13.3918   16.5757 C   0  0  0  0  0  0  0  0  0  0  0  0
    8.3031  -14.4594   16.8653 C   0  0  0  0  0  0  0  0  0  0  0  0
    8.8340  -14.5710   18.1507 C   0  0  0  0  0  0  0  0  0  0  0  0
    8.5281  -13.6429   19.1040 C   0  0  0  0  0  0  0  0  0  0  0  0
    9.0986  -13.7728   20.4670 C   0  0  0  0  0  0  0  0  0  0  0  0
    9.1222  -15.2180   20.9276 C   0  0  2  0  0  0  0  0  0  0  0  0
    7.8245  -15.8155   20.8372 N   0  0  0  0  0  0  0  0  0  0  0  0
    9.6772  -15.2346   22.3039 C   0  0  0  0  0  0  0  0  0  0  0  0
   10.8725  -14.8790   22.4535 O   0  0  0  0  0  0  0  0  0  0  0  0
    7.6805  -12.5789   18.7889 C   0  0  0  0  0  0  0  0  0  0  0  0
    7.1465  -12.4486   17.5313 C   0  0  0  0  0  0  0  0  0  0  0  0
   11.2436  -15.0195   30.8189 O   0  0  0  0  0  0  0  0  0  0  0  0
   10.5973  -15.0352   29.5894 C   0  0  0  0  0  0  0  0  0  0  0  0
   10.3826  -13.8814   28.8739 C   0  0  0  0  0  0  0  0  0  0  0  0
    9.7361  -13.9086   27.6469 C   0  0  0  0  0  0  0  0  0  0  0  0
    9.2848  -15.0973   27.1002 C   0  0  0  0  0  0  0  0  0  0  0  0
    8.5961  -15.0745   25.7786 C   0  0  0  0  0  0  0  0  0  0  0  0
    9.4913  -15.6701   24.7140 C   0  0  2  0  0  0  0  0  0  0  0  0
    8.8994  -15.6338   23.4142 N   0  0  0  0  0  0  0  0  0  0  0  0
    9.7589  -17.0946   25.1208 C   0  0  0  0  0  0  0  0  0  0  0  0
    8.8573  -17.9643   25.1457 O   0  0  0  0  0  0  0  0  0  0  0  0
    9.4971  -16.2479   27.8103 C   0  0  0  0  0  0  0  0  0  0  0  0
   10.1445  -16.2215   29.0393 C   0  0  0  0  0  0  0  0  0  0  0  0
   10.2502  -20.6306   22.2327 N   0  0  0  0  0  0  0  0  0  0  0  0
   10.7778  -20.2772   23.5179 C   0  0  0  0  0  0  0  0  0  0  0  0
   10.5407  -21.0832   24.4631 O   0  0  0  0  0  0  0  0  0  0  0  0
   11.5522  -19.0236   23.6756 C   0  0  0  0  0  0  0  0  0  0  0  0
   11.7081  -18.6939   25.1184 C   0  0  2  0  0  0  0  0  0  0  0  0
   11.0634  -17.4469   25.4811 N   0  0  0  0  0  0  0  0  0  0  0  0
   13.1096  -18.6770   25.5873 C   0  0  0  0  0  0  0  0  0  0  0  0
   13.5898  -19.4715   26.4322 O   0  0  0  0  0  0  0  0  0  0  0  0
   13.9636  -17.7047   25.0502 O   0  0  0  0  0  0  0  0  0  0  0  0
  2  3  2  0
  2  1  1  0
  4  3  1  0
  5  4  2  0
  6  5  1  0
  7  6  1  0
  7  8  1  1
  9  7  1  0
  9 10  2  0
 11  5  1  0
 11 12  2  0
 12  2  1  0
 13 14  1  0
 14 24  2  0
 15 16  2  0
 15 14  1  0
 16 17  1  0
 17 23  2  0
 17 18  1  0
 19 20  1  0
 19 18  1  1
 20  9  1  0
 21 19  1  0
 22 21  2  0
 24 23  1  0
 25 26  1  0
 26 28  1  0
 27 26  2  0
 29 28  1  6
 29 30  1  0
 30 21  1  0
 31 29  1  0
 31 33  1  0
 32 31  2  0
M  END
$$$$
