YYN.pdb
     RDKit          3D

 33 34  0  0  1  0  0  0  0  0999 V2000
   10.6849  -21.6684   16.1957 O   0  0  0  0  0  0  0  0  0  0  0  0
   10.6250  -20.8599   17.3115 C   0  0  0  0  0  0  0  0  0  0  0  0
   10.1254  -21.3965   18.4919 C   0  0  0  0  0  0  0  0  0  0  0  0
   10.0602  -20.5874   19.6267 C   0  0  0  0  0  0  0  0  0  0  0  0
   10.4821  -19.2903   19.5715 C   0  0  0  0  0  0  0  0  0  0  0  0
   10.4074  -18.4402   20.7848 C   0  0  0  0  0  0  0  0  0  0  0  0
   10.5793  -16.9709   20.4492 C   0  0  2  0  0  0  0  0  0  0  0  0
   11.8819  -16.7060   19.9181 N   0  0  0  0  0  0  0  0  0  0  0  0
   10.2838  -16.1982   21.6814 C   0  0  0  0  0  0  0  0  0  0  0  0
   11.2463  -15.9212   22.4391 O   0  0  0  0  0  0  0  0  0  0  0  0
   10.9803  -18.7737   18.3737 C   0  0  0  0  0  0  0  0  0  0  0  0
   11.0539  -19.5507   17.2448 C   0  0  0  0  0  0  0  0  0  0  0  0
    6.7292  -11.5442   28.1246 O   0  0  0  0  0  0  0  0  0  0  0  0
    6.8791  -12.2583   26.9426 C   0  0  0  0  0  0  0  0  0  0  0  0
    7.6119  -11.7633   25.8902 C   0  0  0  0  0  0  0  0  0  0  0  0
    7.7552  -12.4850   24.7142 C   0  0  0  0  0  0  0  0  0  0  0  0
    7.1659  -13.7277   24.5589 C   0  0  0  0  0  0  0  0  0  0  0  0
    7.3495  -14.4642   23.2763 C   0  0  0  0  0  0  0  0  0  0  0  0
    8.7326  -15.0751   23.2193 C   0  0  2  0  0  0  0  0  0  0  0  0
    8.9713  -15.7834   22.0018 N   0  0  0  0  0  0  0  0  0  0  0  0
    8.8405  -16.0123   24.3925 C   0  0  0  0  0  0  0  0  0  0  0  0
    8.1589  -17.0602   24.4771 O   0  0  0  0  0  0  0  0  0  0  0  0
    6.4357  -14.2232   25.6050 C   0  0  0  0  0  0  0  0  0  0  0  0
    6.2916  -13.5011   26.7832 C   0  0  0  0  0  0  0  0  0  0  0  0
    9.7540  -18.8919   25.1867 N   0  0  0  0  0  0  0  0  0  0  0  0
   11.0833  -18.5622   25.6101 C   0  0  0  0  0  0  0  0  0  0  0  0
   11.9882  -19.3965   25.3196 O   0  0  0  0  0  0  0  0  0  0  0  0
   11.3289  -17.2993   26.3456 C   0  0  0  0  0  0  0  0  0  0  0  0
   10.0522  -16.5585   26.5351 C   0  0  2  0  0  0  0  0  0  0  0  0
    9.7364  -15.6910   25.4171 N   0  0  0  0  0  0  0  0  0  0  0  0
    9.9825  -15.7847   27.7924 C   0  0  0  0  0  0  0  0  0  0  0  0
    9.3645  -16.1496   28.8222 O   0  0  0  0  0  0  0  0  0  0  0  0
   10.6544  -14.5561   27.8382 O   0  0  0  0  0  0  0  0  0  0  0  0
  2  3  2  0
  2  1  1  0
  4  3  1  0
  5  4  2  0
  6  5  1  0
  7  6  1  0
  7  8  1  1
  9  7  1  0
  9 10  2  0
 11  5  1  0
 11 12  2  0
 12  2  1  0
 13 14  1  0
 14 24  2  0
 15 16  2  0
 15 14  1  0
 16 17  1  0
 17 23  2  0
 17 18  1  0
 19 20  1  0
 19 18  1  6
 20  9  1  0
 21 19  1  0
 22 21  2  0
 24 23  1  0
 25 26  1  0
 26 28  1  0
 27 26  2  0
 29 28  1  6
 29 30  1  0
 30 21  1  0
 31 29  1  0
 31 33  1  0
 32 31  2  0
M  END
$$$$
