LDY.pdb
     RDKit          3D

 29 29  0  0  1  0  0  0  0  0999 V2000
   12.6467  -16.2793   -9.9358 C   0  0  0  0  0  0  0  0  0  0  0  0
   12.4275  -14.9612  -10.5808 C   0  0  1  0  0  0  0  0  0  0  0  0
   11.8734  -13.9933   -9.5405 C   0  0  0  0  0  0  0  0  0  0  0  0
   13.5257  -14.3767  -11.3689 C   0  0  0  0  0  0  0  0  0  0  0  0
   13.3635  -13.0325  -11.9766 C   0  0  2  0  0  0  0  0  0  0  0  0
   12.1741  -13.0204  -12.8511 N   0  0  0  0  0  0  0  0  0  0  0  0
   14.4936  -12.5270  -12.7762 C   0  0  0  0  0  0  0  0  0  0  0  0
   15.7050  -12.5727  -12.4091 O   0  0  0  0  0  0  0  0  0  0  0  0
   14.3354  -11.9208  -14.0817 N   0  0  0  0  0  0  0  0  0  0  0  0
   15.4221  -11.5588  -14.9258 C   0  0  1  0  0  0  0  0  0  0  0  0
   15.1106  -11.4868  -16.3979 C   0  0  0  0  0  0  0  0  0  0  0  0
   14.6475  -12.8112  -16.8476 C   0  0  0  0  0  0  0  0  0  0  0  0
   13.5315  -13.0404  -17.3768 O   0  0  0  0  0  0  0  0  0  0  0  0
   16.1388  -10.3376  -14.4518 C   0  0  0  0  0  0  0  0  0  0  0  0
   15.4372   -9.4094  -13.9676 O   0  0  0  0  0  0  0  0  0  0  0  0
   15.4918  -13.9169  -16.6842 O   0  0  0  0  0  0  0  0  0  0  0  0
   23.1379   -4.8156  -13.4434 O   0  0  0  0  0  0  0  0  0  0  0  0
   22.2775   -5.9189  -13.5826 C   0  0  0  0  0  0  0  0  0  0  0  0
   21.8053   -6.6306  -12.5075 C   0  0  0  0  0  0  0  0  0  0  0  0
   20.9532   -7.7183  -12.7064 C   0  0  0  0  0  0  0  0  0  0  0  0
   20.5699   -8.1002  -13.9745 C   0  0  0  0  0  0  0  0  0  0  0  0
   19.6781   -9.2425  -14.1447 C   0  0  0  0  0  0  0  0  0  0  0  0
   18.2046   -8.9184  -14.1156 C   0  0  2  0  0  0  0  0  0  0  0  0
   17.5212  -10.1550  -14.5095 N   0  0  0  0  0  0  0  0  0  0  0  0
   17.8228   -7.7898  -14.9761 C   0  0  0  0  0  0  0  0  0  0  0  0
   17.7054   -6.5864  -14.5928 O   0  0  0  0  0  0  0  0  0  0  0  0
   21.0500   -7.3797  -15.0394 C   0  0  0  0  0  0  0  0  0  0  0  0
   21.9005   -6.2911  -14.8688 C   0  0  0  0  0  0  0  0  0  0  0  0
   17.5685   -8.0470  -16.3119 O   0  0  0  0  0  0  0  0  0  0  0  0
  2  4  1  0
  2  1  1  1
  3  2  1  0
  5  7  1  0
  5  6  1  6
  5  4  1  0
  7  8  2  0
  9  7  1  0
 10  9  1  0
 10 11  1  6
 12 11  1  0
 13 12  2  0
 14 15  2  0
 14 10  1  0
 16 12  1  0
 17 18  1  0
 18 19  2  0
 19 20  1  0
 21 20  2  0
 21 22  1  0
 23 22  1  6
 23 24  1  0
 23 25  1  0
 24 14  1  0
 25 29  1  0
 26 25  2  0
 27 21  1  0
 28 18  1  0
 28 27  2  0
M  END
$$$$
