LDY.pdb
     RDKit          3D

 29 29  0  0  1  0  0  0  0  0999 V2000
   29.1568  -20.6286   -4.5049 C   0  0  0  0  0  0  0  0  0  0  0  0
   28.1707  -19.9814   -5.4049 C   0  0  1  0  0  0  0  0  0  0  0  0
   28.2682  -18.4692   -5.2313 C   0  0  0  0  0  0  0  0  0  0  0  0
   28.1433  -20.3875   -6.8203 C   0  0  0  0  0  0  0  0  0  0  0  0
   27.1261  -19.8104   -7.7339 C   0  0  2  0  0  0  0  0  0  0  0  0
   25.8302  -19.7045   -7.0346 N   0  0  0  0  0  0  0  0  0  0  0  0
   26.8804  -20.5355   -8.9932 C   0  0  0  0  0  0  0  0  0  0  0  0
   27.7692  -21.1646   -9.6401 O   0  0  0  0  0  0  0  0  0  0  0  0
   25.5810  -20.6076   -9.6283 N   0  0  0  0  0  0  0  0  0  0  0  0
   25.3355  -21.2768  -10.8597 C   0  0  1  0  0  0  0  0  0  0  0  0
   24.0807  -22.1088  -10.9127 C   0  0  0  0  0  0  0  0  0  0  0  0
   22.9270  -21.2423  -10.6146 C   0  0  0  0  0  0  0  0  0  0  0  0
   22.6246  -20.8166   -9.4720 O   0  0  0  0  0  0  0  0  0  0  0  0
   25.4485  -20.3708  -12.0413 C   0  0  0  0  0  0  0  0  0  0  0  0
   25.1375  -19.1612  -11.8715 O   0  0  0  0  0  0  0  0  0  0  0  0
   22.0848  -20.8490  -11.6625 O   0  0  0  0  0  0  0  0  0  0  0  0
   28.9115  -15.1424  -17.8252 O   0  0  0  0  0  0  0  0  0  0  0  0
   28.4991  -16.0961  -16.8778 C   0  0  0  0  0  0  0  0  0  0  0  0
   29.0238  -17.3639  -16.8258 C   0  0  0  0  0  0  0  0  0  0  0  0
   28.5752  -18.2694  -15.8628 C   0  0  0  0  0  0  0  0  0  0  0  0
   27.6040  -17.9157  -14.9503 C   0  0  0  0  0  0  0  0  0  0  0  0
   27.1589  -18.8882  -13.9578 C   0  0  0  0  0  0  0  0  0  0  0  0
   26.0942  -19.8478  -14.4296 C   0  0  2  0  0  0  0  0  0  0  0  0
   25.8700  -20.7692  -13.3106 N   0  0  0  0  0  0  0  0  0  0  0  0
   26.4409  -20.5672  -15.6634 C   0  0  0  0  0  0  0  0  0  0  0  0
   27.1362  -21.6266  -15.7202 O   0  0  0  0  0  0  0  0  0  0  0  0
   27.0885  -16.6453  -15.0146 C   0  0  0  0  0  0  0  0  0  0  0  0
   27.5183  -15.7232  -15.9646 C   0  0  0  0  0  0  0  0  0  0  0  0
   25.9786  -20.0590  -16.8648 O   0  0  0  0  0  0  0  0  0  0  0  0
  2  4  1  0
  2  1  1  6
  3  2  1  0
  5  7  1  0
  5  6  1  1
  5  4  1  0
  7  8  2  0
  9  7  1  0
 10  9  1  0
 10 11  1  1
 12 11  1  0
 13 12  2  0
 14 15  2  0
 14 10  1  0
 16 12  1  0
 17 18  1  0
 18 19  2  0
 19 20  1  0
 21 20  2  0
 21 22  1  0
 23 22  1  1
 23 24  1  0
 23 25  1  0
 24 14  1  0
 25 29  1  0
 26 25  2  0
 27 21  1  0
 28 18  1  0
 28 27  2  0
M  END
$$$$
