LDY.pdb
     RDKit          3D

 29 29  0  0  1  0  0  0  0  0999 V2000
   -4.6607  -52.7944   42.0937 C   0  0  0  0  0  0  0  0  0  0  0  0
   -6.1053  -53.1150   41.9863 C   0  0  1  0  0  0  0  0  0  0  0  0
   -6.7530  -52.1362   41.0123 C   0  0  0  0  0  0  0  0  0  0  0  0
   -6.4947  -54.5116   41.7272 C   0  0  0  0  0  0  0  0  0  0  0  0
   -6.0777  -55.1717   40.4651 C   0  0  2  0  0  0  0  0  0  0  0  0
   -5.5770  -54.1593   39.5143 N   0  0  0  0  0  0  0  0  0  0  0  0
   -7.1047  -55.9581   39.7590 C   0  0  0  0  0  0  0  0  0  0  0  0
   -6.8878  -57.0689   39.1903 O   0  0  0  0  0  0  0  0  0  0  0  0
   -8.4861  -55.5394   39.6428 N   0  0  0  0  0  0  0  0  0  0  0  0
   -9.5847  -56.4402   39.5651 C   0  0  1  0  0  0  0  0  0  0  0  0
   -9.6995  -57.4302   40.6948 C   0  0  0  0  0  0  0  0  0  0  0  0
   -8.3693  -57.6090   41.3026 C   0  0  0  0  0  0  0  0  0  0  0  0
   -7.2808  -57.5531   40.6781 O   0  0  0  0  0  0  0  0  0  0  0  0
  -10.8813  -55.7476   39.3030 C   0  0  0  0  0  0  0  0  0  0  0  0
  -11.0882  -54.6630   39.9107 O   0  0  0  0  0  0  0  0  0  0  0  0
   -8.2798  -57.8638   42.6771 O   0  0  0  0  0  0  0  0  0  0  0  0
  -13.9340  -56.7182   32.2602 O   0  0  0  0  0  0  0  0  0  0  0  0
  -13.8782  -56.2521   33.5856 C   0  0  0  0  0  0  0  0  0  0  0  0
  -13.6852  -54.9291   33.8983 C   0  0  0  0  0  0  0  0  0  0  0  0
  -13.6380  -54.5239   35.2332 C   0  0  0  0  0  0  0  0  0  0  0  0
  -13.7822  -55.4336   36.2592 C   0  0  0  0  0  0  0  0  0  0  0  0
  -13.7272  -54.9742   37.6430 C   0  0  0  0  0  0  0  0  0  0  0  0
  -13.3097  -56.0168   38.6509 C   0  0  2  0  0  0  0  0  0  0  0  0
  -11.8720  -56.2163   38.4391 N   0  0  0  0  0  0  0  0  0  0  0  0
  -14.0535  -57.2803   38.5483 C   0  0  0  0  0  0  0  0  0  0  0  0
  -14.2047  -58.1171   39.4895 O   0  0  0  0  0  0  0  0  0  0  0  0
  -13.9741  -56.7525   35.9315 C   0  0  0  0  0  0  0  0  0  0  0  0
  -14.0254  -57.1829   34.6087 C   0  0  0  0  0  0  0  0  0  0  0  0
  -14.6398  -57.5935   37.3345 O   0  0  0  0  0  0  0  0  0  0  0  0
  2  4  1  0
  2  1  1  6
  3  2  1  0
  5  7  1  0
  5  6  1  6
  5  4  1  0
  7  8  2  0
  9  7  1  0
 10  9  1  0
 10 11  1  1
 12 11  1  0
 13 12  2  0
 14 15  2  0
 14 10  1  0
 16 12  1  0
 17 18  1  0
 18 19  2  0
 19 20  1  0
 21 20  2  0
 21 22  1  0
 23 22  1  6
 23 24  1  0
 23 25  1  0
 24 14  1  0
 25 29  1  0
 26 25  2  0
 27 21  1  0
 28 18  1  0
 28 27  2  0
M  END
$$$$
