LDY.pdb
     RDKit          3D

 29 29  0  0  1  0  0  0  0  0999 V2000
   23.9675  -28.1675  -20.1957 C   0  0  0  0  0  0  0  0  0  0  0  0
   23.9008  -28.2678  -18.7169 C   0  0  1  0  0  0  0  0  0  0  0  0
   23.3994  -29.6588  -18.3428 C   0  0  0  0  0  0  0  0  0  0  0  0
   25.0808  -27.8626  -17.9343 C   0  0  0  0  0  0  0  0  0  0  0  0
   24.9043  -27.2873  -16.5777 C   0  0  2  0  0  0  0  0  0  0  0  0
   23.5110  -27.4826  -16.1303 N   0  0  0  0  0  0  0  0  0  0  0  0
   25.2123  -25.8547  -16.4212 C   0  0  0  0  0  0  0  0  0  0  0  0
   26.3291  -25.3292  -16.7056 O   0  0  0  0  0  0  0  0  0  0  0  0
   24.2580  -24.8863  -15.9227 N   0  0  0  0  0  0  0  0  0  0  0  0
   24.5423  -23.5013  -15.7632 C   0  0  1  0  0  0  0  0  0  0  0  0
   23.9029  -22.5824  -16.7714 C   0  0  0  0  0  0  0  0  0  0  0  0
   24.3582  -21.2057  -16.5104 C   0  0  0  0  0  0  0  0  0  0  0  0
   25.5601  -20.8507  -16.4245 O   0  0  0  0  0  0  0  0  0  0  0  0
   24.3248  -23.0249  -14.3649 C   0  0  0  0  0  0  0  0  0  0  0  0
   23.2368  -23.3394  -13.8119 O   0  0  0  0  0  0  0  0  0  0  0  0
   23.4027  -20.1959  -16.3388 O   0  0  0  0  0  0  0  0  0  0  0  0
   26.2773  -19.4267   -6.4094 O   0  0  0  0  0  0  0  0  0  0  0  0
   26.2877  -19.9589   -7.7109 C   0  0  0  0  0  0  0  0  0  0  0  0
   26.1900  -21.3053   -7.9616 C   0  0  0  0  0  0  0  0  0  0  0  0
   26.2062  -21.7768   -9.2754 C   0  0  0  0  0  0  0  0  0  0  0  0
   26.3199  -20.9101  -10.3417 C   0  0  0  0  0  0  0  0  0  0  0  0
   26.3337  -21.4384  -11.7018 C   0  0  0  0  0  0  0  0  0  0  0  0
   24.9761  -21.7310  -12.2921 C   0  0  2  0  0  0  0  0  0  0  0  0
   25.2361  -22.2603  -13.6351 N   0  0  0  0  0  0  0  0  0  0  0  0
   24.0775  -20.5686  -12.3318 C   0  0  0  0  0  0  0  0  0  0  0  0
   24.1554  -19.6135  -13.1629 O   0  0  0  0  0  0  0  0  0  0  0  0
   26.4171  -19.5672  -10.0757 C   0  0  0  0  0  0  0  0  0  0  0  0
   26.4032  -19.0709   -8.7754 C   0  0  0  0  0  0  0  0  0  0  0  0
   23.0624  -20.4986  -11.3939 O   0  0  0  0  0  0  0  0  0  0  0  0
  2  4  1  0
  2  1  1  6
  3  2  1  0
  5  7  1  0
  5  6  1  6
  5  4  1  0
  7  8  2  0
  9  7  1  0
 10  9  1  0
 10 11  1  6
 12 11  1  0
 13 12  2  0
 14 15  2  0
 14 10  1  0
 16 12  1  0
 17 18  1  0
 18 19  2  0
 19 20  1  0
 21 20  2  0
 21 22  1  0
 23 22  1  6
 23 24  1  0
 23 25  1  0
 24 14  1  0
 25 29  1  0
 26 25  2  0
 27 21  1  0
 28 18  1  0
 28 27  2  0
M  END
$$$$
