LDY.pdb
     RDKit          3D

 29 29  0  0  1  0  0  0  0  0999 V2000
   20.9687  -13.0805  -19.0608 C   0  0  0  0  0  0  0  0  0  0  0  0
   20.4677  -12.5259  -17.7791 C   0  0  1  0  0  0  0  0  0  0  0  0
   20.4026  -13.6507  -16.7511 C   0  0  0  0  0  0  0  0  0  0  0  0
   21.1047  -11.3094  -17.2467 C   0  0  0  0  0  0  0  0  0  0  0  0
   20.5413  -10.6478  -16.0436 C   0  0  2  0  0  0  0  0  0  0  0  0
   19.3292  -11.3653  -15.6010 N   0  0  0  0  0  0  0  0  0  0  0  0
   20.1774   -9.2262  -16.1794 C   0  0  0  0  0  0  0  0  0  0  0  0
   20.9127   -8.3497  -16.7228 O   0  0  0  0  0  0  0  0  0  0  0  0
   18.9251   -8.6772  -15.7028 N   0  0  0  0  0  0  0  0  0  0  0  0
   18.5858   -7.2972  -15.7722 C   0  0  1  0  0  0  0  0  0  0  0  0
   17.1119   -6.9862  -15.7854 C   0  0  0  0  0  0  0  0  0  0  0  0
   16.4710   -7.7826  -16.8464 C   0  0  0  0  0  0  0  0  0  0  0  0
   16.7879   -7.7477  -18.0615 O   0  0  0  0  0  0  0  0  0  0  0  0
   19.3160   -6.4721  -14.7644 C   0  0  0  0  0  0  0  0  0  0  0  0
   19.0635   -6.6906  -13.5491 O   0  0  0  0  0  0  0  0  0  0  0  0
   15.4259   -8.6510  -16.5059 O   0  0  0  0  0  0  0  0  0  0  0  0
   25.8948   -7.9492  -16.7826 O   0  0  0  0  0  0  0  0  0  0  0  0
   24.9000   -7.4274  -15.9369 C   0  0  0  0  0  0  0  0  0  0  0  0
   24.0624   -8.2257  -15.1975 C   0  0  0  0  0  0  0  0  0  0  0  0
   23.0921   -7.6514  -14.3746 C   0  0  0  0  0  0  0  0  0  0  0  0
   22.9529   -6.2825  -14.2860 C   0  0  0  0  0  0  0  0  0  0  0  0
   21.9273   -5.7170  -13.4156 C   0  0  0  0  0  0  0  0  0  0  0  0
   21.0039   -4.7207  -14.0726 C   0  0  2  0  0  0  0  0  0  0  0  0
   20.2502   -5.4826  -15.0740 N   0  0  0  0  0  0  0  0  0  0  0  0
   21.6939   -3.5702  -14.6728 C   0  0  0  0  0  0  0  0  0  0  0  0
   21.6818   -3.2735  -15.9060 O   0  0  0  0  0  0  0  0  0  0  0  0
   23.7968   -5.4973  -15.0310 C   0  0  0  0  0  0  0  0  0  0  0  0
   24.7728   -6.0444  -15.8591 C   0  0  0  0  0  0  0  0  0  0  0  0
   22.4176   -2.7373  -13.8375 O   0  0  0  0  0  0  0  0  0  0  0  0
  2  4  1  0
  2  1  1  6
  3  2  1  0
  5  7  1  0
  5  6  1  6
  5  4  1  0
  7  8  2  0
  9  7  1  0
 10  9  1  0
 10 11  1  1
 12 11  1  0
 13 12  2  0
 14 15  2  0
 14 10  1  0
 16 12  1  0
 17 18  1  0
 18 19  2  0
 19 20  1  0
 21 20  2  0
 21 22  1  0
 23 22  1  6
 23 24  1  0
 23 25  1  0
 24 14  1  0
 25 29  1  0
 26 25  2  0
 27 21  1  0
 28 18  1  0
 28 27  2  0
M  END
$$$$
