LDY.pdb
     RDKit          3D

 29 29  0  0  1  0  0  0  0  0999 V2000
   22.6633  -21.1638  -21.6701 C   0  0  0  0  0  0  0  0  0  0  0  0
   22.6197  -20.9191  -20.2073 C   0  0  1  0  0  0  0  0  0  0  0  0
   21.1843  -21.0976  -19.7237 C   0  0  0  0  0  0  0  0  0  0  0  0
   23.5954  -21.6159  -19.3521 C   0  0  0  0  0  0  0  0  0  0  0  0
   23.6187  -21.3506  -17.8921 C   0  0  2  0  0  0  0  0  0  0  0  0
   23.5500  -19.8962  -17.6480 N   0  0  0  0  0  0  0  0  0  0  0  0
   24.7826  -21.8603  -17.1454 C   0  0  0  0  0  0  0  0  0  0  0  0
   25.1721  -23.0653  -17.1658 O   0  0  0  0  0  0  0  0  0  0  0  0
   25.6138  -21.0260  -16.3028 N   0  0  0  0  0  0  0  0  0  0  0  0
   26.6952  -21.5171  -15.5192 C   0  0  1  0  0  0  0  0  0  0  0  0
   27.9037  -20.6214  -15.4387 C   0  0  0  0  0  0  0  0  0  0  0  0
   28.2808  -20.2137  -16.8034 C   0  0  0  0  0  0  0  0  0  0  0  0
   28.5583  -21.0052  -17.7386 O   0  0  0  0  0  0  0  0  0  0  0  0
   26.2631  -21.9855  -14.1689 C   0  0  0  0  0  0  0  0  0  0  0  0
   27.0107  -22.8113  -13.5791 O   0  0  0  0  0  0  0  0  0  0  0  0
   28.3455  -18.8486  -17.1105 O   0  0  0  0  0  0  0  0  0  0  0  0
   28.4168  -20.8564   -6.6266 O   0  0  0  0  0  0  0  0  0  0  0  0
   27.8181  -20.7071   -7.8901 C   0  0  0  0  0  0  0  0  0  0  0  0
   26.6779  -19.9679   -8.0872 C   0  0  0  0  0  0  0  0  0  0  0  0
   26.1275  -19.8552   -9.3650 C   0  0  0  0  0  0  0  0  0  0  0  0
   26.7098  -20.4778  -10.4487 C   0  0  0  0  0  0  0  0  0  0  0  0
   26.1067  -20.3384  -11.7701 C   0  0  0  0  0  0  0  0  0  0  0  0
   25.0028  -21.3194  -12.0801 C   0  0  2  0  0  0  0  0  0  0  0  0
   25.0968  -21.5758  -13.5213 N   0  0  0  0  0  0  0  0  0  0  0  0
   23.6625  -20.8526  -11.6985 C   0  0  0  0  0  0  0  0  0  0  0  0
   22.8282  -20.3076  -12.4833 O   0  0  0  0  0  0  0  0  0  0  0  0
   27.8488  -21.2136  -10.2365 C   0  0  0  0  0  0  0  0  0  0  0  0
   28.4181  -21.3418   -8.9728 C   0  0  0  0  0  0  0  0  0  0  0  0
   23.2675  -21.0144  -10.3821 O   0  0  0  0  0  0  0  0  0  0  0  0
  2  4  1  0
  2  1  1  6
  3  2  1  0
  5  7  1  0
  5  6  1  6
  5  4  1  0
  7  8  2  0
  9  7  1  0
 10  9  1  0
 10 11  1  1
 12 11  1  0
 13 12  2  0
 14 15  2  0
 14 10  1  0
 16 12  1  0
 17 18  1  0
 18 19  2  0
 19 20  1  0
 21 20  2  0
 21 22  1  0
 23 22  1  6
 23 24  1  0
 23 25  1  0
 24 14  1  0
 25 29  1  0
 26 25  2  0
 27 21  1  0
 28 18  1  0
 28 27  2  0
M  END
$$$$
