LDY.pdb
     RDKit          3D

 29 29  0  0  1  0  0  0  0  0999 V2000
   18.2149  -14.9620  -19.1584 C   0  0  0  0  0  0  0  0  0  0  0  0
   18.8630  -15.5645  -17.9674 C   0  0  1  0  0  0  0  0  0  0  0  0
   17.8106  -16.3297  -17.1719 C   0  0  0  0  0  0  0  0  0  0  0  0
   20.1000  -16.3400  -18.1612 C   0  0  0  0  0  0  0  0  0  0  0  0
   21.0333  -16.5367  -17.0242 C   0  0  2  0  0  0  0  0  0  0  0  0
   22.2073  -15.6559  -17.1842 N   0  0  0  0  0  0  0  0  0  0  0  0
   21.5429  -17.9036  -16.8154 C   0  0  0  0  0  0  0  0  0  0  0  0
   20.9435  -18.9544  -17.1906 O   0  0  0  0  0  0  0  0  0  0  0  0
   22.7986  -18.1913  -16.1540 N   0  0  0  0  0  0  0  0  0  0  0  0
   23.5903  -19.3432  -16.4202 C   0  0  1  0  0  0  0  0  0  0  0  0
   23.8930  -19.6071  -17.8721 C   0  0  0  0  0  0  0  0  0  0  0  0
   24.5631  -20.9144  -17.9844 C   0  0  0  0  0  0  0  0  0  0  0  0
   23.9772  -22.0255  -17.9704 O   0  0  0  0  0  0  0  0  0  0  0  0
   24.8224  -19.4035  -15.5787 C   0  0  0  0  0  0  0  0  0  0  0  0
   25.5247  -18.3592  -15.5100 O   0  0  0  0  0  0  0  0  0  0  0  0
   25.9572  -20.9535  -18.1156 O   0  0  0  0  0  0  0  0  0  0  0  0
   22.6685  -21.0489   -8.7968 O   0  0  0  0  0  0  0  0  0  0  0  0
   23.5167  -20.6661   -9.8508 C   0  0  0  0  0  0  0  0  0  0  0  0
   23.0638  -20.4680  -11.1318 C   0  0  0  0  0  0  0  0  0  0  0  0
   23.9528  -20.0886  -12.1390 C   0  0  0  0  0  0  0  0  0  0  0  0
   25.2935  -19.9061  -11.8739 C   0  0  0  0  0  0  0  0  0  0  0  0
   26.1939  -19.5095  -12.9514 C   0  0  0  0  0  0  0  0  0  0  0  0
   26.4332  -20.5592  -14.0089 C   0  0  2  0  0  0  0  0  0  0  0  0
   25.2464  -20.5286  -14.8703 N   0  0  0  0  0  0  0  0  0  0  0  0
   26.6791  -21.9049  -13.4717 C   0  0  0  0  0  0  0  0  0  0  0  0
   25.9678  -22.9276  -13.7104 O   0  0  0  0  0  0  0  0  0  0  0  0
   25.7317  -20.1081  -10.5891 C   0  0  0  0  0  0  0  0  0  0  0  0
   24.8665  -20.4864   -9.5665 C   0  0  0  0  0  0  0  0  0  0  0  0
   27.7693  -22.0837  -12.6383 O   0  0  0  0  0  0  0  0  0  0  0  0
  2  4  1  0
  2  1  1  6
  3  2  1  0
  5  7  1  0
  5  6  1  6
  5  4  1  0
  7  8  2  0
  9  7  1  0
 10  9  1  0
 10 11  1  6
 12 11  1  0
 13 12  2  0
 14 15  2  0
 14 10  1  0
 16 12  1  0
 17 18  1  0
 18 19  2  0
 19 20  1  0
 21 20  2  0
 21 22  1  0
 23 22  1  1
 23 24  1  0
 23 25  1  0
 24 14  1  0
 25 29  1  0
 26 25  2  0
 27 21  1  0
 28 18  1  0
 28 27  2  0
M  END
$$$$
