GLV.pdb
     RDKit          3D

 20 19  0  0  1  0  0  0  0  0999 V2000
   30.6877  -21.7960  -10.9824 N   0  0  0  0  0  0  0  0  0  0  0  0
   30.7844  -21.1020   -9.7152 C   0  0  0  0  0  0  0  0  0  0  0  0
   29.5663  -21.2787   -8.8962 C   0  0  0  0  0  0  0  0  0  0  0  0
   28.9063  -22.3540   -8.8587 O   0  0  0  0  0  0  0  0  0  0  0  0
   28.3602  -21.1638   -4.3516 C   0  0  0  0  0  0  0  0  0  0  0  0
   28.7829  -19.8732   -4.9573 C   0  0  2  0  0  0  0  0  0  0  0  0
   28.9306  -18.8242   -3.8669 C   0  0  0  0  0  0  0  0  0  0  0  0
   27.9893  -19.3820   -6.1125 C   0  0  0  0  0  0  0  0  0  0  0  0
   27.9067  -20.2615   -7.3044 C   0  0  2  0  0  0  0  0  0  0  0  0
   29.1157  -20.1734   -8.1077 N   0  0  0  0  0  0  0  0  0  0  0  0
   26.7211  -19.8296   -8.1467 C   0  0  0  0  0  0  0  0  0  0  0  0
   26.3839  -18.6324   -8.1398 O   0  0  0  0  0  0  0  0  0  0  0  0
   25.2840  -20.2655  -12.5634 C   0  0  0  0  0  0  0  0  0  0  0  0
   25.9622  -20.9102  -11.3610 C   0  0  2  0  0  0  0  0  0  0  0  0
   25.9625  -22.3879  -11.5751 C   0  0  0  0  0  0  0  0  0  0  0  0
   25.3255  -20.4811  -10.0865 C   0  0  2  0  0  0  0  0  0  0  0  0
   26.0623  -20.8279   -8.8987 N   0  0  0  0  0  0  0  0  0  0  0  0
   23.8648  -20.7481  -10.0034 C   0  0  0  0  0  0  0  0  0  0  0  0
   22.9101  -20.2868  -10.8818 O   0  0  0  0  0  0  0  0  0  0  0  0
   23.4082  -21.4678   -9.0503 O   0  0  0  0  0  0  0  0  0  0  0  0
  2  1  1  0
  3  2  1  0
  3 10  1  0
  4  3  2  0
  6  8  1  0
  6  5  1  1
  7  6  1  0
  9 11  1  0
  9 10  1  0
  9  8  1  1
 11 17  1  0
 12 11  2  0
 14 13  1  6
 14 15  1  0
 16 14  1  0
 16 17  1  1
 18 19  1  0
 18 16  1  0
 20 18  2  0
M  END
$$$$
