GLV.pdb
     RDKit          3D

 20 19  0  0  1  0  0  0  0  0999 V2000
   22.3288  -13.4943  -21.5027 N   0  0  0  0  0  0  0  0  0  0  0  0
   22.9601  -12.3119  -20.9547 C   0  0  0  0  0  0  0  0  0  0  0  0
   22.6610  -12.1445  -19.5165 C   0  0  0  0  0  0  0  0  0  0  0  0
   21.4949  -12.2145  -19.0383 O   0  0  0  0  0  0  0  0  0  0  0  0
   24.0086  -14.4140  -15.8544 C   0  0  0  0  0  0  0  0  0  0  0  0
   25.0575  -13.4883  -16.3581 C   0  0  2  0  0  0  0  0  0  0  0  0
   26.3619  -13.7492  -15.6220 C   0  0  0  0  0  0  0  0  0  0  0  0
   24.7124  -12.0446  -16.4051 C   0  0  0  0  0  0  0  0  0  0  0  0
   23.5270  -11.6542  -17.2072 C   0  0  2  0  0  0  0  0  0  0  0  0
   23.7503  -11.8903  -18.6247 N   0  0  0  0  0  0  0  0  0  0  0  0
   23.2564  -10.1775  -16.9888 C   0  0  0  0  0  0  0  0  0  0  0  0
   24.0484   -9.3450  -17.4650 O   0  0  0  0  0  0  0  0  0  0  0  0
   20.3691   -6.5082  -16.8488 C   0  0  0  0  0  0  0  0  0  0  0  0
   20.6572   -7.9939  -17.0249 C   0  0  2  0  0  0  0  0  0  0  0  0
   19.3651   -8.7291  -16.8850 C   0  0  0  0  0  0  0  0  0  0  0  0
   21.7215   -8.4528  -16.0919 C   0  0  2  0  0  0  0  0  0  0  0  0
   22.1046   -9.8323  -16.2471 N   0  0  0  0  0  0  0  0  0  0  0  0
   21.5360   -8.0216  -14.6807 C   0  0  0  0  0  0  0  0  0  0  0  0
   21.6361   -6.7304  -14.2129 O   0  0  0  0  0  0  0  0  0  0  0  0
   21.2541   -8.8915  -13.7870 O   0  0  0  0  0  0  0  0  0  0  0  0
  2  1  1  0
  3  2  1  0
  3 10  1  0
  4  3  2  0
  6  8  1  0
  6  5  1  1
  7  6  1  0
  9 11  1  0
  9 10  1  0
  9  8  1  1
 11 17  1  0
 12 11  2  0
 14 13  1  1
 14 15  1  0
 16 14  1  0
 16 17  1  1
 18 19  1  0
 18 16  1  0
 20 18  2  0
M  END
$$$$
