GLV.pdb
     RDKit          3D

 20 19  0  0  1  0  0  0  0  0999 V2000
   23.0611  -21.1300   -7.9218 N   0  0  0  0  0  0  0  0  0  0  0  0
   24.1148  -21.6232   -8.7840 C   0  0  0  0  0  0  0  0  0  0  0  0
   24.2214  -20.8341  -10.0297 C   0  0  0  0  0  0  0  0  0  0  0  0
   23.4108  -19.9181  -10.3416 O   0  0  0  0  0  0  0  0  0  0  0  0
   28.5166  -20.0982  -14.5396 C   0  0  0  0  0  0  0  0  0  0  0  0
   27.1990  -19.7886  -13.9240 C   0  0  2  0  0  0  0  0  0  0  0  0
   27.0265  -18.2815  -13.8236 C   0  0  0  0  0  0  0  0  0  0  0  0
   26.8727  -20.4823  -12.6521 C   0  0  0  0  0  0  0  0  0  0  0  0
   25.4762  -20.3822  -12.1614 C   0  0  2  0  0  0  0  0  0  0  0  0
   25.2987  -21.1260  -10.9246 N   0  0  0  0  0  0  0  0  0  0  0  0
   24.5473  -20.9508  -13.2177 C   0  0  0  0  0  0  0  0  0  0  0  0
   24.5852  -22.1708  -13.4568 O   0  0  0  0  0  0  0  0  0  0  0  0
   20.4123  -20.4965  -15.7462 C   0  0  0  0  0  0  0  0  0  0  0  0
   21.4172  -19.8212  -14.8211 C   0  0  2  0  0  0  0  0  0  0  0  0
   21.4889  -18.3788  -15.2003 C   0  0  0  0  0  0  0  0  0  0  0  0
   22.7297  -20.5216  -14.8447 C   0  0  2  0  0  0  0  0  0  0  0  0
   23.6830  -20.0470  -13.8752 N   0  0  0  0  0  0  0  0  0  0  0  0
   23.2919  -20.7378  -16.2044 C   0  0  0  0  0  0  0  0  0  0  0  0
   24.2666  -19.9723  -16.8045 O   0  0  0  0  0  0  0  0  0  0  0  0
   22.8655  -21.7107  -16.9161 O   0  0  0  0  0  0  0  0  0  0  0  0
  2  1  1  0
  3  2  1  0
  3 10  1  0
  4  3  2  0
  6  8  1  0
  6  5  1  1
  7  6  1  0
  9 11  1  0
  9 10  1  0
  9  8  1  6
 11 17  1  0
 12 11  2  0
 14 13  1  6
 14 15  1  0
 16 14  1  0
 16 17  1  1
 18 19  1  0
 18 16  1  0
 20 18  2  0
M  END
$$$$
