GLV.pdb
     RDKit          3D

 20 19  0  0  1  0  0  0  0  0999 V2000
   31.3680  -22.3945  -10.3756 N   0  0  0  0  0  0  0  0  0  0  0  0
   30.7483  -21.1316  -10.0321 C   0  0  0  0  0  0  0  0  0  0  0  0
   29.3535  -21.3091   -9.5751 C   0  0  0  0  0  0  0  0  0  0  0  0
   28.6567  -22.3241   -9.8535 O   0  0  0  0  0  0  0  0  0  0  0  0
   27.7548  -21.1104   -5.2601 C   0  0  0  0  0  0  0  0  0  0  0  0
   27.9585  -19.7801   -5.8925 C   0  0  2  0  0  0  0  0  0  0  0  0
   27.8072  -18.6901   -4.8436 C   0  0  0  0  0  0  0  0  0  0  0  0
   27.1771  -19.4949   -7.1228 C   0  0  0  0  0  0  0  0  0  0  0  0
   27.4005  -20.3814   -8.2912 C   0  0  2  0  0  0  0  0  0  0  0  0
   28.7670  -20.2765   -8.7774 N   0  0  0  0  0  0  0  0  0  0  0  0
   26.4487  -19.9739   -9.4003 C   0  0  0  0  0  0  0  0  0  0  0  0
   26.5157  -18.8178   -9.8544 O   0  0  0  0  0  0  0  0  0  0  0  0
   24.5401  -21.0912  -13.5167 C   0  0  0  0  0  0  0  0  0  0  0  0
   25.2643  -21.5079  -12.2427 C   0  0  2  0  0  0  0  0  0  0  0  0
   25.1191  -22.9870  -12.0982 C   0  0  0  0  0  0  0  0  0  0  0  0
   24.7820  -20.7325  -11.0680 C   0  0  2  0  0  0  0  0  0  0  0  0
   25.5309  -20.9461   -9.8567 N   0  0  0  0  0  0  0  0  0  0  0  0
   23.3059  -20.7370  -10.8867 C   0  0  0  0  0  0  0  0  0  0  0  0
   22.3806  -20.2799  -11.7982 O   0  0  0  0  0  0  0  0  0  0  0  0
   22.8044  -21.2001   -9.8054 O   0  0  0  0  0  0  0  0  0  0  0  0
  2  1  1  0
  3  2  1  0
  3 10  1  0
  4  3  2  0
  6  8  1  0
  6  5  1  1
  7  6  1  0
  9 11  1  0
  9 10  1  0
  9  8  1  1
 11 17  1  0
 12 11  2  0
 14 13  1  6
 14 15  1  0
 16 14  1  0
 16 17  1  1
 18 19  1  0
 18 16  1  0
 20 18  2  0
M  END
$$$$
