GLV.pdb
     RDKit          3D

 20 19  0  0  1  0  0  0  0  0999 V2000
   17.8589  -23.9660   -7.2329 N   0  0  0  0  0  0  0  0  0  0  0  0
   18.8225  -24.2916   -8.2635 C   0  0  0  0  0  0  0  0  0  0  0  0
   19.4109  -23.0785   -8.8701 C   0  0  0  0  0  0  0  0  0  0  0  0
   18.7516  -22.0254   -9.0929 O   0  0  0  0  0  0  0  0  0  0  0  0
   25.1501  -20.9421  -10.1876 C   0  0  0  0  0  0  0  0  0  0  0  0
   23.6674  -20.8341  -10.2229 C   0  0  2  0  0  0  0  0  0  0  0  0
   23.2394  -19.5105   -9.6096 C   0  0  0  0  0  0  0  0  0  0  0  0
   22.8976  -21.9839   -9.6834 C   0  0  0  0  0  0  0  0  0  0  0  0
   21.4281  -21.9743   -9.8873 C   0  0  2  0  0  0  0  0  0  0  0  0
   20.7975  -23.1028   -9.2213 N   0  0  0  0  0  0  0  0  0  0  0  0
   21.1426  -22.0560  -11.3751 C   0  0  0  0  0  0  0  0  0  0  0  0
   21.2354  -23.1579  -11.9447 O   0  0  0  0  0  0  0  0  0  0  0  0
   18.8033  -20.6484  -15.2597 C   0  0  0  0  0  0  0  0  0  0  0  0
   19.1167  -20.3962  -13.7902 C   0  0  2  0  0  0  0  0  0  0  0  0
   18.8735  -18.9492  -13.5134 C   0  0  0  0  0  0  0  0  0  0  0  0
   20.4872  -20.8593  -13.4423 C   0  0  2  0  0  0  0  0  0  0  0  0
   20.7835  -20.8584  -12.0330 N   0  0  0  0  0  0  0  0  0  0  0  0
   21.5665  -20.2974  -14.2974 C   0  0  0  0  0  0  0  0  0  0  0  0
   22.0163  -20.8333  -15.4833 O   0  0  0  0  0  0  0  0  0  0  0  0
   22.1564  -19.2200  -13.9422 O   0  0  0  0  0  0  0  0  0  0  0  0
  2  1  1  0
  3  2  1  0
  3 10  1  0
  4  3  2  0
  6  8  1  0
  6  5  1  1
  7  6  1  0
  9 11  1  0
  9 10  1  0
  9  8  1  6
 11 17  1  0
 12 11  2  0
 14 13  1  6
 14 15  1  0
 16 14  1  0
 16 17  1  1
 18 19  1  0
 18 16  1  0
 20 18  2  0
M  END
$$$$
