GLV.pdb
     RDKit          3D

 20 19  0  0  1  0  0  0  0  0999 V2000
   28.5212  -22.6142  -16.3565 N   0  0  0  0  0  0  0  0  0  0  0  0
   28.1311  -21.4227  -15.6320 C   0  0  0  0  0  0  0  0  0  0  0  0
   27.0372  -21.6937  -14.6750 C   0  0  0  0  0  0  0  0  0  0  0  0
   26.1389  -22.5574  -14.8755 O   0  0  0  0  0  0  0  0  0  0  0  0
   24.0001  -20.8100  -10.1073 C   0  0  0  0  0  0  0  0  0  0  0  0
   25.4699  -21.0158  -10.0158 C   0  0  2  0  0  0  0  0  0  0  0  0
   25.9804  -20.4564   -8.6977 C   0  0  0  0  0  0  0  0  0  0  0  0
   26.2838  -20.5681  -11.1746 C   0  0  0  0  0  0  0  0  0  0  0  0
   25.9069  -21.0879  -12.5120 C   0  0  2  0  0  0  0  0  0  0  0  0
   26.9979  -20.9370  -13.4615 N   0  0  0  0  0  0  0  0  0  0  0  0
   24.7038  -20.3119  -13.0143 C   0  0  0  0  0  0  0  0  0  0  0  0
   24.7730  -19.0717  -13.0780 O   0  0  0  0  0  0  0  0  0  0  0  0
   21.7946  -21.9560  -15.7096 C   0  0  0  0  0  0  0  0  0  0  0  0
   22.1477  -20.5225  -15.3334 C   0  0  2  0  0  0  0  0  0  0  0  0
   23.3064  -20.1017  -16.1761 C   0  0  0  0  0  0  0  0  0  0  0  0
   22.3806  -20.3890  -13.8700 C   0  0  2  0  0  0  0  0  0  0  0  0
   23.5612  -21.0559  -13.3848 N   0  0  0  0  0  0  0  0  0  0  0  0
   21.1708  -20.5922  -13.0293 C   0  0  0  0  0  0  0  0  0  0  0  0
   20.9914  -21.5968  -12.1048 O   0  0  0  0  0  0  0  0  0  0  0  0
   20.1846  -19.7854  -13.1372 O   0  0  0  0  0  0  0  0  0  0  0  0
  2  1  1  0
  3  2  1  0
  3 10  1  0
  4  3  2  0
  6  8  1  0
  6  5  1  6
  7  6  1  0
  9 11  1  0
  9 10  1  0
  9  8  1  1
 11 17  1  0
 12 11  2  0
 14 13  1  1
 14 15  1  0
 16 14  1  0
 16 17  1  1
 18 19  1  0
 18 16  1  0
 20 18  2  0
M  END
$$$$
