GLV.pdb
     RDKit          3D

 20 19  0  0  1  0  0  0  0  0999 V2000
   21.5913  -12.8454  -18.9410 N   0  0  0  0  0  0  0  0  0  0  0  0
   21.5147  -11.3997  -18.9679 C   0  0  0  0  0  0  0  0  0  0  0  0
   21.9381  -10.8018  -17.6838 C   0  0  0  0  0  0  0  0  0  0  0  0
   21.3268  -10.9916  -16.5958 O   0  0  0  0  0  0  0  0  0  0  0  0
   25.2390  -11.0879  -14.6198 C   0  0  0  0  0  0  0  0  0  0  0  0
   25.6565  -10.5166  -15.9276 C   0  0  2  0  0  0  0  0  0  0  0  0
   27.1731  -10.4263  -15.9820 C   0  0  0  0  0  0  0  0  0  0  0  0
   24.9982   -9.2540  -16.3494 C   0  0  0  0  0  0  0  0  0  0  0  0
   23.5199   -9.2663  -16.4743 C   0  0  2  0  0  0  0  0  0  0  0  0
   23.0996   -9.9667  -17.6773 N   0  0  0  0  0  0  0  0  0  0  0  0
   23.0250   -7.8335  -16.5381 C   0  0  0  0  0  0  0  0  0  0  0  0
   23.2219   -7.1758  -17.5753 O   0  0  0  0  0  0  0  0  0  0  0  0
   19.7622   -6.5323  -16.5361 C   0  0  0  0  0  0  0  0  0  0  0  0
   20.4062   -5.8234  -15.3512 C   0  0  2  0  0  0  0  0  0  0  0  0
   19.9299   -4.4082  -15.3522 C   0  0  0  0  0  0  0  0  0  0  0  0
   21.8870   -5.9661  -15.3750 C   0  0  2  0  0  0  0  0  0  0  0  0
   22.3607   -7.3258  -15.3992 N   0  0  0  0  0  0  0  0  0  0  0  0
   22.6099   -5.0804  -14.4238 C   0  0  0  0  0  0  0  0  0  0  0  0
   23.1401   -3.8442  -14.7179 O   0  0  0  0  0  0  0  0  0  0  0  0
   22.7755   -5.4566  -13.2130 O   0  0  0  0  0  0  0  0  0  0  0  0
  2  1  1  0
  3  2  1  0
  3 10  1  0
  4  3  2  0
  6  8  1  0
  6  5  1  1
  7  6  1  0
  9 11  1  0
  9 10  1  0
  9  8  1  6
 11 17  1  0
 12 11  2  0
 14 13  1  6
 14 15  1  0
 16 14  1  0
 16 17  1  1
 18 19  1  0
 18 16  1  0
 20 18  2  0
M  END
$$$$
