GLV.pdb
     RDKit          3D

 20 19  0  0  1  0  0  0  0  0999 V2000
   21.5705  -13.8430  -19.1697 N   0  0  0  0  0  0  0  0  0  0  0  0
   22.1415  -12.5210  -19.3211 C   0  0  0  0  0  0  0  0  0  0  0  0
   22.1305  -11.7674  -18.0492 C   0  0  0  0  0  0  0  0  0  0  0  0
   21.2737  -11.9529  -17.1410 O   0  0  0  0  0  0  0  0  0  0  0  0
   24.5587  -11.3042  -14.3270 C   0  0  0  0  0  0  0  0  0  0  0  0
   25.2183  -10.6948  -15.5121 C   0  0  2  0  0  0  0  0  0  0  0  0
   26.6432  -10.3028  -15.1553 C   0  0  0  0  0  0  0  0  0  0  0  0
   24.4853   -9.6018  -16.2003 C   0  0  0  0  0  0  0  0  0  0  0  0
   23.1142   -9.9003  -16.6821 C   0  0  2  0  0  0  0  0  0  0  0  0
   23.1435  -10.7791  -17.8403 N   0  0  0  0  0  0  0  0  0  0  0  0
   22.4393   -8.5972  -17.0673 C   0  0  0  0  0  0  0  0  0  0  0  0
   22.8437   -7.9856  -18.0720 O   0  0  0  0  0  0  0  0  0  0  0  0
   18.3869   -7.5903  -16.1099 C   0  0  0  0  0  0  0  0  0  0  0  0
   19.3766   -6.9855  -17.0978 C   0  0  2  0  0  0  0  0  0  0  0  0
   19.3147   -7.7883  -18.3553 C   0  0  0  0  0  0  0  0  0  0  0  0
   20.7385   -6.8861  -16.5068 C   0  0  2  0  0  0  0  0  0  0  0  0
   21.3771   -8.1510  -16.2496 N   0  0  0  0  0  0  0  0  0  0  0  0
   20.8634   -5.8987  -15.4017 C   0  0  0  0  0  0  0  0  0  0  0  0
   20.7068   -4.5356  -15.5174 O   0  0  0  0  0  0  0  0  0  0  0  0
   21.1364   -6.3050  -14.2204 O   0  0  0  0  0  0  0  0  0  0  0  0
  2  1  1  0
  3  2  1  0
  3 10  1  0
  4  3  2  0
  6  8  1  0
  6  5  1  1
  7  6  1  0
  9 11  1  0
  9 10  1  0
  9  8  1  6
 11 17  1  0
 12 11  2  0
 14 13  1  1
 14 15  1  0
 16 14  1  0
 16 17  1  1
 18 19  1  0
 18 16  1  0
 20 18  2  0
M  END
$$$$
