GLV.pdb
     RDKit          3D

 20 19  0  0  1  0  0  0  0  0999 V2000
   31.4292  -36.4760   -1.2723 N   0  0  0  0  0  0  0  0  0  0  0  0
   31.5993  -35.3471   -0.3814 C   0  0  0  0  0  0  0  0  0  0  0  0
   33.0215  -35.1169   -0.0498 C   0  0  0  0  0  0  0  0  0  0  0  0
   33.9403  -35.9351   -0.3319 O   0  0  0  0  0  0  0  0  0  0  0  0
   36.7841  -30.3787    1.3084 C   0  0  0  0  0  0  0  0  0  0  0  0
   36.4676  -31.8314    1.3339 C   0  0  2  0  0  0  0  0  0  0  0  0
   37.5179  -32.5945    0.5428 C   0  0  0  0  0  0  0  0  0  0  0  0
   35.0839  -32.2236    0.9639 C   0  0  0  0  0  0  0  0  0  0  0  0
   34.7287  -33.6591    1.0831 C   0  0  2  0  0  0  0  0  0  0  0  0
   33.3706  -33.9046    0.6249 N   0  0  0  0  0  0  0  0  0  0  0  0
   34.8404  -34.0686    2.5397 C   0  0  0  0  0  0  0  0  0  0  0  0
   33.9859  -33.6597    3.3457 O   0  0  0  0  0  0  0  0  0  0  0  0
   37.2412  -37.4625    3.8246 C   0  0  0  0  0  0  0  0  0  0  0  0
   36.0900  -36.7489    4.5223 C   0  0  2  0  0  0  0  0  0  0  0  0
   34.8193  -37.4064    4.0945 C   0  0  0  0  0  0  0  0  0  0  0  0
   36.1302  -35.2831    4.2708 C   0  0  2  0  0  0  0  0  0  0  0  0
   35.9239  -34.9018    2.8975 N   0  0  0  0  0  0  0  0  0  0  0  0
   37.2470  -34.5694    4.9455 C   0  0  0  0  0  0  0  0  0  0  0  0
   37.2736  -34.1801    6.2660 O   0  0  0  0  0  0  0  0  0  0  0  0
   38.2986  -34.2724    4.2814 O   0  0  0  0  0  0  0  0  0  0  0  0
  2  1  1  0
  3  2  1  0
  3 10  1  0
  4  3  2  0
  6  8  1  0
  6  5  1  6
  7  6  1  0
  9 11  1  0
  9 10  1  0
  9  8  1  1
 11 17  1  0
 12 11  2  0
 14 13  1  6
 14 15  1  0
 16 14  1  0
 16 17  1  6
 18 19  1  0
 18 16  1  0
 20 18  2  0
M  END
$$$$
