GLV.pdb
     RDKit          3D

 20 19  0  0  1  0  0  0  0  0999 V2000
   31.1433  -22.6037  -11.3399 N   0  0  0  0  0  0  0  0  0  0  0  0
   30.5182  -21.3430  -10.9981 C   0  0  0  0  0  0  0  0  0  0  0  0
   29.1307  -21.5276  -10.5223 C   0  0  0  0  0  0  0  0  0  0  0  0
   28.4462  -22.5601  -10.7649 O   0  0  0  0  0  0  0  0  0  0  0  0
   27.0059  -21.2748   -6.2674 C   0  0  0  0  0  0  0  0  0  0  0  0
   27.4577  -19.9899   -6.8641 C   0  0  2  0  0  0  0  0  0  0  0  0
   27.3058  -18.8740   -5.8428 C   0  0  0  0  0  0  0  0  0  0  0  0
   26.8897  -19.6279   -8.1876 C   0  0  0  0  0  0  0  0  0  0  0  0
   27.1501  -20.5550   -9.3162 C   0  0  2  0  0  0  0  0  0  0  0  0
   28.5367  -20.4815   -9.7481 N   0  0  0  0  0  0  0  0  0  0  0  0
   26.2502  -20.1738  -10.4767 C   0  0  0  0  0  0  0  0  0  0  0  0
   26.4110  -19.0681  -11.0233 O   0  0  0  0  0  0  0  0  0  0  0  0
   24.0400  -21.3755  -14.4542 C   0  0  0  0  0  0  0  0  0  0  0  0
   24.8298  -21.7609  -13.2095 C   0  0  2  0  0  0  0  0  0  0  0  0
   24.6092  -23.2167  -12.9617 C   0  0  0  0  0  0  0  0  0  0  0  0
   24.4809  -20.8885  -12.0559 C   0  0  2  0  0  0  0  0  0  0  0  0
   25.2700  -21.1114  -10.8720 N   0  0  0  0  0  0  0  0  0  0  0  0
   23.0218  -20.7484  -11.8044 C   0  0  0  0  0  0  0  0  0  0  0  0
   22.1147  -20.1385  -12.6416 O   0  0  0  0  0  0  0  0  0  0  0  0
   22.5183  -21.2241  -10.7296 O   0  0  0  0  0  0  0  0  0  0  0  0
  2  1  1  0
  3  2  1  0
  3 10  1  0
  4  3  2  0
  6  8  1  0
  6  5  1  1
  7  6  1  0
  9 11  1  0
  9 10  1  0
  9  8  1  1
 11 17  1  0
 12 11  2  0
 14 13  1  6
 14 15  1  0
 16 14  1  0
 16 17  1  1
 18 19  1  0
 18 16  1  0
 20 18  2  0
M  END
$$$$
