GLV.pdb
     RDKit          3D

 20 19  0  0  1  0  0  0  0  0999 V2000
   19.4429  -13.1983  -19.5263 N   0  0  0  0  0  0  0  0  0  0  0  0
   19.7310  -11.7885  -19.6881 C   0  0  0  0  0  0  0  0  0  0  0  0
   19.7065  -11.0697  -18.3964 C   0  0  0  0  0  0  0  0  0  0  0  0
   18.7234  -11.0992  -17.6053 O   0  0  0  0  0  0  0  0  0  0  0  0
   21.5488   -8.7276  -13.8673 C   0  0  0  0  0  0  0  0  0  0  0  0
   22.1900   -9.8428  -14.6132 C   0  0  2  0  0  0  0  0  0  0  0  0
   23.5703  -10.1130  -14.0361 C   0  0  0  0  0  0  0  0  0  0  0  0
   22.2058   -9.7380  -16.0945 C   0  0  0  0  0  0  0  0  0  0  0  0
   20.9009   -9.5608  -16.7779 C   0  0  2  0  0  0  0  0  0  0  0  0
   20.8566  -10.3031  -18.0276 N   0  0  0  0  0  0  0  0  0  0  0  0
   20.7019   -8.0858  -17.0719 C   0  0  0  0  0  0  0  0  0  0  0  0
   21.5234   -7.5027  -17.8014 O   0  0  0  0  0  0  0  0  0  0  0  0
   16.8677   -6.1299  -16.9220 C   0  0  0  0  0  0  0  0  0  0  0  0
   18.1853   -5.7356  -17.5777 C   0  0  2  0  0  0  0  0  0  0  0  0
   18.2428   -6.3924  -18.9175 C   0  0  0  0  0  0  0  0  0  0  0  0
   19.3429   -6.0492  -16.6971 C   0  0  2  0  0  0  0  0  0  0  0  0
   19.5793   -7.4547  -16.4909 N   0  0  0  0  0  0  0  0  0  0  0  0
   19.4223   -5.2250  -15.4618 C   0  0  0  0  0  0  0  0  0  0  0  0
   19.7004   -3.8775  -15.4086 O   0  0  0  0  0  0  0  0  0  0  0  0
   19.2185   -5.7720  -14.3241 O   0  0  0  0  0  0  0  0  0  0  0  0
  2  1  1  0
  3  2  1  0
  3 10  1  0
  4  3  2  0
  6  8  1  0
  6  5  1  1
  7  6  1  0
  9 11  1  0
  9 10  1  0
  9  8  1  6
 11 17  1  0
 12 11  2  0
 14 13  1  1
 14 15  1  0
 16 14  1  0
 16 17  1  1
 18 19  1  0
 18 16  1  0
 20 18  2  0
M  END
$$$$
