GLV.pdb
     RDKit          3D

 20 19  0  0  1  0  0  0  0  0999 V2000
   11.5815  -21.3427   -3.5486 N   0  0  0  0  0  0  0  0  0  0  0  0
   12.9704  -21.2483   -3.1502 C   0  0  0  0  0  0  0  0  0  0  0  0
   13.1952  -21.8070   -1.8000 C   0  0  0  0  0  0  0  0  0  0  0  0
   12.2894  -21.8904   -0.9248 O   0  0  0  0  0  0  0  0  0  0  0  0
   14.6338  -25.9850   -0.5671 C   0  0  0  0  0  0  0  0  0  0  0  0
   15.7449  -25.1122   -1.0305 C   0  0  2  0  0  0  0  0  0  0  0  0
   17.0234  -25.9284   -1.1330 C   0  0  0  0  0  0  0  0  0  0  0  0
   15.9450  -23.8351   -0.2995 C   0  0  0  0  0  0  0  0  0  0  0  0
   14.7817  -22.9200   -0.1978 C   0  0  2  0  0  0  0  0  0  0  0  0
   14.5064  -22.2757   -1.4720 N   0  0  0  0  0  0  0  0  0  0  0  0
   15.0893  -21.8552    0.8382 C   0  0  0  0  0  0  0  0  0  0  0  0
   15.7087  -20.8357    0.4859 O   0  0  0  0  0  0  0  0  0  0  0  0
   14.0730  -19.4392    4.8192 C   0  0  0  0  0  0  0  0  0  0  0  0
   13.7013  -20.4771    3.7676 C   0  0  2  0  0  0  0  0  0  0  0  0
   12.7308  -21.4276    4.3875 C   0  0  0  0  0  0  0  0  0  0  0  0
   14.9120  -21.1294    3.1997 C   0  0  2  0  0  0  0  0  0  0  0  0
   14.6470  -22.0893    2.1594 N   0  0  0  0  0  0  0  0  0  0  0  0
   15.9057  -21.5780    4.2112 C   0  0  0  0  0  0  0  0  0  0  0  0
   16.6819  -20.7566    4.9979 O   0  0  0  0  0  0  0  0  0  0  0  0
   16.0880  -22.8287    4.4051 O   0  0  0  0  0  0  0  0  0  0  0  0
  2  1  1  0
  3  2  1  0
  3 10  1  0
  4  3  2  0
  6  8  1  0
  6  5  1  1
  7  6  1  0
  9 11  1  0
  9 10  1  0
  9  8  1  6
 11 17  1  0
 12 11  2  0
 14 13  1  1
 14 15  1  0
 16 14  1  0
 16 17  1  1
 18 19  1  0
 18 16  1  0
 20 18  2  0
M  END
$$$$
