GLV.pdb
     RDKit          3D

 20 19  0  0  1  0  0  0  0  0999 V2000
   21.9161  -12.3097  -20.2085 N   0  0  0  0  0  0  0  0  0  0  0  0
   20.9248  -12.4067  -19.1575 C   0  0  0  0  0  0  0  0  0  0  0  0
   21.3604  -11.7169  -17.9245 C   0  0  0  0  0  0  0  0  0  0  0  0
   20.6800  -11.7019  -16.8614 O   0  0  0  0  0  0  0  0  0  0  0  0
   26.7602  -10.4395  -15.4624 C   0  0  0  0  0  0  0  0  0  0  0  0
   25.2767  -10.5410  -15.4693 C   0  0  2  0  0  0  0  0  0  0  0  0
   24.8550  -11.8660  -14.8547 C   0  0  0  0  0  0  0  0  0  0  0  0
   24.5914  -10.2709  -16.7589 C   0  0  0  0  0  0  0  0  0  0  0  0
   23.1090  -10.3295  -16.7668 C   0  0  2  0  0  0  0  0  0  0  0  0
   22.6167  -11.0330  -17.9404 N   0  0  0  0  0  0  0  0  0  0  0  0
   22.5661   -8.9128  -16.7759 C   0  0  0  0  0  0  0  0  0  0  0  0
   22.9674   -8.1215  -17.6476 O   0  0  0  0  0  0  0  0  0  0  0  0
   19.2597   -5.6883  -16.4926 C   0  0  0  0  0  0  0  0  0  0  0  0
   19.7618   -7.1267  -16.5003 C   0  0  2  0  0  0  0  0  0  0  0  0
   18.6602   -7.9974  -15.9925 C   0  0  0  0  0  0  0  0  0  0  0  0
   21.0373   -7.2585  -15.7457 C   0  0  2  0  0  0  0  0  0  0  0  0
   21.6238   -8.5733  -15.7794 N   0  0  0  0  0  0  0  0  0  0  0  0
   21.0297   -6.6233  -14.4010 C   0  0  0  0  0  0  0  0  0  0  0  0
   21.3350   -7.2485  -13.2127 O   0  0  0  0  0  0  0  0  0  0  0  0
   20.7218   -5.3874  -14.2887 O   0  0  0  0  0  0  0  0  0  0  0  0
  2  1  1  0
  3  2  1  0
  3 10  1  0
  4  3  2  0
  6  8  1  0
  6  5  1  6
  7  6  1  0
  9 11  1  0
  9 10  1  0
  9  8  1  6
 11 17  1  0
 12 11  2  0
 14 13  1  1
 14 15  1  0
 16 14  1  0
 16 17  1  1
 18 19  1  0
 18 16  1  0
 20 18  2  0
M  END
$$$$
