GLV.pdb
     RDKit          3D

 20 19  0  0  1  0  0  0  0  0999 V2000
   31.1749  -22.1415  -10.6007 N   0  0  0  0  0  0  0  0  0  0  0  0
   30.6671  -20.9479   -9.9573 C   0  0  0  0  0  0  0  0  0  0  0  0
   29.3927  -21.2022   -9.2522 C   0  0  0  0  0  0  0  0  0  0  0  0
   28.6904  -22.2341   -9.4402 O   0  0  0  0  0  0  0  0  0  0  0  0
   28.5947  -21.2458   -4.8435 C   0  0  0  0  0  0  0  0  0  0  0  0
   28.5681  -19.8481   -5.3503 C   0  0  2  0  0  0  0  0  0  0  0  0
   28.4729  -18.8842   -4.1785 C   0  0  0  0  0  0  0  0  0  0  0  0
   27.5838  -19.5401   -6.4188 C   0  0  0  0  0  0  0  0  0  0  0  0
   27.6435  -20.3580   -7.6551 C   0  0  2  0  0  0  0  0  0  0  0  0
   28.9354  -20.2278   -8.3099 N   0  0  0  0  0  0  0  0  0  0  0  0
   26.5584  -19.8854   -8.6043 C   0  0  0  0  0  0  0  0  0  0  0  0
   26.3103  -18.6686   -8.6745 O   0  0  0  0  0  0  0  0  0  0  0  0
   25.1135  -20.2073  -13.0078 C   0  0  0  0  0  0  0  0  0  0  0  0
   25.7757  -20.9026  -11.8249 C   0  0  2  0  0  0  0  0  0  0  0  0
   25.7514  -22.3724  -12.0873 C   0  0  0  0  0  0  0  0  0  0  0  0
   25.1415  -20.5045  -10.5392 C   0  0  2  0  0  0  0  0  0  0  0  0
   25.8858  -20.8701   -9.3618 N   0  0  0  0  0  0  0  0  0  0  0  0
   23.6831  -20.7838  -10.4555 C   0  0  0  0  0  0  0  0  0  0  0  0
   22.6835  -20.0250  -11.0221 O   0  0  0  0  0  0  0  0  0  0  0  0
   23.2732  -21.8107   -9.8133 O   0  0  0  0  0  0  0  0  0  0  0  0
  2  1  1  0
  3  2  1  0
  3 10  1  0
  4  3  2  0
  6  8  1  0
  6  5  1  1
  7  6  1  0
  9 11  1  0
  9 10  1  0
  9  8  1  1
 11 17  1  0
 12 11  2  0
 14 13  1  6
 14 15  1  0
 16 14  1  0
 16 17  1  1
 18 19  1  0
 18 16  1  0
 20 18  2  0
M  END
$$$$
