GLV.pdb
     RDKit          3D

 20 19  0  0  1  0  0  0  0  0999 V2000
   21.2794  -21.9468   -7.1783 N   0  0  0  0  0  0  0  0  0  0  0  0
   22.7146  -22.0985   -7.0603 C   0  0  0  0  0  0  0  0  0  0  0  0
   23.4408  -21.2012   -7.9841 C   0  0  0  0  0  0  0  0  0  0  0  0
   22.8659  -20.3553   -8.7238 O   0  0  0  0  0  0  0  0  0  0  0  0
   26.6632  -18.4412   -6.8407 C   0  0  0  0  0  0  0  0  0  0  0  0
   27.2556  -19.7764   -7.1189 C   0  0  2  0  0  0  0  0  0  0  0  0
   28.7200  -19.7779   -6.7105 C   0  0  0  0  0  0  0  0  0  0  0  0
   27.0463  -20.3332   -8.4797 C   0  0  0  0  0  0  0  0  0  0  0  0
   25.6460  -20.4740   -8.9492 C   0  0  2  0  0  0  0  0  0  0  0  0
   24.8670  -21.2993   -8.0400 N   0  0  0  0  0  0  0  0  0  0  0  0
   25.6554  -21.1228  -10.3206 C   0  0  0  0  0  0  0  0  0  0  0  0
   25.9770  -22.3206  -10.4160 O   0  0  0  0  0  0  0  0  0  0  0  0
   23.8453  -19.1236  -13.8349 C   0  0  0  0  0  0  0  0  0  0  0  0
   23.9801  -20.6013  -13.4894 C   0  0  2  0  0  0  0  0  0  0  0  0
   22.7451  -21.0136  -12.7583 C   0  0  0  0  0  0  0  0  0  0  0  0
   25.2426  -20.8710  -12.7498 C   0  0  2  0  0  0  0  0  0  0  0  0
   25.2930  -20.3157  -11.4220 N   0  0  0  0  0  0  0  0  0  0  0  0
   26.4821  -20.6711  -13.5469 C   0  0  0  0  0  0  0  0  0  0  0  0
   26.8015  -21.3228  -14.7170 O   0  0  0  0  0  0  0  0  0  0  0  0
   27.3572  -19.8267  -13.1517 O   0  0  0  0  0  0  0  0  0  0  0  0
  2  1  1  0
  3  2  1  0
  3 10  1  0
  4  3  2  0
  6  8  1  0
  6  5  1  6
  7  6  1  0
  9 11  1  0
  9 10  1  0
  9  8  1  1
 11 17  1  0
 12 11  2  0
 14 13  1  1
 14 15  1  0
 16 14  1  0
 16 17  1  1
 18 19  1  0
 18 16  1  0
 20 18  2  0
M  END
$$$$
