CRF.pdb
     RDKit          3D

 29 29  0  0  1  0  0  0  0  0999 V2000
    6.3058  -20.9895   23.6876 N   0  0  0  0  0  0  0  0  0  0  0  0
    5.9537  -19.5822   23.6459 C   0  0  1  0  0  0  0  0  0  0  0  0
    5.2162  -19.1501   24.8906 C   0  0  0  0  0  0  0  0  0  0  0  0
    6.1733  -19.3677   26.3890 S   0  0  0  0  0  0  0  0  0  0  0  0
    7.1807  -18.8096   23.4050 C   0  0  0  0  0  0  0  0  0  0  0  0
    8.2797  -19.3483   23.7462 O   0  0  0  0  0  0  0  0  0  0  0  0
    7.2872  -11.8481   18.5790 N   0  0  0  0  0  0  0  0  0  0  0  0
    7.7582  -13.1859   18.5252 C   0  0  0  0  0  0  0  0  0  0  0  0
    7.8832  -13.8047   17.4044 N   0  0  0  0  0  0  0  0  0  0  0  0
    8.1100  -13.8870   19.7359 N   0  0  0  0  0  0  0  0  0  0  0  0
    9.4643  -14.2466   20.0383 C   0  0  0  0  0  0  0  0  0  0  0  0
    9.5302  -14.9577   21.3703 C   0  0  0  0  0  0  0  0  0  0  0  0
    8.2765  -15.7408   21.5592 C   0  0  0  0  0  0  0  0  0  0  0  0
    8.3443  -16.6931   22.7315 C   0  0  2  0  0  0  0  0  0  0  0  0
    7.1690  -17.5219   22.8212 N   0  0  0  0  0  0  0  0  0  0  0  0
    8.6320  -15.9895   24.0061 C   0  0  0  0  0  0  0  0  0  0  0  0
    8.0244  -14.9503   24.3507 O   0  0  0  0  0  0  0  0  0  0  0  0
    8.4211  -14.6823   17.3703 N   0  0  0  0  0  0  0  0  0  0  0  0
    9.6255  -16.4931   24.8808 C   0  0  1  0  0  0  0  0  0  0  0  0
    9.9275  -15.9126   26.1742 C   0  0  0  0  0  0  0  0  0  0  0  0
    8.6123  -15.8007   26.9113 C   0  0  0  0  0  0  0  0  0  0  0  0
    7.9107  -14.5315   26.7079 C   0  0  0  0  0  0  0  0  0  0  0  0
    8.5142  -13.3184   27.0029 C   0  0  0  0  0  0  0  0  0  0  0  0
    7.8210  -12.1467   26.7953 C   0  0  0  0  0  0  0  0  0  0  0  0
    6.5333  -12.1343   26.2990 C   0  0  0  0  0  0  0  0  0  0  0  0
    5.9597  -13.3582   26.0150 C   0  0  0  0  0  0  0  0  0  0  0  0
    6.6148  -14.5514   26.2068 C   0  0  0  0  0  0  0  0  0  0  0  0
   10.9654  -16.6463   26.8961 O   0  0  0  0  0  0  0  0  0  0  0  0
   11.4704  -16.1429   28.0854 O   0  0  0  0  0  0  0  0  0  0  0  0
  2  3  1  0
  2  1  1  1
  4  3  1  0
  5  2  1  0
  6  5  2  0
  8  7  1  0
  8 10  1  0
  9  8  2  0
 11 10  1  0
 11 12  1  0
 14 13  1  6
 13 12  1  0
 14 15  1  0
 15  5  1  0
 16 18  1  0
 16 14  1  0
 17 16  2  0
 19 18  1  0
 19 20  1  1
 20 21  1  0
 21 22  2  0
 21 26  1  0
 22 23  1  0
 23 24  2  0
 25 24  1  0
 26 25  2  0
 27 28  1  0
 27 19  1  0
 29 27  2  0
M  END
$$$$
