CRF.pdb
     RDKit          3D

 29 29  0  0  1  0  0  0  0  0999 V2000
    6.5851  -15.0523   18.8701 N   0  0  0  0  0  0  0  0  0  0  0  0
    7.5642  -15.0124   19.9407 C   0  0  1  0  0  0  0  0  0  0  0  0
    8.0207  -13.6031   20.2329 C   0  0  0  0  0  0  0  0  0  0  0  0
    9.3234  -13.5237   21.4598 S   0  0  0  0  0  0  0  0  0  0  0  0
    6.9892  -15.6872   21.1130 C   0  0  0  0  0  0  0  0  0  0  0  0
    5.8007  -15.3742   21.4354 O   0  0  0  0  0  0  0  0  0  0  0  0
    5.7180  -22.9241   24.5571 N   0  0  0  0  0  0  0  0  0  0  0  0
    5.7814  -22.5562   23.1877 C   0  0  0  0  0  0  0  0  0  0  0  0
    5.9564  -23.4377   22.2674 N   0  0  0  0  0  0  0  0  0  0  0  0
    5.6498  -21.1744   22.7944 N   0  0  0  0  0  0  0  0  0  0  0  0
    5.5358  -20.1190   23.7577 C   0  0  0  0  0  0  0  0  0  0  0  0
    6.9044  -19.5812   24.1069 C   0  0  0  0  0  0  0  0  0  0  0  0
    7.4400  -18.8336   22.9343 C   0  0  0  0  0  0  0  0  0  0  0  0
    7.1239  -17.3558   22.9799 C   0  0  2  0  0  0  0  0  0  0  0  0
    7.7034  -16.6462   21.8676 N   0  0  0  0  0  0  0  0  0  0  0  0
    7.4882  -16.7471   24.2834 C   0  0  0  0  0  0  0  0  0  0  0  0
    6.9621  -17.1056   25.3616 O   0  0  0  0  0  0  0  0  0  0  0  0
    5.9719  -23.1409   21.2813 N   0  0  0  0  0  0  0  0  0  0  0  0
    8.4639  -15.7218   24.3346 C   0  0  2  0  0  0  0  0  0  0  0  0
    8.9742  -15.1583   25.5687 C   0  0  0  0  0  0  0  0  0  0  0  0
    7.7718  -14.8763   26.4406 C   0  0  0  0  0  0  0  0  0  0  0  0
    7.3264  -13.4813   26.4244 C   0  0  0  0  0  0  0  0  0  0  0  0
    7.9180  -12.5450   25.5901 C   0  0  0  0  0  0  0  0  0  0  0  0
    7.4684  -11.2434   25.6034 C   0  0  0  0  0  0  0  0  0  0  0  0
    6.4394  -10.8310   26.4253 C   0  0  0  0  0  0  0  0  0  0  0  0
    5.8707  -11.7867   27.2444 C   0  0  0  0  0  0  0  0  0  0  0  0
    6.2879  -13.0965   27.2635 C   0  0  0  0  0  0  0  0  0  0  0  0
    9.9931  -15.9979   26.1961 O   0  0  0  0  0  0  0  0  0  0  0  0
   10.8330  -15.4641   27.1617 O   0  0  0  0  0  0  0  0  0  0  0  0
  2  3  1  0
  2  1  1  6
  4  3  1  0
  5  2  1  0
  6  5  2  0
  8  7  1  0
  8 10  1  0
  9  8  2  0
 11 10  1  0
 11 12  1  0
 14 13  1  1
 13 12  1  0
 14 15  1  0
 15  5  1  0
 16 18  1  0
 16 14  1  0
 17 16  2  0
 19 18  1  0
 19 20  1  6
 20 21  1  0
 21 22  2  0
 21 26  1  0
 22 23  1  0
 23 24  2  0
 25 24  1  0
 26 25  2  0
 27 28  1  0
 27 19  1  0
 29 27  2  0
M  END
$$$$
