CRF.pdb
     RDKit          3D

 29 29  0  0  1  0  0  0  0  0999 V2000
    6.8009  -13.8291   18.6065 N   0  0  0  0  0  0  0  0  0  0  0  0
    7.7848  -14.7308   19.1766 C   0  0  1  0  0  0  0  0  0  0  0  0
    9.1795  -14.1560   19.1098 C   0  0  0  0  0  0  0  0  0  0  0  0
    9.8496  -14.1219   17.4490 S   0  0  0  0  0  0  0  0  0  0  0  0
    7.3630  -15.0639   20.5446 C   0  0  0  0  0  0  0  0  0  0  0  0
    7.0551  -14.0951   21.3070 O   0  0  0  0  0  0  0  0  0  0  0  0
    3.2543  -20.2153   18.6887 N   0  0  0  0  0  0  0  0  0  0  0  0
    2.5894  -19.6293   19.7974 C   0  0  0  0  0  0  0  0  0  0  0  0
    1.3968  -19.1599   19.6883 N   0  0  0  0  0  0  0  0  0  0  0  0
    3.2417  -19.5466   21.0815 N   0  0  0  0  0  0  0  0  0  0  0  0
    4.6494  -19.3044   21.2034 C   0  0  0  0  0  0  0  0  0  0  0  0
    4.8947  -18.0430   21.9990 C   0  0  0  0  0  0  0  0  0  0  0  0
    6.2953  -18.0610   22.5077 C   0  0  0  0  0  0  0  0  0  0  0  0
    6.9858  -16.7213   22.3880 C   0  0  2  0  0  0  0  0  0  0  0  0
    7.2935  -16.3941   21.0188 N   0  0  0  0  0  0  0  0  0  0  0  0
    8.1773  -16.6270   23.2676 C   0  0  0  0  0  0  0  0  0  0  0  0
    9.3200  -16.9706   22.8884 O   0  0  0  0  0  0  0  0  0  0  0  0
    0.9294  -18.7725   20.5203 N   0  0  0  0  0  0  0  0  0  0  0  0
    8.0414  -16.1333   24.5882 C   0  0  2  0  0  0  0  0  0  0  0  0
    9.1380  -16.0504   25.5324 C   0  0  0  0  0  0  0  0  0  0  0  0
    9.5842  -14.6060   25.5453 C   0  0  0  0  0  0  0  0  0  0  0  0
    8.5752  -13.6653   26.0370 C   0  0  0  0  0  0  0  0  0  0  0  0
    7.5206  -13.2548   25.2357 C   0  0  0  0  0  0  0  0  0  0  0  0
    6.5914  -12.3704   25.7365 C   0  0  0  0  0  0  0  0  0  0  0  0
    6.6711  -11.8715   27.0207 C   0  0  0  0  0  0  0  0  0  0  0  0
    7.7326  -12.2992   27.7940 C   0  0  0  0  0  0  0  0  0  0  0  0
    8.6825  -13.1805   27.3348 C   0  0  0  0  0  0  0  0  0  0  0  0
    8.7956  -16.5898   26.8472 O   0  0  0  0  0  0  0  0  0  0  0  0
    9.7738  -16.7134   27.8221 O   0  0  0  0  0  0  0  0  0  0  0  0
  2  3  1  0
  2  1  1  1
  4  3  1  0
  5  2  1  0
  6  5  2  0
  8  7  1  0
  8 10  1  0
  9  8  2  0
 11 10  1  0
 11 12  1  0
 14 13  1  6
 13 12  1  0
 14 15  1  0
 15  5  1  0
 16 18  1  0
 16 14  1  0
 17 16  2  0
 19 18  1  0
 19 20  1  6
 20 21  1  0
 21 22  2  0
 21 26  1  0
 22 23  1  0
 23 24  2  0
 25 24  1  0
 26 25  2  0
 27 28  1  0
 27 19  1  0
 29 27  2  0
M  END
$$$$
