CRF.pdb
     RDKit          3D

 29 29  0  0  1  0  0  0  0  0999 V2000
    7.6341  -14.0731   17.8140 N   0  0  0  0  0  0  0  0  0  0  0  0
    8.2334  -13.7633   19.0989 C   0  0  1  0  0  0  0  0  0  0  0  0
    7.8684  -12.3758   19.5696 C   0  0  0  0  0  0  0  0  0  0  0  0
    8.1912  -12.1145   21.3121 S   0  0  0  0  0  0  0  0  0  0  0  0
    7.8478  -14.8153   20.0502 C   0  0  0  0  0  0  0  0  0  0  0  0
    6.6476  -15.2294   19.9993 O   0  0  0  0  0  0  0  0  0  0  0  0
   11.5573  -20.8946   21.3196 N   0  0  0  0  0  0  0  0  0  0  0  0
   11.8609  -20.2860   20.0737 C   0  0  0  0  0  0  0  0  0  0  0  0
   13.0194  -20.4191   19.5308 N   0  0  0  0  0  0  0  0  0  0  0  0
   10.8688  -19.4985   19.3832 N   0  0  0  0  0  0  0  0  0  0  0  0
    9.5600  -19.2811   19.9261 C   0  0  0  0  0  0  0  0  0  0  0  0
    9.3798  -17.8243   20.2858 C   0  0  0  0  0  0  0  0  0  0  0  0
    8.6314  -17.7361   21.5714 C   0  0  0  0  0  0  0  0  0  0  0  0
    8.3520  -16.3126   21.9972 C   0  0  2  0  0  0  0  0  0  0  0  0
    8.7508  -15.3610   20.9913 N   0  0  0  0  0  0  0  0  0  0  0  0
    8.9375  -16.0021   23.3250 C   0  0  0  0  0  0  0  0  0  0  0  0
    9.8310  -15.1385   23.4790 O   0  0  0  0  0  0  0  0  0  0  0  0
   13.2063  -19.9670   18.6245 N   0  0  0  0  0  0  0  0  0  0  0  0
    8.4850  -16.6949   24.4745 C   0  0  1  0  0  0  0  0  0  0  0  0
    8.5423  -16.1499   25.8164 C   0  0  0  0  0  0  0  0  0  0  0  0
    7.1626  -15.6112   26.1195 C   0  0  0  0  0  0  0  0  0  0  0  0
    7.0789  -14.1497   26.1595 C   0  0  0  0  0  0  0  0  0  0  0  0
    5.9749  -13.4766   25.6588 C   0  0  0  0  0  0  0  0  0  0  0  0
    5.9339  -12.1013   25.7172 C   0  0  0  0  0  0  0  0  0  0  0  0
    6.9623  -11.3592   26.2616 C   0  0  0  0  0  0  0  0  0  0  0  0
    8.0478  -12.0585   26.7518 C   0  0  0  0  0  0  0  0  0  0  0  0
    8.1304  -13.4302   26.7139 C   0  0  0  0  0  0  0  0  0  0  0  0
    9.0461  -17.1099   26.7968 O   0  0  0  0  0  0  0  0  0  0  0  0
    9.8308  -16.6743   27.8538 O   0  0  0  0  0  0  0  0  0  0  0  0
  2  3  1  0
  2  1  1  6
  4  3  1  0
  5  2  1  0
  6  5  2  0
  8  7  1  0
  8 10  1  0
  9  8  2  0
 11 10  1  0
 11 12  1  0
 14 13  1  6
 13 12  1  0
 14 15  1  0
 15  5  1  0
 16 18  1  0
 16 14  1  0
 17 16  2  0
 19 18  1  0
 19 20  1  1
 20 21  1  0
 21 22  2  0
 21 26  1  0
 22 23  1  0
 23 24  2  0
 25 24  1  0
 26 25  2  0
 27 28  1  0
 27 19  1  0
 29 27  2  0
M  END
$$$$
