CRF.pdb
     RDKit          3D

 29 29  0  0  1  0  0  0  0  0999 V2000
    7.2921  -12.8431   18.8805 N   0  0  0  0  0  0  0  0  0  0  0  0
    8.3343  -13.7763   19.2670 C   0  0  1  0  0  0  0  0  0  0  0  0
    9.6670  -13.0889   19.4441 C   0  0  0  0  0  0  0  0  0  0  0  0
    9.7146  -11.9974   20.8636 S   0  0  0  0  0  0  0  0  0  0  0  0
    7.8878  -14.4884   20.4727 C   0  0  0  0  0  0  0  0  0  0  0  0
    7.0199  -13.9097   21.1982 O   0  0  0  0  0  0  0  0  0  0  0  0
    8.1421  -19.3070   17.8231 N   0  0  0  0  0  0  0  0  0  0  0  0
    6.7485  -19.5730   17.7810 C   0  0  0  0  0  0  0  0  0  0  0  0
    6.1227  -19.6774   16.6621 N   0  0  0  0  0  0  0  0  0  0  0  0
    5.9970  -19.7335   19.0020 N   0  0  0  0  0  0  0  0  0  0  0  0
    6.5859  -19.5122   20.2901 C   0  0  0  0  0  0  0  0  0  0  0  0
    6.9863  -18.0624   20.4385 C   0  0  0  0  0  0  0  0  0  0  0  0
    7.5734  -17.8628   21.7936 C   0  0  0  0  0  0  0  0  0  0  0  0
    8.0005  -16.4351   22.0491 C   0  0  2  0  0  0  0  0  0  0  0  0
    8.3845  -15.7618   20.8343 N   0  0  0  0  0  0  0  0  0  0  0  0
    9.0497  -16.3451   23.0947 C   0  0  0  0  0  0  0  0  0  0  0  0
   10.0027  -17.1547   23.1603 O   0  0  0  0  0  0  0  0  0  0  0  0
    5.1102  -19.8659   16.6664 N   0  0  0  0  0  0  0  0  0  0  0  0
    8.9921  -15.3146   24.0646 C   0  0  2  0  0  0  0  0  0  0  0  0
    9.0748  -15.5487   25.4926 C   0  0  0  0  0  0  0  0  0  0  0  0
    7.7144  -15.2145   26.0613 C   0  0  0  0  0  0  0  0  0  0  0  0
    7.4345  -13.7803   26.1573 C   0  0  0  0  0  0  0  0  0  0  0  0
    6.1343  -13.3010   26.2071 C   0  0  0  0  0  0  0  0  0  0  0  0
    5.9134  -11.9449   26.2994 C   0  0  0  0  0  0  0  0  0  0  0  0
    6.9495  -11.0343   26.3447 C   0  0  0  0  0  0  0  0  0  0  0  0
    8.2327  -11.5426   26.2933 C   0  0  0  0  0  0  0  0  0  0  0  0
    8.4988  -12.8881   26.2011 C   0  0  0  0  0  0  0  0  0  0  0  0
    9.5546  -16.8902   25.8200 O   0  0  0  0  0  0  0  0  0  0  0  0
    9.0383  -17.9924   25.1557 O   0  0  0  0  0  0  0  0  0  0  0  0
  2  3  1  0
  2  1  1  1
  4  3  1  0
  5  2  1  0
  6  5  2  0
  8  7  1  0
  8 10  1  0
  9  8  2  0
 11 10  1  0
 11 12  1  0
 14 13  1  6
 13 12  1  0
 14 15  1  0
 15  5  1  0
 16 18  1  0
 16 14  1  0
 17 16  2  0
 19 18  1  0
 19 20  1  6
 20 21  1  0
 21 22  2  0
 21 26  1  0
 22 23  1  0
 23 24  2  0
 25 24  1  0
 26 25  2  0
 27 28  1  0
 27 19  1  0
 29 27  2  0
M  END
$$$$
