CRF.pdb
     RDKit          3D

 29 29  0  0  1  0  0  0  0  0999 V2000
    5.4466  -21.1024   23.5533 N   0  0  0  0  0  0  0  0  0  0  0  0
    5.9555  -20.0161   24.3701 C   0  0  1  0  0  0  0  0  0  0  0  0
    6.5632  -20.5181   25.6580 C   0  0  0  0  0  0  0  0  0  0  0  0
    7.2163  -19.2063   26.6882 S   0  0  0  0  0  0  0  0  0  0  0  0
    6.8951  -19.2318   23.5562 C   0  0  0  0  0  0  0  0  0  0  0  0
    7.0122  -19.5572   22.3335 O   0  0  0  0  0  0  0  0  0  0  0  0
    8.2960  -13.5293   18.0609 N   0  0  0  0  0  0  0  0  0  0  0  0
    7.8152  -12.9171   19.2478 C   0  0  0  0  0  0  0  0  0  0  0  0
    7.8683  -11.6421   19.4096 N   0  0  0  0  0  0  0  0  0  0  0  0
    7.2519  -13.7177   20.3075 N   0  0  0  0  0  0  0  0  0  0  0  0
    7.2481  -15.1503   20.2562 C   0  0  0  0  0  0  0  0  0  0  0  0
    8.2225  -15.7110   21.2665 C   0  0  0  0  0  0  0  0  0  0  0  0
    7.4757  -16.5704   22.2280 C   0  0  0  0  0  0  0  0  0  0  0  0
    8.3715  -17.2279   23.2533 C   0  0  2  0  0  0  0  0  0  0  0  0
    7.6484  -18.1578   24.0833 N   0  0  0  0  0  0  0  0  0  0  0  0
    9.1272  -16.2330   24.0541 C   0  0  0  0  0  0  0  0  0  0  0  0
   10.0176  -15.5074   23.5557 O   0  0  0  0  0  0  0  0  0  0  0  0
    7.6007  -11.2376   20.3181 N   0  0  0  0  0  0  0  0  0  0  0  0
    8.8486  -16.0808   25.4344 C   0  0  1  0  0  0  0  0  0  0  0  0
    9.7642  -15.4687   26.3768 C   0  0  0  0  0  0  0  0  0  0  0  0
    8.9121  -14.7340   27.3866 C   0  0  0  0  0  0  0  0  0  0  0  0
    8.0274  -13.7202   26.8085 C   0  0  0  0  0  0  0  0  0  0  0  0
    6.8842  -13.2985   27.4703 C   0  0  0  0  0  0  0  0  0  0  0  0
    6.0795  -12.3414   26.8935 C   0  0  0  0  0  0  0  0  0  0  0  0
    6.3714  -11.7796   25.6672 C   0  0  0  0  0  0  0  0  0  0  0  0
    7.5165  -12.2203   25.0330 C   0  0  0  0  0  0  0  0  0  0  0  0
    8.3480  -13.1731   25.5721 C   0  0  0  0  0  0  0  0  0  0  0  0
   10.7021  -16.4267   26.9592 O   0  0  0  0  0  0  0  0  0  0  0  0
   10.4804  -17.7881   26.8171 O   0  0  0  0  0  0  0  0  0  0  0  0
  2  3  1  0
  2  1  1  6
  4  3  1  0
  5  2  1  0
  6  5  2  0
  8  7  1  0
  8 10  1  0
  9  8  2  0
 11 10  1  0
 11 12  1  0
 14 13  1  6
 13 12  1  0
 14 15  1  0
 15  5  1  0
 16 18  1  0
 16 14  1  0
 17 16  2  0
 19 18  1  0
 19 20  1  6
 20 21  1  0
 21 22  2  0
 21 26  1  0
 22 23  1  0
 23 24  2  0
 25 24  1  0
 26 25  2  0
 27 28  1  0
 27 19  1  0
 29 27  2  0
M  END
$$$$
