CRF.pdb
     RDKit          3D

 29 29  0  0  1  0  0  0  0  0999 V2000
    6.0172  -19.9107   24.3987 N   0  0  0  0  0  0  0  0  0  0  0  0
    6.2231  -20.1362   22.9799 C   0  0  1  0  0  0  0  0  0  0  0  0
    4.9165  -20.3032   22.2418 C   0  0  0  0  0  0  0  0  0  0  0  0
    3.7660  -18.9613   22.5319 S   0  0  0  0  0  0  0  0  0  0  0  0
    7.0454  -19.0367   22.4555 C   0  0  0  0  0  0  0  0  0  0  0  0
    7.5257  -19.1796   21.2878 O   0  0  0  0  0  0  0  0  0  0  0  0
    9.3338  -11.9440   17.9862 N   0  0  0  0  0  0  0  0  0  0  0  0
    8.6450  -13.0175   18.6088 C   0  0  0  0  0  0  0  0  0  0  0  0
    8.7023  -14.2117   18.1342 N   0  0  0  0  0  0  0  0  0  0  0  0
    7.8590  -12.7914   19.7973 N   0  0  0  0  0  0  0  0  0  0  0  0
    7.1210  -13.8445   20.4307 C   0  0  0  0  0  0  0  0  0  0  0  0
    8.0484  -14.7111   21.2512 C   0  0  0  0  0  0  0  0  0  0  0  0
    7.2437  -15.7633   21.9338 C   0  0  0  0  0  0  0  0  0  0  0  0
    8.0933  -16.7695   22.6765 C   0  0  2  0  0  0  0  0  0  0  0  0
    7.3073  -17.8603   23.1948 N   0  0  0  0  0  0  0  0  0  0  0  0
    8.9253  -16.1306   23.7263 C   0  0  0  0  0  0  0  0  0  0  0  0
    9.8414  -15.3210   23.4559 O   0  0  0  0  0  0  0  0  0  0  0  0
    8.2055  -14.9717   18.6201 N   0  0  0  0  0  0  0  0  0  0  0  0
    8.6932  -16.4321   25.0905 C   0  0  1  0  0  0  0  0  0  0  0  0
    9.5646  -16.0064   26.1677 C   0  0  0  0  0  0  0  0  0  0  0  0
    8.6700  -15.4232   27.2378 C   0  0  0  0  0  0  0  0  0  0  0  0
    7.8754  -14.2730   26.8015 C   0  0  0  0  0  0  0  0  0  0  0  0
    8.4287  -13.0043   26.7179 C   0  0  0  0  0  0  0  0  0  0  0  0
    7.6482  -11.9491   26.3011 C   0  0  0  0  0  0  0  0  0  0  0  0
    6.3206  -12.1086   25.9596 C   0  0  0  0  0  0  0  0  0  0  0  0
    5.7987  -13.3840   26.0532 C   0  0  0  0  0  0  0  0  0  0  0  0
    6.5413  -14.4654   26.4643 C   0  0  0  0  0  0  0  0  0  0  0  0
   10.4508  -17.0713   26.6339 O   0  0  0  0  0  0  0  0  0  0  0  0
   10.4141  -18.3184   26.0289 O   0  0  0  0  0  0  0  0  0  0  0  0
  2  3  1  0
  2  1  1  1
  4  3  1  0
  5  2  1  0
  6  5  2  0
  8  7  1  0
  8 10  1  0
  9  8  2  0
 11 10  1  0
 11 12  1  0
 14 13  1  1
 13 12  1  0
 14 15  1  0
 15  5  1  0
 16 18  1  0
 16 14  1  0
 17 16  2  0
 19 18  1  0
 19 20  1  1
 20 21  1  0
 21 22  2  0
 21 26  1  0
 22 23  1  0
 23 24  2  0
 25 24  1  0
 26 25  2  0
 27 28  1  0
 27 19  1  0
 29 27  2  0
M  END
$$$$
