CRF.pdb
     RDKit          3D

 29 29  0  0  1  0  0  0  0  0999 V2000
    7.4852  -14.4965   18.3800 N   0  0  0  0  0  0  0  0  0  0  0  0
    8.2721  -14.0658   19.5208 C   0  0  1  0  0  0  0  0  0  0  0  0
    7.8841  -12.6809   19.9807 C   0  0  0  0  0  0  0  0  0  0  0  0
    8.8405  -12.1098   21.3836 S   0  0  0  0  0  0  0  0  0  0  0  0
    8.1437  -15.0810   20.5759 C   0  0  0  0  0  0  0  0  0  0  0  0
    6.9772  -15.5264   20.8112 O   0  0  0  0  0  0  0  0  0  0  0  0
   12.2844  -17.8121   18.4071 N   0  0  0  0  0  0  0  0  0  0  0  0
   11.5293  -18.9291   17.9635 C   0  0  0  0  0  0  0  0  0  0  0  0
   11.5610  -19.3106   16.7355 N   0  0  0  0  0  0  0  0  0  0  0  0
   10.7030  -19.6671   18.8875 N   0  0  0  0  0  0  0  0  0  0  0  0
   10.6756  -19.3656   20.2887 C   0  0  0  0  0  0  0  0  0  0  0  0
    9.8936  -18.0957   20.5338 C   0  0  0  0  0  0  0  0  0  0  0  0
    9.8568  -17.8298   21.9996 C   0  0  0  0  0  0  0  0  0  0  0  0
    9.1306  -16.5512   22.3512 C   0  0  2  0  0  0  0  0  0  0  0  0
    9.2514  -15.5597   21.3126 N   0  0  0  0  0  0  0  0  0  0  0  0
    9.5375  -16.0250   23.6778 C   0  0  0  0  0  0  0  0  0  0  0  0
   10.5666  -15.3298   23.8369 O   0  0  0  0  0  0  0  0  0  0  0  0
   10.9105  -20.0434   16.4183 N   0  0  0  0  0  0  0  0  0  0  0  0
    8.7488  -16.3064   24.8201 C   0  0  1  0  0  0  0  0  0  0  0  0
    9.1448  -15.9706   26.1733 C   0  0  0  0  0  0  0  0  0  0  0  0
    7.8967  -15.4909   26.8787 C   0  0  0  0  0  0  0  0  0  0  0  0
    7.4743  -14.1385   26.5085 C   0  0  0  0  0  0  0  0  0  0  0  0
    8.1947  -13.0231   26.9082 C   0  0  0  0  0  0  0  0  0  0  0  0
    7.7651  -11.7684   26.5373 C   0  0  0  0  0  0  0  0  0  0  0  0
    6.6314  -11.5771   25.7739 C   0  0  0  0  0  0  0  0  0  0  0  0
    5.9357  -12.7073   25.3915 C   0  0  0  0  0  0  0  0  0  0  0  0
    6.3284  -13.9781   25.7391 C   0  0  0  0  0  0  0  0  0  0  0  0
    9.8387  -17.0656   26.8488 O   0  0  0  0  0  0  0  0  0  0  0  0
   10.4933  -16.8357   28.0494 O   0  0  0  0  0  0  0  0  0  0  0  0
  2  3  1  0
  2  1  1  6
  4  3  1  0
  5  2  1  0
  6  5  2  0
  8  7  1  0
  8 10  1  0
  9  8  2  0
 11 10  1  0
 11 12  1  0
 14 13  1  6
 13 12  1  0
 14 15  1  0
 15  5  1  0
 16 18  1  0
 16 14  1  0
 17 16  2  0
 19 18  1  0
 19 20  1  6
 20 21  1  0
 21 22  2  0
 21 26  1  0
 22 23  1  0
 23 24  2  0
 25 24  1  0
 26 25  2  0
 27 28  1  0
 27 19  1  0
 29 27  2  0
M  END
$$$$
