CRF.pdb
     RDKit          3D

 29 29  0  0  1  0  0  0  0  0999 V2000
    7.9559  -14.2811   18.5282 N   0  0  0  0  0  0  0  0  0  0  0  0
    8.3847  -13.8104   19.8323 C   0  0  1  0  0  0  0  0  0  0  0  0
    7.3700  -12.8829   20.4568 C   0  0  0  0  0  0  0  0  0  0  0  0
    6.0226  -13.7489   21.2589 S   0  0  0  0  0  0  0  0  0  0  0  0
    8.6854  -14.9825   20.6666 C   0  0  0  0  0  0  0  0  0  0  0  0
    8.1644  -16.0883   20.3198 O   0  0  0  0  0  0  0  0  0  0  0  0
   14.2617  -14.0299   19.3468 N   0  0  0  0  0  0  0  0  0  0  0  0
   14.9871  -14.7161   20.3555 C   0  0  0  0  0  0  0  0  0  0  0  0
   16.1230  -14.2806   20.7736 N   0  0  0  0  0  0  0  0  0  0  0  0
   14.4624  -15.9267   20.9388 N   0  0  0  0  0  0  0  0  0  0  0  0
   13.1714  -16.4409   20.5871 C   0  0  0  0  0  0  0  0  0  0  0  0
   12.0919  -15.7044   21.3465 C   0  0  0  0  0  0  0  0  0  0  0  0
   11.1764  -16.7023   21.9684 C   0  0  0  0  0  0  0  0  0  0  0  0
    9.9275  -16.0785   22.5490 C   0  0  2  0  0  0  0  0  0  0  0  0
    9.5140  -14.9125   21.8101 N   0  0  0  0  0  0  0  0  0  0  0  0
   10.0647  -15.8020   24.0005 C   0  0  0  0  0  0  0  0  0  0  0  0
   10.4340  -14.6890   24.4394 O   0  0  0  0  0  0  0  0  0  0  0  0
   16.5995  -14.7728   21.5427 N   0  0  0  0  0  0  0  0  0  0  0  0
    9.7729  -16.8185   24.9426 C   0  0  1  0  0  0  0  0  0  0  0  0
    9.2306  -16.5606   26.2618 C   0  0  0  0  0  0  0  0  0  0  0  0
    7.7955  -16.1306   26.0587 C   0  0  0  0  0  0  0  0  0  0  0  0
    7.5777  -14.6855   26.1531 C   0  0  0  0  0  0  0  0  0  0  0  0
    8.0749  -13.9491   27.2177 C   0  0  0  0  0  0  0  0  0  0  0  0
    7.8500  -12.5915   27.2682 C   0  0  0  0  0  0  0  0  0  0  0  0
    7.1401  -11.9285   26.2879 C   0  0  0  0  0  0  0  0  0  0  0  0
    6.6579  -12.6893   25.2408 C   0  0  0  0  0  0  0  0  0  0  0  0
    6.8589  -14.0462   25.1504 C   0  0  0  0  0  0  0  0  0  0  0  0
    9.4007  -17.6893   27.1749 O   0  0  0  0  0  0  0  0  0  0  0  0
    9.6372  -17.4617   28.5221 O   0  0  0  0  0  0  0  0  0  0  0  0
  2  3  1  0
  2  1  1  6
  4  3  1  0
  5  2  1  0
  6  5  2  0
  8  7  1  0
  8 10  1  0
  9  8  2  0
 11 10  1  0
 11 12  1  0
 14 13  1  6
 13 12  1  0
 14 15  1  0
 15  5  1  0
 16 18  1  0
 16 14  1  0
 17 16  2  0
 19 18  1  0
 19 20  1  1
 20 21  1  0
 21 22  2  0
 21 26  1  0
 22 23  1  0
 23 24  2  0
 25 24  1  0
 26 25  2  0
 27 28  1  0
 27 19  1  0
 29 27  2  0
M  END
$$$$
