CRF.pdb
     RDKit          3D

 29 29  0  0  1  0  0  0  0  0999 V2000
   11.1930  -16.2616   19.1352 N   0  0  0  0  0  0  0  0  0  0  0  0
   10.6341  -16.9666   20.2740 C   0  0  1  0  0  0  0  0  0  0  0  0
   11.7037  -17.3980   21.2484 C   0  0  0  0  0  0  0  0  0  0  0  0
   12.6806  -16.0329   21.8736 S   0  0  0  0  0  0  0  0  0  0  0  0
    9.6085  -16.1094   20.8854 C   0  0  0  0  0  0  0  0  0  0  0  0
    9.5662  -14.8975   20.5059 O   0  0  0  0  0  0  0  0  0  0  0  0
    3.0784  -19.6198   21.6485 N   0  0  0  0  0  0  0  0  0  0  0  0
    4.1456  -19.6265   20.7128 C   0  0  0  0  0  0  0  0  0  0  0  0
    4.7258  -20.7223   20.3702 N   0  0  0  0  0  0  0  0  0  0  0  0
    4.6071  -18.3947   20.1205 N   0  0  0  0  0  0  0  0  0  0  0  0
    4.4054  -17.1253   20.7552 C   0  0  0  0  0  0  0  0  0  0  0  0
    5.7083  -16.3619   20.8206 C   0  0  0  0  0  0  0  0  0  0  0  0
    6.2735  -16.4935   22.1931 C   0  0  0  0  0  0  0  0  0  0  0  0
    7.6025  -15.7913   22.3558 C   0  0  2  0  0  0  0  0  0  0  0  0
    8.6962  -16.5849   21.8553 N   0  0  0  0  0  0  0  0  0  0  0  0
    7.8294  -15.3426   23.7521 C   0  0  0  0  0  0  0  0  0  0  0  0
    6.9656  -14.7112   24.4026 O   0  0  0  0  0  0  0  0  0  0  0  0
    5.4871  -20.6944   19.6772 N   0  0  0  0  0  0  0  0  0  0  0  0
    9.0599  -15.6273   24.3930 C   0  0  2  0  0  0  0  0  0  0  0  0
    9.2378  -15.6204   25.8315 C   0  0  0  0  0  0  0  0  0  0  0  0
    7.8789  -15.3363   26.4301 C   0  0  0  0  0  0  0  0  0  0  0  0
    7.5100  -13.9192   26.4484 C   0  0  0  0  0  0  0  0  0  0  0  0
    6.2673  -13.4916   26.0060 C   0  0  0  0  0  0  0  0  0  0  0  0
    5.9584  -12.1501   26.0416 C   0  0  0  0  0  0  0  0  0  0  0  0
    6.8494  -11.2042   26.5063 C   0  0  0  0  0  0  0  0  0  0  0  0
    8.0786  -11.6612   26.9398 C   0  0  0  0  0  0  0  0  0  0  0  0
    8.4287  -12.9905   26.9220 C   0  0  0  0  0  0  0  0  0  0  0  0
    9.8759  -16.8377   26.3293 O   0  0  0  0  0  0  0  0  0  0  0  0
   10.2398  -17.8413   25.4444 O   0  0  0  0  0  0  0  0  0  0  0  0
  2  3  1  0
  2  1  1  6
  4  3  1  0
  5  2  1  0
  6  5  2  0
  8  7  1  0
  8 10  1  0
  9  8  2  0
 11 10  1  0
 11 12  1  0
 14 13  1  1
 13 12  1  0
 14 15  1  0
 15  5  1  0
 16 18  1  0
 16 14  1  0
 17 16  2  0
 19 18  1  0
 19 20  1  6
 20 21  1  0
 21 22  2  0
 21 26  1  0
 22 23  1  0
 23 24  2  0
 25 24  1  0
 26 25  2  0
 27 28  1  0
 27 19  1  0
 29 27  2  0
M  END
$$$$
