CRF.pdb
     RDKit          3D

 29 29  0  0  1  0  0  0  0  0999 V2000
    7.2751  -14.7157   17.7971 N   0  0  0  0  0  0  0  0  0  0  0  0
    8.1693  -14.2056   18.8201 C   0  0  1  0  0  0  0  0  0  0  0  0
    7.7576  -12.8318   19.2925 C   0  0  0  0  0  0  0  0  0  0  0  0
    8.7451  -12.2313   20.6611 S   0  0  0  0  0  0  0  0  0  0  0  0
    8.2344  -15.1937   19.9062 C   0  0  0  0  0  0  0  0  0  0  0  0
    7.1319  -15.6682   20.3233 O   0  0  0  0  0  0  0  0  0  0  0  0
    8.2176  -21.2372   19.8020 N   0  0  0  0  0  0  0  0  0  0  0  0
    9.1274  -21.1745   18.7143 C   0  0  0  0  0  0  0  0  0  0  0  0
    8.8909  -21.7908   17.6103 N   0  0  0  0  0  0  0  0  0  0  0  0
   10.3472  -20.4121   18.8238 N   0  0  0  0  0  0  0  0  0  0  0  0
   10.7031  -19.7186   20.0269 C   0  0  0  0  0  0  0  0  0  0  0  0
    9.8469  -18.4838   20.1900 C   0  0  0  0  0  0  0  0  0  0  0  0
   10.3255  -17.7211   21.3774 C   0  0  0  0  0  0  0  0  0  0  0  0
    9.5200  -16.4690   21.6406 C   0  0  2  0  0  0  0  0  0  0  0  0
    9.4552  -15.6162   20.4808 N   0  0  0  0  0  0  0  0  0  0  0  0
    9.9954  -15.7423   22.8440 C   0  0  0  0  0  0  0  0  0  0  0  0
   10.7178  -14.7223   22.7701 O   0  0  0  0  0  0  0  0  0  0  0  0
    9.6049  -21.7874   16.8681 N   0  0  0  0  0  0  0  0  0  0  0  0
    9.6315  -16.2005   24.1339 C   0  0  2  0  0  0  0  0  0  0  0  0
    9.2285  -15.3230   25.2149 C   0  0  0  0  0  0  0  0  0  0  0  0
    8.0981  -14.4741   24.6790 C   0  0  0  0  0  0  0  0  0  0  0  0
    7.5541  -13.5135   25.6413 C   0  0  0  0  0  0  0  0  0  0  0  0
    8.2542  -13.1643   26.7862 C   0  0  0  0  0  0  0  0  0  0  0  0
    7.7086  -12.2555   27.6652 C   0  0  0  0  0  0  0  0  0  0  0  0
    6.4770  -11.6723   27.4470 C   0  0  0  0  0  0  0  0  0  0  0  0
    5.8044  -12.0403   26.2982 C   0  0  0  0  0  0  0  0  0  0  0  0
    6.3114  -12.9432   25.3939 C   0  0  0  0  0  0  0  0  0  0  0  0
    8.9110  -16.0474   26.4442 O   0  0  0  0  0  0  0  0  0  0  0  0
    9.5052  -15.6762   27.6407 O   0  0  0  0  0  0  0  0  0  0  0  0
  2  3  1  0
  2  1  1  6
  4  3  1  0
  5  2  1  0
  6  5  2  0
  8  7  1  0
  8 10  1  0
  9  8  2  0
 11 10  1  0
 11 12  1  0
 14 13  1  6
 13 12  1  0
 14 15  1  0
 15  5  1  0
 16 18  1  0
 16 14  1  0
 17 16  2  0
 19 18  1  0
 19 20  1  6
 20 21  1  0
 21 22  2  0
 21 26  1  0
 22 23  1  0
 23 24  2  0
 25 24  1  0
 26 25  2  0
 27 28  1  0
 27 19  1  0
 29 27  2  0
M  END
$$$$
