CRF.pdb
     RDKit          3D

 29 29  0  0  1  0  0  0  0  0999 V2000
    6.5857  -14.5593   18.3716 N   0  0  0  0  0  0  0  0  0  0  0  0
    7.8919  -14.2989   18.9480 C   0  0  1  0  0  0  0  0  0  0  0  0
    8.0058  -12.8854   19.4668 C   0  0  0  0  0  0  0  0  0  0  0  0
    8.0221  -11.6553   18.1648 S   0  0  0  0  0  0  0  0  0  0  0  0
    8.1486  -15.3143   19.9793 C   0  0  0  0  0  0  0  0  0  0  0  0
    7.1805  -15.6204   20.7432 O   0  0  0  0  0  0  0  0  0  0  0  0
   14.4874  -19.3748   21.2727 N   0  0  0  0  0  0  0  0  0  0  0  0
   13.9596  -20.3043   22.2066 C   0  0  0  0  0  0  0  0  0  0  0  0
   14.7006  -20.8278   23.1184 N   0  0  0  0  0  0  0  0  0  0  0  0
   12.5693  -20.6856   22.1533 N   0  0  0  0  0  0  0  0  0  0  0  0
   11.6709  -20.1445   21.1760 C   0  0  0  0  0  0  0  0  0  0  0  0
   10.8663  -19.0145   21.7761 C   0  0  0  0  0  0  0  0  0  0  0  0
   10.5498  -18.0286   20.7044 C   0  0  0  0  0  0  0  0  0  0  0  0
    9.6824  -16.8880   21.1868 C   0  0  2  0  0  0  0  0  0  0  0  0
    9.4068  -15.9395   20.1375 N   0  0  0  0  0  0  0  0  0  0  0  0
   10.2397  -16.2367   22.3981 C   0  0  0  0  0  0  0  0  0  0  0  0
   11.2911  -15.5572   22.3709 O   0  0  0  0  0  0  0  0  0  0  0  0
   14.3021  -21.5437   23.7425 N   0  0  0  0  0  0  0  0  0  0  0  0
    9.5758  -16.3747   23.6416 C   0  0  2  0  0  0  0  0  0  0  0  0
   10.0912  -15.8508   24.8909 C   0  0  0  0  0  0  0  0  0  0  0  0
    8.8930  -15.6039   25.7790 C   0  0  0  0  0  0  0  0  0  0  0  0
    9.2180  -15.0398   27.0908 C   0  0  0  0  0  0  0  0  0  0  0  0
    9.6928  -15.8371   28.1211 C   0  0  0  0  0  0  0  0  0  0  0  0
    9.9889  -15.2675   29.3394 C   0  0  0  0  0  0  0  0  0  0  0  0
    9.8290  -13.9173   29.5763 C   0  0  0  0  0  0  0  0  0  0  0  0
    9.3544  -13.1500   28.5305 C   0  0  0  0  0  0  0  0  0  0  0  0
    9.0464  -13.6767   27.2986 C   0  0  0  0  0  0  0  0  0  0  0  0
   11.1177  -16.7064   25.4835 O   0  0  0  0  0  0  0  0  0  0  0  0
   10.8940  -18.0685   25.6145 O   0  0  0  0  0  0  0  0  0  0  0  0
  2  3  1  0
  2  1  1  1
  4  3  1  0
  5  2  1  0
  6  5  2  0
  8  7  1  0
  8 10  1  0
  9  8  2  0
 11 10  1  0
 11 12  1  0
 14 13  1  6
 13 12  1  0
 14 15  1  0
 15  5  1  0
 16 18  1  0
 16 14  1  0
 17 16  2  0
 19 18  1  0
 19 20  1  1
 20 21  1  0
 21 22  2  0
 21 26  1  0
 22 23  1  0
 23 24  2  0
 25 24  1  0
 26 25  2  0
 27 28  1  0
 27 19  1  0
 29 27  2  0
M  END
$$$$
