CRF.pdb
     RDKit          3D

 29 29  0  0  1  0  0  0  0  0999 V2000
    8.1176  -15.3937   16.6887 N   0  0  0  0  0  0  0  0  0  0  0  0
    8.7091  -14.8330   17.8896 C   0  0  1  0  0  0  0  0  0  0  0  0
    8.4207  -13.3568   18.0218 C   0  0  0  0  0  0  0  0  0  0  0  0
    9.0847  -12.6401   19.5231 S   0  0  0  0  0  0  0  0  0  0  0  0
    8.2405  -15.6177   19.0407 C   0  0  0  0  0  0  0  0  0  0  0  0
    6.9843  -15.7506   19.1773 O   0  0  0  0  0  0  0  0  0  0  0  0
    8.9542  -20.6219   25.3557 N   0  0  0  0  0  0  0  0  0  0  0  0
    7.9375  -21.1699   24.5308 C   0  0  0  0  0  0  0  0  0  0  0  0
    6.8152  -21.5589   25.0245 N   0  0  0  0  0  0  0  0  0  0  0  0
    8.1418  -21.3038   23.1090 N   0  0  0  0  0  0  0  0  0  0  0  0
    9.0013  -20.4185   22.3792 C   0  0  0  0  0  0  0  0  0  0  0  0
    8.3386  -19.0708   22.2089 C   0  0  0  0  0  0  0  0  0  0  0  0
    9.2318  -18.1955   21.3985 C   0  0  0  0  0  0  0  0  0  0  0  0
    8.6795  -16.8012   21.2073 C   0  0  2  0  0  0  0  0  0  0  0  0
    9.1252  -16.2098   19.9711 N   0  0  0  0  0  0  0  0  0  0  0  0
    8.9517  -15.9279   22.3759 C   0  0  0  0  0  0  0  0  0  0  0  0
   10.0588  -15.3707   22.5535 O   0  0  0  0  0  0  0  0  0  0  0  0
    6.1110  -21.9823   24.4036 N   0  0  0  0  0  0  0  0  0  0  0  0
    7.9377  -15.7019   23.3385 C   0  0  2  0  0  0  0  0  0  0  0  0
    8.1219  -14.8900   24.5251 C   0  0  0  0  0  0  0  0  0  0  0  0
    6.9858  -13.8928   24.5428 C   0  0  0  0  0  0  0  0  0  0  0  0
    6.9247  -13.0666   25.7503 C   0  0  0  0  0  0  0  0  0  0  0  0
    5.7466  -12.4495   26.1431 C   0  0  0  0  0  0  0  0  0  0  0  0
    5.7304  -11.6823   27.2866 C   0  0  0  0  0  0  0  0  0  0  0  0
    6.8555  -11.5023   28.0653 C   0  0  0  0  0  0  0  0  0  0  0  0
    8.0130  -12.1296   27.6478 C   0  0  0  0  0  0  0  0  0  0  0  0
    8.0742  -12.9041   26.5137 C   0  0  0  0  0  0  0  0  0  0  0  0
    8.2460  -15.6877   25.7437 O   0  0  0  0  0  0  0  0  0  0  0  0
    7.8747  -17.0237   25.7386 O   0  0  0  0  0  0  0  0  0  0  0  0
  2  3  1  0
  2  1  1  6
  4  3  1  0
  5  2  1  0
  6  5  2  0
  8  7  1  0
  8 10  1  0
  9  8  2  0
 11 10  1  0
 11 12  1  0
 14 13  1  1
 13 12  1  0
 14 15  1  0
 15  5  1  0
 16 18  1  0
 16 14  1  0
 17 16  2  0
 19 18  1  0
 19 20  1  6
 20 21  1  0
 21 22  2  0
 21 26  1  0
 22 23  1  0
 23 24  2  0
 25 24  1  0
 26 25  2  0
 27 28  1  0
 27 19  1  0
 29 27  2  0
M  END
$$$$
