PIK.pdb
     RDKit          3D

 25 25  0  0  1  0  0  0  0  0999 V2000
    6.8808  -14.8447   21.2269 N   0  0  0  0  0  0  0  0  0  0  0  0
    6.1575  -14.0159   20.3061 C   0  0  0  0  0  0  0  0  0  0  0  0
    7.1752  -13.0806   19.6742 C   0  0  0  0  0  0  0  0  0  0  0  0
    8.1957  -12.9596   20.7862 C   0  0  0  0  0  0  0  0  0  0  0  0
    8.2236  -14.3710   21.3180 C   0  0  1  0  0  0  0  0  0  0  0  0
    8.7672  -14.4296   22.7003 C   0  0  0  0  0  0  0  0  0  0  0  0
   10.0085  -14.4386   22.8452 O   0  0  0  0  0  0  0  0  0  0  0  0
    6.0980  -11.6503   26.4240 C   0  0  0  0  0  0  0  0  0  0  0  0
    7.1936  -12.3381   25.6879 C   0  0  0  0  0  0  0  0  0  0  0  0
    7.4723  -13.7433   26.0918 C   0  0  2  0  0  0  0  0  0  0  0  0
    7.9063  -13.7635   27.5442 C   0  0  0  0  0  0  0  0  0  0  0  0
    8.4297  -14.4772   25.2091 C   0  0  2  0  0  0  0  0  0  0  0  0
    7.9257  -14.4749   23.8406 N   0  0  0  0  0  0  0  0  0  0  0  0
    8.6444  -15.8794   25.6317 C   0  0  0  0  0  0  0  0  0  0  0  0
    7.7083  -16.7306   25.5987 O   0  0  0  0  0  0  0  0  0  0  0  0
    9.9057  -16.2815   26.0785 N   0  0  0  0  0  0  0  0  0  0  0  0
   10.0619  -17.7514   26.4751 C   0  0  1  0  0  0  0  0  0  0  0  0
   11.0334  -18.3121   25.4975 C   0  0  0  0  0  0  0  0  0  0  0  0
   11.5722  -19.6464   25.6321 C   0  0  0  0  0  0  0  0  0  0  0  0
   12.5528  -20.1554   24.6547 C   0  0  0  0  0  0  0  0  0  0  0  0
   13.0164  -21.5872   25.0676 C   0  0  0  0  0  0  0  0  0  0  0  0
   14.0626  -22.0509   24.2083 N   0  0  0  0  0  0  0  0  0  0  0  0
   10.5681  -17.6132   27.8665 C   0  0  0  0  0  0  0  0  0  0  0  0
   10.6661  -18.5963   28.8113 O   0  0  0  0  0  0  0  0  0  0  0  0
   10.9672  -16.4580   28.2820 O   0  0  0  0  0  0  0  0  0  0  0  0
  1  5  1  0
  2  3  1  0
  2  1  1  0
  3  4  1  0
  4  5  1  0
  5  6  1  1
  7  6  2  0
  9  8  1  0
 10  9  1  0
 10 11  1  1
 12 10  1  0
 12 13  1  6
 13  6  1  0
 14 15  2  0
 14 12  1  0
 16 14  1  0
 17 16  1  0
 17 18  1  6
 19 20  1  0
 19 18  1  0
 20 21  1  0
 21 22  1  0
 23 24  1  0
 23 17  1  0
 25 23  2  0
M  END
$$$$
