PIK.pdb
     RDKit          3D

 25 25  0  0  1  0  0  0  0  0999 V2000
    6.9677  -14.8750   20.7937 N   0  0  0  0  0  0  0  0  0  0  0  0
    6.2808  -14.1173   19.7878 C   0  0  0  0  0  0  0  0  0  0  0  0
    7.3202  -13.2194   19.1373 C   0  0  0  0  0  0  0  0  0  0  0  0
    8.2907  -13.0141   20.2811 C   0  0  0  0  0  0  0  0  0  0  0  0
    8.3028  -14.3854   20.9097 C   0  0  1  0  0  0  0  0  0  0  0  0
    8.7862  -14.3446   22.3148 C   0  0  0  0  0  0  0  0  0  0  0  0
   10.0152  -14.2335   22.5119 O   0  0  0  0  0  0  0  0  0  0  0  0
    6.2360  -11.3564   25.8467 C   0  0  0  0  0  0  0  0  0  0  0  0
    7.2032  -12.1992   25.0921 C   0  0  0  0  0  0  0  0  0  0  0  0
    7.4287  -13.5715   25.6226 C   0  0  2  0  0  0  0  0  0  0  0  0
    7.8726  -13.4757   27.0689 C   0  0  0  0  0  0  0  0  0  0  0  0
    8.3493  -14.4215   24.8075 C   0  0  2  0  0  0  0  0  0  0  0  0
    7.9013  -14.4273   23.4197 N   0  0  0  0  0  0  0  0  0  0  0  0
    8.4193  -15.8198   25.2877 C   0  0  0  0  0  0  0  0  0  0  0  0
    7.3842  -16.5434   25.3695 O   0  0  0  0  0  0  0  0  0  0  0  0
    9.6518  -16.3617   25.6613 N   0  0  0  0  0  0  0  0  0  0  0  0
    9.6582  -17.8291   26.0959 C   0  0  1  0  0  0  0  0  0  0  0  0
   10.6100  -18.5001   25.1696 C   0  0  0  0  0  0  0  0  0  0  0  0
   10.3878  -18.5439   23.7423 C   0  0  0  0  0  0  0  0  0  0  0  0
   11.3522  -19.2267   22.8594 C   0  0  0  0  0  0  0  0  0  0  0  0
   10.8860  -19.1075   21.3748 C   0  0  0  0  0  0  0  0  0  0  0  0
   11.6777  -18.1471   20.6684 N   0  0  0  0  0  0  0  0  0  0  0  0
   10.1229  -17.7020   27.5027 C   0  0  0  0  0  0  0  0  0  0  0  0
   10.1031  -18.6681   28.4696 O   0  0  0  0  0  0  0  0  0  0  0  0
   10.6024  -16.5750   27.9105 O   0  0  0  0  0  0  0  0  0  0  0  0
  1  5  1  0
  2  3  1  0
  2  1  1  0
  3  4  1  0
  4  5  1  0
  5  6  1  1
  7  6  2  0
  9  8  1  0
 10  9  1  0
 10 11  1  1
 12 10  1  0
 12 13  1  6
 13  6  1  0
 14 15  2  0
 14 12  1  0
 16 14  1  0
 17 16  1  0
 17 18  1  6
 19 20  1  0
 19 18  1  0
 20 21  1  0
 21 22  1  0
 23 24  1  0
 23 17  1  0
 25 23  2  0
M  END
$$$$
