PIK.pdb
     RDKit          3D

 25 25  0  0  1  0  0  0  0  0999 V2000
    7.1101  -14.8110   20.6541 N   0  0  0  0  0  0  0  0  0  0  0  0
    6.4757  -14.0767   19.5976 C   0  0  0  0  0  0  0  0  0  0  0  0
    7.5133  -13.1030   19.0636 C   0  0  0  0  0  0  0  0  0  0  0  0
    8.3552  -12.8617   20.2986 C   0  0  0  0  0  0  0  0  0  0  0  0
    8.3943  -14.2423   20.9054 C   0  0  1  0  0  0  0  0  0  0  0  0
    8.7378  -14.2005   22.3511 C   0  0  0  0  0  0  0  0  0  0  0  0
    9.9027  -13.8801   22.6707 O   0  0  0  0  0  0  0  0  0  0  0  0
    5.2773  -11.9903   25.6718 C   0  0  0  0  0  0  0  0  0  0  0  0
    6.4982  -12.5505   25.0308 C   0  0  0  0  0  0  0  0  0  0  0  0
    6.9476  -13.8794   25.5280 C   0  0  2  0  0  0  0  0  0  0  0  0
    7.2168  -13.7851   27.0169 C   0  0  0  0  0  0  0  0  0  0  0  0
    8.0996  -14.4762   24.7856 C   0  0  2  0  0  0  0  0  0  0  0  0
    7.7916  -14.5106   23.3606 N   0  0  0  0  0  0  0  0  0  0  0  0
    8.4243  -15.8493   25.2325 C   0  0  0  0  0  0  0  0  0  0  0  0
    7.5434  -16.7573   25.2725 O   0  0  0  0  0  0  0  0  0  0  0  0
    9.7301  -16.1595   25.6210 N   0  0  0  0  0  0  0  0  0  0  0  0
   10.0103  -17.6149   26.0023 C   0  0  1  0  0  0  0  0  0  0  0  0
   11.1056  -18.0466   25.0924 C   0  0  0  0  0  0  0  0  0  0  0  0
   10.8911  -18.2493   23.6777 C   0  0  0  0  0  0  0  0  0  0  0  0
   11.9582  -18.8258   22.8380 C   0  0  0  0  0  0  0  0  0  0  0  0
   11.4920  -18.8734   21.3495 C   0  0  0  0  0  0  0  0  0  0  0  0
   12.5831  -18.5975   20.4655 N   0  0  0  0  0  0  0  0  0  0  0  0
   10.3940  -17.4607   27.4307 C   0  0  0  0  0  0  0  0  0  0  0  0
   10.5407  -18.4540   28.3584 O   0  0  0  0  0  0  0  0  0  0  0  0
   10.6201  -16.2798   27.9004 O   0  0  0  0  0  0  0  0  0  0  0  0
  1  5  1  0
  2  3  1  0
  2  1  1  0
  3  4  1  0
  4  5  1  0
  5  6  1  1
  7  6  2  0
  9  8  1  0
 10  9  1  0
 10 11  1  1
 12 10  1  0
 12 13  1  6
 13  6  1  0
 14 15  2  0
 14 12  1  0
 16 14  1  0
 17 16  1  0
 17 18  1  6
 19 20  1  0
 19 18  1  0
 20 21  1  0
 21 22  1  0
 23 24  1  0
 23 17  1  0
 25 23  2  0
M  END
$$$$
