PIK.pdb
     RDKit          3D

 25 25  0  0  1  0  0  0  0  0999 V2000
    7.1897  -14.9086   20.8673 N   0  0  0  0  0  0  0  0  0  0  0  0
    6.5283  -14.1433   19.8500 C   0  0  0  0  0  0  0  0  0  0  0  0
    7.5784  -13.2238   19.2488 C   0  0  0  0  0  0  0  0  0  0  0  0
    8.5071  -13.0250   20.4280 C   0  0  0  0  0  0  0  0  0  0  0  0
    8.5142  -14.4056   21.0360 C   0  0  1  0  0  0  0  0  0  0  0  0
    8.9491  -14.3808   22.4572 C   0  0  0  0  0  0  0  0  0  0  0  0
   10.1727  -14.2967   22.6974 O   0  0  0  0  0  0  0  0  0  0  0  0
    5.8392  -11.6130   25.7865 C   0  0  0  0  0  0  0  0  0  0  0  0
    6.9815  -12.3034   25.1278 C   0  0  0  0  0  0  0  0  0  0  0  0
    7.3640  -13.6247   25.6964 C   0  0  2  0  0  0  0  0  0  0  0  0
    7.7384  -13.4458   27.1544 C   0  0  0  0  0  0  0  0  0  0  0  0
    8.4164  -14.3615   24.9323 C   0  0  2  0  0  0  0  0  0  0  0  0
    8.0248  -14.4493   23.5303 N   0  0  0  0  0  0  0  0  0  0  0  0
    8.6490  -15.7303   25.4451 C   0  0  0  0  0  0  0  0  0  0  0  0
    7.7305  -16.6010   25.4459 O   0  0  0  0  0  0  0  0  0  0  0  0
    9.9080  -16.0782   25.9413 N   0  0  0  0  0  0  0  0  0  0  0  0
   10.1084  -17.5379   26.3551 C   0  0  1  0  0  0  0  0  0  0  0  0
   11.2891  -17.9997   25.5762 C   0  0  0  0  0  0  0  0  0  0  0  0
   11.8918  -19.2950   25.7942 C   0  0  0  0  0  0  0  0  0  0  0  0
   13.0466  -19.7247   24.9833 C   0  0  0  0  0  0  0  0  0  0  0  0
   13.5202  -21.1383   25.4451 C   0  0  0  0  0  0  0  0  0  0  0  0
   14.4567  -21.6903   24.5144 N   0  0  0  0  0  0  0  0  0  0  0  0
   10.3313  -17.3858   27.8175 C   0  0  0  0  0  0  0  0  0  0  0  0
   10.2731  -18.3662   28.7683 O   0  0  0  0  0  0  0  0  0  0  0  0
   10.6087  -16.2196   28.2965 O   0  0  0  0  0  0  0  0  0  0  0  0
  1  5  1  0
  2  3  1  0
  2  1  1  0
  3  4  1  0
  4  5  1  0
  5  6  1  1
  7  6  2  0
  9  8  1  0
 10  9  1  0
 10 11  1  1
 12 10  1  0
 12 13  1  6
 13  6  1  0
 14 15  2  0
 14 12  1  0
 16 14  1  0
 17 16  1  0
 17 18  1  6
 19 20  1  0
 19 18  1  0
 20 21  1  0
 21 22  1  0
 23 24  1  0
 23 17  1  0
 25 23  2  0
M  END
$$$$
