PIK.pdb
     RDKit          3D

 25 25  0  0  1  0  0  0  0  0999 V2000
    7.8302  -18.4221   17.5023 N   0  0  0  0  0  0  0  0  0  0  0  0
    6.9084  -18.3987   16.4034 C   0  0  0  0  0  0  0  0  0  0  0  0
    7.6030  -17.6599   15.2715 C   0  0  0  0  0  0  0  0  0  0  0  0
    8.5105  -16.7246   16.0421 C   0  0  0  0  0  0  0  0  0  0  0  0
    8.9594  -17.6136   17.1752 C   0  0  1  0  0  0  0  0  0  0  0  0
    9.4625  -16.8245   18.3301 C   0  0  0  0  0  0  0  0  0  0  0  0
   10.6960  -16.6518   18.4330 O   0  0  0  0  0  0  0  0  0  0  0  0
    6.6837  -12.4945   19.9107 C   0  0  0  0  0  0  0  0  0  0  0  0
    7.7988  -13.4533   19.6813 C   0  0  0  0  0  0  0  0  0  0  0  0
    8.0505  -14.4372   20.7694 C   0  0  2  0  0  0  0  0  0  0  0  0
    8.3987  -13.6895   22.0413 C   0  0  0  0  0  0  0  0  0  0  0  0
    9.0564  -15.4946   20.4459 C   0  0  2  0  0  0  0  0  0  0  0  0
    8.5915  -16.2717   19.3029 N   0  0  0  0  0  0  0  0  0  0  0  0
    9.3057  -16.4178   21.5756 C   0  0  0  0  0  0  0  0  0  0  0  0
    8.4111  -17.2106   21.9914 O   0  0  0  0  0  0  0  0  0  0  0  0
   10.5540  -16.4212   22.2033 N   0  0  0  0  0  0  0  0  0  0  0  0
   10.7925  -17.5011   23.2611 C   0  0  1  0  0  0  0  0  0  0  0  0
   12.1017  -18.1097   22.9008 C   0  0  0  0  0  0  0  0  0  0  0  0
   12.2086  -19.4687   22.4206 C   0  0  0  0  0  0  0  0  0  0  0  0
   13.1218  -19.7959   21.3094 C   0  0  0  0  0  0  0  0  0  0  0  0
   13.0289  -21.3185   20.9796 C   0  0  0  0  0  0  0  0  0  0  0  0
   13.9216  -21.6641   19.9159 N   0  0  0  0  0  0  0  0  0  0  0  0
   10.7924  -16.6818   24.5020 C   0  0  0  0  0  0  0  0  0  0  0  0
   10.7215  -17.1337   25.7902 O   0  0  0  0  0  0  0  0  0  0  0  0
   10.8598  -15.3959   24.4103 O   0  0  0  0  0  0  0  0  0  0  0  0
  1  5  1  0
  2  3  1  0
  2  1  1  0
  3  4  1  0
  4  5  1  0
  5  6  1  1
  7  6  2  0
  9  8  1  0
 10  9  1  0
 10 11  1  1
 12 10  1  0
 12 13  1  6
 13  6  1  0
 14 15  2  0
 14 12  1  0
 16 14  1  0
 17 16  1  0
 17 18  1  6
 19 20  1  0
 19 18  1  0
 20 21  1  0
 21 22  1  0
 23 24  1  0
 23 17  1  0
 25 23  2  0
M  END
$$$$
