PIK.pdb
     RDKit          3D

 25 25  0  0  1  0  0  0  0  0999 V2000
    7.0441  -15.2171   21.1835 N   0  0  0  0  0  0  0  0  0  0  0  0
    6.3633  -14.4911   20.1504 C   0  0  0  0  0  0  0  0  0  0  0  0
    7.4072  -13.6164   19.4762 C   0  0  0  0  0  0  0  0  0  0  0  0
    8.3727  -13.3758   20.6174 C   0  0  0  0  0  0  0  0  0  0  0  0
    8.3795  -14.7261   21.2899 C   0  0  1  0  0  0  0  0  0  0  0  0
    8.8563  -14.6406   22.6953 C   0  0  0  0  0  0  0  0  0  0  0  0
   10.0770  -14.4602   22.8931 O   0  0  0  0  0  0  0  0  0  0  0  0
    6.1298  -11.6249   25.9106 C   0  0  0  0  0  0  0  0  0  0  0  0
    7.1774  -12.4648   25.2685 C   0  0  0  0  0  0  0  0  0  0  0  0
    7.4789  -13.7600   25.9370 C   0  0  2  0  0  0  0  0  0  0  0  0
    7.9621  -13.4876   27.3478 C   0  0  0  0  0  0  0  0  0  0  0  0
    8.4106  -14.6570   25.1875 C   0  0  2  0  0  0  0  0  0  0  0  0
    7.9745  -14.7571   23.7995 N   0  0  0  0  0  0  0  0  0  0  0  0
    8.4834  -16.0201   25.7597 C   0  0  0  0  0  0  0  0  0  0  0  0
    7.4636  -16.7672   25.8199 O   0  0  0  0  0  0  0  0  0  0  0  0
    9.7013  -16.5013   26.2469 N   0  0  0  0  0  0  0  0  0  0  0  0
    9.6998  -17.9130   26.8379 C   0  0  1  0  0  0  0  0  0  0  0  0
   10.6479  -18.6856   25.9904 C   0  0  0  0  0  0  0  0  0  0  0  0
   10.3774  -18.9666   24.5988 C   0  0  0  0  0  0  0  0  0  0  0  0
   11.3928  -19.6351   23.7633 C   0  0  0  0  0  0  0  0  0  0  0  0
   10.8177  -19.8901   22.3351 C   0  0  0  0  0  0  0  0  0  0  0  0
   11.8090  -20.4745   21.4843 N   0  0  0  0  0  0  0  0  0  0  0  0
   10.1652  -17.6368   28.2229 C   0  0  0  0  0  0  0  0  0  0  0  0
   10.1137  -18.4825   29.2957 O   0  0  0  0  0  0  0  0  0  0  0  0
   10.6780  -16.4849   28.4994 O   0  0  0  0  0  0  0  0  0  0  0  0
  1  5  1  0
  2  3  1  0
  2  1  1  0
  3  4  1  0
  4  5  1  0
  5  6  1  1
  7  6  2  0
  9  8  1  0
 10  9  1  0
 10 11  1  1
 12 10  1  0
 12 13  1  6
 13  6  1  0
 14 15  2  0
 14 12  1  0
 16 14  1  0
 17 16  1  0
 17 18  1  6
 19 20  1  0
 19 18  1  0
 20 21  1  0
 21 22  1  0
 23 24  1  0
 23 17  1  0
 25 23  2  0
M  END
$$$$
