PIK.pdb
     RDKit          3D

 25 25  0  0  1  0  0  0  0  0999 V2000
    8.0240  -14.4758   20.0928 N   0  0  0  0  0  0  0  0  0  0  0  0
    7.7517  -15.3786   19.0117 C   0  0  0  0  0  0  0  0  0  0  0  0
    6.6222  -16.2827   19.4769 C   0  0  0  0  0  0  0  0  0  0  0  0
    6.8576  -16.3040   20.9724 C   0  0  0  0  0  0  0  0  0  0  0  0
    7.2591  -14.8728   21.2299 C   0  0  1  0  0  0  0  0  0  0  0  0
    8.0031  -14.7296   22.5088 C   0  0  0  0  0  0  0  0  0  0  0  0
    9.2440  -14.8763   22.4880 O   0  0  0  0  0  0  0  0  0  0  0  0
    5.9427  -11.3981   26.3964 C   0  0  0  0  0  0  0  0  0  0  0  0
    6.8764  -12.1580   25.5212 C   0  0  0  0  0  0  0  0  0  0  0  0
    7.2131  -13.5382   25.9652 C   0  0  2  0  0  0  0  0  0  0  0  0
    7.8352  -13.4753   27.3462 C   0  0  0  0  0  0  0  0  0  0  0  0
    8.0490  -14.3247   25.0076 C   0  0  2  0  0  0  0  0  0  0  0  0
    7.3501  -14.4354   23.7326 N   0  0  0  0  0  0  0  0  0  0  0  0
    8.3589  -15.6867   25.4970 C   0  0  0  0  0  0  0  0  0  0  0  0
    7.4589  -16.5695   25.6095 O   0  0  0  0  0  0  0  0  0  0  0  0
    9.6718  -16.0145   25.8449 N   0  0  0  0  0  0  0  0  0  0  0  0
    9.9512  -17.4803   26.1848 C   0  0  1  0  0  0  0  0  0  0  0  0
   10.8431  -17.9640   25.0964 C   0  0  0  0  0  0  0  0  0  0  0  0
   12.1194  -17.3451   24.8198 C   0  0  0  0  0  0  0  0  0  0  0  0
   12.9448  -17.8135   23.6906 C   0  0  0  0  0  0  0  0  0  0  0  0
   14.2114  -16.9125   23.5520 C   0  0  0  0  0  0  0  0  0  0  0  0
   15.0665  -17.3934   22.5101 N   0  0  0  0  0  0  0  0  0  0  0  0
   10.5939  -17.3404   27.5185 C   0  0  0  0  0  0  0  0  0  0  0  0
   11.0336  -18.3463   28.3330 O   0  0  0  0  0  0  0  0  0  0  0  0
   10.7763  -16.1615   28.0116 O   0  0  0  0  0  0  0  0  0  0  0  0
  1  5  1  0
  2  3  1  0
  2  1  1  0
  3  4  1  0
  4  5  1  0
  5  6  1  1
  7  6  2  0
  9  8  1  0
 10  9  1  0
 10 11  1  1
 12 10  1  0
 12 13  1  6
 13  6  1  0
 14 15  2  0
 14 12  1  0
 16 14  1  0
 17 16  1  0
 17 18  1  6
 19 20  1  0
 19 18  1  0
 20 21  1  0
 21 22  1  0
 23 24  1  0
 23 17  1  0
 25 23  2  0
M  END
$$$$
