PIK.pdb
     RDKit          3D

 25 25  0  0  1  0  0  0  0  0999 V2000
    6.7591  -16.0720   21.7460 N   0  0  0  0  0  0  0  0  0  0  0  0
    5.9844  -15.7194   20.5912 C   0  0  0  0  0  0  0  0  0  0  0  0
    6.9689  -15.2253   19.5441 C   0  0  0  0  0  0  0  0  0  0  0  0
    8.0700  -14.6610   20.4168 C   0  0  0  0  0  0  0  0  0  0  0  0
    8.1128  -15.6748   21.5331 C   0  0  1  0  0  0  0  0  0  0  0  0
    8.7552  -15.1238   22.7551 C   0  0  0  0  0  0  0  0  0  0  0  0
    9.9892  -14.9272   22.7343 O   0  0  0  0  0  0  0  0  0  0  0  0
    5.5314  -12.5958   26.7831 C   0  0  0  0  0  0  0  0  0  0  0  0
    6.3628  -13.6024   26.0684 C   0  0  0  0  0  0  0  0  0  0  0  0
    7.7118  -13.1478   25.6340 C   0  0  2  0  0  0  0  0  0  0  0  0
    7.5552  -12.0143   24.6396 C   0  0  0  0  0  0  0  0  0  0  0  0
    8.6077  -14.2277   25.1184 C   0  0  2  0  0  0  0  0  0  0  0  0
    8.0144  -14.8206   23.9255 N   0  0  0  0  0  0  0  0  0  0  0  0
    8.8477  -15.2999   26.1101 C   0  0  0  0  0  0  0  0  0  0  0  0
    8.0250  -16.2482   26.2707 O   0  0  0  0  0  0  0  0  0  0  0  0
   10.0059  -15.2728   26.8912 N   0  0  0  0  0  0  0  0  0  0  0  0
   10.2598  -16.4831   27.7928 C   0  0  1  0  0  0  0  0  0  0  0  0
   11.3610  -17.2323   27.1294 C   0  0  0  0  0  0  0  0  0  0  0  0
   11.9780  -18.3877   27.7401 C   0  0  0  0  0  0  0  0  0  0  0  0
   11.7510  -19.7346   27.1829 C   0  0  0  0  0  0  0  0  0  0  0  0
   12.5382  -20.7919   28.0183 C   0  0  0  0  0  0  0  0  0  0  0  0
   12.2541  -22.1172   27.5591 N   0  0  0  0  0  0  0  0  0  0  0  0
   10.6262  -15.8103   29.0673 C   0  0  0  0  0  0  0  0  0  0  0  0
   10.7298  -16.3836   30.3039 O   0  0  0  0  0  0  0  0  0  0  0  0
   10.8797  -14.5445   29.0636 O   0  0  0  0  0  0  0  0  0  0  0  0
  1  5  1  0
  2  3  1  0
  2  1  1  0
  3  4  1  0
  4  5  1  0
  5  6  1  1
  7  6  2  0
  9  8  1  0
 10  9  1  0
 10 11  1  6
 12 10  1  0
 12 13  1  6
 13  6  1  0
 14 15  2  0
 14 12  1  0
 16 14  1  0
 17 16  1  0
 17 18  1  6
 19 20  1  0
 19 18  1  0
 20 21  1  0
 21 22  1  0
 23 24  1  0
 23 17  1  0
 25 23  2  0
M  END
$$$$
