PIK.pdb
     RDKit          3D

 25 25  0  0  1  0  0  0  0  0999 V2000
    6.9158  -14.4193   20.7255 N   0  0  0  0  0  0  0  0  0  0  0  0
    6.2387  -13.5074   19.8491 C   0  0  0  0  0  0  0  0  0  0  0  0
    7.3060  -12.5992   19.2611 C   0  0  0  0  0  0  0  0  0  0  0  0
    8.3320  -12.5897   20.3745 C   0  0  0  0  0  0  0  0  0  0  0  0
    8.2826  -14.0251   20.8357 C   0  0  1  0  0  0  0  0  0  0  0  0
    8.8228  -14.1819   22.2117 C   0  0  0  0  0  0  0  0  0  0  0  0
   10.0606  -14.2848   22.3503 O   0  0  0  0  0  0  0  0  0  0  0  0
    6.2971  -11.3030   25.9196 C   0  0  0  0  0  0  0  0  0  0  0  0
    7.3060  -12.0682   25.1375 C   0  0  0  0  0  0  0  0  0  0  0  0
    7.5820  -13.4544   25.6038 C   0  0  2  0  0  0  0  0  0  0  0  0
    8.0810  -13.4047   27.0344 C   0  0  0  0  0  0  0  0  0  0  0  0
    8.4875  -14.2506   24.7202 C   0  0  2  0  0  0  0  0  0  0  0  0
    7.9819  -14.2172   23.3528 N   0  0  0  0  0  0  0  0  0  0  0  0
    8.6109  -15.6632   25.1445 C   0  0  0  0  0  0  0  0  0  0  0  0
    7.6090  -16.4362   25.1687 O   0  0  0  0  0  0  0  0  0  0  0  0
    9.8577  -16.1635   25.5287 N   0  0  0  0  0  0  0  0  0  0  0  0
    9.9296  -17.6543   25.8670 C   0  0  1  0  0  0  0  0  0  0  0  0
   11.0497  -18.1821   25.0419 C   0  0  0  0  0  0  0  0  0  0  0  0
   11.3632  -19.5919   24.9878 C   0  0  0  0  0  0  0  0  0  0  0  0
   11.0383  -20.3811   23.7847 C   0  0  0  0  0  0  0  0  0  0  0  0
   11.5604  -21.8420   23.9539 C   0  0  0  0  0  0  0  0  0  0  0  0
   11.3852  -22.5882   22.7453 N   0  0  0  0  0  0  0  0  0  0  0  0
   10.1899  -17.5966   27.3300 C   0  0  0  0  0  0  0  0  0  0  0  0
   10.0186  -18.6025   28.2397 O   0  0  0  0  0  0  0  0  0  0  0  0
   10.6215  -16.4979   27.8523 O   0  0  0  0  0  0  0  0  0  0  0  0
  1  5  1  0
  2  3  1  0
  2  1  1  0
  3  4  1  0
  4  5  1  0
  5  6  1  1
  7  6  2  0
  9  8  1  0
 10  9  1  0
 10 11  1  1
 12 10  1  0
 12 13  1  6
 13  6  1  0
 14 15  2  0
 14 12  1  0
 16 14  1  0
 17 16  1  0
 17 18  1  6
 19 20  1  0
 19 18  1  0
 20 21  1  0
 21 22  1  0
 23 24  1  0
 23 17  1  0
 25 23  2  0
M  END
$$$$
