PIK.pdb
     RDKit          3D

 25 25  0  0  1  0  0  0  0  0999 V2000
    7.4047  -18.6127   18.5775 N   0  0  0  0  0  0  0  0  0  0  0  0
    6.6668  -18.6868   17.3496 C   0  0  0  0  0  0  0  0  0  0  0  0
    7.6442  -18.3482   16.2361 C   0  0  0  0  0  0  0  0  0  0  0  0
    8.6046  -17.4256   16.9565 C   0  0  0  0  0  0  0  0  0  0  0  0
    8.7065  -18.0968   18.3037 C   0  0  1  0  0  0  0  0  0  0  0  0
    9.1923  -17.1609   19.3515 C   0  0  0  0  0  0  0  0  0  0  0  0
   10.4215  -17.1087   19.5706 O   0  0  0  0  0  0  0  0  0  0  0  0
    6.8537  -12.3023   19.8390 C   0  0  0  0  0  0  0  0  0  0  0  0
    7.8247  -13.4294   19.8839 C   0  0  0  0  0  0  0  0  0  0  0  0
    7.8551  -14.2175   21.1462 C   0  0  2  0  0  0  0  0  0  0  0  0
    8.1643  -13.2872   22.3026 C   0  0  0  0  0  0  0  0  0  0  0  0
    8.7577  -15.4088   21.1267 C   0  0  2  0  0  0  0  0  0  0  0  0
    8.3095  -16.3391   20.0971 N   0  0  0  0  0  0  0  0  0  0  0  0
    8.7990  -16.1220   22.4230 C   0  0  0  0  0  0  0  0  0  0  0  0
    7.7619  -16.6504   22.9202 O   0  0  0  0  0  0  0  0  0  0  0  0
   10.0056  -16.2192   23.1207 N   0  0  0  0  0  0  0  0  0  0  0  0
   10.0172  -17.1183   24.3591 C   0  0  1  0  0  0  0  0  0  0  0  0
   10.6975  -18.3671   23.9211 C   0  0  0  0  0  0  0  0  0  0  0  0
   10.9857  -19.4450   24.8396 C   0  0  0  0  0  0  0  0  0  0  0  0
   11.8492  -20.5664   24.4238 C   0  0  0  0  0  0  0  0  0  0  0  0
   12.0506  -21.5498   25.6188 C   0  0  0  0  0  0  0  0  0  0  0  0
   11.6376  -22.8732   25.2639 N   0  0  0  0  0  0  0  0  0  0  0  0
   10.7882  -16.2743   25.3101 C   0  0  0  0  0  0  0  0  0  0  0  0
   10.8537  -16.4098   26.6688 O   0  0  0  0  0  0  0  0  0  0  0  0
   11.4862  -15.2876   24.8567 O   0  0  0  0  0  0  0  0  0  0  0  0
  1  5  1  0
  2  3  1  0
  2  1  1  0
  3  4  1  0
  4  5  1  0
  5  6  1  1
  7  6  2  0
  9  8  1  0
 10  9  1  0
 10 11  1  1
 12 10  1  0
 12 13  1  6
 13  6  1  0
 14 15  2  0
 14 12  1  0
 16 14  1  0
 17 16  1  0
 17 18  1  6
 19 20  1  0
 19 18  1  0
 20 21  1  0
 21 22  1  0
 23 24  1  0
 23 17  1  0
 25 23  2  0
M  END
$$$$
