PIK.pdb
     RDKit          3D

 25 25  0  0  1  0  0  0  0  0999 V2000
    7.1198  -14.8586   20.9025 N   0  0  0  0  0  0  0  0  0  0  0  0
    6.4029  -14.1498   19.8820 C   0  0  0  0  0  0  0  0  0  0  0  0
    7.3804  -13.1552   19.2777 C   0  0  0  0  0  0  0  0  0  0  0  0
    8.2904  -12.8819   20.4566 C   0  0  0  0  0  0  0  0  0  0  0  0
    8.4020  -14.2555   21.0699 C   0  0  1  0  0  0  0  0  0  0  0  0
    8.8328  -14.1923   22.4912 C   0  0  0  0  0  0  0  0  0  0  0  0
   10.0425  -13.9908   22.7317 O   0  0  0  0  0  0  0  0  0  0  0  0
    5.9281  -11.5385   26.0364 C   0  0  0  0  0  0  0  0  0  0  0  0
    7.0333  -12.2442   25.3322 C   0  0  0  0  0  0  0  0  0  0  0  0
    7.3154  -13.6341   25.7838 C   0  0  2  0  0  0  0  0  0  0  0  0
    7.6816  -13.6113   27.2547 C   0  0  0  0  0  0  0  0  0  0  0  0
    8.3244  -14.3728   24.9649 C   0  0  2  0  0  0  0  0  0  0  0  0
    7.9197  -14.3527   23.5641 N   0  0  0  0  0  0  0  0  0  0  0  0
    8.4914  -15.7810   25.3888 C   0  0  0  0  0  0  0  0  0  0  0  0
    7.5232  -16.5960   25.3710 O   0  0  0  0  0  0  0  0  0  0  0  0
    9.7424  -16.2298   25.8199 N   0  0  0  0  0  0  0  0  0  0  0  0
    9.8430  -17.6983   26.2388 C   0  0  1  0  0  0  0  0  0  0  0  0
   10.9117  -18.2716   25.3766 C   0  0  0  0  0  0  0  0  0  0  0  0
   11.4216  -19.6091   25.5758 C   0  0  0  0  0  0  0  0  0  0  0  0
   12.4572  -20.1525   24.6769 C   0  0  0  0  0  0  0  0  0  0  0  0
   12.8890  -21.5708   25.1642 C   0  0  0  0  0  0  0  0  0  0  0  0
   13.8832  -22.1259   24.2973 N   0  0  0  0  0  0  0  0  0  0  0  0
   10.1944  -17.5554   27.6766 C   0  0  0  0  0  0  0  0  0  0  0  0
   10.0868  -18.5074   28.6518 O   0  0  0  0  0  0  0  0  0  0  0  0
   10.6512  -16.4272   28.1065 O   0  0  0  0  0  0  0  0  0  0  0  0
  1  5  1  0
  2  3  1  0
  2  1  1  0
  3  4  1  0
  4  5  1  0
  5  6  1  1
  7  6  2  0
  9  8  1  0
 10  9  1  0
 10 11  1  1
 12 10  1  0
 12 13  1  6
 13  6  1  0
 14 15  2  0
 14 12  1  0
 16 14  1  0
 17 16  1  0
 17 18  1  6
 19 20  1  0
 19 18  1  0
 20 21  1  0
 21 22  1  0
 23 24  1  0
 23 17  1  0
 25 23  2  0
M  END
$$$$
