GLM.pdb
     RDKit          3D

 21 20  0  0  1  0  0  0  0  0999 V2000
   21.8437  -21.1906  -16.5367 N   0  0  0  0  0  0  0  0  0  0  0  0
   22.2817  -20.4365  -15.3893 C   0  0  0  0  0  0  0  0  0  0  0  0
   23.4806  -21.0532  -14.7709 C   0  0  0  0  0  0  0  0  0  0  0  0
   23.5072  -22.2473  -14.3992 O   0  0  0  0  0  0  0  0  0  0  0  0
   29.3992  -19.2230  -13.9738 C   0  0  0  0  0  0  0  0  0  0  0  0
   28.2753  -20.1894  -13.7085 C   0  0  2  0  0  0  0  0  0  0  0  0
   28.6102  -21.5770  -14.2115 C   0  0  0  0  0  0  0  0  0  0  0  0
   26.9201  -19.7357  -14.0964 C   0  0  0  0  0  0  0  0  0  0  0  0
   25.7757  -20.6271  -13.7898 C   0  0  2  0  0  0  0  0  0  0  0  0
   24.6332  -20.2492  -14.6002 N   0  0  0  0  0  0  0  0  0  0  0  0
   25.4302  -20.3629  -12.3357 C   0  0  0  0  0  0  0  0  0  0  0  0
   24.9409  -19.2729  -11.9834 O   0  0  0  0  0  0  0  0  0  0  0  0
   28.7960  -20.1807   -6.9829 C   0  0  0  0  0  0  0  0  0  0  0  0
   27.1556  -19.5026   -6.7487 S   0  0  0  0  0  0  0  0  0  0  0  0
   25.8990  -20.3315   -7.7598 C   0  0  0  0  0  0  0  0  0  0  0  0
   26.3257  -20.4925   -9.1864 C   0  0  0  0  0  0  0  0  0  0  0  0
   25.3164  -21.2442   -9.9685 C   0  0  2  0  0  0  0  0  0  0  0  0
   25.6611  -21.3495  -11.3760 N   0  0  0  0  0  0  0  0  0  0  0  0
   23.9972  -20.6047   -9.8731 C   0  0  0  0  0  0  0  0  0  0  0  0
   23.1084  -21.0660   -8.8765 O   0  0  0  0  0  0  0  0  0  0  0  0
   23.5642  -19.6859  -10.5823 O   0  0  0  0  0  0  0  0  0  0  0  0
  1  2  1  0
  2  3  1  0
  3 10  1  0
  3  4  2  0
  6  5  1  6
  7  6  1  0
  9  8  1  6
  8  6  1  0
  9 11  1  0
 10  9  1  0
 11 12  2  0
 14 13  1  0
 15 16  1  0
 15 14  1  0
 17 16  1  1
 17 19  1  0
 18 11  1  0
 18 17  1  0
 19 20  1  0
 21 19  2  0
M  END
$$$$
