GLM.pdb
     RDKit          3D

 21 20  0  0  1  0  0  0  0  0999 V2000
   26.3546  -21.6770  -13.9631 N   0  0  0  0  0  0  0  0  0  0  0  0
   26.0368  -20.6020  -13.0574 C   0  0  0  0  0  0  0  0  0  0  0  0
   25.9265  -21.0938  -11.6624 C   0  0  0  0  0  0  0  0  0  0  0  0
   25.7116  -22.2951  -11.3875 O   0  0  0  0  0  0  0  0  0  0  0  0
   27.3713  -18.6440   -6.1058 C   0  0  0  0  0  0  0  0  0  0  0  0
   26.7640  -19.7479   -6.9304 C   0  0  2  0  0  0  0  0  0  0  0  0
   27.4236  -21.0792   -6.6417 C   0  0  0  0  0  0  0  0  0  0  0  0
   26.6087  -19.4713   -8.3769 C   0  0  0  0  0  0  0  0  0  0  0  0
   25.9086  -20.4821   -9.2054 C   0  0  2  0  0  0  0  0  0  0  0  0
   26.0720  -20.1582  -10.6102 N   0  0  0  0  0  0  0  0  0  0  0  0
   24.4374  -20.3468   -8.8584 C   0  0  0  0  0  0  0  0  0  0  0  0
   23.8142  -19.2993   -9.1156 O   0  0  0  0  0  0  0  0  0  0  0  0
   19.2425  -22.4621  -11.2941 C   0  0  0  0  0  0  0  0  0  0  0  0
   19.0426  -23.0782   -9.6249 S   0  0  0  0  0  0  0  0  0  0  0  0
   20.0961  -22.2186   -8.4251 C   0  0  0  0  0  0  0  0  0  0  0  0
   21.5410  -22.2297   -8.8193 C   0  0  0  0  0  0  0  0  0  0  0  0
   22.3582  -21.4128   -7.8919 C   0  0  2  0  0  0  0  0  0  0  0  0
   23.7680  -21.4057   -8.2432 N   0  0  0  0  0  0  0  0  0  0  0  0
   22.2384  -21.9074   -6.5138 C   0  0  0  0  0  0  0  0  0  0  0  0
   21.1103  -21.5082   -5.7628 O   0  0  0  0  0  0  0  0  0  0  0  0
   23.0312  -22.6518   -5.9203 O   0  0  0  0  0  0  0  0  0  0  0  0
  1  2  1  0
  2  3  1  0
  3 10  1  0
  3  4  2  0
  6  5  1  6
  7  6  1  0
  9  8  1  1
  8  6  1  0
  9 11  1  0
 10  9  1  0
 11 12  2  0
 14 13  1  0
 15 16  1  0
 15 14  1  0
 17 16  1  6
 17 19  1  0
 18 11  1  0
 18 17  1  0
 19 20  1  0
 21 19  2  0
M  END
$$$$
