GLM.pdb
     RDKit          3D

 21 20  0  0  1  0  0  0  0  0999 V2000
   22.1503  -19.6258  -14.8748 N   0  0  0  0  0  0  0  0  0  0  0  0
   23.2624  -18.9892  -14.2152 C   0  0  0  0  0  0  0  0  0  0  0  0
   24.1675  -19.9934  -13.6051 C   0  0  0  0  0  0  0  0  0  0  0  0
   23.8245  -21.1814  -13.4158 O   0  0  0  0  0  0  0  0  0  0  0  0
   30.2231  -20.0632  -12.0275 C   0  0  0  0  0  0  0  0  0  0  0  0
   28.8583  -20.6994  -12.0303 C   0  0  2  0  0  0  0  0  0  0  0  0
   28.9036  -22.1003  -12.6013 C   0  0  0  0  0  0  0  0  0  0  0  0
   27.7567  -19.8767  -12.5804 C   0  0  0  0  0  0  0  0  0  0  0  0
   26.3698  -20.3742  -12.4150 C   0  0  2  0  0  0  0  0  0  0  0  0
   25.4673  -19.5796  -13.2268 N   0  0  0  0  0  0  0  0  0  0  0  0
   26.0226  -20.1390  -10.9564 C   0  0  0  0  0  0  0  0  0  0  0  0
   26.1374  -19.0081  -10.4469 O   0  0  0  0  0  0  0  0  0  0  0  0
   29.3226  -19.4928   -6.0742 C   0  0  0  0  0  0  0  0  0  0  0  0
   27.6026  -19.0230   -5.9102 S   0  0  0  0  0  0  0  0  0  0  0  0
   26.4684  -20.2304   -6.6479 C   0  0  0  0  0  0  0  0  0  0  0  0
   26.5635  -20.2679   -8.1421 C   0  0  0  0  0  0  0  0  0  0  0  0
   25.6036  -21.2384   -8.7183 C   0  0  2  0  0  0  0  0  0  0  0  0
   25.5685  -21.1990  -10.1703 N   0  0  0  0  0  0  0  0  0  0  0  0
   24.2429  -20.9843   -8.2264 C   0  0  0  0  0  0  0  0  0  0  0  0
   23.9689  -21.2550   -6.8671 O   0  0  0  0  0  0  0  0  0  0  0  0
   23.2854  -20.5496   -8.8814 O   0  0  0  0  0  0  0  0  0  0  0  0
  1  2  1  0
  2  3  1  0
  3 10  1  0
  3  4  2  0
  6  5  1  6
  7  6  1  0
  9  8  1  1
  8  6  1  0
  9 11  1  0
 10  9  1  0
 11 12  2  0
 14 13  1  0
 15 16  1  0
 15 14  1  0
 17 16  1  1
 17 19  1  0
 18 11  1  0
 18 17  1  0
 19 20  1  0
 21 19  2  0
M  END
$$$$
