GLM.pdb
     RDKit          3D

 21 20  0  0  1  0  0  0  0  0999 V2000
   25.1729  -33.2025   -5.7506 N   0  0  0  0  0  0  0  0  0  0  0  0
   26.5843  -33.3364   -5.4912 C   0  0  0  0  0  0  0  0  0  0  0  0
   26.8272  -34.0513   -4.2145 C   0  0  0  0  0  0  0  0  0  0  0  0
   25.8990  -34.4042   -3.4538 O   0  0  0  0  0  0  0  0  0  0  0  0
   32.0555  -36.2128   -1.4839 C   0  0  0  0  0  0  0  0  0  0  0  0
   30.5663  -35.9908   -1.4662 C   0  0  2  0  0  0  0  0  0  0  0  0
   29.8188  -37.2815   -1.2095 C   0  0  0  0  0  0  0  0  0  0  0  0
   30.0108  -35.2049   -2.5918 C   0  0  0  0  0  0  0  0  0  0  0  0
   28.5607  -34.8964   -2.5738 C   0  0  2  0  0  0  0  0  0  0  0  0
   28.1653  -34.3397   -3.8539 N   0  0  0  0  0  0  0  0  0  0  0  0
   28.3849  -33.8210   -1.5175 C   0  0  0  0  0  0  0  0  0  0  0  0
   28.8057  -32.6641   -1.7077 O   0  0  0  0  0  0  0  0  0  0  0  0
   23.7766  -30.4728    3.7023 C   0  0  0  0  0  0  0  0  0  0  0  0
   24.0758  -31.5173    2.2791 S   0  0  0  0  0  0  0  0  0  0  0  0
   25.8322  -31.9016    2.0432 C   0  0  0  0  0  0  0  0  0  0  0  0
   26.0716  -32.7860    0.8584 C   0  0  0  0  0  0  0  0  0  0  0  0
   27.4958  -33.1827    0.7618 C   0  0  2  0  0  0  0  0  0  0  0  0
   27.7445  -34.1254   -0.3154 N   0  0  0  0  0  0  0  0  0  0  0  0
   27.9545  -33.7973    2.0149 C   0  0  0  0  0  0  0  0  0  0  0  0
   28.2455  -32.9443    3.1029 O   0  0  0  0  0  0  0  0  0  0  0  0
   28.1193  -35.0056    2.2327 O   0  0  0  0  0  0  0  0  0  0  0  0
  1  2  1  0
  2  3  1  0
  3 10  1  0
  3  4  2  0
  6  5  1  6
  7  6  1  0
  9  8  1  6
  8  6  1  0
  9 11  1  0
 10  9  1  0
 11 12  2  0
 14 13  1  0
 15 16  1  0
 15 14  1  0
 17 16  1  1
 17 19  1  0
 18 11  1  0
 18 17  1  0
 19 20  1  0
 21 19  2  0
M  END
$$$$
