GLM.pdb
     RDKit          3D

 21 20  0  0  1  0  0  0  0  0999 V2000
   19.6947  -11.8950  -18.6227 N   0  0  0  0  0  0  0  0  0  0  0  0
   20.1346  -10.5225  -18.6196 C   0  0  0  0  0  0  0  0  0  0  0  0
   19.7826   -9.8517  -17.3444 C   0  0  0  0  0  0  0  0  0  0  0  0
   18.6259   -9.8751  -16.8687 O   0  0  0  0  0  0  0  0  0  0  0  0
   20.6864   -9.5404  -12.6037 C   0  0  0  0  0  0  0  0  0  0  0  0
   21.8111   -9.4787  -13.6030 C   0  0  2  0  0  0  0  0  0  0  0  0
   23.1589   -9.6003  -12.9252 C   0  0  0  0  0  0  0  0  0  0  0  0
   21.7474   -8.3756  -14.5890 C   0  0  0  0  0  0  0  0  0  0  0  0
   20.5718   -8.3180  -15.4907 C   0  0  2  0  0  0  0  0  0  0  0  0
   20.8038   -9.1618  -16.6479 N   0  0  0  0  0  0  0  0  0  0  0  0
   20.4911   -6.8787  -15.9653 C   0  0  0  0  0  0  0  0  0  0  0  0
   21.4501   -6.3461  -16.5555 O   0  0  0  0  0  0  0  0  0  0  0  0
   16.7005   -4.6590  -20.0667 C   0  0  0  0  0  0  0  0  0  0  0  0
   16.9759   -3.0944  -19.2409 S   0  0  0  0  0  0  0  0  0  0  0  0
   18.0349   -3.2466  -17.7767 C   0  0  0  0  0  0  0  0  0  0  0  0
   18.2153   -4.6695  -17.3451 C   0  0  0  0  0  0  0  0  0  0  0  0
   19.1173   -4.7663  -16.1736 C   0  0  2  0  0  0  0  0  0  0  0  0
   19.3305   -6.1367  -15.7409 N   0  0  0  0  0  0  0  0  0  0  0  0
   18.5788   -4.0112  -15.0342 C   0  0  0  0  0  0  0  0  0  0  0  0
   17.8558   -4.7227  -14.0508 O   0  0  0  0  0  0  0  0  0  0  0  0
   18.6884   -2.7940  -14.8315 O   0  0  0  0  0  0  0  0  0  0  0  0
  1  2  1  0
  2  3  1  0
  3 10  1  0
  3  4  2  0
  6  5  1  1
  7  6  1  0
  9  8  1  1
  8  6  1  0
  9 11  1  0
 10  9  1  0
 11 12  2  0
 14 13  1  0
 15 16  1  0
 15 14  1  0
 17 16  1  6
 17 19  1  0
 18 11  1  0
 18 17  1  0
 19 20  1  0
 21 19  2  0
M  END
$$$$
