GLM.pdb
     RDKit          3D

 21 20  0  0  1  0  0  0  0  0999 V2000
   28.4230  -22.2314  -16.0109 N   0  0  0  0  0  0  0  0  0  0  0  0
   27.7808  -21.1141  -15.3655 C   0  0  0  0  0  0  0  0  0  0  0  0
   26.6293  -21.5613  -14.5444 C   0  0  0  0  0  0  0  0  0  0  0  0
   26.0715  -22.6680  -14.7139 O   0  0  0  0  0  0  0  0  0  0  0  0
   26.1200  -22.0474  -10.0255 C   0  0  0  0  0  0  0  0  0  0  0  0
   26.1264  -20.5949  -10.4226 C   0  0  2  0  0  0  0  0  0  0  0  0
   26.1590  -19.6911   -9.2091 C   0  0  0  0  0  0  0  0  0  0  0  0
   25.1186  -20.1898  -11.4293 C   0  0  0  0  0  0  0  0  0  0  0  0
   25.0211  -20.9893  -12.6742 C   0  0  2  0  0  0  0  0  0  0  0  0
   26.1524  -20.6934  -13.5329 N   0  0  0  0  0  0  0  0  0  0  0  0
   23.7617  -20.5083  -13.3711 C   0  0  0  0  0  0  0  0  0  0  0  0
   23.6863  -19.3516  -13.8273 O   0  0  0  0  0  0  0  0  0  0  0  0
   19.8057  -24.8563  -16.1968 C   0  0  0  0  0  0  0  0  0  0  0  0
   18.8506  -23.3584  -16.4204 S   0  0  0  0  0  0  0  0  0  0  0  0
   19.6046  -21.9156  -15.6217 C   0  0  0  0  0  0  0  0  0  0  0  0
   20.8351  -22.2685  -14.8441 C   0  0  0  0  0  0  0  0  0  0  0  0
   21.4533  -21.0653  -14.2396 C   0  0  2  0  0  0  0  0  0  0  0  0
   22.6703  -21.3677  -13.5058 N   0  0  0  0  0  0  0  0  0  0  0  0
   20.5209  -20.4054  -13.3158 C   0  0  0  0  0  0  0  0  0  0  0  0
   19.5284  -19.5638  -13.8659 O   0  0  0  0  0  0  0  0  0  0  0  0
   20.5041  -20.5042  -12.0810 O   0  0  0  0  0  0  0  0  0  0  0  0
  1  2  1  0
  2  3  1  0
  3 10  1  0
  3  4  2  0
  6  5  1  1
  7  6  1  0
  9  8  1  1
  8  6  1  0
  9 11  1  0
 10  9  1  0
 11 12  2  0
 14 13  1  0
 15 16  1  0
 15 14  1  0
 17 16  1  1
 17 19  1  0
 18 11  1  0
 18 17  1  0
 19 20  1  0
 21 19  2  0
M  END
$$$$
