GLM.pdb
     RDKit          3D

 21 20  0  0  1  0  0  0  0  0999 V2000
   28.1681  -18.8398  -15.9638 N   0  0  0  0  0  0  0  0  0  0  0  0
   27.3878  -18.5654  -14.7836 C   0  0  0  0  0  0  0  0  0  0  0  0
   26.6408  -19.7695  -14.3453 C   0  0  0  0  0  0  0  0  0  0  0  0
   26.8272  -20.8982  -14.8513 O   0  0  0  0  0  0  0  0  0  0  0  0
   26.8218  -21.8890  -10.5631 C   0  0  0  0  0  0  0  0  0  0  0  0
   26.0366  -20.6082  -10.4614 C   0  0  2  0  0  0  0  0  0  0  0  0
   25.8268  -20.2025   -9.0185 C   0  0  0  0  0  0  0  0  0  0  0  0
   24.8031  -20.5331  -11.2775 C   0  0  0  0  0  0  0  0  0  0  0  0
   24.9279  -20.7228  -12.7426 C   0  0  2  0  0  0  0  0  0  0  0  0
   25.6827  -19.6232  -13.3136 N   0  0  0  0  0  0  0  0  0  0  0  0
   23.5122  -20.6549  -13.2854 C   0  0  0  0  0  0  0  0  0  0  0  0
   22.8312  -19.6188  -13.1652 O   0  0  0  0  0  0  0  0  0  0  0  0
   20.3111  -26.1238  -15.7231 C   0  0  0  0  0  0  0  0  0  0  0  0
   19.5724  -24.7154  -16.5456 S   0  0  0  0  0  0  0  0  0  0  0  0
   19.9551  -23.1418  -15.7298 C   0  0  0  0  0  0  0  0  0  0  0  0
   21.3583  -23.0926  -15.2083 C   0  0  0  0  0  0  0  0  0  0  0  0
   21.6191  -21.8270  -14.4835 C   0  0  2  0  0  0  0  0  0  0  0  0
   22.9603  -21.7638  -13.9285 N   0  0  0  0  0  0  0  0  0  0  0  0
   20.6649  -21.6487  -13.3807 C   0  0  0  0  0  0  0  0  0  0  0  0
   20.9499  -22.2811  -12.1499 O   0  0  0  0  0  0  0  0  0  0  0  0
   19.6146  -20.9923  -13.4062 O   0  0  0  0  0  0  0  0  0  0  0  0
  1  2  1  0
  2  3  1  0
  3 10  1  0
  3  4  2  0
  6  5  1  1
  7  6  1  0
  9  8  1  1
  8  6  1  0
  9 11  1  0
 10  9  1  0
 11 12  2  0
 14 13  1  0
 15 16  1  0
 15 14  1  0
 17 16  1  1
 17 19  1  0
 18 11  1  0
 18 17  1  0
 19 20  1  0
 21 19  2  0
M  END
$$$$
