GLM.pdb
     RDKit          3D

 21 20  0  0  1  0  0  0  0  0999 V2000
   24.2351  -11.8436  -20.9346 N   0  0  0  0  0  0  0  0  0  0  0  0
   24.0870  -10.4103  -20.9681 C   0  0  0  0  0  0  0  0  0  0  0  0
   23.4407   -9.9112  -19.7298 C   0  0  0  0  0  0  0  0  0  0  0  0
   22.2368  -10.1254  -19.4658 O   0  0  0  0  0  0  0  0  0  0  0  0
   24.4188  -11.0549  -15.5568 C   0  0  0  0  0  0  0  0  0  0  0  0
   25.4265  -10.0998  -16.1399 C   0  0  2  0  0  0  0  0  0  0  0  0
   26.6683  -10.0143  -15.2790 C   0  0  0  0  0  0  0  0  0  0  0  0
   24.9068   -8.7763  -16.5536 C   0  0  0  0  0  0  0  0  0  0  0  0
   23.7723   -8.7436  -17.5077 C   0  0  2  0  0  0  0  0  0  0  0  0
   24.2269   -9.1650  -18.8195 N   0  0  0  0  0  0  0  0  0  0  0  0
   23.3566   -7.2868  -17.5984 C   0  0  0  0  0  0  0  0  0  0  0  0
   24.1280   -6.4307  -18.0714 O   0  0  0  0  0  0  0  0  0  0  0  0
   18.7986   -3.9177  -21.6659 C   0  0  0  0  0  0  0  0  0  0  0  0
   18.7277   -4.8204  -20.1213 S   0  0  0  0  0  0  0  0  0  0  0  0
   20.3329   -4.9099  -19.2825 C   0  0  0  0  0  0  0  0  0  0  0  0
   20.2323   -5.5118  -17.9147 C   0  0  0  0  0  0  0  0  0  0  0  0
   21.5534   -5.5499  -17.2449 C   0  0  2  0  0  0  0  0  0  0  0  0
   22.0953   -6.8945  -17.1478 N   0  0  0  0  0  0  0  0  0  0  0  0
   21.4678   -4.9981  -15.8861 C   0  0  0  0  0  0  0  0  0  0  0  0
   21.5222   -3.5942  -15.7370 O   0  0  0  0  0  0  0  0  0  0  0  0
   21.3506   -5.6368  -14.8311 O   0  0  0  0  0  0  0  0  0  0  0  0
  1  2  1  0
  2  3  1  0
  3 10  1  0
  3  4  2  0
  6  5  1  1
  7  6  1  0
  9  8  1  1
  8  6  1  0
  9 11  1  0
 10  9  1  0
 11 12  2  0
 14 13  1  0
 15 16  1  0
 15 14  1  0
 17 16  1  1
 17 19  1  0
 18 11  1  0
 18 17  1  0
 19 20  1  0
 21 19  2  0
M  END
$$$$
