GLM.pdb
     RDKit          3D

 21 20  0  0  1  0  0  0  0  0999 V2000
   28.2212  -22.0440  -15.0161 N   0  0  0  0  0  0  0  0  0  0  0  0
   27.7908  -20.9689  -14.1581 C   0  0  0  0  0  0  0  0  0  0  0  0
   26.6391  -21.3828  -13.3201 C   0  0  0  0  0  0  0  0  0  0  0  0
   25.9951  -22.4338  -13.5332 O   0  0  0  0  0  0  0  0  0  0  0  0
   26.6031  -21.5838   -8.6820 C   0  0  0  0  0  0  0  0  0  0  0  0
   26.4320  -20.1854   -9.2134 C   0  0  2  0  0  0  0  0  0  0  0  0
   26.5133  -19.1595   -8.1037 C   0  0  0  0  0  0  0  0  0  0  0  0
   25.2873  -19.9710  -10.1282 C   0  0  0  0  0  0  0  0  0  0  0  0
   25.1802  -20.8437  -11.3220 C   0  0  2  0  0  0  0  0  0  0  0  0
   26.2639  -20.5480  -12.2402 N   0  0  0  0  0  0  0  0  0  0  0  0
   23.8749  -20.4588  -11.9938 C   0  0  0  0  0  0  0  0  0  0  0  0
   23.7761  -19.3957  -12.6355 O   0  0  0  0  0  0  0  0  0  0  0  0
   18.7052  -24.6389  -11.8077 C   0  0  0  0  0  0  0  0  0  0  0  0
   18.0747  -23.3298  -12.8538 S   0  0  0  0  0  0  0  0  0  0  0  0
   19.2420  -21.9553  -13.0442 C   0  0  0  0  0  0  0  0  0  0  0  0
   20.5634  -22.2311  -12.3953 C   0  0  0  0  0  0  0  0  0  0  0  0
   21.4909  -21.0869  -12.5552 C   0  0  2  0  0  0  0  0  0  0  0  0
   22.7672  -21.3021  -11.8952 N   0  0  0  0  0  0  0  0  0  0  0  0
   20.9026  -19.8557  -12.0109 C   0  0  0  0  0  0  0  0  0  0  0  0
   20.2577  -18.9766  -12.9093 O   0  0  0  0  0  0  0  0  0  0  0  0
   20.9068  -19.4909  -10.8269 O   0  0  0  0  0  0  0  0  0  0  0  0
  1  2  1  0
  2  3  1  0
  3 10  1  0
  3  4  2  0
  6  5  1  1
  7  6  1  0
  9  8  1  1
  8  6  1  0
  9 11  1  0
 10  9  1  0
 11 12  2  0
 14 13  1  0
 15 16  1  0
 15 14  1  0
 17 16  1  1
 17 19  1  0
 18 11  1  0
 18 17  1  0
 19 20  1  0
 21 19  2  0
M  END
$$$$
