GLM.pdb
     RDKit          3D

 21 20  0  0  1  0  0  0  0  0999 V2000
   18.8349  -13.1510  -17.3671 N   0  0  0  0  0  0  0  0  0  0  0  0
   19.2093  -11.8271  -17.7962 C   0  0  0  0  0  0  0  0  0  0  0  0
   19.1395  -10.8617  -16.6723 C   0  0  0  0  0  0  0  0  0  0  0  0
   18.1160  -10.7234  -15.9666 O   0  0  0  0  0  0  0  0  0  0  0  0
   21.0297   -9.7154  -12.4633 C   0  0  0  0  0  0  0  0  0  0  0  0
   21.9772   -9.8374  -13.6273 C   0  0  2  0  0  0  0  0  0  0  0  0
   23.4197   -9.7707  -13.1741 C   0  0  0  0  0  0  0  0  0  0  0  0
   21.6887   -8.9749  -14.7960 C   0  0  0  0  0  0  0  0  0  0  0  0
   20.3288   -9.0350  -15.3838 C   0  0  2  0  0  0  0  0  0  0  0  0
   20.2818  -10.0721  -16.3973 N   0  0  0  0  0  0  0  0  0  0  0  0
   20.1202   -7.6968  -16.0687 C   0  0  0  0  0  0  0  0  0  0  0  0
   20.8447   -7.3461  -17.0194 O   0  0  0  0  0  0  0  0  0  0  0  0
   14.9637   -3.1224  -14.6778 C   0  0  0  0  0  0  0  0  0  0  0  0
   15.3991   -3.2775  -16.4076 S   0  0  0  0  0  0  0  0  0  0  0  0
   17.1114   -3.8195  -16.6578 C   0  0  0  0  0  0  0  0  0  0  0  0
   17.3977   -5.1358  -16.0030 C   0  0  0  0  0  0  0  0  0  0  0  0
   18.8103   -5.5379  -16.1980 C   0  0  2  0  0  0  0  0  0  0  0  0
   19.1057   -6.8434  -15.6326 N   0  0  0  0  0  0  0  0  0  0  0  0
   19.7219   -4.5630  -15.5843 C   0  0  0  0  0  0  0  0  0  0  0  0
   20.0994   -3.4368  -16.3492 O   0  0  0  0  0  0  0  0  0  0  0  0
   20.2093   -4.6157  -14.4465 O   0  0  0  0  0  0  0  0  0  0  0  0
  1  2  1  0
  2  3  1  0
  3 10  1  0
  3  4  2  0
  6  5  1  1
  7  6  1  0
  9  8  1  6
  8  6  1  0
  9 11  1  0
 10  9  1  0
 11 12  2  0
 14 13  1  0
 15 16  1  0
 15 14  1  0
 17 16  1  1
 17 19  1  0
 18 11  1  0
 18 17  1  0
 19 20  1  0
 21 19  2  0
M  END
$$$$
