GLM.pdb
     RDKit          3D

 21 20  0  0  1  0  0  0  0  0999 V2000
   26.8302  -19.1893  -17.1203 N   0  0  0  0  0  0  0  0  0  0  0  0
   27.4727  -18.3859  -18.1297 C   0  0  0  0  0  0  0  0  0  0  0  0
   27.2242  -16.9417  -17.9010 C   0  0  0  0  0  0  0  0  0  0  0  0
   26.3828  -16.5264  -17.0737 O   0  0  0  0  0  0  0  0  0  0  0  0
   29.0615  -13.0641  -16.1464 C   0  0  0  0  0  0  0  0  0  0  0  0
   29.8585  -13.7649  -17.2147 C   0  0  2  0  0  0  0  0  0  0  0  0
   31.2522  -13.1866  -17.3322 C   0  0  0  0  0  0  0  0  0  0  0  0
   29.1840  -13.9410  -18.5213 C   0  0  0  0  0  0  0  0  0  0  0  0
   27.8402  -14.5675  -18.5296 C   0  0  2  0  0  0  0  0  0  0  0  0
   27.9746  -16.0068  -18.6538 N   0  0  0  0  0  0  0  0  0  0  0  0
   27.1552  -14.0483  -19.7804 C   0  0  0  0  0  0  0  0  0  0  0  0
   27.4684  -14.4801  -20.9061 O   0  0  0  0  0  0  0  0  0  0  0  0
   20.7446  -12.7423  -20.2065 C   0  0  0  0  0  0  0  0  0  0  0  0
   21.4654  -11.4060  -21.1554 S   0  0  0  0  0  0  0  0  0  0  0  0
   23.2102  -11.6895  -21.5598 C   0  0  0  0  0  0  0  0  0  0  0  0
   23.9944  -12.1996  -20.3901 C   0  0  0  0  0  0  0  0  0  0  0  0
   25.3777  -12.5558  -20.7836 C   0  0  2  0  0  0  0  0  0  0  0  0
   26.1608  -13.0747  -19.6752 N   0  0  0  0  0  0  0  0  0  0  0  0
   26.0842  -11.3889  -21.3288 C   0  0  0  0  0  0  0  0  0  0  0  0
   26.8856  -10.6290  -20.4477 O   0  0  0  0  0  0  0  0  0  0  0  0
   26.0576  -10.9849  -22.4996 O   0  0  0  0  0  0  0  0  0  0  0  0
  1  2  1  0
  2  3  1  0
  3 10  1  0
  3  4  2  0
  6  5  1  1
  7  6  1  0
  9  8  1  6
  8  6  1  0
  9 11  1  0
 10  9  1  0
 11 12  2  0
 14 13  1  0
 15 16  1  0
 15 14  1  0
 17 16  1  1
 17 19  1  0
 18 11  1  0
 18 17  1  0
 19 20  1  0
 21 19  2  0
M  END
$$$$
