GLM.pdb
     RDKit          3D

 21 20  0  0  1  0  0  0  0  0999 V2000
   28.0959  -19.9639  -16.2680 N   0  0  0  0  0  0  0  0  0  0  0  0
   27.2240  -19.3251  -15.3145 C   0  0  0  0  0  0  0  0  0  0  0  0
   26.2418  -20.2884  -14.7600 C   0  0  0  0  0  0  0  0  0  0  0  0
   26.0260  -21.4047  -15.2816 O   0  0  0  0  0  0  0  0  0  0  0  0
   26.5142  -22.0430  -10.7866 C   0  0  0  0  0  0  0  0  0  0  0  0
   25.9006  -20.6725  -10.6746 C   0  0  2  0  0  0  0  0  0  0  0  0
   25.8164  -20.2216   -9.2323 C   0  0  0  0  0  0  0  0  0  0  0  0
   24.6461  -20.4560  -11.4314 C   0  0  0  0  0  0  0  0  0  0  0  0
   24.6358  -20.8059  -12.8722 C   0  0  2  0  0  0  0  0  0  0  0  0
   25.5274  -19.9187  -13.5952 N   0  0  0  0  0  0  0  0  0  0  0  0
   23.2191  -20.5400  -13.3470 C   0  0  0  0  0  0  0  0  0  0  0  0
   22.7660  -19.3803  -13.3870 O   0  0  0  0  0  0  0  0  0  0  0  0
   17.6352  -23.3119  -18.1669 C   0  0  0  0  0  0  0  0  0  0  0  0
   19.1756  -23.5954  -17.2992 S   0  0  0  0  0  0  0  0  0  0  0  0
   19.5029  -22.3532  -16.0193 C   0  0  0  0  0  0  0  0  0  0  0  0
   20.8768  -22.4789  -15.4364 C   0  0  0  0  0  0  0  0  0  0  0  0
   21.1046  -21.4723  -14.3733 C   0  0  2  0  0  0  0  0  0  0  0  0
   22.4082  -21.6038  -13.7454 N   0  0  0  0  0  0  0  0  0  0  0  0
   20.0838  -21.5802  -13.3223 C   0  0  0  0  0  0  0  0  0  0  0  0
   20.3134  -22.4917  -12.2675 O   0  0  0  0  0  0  0  0  0  0  0  0
   19.0200  -20.9492  -13.2526 O   0  0  0  0  0  0  0  0  0  0  0  0
  1  2  1  0
  2  3  1  0
  3 10  1  0
  3  4  2  0
  6  5  1  1
  7  6  1  0
  9  8  1  1
  8  6  1  0
  9 11  1  0
 10  9  1  0
 11 12  2  0
 14 13  1  0
 15 16  1  0
 15 14  1  0
 17 16  1  6
 17 19  1  0
 18 11  1  0
 18 17  1  0
 19 20  1  0
 21 19  2  0
M  END
$$$$
