GLM.pdb
     RDKit          3D

 21 20  0  0  1  0  0  0  0  0999 V2000
   25.0954  -16.8977  -16.1375 N   0  0  0  0  0  0  0  0  0  0  0  0
   25.0090  -15.8433  -17.1162 C   0  0  0  0  0  0  0  0  0  0  0  0
   25.5435  -14.5691  -16.5771 C   0  0  0  0  0  0  0  0  0  0  0  0
   25.8436  -14.4217  -15.3717 O   0  0  0  0  0  0  0  0  0  0  0  0
   29.0164   -9.9907  -18.5473 C   0  0  0  0  0  0  0  0  0  0  0  0
   27.8816  -10.3986  -17.6454 C   0  0  2  0  0  0  0  0  0  0  0  0
   28.2025  -10.1181  -16.1932 C   0  0  0  0  0  0  0  0  0  0  0  0
   27.3224  -11.7510  -17.8723 C   0  0  0  0  0  0  0  0  0  0  0  0
   26.1456  -12.1591  -17.0680 C   0  0  2  0  0  0  0  0  0  0  0  0
   25.7165  -13.4852  -17.4710 N   0  0  0  0  0  0  0  0  0  0  0  0
   25.0449  -11.1779  -17.4273 C   0  0  0  0  0  0  0  0  0  0  0  0
   24.5367  -11.1767  -18.5646 O   0  0  0  0  0  0  0  0  0  0  0  0
   19.5171   -9.5980  -13.0586 C   0  0  0  0  0  0  0  0  0  0  0  0
   20.9859   -8.7114  -13.5708 S   0  0  0  0  0  0  0  0  0  0  0  0
   21.7107   -9.3699  -15.0970 C   0  0  0  0  0  0  0  0  0  0  0  0
   23.0102   -8.7115  -15.4452 C   0  0  0  0  0  0  0  0  0  0  0  0
   23.5691   -9.2563  -16.7046 C   0  0  2  0  0  0  0  0  0  0  0  0
   24.5918  -10.2626  -16.4762 N   0  0  0  0  0  0  0  0  0  0  0  0
   24.1611   -8.1875  -17.5204 C   0  0  0  0  0  0  0  0  0  0  0  0
   23.3633   -7.6076  -18.5320 O   0  0  0  0  0  0  0  0  0  0  0  0
   25.3061   -7.7251  -17.4211 O   0  0  0  0  0  0  0  0  0  0  0  0
  1  2  1  0
  2  3  1  0
  3 10  1  0
  3  4  2  0
  6  5  1  6
  7  6  1  0
  9  8  1  6
  8  6  1  0
  9 11  1  0
 10  9  1  0
 11 12  2  0
 14 13  1  0
 15 16  1  0
 15 14  1  0
 17 16  1  1
 17 19  1  0
 18 11  1  0
 18 17  1  0
 19 20  1  0
 21 19  2  0
M  END
$$$$
