GLM.pdb
     RDKit          3D

 21 20  0  0  1  0  0  0  0  0999 V2000
   17.7919  -11.3078  -12.2795 N   0  0  0  0  0  0  0  0  0  0  0  0
   16.6765  -10.4124  -12.1026 C   0  0  0  0  0  0  0  0  0  0  0  0
   17.0248   -9.3000  -11.1855 C   0  0  0  0  0  0  0  0  0  0  0  0
   16.7980   -9.3454   -9.9561 O   0  0  0  0  0  0  0  0  0  0  0  0
   21.0545   -7.1942  -10.6742 C   0  0  0  0  0  0  0  0  0  0  0  0
   20.3550   -6.7134  -11.9179 C   0  0  2  0  0  0  0  0  0  0  0  0
   21.2509   -5.8144  -12.7424 C   0  0  0  0  0  0  0  0  0  0  0  0
   18.9907   -6.1691  -11.7295 C   0  0  0  0  0  0  0  0  0  0  0  0
   18.0194   -6.9825  -10.9592 C   0  0  2  0  0  0  0  0  0  0  0  0
   17.6372   -8.1478  -11.7343 N   0  0  0  0  0  0  0  0  0  0  0  0
   16.7929   -6.1044  -10.7921 C   0  0  0  0  0  0  0  0  0  0  0  0
   16.0798   -5.8105  -11.7702 O   0  0  0  0  0  0  0  0  0  0  0  0
   11.6160   -3.3473   -5.4378 C   0  0  0  0  0  0  0  0  0  0  0  0
   13.0461   -4.3592   -5.8073 S   0  0  0  0  0  0  0  0  0  0  0  0
   13.5980   -4.1988   -7.5272 C   0  0  0  0  0  0  0  0  0  0  0  0
   14.8057   -5.0342   -7.8221 C   0  0  0  0  0  0  0  0  0  0  0  0
   15.2576   -4.8519   -9.2213 C   0  0  2  0  0  0  0  0  0  0  0  0
   16.4541   -5.6166   -9.5291 N   0  0  0  0  0  0  0  0  0  0  0  0
   15.5411   -3.4377   -9.5001 C   0  0  0  0  0  0  0  0  0  0  0  0
   16.8931   -3.0308   -9.5502 O   0  0  0  0  0  0  0  0  0  0  0  0
   14.7117   -2.5396   -9.7013 O   0  0  0  0  0  0  0  0  0  0  0  0
  1  2  1  0
  2  3  1  0
  3 10  1  0
  3  4  2  0
  6  5  1  1
  7  6  1  0
  9  8  1  6
  8  6  1  0
  9 11  1  0
 10  9  1  0
 11 12  2  0
 14 13  1  0
 15 16  1  0
 15 14  1  0
 17 16  1  1
 17 19  1  0
 18 11  1  0
 18 17  1  0
 19 20  1  0
 21 19  2  0
M  END
$$$$
