GLM.pdb
     RDKit          3D

 21 20  0  0  1  0  0  0  0  0999 V2000
   21.7680  -22.0556   -6.8902 N   0  0  0  0  0  0  0  0  0  0  0  0
   23.1840  -22.0324   -6.6224 C   0  0  0  0  0  0  0  0  0  0  0  0
   23.8970  -21.1673   -7.5935 C   0  0  0  0  0  0  0  0  0  0  0  0
   23.2961  -20.4558   -8.4286 O   0  0  0  0  0  0  0  0  0  0  0  0
   27.3491  -18.1817   -6.5708 C   0  0  0  0  0  0  0  0  0  0  0  0
   27.7717  -19.6252   -6.6423 C   0  0  2  0  0  0  0  0  0  0  0  0
   29.1791  -19.8147   -6.1190 C   0  0  0  0  0  0  0  0  0  0  0  0
   27.5270  -20.3132   -7.9307 C   0  0  0  0  0  0  0  0  0  0  0  0
   26.1368  -20.3490   -8.4450 C   0  0  2  0  0  0  0  0  0  0  0  0
   25.3122  -21.1547   -7.5642 N   0  0  0  0  0  0  0  0  0  0  0  0
   26.2162  -21.0502   -9.7886 C   0  0  0  0  0  0  0  0  0  0  0  0
   26.5295  -22.2535   -9.8634 O   0  0  0  0  0  0  0  0  0  0  0  0
   21.2435  -20.8572  -13.4641 C   0  0  0  0  0  0  0  0  0  0  0  0
   22.4579  -20.9799  -14.7741 S   0  0  0  0  0  0  0  0  0  0  0  0
   24.1443  -21.2191  -14.1520 C   0  0  0  0  0  0  0  0  0  0  0  0
   24.3346  -20.6528  -12.7786 C   0  0  0  0  0  0  0  0  0  0  0  0
   25.6917  -20.9434  -12.2598 C   0  0  2  0  0  0  0  0  0  0  0  0
   25.9360  -20.3437  -10.9591 N   0  0  0  0  0  0  0  0  0  0  0  0
   26.7222  -20.4524  -13.1845 C   0  0  0  0  0  0  0  0  0  0  0  0
   26.9890  -21.2146  -14.3437 O   0  0  0  0  0  0  0  0  0  0  0  0
   27.4002  -19.4228  -13.0621 O   0  0  0  0  0  0  0  0  0  0  0  0
  1  2  1  0
  2  3  1  0
  3 10  1  0
  3  4  2  0
  6  5  1  6
  7  6  1  0
  9  8  1  1
  8  6  1  0
  9 11  1  0
 10  9  1  0
 11 12  2  0
 14 13  1  0
 15 16  1  0
 15 14  1  0
 17 16  1  6
 17 19  1  0
 18 11  1  0
 18 17  1  0
 19 20  1  0
 21 19  2  0
M  END
$$$$
