GLM.pdb
     RDKit          3D

 21 20  0  0  1  0  0  0  0  0999 V2000
   20.2643  -20.5773  -11.0571 N   0  0  0  0  0  0  0  0  0  0  0  0
   21.4501  -19.7817  -11.2528 C   0  0  0  0  0  0  0  0  0  0  0  0
   22.6600  -20.5036  -10.7893 C   0  0  0  0  0  0  0  0  0  0  0  0
   22.6041  -21.4753  -10.0034 O   0  0  0  0  0  0  0  0  0  0  0  0
   25.5551  -23.0045  -12.8985 C   0  0  0  0  0  0  0  0  0  0  0  0
   25.8198  -21.5662  -13.2569 C   0  0  2  0  0  0  0  0  0  0  0  0
   26.8418  -21.4531  -14.3675 C   0  0  0  0  0  0  0  0  0  0  0  0
   26.0809  -20.6494  -12.1235 C   0  0  0  0  0  0  0  0  0  0  0  0
   25.1775  -20.7220  -10.9500 C   0  0  2  0  0  0  0  0  0  0  0  0
   23.9210  -20.0669  -11.2615 N   0  0  0  0  0  0  0  0  0  0  0  0
   25.8650  -19.9268   -9.8553 C   0  0  0  0  0  0  0  0  0  0  0  0
   25.9394  -18.6850   -9.9186 O   0  0  0  0  0  0  0  0  0  0  0  0
   26.5151  -19.6426   -3.2933 C   0  0  0  0  0  0  0  0  0  0  0  0
   28.1302  -20.1583   -3.8689 S   0  0  0  0  0  0  0  0  0  0  0  0
   28.3842  -19.8387   -5.6358 C   0  0  0  0  0  0  0  0  0  0  0  0
   27.3004  -20.4263   -6.4863 C   0  0  0  0  0  0  0  0  0  0  0  0
   27.4761  -20.0600   -7.9111 C   0  0  2  0  0  0  0  0  0  0  0  0
   26.4233  -20.5892   -8.7611 N   0  0  0  0  0  0  0  0  0  0  0  0
   28.7615  -20.5529   -8.4240 C   0  0  0  0  0  0  0  0  0  0  0  0
   29.9278  -19.8262   -8.0961 O   0  0  0  0  0  0  0  0  0  0  0  0
   28.9449  -21.5561   -9.1274 O   0  0  0  0  0  0  0  0  0  0  0  0
  1  2  1  0
  2  3  1  0
  3 10  1  0
  3  4  2  0
  6  5  1  1
  7  6  1  0
  9  8  1  6
  8  6  1  0
  9 11  1  0
 10  9  1  0
 11 12  2  0
 14 13  1  0
 15 16  1  0
 15 14  1  0
 17 16  1  1
 17 19  1  0
 18 11  1  0
 18 17  1  0
 19 20  1  0
 21 19  2  0
M  END
$$$$
