GLM.pdb
     RDKit          3D

 21 20  0  0  1  0  0  0  0  0999 V2000
   27.4609  -21.0756  -13.6026 N   0  0  0  0  0  0  0  0  0  0  0  0
   26.9746  -20.1251  -12.6345 C   0  0  0  0  0  0  0  0  0  0  0  0
   26.9276  -20.7217  -11.2773 C   0  0  0  0  0  0  0  0  0  0  0  0
   27.1030  -21.9432  -11.0728 O   0  0  0  0  0  0  0  0  0  0  0  0
   28.5377  -20.7791   -6.5813 C   0  0  0  0  0  0  0  0  0  0  0  0
   28.3009  -19.4001   -7.1377 C   0  0  2  0  0  0  0  0  0  0  0  0
   28.5279  -18.3346   -6.0871 C   0  0  0  0  0  0  0  0  0  0  0  0
   27.0470  -19.2122   -7.9028 C   0  0  0  0  0  0  0  0  0  0  0  0
   26.6101  -20.3094   -8.7993 C   0  0  2  0  0  0  0  0  0  0  0  0
   26.6737  -19.8654  -10.1791 N   0  0  0  0  0  0  0  0  0  0  0  0
   25.1548  -20.5651   -8.4529 C   0  0  0  0  0  0  0  0  0  0  0  0
   24.2578  -19.8029   -8.8606 O   0  0  0  0  0  0  0  0  0  0  0  0
   22.9709  -20.2906   -2.8042 C   0  0  0  0  0  0  0  0  0  0  0  0
   21.8966  -21.6105   -3.3604 S   0  0  0  0  0  0  0  0  0  0  0  0
   22.0316  -21.9266   -5.1409 C   0  0  0  0  0  0  0  0  0  0  0  0
   23.4167  -21.6942   -5.6611 C   0  0  0  0  0  0  0  0  0  0  0  0
   23.4883  -21.9242   -7.1230 C   0  0  2  0  0  0  0  0  0  0  0  0
   24.8102  -21.6664   -7.6680 N   0  0  0  0  0  0  0  0  0  0  0  0
   22.5308  -21.0675   -7.8355 C   0  0  0  0  0  0  0  0  0  0  0  0
   22.8358  -19.6935   -7.9583 O   0  0  0  0  0  0  0  0  0  0  0  0
   21.4618  -21.4193   -8.3533 O   0  0  0  0  0  0  0  0  0  0  0  0
  1  2  1  0
  2  3  1  0
  3 10  1  0
  3  4  2  0
  6  5  1  1
  7  6  1  0
  9  8  1  1
  8  6  1  0
  9 11  1  0
 10  9  1  0
 11 12  2  0
 14 13  1  0
 15 16  1  0
 15 14  1  0
 17 16  1  1
 17 19  1  0
 18 11  1  0
 18 17  1  0
 19 20  1  0
 21 19  2  0
M  END
$$$$
