DGD.pdb
     RDKit          3D

 21 20  0  0  1  0  0  0  0  0999 V2000
    8.7611  -18.6554   19.5754 N   0  0  0  0  0  0  0  0  0  0  0  0
    8.0291  -17.5069   19.1265 C   0  0  1  0  0  0  0  0  0  0  0  0
    6.5268  -17.7223   19.3223 C   0  0  0  0  0  0  0  0  0  0  0  0
    6.1254  -18.7720   18.3286 C   0  0  0  0  0  0  0  0  0  0  0  0
    6.9713  -19.3620   17.6228 O   0  0  0  0  0  0  0  0  0  0  0  0
    8.4934  -16.3054   19.8655 C   0  0  0  0  0  0  0  0  0  0  0  0
    8.1602  -15.1464   19.5864 O   0  0  0  0  0  0  0  0  0  0  0  0
    4.7910  -19.1031   18.1814 O   0  0  0  0  0  0  0  0  0  0  0  0
    9.3767  -16.5270   20.9601 N   0  0  0  0  0  0  0  0  0  0  0  0
    9.8060  -15.4160   21.7604 C   0  0  0  0  0  0  0  0  0  0  0  0
   10.8535  -15.7968   22.7427 C   0  0  0  0  0  0  0  0  0  0  0  0
   11.3261  -14.9459   23.5377 O   0  0  0  0  0  0  0  0  0  0  0  0
   11.3262  -17.1344   22.7846 N   0  0  0  0  0  0  0  0  0  0  0  0
   12.3306  -17.6048   23.7249 C   0  0  1  0  0  0  0  0  0  0  0  0
   12.0330  -18.9517   24.2665 C   0  0  0  0  0  0  0  0  0  0  0  0
   10.7993  -18.9262   25.0753 C   0  0  0  0  0  0  0  0  0  0  0  0
    9.6504  -19.2184   24.6719 O   0  0  0  0  0  0  0  0  0  0  0  0
   13.6164  -17.6474   23.0140 C   0  0  0  0  0  0  0  0  0  0  0  0
   13.7209  -17.3467   21.8084 O   0  0  0  0  0  0  0  0  0  0  0  0
   10.8752  -18.5429   26.4332 O   0  0  0  0  0  0  0  0  0  0  0  0
   14.7561  -18.0316   23.6918 O   0  0  0  0  0  0  0  0  0  0  0  0
  2  3  1  0
  2  1  1  1
  3  4  1  0
  4  8  1  0
  4  5  2  0
  6  2  1  0
  7  6  2  0
  9  6  1  0
 10  9  1  0
 11 10  1  0
 11 13  1  0
 12 11  2  0
 14 13  1  0
 14 18  1  0
 14 15  1  6
 16 15  1  0
 16 17  2  0
 18 21  1  0
 19 18  2  0
 20 16  1  0
M  END
$$$$
