DGD.pdb
     RDKit          3D

 21 20  0  0  1  0  0  0  0  0999 V2000
    7.2769  -17.9979   17.8470 N   0  0  0  0  0  0  0  0  0  0  0  0
    8.4437  -17.3858   17.2808 C   0  0  1  0  0  0  0  0  0  0  0  0
    8.0673  -16.5577   16.0502 C   0  0  0  0  0  0  0  0  0  0  0  0
    8.2193  -17.4734   14.8718 C   0  0  0  0  0  0  0  0  0  0  0  0
    7.6737  -18.5973   14.8423 O   0  0  0  0  0  0  0  0  0  0  0  0
    9.1053  -16.5405   18.3069 C   0  0  0  0  0  0  0  0  0  0  0  0
   10.2149  -16.0115   18.1610 O   0  0  0  0  0  0  0  0  0  0  0  0
    8.9784  -17.0753   13.7868 O   0  0  0  0  0  0  0  0  0  0  0  0
    8.3984  -16.3407   19.5266 N   0  0  0  0  0  0  0  0  0  0  0  0
    9.0086  -15.5868   20.5842 C   0  0  0  0  0  0  0  0  0  0  0  0
    9.9878  -16.3903   21.3606 C   0  0  0  0  0  0  0  0  0  0  0  0
   10.0097  -17.6430   21.2627 O   0  0  0  0  0  0  0  0  0  0  0  0
   10.9079  -15.7378   22.2220 N   0  0  0  0  0  0  0  0  0  0  0  0
   11.9001  -16.4392   23.0208 C   0  0  1  0  0  0  0  0  0  0  0  0
   13.1040  -15.6215   23.3000 C   0  0  0  0  0  0  0  0  0  0  0  0
   14.2737  -16.4859   23.5479 C   0  0  0  0  0  0  0  0  0  0  0  0
   14.2658  -17.7373   23.5940 O   0  0  0  0  0  0  0  0  0  0  0  0
   11.2638  -16.8058   24.2941 C   0  0  0  0  0  0  0  0  0  0  0  0
   10.3625  -16.1163   24.8108 O   0  0  0  0  0  0  0  0  0  0  0  0
   15.5373  -15.8893   23.7580 O   0  0  0  0  0  0  0  0  0  0  0  0
   11.6680  -17.9504   24.9519 O   0  0  0  0  0  0  0  0  0  0  0  0
  2  3  1  0
  2  1  1  1
  3  4  1  0
  4  8  1  0
  4  5  2  0
  6  2  1  0
  7  6  2  0
  9  6  1  0
 10  9  1  0
 11 10  1  0
 11 13  1  0
 12 11  2  0
 14 13  1  0
 14 18  1  0
 14 15  1  1
 16 15  1  0
 16 17  2  0
 18 21  1  0
 19 18  2  0
 20 16  1  0
M  END
$$$$
