DGD.pdb
     RDKit          3D

 21 20  0  0  1  0  0  0  0  0999 V2000
    7.5411  -17.5800   19.4472 N   0  0  0  0  0  0  0  0  0  0  0  0
    8.4714  -16.5011   19.2825 C   0  0  1  0  0  0  0  0  0  0  0  0
    8.3811  -15.9311   17.8652 C   0  0  0  0  0  0  0  0  0  0  0  0
    9.0391  -16.9391   16.9701 C   0  0  0  0  0  0  0  0  0  0  0  0
   10.2765  -17.1140   16.9807 O   0  0  0  0  0  0  0  0  0  0  0  0
    8.1942  -15.4510   20.2952 C   0  0  0  0  0  0  0  0  0  0  0  0
    8.9139  -14.4620   20.4852 O   0  0  0  0  0  0  0  0  0  0  0  0
    8.2686  -17.6986   16.1089 O   0  0  0  0  0  0  0  0  0  0  0  0
    7.0206  -15.6148   21.0847 N   0  0  0  0  0  0  0  0  0  0  0  0
    6.7245  -14.6659   22.1196 C   0  0  0  0  0  0  0  0  0  0  0  0
    7.4958  -14.9245   23.3628 C   0  0  0  0  0  0  0  0  0  0  0  0
    8.6775  -15.3485   23.3072 O   0  0  0  0  0  0  0  0  0  0  0  0
    6.8930  -14.6909   24.6263 N   0  0  0  0  0  0  0  0  0  0  0  0
    7.5863  -14.8603   25.8932 C   0  0  1  0  0  0  0  0  0  0  0  0
    6.9879  -14.0673   26.9929 C   0  0  0  0  0  0  0  0  0  0  0  0
    7.1428  -12.6226   26.7363 C   0  0  0  0  0  0  0  0  0  0  0  0
    8.1993  -12.0475   26.3881 O   0  0  0  0  0  0  0  0  0  0  0  0
    7.5259  -16.2866   26.2431 C   0  0  0  0  0  0  0  0  0  0  0  0
    6.7477  -17.0788   25.6760 O   0  0  0  0  0  0  0  0  0  0  0  0
    6.0228  -11.7740   26.8854 O   0  0  0  0  0  0  0  0  0  0  0  0
    8.3536  -16.7803   27.2316 O   0  0  0  0  0  0  0  0  0  0  0  0
  2  3  1  0
  2  1  1  6
  3  4  1  0
  4  8  1  0
  4  5  2  0
  6  2  1  0
  7  6  2  0
  9  6  1  0
 10  9  1  0
 11 10  1  0
 11 13  1  0
 12 11  2  0
 14 13  1  0
 14 18  1  0
 14 15  1  1
 16 15  1  0
 16 17  2  0
 18 21  1  0
 19 18  2  0
 20 16  1  0
M  END
$$$$
