DGD.pdb
     RDKit          3D

 21 20  0  0  1  0  0  0  0  0999 V2000
    9.7762  -19.4533   20.1212 N   0  0  0  0  0  0  0  0  0  0  0  0
    8.4871  -18.9779   20.5319 C   0  0  1  0  0  0  0  0  0  0  0  0
    7.8263  -19.9808   21.4802 C   0  0  0  0  0  0  0  0  0  0  0  0
    7.8403  -21.2992   20.7647 C   0  0  0  0  0  0  0  0  0  0  0  0
    8.0974  -21.3783   19.5443 O   0  0  0  0  0  0  0  0  0  0  0  0
    8.6341  -17.6508   21.1819 C   0  0  0  0  0  0  0  0  0  0  0  0
    7.6857  -16.9699   21.5932 O   0  0  0  0  0  0  0  0  0  0  0  0
    7.5638  -22.4611   21.4616 O   0  0  0  0  0  0  0  0  0  0  0  0
    9.9596  -17.1522   21.3299 N   0  0  0  0  0  0  0  0  0  0  0  0
   10.1723  -15.8815   21.9616 C   0  0  0  0  0  0  0  0  0  0  0  0
   11.0133  -15.9890   23.1815 C   0  0  0  0  0  0  0  0  0  0  0  0
   11.3112  -14.9652   23.8467 O   0  0  0  0  0  0  0  0  0  0  0  0
   11.4859  -17.2599   23.6007 N   0  0  0  0  0  0  0  0  0  0  0  0
   12.3855  -17.4537   24.7266 C   0  0  1  0  0  0  0  0  0  0  0  0
   11.8938  -18.4610   25.6959 C   0  0  0  0  0  0  0  0  0  0  0  0
   10.8519  -19.3071   25.0832 C   0  0  0  0  0  0  0  0  0  0  0  0
   10.3891  -19.1805   23.9265 O   0  0  0  0  0  0  0  0  0  0  0  0
   13.6788  -17.8983   24.1878 C   0  0  0  0  0  0  0  0  0  0  0  0
   13.7646  -18.6336   23.1844 O   0  0  0  0  0  0  0  0  0  0  0  0
   10.2980  -20.3679   25.8345 O   0  0  0  0  0  0  0  0  0  0  0  0
   14.8470  -17.4958   24.8036 O   0  0  0  0  0  0  0  0  0  0  0  0
  2  3  1  0
  2  1  1  1
  3  4  1  0
  4  8  1  0
  4  5  2  0
  6  2  1  0
  7  6  2  0
  9  6  1  0
 10  9  1  0
 11 10  1  0
 11 13  1  0
 12 11  2  0
 14 13  1  0
 14 18  1  0
 14 15  1  1
 16 15  1  0
 16 17  2  0
 18 21  1  0
 19 18  2  0
 20 16  1  0
M  END
$$$$
