DGD.pdb
     RDKit          3D

 21 20  0  0  1  0  0  0  0  0999 V2000
    5.3956  -18.6023   22.9710 N   0  0  0  0  0  0  0  0  0  0  0  0
    5.9975  -18.5688   21.6698 C   0  0  1  0  0  0  0  0  0  0  0  0
    5.0007  -18.0429   20.6347 C   0  0  0  0  0  0  0  0  0  0  0  0
    3.9239  -19.0821   20.5307 C   0  0  0  0  0  0  0  0  0  0  0  0
    3.9601  -20.1315   21.2082 O   0  0  0  0  0  0  0  0  0  0  0  0
    7.2162  -17.7214   21.7109 C   0  0  0  0  0  0  0  0  0  0  0  0
    7.9296  -17.4822   20.7279 O   0  0  0  0  0  0  0  0  0  0  0  0
    2.8611  -18.8851   19.6682 O   0  0  0  0  0  0  0  0  0  0  0  0
    7.5649  -17.1598   22.9720 N   0  0  0  0  0  0  0  0  0  0  0  0
    8.7387  -16.3418   23.0834 C   0  0  0  0  0  0  0  0  0  0  0  0
    9.9092  -17.0977   23.5986 C   0  0  0  0  0  0  0  0  0  0  0  0
    9.8223  -18.3283   23.8381 O   0  0  0  0  0  0  0  0  0  0  0  0
   11.1383  -16.4245   23.8232 N   0  0  0  0  0  0  0  0  0  0  0  0
   12.3343  -17.0785   24.3295 C   0  0  1  0  0  0  0  0  0  0  0  0
   13.5578  -16.2586   24.1656 C   0  0  0  0  0  0  0  0  0  0  0  0
   13.8094  -15.9791   22.7389 C   0  0  0  0  0  0  0  0  0  0  0  0
   13.2994  -16.5871   21.7702 O   0  0  0  0  0  0  0  0  0  0  0  0
   12.1222  -17.3424   25.7598 C   0  0  0  0  0  0  0  0  0  0  0  0
   11.1518  -16.8732   26.3866 O   0  0  0  0  0  0  0  0  0  0  0  0
   14.7002  -14.9397   22.3887 O   0  0  0  0  0  0  0  0  0  0  0  0
   13.0203  -18.1354   26.4458 O   0  0  0  0  0  0  0  0  0  0  0  0
  2  3  1  0
  2  1  1  1
  3  4  1  0
  4  8  1  0
  4  5  2  0
  6  2  1  0
  7  6  2  0
  9  6  1  0
 10  9  1  0
 11 10  1  0
 11 13  1  0
 12 11  2  0
 14 13  1  0
 14 18  1  0
 14 15  1  1
 16 15  1  0
 16 17  2  0
 18 21  1  0
 19 18  2  0
 20 16  1  0
M  END
$$$$
