DGD.pdb
     RDKit          3D

 21 20  0  0  1  0  0  0  0  0999 V2000
    8.5298  -18.1672   14.3106 N   0  0  0  0  0  0  0  0  0  0  0  0
    7.2773  -17.7949   14.9015 C   0  0  1  0  0  0  0  0  0  0  0  0
    6.1135  -18.2838   14.0364 C   0  0  0  0  0  0  0  0  0  0  0  0
    6.0876  -17.3895   12.8324 C   0  0  0  0  0  0  0  0  0  0  0  0
    7.0606  -17.3155   12.0516 O   0  0  0  0  0  0  0  0  0  0  0  0
    7.1916  -18.3575   16.2731 C   0  0  0  0  0  0  0  0  0  0  0  0
    6.4166  -17.9453   17.1459 O   0  0  0  0  0  0  0  0  0  0  0  0
    4.9661  -16.6243   12.5698 O   0  0  0  0  0  0  0  0  0  0  0  0
    8.0661  -19.4388   16.5788 N   0  0  0  0  0  0  0  0  0  0  0  0
    8.0089  -20.0518   17.8750 C   0  0  0  0  0  0  0  0  0  0  0  0
    9.2961  -19.9456   18.6092 C   0  0  0  0  0  0  0  0  0  0  0  0
   10.3655  -19.7022   17.9956 O   0  0  0  0  0  0  0  0  0  0  0  0
    9.3197  -20.1209   20.0174 N   0  0  0  0  0  0  0  0  0  0  0  0
   10.5284  -20.0295   20.8205 C   0  0  1  0  0  0  0  0  0  0  0  0
   10.2539  -19.9299   22.2733 C   0  0  0  0  0  0  0  0  0  0  0  0
   11.5086  -19.7512   23.0287 C   0  0  0  0  0  0  0  0  0  0  0  0
   12.6605  -19.7067   22.5395 O   0  0  0  0  0  0  0  0  0  0  0  0
   11.3220  -21.2399   20.5645 C   0  0  0  0  0  0  0  0  0  0  0  0
   12.5679  -21.2415   20.6119 O   0  0  0  0  0  0  0  0  0  0  0  0
   11.4515  -19.6141   24.4339 O   0  0  0  0  0  0  0  0  0  0  0  0
   10.6791  -22.4231   20.2599 O   0  0  0  0  0  0  0  0  0  0  0  0
  2  3  1  0
  2  1  1  6
  3  4  1  0
  4  8  1  0
  4  5  2  0
  6  2  1  0
  7  6  2  0
  9  6  1  0
 10  9  1  0
 11 10  1  0
 11 13  1  0
 12 11  2  0
 14 13  1  0
 14 18  1  0
 14 15  1  1
 16 15  1  0
 16 17  2  0
 18 21  1  0
 19 18  2  0
 20 16  1  0
M  END
$$$$
