DGD.pdb
     RDKit          3D

 21 20  0  0  1  0  0  0  0  0999 V2000
    8.6982  -15.3567   18.6915 N   0  0  0  0  0  0  0  0  0  0  0  0
    8.4357  -13.9472   18.7187 C   0  0  1  0  0  0  0  0  0  0  0  0
    7.1846  -13.6220   17.8997 C   0  0  0  0  0  0  0  0  0  0  0  0
    7.5128  -13.9815   16.4808 C   0  0  0  0  0  0  0  0  0  0  0  0
    7.4003  -15.1530   16.0602 O   0  0  0  0  0  0  0  0  0  0  0  0
    8.2790  -13.5010   20.1264 C   0  0  0  0  0  0  0  0  0  0  0  0
    8.0389  -12.3341   20.4626 O   0  0  0  0  0  0  0  0  0  0  0  0
    7.9509  -13.0022   15.6084 O   0  0  0  0  0  0  0  0  0  0  0  0
    8.4178  -14.4970   21.1344 N   0  0  0  0  0  0  0  0  0  0  0  0
    8.3303  -14.1231   22.5170 C   0  0  0  0  0  0  0  0  0  0  0  0
    8.5531  -15.2735   23.4302 C   0  0  0  0  0  0  0  0  0  0  0  0
    7.6186  -16.0703   23.6968 O   0  0  0  0  0  0  0  0  0  0  0  0
    9.8336  -15.4756   24.0080 N   0  0  0  0  0  0  0  0  0  0  0  0
   10.2621  -16.7342   24.5969 C   0  0  1  0  0  0  0  0  0  0  0  0
   11.7334  -16.9107   24.5823 C   0  0  0  0  0  0  0  0  0  0  0  0
   12.2712  -16.6822   23.2276 C   0  0  0  0  0  0  0  0  0  0  0  0
   13.1067  -15.8062   22.9070 O   0  0  0  0  0  0  0  0  0  0  0  0
    9.7908  -16.7542   25.9890 C   0  0  0  0  0  0  0  0  0  0  0  0
    9.2837  -15.7543   26.5347 O   0  0  0  0  0  0  0  0  0  0  0  0
   11.8305  -17.5034   22.1654 O   0  0  0  0  0  0  0  0  0  0  0  0
    9.9071  -17.9132   26.7301 O   0  0  0  0  0  0  0  0  0  0  0  0
  2  3  1  0
  2  1  1  1
  3  4  1  0
  4  8  1  0
  4  5  2  0
  6  2  1  0
  7  6  2  0
  9  6  1  0
 10  9  1  0
 11 10  1  0
 11 13  1  0
 12 11  2  0
 14 13  1  0
 14 18  1  0
 14 15  1  1
 16 15  1  0
 16 17  2  0
 18 21  1  0
 19 18  2  0
 20 16  1  0
M  END
$$$$
