DGD.pdb
     RDKit          3D

 21 20  0  0  1  0  0  0  0  0999 V2000
   13.3812  -16.8902   16.3782 N   0  0  0  0  0  0  0  0  0  0  0  0
   13.2207  -15.5028   16.0529 C   0  0  1  0  0  0  0  0  0  0  0  0
   12.0433  -15.3128   15.0941 C   0  0  0  0  0  0  0  0  0  0  0  0
   12.4984  -15.8460   13.7678 C   0  0  0  0  0  0  0  0  0  0  0  0
   12.1101  -16.9543   13.3405 O   0  0  0  0  0  0  0  0  0  0  0  0
   13.0198  -14.7229   17.3006 C   0  0  0  0  0  0  0  0  0  0  0  0
   13.1231  -13.4916   17.3744 O   0  0  0  0  0  0  0  0  0  0  0  0
   13.3679  -15.1026   12.9911 O   0  0  0  0  0  0  0  0  0  0  0  0
   12.6880  -15.4610   18.4721 N   0  0  0  0  0  0  0  0  0  0  0  0
   12.6278  -14.7900   19.7391 C   0  0  0  0  0  0  0  0  0  0  0  0
   13.9466  -14.7490   20.4218 C   0  0  0  0  0  0  0  0  0  0  0  0
   14.8205  -13.9138   20.0780 O   0  0  0  0  0  0  0  0  0  0  0  0
   14.2238  -15.6619   21.4726 N   0  0  0  0  0  0  0  0  0  0  0  0
   15.4694  -15.6726   22.2228 C   0  0  1  0  0  0  0  0  0  0  0  0
   15.4373  -16.5876   23.3881 C   0  0  0  0  0  0  0  0  0  0  0  0
   14.5165  -16.0798   24.4230 C   0  0  0  0  0  0  0  0  0  0  0  0
   14.0370  -14.9243   24.4765 O   0  0  0  0  0  0  0  0  0  0  0  0
   16.5344  -16.1021   21.3054 C   0  0  0  0  0  0  0  0  0  0  0  0
   16.3355  -16.9319   20.3962 O   0  0  0  0  0  0  0  0  0  0  0  0
   14.1133  -16.9420   25.4674 O   0  0  0  0  0  0  0  0  0  0  0  0
   17.8038  -15.5769   21.4432 O   0  0  0  0  0  0  0  0  0  0  0  0
  2  3  1  0
  2  1  1  1
  3  4  1  0
  4  8  1  0
  4  5  2  0
  6  2  1  0
  7  6  2  0
  9  6  1  0
 10  9  1  0
 11 10  1  0
 11 13  1  0
 12 11  2  0
 14 13  1  0
 14 18  1  0
 14 15  1  1
 16 15  1  0
 16 17  2  0
 18 21  1  0
 19 18  2  0
 20 16  1  0
M  END
$$$$
