DGD.pdb
     RDKit          3D

 21 20  0  0  1  0  0  0  0  0999 V2000
    6.5350  -18.7228   16.6520 N   0  0  0  0  0  0  0  0  0  0  0  0
    5.6144  -19.2204   17.6325 C   0  0  1  0  0  0  0  0  0  0  0  0
    6.1077  -20.5536   18.1989 C   0  0  0  0  0  0  0  0  0  0  0  0
    6.0175  -21.5412   17.0733 C   0  0  0  0  0  0  0  0  0  0  0  0
    7.0086  -21.8164   16.3637 O   0  0  0  0  0  0  0  0  0  0  0  0
    5.4503  -18.2137   18.7118 C   0  0  0  0  0  0  0  0  0  0  0  0
    5.7487  -17.0178   18.5975 O   0  0  0  0  0  0  0  0  0  0  0  0
    4.8145  -22.1680   16.8052 O   0  0  0  0  0  0  0  0  0  0  0  0
    4.9138  -18.6782   19.9461 N   0  0  0  0  0  0  0  0  0  0  0  0
    4.6731  -17.7457   21.0099 C   0  0  0  0  0  0  0  0  0  0  0  0
    4.1541  -18.4059   22.2355 C   0  0  0  0  0  0  0  0  0  0  0  0
    2.9180  -18.5470   22.4127 O   0  0  0  0  0  0  0  0  0  0  0  0
    5.0623  -18.8822   23.2166 N   0  0  0  0  0  0  0  0  0  0  0  0
    5.2024  -20.2854   23.5711 C   0  0  1  0  0  0  0  0  0  0  0  0
    4.8369  -21.2026   22.4660 C   0  0  0  0  0  0  0  0  0  0  0  0
    4.9765  -22.6090   22.8896 C   0  0  0  0  0  0  0  0  0  0  0  0
    5.8227  -23.0516   23.6995 O   0  0  0  0  0  0  0  0  0  0  0  0
    6.6082  -20.5111   23.9361 C   0  0  0  0  0  0  0  0  0  0  0  0
    7.5512  -19.9958   23.3037 O   0  0  0  0  0  0  0  0  0  0  0  0
    4.0962  -23.5778   22.3575 O   0  0  0  0  0  0  0  0  0  0  0  0
    6.9100  -21.3192   25.0141 O   0  0  0  0  0  0  0  0  0  0  0  0
  2  3  1  0
  2  1  1  6
  3  4  1  0
  4  8  1  0
  4  5  2  0
  6  2  1  0
  7  6  2  0
  9  6  1  0
 10  9  1  0
 11 10  1  0
 11 13  1  0
 12 11  2  0
 14 13  1  0
 14 18  1  0
 14 15  1  6
 16 15  1  0
 16 17  2  0
 18 21  1  0
 19 18  2  0
 20 16  1  0
M  END
$$$$
