DGD.pdb
     RDKit          3D

 21 20  0  0  1  0  0  0  0  0999 V2000
    7.4440  -17.7616   19.0617 N   0  0  0  0  0  0  0  0  0  0  0  0
    8.4150  -16.7562   18.7414 C   0  0  1  0  0  0  0  0  0  0  0  0
    8.0293  -16.0355   17.4477 C   0  0  0  0  0  0  0  0  0  0  0  0
    8.3702  -16.9773   16.3309 C   0  0  0  0  0  0  0  0  0  0  0  0
    8.1136  -18.1982   16.4038 O   0  0  0  0  0  0  0  0  0  0  0  0
    8.5243  -15.7975   19.8702 C   0  0  0  0  0  0  0  0  0  0  0  0
    9.5264  -15.1088   20.1021 O   0  0  0  0  0  0  0  0  0  0  0  0
    8.9827  -16.4946   15.1891 O   0  0  0  0  0  0  0  0  0  0  0  0
    7.3917  -15.6813   20.7252 N   0  0  0  0  0  0  0  0  0  0  0  0
    7.4169  -14.7440   21.8115 C   0  0  0  0  0  0  0  0  0  0  0  0
    7.6608  -15.4013   23.1213 C   0  0  0  0  0  0  0  0  0  0  0  0
    6.7343  -16.0061   23.7171 O   0  0  0  0  0  0  0  0  0  0  0  0
    8.9526  -15.3460   23.7067 N   0  0  0  0  0  0  0  0  0  0  0  0
    9.6074  -16.4888   24.3227 C   0  0  1  0  0  0  0  0  0  0  0  0
    9.7738  -17.6323   23.3948 C   0  0  0  0  0  0  0  0  0  0  0  0
   10.4996  -18.7351   24.0533 C   0  0  0  0  0  0  0  0  0  0  0  0
   10.1588  -19.3096   25.1125 O   0  0  0  0  0  0  0  0  0  0  0  0
   10.9324  -16.0459   24.7798 C   0  0  0  0  0  0  0  0  0  0  0  0
   11.5668  -15.1400   24.2040 O   0  0  0  0  0  0  0  0  0  0  0  0
   11.6927  -19.2179   23.4700 O   0  0  0  0  0  0  0  0  0  0  0  0
   11.5065  -16.6445   25.8835 O   0  0  0  0  0  0  0  0  0  0  0  0
  2  3  1  0
  2  1  1  1
  3  4  1  0
  4  8  1  0
  4  5  2  0
  6  2  1  0
  7  6  2  0
  9  6  1  0
 10  9  1  0
 11 10  1  0
 11 13  1  0
 12 11  2  0
 14 13  1  0
 14 18  1  0
 14 15  1  6
 16 15  1  0
 16 17  2  0
 18 21  1  0
 19 18  2  0
 20 16  1  0
M  END
$$$$
