DGD.pdb
     RDKit          3D

 21 20  0  0  1  0  0  0  0  0999 V2000
    7.4830  -18.0623   16.9512 N   0  0  0  0  0  0  0  0  0  0  0  0
    8.4302  -17.0872   16.4947 C   0  0  1  0  0  0  0  0  0  0  0  0
    7.8205  -16.2320   15.3817 C   0  0  0  0  0  0  0  0  0  0  0  0
    8.0604  -16.9812   14.1045 C   0  0  0  0  0  0  0  0  0  0  0  0
    7.3455  -17.9502   13.7705 O   0  0  0  0  0  0  0  0  0  0  0  0
    8.8593  -16.2424   17.6381 C   0  0  0  0  0  0  0  0  0  0  0  0
    9.7661  -15.4018   17.5789 O   0  0  0  0  0  0  0  0  0  0  0  0
    9.0940  -16.5997   13.2689 O   0  0  0  0  0  0  0  0  0  0  0  0
    8.1685  -16.4297   18.8690 N   0  0  0  0  0  0  0  0  0  0  0  0
    8.5036  -15.6140   20.0010 C   0  0  0  0  0  0  0  0  0  0  0  0
    9.1471  -16.3931   21.0901 C   0  0  0  0  0  0  0  0  0  0  0  0
    9.0002  -17.6392   21.1595 O   0  0  0  0  0  0  0  0  0  0  0  0
    9.9356  -15.7245   22.0625 N   0  0  0  0  0  0  0  0  0  0  0  0
   10.6462  -16.4074   23.1316 C   0  0  1  0  0  0  0  0  0  0  0  0
   11.9866  -15.8337   23.3967 C   0  0  0  0  0  0  0  0  0  0  0  0
   12.9610  -16.3030   22.3931 C   0  0  0  0  0  0  0  0  0  0  0  0
   12.7397  -16.4562   21.1701 O   0  0  0  0  0  0  0  0  0  0  0  0
    9.8282  -16.2961   24.3478 C   0  0  0  0  0  0  0  0  0  0  0  0
    8.9952  -15.3823   24.5086 O   0  0  0  0  0  0  0  0  0  0  0  0
   14.2746  -16.6199   22.8059 O   0  0  0  0  0  0  0  0  0  0  0  0
    9.9766  -17.2284   25.3552 O   0  0  0  0  0  0  0  0  0  0  0  0
  2  3  1  0
  2  1  1  1
  3  4  1  0
  4  8  1  0
  4  5  2  0
  6  2  1  0
  7  6  2  0
  9  6  1  0
 10  9  1  0
 11 10  1  0
 11 13  1  0
 12 11  2  0
 14 13  1  0
 14 18  1  0
 14 15  1  1
 16 15  1  0
 16 17  2  0
 18 21  1  0
 19 18  2  0
 20 16  1  0
M  END
$$$$
