DGD.pdb
     RDKit          3D

 21 20  0  0  1  0  0  0  0  0999 V2000
   -2.0112  -26.9065   26.6354 N   0  0  0  0  0  0  0  0  0  0  0  0
   -3.0486  -27.5202   27.4124 C   0  0  1  0  0  0  0  0  0  0  0  0
   -3.0338  -26.9787   28.8437 C   0  0  0  0  0  0  0  0  0  0  0  0
   -2.1284  -27.8874   29.6214 C   0  0  0  0  0  0  0  0  0  0  0  0
   -2.5745  -28.8635   30.2618 O   0  0  0  0  0  0  0  0  0  0  0  0
   -4.3622  -27.2730   26.7654 C   0  0  0  0  0  0  0  0  0  0  0  0
   -4.7166  -27.7845   25.6953 O   0  0  0  0  0  0  0  0  0  0  0  0
   -0.7664  -27.6495   29.6375 O   0  0  0  0  0  0  0  0  0  0  0  0
   -5.2524  -26.3886   27.4381 N   0  0  0  0  0  0  0  0  0  0  0  0
   -6.5560  -26.1435   26.8907 C   0  0  0  0  0  0  0  0  0  0  0  0
   -7.4055  -25.3259   27.7946 C   0  0  0  0  0  0  0  0  0  0  0  0
   -8.5208  -24.8939   27.4090 O   0  0  0  0  0  0  0  0  0  0  0  0
   -6.9539  -25.0288   29.1070 N   0  0  0  0  0  0  0  0  0  0  0  0
   -7.4243  -23.8926   29.8829 C   0  0  1  0  0  0  0  0  0  0  0  0
   -7.4416  -22.6286   29.1094 C   0  0  0  0  0  0  0  0  0  0  0  0
   -7.7829  -21.4893   29.9824 C   0  0  0  0  0  0  0  0  0  0  0  0
   -8.7333  -20.6919   29.8116 O   0  0  0  0  0  0  0  0  0  0  0  0
   -8.7901  -24.1986   30.3317 C   0  0  0  0  0  0  0  0  0  0  0  0
   -9.0253  -24.7261   31.4367 O   0  0  0  0  0  0  0  0  0  0  0  0
   -6.9919  -21.2383   31.1261 O   0  0  0  0  0  0  0  0  0  0  0  0
   -9.8592  -23.8971   29.5118 O   0  0  0  0  0  0  0  0  0  0  0  0
  2  3  1  0
  2  1  1  6
  3  4  1  0
  4  8  1  0
  4  5  2  0
  6  2  1  0
  7  6  2  0
  9  6  1  0
 10  9  1  0
 11 10  1  0
 11 13  1  0
 12 11  2  0
 14 13  1  0
 14 18  1  0
 14 15  1  6
 16 15  1  0
 16 17  2  0
 18 21  1  0
 19 18  2  0
 20 16  1  0
M  END
$$$$
