DGD.pdb
     RDKit          3D

 21 20  0  0  1  0  0  0  0  0999 V2000
    4.6284  -20.3740   22.2773 N   0  0  0  0  0  0  0  0  0  0  0  0
    4.5885  -18.9966   21.8804 C   0  0  1  0  0  0  0  0  0  0  0  0
    3.1549  -18.4648   21.9440 C   0  0  0  0  0  0  0  0  0  0  0  0
    2.3545  -19.3168   21.0039 C   0  0  0  0  0  0  0  0  0  0  0  0
    2.8112  -20.3824   20.5373 O   0  0  0  0  0  0  0  0  0  0  0  0
    5.4877  -18.2037   22.7567 C   0  0  0  0  0  0  0  0  0  0  0  0
    5.5850  -16.9703   22.7181 O   0  0  0  0  0  0  0  0  0  0  0  0
    1.0802  -18.9241   20.6378 O   0  0  0  0  0  0  0  0  0  0  0  0
    6.2770  -18.9312   23.6921 N   0  0  0  0  0  0  0  0  0  0  0  0
    7.0982  -18.2209   24.6304 C   0  0  0  0  0  0  0  0  0  0  0  0
    7.8529  -19.1336   25.5273 C   0  0  0  0  0  0  0  0  0  0  0  0
    7.3886  -20.2609   25.8323 O   0  0  0  0  0  0  0  0  0  0  0  0
    9.1109  -18.7296   26.0456 N   0  0  0  0  0  0  0  0  0  0  0  0
    9.9179  -19.5510   26.9334 C   0  0  1  0  0  0  0  0  0  0  0  0
   11.3465  -19.1576   26.9497 C   0  0  0  0  0  0  0  0  0  0  0  0
   11.9547  -19.3521   25.6197 C   0  0  0  0  0  0  0  0  0  0  0  0
   12.3359  -18.4439   24.8464 O   0  0  0  0  0  0  0  0  0  0  0  0
    9.3666  -19.4106   28.2887 C   0  0  0  0  0  0  0  0  0  0  0  0
    8.5489  -18.5172   28.5855 O   0  0  0  0  0  0  0  0  0  0  0  0
   12.1425  -20.6661   25.1351 O   0  0  0  0  0  0  0  0  0  0  0  0
    9.7585  -20.2910   29.2773 O   0  0  0  0  0  0  0  0  0  0  0  0
  2  3  1  0
  2  1  1  1
  3  4  1  0
  4  8  1  0
  4  5  2  0
  6  2  1  0
  7  6  2  0
  9  6  1  0
 10  9  1  0
 11 10  1  0
 11 13  1  0
 12 11  2  0
 14 13  1  0
 14 18  1  0
 14 15  1  1
 16 15  1  0
 16 17  2  0
 18 21  1  0
 19 18  2  0
 20 16  1  0
M  END
$$$$
