DGD.pdb
     RDKit          3D

 21 20  0  0  1  0  0  0  0  0999 V2000
    7.1032  -19.0693   21.1616 N   0  0  0  0  0  0  0  0  0  0  0  0
    5.7014  -18.8590   21.3782 C   0  0  1  0  0  0  0  0  0  0  0  0
    4.9646  -20.1988   21.4400 C   0  0  0  0  0  0  0  0  0  0  0  0
    5.3207  -20.9265   20.1774 C   0  0  0  0  0  0  0  0  0  0  0  0
    5.0933  -20.4331   19.0520 O   0  0  0  0  0  0  0  0  0  0  0  0
    5.5055  -18.0876   22.6319 C   0  0  0  0  0  0  0  0  0  0  0  0
    4.3982  -17.7973   23.1031 O   0  0  0  0  0  0  0  0  0  0  0  0
    5.9149  -22.1731   20.2481 O   0  0  0  0  0  0  0  0  0  0  0  0
    6.6808  -17.6672   23.3168 N   0  0  0  0  0  0  0  0  0  0  0  0
    6.5621  -16.8772   24.5088 C   0  0  0  0  0  0  0  0  0  0  0  0
    7.8706  -16.6629   25.1791 C   0  0  0  0  0  0  0  0  0  0  0  0
    8.9448  -16.9534   24.5951 O   0  0  0  0  0  0  0  0  0  0  0  0
    7.9090  -16.1250   26.4919 N   0  0  0  0  0  0  0  0  0  0  0  0
    9.1355  -15.7264   27.1636 C   0  0  1  0  0  0  0  0  0  0  0  0
    8.9412  -14.6001   28.1068 C   0  0  0  0  0  0  0  0  0  0  0  0
   10.2279  -14.1929   28.7029 C   0  0  0  0  0  0  0  0  0  0  0  0
   11.3165  -14.0802   28.0943 O   0  0  0  0  0  0  0  0  0  0  0  0
    9.6322  -16.8934   27.9066 C   0  0  0  0  0  0  0  0  0  0  0  0
    8.8936  -17.8491   28.2163 O   0  0  0  0  0  0  0  0  0  0  0  0
   10.2823  -13.8940   30.0829 O   0  0  0  0  0  0  0  0  0  0  0  0
   10.9599  -16.9470   28.2810 O   0  0  0  0  0  0  0  0  0  0  0  0
  2  3  1  0
  2  1  1  1
  3  4  1  0
  4  8  1  0
  4  5  2  0
  6  2  1  0
  7  6  2  0
  9  6  1  0
 10  9  1  0
 11 10  1  0
 11 13  1  0
 12 11  2  0
 14 13  1  0
 14 18  1  0
 14 15  1  1
 16 15  1  0
 16 17  2  0
 18 21  1  0
 19 18  2  0
 20 16  1  0
M  END
$$$$
