DGD.pdb
     RDKit          3D

 21 20  0  0  1  0  0  0  0  0999 V2000
   14.6909  -14.5031   15.6236 N   0  0  0  0  0  0  0  0  0  0  0  0
   13.5000  -15.2814   15.4432 C   0  0  1  0  0  0  0  0  0  0  0  0
   13.8561  -16.7399   15.1468 C   0  0  0  0  0  0  0  0  0  0  0  0
   14.5610  -16.7338   13.8227 C   0  0  0  0  0  0  0  0  0  0  0  0
   15.8082  -16.7158   13.7458 O   0  0  0  0  0  0  0  0  0  0  0  0
   12.6537  -15.1785   16.6590 C   0  0  0  0  0  0  0  0  0  0  0  0
   11.5304  -15.6869   16.7686 O   0  0  0  0  0  0  0  0  0  0  0  0
   13.8240  -16.7485   12.6528 O   0  0  0  0  0  0  0  0  0  0  0  0
   13.1907  -14.4440   17.7542 N   0  0  0  0  0  0  0  0  0  0  0  0
   12.3915  -14.2356   18.9277 C   0  0  0  0  0  0  0  0  0  0  0  0
   13.1429  -14.5065   20.1803 C   0  0  0  0  0  0  0  0  0  0  0  0
   14.2197  -13.9062   20.4242 O   0  0  0  0  0  0  0  0  0  0  0  0
   12.6407  -15.4526   21.1116 N   0  0  0  0  0  0  0  0  0  0  0  0
   13.1486  -15.5971   22.4664 C   0  0  1  0  0  0  0  0  0  0  0  0
   12.2383  -16.3644   23.3488 C   0  0  0  0  0  0  0  0  0  0  0  0
   12.7953  -16.4627   24.7115 C   0  0  0  0  0  0  0  0  0  0  0  0
   12.4377  -17.2755   25.5943 O   0  0  0  0  0  0  0  0  0  0  0  0
   14.4382  -16.2975   22.3829 C   0  0  0  0  0  0  0  0  0  0  0  0
   14.5593  -17.4050   21.8231 O   0  0  0  0  0  0  0  0  0  0  0  0
   13.8275  -15.5783   25.0976 O   0  0  0  0  0  0  0  0  0  0  0  0
   15.5627  -15.7210   22.9389 O   0  0  0  0  0  0  0  0  0  0  0  0
  2  3  1  0
  2  1  1  1
  3  4  1  0
  4  8  1  0
  4  5  2  0
  6  2  1  0
  7  6  2  0
  9  6  1  0
 10  9  1  0
 11 10  1  0
 11 13  1  0
 12 11  2  0
 14 13  1  0
 14 18  1  0
 14 15  1  1
 16 15  1  0
 16 17  2  0
 18 21  1  0
 19 18  2  0
 20 16  1  0
M  END
$$$$
