SWH.pdb
     RDKit          3D

 31 33  0  0  1  0  0  0  0  0999 V2000
   27.4530  -18.7588  -15.5637 O   0  0  0  0  0  0  0  0  0  0  0  0
   28.5910  -19.1355  -14.8709 C   0  0  0  0  0  0  0  0  0  0  0  0
   28.5963  -20.6465  -14.6100 C   0  0  2  0  0  0  0  0  0  0  0  0
   28.1740  -21.3941  -15.7522 N   0  0  0  0  0  0  0  0  0  0  0  0
   27.7342  -20.9670  -13.4528 C   0  0  0  0  0  0  0  0  0  0  0  0
   26.7541  -21.7272  -13.6297 O   0  0  0  0  0  0  0  0  0  0  0  0
   27.9613  -20.4556  -12.1486 N   0  0  0  0  0  0  0  0  0  0  0  0
   27.1073  -20.7058  -11.0059 C   0  0  1  0  0  0  0  0  0  0  0  0
   27.5655  -20.0689   -9.7513 C   0  0  0  0  0  0  0  0  0  0  0  0
   26.8207  -20.3807   -8.5316 C   0  0  0  0  0  0  0  0  0  0  0  0
   25.5954  -20.9180   -8.2971 C   0  0  0  0  0  0  0  0  0  0  0  0
   25.3968  -20.9780   -6.9519 N   0  0  0  0  0  0  0  0  0  0  0  0
   26.4732  -20.4888   -6.3244 C   0  0  0  0  0  0  0  0  0  0  0  0
   26.8076  -20.3129   -4.9844 C   0  0  0  0  0  0  0  0  0  0  0  0
   28.0160  -19.7696   -4.5866 C   0  0  0  0  0  0  0  0  0  0  0  0
   28.9229  -19.3883   -5.5509 C   0  0  0  0  0  0  0  0  0  0  0  0
   28.5846  -19.5657   -6.8765 C   0  0  0  0  0  0  0  0  0  0  0  0
   27.3737  -20.1100   -7.2722 C   0  0  0  0  0  0  0  0  0  0  0  0
   25.7146  -20.2516  -11.2602 C   0  0  0  0  0  0  0  0  0  0  0  0
   25.4237  -19.0564  -11.4697 O   0  0  0  0  0  0  0  0  0  0  0  0
   24.6912  -21.2169  -11.2630 N   0  0  0  0  0  0  0  0  0  0  0  0
   23.3537  -20.7928  -11.7013 C   0  0  1  0  0  0  0  0  0  0  0  0
   22.8391  -21.9897  -12.5138 C   0  0  0  0  0  0  0  0  0  0  0  0
   22.2405  -21.4749  -13.7678 C   0  0  0  0  0  0  0  0  0  0  0  0
   22.0471  -20.1371  -14.0315 C   0  0  0  0  0  0  0  0  0  0  0  0
   21.4873  -20.0656  -15.2534 N   0  0  0  0  0  0  0  0  0  0  0  0
   21.3183  -21.2950  -15.7732 C   0  0  0  0  0  0  0  0  0  0  0  0
   21.7897  -22.1464  -14.8396 N   0  0  0  0  0  0  0  0  0  0  0  0
   22.4963  -20.4618  -10.5697 C   0  0  0  0  0  0  0  0  0  0  0  0
   22.7399  -20.9285   -9.4358 O   0  0  0  0  0  0  0  0  0  0  0  0
   21.4100  -19.6322  -10.7362 O   0  0  0  0  0  0  0  0  0  0  0  0
  2  1  1  0
  3  2  1  0
  3  4  1  6
  5  6  2  0
  5  3  1  0
  7  5  1  0
  8  7  1  0
  8  9  1  1
 10 11  2  0
 10  9  1  0
 12 11  1  0
 13 18  2  0
 13 12  1  0
 14 13  1  0
 15 16  1  0
 15 14  2  0
 16 17  2  0
 17 18  1  0
 18 10  1  0
 19 21  1  0
 19  8  1  0
 20 19  2  0
 22 21  1  0
 22 29  1  0
 22 23  1  1
 24 23  1  0
 25 24  2  0
 26 27  1  0
 26 25  1  0
 27 28  2  0
 28 24  1  0
 29 31  1  0
 30 29  2  0
M  END
$$$$
