SWH.pdb
     RDKit          3D

 31 33  0  0  1  0  0  0  0  0999 V2000
   27.0368  -18.9199  -15.7443 O   0  0  0  0  0  0  0  0  0  0  0  0
   28.1841  -18.8021  -14.9783 C   0  0  0  0  0  0  0  0  0  0  0  0
   28.6470  -20.1741  -14.4739 C   0  0  2  0  0  0  0  0  0  0  0  0
   29.0374  -21.0396  -15.5418 N   0  0  0  0  0  0  0  0  0  0  0  0
   27.5781  -20.8111  -13.6760 C   0  0  0  0  0  0  0  0  0  0  0  0
   26.9497  -21.7721  -14.1772 O   0  0  0  0  0  0  0  0  0  0  0  0
   27.2268  -20.3876  -12.3677 N   0  0  0  0  0  0  0  0  0  0  0  0
   26.1962  -20.9981  -11.5537 C   0  0  1  0  0  0  0  0  0  0  0  0
   26.2652  -20.6466  -10.1180 C   0  0  0  0  0  0  0  0  0  0  0  0
   27.5110  -20.9495   -9.4138 C   0  0  0  0  0  0  0  0  0  0  0  0
   28.6371  -21.6269   -9.7575 C   0  0  0  0  0  0  0  0  0  0  0  0
   29.4947  -21.6098   -8.7008 N   0  0  0  0  0  0  0  0  0  0  0  0
   28.9360  -20.9338   -7.6896 C   0  0  0  0  0  0  0  0  0  0  0  0
   29.3537  -20.6128   -6.4008 C   0  0  0  0  0  0  0  0  0  0  0  0
   28.5677  -19.8838   -5.5263 C   0  0  0  0  0  0  0  0  0  0  0  0
   27.3259  -19.4592   -5.9450 C   0  0  0  0  0  0  0  0  0  0  0  0
   26.9189  -19.7811   -7.2232 C   0  0  0  0  0  0  0  0  0  0  0  0
   27.7079  -20.5113   -8.0969 C   0  0  0  0  0  0  0  0  0  0  0  0
   24.8377  -20.6406  -12.0411 C   0  0  0  0  0  0  0  0  0  0  0  0
   24.5129  -19.4716  -12.3326 O   0  0  0  0  0  0  0  0  0  0  0  0
   23.8882  -21.6698  -12.1757 N   0  0  0  0  0  0  0  0  0  0  0  0
   22.5702  -21.3157  -12.7218 C   0  0  1  0  0  0  0  0  0  0  0  0
   21.9338  -22.6740  -13.0498 C   0  0  0  0  0  0  0  0  0  0  0  0
   20.5582  -22.4333  -13.5452 C   0  0  0  0  0  0  0  0  0  0  0  0
   20.1934  -21.3328  -14.2887 C   0  0  0  0  0  0  0  0  0  0  0  0
   18.8793  -21.4654  -14.5476 N   0  0  0  0  0  0  0  0  0  0  0  0
   18.3976  -22.5974  -14.0029 C   0  0  0  0  0  0  0  0  0  0  0  0
   19.4505  -23.1764  -13.3906 N   0  0  0  0  0  0  0  0  0  0  0  0
   21.7866  -20.5340  -11.7729 C   0  0  0  0  0  0  0  0  0  0  0  0
   21.8548  -20.7757  -10.5483 O   0  0  0  0  0  0  0  0  0  0  0  0
   20.9640  -19.5217  -12.2137 O   0  0  0  0  0  0  0  0  0  0  0  0
  2  1  1  0
  3  2  1  0
  3  4  1  6
  5  6  2  0
  5  3  1  0
  7  5  1  0
  8  7  1  0
  8  9  1  1
 10 11  2  0
 10  9  1  0
 12 11  1  0
 13 18  2  0
 13 12  1  0
 14 13  1  0
 15 16  1  0
 15 14  2  0
 16 17  2  0
 17 18  1  0
 18 10  1  0
 19 21  1  0
 19  8  1  0
 20 19  2  0
 22 21  1  0
 22 29  1  0
 22 23  1  1
 24 23  1  0
 25 24  2  0
 26 27  1  0
 26 25  1  0
 27 28  2  0
 28 24  1  0
 29 31  1  0
 30 29  2  0
M  END
$$$$
