SWH.pdb
     RDKit          3D

 31 33  0  0  1  0  0  0  0  0999 V2000
   22.3362   -9.8439  -23.2200 O   0  0  0  0  0  0  0  0  0  0  0  0
   22.1742   -9.5072  -21.8868 C   0  0  0  0  0  0  0  0  0  0  0  0
   23.4923   -9.6661  -21.1197 C   0  0  2  0  0  0  0  0  0  0  0  0
   23.8678  -11.0365  -20.9673 N   0  0  0  0  0  0  0  0  0  0  0  0
   23.3906   -9.0225  -19.7928 C   0  0  0  0  0  0  0  0  0  0  0  0
   22.6333   -9.5348  -18.9362 O   0  0  0  0  0  0  0  0  0  0  0  0
   24.1092   -7.8506  -19.4398 N   0  0  0  0  0  0  0  0  0  0  0  0
   23.9774   -7.1530  -18.1775 C   0  0  1  0  0  0  0  0  0  0  0  0
   25.2575   -6.6791  -17.6062 C   0  0  0  0  0  0  0  0  0  0  0  0
   26.2190   -7.6968  -17.1825 C   0  0  0  0  0  0  0  0  0  0  0  0
   27.4694   -8.0297  -17.5956 C   0  0  0  0  0  0  0  0  0  0  0  0
   27.9100   -9.0781  -16.8478 N   0  0  0  0  0  0  0  0  0  0  0  0
   26.9631   -9.4198  -15.9654 C   0  0  0  0  0  0  0  0  0  0  0  0
   26.8772  -10.3973  -14.9777 C   0  0  0  0  0  0  0  0  0  0  0  0
   25.7581  -10.5477  -14.1785 C   0  0  0  0  0  0  0  0  0  0  0  0
   24.6888   -9.6997  -14.3657 C   0  0  0  0  0  0  0  0  0  0  0  0
   24.7812   -8.7337  -15.3462 C   0  0  0  0  0  0  0  0  0  0  0  0
   25.9030   -8.5852  -16.1453 C   0  0  0  0  0  0  0  0  0  0  0  0
   23.0749   -5.9777  -18.2993 C   0  0  0  0  0  0  0  0  0  0  0  0
   23.1664   -5.1521  -19.2305 O   0  0  0  0  0  0  0  0  0  0  0  0
   22.0809   -5.7990  -17.3200 N   0  0  0  0  0  0  0  0  0  0  0  0
   21.0868   -4.7392  -17.5414 C   0  0  1  0  0  0  0  0  0  0  0  0
   20.3494   -5.1895  -18.8106 C   0  0  0  0  0  0  0  0  0  0  0  0
   19.3361   -4.1619  -19.1467 C   0  0  0  0  0  0  0  0  0  0  0  0
   19.6474   -2.8813  -19.5469 C   0  0  0  0  0  0  0  0  0  0  0  0
   18.4766   -2.2521  -19.7590 N   0  0  0  0  0  0  0  0  0  0  0  0
   17.4413   -3.0751  -19.5117 C   0  0  0  0  0  0  0  0  0  0  0  0
   17.9960   -4.2455  -19.1360 N   0  0  0  0  0  0  0  0  0  0  0  0
   20.2015   -4.5831  -16.3936 C   0  0  0  0  0  0  0  0  0  0  0  0
   19.6380   -5.5796  -15.8915 O   0  0  0  0  0  0  0  0  0  0  0  0
   19.9767   -3.3382  -15.8498 O   0  0  0  0  0  0  0  0  0  0  0  0
  2  1  1  0
  3  2  1  0
  3  4  1  1
  5  6  2  0
  5  3  1  0
  7  5  1  0
  8  7  1  0
  8  9  1  6
 10 11  2  0
 10  9  1  0
 12 11  1  0
 13 18  2  0
 13 12  1  0
 14 13  1  0
 15 16  1  0
 15 14  2  0
 16 17  2  0
 17 18  1  0
 18 10  1  0
 19 21  1  0
 19  8  1  0
 20 19  2  0
 22 21  1  0
 22 29  1  0
 22 23  1  6
 24 23  1  0
 25 24  2  0
 26 27  1  0
 26 25  1  0
 27 28  2  0
 28 24  1  0
 29 31  1  0
 30 29  2  0
M  END
$$$$
