SWH.pdb
     RDKit          3D

 31 33  0  0  1  0  0  0  0  0999 V2000
   27.1974  -19.0097  -15.3631 O   0  0  0  0  0  0  0  0  0  0  0  0
   28.5331  -19.2599  -15.0979 C   0  0  0  0  0  0  0  0  0  0  0  0
   28.7360  -20.7075  -14.6348 C   0  0  2  0  0  0  0  0  0  0  0  0
   28.4807  -21.6500  -15.6781 N   0  0  0  0  0  0  0  0  0  0  0  0
   27.8693  -20.9971  -13.4729 C   0  0  0  0  0  0  0  0  0  0  0  0
   26.8380  -21.6854  -13.6529 O   0  0  0  0  0  0  0  0  0  0  0  0
   28.1473  -20.5335  -12.1606 N   0  0  0  0  0  0  0  0  0  0  0  0
   27.3119  -20.7847  -11.0045 C   0  0  1  0  0  0  0  0  0  0  0  0
   27.8142  -20.1864   -9.7478 C   0  0  0  0  0  0  0  0  0  0  0  0
   27.0088  -20.3852   -8.5431 C   0  0  0  0  0  0  0  0  0  0  0  0
   25.7318  -20.7969   -8.3309 C   0  0  0  0  0  0  0  0  0  0  0  0
   25.4900  -20.7920   -6.9914 N   0  0  0  0  0  0  0  0  0  0  0  0
   26.5896  -20.3848   -6.3458 C   0  0  0  0  0  0  0  0  0  0  0  0
   26.9007  -20.1953   -5.0020 C   0  0  0  0  0  0  0  0  0  0  0  0
   28.1434  -19.7544   -4.5834 C   0  0  0  0  0  0  0  0  0  0  0  0
   29.1095  -19.4931   -5.5299 C   0  0  0  0  0  0  0  0  0  0  0  0
   28.7939  -19.6832   -6.8594 C   0  0  0  0  0  0  0  0  0  0  0  0
   27.5487  -20.1247   -7.2760 C   0  0  0  0  0  0  0  0  0  0  0  0
   25.9267  -20.2884  -11.2185 C   0  0  0  0  0  0  0  0  0  0  0  0
   25.6638  -19.0819  -11.3979 O   0  0  0  0  0  0  0  0  0  0  0  0
   24.8777  -21.2258  -11.2172 N   0  0  0  0  0  0  0  0  0  0  0  0
   23.5816  -20.8010  -11.7654 C   0  0  1  0  0  0  0  0  0  0  0  0
   23.0854  -22.0369  -12.5293 C   0  0  0  0  0  0  0  0  0  0  0  0
   21.7530  -21.7255  -13.0980 C   0  0  0  0  0  0  0  0  0  0  0  0
   21.3375  -20.4536  -13.4241 C   0  0  0  0  0  0  0  0  0  0  0  0
   20.0863  -20.5721  -13.9060 N   0  0  0  0  0  0  0  0  0  0  0  0
   19.6927  -21.8587  -13.8995 C   0  0  0  0  0  0  0  0  0  0  0  0
   20.7362  -22.5499  -13.3975 N   0  0  0  0  0  0  0  0  0  0  0  0
   22.6658  -20.3757  -10.7138 C   0  0  0  0  0  0  0  0  0  0  0  0
   21.8511  -19.4507  -10.9228 O   0  0  0  0  0  0  0  0  0  0  0  0
   22.6870  -20.9872   -9.4803 O   0  0  0  0  0  0  0  0  0  0  0  0
  2  1  1  0
  3  2  1  0
  3  4  1  6
  5  6  2  0
  5  3  1  0
  7  5  1  0
  8  7  1  0
  8  9  1  1
 10 11  2  0
 10  9  1  0
 12 11  1  0
 13 18  2  0
 13 12  1  0
 14 13  1  0
 15 16  1  0
 15 14  2  0
 16 17  2  0
 17 18  1  0
 18 10  1  0
 19 21  1  0
 19  8  1  0
 20 19  2  0
 22 21  1  0
 22 29  1  0
 22 23  1  1
 24 23  1  0
 25 24  2  0
 26 27  1  0
 26 25  1  0
 27 28  2  0
 28 24  1  0
 29 31  1  0
 30 29  2  0
M  END
$$$$
