SWH.pdb
     RDKit          3D

 31 33  0  0  1  0  0  0  0  0999 V2000
   26.6016  -18.6407  -17.1932 O   0  0  0  0  0  0  0  0  0  0  0  0
   27.9094  -18.6072  -16.7402 C   0  0  0  0  0  0  0  0  0  0  0  0
   28.3787  -20.0060  -16.3228 C   0  0  2  0  0  0  0  0  0  0  0  0
   28.4164  -20.9151  -17.4247 N   0  0  0  0  0  0  0  0  0  0  0  0
   27.5025  -20.5414  -15.2595 C   0  0  0  0  0  0  0  0  0  0  0  0
   26.7513  -21.5061  -15.5329 O   0  0  0  0  0  0  0  0  0  0  0  0
   27.4692  -20.0163  -13.9414 N   0  0  0  0  0  0  0  0  0  0  0  0
   26.6813  -20.5640  -12.8566 C   0  0  1  0  0  0  0  0  0  0  0  0
   27.1507  -20.1788  -11.5072 C   0  0  0  0  0  0  0  0  0  0  0  0
   26.4303  -20.7372  -10.3632 C   0  0  0  0  0  0  0  0  0  0  0  0
   25.6255  -21.8199  -10.2044 C   0  0  0  0  0  0  0  0  0  0  0  0
   25.2098  -21.8668   -8.9092 N   0  0  0  0  0  0  0  0  0  0  0  0
   25.7349  -20.8337   -8.2393 C   0  0  0  0  0  0  0  0  0  0  0  0
   25.6479  -20.3999   -6.9191 C   0  0  0  0  0  0  0  0  0  0  0  0
   26.3042  -19.2700   -6.4650 C   0  0  0  0  0  0  0  0  0  0  0  0
   27.0724  -18.5465   -7.3505 C   0  0  0  0  0  0  0  0  0  0  0  0
   27.1538  -18.9824   -8.6568 C   0  0  0  0  0  0  0  0  0  0  0  0
   26.4955  -20.1144   -9.1091 C   0  0  0  0  0  0  0  0  0  0  0  0
   25.2533  -20.1651  -12.9687 C   0  0  0  0  0  0  0  0  0  0  0  0
   24.8993  -19.0199  -13.3155 O   0  0  0  0  0  0  0  0  0  0  0  0
   24.2699  -21.1255  -12.6696 N   0  0  0  0  0  0  0  0  0  0  0  0
   22.8621  -20.7336  -12.8283 C   0  0  1  0  0  0  0  0  0  0  0  0
   22.1970  -21.9888  -13.4111 C   0  0  0  0  0  0  0  0  0  0  0  0
   22.2085  -21.8753  -14.8885 C   0  0  0  0  0  0  0  0  0  0  0  0
   22.7378  -20.8020  -15.5702 C   0  0  0  0  0  0  0  0  0  0  0  0
   22.5646  -21.0583  -16.8801 N   0  0  0  0  0  0  0  0  0  0  0  0
   21.9512  -22.2427  -17.0572 C   0  0  0  0  0  0  0  0  0  0  0  0
   21.7420  -22.7268  -15.8160 N   0  0  0  0  0  0  0  0  0  0  0  0
   22.2743  -20.3135  -11.5620 C   0  0  0  0  0  0  0  0  0  0  0  0
   22.8384  -20.5915  -10.4816 O   0  0  0  0  0  0  0  0  0  0  0  0
   21.0930  -19.6063  -11.5414 O   0  0  0  0  0  0  0  0  0  0  0  0
  2  1  1  0
  3  2  1  0
  3  4  1  6
  5  6  2  0
  5  3  1  0
  7  5  1  0
  8  7  1  0
  8  9  1  1
 10 11  2  0
 10  9  1  0
 12 11  1  0
 13 18  2  0
 13 12  1  0
 14 13  1  0
 15 16  1  0
 15 14  2  0
 16 17  2  0
 17 18  1  0
 18 10  1  0
 19 21  1  0
 19  8  1  0
 20 19  2  0
 22 21  1  0
 22 29  1  0
 22 23  1  1
 24 23  1  0
 25 24  2  0
 26 27  1  0
 26 25  1  0
 27 28  2  0
 28 24  1  0
 29 31  1  0
 30 29  2  0
M  END
$$$$
