SWH.pdb
     RDKit          3D

 31 33  0  0  1  0  0  0  0  0999 V2000
   28.0521   -7.8593  -21.4638 O   0  0  0  0  0  0  0  0  0  0  0  0
   26.9675   -8.0712  -20.6298 C   0  0  0  0  0  0  0  0  0  0  0  0
   27.0151   -9.4767  -20.0186 C   0  0  2  0  0  0  0  0  0  0  0  0
   26.9484  -10.5013  -21.0125 N   0  0  0  0  0  0  0  0  0  0  0  0
   25.9147   -9.6474  -19.0465 C   0  0  0  0  0  0  0  0  0  0  0  0
   24.8160  -10.0868  -19.4580 O   0  0  0  0  0  0  0  0  0  0  0  0
   26.0406   -9.3376  -17.6672 N   0  0  0  0  0  0  0  0  0  0  0  0
   25.0117   -9.5681  -16.6744 C   0  0  1  0  0  0  0  0  0  0  0  0
   25.5250   -9.9725  -15.3468 C   0  0  0  0  0  0  0  0  0  0  0  0
   26.2105  -11.2617  -15.2585 C   0  0  0  0  0  0  0  0  0  0  0  0
   27.4735  -11.6263  -14.9164 C   0  0  0  0  0  0  0  0  0  0  0  0
   27.5773  -12.9799  -15.0152 N   0  0  0  0  0  0  0  0  0  0  0  0
   26.4035  -13.4848  -15.4141 C   0  0  0  0  0  0  0  0  0  0  0  0
   25.9506  -14.7756  -15.6734 C   0  0  0  0  0  0  0  0  0  0  0  0
   24.6565  -15.0387  -16.0854 C   0  0  0  0  0  0  0  0  0  0  0  0
   23.7828  -13.9857  -16.2452 C   0  0  0  0  0  0  0  0  0  0  0  0
   24.2387  -12.7097  -15.9864 C   0  0  0  0  0  0  0  0  0  0  0  0
   25.5353  -12.4489  -15.5740 C   0  0  0  0  0  0  0  0  0  0  0  0
   24.1639   -8.3618  -16.4821 C   0  0  0  0  0  0  0  0  0  0  0  0
   24.6430   -7.2217  -16.3153 O   0  0  0  0  0  0  0  0  0  0  0  0
   22.7665   -8.5237  -16.4908 N   0  0  0  0  0  0  0  0  0  0  0  0
   21.9383   -7.3144  -16.3789 C   0  0  1  0  0  0  0  0  0  0  0  0
   20.7390   -7.6074  -17.2918 C   0  0  0  0  0  0  0  0  0  0  0  0
   19.8020   -6.4627  -17.2070 C   0  0  0  0  0  0  0  0  0  0  0  0
   20.2042   -5.1495  -17.1036 C   0  0  0  0  0  0  0  0  0  0  0  0
   19.0815   -4.4091  -17.0506 N   0  0  0  0  0  0  0  0  0  0  0  0
   17.9898   -5.1929  -17.1158 C   0  0  0  0  0  0  0  0  0  0  0  0
   18.4593   -6.4535  -17.2115 N   0  0  0  0  0  0  0  0  0  0  0  0
   21.5520   -7.0524  -14.9978 C   0  0  0  0  0  0  0  0  0  0  0  0
   21.0534   -5.9508  -14.6803 O   0  0  0  0  0  0  0  0  0  0  0  0
   21.7311   -8.0138  -14.0285 O   0  0  0  0  0  0  0  0  0  0  0  0
  2  1  1  0
  3  2  1  0
  3  4  1  6
  5  6  2  0
  5  3  1  0
  7  5  1  0
  8  7  1  0
  8  9  1  1
 10 11  2  0
 10  9  1  0
 12 11  1  0
 13 18  2  0
 13 12  1  0
 14 13  1  0
 15 16  1  0
 15 14  2  0
 16 17  2  0
 17 18  1  0
 18 10  1  0
 19 21  1  0
 19  8  1  0
 20 19  2  0
 22 21  1  0
 22 29  1  0
 22 23  1  6
 24 23  1  0
 25 24  2  0
 26 27  1  0
 26 25  1  0
 27 28  2  0
 28 24  1  0
 29 31  1  0
 30 29  2  0
M  END
$$$$
