SWH.pdb
     RDKit          3D

 31 33  0  0  1  0  0  0  0  0999 V2000
   25.9024  -24.0011  -19.0002 O   0  0  0  0  0  0  0  0  0  0  0  0
   26.0103  -22.6234  -19.0850 C   0  0  0  0  0  0  0  0  0  0  0  0
   26.4506  -22.0266  -17.7429 C   0  0  2  0  0  0  0  0  0  0  0  0
   27.1938  -22.9583  -16.9544 N   0  0  0  0  0  0  0  0  0  0  0  0
   25.2732  -21.5535  -16.9847 C   0  0  0  0  0  0  0  0  0  0  0  0
   24.8639  -22.2446  -16.0232 O   0  0  0  0  0  0  0  0  0  0  0  0
   24.5815  -20.3529  -17.2919 N   0  0  0  0  0  0  0  0  0  0  0  0
   23.4032  -19.8801  -16.5950 C   0  0  1  0  0  0  0  0  0  0  0  0
   23.0970  -18.4494  -16.8161 C   0  0  0  0  0  0  0  0  0  0  0  0
   22.1344  -17.8231  -15.9101 C   0  0  0  0  0  0  0  0  0  0  0  0
   21.7715  -18.0616  -14.6231 C   0  0  0  0  0  0  0  0  0  0  0  0
   20.8067  -17.1685  -14.2705 N   0  0  0  0  0  0  0  0  0  0  0  0
   20.5479  -16.3651  -15.3094 C   0  0  0  0  0  0  0  0  0  0  0  0
   19.6737  -15.2994  -15.5061 C   0  0  0  0  0  0  0  0  0  0  0  0
   19.5955  -14.6162  -16.7065 C   0  0  0  0  0  0  0  0  0  0  0  0
   20.4122  -15.0033  -17.7461 C   0  0  0  0  0  0  0  0  0  0  0  0
   21.2757  -16.0600  -17.5436 C   0  0  0  0  0  0  0  0  0  0  0  0
   21.3520  -16.7426  -16.3406 C   0  0  0  0  0  0  0  0  0  0  0  0
   22.1979  -20.6636  -16.9749 C   0  0  0  0  0  0  0  0  0  0  0  0
   21.9902  -21.0567  -18.1408 O   0  0  0  0  0  0  0  0  0  0  0  0
   21.2605  -20.9686  -15.9713 N   0  0  0  0  0  0  0  0  0  0  0  0
   20.0331  -21.6702  -16.3739 C   0  0  1  0  0  0  0  0  0  0  0  0
   19.6021  -22.4121  -15.1006 C   0  0  0  0  0  0  0  0  0  0  0  0
   18.3923  -23.2077  -15.4153 C   0  0  0  0  0  0  0  0  0  0  0  0
   18.2823  -24.0331  -16.5124 C   0  0  0  0  0  0  0  0  0  0  0  0
   17.0528  -24.5781  -16.4586 N   0  0  0  0  0  0  0  0  0  0  0  0
   16.3819  -24.1359  -15.3795 C   0  0  0  0  0  0  0  0  0  0  0  0
   17.2276  -23.2929  -14.7526 N   0  0  0  0  0  0  0  0  0  0  0  0
   19.0196  -20.7439  -16.8639 C   0  0  0  0  0  0  0  0  0  0  0  0
   18.1949  -21.1108  -17.7288 O   0  0  0  0  0  0  0  0  0  0  0  0
   18.9587  -19.4561  -16.3802 O   0  0  0  0  0  0  0  0  0  0  0  0
  2  1  1  0
  3  2  1  0
  3  4  1  1
  5  6  2  0
  5  3  1  0
  7  5  1  0
  8  7  1  0
  8  9  1  6
 10 11  2  0
 10  9  1  0
 12 11  1  0
 13 18  2  0
 13 12  1  0
 14 13  1  0
 15 16  1  0
 15 14  2  0
 16 17  2  0
 17 18  1  0
 18 10  1  0
 19 21  1  0
 19  8  1  0
 20 19  2  0
 22 21  1  0
 22 29  1  0
 22 23  1  1
 24 23  1  0
 25 24  2  0
 26 27  1  0
 26 25  1  0
 27 28  2  0
 28 24  1  0
 29 31  1  0
 30 29  2  0
M  END
$$$$
