SWH.pdb
     RDKit          3D

 31 33  0  0  1  0  0  0  0  0999 V2000
   21.6718  -12.5429  -21.4504 O   0  0  0  0  0  0  0  0  0  0  0  0
   21.6633  -11.7293  -20.3302 C   0  0  0  0  0  0  0  0  0  0  0  0
   23.0925  -11.4275  -19.8639 C   0  0  2  0  0  0  0  0  0  0  0  0
   23.8041  -12.6119  -19.4994 N   0  0  0  0  0  0  0  0  0  0  0  0
   23.0688  -10.4851  -18.7252 C   0  0  0  0  0  0  0  0  0  0  0  0
   22.7393  -10.9187  -17.5969 O   0  0  0  0  0  0  0  0  0  0  0  0
   23.4011   -9.1106  -18.8463 N   0  0  0  0  0  0  0  0  0  0  0  0
   23.3572   -8.1542  -17.7596 C   0  0  1  0  0  0  0  0  0  0  0  0
   24.5062   -7.2226  -17.7205 C   0  0  0  0  0  0  0  0  0  0  0  0
   25.8383   -7.8086  -17.5736 C   0  0  0  0  0  0  0  0  0  0  0  0
   27.0329   -7.5754  -18.1768 C   0  0  0  0  0  0  0  0  0  0  0  0
   27.9573   -8.4277  -17.6554 N   0  0  0  0  0  0  0  0  0  0  0  0
   27.3738   -9.2000  -16.7308 C   0  0  0  0  0  0  0  0  0  0  0  0
   27.8326  -10.2198  -15.9013 C   0  0  0  0  0  0  0  0  0  0  0  0
   27.0059  -10.8784  -15.0088 C   0  0  0  0  0  0  0  0  0  0  0  0
   25.6798  -10.5125  -14.9370 C   0  0  0  0  0  0  0  0  0  0  0  0
   25.2325   -9.5013  -15.7619 C   0  0  0  0  0  0  0  0  0  0  0  0
   26.0624   -8.8434  -16.6549 C   0  0  0  0  0  0  0  0  0  0  0  0
   22.1155   -7.3376  -17.8061 C   0  0  0  0  0  0  0  0  0  0  0  0
   21.6414   -6.8930  -18.8712 O   0  0  0  0  0  0  0  0  0  0  0  0
   21.4564   -7.0616  -16.5943 N   0  0  0  0  0  0  0  0  0  0  0  0
   20.2402   -6.2378  -16.6507 C   0  0  1  0  0  0  0  0  0  0  0  0
   19.2347   -7.0112  -15.7859 C   0  0  0  0  0  0  0  0  0  0  0  0
   18.5789   -8.0307  -16.6381 C   0  0  0  0  0  0  0  0  0  0  0  0
   18.8318   -8.1821  -17.9835 C   0  0  0  0  0  0  0  0  0  0  0  0
   18.0560   -9.1975  -18.4061 N   0  0  0  0  0  0  0  0  0  0  0  0
   17.3255   -9.6940  -17.3911 C   0  0  0  0  0  0  0  0  0  0  0  0
   17.6649   -8.9590  -16.3126 N   0  0  0  0  0  0  0  0  0  0  0  0
   20.4841   -4.8841  -16.1675 C   0  0  0  0  0  0  0  0  0  0  0  0
   21.6034   -4.5706  -15.7073 O   0  0  0  0  0  0  0  0  0  0  0  0
   19.4862   -3.9364  -16.2128 O   0  0  0  0  0  0  0  0  0  0  0  0
  2  1  1  0
  3  2  1  0
  3  4  1  1
  5  6  2  0
  5  3  1  0
  7  5  1  0
  8  7  1  0
  8  9  1  6
 10 11  2  0
 10  9  1  0
 12 11  1  0
 13 18  2  0
 13 12  1  0
 14 13  1  0
 15 16  1  0
 15 14  2  0
 16 17  2  0
 17 18  1  0
 18 10  1  0
 19 21  1  0
 19  8  1  0
 20 19  2  0
 22 21  1  0
 22 29  1  0
 22 23  1  1
 24 23  1  0
 25 24  2  0
 26 27  1  0
 26 25  1  0
 27 28  2  0
 28 24  1  0
 29 31  1  0
 30 29  2  0
M  END
$$$$
