SWH.pdb
     RDKit          3D

 31 33  0  0  1  0  0  0  0  0999 V2000
   16.4247  -33.3927   -7.9101 O   0  0  0  0  0  0  0  0  0  0  0  0
   16.4319  -32.0133   -7.7914 C   0  0  0  0  0  0  0  0  0  0  0  0
   17.4161  -31.5638   -6.7050 C   0  0  2  0  0  0  0  0  0  0  0  0
   17.0626  -32.0647   -5.4142 N   0  0  0  0  0  0  0  0  0  0  0  0
   17.4945  -30.0882   -6.6671 C   0  0  0  0  0  0  0  0  0  0  0  0
   17.1577  -29.4982   -5.6144 O   0  0  0  0  0  0  0  0  0  0  0  0
   17.9331  -29.3043   -7.7660 N   0  0  0  0  0  0  0  0  0  0  0  0
   17.9387  -27.8563   -7.7941 C   0  0  1  0  0  0  0  0  0  0  0  0
   19.0201  -27.2666   -8.6142 C   0  0  0  0  0  0  0  0  0  0  0  0
   19.1193  -25.8075   -8.6419 C   0  0  0  0  0  0  0  0  0  0  0  0
   19.1691  -24.8562   -7.6735 C   0  0  0  0  0  0  0  0  0  0  0  0
   19.2523  -23.6345   -8.2677 N   0  0  0  0  0  0  0  0  0  0  0  0
   19.2565  -23.7895   -9.5972 C   0  0  0  0  0  0  0  0  0  0  0  0
   19.3233  -22.9024  -10.6683 C   0  0  0  0  0  0  0  0  0  0  0  0
   19.3099  -23.3269  -11.9849 C   0  0  0  0  0  0  0  0  0  0  0  0
   19.2276  -24.6768  -12.2472 C   0  0  0  0  0  0  0  0  0  0  0  0
   19.1618  -25.5496  -11.1809 C   0  0  0  0  0  0  0  0  0  0  0  0
   19.1752  -25.1218   -9.8633 C   0  0  0  0  0  0  0  0  0  0  0  0
   16.6467  -27.3189   -8.2969 C   0  0  0  0  0  0  0  0  0  0  0  0
   16.0665  -27.7869   -9.2975 O   0  0  0  0  0  0  0  0  0  0  0  0
   16.0636  -26.2393   -7.6087 N   0  0  0  0  0  0  0  0  0  0  0  0
   14.9270  -25.5580   -8.2449 C   0  0  1  0  0  0  0  0  0  0  0  0
   13.7103  -26.0644   -7.4572 C   0  0  0  0  0  0  0  0  0  0  0  0
   14.1042  -26.2035   -6.0356 C   0  0  0  0  0  0  0  0  0  0  0  0
   15.3732  -25.9502   -5.5640 C   0  0  0  0  0  0  0  0  0  0  0  0
   15.3423  -26.1848   -4.2390 N   0  0  0  0  0  0  0  0  0  0  0  0
   14.1139  -26.5739   -3.8522 C   0  0  0  0  0  0  0  0  0  0  0  0
   13.3689  -26.5779   -4.9763 N   0  0  0  0  0  0  0  0  0  0  0  0
   15.0731  -24.1082   -8.1972 C   0  0  0  0  0  0  0  0  0  0  0  0
   16.0766  -23.5927   -7.6585 O   0  0  0  0  0  0  0  0  0  0  0  0
   14.1094  -23.2911   -8.7444 O   0  0  0  0  0  0  0  0  0  0  0  0
  2  1  1  0
  3  2  1  0
  3  4  1  1
  5  6  2  0
  5  3  1  0
  7  5  1  0
  8  7  1  0
  8  9  1  6
 10 11  2  0
 10  9  1  0
 12 11  1  0
 13 18  2  0
 13 12  1  0
 14 13  1  0
 15 16  1  0
 15 14  2  0
 16 17  2  0
 17 18  1  0
 18 10  1  0
 19 21  1  0
 19  8  1  0
 20 19  2  0
 22 21  1  0
 22 29  1  0
 22 23  1  1
 24 23  1  0
 25 24  2  0
 26 27  1  0
 26 25  1  0
 27 28  2  0
 28 24  1  0
 29 31  1  0
 30 29  2  0
M  END
$$$$
