SWH.pdb
     RDKit          3D

 31 33  0  0  1  0  0  0  0  0999 V2000
   19.4608  -11.2859  -18.7660 O   0  0  0  0  0  0  0  0  0  0  0  0
   20.3867  -11.0805  -19.7748 C   0  0  0  0  0  0  0  0  0  0  0  0
   21.7889  -11.5066  -19.3238 C   0  0  2  0  0  0  0  0  0  0  0  0
   21.8133  -12.8458  -18.8257 N   0  0  0  0  0  0  0  0  0  0  0  0
   22.2970  -10.5776  -18.2925 C   0  0  0  0  0  0  0  0  0  0  0  0
   22.2680  -10.9409  -17.0938 O   0  0  0  0  0  0  0  0  0  0  0  0
   22.8169   -9.2915  -18.5925 N   0  0  0  0  0  0  0  0  0  0  0  0
   23.4258   -8.4032  -17.6242 C   0  0  1  0  0  0  0  0  0  0  0  0
   24.7955   -7.9663  -17.9743 C   0  0  0  0  0  0  0  0  0  0  0  0
   25.8172   -9.0052  -18.1025 C   0  0  0  0  0  0  0  0  0  0  0  0
   26.5152   -9.5037  -19.1558 C   0  0  0  0  0  0  0  0  0  0  0  0
   27.3458  -10.4825  -18.7032 N   0  0  0  0  0  0  0  0  0  0  0  0
   27.1900  -10.6171  -17.3806 C   0  0  0  0  0  0  0  0  0  0  0  0
   27.7698  -11.4458  -16.4237 C   0  0  0  0  0  0  0  0  0  0  0  0
   27.4262  -11.3865  -15.0849 C   0  0  0  0  0  0  0  0  0  0  0  0
   26.4756  -10.4743  -14.6825 C   0  0  0  0  0  0  0  0  0  0  0  0
   25.9056   -9.6567  -15.6362 C   0  0  0  0  0  0  0  0  0  0  0  0
   26.2514   -9.7181  -16.9763 C   0  0  0  0  0  0  0  0  0  0  0  0
   22.6024   -7.1828  -17.4152 C   0  0  0  0  0  0  0  0  0  0  0  0
   22.0361   -6.5841  -18.3521 O   0  0  0  0  0  0  0  0  0  0  0  0
   22.4627   -6.6923  -16.1041 N   0  0  0  0  0  0  0  0  0  0  0  0
   21.5257   -5.5806  -15.8873 C   0  0  1  0  0  0  0  0  0  0  0  0
   20.5991   -6.0954  -14.7765 C   0  0  0  0  0  0  0  0  0  0  0  0
   19.6500   -7.0623  -15.3764 C   0  0  0  0  0  0  0  0  0  0  0  0
   19.0317   -6.8748  -16.5927 C   0  0  0  0  0  0  0  0  0  0  0  0
   18.2531   -7.9538  -16.7959 N   0  0  0  0  0  0  0  0  0  0  0  0
   18.3510   -8.8133  -15.7654 C   0  0  0  0  0  0  0  0  0  0  0  0
   19.2171   -8.2423  -14.9037 N   0  0  0  0  0  0  0  0  0  0  0  0
   22.2224   -4.3525  -15.5241 C   0  0  0  0  0  0  0  0  0  0  0  0
   23.4715   -4.3058  -15.5459 O   0  0  0  0  0  0  0  0  0  0  0  0
   21.5138   -3.2314  -15.1540 O   0  0  0  0  0  0  0  0  0  0  0  0
  2  1  1  0
  3  2  1  0
  3  4  1  1
  5  6  2  0
  5  3  1  0
  7  5  1  0
  8  7  1  0
  8  9  1  6
 10 11  2  0
 10  9  1  0
 12 11  1  0
 13 18  2  0
 13 12  1  0
 14 13  1  0
 15 16  1  0
 15 14  2  0
 16 17  2  0
 17 18  1  0
 18 10  1  0
 19 21  1  0
 19  8  1  0
 20 19  2  0
 22 21  1  0
 22 29  1  0
 22 23  1  1
 24 23  1  0
 25 24  2  0
 26 27  1  0
 26 25  1  0
 27 28  2  0
 28 24  1  0
 29 31  1  0
 30 29  2  0
M  END
$$$$
