SWH.pdb
     RDKit          3D

 31 33  0  0  1  0  0  0  0  0999 V2000
   21.6522  -19.2049    9.3952 O   0  0  0  0  0  0  0  0  0  0  0  0
   21.3280  -18.6401    8.1734 C   0  0  0  0  0  0  0  0  0  0  0  0
   20.1097  -17.7183    8.3041 C   0  0  2  0  0  0  0  0  0  0  0  0
   19.8955  -17.2927    9.6513 N   0  0  0  0  0  0  0  0  0  0  0  0
   18.9000  -18.3967    7.7931 C   0  0  0  0  0  0  0  0  0  0  0  0
   17.9800  -18.6666    8.5996 O   0  0  0  0  0  0  0  0  0  0  0  0
   18.7280  -18.7588    6.4316 N   0  0  0  0  0  0  0  0  0  0  0  0
   17.4998  -19.2787    5.8668 C   0  0  1  0  0  0  0  0  0  0  0  0
   17.1288  -18.6846    4.5633 C   0  0  0  0  0  0  0  0  0  0  0  0
   17.1409  -17.2252    4.4651 C   0  0  0  0  0  0  0  0  0  0  0  0
   16.7086  -16.2306    5.2829 C   0  0  0  0  0  0  0  0  0  0  0  0
   16.9659  -15.0343    4.6867 N   0  0  0  0  0  0  0  0  0  0  0  0
   17.5545  -15.2483    3.5036 C   0  0  0  0  0  0  0  0  0  0  0  0
   18.0238  -14.4081    2.4975 C   0  0  0  0  0  0  0  0  0  0  0  0
   18.6074  -14.8912    1.3400 C   0  0  0  0  0  0  0  0  0  0  0  0
   18.7294  -16.2534    1.1757 C   0  0  0  0  0  0  0  0  0  0  0  0
   18.2620  -17.0795    2.1768 C   0  0  0  0  0  0  0  0  0  0  0  0
   17.6779  -16.5932    3.3350 C   0  0  0  0  0  0  0  0  0  0  0  0
   17.5669  -20.7532    5.6880 C   0  0  0  0  0  0  0  0  0  0  0  0
   18.6441  -21.3651    5.5386 O   0  0  0  0  0  0  0  0  0  0  0  0
   16.3613  -21.4780    5.6893 N   0  0  0  0  0  0  0  0  0  0  0  0
   16.4456  -22.9437    5.6146 C   0  0  1  0  0  0  0  0  0  0  0  0
   15.1178  -23.4174    6.2229 C   0  0  0  0  0  0  0  0  0  0  0  0
   15.3080  -23.5751    7.6839 C   0  0  0  0  0  0  0  0  0  0  0  0
   16.5185  -23.8691    8.2715 C   0  0  0  0  0  0  0  0  0  0  0  0
   16.2945  -23.9318    9.5971 N   0  0  0  0  0  0  0  0  0  0  0  0
   15.0000  -23.6912    9.8739 C   0  0  0  0  0  0  0  0  0  0  0  0
   14.4126  -23.4745    8.6795 N   0  0  0  0  0  0  0  0  0  0  0  0
   16.6401  -23.4025    4.2445 C   0  0  0  0  0  0  0  0  0  0  0  0
   17.2498  -24.4699    4.0173 O   0  0  0  0  0  0  0  0  0  0  0  0
   16.1548  -22.6669    3.1865 O   0  0  0  0  0  0  0  0  0  0  0  0
  2  1  1  0
  3  2  1  0
  3  4  1  1
  5  6  2  0
  5  3  1  0
  7  5  1  0
  8  7  1  0
  8  9  1  6
 10 11  2  0
 10  9  1  0
 12 11  1  0
 13 18  2  0
 13 12  1  0
 14 13  1  0
 15 16  1  0
 15 14  2  0
 16 17  2  0
 17 18  1  0
 18 10  1  0
 19 21  1  0
 19  8  1  0
 20 19  2  0
 22 21  1  0
 22 29  1  0
 22 23  1  6
 24 23  1  0
 25 24  2  0
 26 27  1  0
 26 25  1  0
 27 28  2  0
 28 24  1  0
 29 31  1  0
 30 29  2  0
M  END
$$$$
