SWH.pdb
     RDKit          3D

 31 33  0  0  1  0  0  0  0  0999 V2000
   26.3691  -21.8408  -18.1393 O   0  0  0  0  0  0  0  0  0  0  0  0
   27.5987  -21.2045  -18.1537 C   0  0  0  0  0  0  0  0  0  0  0  0
   28.5585  -21.8484  -17.1461 C   0  0  2  0  0  0  0  0  0  0  0  0
   29.0060  -23.1368  -17.5726 N   0  0  0  0  0  0  0  0  0  0  0  0
   27.9111  -21.9545  -15.8215 C   0  0  0  0  0  0  0  0  0  0  0  0
   27.4952  -23.0754  -15.4471 O   0  0  0  0  0  0  0  0  0  0  0  0
   27.7365  -20.8476  -14.9504 N   0  0  0  0  0  0  0  0  0  0  0  0
   27.1124  -20.9175  -13.6454 C   0  0  1  0  0  0  0  0  0  0  0  0
   27.5258  -19.8448  -12.7137 C   0  0  0  0  0  0  0  0  0  0  0  0
   27.0800  -19.9558  -11.3250 C   0  0  0  0  0  0  0  0  0  0  0  0
   25.9234  -19.6387  -10.6872 C   0  0  0  0  0  0  0  0  0  0  0  0
   26.0544  -19.9493   -9.3685 N   0  0  0  0  0  0  0  0  0  0  0  0
   27.2736  -20.4586   -9.1539 C   0  0  0  0  0  0  0  0  0  0  0  0
   27.9315  -20.9337   -8.0225 C   0  0  0  0  0  0  0  0  0  0  0  0
   29.2257  -21.4203   -8.0667 C   0  0  0  0  0  0  0  0  0  0  0  0
   29.8890  -21.4360   -9.2739 C   0  0  0  0  0  0  0  0  0  0  0  0
   29.2307  -20.9637  -10.3905 C   0  0  0  0  0  0  0  0  0  0  0  0
   27.9346  -20.4769  -10.3435 C   0  0  0  0  0  0  0  0  0  0  0  0
   25.6298  -20.8773  -13.7506 C   0  0  0  0  0  0  0  0  0  0  0  0
   25.0359  -20.2711  -14.6654 O   0  0  0  0  0  0  0  0  0  0  0  0
   24.8760  -21.5537  -12.7742 N   0  0  0  0  0  0  0  0  0  0  0  0
   23.4118  -21.5255  -12.9013 C   0  0  1  0  0  0  0  0  0  0  0  0
   22.9206  -22.2108  -11.6182 C   0  0  0  0  0  0  0  0  0  0  0  0
   21.4401  -22.2588  -11.6566 C   0  0  0  0  0  0  0  0  0  0  0  0
   20.6810  -21.6931  -12.6568 C   0  0  0  0  0  0  0  0  0  0  0  0
   19.3949  -21.9412  -12.3471 N   0  0  0  0  0  0  0  0  0  0  0  0
   19.3065  -22.6367  -11.1988 C   0  0  0  0  0  0  0  0  0  0  0  0
   20.5792  -22.8202  -10.7924 N   0  0  0  0  0  0  0  0  0  0  0  0
   22.9103  -20.1644  -13.0478 C   0  0  0  0  0  0  0  0  0  0  0  0
   23.4076  -19.2334  -12.3780 O   0  0  0  0  0  0  0  0  0  0  0  0
   21.8849  -19.8889  -13.9245 O   0  0  0  0  0  0  0  0  0  0  0  0
  2  1  1  0
  3  2  1  0
  3  4  1  6
  5  6  2  0
  5  3  1  0
  7  5  1  0
  8  7  1  0
  8  9  1  1
 10 11  2  0
 10  9  1  0
 12 11  1  0
 13 18  2  0
 13 12  1  0
 14 13  1  0
 15 16  1  0
 15 14  2  0
 16 17  2  0
 17 18  1  0
 18 10  1  0
 19 21  1  0
 19  8  1  0
 20 19  2  0
 22 21  1  0
 22 29  1  0
 22 23  1  1
 24 23  1  0
 25 24  2  0
 26 27  1  0
 26 25  1  0
 27 28  2  0
 28 24  1  0
 29 31  1  0
 30 29  2  0
M  END
$$$$
