SWH.pdb
     RDKit          3D

 31 33  0  0  1  0  0  0  0  0999 V2000
   30.6085  -13.5683  -22.3833 O   0  0  0  0  0  0  0  0  0  0  0  0
   29.6973  -13.8359  -21.3759 C   0  0  0  0  0  0  0  0  0  0  0  0
   29.8195  -12.8103  -20.2426 C   0  0  2  0  0  0  0  0  0  0  0  0
   31.0092  -12.9941  -19.4726 N   0  0  0  0  0  0  0  0  0  0  0  0
   28.6348  -12.8807  -19.3614 C   0  0  0  0  0  0  0  0  0  0  0  0
   28.6791  -13.6304  -18.3585 O   0  0  0  0  0  0  0  0  0  0  0  0
   27.4467  -12.1403  -19.5950 N   0  0  0  0  0  0  0  0  0  0  0  0
   26.3168  -12.0898  -18.6904 C   0  0  1  0  0  0  0  0  0  0  0  0
   26.1244  -10.7808  -18.0277 C   0  0  0  0  0  0  0  0  0  0  0  0
   27.1396   -9.7549  -18.2647 C   0  0  0  0  0  0  0  0  0  0  0  0
   27.1929   -8.6621  -19.0697 C   0  0  0  0  0  0  0  0  0  0  0  0
   28.3982   -8.0534  -18.8979 N   0  0  0  0  0  0  0  0  0  0  0  0
   29.1143   -8.7383  -17.9980 C   0  0  0  0  0  0  0  0  0  0  0  0
   30.3853   -8.5733  -17.4539 C   0  0  0  0  0  0  0  0  0  0  0  0
   30.9087   -9.4438  -16.5148 C   0  0  0  0  0  0  0  0  0  0  0  0
   30.1454  -10.5136  -16.1018 C   0  0  0  0  0  0  0  0  0  0  0  0
   28.8872  -10.6706  -16.6454 C   0  0  0  0  0  0  0  0  0  0  0  0
   28.3653   -9.7974  -17.5858 C   0  0  0  0  0  0  0  0  0  0  0  0
   25.0490  -12.4338  -19.3869 C   0  0  0  0  0  0  0  0  0  0  0  0
   24.8638  -12.2063  -20.5997 O   0  0  0  0  0  0  0  0  0  0  0  0
   24.0236  -13.0404  -18.6388 N   0  0  0  0  0  0  0  0  0  0  0  0
   22.7702  -13.3640  -19.3352 C   0  0  1  0  0  0  0  0  0  0  0  0
   22.3528  -14.7113  -18.7286 C   0  0  0  0  0  0  0  0  0  0  0  0
   22.9923  -15.7916  -19.5159 C   0  0  0  0  0  0  0  0  0  0  0  0
   23.8230  -15.5669  -20.5912 C   0  0  0  0  0  0  0  0  0  0  0  0
   24.2026  -16.7776  -21.0402 N   0  0  0  0  0  0  0  0  0  0  0  0
   23.6509  -17.7556  -20.2991 C   0  0  0  0  0  0  0  0  0  0  0  0
   22.9097  -17.1235  -19.3666 N   0  0  0  0  0  0  0  0  0  0  0  0
   21.7676  -12.3217  -19.1514 C   0  0  0  0  0  0  0  0  0  0  0  0
   21.7788  -11.6098  -18.1238 O   0  0  0  0  0  0  0  0  0  0  0  0
   20.7985  -12.1092  -20.1062 O   0  0  0  0  0  0  0  0  0  0  0  0
  2  1  1  0
  3  2  1  0
  3  4  1  1
  5  6  2  0
  5  3  1  0
  7  5  1  0
  8  7  1  0
  8  9  1  6
 10 11  2  0
 10  9  1  0
 12 11  1  0
 13 18  2  0
 13 12  1  0
 14 13  1  0
 15 16  1  0
 15 14  2  0
 16 17  2  0
 17 18  1  0
 18 10  1  0
 19 21  1  0
 19  8  1  0
 20 19  2  0
 22 21  1  0
 22 29  1  0
 22 23  1  1
 24 23  1  0
 25 24  2  0
 26 27  1  0
 26 25  1  0
 27 28  2  0
 28 24  1  0
 29 31  1  0
 30 29  2  0
M  END
$$$$
