TSM.pdb
     RDKit          3D

 22 21  0  0  1  0  0  0  0  0999 V2000
   17.8707  -14.2823  -14.9935 C   0  0  0  0  0  0  0  0  0  0  0  0
   18.5577  -12.9605  -15.2550 C   0  0  1  0  0  0  0  0  0  0  0  0
   19.8215  -13.1704  -15.7931 O   0  0  0  0  0  0  0  0  0  0  0  0
   17.7771  -12.1594  -16.3046 C   0  0  2  0  0  0  0  0  0  0  0  0
   17.8999  -12.9061  -17.5440 N   0  0  0  0  0  0  0  0  0  0  0  0
   18.3993  -10.8225  -16.4014 C   0  0  0  0  0  0  0  0  0  0  0  0
   19.4087  -10.7112  -17.1576 O   0  0  0  0  0  0  0  0  0  0  0  0
   17.3336   -7.4570  -13.8981 O   0  0  0  0  0  0  0  0  0  0  0  0
   17.6458   -7.2814  -15.2181 C   0  0  0  0  0  0  0  0  0  0  0  0
   18.4965   -8.3677  -15.8077 C   0  0  2  0  0  0  0  0  0  0  0  0
   17.9335   -9.6764  -15.7042 N   0  0  0  0  0  0  0  0  0  0  0  0
   19.8327   -8.3793  -15.1722 C   0  0  0  0  0  0  0  0  0  0  0  0
   20.1905   -9.2485  -14.3382 O   0  0  0  0  0  0  0  0  0  0  0  0
   26.5547  -10.0559  -14.6295 C   0  0  0  0  0  0  0  0  0  0  0  0
   24.9052   -9.8076  -15.2615 S   0  0  0  0  0  0  0  0  0  0  0  0
   24.4374   -8.1299  -15.6098 C   0  0  0  0  0  0  0  0  0  0  0  0
   22.9981   -7.9990  -15.9549 C   0  0  0  0  0  0  0  0  0  0  0  0
   22.1201   -7.3765  -14.9094 C   0  0  2  0  0  0  0  0  0  0  0  0
   20.7629   -7.3647  -15.5135 N   0  0  0  0  0  0  0  0  0  0  0  0
   22.5012   -5.9599  -14.6429 C   0  0  0  0  0  0  0  0  0  0  0  0
   22.1705   -5.0493  -15.4044 O   0  0  0  0  0  0  0  0  0  0  0  0
   23.2426   -5.6800  -13.5109 O   0  0  0  0  0  0  0  0  0  0  0  0
  2  1  1  6
  2  4  1  0
  3  2  1  0
  4  5  1  6
  6  4  1  0
  6 11  1  0
  7  6  2  0
  9  8  1  0
 10  9  1  1
 10 12  1  0
 11 10  1  0
 12 13  2  0
 12 19  1  0
 15 14  1  0
 16 15  1  0
 17 16  1  0
 18 17  1  6
 19 18  1  0
 20 18  1  0
 20 22  1  0
 21 20  2  0
M  END
$$$$
