TSM.pdb
     RDKit          3D

 22 21  0  0  1  0  0  0  0  0999 V2000
   25.7549  -24.1091  -18.2993 C   0  0  0  0  0  0  0  0  0  0  0  0
   25.6543  -23.2538  -17.0560 C   0  0  1  0  0  0  0  0  0  0  0  0
   25.7090  -24.0479  -15.9170 O   0  0  0  0  0  0  0  0  0  0  0  0
   26.8564  -22.3050  -16.9701 C   0  0  2  0  0  0  0  0  0  0  0  0
   28.0313  -23.1576  -16.9308 N   0  0  0  0  0  0  0  0  0  0  0  0
   26.7106  -21.5082  -15.7342 C   0  0  0  0  0  0  0  0  0  0  0  0
   27.7065  -21.4707  -14.9532 O   0  0  0  0  0  0  0  0  0  0  0  0
   23.0943  -19.3178  -14.5835 O   0  0  0  0  0  0  0  0  0  0  0  0
   24.3703  -18.8575  -14.4090 C   0  0  0  0  0  0  0  0  0  0  0  0
   25.4050  -19.9325  -14.2507 C   0  0  2  0  0  0  0  0  0  0  0  0
   25.5343  -20.7948  -15.3823 N   0  0  0  0  0  0  0  0  0  0  0  0
   25.1113  -20.7605  -13.0601 C   0  0  0  0  0  0  0  0  0  0  0  0
   24.4788  -21.8450  -13.1151 O   0  0  0  0  0  0  0  0  0  0  0  0
   27.4281  -18.6378   -7.1801 C   0  0  0  0  0  0  0  0  0  0  0  0
   26.9838  -20.3477   -6.9336 S   0  0  0  0  0  0  0  0  0  0  0  0
   25.8701  -21.0536   -8.1237 C   0  0  0  0  0  0  0  0  0  0  0  0
   26.0987  -20.5343   -9.4970 C   0  0  0  0  0  0  0  0  0  0  0  0
   25.2245  -21.1046  -10.5750 C   0  0  2  0  0  0  0  0  0  0  0  0
   25.5608  -20.3183  -11.7898 N   0  0  0  0  0  0  0  0  0  0  0  0
   23.7788  -20.8819  -10.2865 C   0  0  0  0  0  0  0  0  0  0  0  0
   23.1776  -19.9003  -10.7263 O   0  0  0  0  0  0  0  0  0  0  0  0
   23.1135  -21.8080   -9.5061 O   0  0  0  0  0  0  0  0  0  0  0  0
  2  1  1  6
  2  4  1  0
  3  2  1  0
  4  5  1  1
  6  4  1  0
  6 11  1  0
  7  6  2  0
  9  8  1  0
 10  9  1  6
 10 12  1  0
 11 10  1  0
 12 13  2  0
 12 19  1  0
 15 14  1  0
 16 15  1  0
 17 16  1  0
 18 17  1  1
 19 18  1  0
 20 18  1  0
 20 22  1  0
 21 20  2  0
M  END
$$$$
