TSM.pdb
     RDKit          3D

 22 21  0  0  1  0  0  0  0  0999 V2000
   26.8460  -11.3967  -15.1994 C   0  0  0  0  0  0  0  0  0  0  0  0
   26.9052  -11.9511  -16.6054 C   0  0  1  0  0  0  0  0  0  0  0  0
   27.7329  -13.0664  -16.6510 O   0  0  0  0  0  0  0  0  0  0  0  0
   25.5162  -12.4352  -17.0401 C   0  0  2  0  0  0  0  0  0  0  0  0
   25.7025  -13.0565  -18.3394 N   0  0  0  0  0  0  0  0  0  0  0  0
   24.6330  -11.2528  -17.1149 C   0  0  0  0  0  0  0  0  0  0  0  0
   24.9470  -10.3521  -17.9476 O   0  0  0  0  0  0  0  0  0  0  0  0
   20.3616   -9.1570  -15.8887 O   0  0  0  0  0  0  0  0  0  0  0  0
   21.2261  -10.2129  -15.7995 C   0  0  0  0  0  0  0  0  0  0  0  0
   22.5768   -9.9662  -16.4045 C   0  0  2  0  0  0  0  0  0  0  0  0
   23.4714  -11.0764  -16.3173 N   0  0  0  0  0  0  0  0  0  0  0  0
   23.2198   -8.7937  -15.7711 C   0  0  0  0  0  0  0  0  0  0  0  0
   23.8264   -8.8516  -14.6721 O   0  0  0  0  0  0  0  0  0  0  0  0
   26.1116   -1.7507  -17.9855 C   0  0  0  0  0  0  0  0  0  0  0  0
   25.2542   -3.2976  -18.2179 S   0  0  0  0  0  0  0  0  0  0  0  0
   24.8752   -4.2189  -16.7472 C   0  0  0  0  0  0  0  0  0  0  0  0
   24.2393   -5.5289  -17.0428 C   0  0  0  0  0  0  0  0  0  0  0  0
   23.8725   -6.3701  -15.8556 C   0  0  2  0  0  0  0  0  0  0  0  0
   23.1544   -7.5382  -16.4274 N   0  0  0  0  0  0  0  0  0  0  0  0
   22.9217   -5.6617  -14.9518 C   0  0  0  0  0  0  0  0  0  0  0  0
   23.3173   -5.0058  -13.9865 O   0  0  0  0  0  0  0  0  0  0  0  0
   21.5688   -5.7539  -15.2176 O   0  0  0  0  0  0  0  0  0  0  0  0
  2  1  1  1
  2  4  1  0
  3  2  1  0
  4  5  1  6
  6  4  1  0
  6 11  1  0
  7  6  2  0
  9  8  1  0
 10  9  1  1
 10 12  1  0
 11 10  1  0
 12 13  2  0
 12 19  1  0
 15 14  1  0
 16 15  1  0
 17 16  1  0
 18 17  1  6
 19 18  1  0
 20 18  1  0
 20 22  1  0
 21 20  2  0
M  END
$$$$
