TSM.pdb
     RDKit          3D

 22 21  0  0  1  0  0  0  0  0999 V2000
   26.1483  -22.9836  -14.2557 C   0  0  0  0  0  0  0  0  0  0  0  0
   26.8664  -21.8829  -15.0042 C   0  0  1  0  0  0  0  0  0  0  0  0
   27.2513  -22.3260  -16.2637 O   0  0  0  0  0  0  0  0  0  0  0  0
   25.9179  -20.7011  -15.2415 C   0  0  2  0  0  0  0  0  0  0  0  0
   26.6598  -19.7560  -16.0572 N   0  0  0  0  0  0  0  0  0  0  0  0
   25.5676  -20.1358  -13.9219 C   0  0  0  0  0  0  0  0  0  0  0  0
   26.4255  -19.3842  -13.3721 O   0  0  0  0  0  0  0  0  0  0  0  0
   21.9258  -21.1050  -11.7841 O   0  0  0  0  0  0  0  0  0  0  0  0
   22.5107  -19.8725  -11.6884 C   0  0  0  0  0  0  0  0  0  0  0  0
   23.9841  -19.8575  -11.9718 C   0  0  2  0  0  0  0  0  0  0  0  0
   24.3420  -20.3859  -13.2498 N   0  0  0  0  0  0  0  0  0  0  0  0
   24.7179  -20.6096  -10.9300 C   0  0  0  0  0  0  0  0  0  0  0  0
   24.9704  -21.8376  -11.0170 O   0  0  0  0  0  0  0  0  0  0  0  0
   29.0210  -19.3910   -4.3414 C   0  0  0  0  0  0  0  0  0  0  0  0
   28.0953  -18.8859   -5.7802 S   0  0  0  0  0  0  0  0  0  0  0  0
   27.1726  -20.1560   -6.6113 C   0  0  0  0  0  0  0  0  0  0  0  0
   26.5335  -19.6709   -7.8619 C   0  0  0  0  0  0  0  0  0  0  0  0
   25.7488  -20.6850   -8.6413 C   0  0  2  0  0  0  0  0  0  0  0  0
   25.1625  -19.9212   -9.7726 N   0  0  0  0  0  0  0  0  0  0  0  0
   24.6172  -21.2373   -7.8429 C   0  0  0  0  0  0  0  0  0  0  0  0
   23.4612  -20.8426   -8.0049 O   0  0  0  0  0  0  0  0  0  0  0  0
   24.8895  -22.2138   -6.9039 O   0  0  0  0  0  0  0  0  0  0  0  0
  2  1  1  6
  2  4  1  0
  3  2  1  0
  4  5  1  6
  6  4  1  0
  6 11  1  0
  7  6  2  0
  9  8  1  0
 10  9  1  1
 10 12  1  0
 11 10  1  0
 12 13  2  0
 12 19  1  0
 15 14  1  0
 16 15  1  0
 17 16  1  0
 18 17  1  1
 19 18  1  0
 20 18  1  0
 20 22  1  0
 21 20  2  0
M  END
$$$$
