TSM.pdb
     RDKit          3D

 22 21  0  0  1  0  0  0  0  0999 V2000
   27.1566  -18.3434  -15.3669 C   0  0  0  0  0  0  0  0  0  0  0  0
   27.5371  -19.4951  -16.2704 C   0  0  1  0  0  0  0  0  0  0  0  0
   28.7034  -19.1993  -16.9657 O   0  0  0  0  0  0  0  0  0  0  0  0
   27.8470  -20.7421  -15.4328 C   0  0  2  0  0  0  0  0  0  0  0  0
   28.2526  -21.7647  -16.3808 N   0  0  0  0  0  0  0  0  0  0  0  0
   26.6122  -21.1157  -14.7121 C   0  0  0  0  0  0  0  0  0  0  0  0
   25.6154  -21.4535  -15.4159 O   0  0  0  0  0  0  0  0  0  0  0  0
   25.8477  -20.4087  -10.4891 O   0  0  0  0  0  0  0  0  0  0  0  0
   25.5000  -21.5857  -11.0927 C   0  0  0  0  0  0  0  0  0  0  0  0
   25.3112  -21.4929  -12.5783 C   0  0  2  0  0  0  0  0  0  0  0  0
   26.4865  -21.1165  -13.2976 N   0  0  0  0  0  0  0  0  0  0  0  0
   24.2337  -20.5322  -12.9028 C   0  0  0  0  0  0  0  0  0  0  0  0
   24.4530  -19.3521  -13.2750 O   0  0  0  0  0  0  0  0  0  0  0  0
   19.8581  -18.3036  -18.1286 C   0  0  0  0  0  0  0  0  0  0  0  0
   21.0846  -19.1817  -17.1764 S   0  0  0  0  0  0  0  0  0  0  0  0
   20.8471  -19.2087  -15.4163 C   0  0  0  0  0  0  0  0  0  0  0  0
   21.9122  -19.9653  -14.7085 C   0  0  0  0  0  0  0  0  0  0  0  0
   21.7909  -20.0397  -13.2148 C   0  0  2  0  0  0  0  0  0  0  0  0
   22.8839  -20.9528  -12.7918 N   0  0  0  0  0  0  0  0  0  0  0  0
   20.5029  -20.6638  -12.7975 C   0  0  0  0  0  0  0  0  0  0  0  0
   20.3774  -21.8866  -12.7108 O   0  0  0  0  0  0  0  0  0  0  0  0
   19.4353  -19.8366  -12.5051 O   0  0  0  0  0  0  0  0  0  0  0  0
  2  1  1  1
  2  4  1  0
  3  2  1  0
  4  5  1  6
  6  4  1  0
  6 11  1  0
  7  6  2  0
  9  8  1  0
 10  9  1  1
 10 12  1  0
 11 10  1  0
 12 13  2  0
 12 19  1  0
 15 14  1  0
 16 15  1  0
 17 16  1  0
 18 17  1  6
 19 18  1  0
 20 18  1  0
 20 22  1  0
 21 20  2  0
M  END
$$$$
