TSM.pdb
     RDKit          3D

 22 21  0  0  1  0  0  0  0  0999 V2000
   18.7991  -13.5157  -15.7509 C   0  0  0  0  0  0  0  0  0  0  0  0
   19.2058  -12.0603  -15.6889 C   0  0  1  0  0  0  0  0  0  0  0  0
   20.5868  -11.9396  -15.7849 O   0  0  0  0  0  0  0  0  0  0  0  0
   18.6288  -11.3001  -16.8898 C   0  0  2  0  0  0  0  0  0  0  0  0
   19.2696  -11.8683  -18.0626 N   0  0  0  0  0  0  0  0  0  0  0  0
   18.9613   -9.8707  -16.7167 C   0  0  0  0  0  0  0  0  0  0  0  0
   19.9214   -9.4161  -17.4056 O   0  0  0  0  0  0  0  0  0  0  0  0
   17.0890   -7.3059  -13.7839 O   0  0  0  0  0  0  0  0  0  0  0  0
   17.4444   -6.8286  -15.0152 C   0  0  0  0  0  0  0  0  0  0  0  0
   18.5401   -7.5996  -15.6907 C   0  0  2  0  0  0  0  0  0  0  0  0
   18.2734   -8.9955  -15.8351 N   0  0  0  0  0  0  0  0  0  0  0  0
   19.8139   -7.4382  -14.9556 C   0  0  0  0  0  0  0  0  0  0  0  0
   20.1849   -8.2174  -14.0422 O   0  0  0  0  0  0  0  0  0  0  0  0
   25.4664   -7.8320  -18.5658 C   0  0  0  0  0  0  0  0  0  0  0  0
   24.7338   -6.5122  -17.6155 S   0  0  0  0  0  0  0  0  0  0  0  0
   23.7067   -6.9983  -16.2501 C   0  0  0  0  0  0  0  0  0  0  0  0
   22.9458   -5.8591  -15.6749 C   0  0  0  0  0  0  0  0  0  0  0  0
   21.9664   -6.1972  -14.5895 C   0  0  2  0  0  0  0  0  0  0  0  0
   20.6656   -6.3545  -15.2897 N   0  0  0  0  0  0  0  0  0  0  0  0
   21.8157   -5.0782  -13.6160 C   0  0  0  0  0  0  0  0  0  0  0  0
   22.7131   -4.7889  -12.8227 O   0  0  0  0  0  0  0  0  0  0  0  0
   20.6354   -4.3597  -13.6172 O   0  0  0  0  0  0  0  0  0  0  0  0
  2  1  1  6
  2  4  1  0
  3  2  1  0
  4  5  1  6
  6  4  1  0
  6 11  1  0
  7  6  2  0
  9  8  1  0
 10  9  1  1
 10 12  1  0
 11 10  1  0
 12 13  2  0
 12 19  1  0
 15 14  1  0
 16 15  1  0
 17 16  1  0
 18 17  1  6
 19 18  1  0
 20 18  1  0
 20 22  1  0
 21 20  2  0
M  END
$$$$
