TSM.pdb
     RDKit          3D

 22 21  0  0  1  0  0  0  0  0999 V2000
   18.9338  -11.8391  -14.7175 C   0  0  0  0  0  0  0  0  0  0  0  0
   18.4095  -11.9010  -16.1348 C   0  0  1  0  0  0  0  0  0  0  0  0
   17.8499  -13.1472  -16.3895 O   0  0  0  0  0  0  0  0  0  0  0  0
   17.2792  -10.8815  -16.3237 C   0  0  2  0  0  0  0  0  0  0  0  0
   16.7865  -11.0829  -17.6749 N   0  0  0  0  0  0  0  0  0  0  0  0
   17.8568   -9.5335  -16.1417 C   0  0  0  0  0  0  0  0  0  0  0  0
   18.8521   -9.2320  -16.8639 O   0  0  0  0  0  0  0  0  0  0  0  0
   15.7961   -6.1413  -14.8113 O   0  0  0  0  0  0  0  0  0  0  0  0
   17.0258   -6.3395  -14.2466 C   0  0  0  0  0  0  0  0  0  0  0  0
   17.9180   -7.2758  -15.0073 C   0  0  2  0  0  0  0  0  0  0  0  0
   17.3636   -8.5755  -15.2168 N   0  0  0  0  0  0  0  0  0  0  0  0
   19.2181   -7.4252  -14.3169 C   0  0  0  0  0  0  0  0  0  0  0  0
   19.3816   -8.1567  -13.3083 O   0  0  0  0  0  0  0  0  0  0  0  0
   26.3136   -9.6168  -15.5709 C   0  0  0  0  0  0  0  0  0  0  0  0
   24.6436   -9.1202  -15.9535 S   0  0  0  0  0  0  0  0  0  0  0  0
   23.8443   -8.0618  -14.7719 C   0  0  0  0  0  0  0  0  0  0  0  0
   22.4367   -7.7582  -15.1385 C   0  0  0  0  0  0  0  0  0  0  0  0
   21.6703   -6.9029  -14.1727 C   0  0  2  0  0  0  0  0  0  0  0  0
   20.3413   -6.7126  -14.8087 N   0  0  0  0  0  0  0  0  0  0  0  0
   22.2885   -5.5547  -14.0209 C   0  0  0  0  0  0  0  0  0  0  0  0
   21.9290   -4.5994  -14.7112 O   0  0  0  0  0  0  0  0  0  0  0  0
   23.2866   -5.3909  -13.0794 O   0  0  0  0  0  0  0  0  0  0  0  0
  2  1  1  1
  2  4  1  0
  3  2  1  0
  4  5  1  6
  6  4  1  0
  6 11  1  0
  7  6  2  0
  9  8  1  0
 10  9  1  1
 10 12  1  0
 11 10  1  0
 12 13  2  0
 12 19  1  0
 15 14  1  0
 16 15  1  0
 17 16  1  0
 18 17  1  6
 19 18  1  0
 20 18  1  0
 20 22  1  0
 21 20  2  0
M  END
$$$$
