TSM.pdb
     RDKit          3D

 22 21  0  0  1  0  0  0  0  0999 V2000
   26.6295  -32.8994   -9.7201 C   0  0  0  0  0  0  0  0  0  0  0  0
   26.2675  -33.5357   -8.3966 C   0  0  1  0  0  0  0  0  0  0  0  0
   26.7338  -32.7589   -7.3430 O   0  0  0  0  0  0  0  0  0  0  0  0
   24.7428  -33.5935   -8.2390 C   0  0  2  0  0  0  0  0  0  0  0  0
   24.2887  -32.2146   -8.2767 N   0  0  0  0  0  0  0  0  0  0  0  0
   24.4508  -34.2359   -6.9407 C   0  0  0  0  0  0  0  0  0  0  0  0
   23.8175  -33.5470   -6.0877 O   0  0  0  0  0  0  0  0  0  0  0  0
   26.2662  -37.8786   -5.5650 O   0  0  0  0  0  0  0  0  0  0  0  0
   24.9371  -37.6614   -5.3271 C   0  0  0  0  0  0  0  0  0  0  0  0
   24.5216  -36.2205   -5.3773 C   0  0  2  0  0  0  0  0  0  0  0  0
   24.8354  -35.5610   -6.6049 N   0  0  0  0  0  0  0  0  0  0  0  0
   25.1419  -35.4654   -4.2663 C   0  0  0  0  0  0  0  0  0  0  0  0
   25.5181  -34.2710   -4.3716 O   0  0  0  0  0  0  0  0  0  0  0  0
   23.3614  -31.6263    1.5156 C   0  0  0  0  0  0  0  0  0  0  0  0
   23.3826  -32.5362   -0.0185 S   0  0  0  0  0  0  0  0  0  0  0  0
   24.7338  -33.6661   -0.2477 C   0  0  0  0  0  0  0  0  0  0  0  0
   24.6716  -34.3722   -1.5536 C   0  0  0  0  0  0  0  0  0  0  0  0
   25.7920  -35.3271   -1.8444 C   0  0  2  0  0  0  0  0  0  0  0  0
   25.3257  -36.1111   -3.0171 N   0  0  0  0  0  0  0  0  0  0  0  0
   26.0027  -36.2864   -0.7228 C   0  0  0  0  0  0  0  0  0  0  0  0
   25.1433  -37.1127   -0.4113 O   0  0  0  0  0  0  0  0  0  0  0  0
   27.1955  -36.2333   -0.0270 O   0  0  0  0  0  0  0  0  0  0  0  0
  2  1  1  6
  2  4  1  0
  3  2  1  0
  4  5  1  1
  6  4  1  0
  6 11  1  0
  7  6  2  0
  9  8  1  0
 10  9  1  6
 10 12  1  0
 11 10  1  0
 12 13  2  0
 12 19  1  0
 15 14  1  0
 16 15  1  0
 17 16  1  0
 18 17  1  1
 19 18  1  0
 20 18  1  0
 20 22  1  0
 21 20  2  0
M  END
$$$$
