TSM.pdb
     RDKit          3D

 22 21  0  0  1  0  0  0  0  0999 V2000
   18.4369  -13.5095  -19.2049 C   0  0  0  0  0  0  0  0  0  0  0  0
   18.3093  -12.1581  -18.5379 C   0  0  1  0  0  0  0  0  0  0  0  0
   17.0360  -12.0006  -18.0040 O   0  0  0  0  0  0  0  0  0  0  0  0
   19.2807  -12.0603  -17.3549 C   0  0  2  0  0  0  0  0  0  0  0  0
   18.7783  -12.9838  -16.3531 N   0  0  0  0  0  0  0  0  0  0  0  0
   19.2635  -10.6626  -16.8756 C   0  0  0  0  0  0  0  0  0  0  0  0
   19.7098   -9.7785  -17.6645 O   0  0  0  0  0  0  0  0  0  0  0  0
   18.1666   -9.5662  -12.8769 O   0  0  0  0  0  0  0  0  0  0  0  0
   17.8427   -8.7373  -13.9153 C   0  0  0  0  0  0  0  0  0  0  0  0
   18.6874   -8.9154  -15.1425 C   0  0  2  0  0  0  0  0  0  0  0  0
   18.7813  -10.2652  -15.6004 N   0  0  0  0  0  0  0  0  0  0  0  0
   20.0553   -8.4030  -14.9065 C   0  0  0  0  0  0  0  0  0  0  0  0
   21.0316   -9.1466  -14.6358 O   0  0  0  0  0  0  0  0  0  0  0  0
   25.3358   -4.3237  -18.4455 C   0  0  0  0  0  0  0  0  0  0  0  0
   23.7794   -5.1377  -18.1342 S   0  0  0  0  0  0  0  0  0  0  0  0
   23.4053   -5.5033  -16.4367 C   0  0  0  0  0  0  0  0  0  0  0  0
   22.0852   -6.1657  -16.2735 C   0  0  0  0  0  0  0  0  0  0  0  0
   21.6722   -6.4818  -14.8659 C   0  0  2  0  0  0  0  0  0  0  0  0
   20.2875   -7.0063  -14.9871 N   0  0  0  0  0  0  0  0  0  0  0  0
   21.6113   -5.2547  -14.0214 C   0  0  0  0  0  0  0  0  0  0  0  0
   20.5726   -4.6015  -13.9077 O   0  0  0  0  0  0  0  0  0  0  0  0
   22.7557   -4.8551  -13.3581 O   0  0  0  0  0  0  0  0  0  0  0  0
  2  1  1  1
  2  4  1  0
  3  2  1  0
  4  5  1  1
  6  4  1  0
  6 11  1  0
  7  6  2  0
  9  8  1  0
 10  9  1  1
 10 12  1  0
 11 10  1  0
 12 13  2  0
 12 19  1  0
 15 14  1  0
 16 15  1  0
 17 16  1  0
 18 17  1  6
 19 18  1  0
 20 18  1  0
 20 22  1  0
 21 20  2  0
M  END
$$$$
