HWW.pdb
     RDKit          3D

 39 43  0  0  1  0  0  0  0  0999 V2000
   10.0635  -16.3121   18.2735 N   0  0  0  0  0  0  0  0  0  0  0  0
    9.4820  -17.1456   19.3051 C   0  0  1  0  0  0  0  0  0  0  0  0
   10.0031  -18.5421   19.0489 C   0  0  0  0  0  0  0  0  0  0  0  0
    9.0119  -19.2844   18.2319 C   0  0  0  0  0  0  0  0  0  0  0  0
    7.8052  -18.8354   17.7301 C   0  0  0  0  0  0  0  0  0  0  0  0
    7.1944  -19.8178   17.0458 N   0  0  0  0  0  0  0  0  0  0  0  0
    8.0049  -20.8844   17.1107 C   0  0  0  0  0  0  0  0  0  0  0  0
    9.1179  -20.5700   17.8325 N   0  0  0  0  0  0  0  0  0  0  0  0
    9.7807  -16.6588   20.6661 C   0  0  0  0  0  0  0  0  0  0  0  0
   10.5739  -15.6911   20.7958 O   0  0  0  0  0  0  0  0  0  0  0  0
    9.2332  -17.2074   21.8446 N   0  0  0  0  0  0  0  0  0  0  0  0
    9.3784  -16.6501   23.1776 C   0  0  1  0  0  0  0  0  0  0  0  0
    8.8018  -15.2847   23.3289 C   0  0  0  0  0  0  0  0  0  0  0  0
    7.7981  -15.1490   24.4063 C   0  0  0  0  0  0  0  0  0  0  0  0
    7.0760  -16.1086   25.0551 C   0  0  0  0  0  0  0  0  0  0  0  0
    6.2876  -15.5140   25.9484 N   0  0  0  0  0  0  0  0  0  0  0  0
    6.4520  -14.1847   25.9249 C   0  0  0  0  0  0  0  0  0  0  0  0
    5.8741  -13.1540   26.6431 C   0  0  0  0  0  0  0  0  0  0  0  0
    6.2370  -11.8464   26.4067 C   0  0  0  0  0  0  0  0  0  0  0  0
    7.1817  -11.6083   25.4438 C   0  0  0  0  0  0  0  0  0  0  0  0
    7.7678  -12.6326   24.7170 C   0  0  0  0  0  0  0  0  0  0  0  0
    7.3946  -13.9290   24.9651 C   0  0  0  0  0  0  0  0  0  0  0  0
    8.5840  -17.6006   24.0545 C   0  0  0  0  0  0  0  0  0  0  0  0
    7.3341  -17.3892   24.2390 O   0  0  0  0  0  0  0  0  0  0  0  0
    9.1564  -18.7171   24.6809 N   0  0  0  0  0  0  0  0  0  0  0  0
   10.4236  -18.5904   25.3918 C   0  0  1  0  0  0  0  0  0  0  0  0
   10.7549  -17.1653   25.6522 C   0  0  0  0  0  0  0  0  0  0  0  0
   10.6164  -16.8033   27.0627 C   0  0  0  0  0  0  0  0  0  0  0  0
   10.5908  -17.7260   28.1188 C   0  0  0  0  0  0  0  0  0  0  0  0
   10.4086  -17.0998   29.2840 N   0  0  0  0  0  0  0  0  0  0  0  0
   10.3124  -15.7695   29.0338 C   0  0  0  0  0  0  0  0  0  0  0  0
   10.1408  -14.7260   29.9106 C   0  0  0  0  0  0  0  0  0  0  0  0
   10.0947  -13.4349   29.4172 C   0  0  0  0  0  0  0  0  0  0  0  0
   10.2218  -13.2405   28.0652 C   0  0  0  0  0  0  0  0  0  0  0  0
   10.3918  -14.2783   27.1908 C   0  0  0  0  0  0  0  0  0  0  0  0
   10.4396  -15.5858   27.6747 C   0  0  0  0  0  0  0  0  0  0  0  0
   10.4816  -19.4848   26.5344 C   0  0  0  0  0  0  0  0  0  0  0  0
   11.6962  -19.6666   27.2132 O   0  0  0  0  0  0  0  0  0  0  0  0
    9.5004  -20.1189   26.9632 O   0  0  0  0  0  0  0  0  0  0  0  0
  2  9  1  0
  2  1  1  6
  2  3  1  0
  3  4  1  0
  4  8  1  0
  4  5  2  0
  5  6  1  0
  7  6  1  0
  8  7  2  0
  9 10  2  0
 11 12  1  0
 11  9  1  0
 12 23  1  0
 12 13  1  6
 14 13  1  0
 14 22  1  0
 15 16  1  0
 15 14  2  0
 16 17  1  0
 17 18  2  0
 17 22  1  0
 18 19  1  0
 19 20  2  0
 21 20  1  0
 22 21  2  0
 23 25  1  0
 23 24  2  0
 25 26  1  0
 26 37  1  0
 26 27  1  1
 27 28  1  0
 28 36  1  0
 29 30  1  0
 29 28  2  0
 30 31  1  0
 31 36  2  0
 31 32  1  0
 32 33  2  0
 33 34  1  0
 35 34  2  0
 36 35  1  0
 37 38  1  0
 39 37  2  0
M  END
$$$$
