HWW.pdb
     RDKit          3D

 39 43  0  0  1  0  0  0  0  0999 V2000
    9.6200  -16.6489   19.0576 N   0  0  0  0  0  0  0  0  0  0  0  0
   10.6582  -17.1819   19.9152 C   0  0  1  0  0  0  0  0  0  0  0  0
   11.9620  -16.6514   19.3620 C   0  0  0  0  0  0  0  0  0  0  0  0
   12.1373  -17.1521   17.9765 C   0  0  0  0  0  0  0  0  0  0  0  0
   12.1694  -18.4611   17.5349 C   0  0  0  0  0  0  0  0  0  0  0  0
   12.3556  -18.4961   16.2043 N   0  0  0  0  0  0  0  0  0  0  0  0
   12.4416  -17.2200   15.8007 C   0  0  0  0  0  0  0  0  0  0  0  0
   12.3093  -16.3906   16.8747 N   0  0  0  0  0  0  0  0  0  0  0  0
   10.4532  -16.8412   21.3366 C   0  0  0  0  0  0  0  0  0  0  0  0
   10.8753  -15.7321   21.7539 O   0  0  0  0  0  0  0  0  0  0  0  0
    9.8096  -17.6800   22.2702 N   0  0  0  0  0  0  0  0  0  0  0  0
    9.5170  -17.3336   23.6498 C   0  0  1  0  0  0  0  0  0  0  0  0
    8.0684  -17.1224   23.9266 C   0  0  0  0  0  0  0  0  0  0  0  0
    7.5424  -15.8027   23.5163 C   0  0  0  0  0  0  0  0  0  0  0  0
    7.1831  -15.3504   22.2795 C   0  0  0  0  0  0  0  0  0  0  0  0
    6.7711  -14.0892   22.3930 N   0  0  0  0  0  0  0  0  0  0  0  0
    6.8405  -13.6736   23.6646 C   0  0  0  0  0  0  0  0  0  0  0  0
    6.5346  -12.4728   24.2784 C   0  0  0  0  0  0  0  0  0  0  0  0
    6.7084  -12.3159   25.6357 C   0  0  0  0  0  0  0  0  0  0  0  0
    7.1903  -13.3828   26.3470 C   0  0  0  0  0  0  0  0  0  0  0  0
    7.5008  -14.5912   25.7434 C   0  0  0  0  0  0  0  0  0  0  0  0
    7.3220  -14.7302   24.3905 C   0  0  0  0  0  0  0  0  0  0  0  0
    9.9774  -18.5497   24.4325 C   0  0  0  0  0  0  0  0  0  0  0  0
    9.1045  -19.3504   24.9204 O   0  0  0  0  0  0  0  0  0  0  0  0
   11.3303  -18.8477   24.6504 N   0  0  0  0  0  0  0  0  0  0  0  0
   11.9284  -18.6267   25.9622 C   0  0  1  0  0  0  0  0  0  0  0  0
   11.8523  -17.1954   26.3546 C   0  0  0  0  0  0  0  0  0  0  0  0
   11.0861  -16.9879   27.5832 C   0  0  0  0  0  0  0  0  0  0  0  0
   10.7969  -17.9945   28.5163 C   0  0  0  0  0  0  0  0  0  0  0  0
   10.0444  -17.5119   29.5083 N   0  0  0  0  0  0  0  0  0  0  0  0
    9.8214  -16.1961   29.2625 C   0  0  0  0  0  0  0  0  0  0  0  0
    9.1213  -15.2756   30.0039 C   0  0  0  0  0  0  0  0  0  0  0  0
    9.0497  -13.9685   29.5577 C   0  0  0  0  0  0  0  0  0  0  0  0
    9.6818  -13.6358   28.3865 C   0  0  0  0  0  0  0  0  0  0  0  0
   10.3783  -14.5512   27.6468 C   0  0  0  0  0  0  0  0  0  0  0  0
   10.4583  -15.8732   28.0848 C   0  0  0  0  0  0  0  0  0  0  0  0
   11.4414  -19.5886   26.9351 C   0  0  0  0  0  0  0  0  0  0  0  0
   10.0625  -19.7012   27.1701 O   0  0  0  0  0  0  0  0  0  0  0  0
   12.1845  -20.3394   27.5928 O   0  0  0  0  0  0  0  0  0  0  0  0
  2  9  1  0
  2  1  1  6
  2  3  1  0
  3  4  1  0
  4  8  1  0
  4  5  2  0
  5  6  1  0
  7  6  1  0
  8  7  2  0
  9 10  2  0
 11 12  1  0
 11  9  1  0
 12 23  1  0
 12 13  1  6
 14 13  1  0
 14 22  1  0
 15 16  1  0
 15 14  2  0
 16 17  1  0
 17 18  2  0
 17 22  1  0
 18 19  1  0
 19 20  2  0
 21 20  1  0
 22 21  2  0
 23 25  1  0
 23 24  2  0
 25 26  1  0
 26 37  1  0
 26 27  1  1
 27 28  1  0
 28 36  1  0
 29 30  1  0
 29 28  2  0
 30 31  1  0
 31 36  2  0
 31 32  1  0
 32 33  2  0
 33 34  1  0
 35 34  2  0
 36 35  1  0
 37 38  1  0
 39 37  2  0
M  END
$$$$
