HWW.pdb
     RDKit          3D

 39 43  0  0  1  0  0  0  0  0999 V2000
    9.3937  -17.8669   20.6469 N   0  0  0  0  0  0  0  0  0  0  0  0
    9.8456  -16.4914   20.6153 C   0  0  1  0  0  0  0  0  0  0  0  0
    8.9577  -15.7890   19.6125 C   0  0  0  0  0  0  0  0  0  0  0  0
    9.0426  -16.4991   18.3127 C   0  0  0  0  0  0  0  0  0  0  0  0
    9.9779  -16.3405   17.3078 C   0  0  0  0  0  0  0  0  0  0  0  0
    9.7018  -17.1666   16.2842 N   0  0  0  0  0  0  0  0  0  0  0  0
    8.5996  -17.8462   16.6333 C   0  0  0  0  0  0  0  0  0  0  0  0
    8.1884  -17.4469   17.8703 N   0  0  0  0  0  0  0  0  0  0  0  0
    9.8276  -15.8555   21.9471 C   0  0  0  0  0  0  0  0  0  0  0  0
   10.1974  -14.6570   22.0440 O   0  0  0  0  0  0  0  0  0  0  0  0
    9.4197  -16.5032   23.1318 N   0  0  0  0  0  0  0  0  0  0  0  0
    9.4028  -15.9040   24.4545 C   0  0  1  0  0  0  0  0  0  0  0  0
    8.1623  -16.1847   25.2303 C   0  0  0  0  0  0  0  0  0  0  0  0
    7.0062  -15.3295   24.8862 C   0  0  0  0  0  0  0  0  0  0  0  0
    5.8818  -15.6249   24.1707 C   0  0  0  0  0  0  0  0  0  0  0  0
    5.1187  -14.5352   24.1118 N   0  0  0  0  0  0  0  0  0  0  0  0
    5.6896  -13.5131   24.7628 C   0  0  0  0  0  0  0  0  0  0  0  0
    5.3016  -12.2036   24.9799 C   0  0  0  0  0  0  0  0  0  0  0  0
    6.1030  -11.3463   25.7011 C   0  0  0  0  0  0  0  0  0  0  0  0
    7.2858  -11.8345   26.1899 C   0  0  0  0  0  0  0  0  0  0  0  0
    7.6859  -13.1445   25.9787 C   0  0  0  0  0  0  0  0  0  0  0  0
    6.8759  -13.9849   25.2581 C   0  0  0  0  0  0  0  0  0  0  0  0
   10.5678  -16.5674   25.1659 C   0  0  0  0  0  0  0  0  0  0  0  0
   10.4549  -16.8755   26.4042 O   0  0  0  0  0  0  0  0  0  0  0  0
   11.7795  -16.8673   24.5268 N   0  0  0  0  0  0  0  0  0  0  0  0
   13.0181  -16.9308   25.2944 C   0  0  1  0  0  0  0  0  0  0  0  0
   12.8543  -17.7654   26.5131 C   0  0  0  0  0  0  0  0  0  0  0  0
   11.6649  -17.4073   27.2855 C   0  0  0  0  0  0  0  0  0  0  0  0
   10.5243  -18.2150   27.4044 C   0  0  0  0  0  0  0  0  0  0  0  0
    9.5894  -17.6014   28.1340 N   0  0  0  0  0  0  0  0  0  0  0  0
   10.0790  -16.3935   28.5118 C   0  0  0  0  0  0  0  0  0  0  0  0
    9.4966  -15.4175   29.2833 C   0  0  0  0  0  0  0  0  0  0  0  0
   10.2087  -14.2641   29.5575 C   0  0  0  0  0  0  0  0  0  0  0  0
   11.4756  -14.1342   29.0476 C   0  0  0  0  0  0  0  0  0  0  0  0
   12.0565  -15.1045   28.2786 C   0  0  0  0  0  0  0  0  0  0  0  0
   11.3495  -16.2727   27.9937 C   0  0  0  0  0  0  0  0  0  0  0  0
   14.1523  -17.2467   24.4444 C   0  0  0  0  0  0  0  0  0  0  0  0
   13.9589  -17.4244   23.0659 O   0  0  0  0  0  0  0  0  0  0  0  0
   15.3156  -17.3747   24.8675 O   0  0  0  0  0  0  0  0  0  0  0  0
  2  9  1  0
  2  1  1  1
  2  3  1  0
  3  4  1  0
  4  8  1  0
  4  5  2  0
  5  6  1  0
  7  6  1  0
  8  7  2  0
  9 10  2  0
 11 12  1  0
 11  9  1  0
 12 23  1  0
 12 13  1  1
 14 13  1  0
 14 22  1  0
 15 16  1  0
 15 14  2  0
 16 17  1  0
 17 18  2  0
 17 22  1  0
 18 19  1  0
 19 20  2  0
 21 20  1  0
 22 21  2  0
 23 25  1  0
 23 24  2  0
 25 26  1  0
 26 37  1  0
 26 27  1  1
 27 28  1  0
 28 36  1  0
 29 30  1  0
 29 28  2  0
 30 31  1  0
 31 36  2  0
 31 32  1  0
 32 33  2  0
 33 34  1  0
 35 34  2  0
 36 35  1  0
 37 38  1  0
 39 37  2  0
M  END
$$$$
