HWW.pdb
     RDKit          3D

 39 43  0  0  1  0  0  0  0  0999 V2000
   10.0885  -18.4351   18.6784 N   0  0  0  0  0  0  0  0  0  0  0  0
   10.7868  -17.2197   19.0424 C   0  0  1  0  0  0  0  0  0  0  0  0
   10.6191  -16.2810   17.8685 C   0  0  0  0  0  0  0  0  0  0  0  0
   10.6325  -17.0715   16.6131 C   0  0  0  0  0  0  0  0  0  0  0  0
   11.7226  -17.5605   15.9188 C   0  0  0  0  0  0  0  0  0  0  0  0
   11.3140  -18.2210   14.8218 N   0  0  0  0  0  0  0  0  0  0  0  0
    9.9746  -18.1537   14.8167 C   0  0  0  0  0  0  0  0  0  0  0  0
    9.5475  -17.4542   15.9062 N   0  0  0  0  0  0  0  0  0  0  0  0
   10.3052  -16.6455   20.3139 C   0  0  0  0  0  0  0  0  0  0  0  0
   10.9083  -15.6483   20.7877 O   0  0  0  0  0  0  0  0  0  0  0  0
    9.2039  -17.1405   21.0431 N   0  0  0  0  0  0  0  0  0  0  0  0
    8.7540  -16.6397   22.3297 C   0  0  1  0  0  0  0  0  0  0  0  0
    7.2918  -16.8021   22.5647 C   0  0  0  0  0  0  0  0  0  0  0  0
    6.8325  -16.4185   23.9169 C   0  0  0  0  0  0  0  0  0  0  0  0
    6.2716  -17.1822   24.8996 C   0  0  0  0  0  0  0  0  0  0  0  0
    6.0127  -16.4016   25.9468 N   0  0  0  0  0  0  0  0  0  0  0  0
    6.3789  -15.1360   25.7051 C   0  0  0  0  0  0  0  0  0  0  0  0
    6.3157  -13.9792   26.4601 C   0  0  0  0  0  0  0  0  0  0  0  0
    6.7738  -12.7844   25.9504 C   0  0  0  0  0  0  0  0  0  0  0  0
    7.2888  -12.7853   24.6811 C   0  0  0  0  0  0  0  0  0  0  0  0
    7.3572  -13.9377   23.9142 C   0  0  0  0  0  0  0  0  0  0  0  0
    6.8963  -15.1191   24.4373 C   0  0  0  0  0  0  0  0  0  0  0  0
    9.4949  -17.5050   23.3327 C   0  0  0  0  0  0  0  0  0  0  0  0
    9.5745  -18.7681   23.1351 O   0  0  0  0  0  0  0  0  0  0  0  0
   10.1083  -16.9843   24.4813 N   0  0  0  0  0  0  0  0  0  0  0  0
   10.8719  -17.8575   25.3654 C   0  0  1  0  0  0  0  0  0  0  0  0
   11.8993  -17.0942   26.1206 C   0  0  0  0  0  0  0  0  0  0  0  0
   11.3240  -16.2881   27.1970 C   0  0  0  0  0  0  0  0  0  0  0  0
   10.9387  -16.7943   28.4472 C   0  0  0  0  0  0  0  0  0  0  0  0
   10.4072  -15.8284   29.2005 N   0  0  0  0  0  0  0  0  0  0  0  0
   10.4281  -14.6776   28.4817 C   0  0  0  0  0  0  0  0  0  0  0  0
   10.0090  -13.4184   28.8366 C   0  0  0  0  0  0  0  0  0  0  0  0
   10.1545  -12.3824   27.9321 C   0  0  0  0  0  0  0  0  0  0  0  0
   10.7135  -12.6491   26.7080 C   0  0  0  0  0  0  0  0  0  0  0  0
   11.1303  -13.9023   26.3528 C   0  0  0  0  0  0  0  0  0  0  0  0
   10.9891  -14.9566   27.2551 C   0  0  0  0  0  0  0  0  0  0  0  0
    9.9981  -18.7122   26.1495 C   0  0  0  0  0  0  0  0  0  0  0  0
   10.5242  -19.8474   26.7848 O   0  0  0  0  0  0  0  0  0  0  0  0
    8.7810  -18.5005   26.2994 O   0  0  0  0  0  0  0  0  0  0  0  0
  2  9  1  0
  2  1  1  6
  2  3  1  0
  3  4  1  0
  4  8  1  0
  4  5  2  0
  5  6  1  0
  7  6  1  0
  8  7  2  0
  9 10  2  0
 11 12  1  0
 11  9  1  0
 12 23  1  0
 12 13  1  6
 14 13  1  0
 14 22  1  0
 15 16  1  0
 15 14  2  0
 16 17  1  0
 17 18  2  0
 17 22  1  0
 18 19  1  0
 19 20  2  0
 21 20  1  0
 22 21  2  0
 23 25  1  0
 23 24  2  0
 25 26  1  0
 26 37  1  0
 26 27  1  1
 27 28  1  0
 28 36  1  0
 29 30  1  0
 29 28  2  0
 30 31  1  0
 31 36  2  0
 31 32  1  0
 32 33  2  0
 33 34  1  0
 35 34  2  0
 36 35  1  0
 37 38  1  0
 39 37  2  0
M  END
$$$$
