HWW.pdb
     RDKit          3D

 39 43  0  0  1  0  0  0  0  0999 V2000
   10.0240  -18.2638   20.5365 N   0  0  0  0  0  0  0  0  0  0  0  0
   10.5648  -16.9283   20.3917 C   0  0  1  0  0  0  0  0  0  0  0  0
    9.9052  -16.3480   19.1606 C   0  0  0  0  0  0  0  0  0  0  0  0
   10.2460  -17.1908   17.9882 C   0  0  0  0  0  0  0  0  0  0  0  0
   11.4885  -17.6486   17.5929 C   0  0  0  0  0  0  0  0  0  0  0  0
   11.3768  -18.3782   16.4696 N   0  0  0  0  0  0  0  0  0  0  0  0
   10.0740  -18.3855   16.1513 C   0  0  0  0  0  0  0  0  0  0  0  0
    9.3740  -17.6636   17.0720 N   0  0  0  0  0  0  0  0  0  0  0  0
   10.3669  -16.1000   21.5972 C   0  0  0  0  0  0  0  0  0  0  0  0
   10.7832  -14.9131   21.5838 O   0  0  0  0  0  0  0  0  0  0  0  0
    9.7362  -16.5499   22.7759 N   0  0  0  0  0  0  0  0  0  0  0  0
    9.5054  -15.7480   23.9644 C   0  0  1  0  0  0  0  0  0  0  0  0
    8.1650  -15.9527   24.5816 C   0  0  0  0  0  0  0  0  0  0  0  0
    7.1489  -14.9441   24.2116 C   0  0  0  0  0  0  0  0  0  0  0  0
    6.2875  -14.9178   23.1530 C   0  0  0  0  0  0  0  0  0  0  0  0
    5.5605  -13.8046   23.2261 N   0  0  0  0  0  0  0  0  0  0  0  0
    5.9018  -13.0771   24.2979 C   0  0  0  0  0  0  0  0  0  0  0  0
    5.4498  -11.8689   24.7959 C   0  0  0  0  0  0  0  0  0  0  0  0
    5.9932  -11.3376   25.9447 C   0  0  0  0  0  0  0  0  0  0  0  0
    6.9875  -12.0437   26.5685 C   0  0  0  0  0  0  0  0  0  0  0  0
    7.4495  -13.2554   26.0792 C   0  0  0  0  0  0  0  0  0  0  0  0
    6.8974  -13.7699   24.9338 C   0  0  0  0  0  0  0  0  0  0  0  0
   10.5578  -16.2396   24.9413 C   0  0  0  0  0  0  0  0  0  0  0  0
   10.4069  -16.0148   26.1933 O   0  0  0  0  0  0  0  0  0  0  0  0
   11.7035  -16.9404   24.5376 N   0  0  0  0  0  0  0  0  0  0  0  0
   12.6422  -17.4473   25.5322 C   0  0  1  0  0  0  0  0  0  0  0  0
   11.9871  -18.4207   26.4443 C   0  0  0  0  0  0  0  0  0  0  0  0
   10.9129  -17.8183   27.2336 C   0  0  0  0  0  0  0  0  0  0  0  0
    9.6908  -18.4454   27.5176 C   0  0  0  0  0  0  0  0  0  0  0  0
    8.8977  -17.6309   28.2181 N   0  0  0  0  0  0  0  0  0  0  0  0
    9.5634  -16.4647   28.4139 C   0  0  0  0  0  0  0  0  0  0  0  0
    9.1682  -15.3364   29.0904 C   0  0  0  0  0  0  0  0  0  0  0  0
   10.0393  -14.2658   29.1776 C   0  0  0  0  0  0  0  0  0  0  0  0
   11.2715  -14.3681   28.5831 C   0  0  0  0  0  0  0  0  0  0  0  0
   11.6662  -15.4903   27.9084 C   0  0  0  0  0  0  0  0  0  0  0  0
   10.7973  -16.5774   27.8123 C   0  0  0  0  0  0  0  0  0  0  0  0
   13.8854  -17.8766   24.9166 C   0  0  0  0  0  0  0  0  0  0  0  0
   14.9306  -18.3539   25.7220 O   0  0  0  0  0  0  0  0  0  0  0  0
   14.0922  -17.8483   23.6898 O   0  0  0  0  0  0  0  0  0  0  0  0
  2  9  1  0
  2  1  1  1
  2  3  1  0
  3  4  1  0
  4  8  1  0
  4  5  2  0
  5  6  1  0
  7  6  1  0
  8  7  2  0
  9 10  2  0
 11 12  1  0
 11  9  1  0
 12 23  1  0
 12 13  1  1
 14 13  1  0
 14 22  1  0
 15 16  1  0
 15 14  2  0
 16 17  1  0
 17 18  2  0
 17 22  1  0
 18 19  1  0
 19 20  2  0
 21 20  1  0
 22 21  2  0
 23 25  1  0
 23 24  2  0
 25 26  1  0
 26 37  1  0
 26 27  1  6
 27 28  1  0
 28 36  1  0
 29 30  1  0
 29 28  2  0
 30 31  1  0
 31 36  2  0
 31 32  1  0
 32 33  2  0
 33 34  1  0
 35 34  2  0
 36 35  1  0
 37 38  1  0
 39 37  2  0
M  END
$$$$
