HWW.pdb
     RDKit          3D

 39 43  0  0  1  0  0  0  0  0999 V2000
   10.8285  -18.1934   18.9819 N   0  0  0  0  0  0  0  0  0  0  0  0
   11.7368  -17.4025   19.7860 C   0  0  1  0  0  0  0  0  0  0  0  0
   12.2280  -16.2937   18.8823 C   0  0  0  0  0  0  0  0  0  0  0  0
   11.6505  -16.4831   17.5290 C   0  0  0  0  0  0  0  0  0  0  0  0
   10.3208  -16.6040   17.1728 C   0  0  0  0  0  0  0  0  0  0  0  0
   10.2112  -16.7710   15.8437 N   0  0  0  0  0  0  0  0  0  0  0  0
   11.4605  -16.7567   15.3564 C   0  0  0  0  0  0  0  0  0  0  0  0
   12.3477  -16.5812   16.3767 N   0  0  0  0  0  0  0  0  0  0  0  0
   11.1114  -16.9022   21.0258 C   0  0  0  0  0  0  0  0  0  0  0  0
   11.8158  -16.2324   21.8243 O   0  0  0  0  0  0  0  0  0  0  0  0
    9.7647  -17.1235   21.3821 N   0  0  0  0  0  0  0  0  0  0  0  0
    9.1674  -16.7862   22.6621 C   0  0  1  0  0  0  0  0  0  0  0  0
    7.7507  -16.3348   22.5686 C   0  0  0  0  0  0  0  0  0  0  0  0
    7.1553  -15.8854   23.8454 C   0  0  0  0  0  0  0  0  0  0  0  0
    6.4869  -16.5989   24.7979 C   0  0  0  0  0  0  0  0  0  0  0  0
    6.1267  -15.7683   25.7744 N   0  0  0  0  0  0  0  0  0  0  0  0
    6.5284  -14.5172   25.5137 C   0  0  0  0  0  0  0  0  0  0  0  0
    6.3971  -13.3256   26.2029 C   0  0  0  0  0  0  0  0  0  0  0  0
    6.9177  -12.1584   25.6891 C   0  0  0  0  0  0  0  0  0  0  0  0
    7.5634  -12.2220   24.4827 C   0  0  0  0  0  0  0  0  0  0  0  0
    7.7011  -13.4099   23.7821 C   0  0  0  0  0  0  0  0  0  0  0  0
    7.1765  -14.5630   24.3082 C   0  0  0  0  0  0  0  0  0  0  0  0
    9.1990  -18.0944   23.4308 C   0  0  0  0  0  0  0  0  0  0  0  0
    9.5219  -19.1739   22.8213 O   0  0  0  0  0  0  0  0  0  0  0  0
    8.8903  -18.1832   24.7959 N   0  0  0  0  0  0  0  0  0  0  0  0
    9.9004  -18.6286   25.7492 C   0  0  1  0  0  0  0  0  0  0  0  0
   10.9995  -17.6360   25.8725 C   0  0  0  0  0  0  0  0  0  0  0  0
   10.8997  -16.8333   27.0913 C   0  0  0  0  0  0  0  0  0  0  0  0
   11.0995  -17.3318   28.3871 C   0  0  0  0  0  0  0  0  0  0  0  0
   10.8963  -16.3735   29.2945 N   0  0  0  0  0  0  0  0  0  0  0  0
   10.5641  -15.2354   28.6342 C   0  0  0  0  0  0  0  0  0  0  0  0
   10.2824  -13.9869   29.1330 C   0  0  0  0  0  0  0  0  0  0  0  0
    9.9894  -12.9620   28.2518 C   0  0  0  0  0  0  0  0  0  0  0  0
    9.9898  -13.2289   26.9061 C   0  0  0  0  0  0  0  0  0  0  0  0
   10.2692  -14.4716   26.4080 C   0  0  0  0  0  0  0  0  0  0  0  0
   10.5659  -15.5146   27.2854 C   0  0  0  0  0  0  0  0  0  0  0  0
    9.2953  -19.0778   26.9906 C   0  0  0  0  0  0  0  0  0  0  0  0
    7.9355  -18.8280   27.2306 O   0  0  0  0  0  0  0  0  0  0  0  0
    9.9184  -19.6852   27.8802 O   0  0  0  0  0  0  0  0  0  0  0  0
  2  9  1  0
  2  1  1  6
  2  3  1  0
  3  4  1  0
  4  8  1  0
  4  5  2  0
  5  6  1  0
  7  6  1  0
  8  7  2  0
  9 10  2  0
 11 12  1  0
 11  9  1  0
 12 23  1  0
 12 13  1  6
 14 13  1  0
 14 22  1  0
 15 16  1  0
 15 14  2  0
 16 17  1  0
 17 18  2  0
 17 22  1  0
 18 19  1  0
 19 20  2  0
 21 20  1  0
 22 21  2  0
 23 25  1  0
 23 24  2  0
 25 26  1  0
 26 37  1  0
 26 27  1  1
 27 28  1  0
 28 36  1  0
 29 30  1  0
 29 28  2  0
 30 31  1  0
 31 36  2  0
 31 32  1  0
 32 33  2  0
 33 34  1  0
 35 34  2  0
 36 35  1  0
 37 38  1  0
 39 37  2  0
M  END
$$$$
