HWW.pdb
     RDKit          3D

 39 43  0  0  1  0  0  0  0  0999 V2000
    9.3960  -19.3041   20.7085 N   0  0  0  0  0  0  0  0  0  0  0  0
   10.4105  -18.4100   20.1903 C   0  0  1  0  0  0  0  0  0  0  0  0
   10.0950  -18.2363   18.7214 C   0  0  0  0  0  0  0  0  0  0  0  0
   10.3884  -19.5057   18.0117 C   0  0  0  0  0  0  0  0  0  0  0  0
   11.3786  -20.4309   18.2825 C   0  0  0  0  0  0  0  0  0  0  0  0
   11.3177  -21.4447   17.4021 N   0  0  0  0  0  0  0  0  0  0  0  0
   10.2974  -21.1682   16.5768 C   0  0  0  0  0  0  0  0  0  0  0  0
    9.7225  -19.9865   16.9399 N   0  0  0  0  0  0  0  0  0  0  0  0
   10.4696  -17.1302   20.9231 C   0  0  0  0  0  0  0  0  0  0  0  0
   11.3107  -16.2689   20.5580 O   0  0  0  0  0  0  0  0  0  0  0  0
    9.6402  -16.8005   22.0152 N   0  0  0  0  0  0  0  0  0  0  0  0
    9.5942  -15.5081   22.6759 C   0  0  1  0  0  0  0  0  0  0  0  0
    8.2179  -14.9628   22.8435 C   0  0  0  0  0  0  0  0  0  0  0  0
    7.5078  -14.6666   21.5808 C   0  0  0  0  0  0  0  0  0  0  0  0
    6.3971  -15.2511   21.0440 C   0  0  0  0  0  0  0  0  0  0  0  0
    6.1245  -14.6570   19.8838 N   0  0  0  0  0  0  0  0  0  0  0  0
    7.0139  -13.6912   19.6179 C   0  0  0  0  0  0  0  0  0  0  0  0
    7.1573  -12.8115   18.5607 C   0  0  0  0  0  0  0  0  0  0  0  0
    8.1904  -11.9006   18.5428 C   0  0  0  0  0  0  0  0  0  0  0  0
    9.0608  -11.8990   19.6006 C   0  0  0  0  0  0  0  0  0  0  0  0
    8.9280  -12.7757   20.6658 C   0  0  0  0  0  0  0  0  0  0  0  0
    7.8935  -13.6766   20.6674 C   0  0  0  0  0  0  0  0  0  0  0  0
   10.1653  -15.7870   24.0541 C   0  0  0  0  0  0  0  0  0  0  0  0
   10.9903  -14.9554   24.5725 O   0  0  0  0  0  0  0  0  0  0  0  0
    9.8292  -16.9248   24.8019 N   0  0  0  0  0  0  0  0  0  0  0  0
   10.3235  -17.0793   26.1653 C   0  0  1  0  0  0  0  0  0  0  0  0
    9.9796  -15.8988   27.0000 C   0  0  0  0  0  0  0  0  0  0  0  0
    8.6230  -15.4105   26.7535 C   0  0  0  0  0  0  0  0  0  0  0  0
    7.5432  -16.2246   26.3807 C   0  0  0  0  0  0  0  0  0  0  0  0
    6.4469  -15.4881   26.1840 N   0  0  0  0  0  0  0  0  0  0  0  0
    6.7666  -14.1904   26.4191 C   0  0  0  0  0  0  0  0  0  0  0  0
    5.9718  -13.0713   26.3641 C   0  0  0  0  0  0  0  0  0  0  0  0
    6.5225  -11.8407   26.6722 C   0  0  0  0  0  0  0  0  0  0  0  0
    7.8475  -11.7800   27.0225 C   0  0  0  0  0  0  0  0  0  0  0  0
    8.6404  -12.8930   27.0768 C   0  0  0  0  0  0  0  0  0  0  0  0
    8.0981  -14.1406   26.7681 C   0  0  0  0  0  0  0  0  0  0  0  0
    9.9737  -18.3787   26.7113 C   0  0  0  0  0  0  0  0  0  0  0  0
    9.2129  -19.2729   25.9429 O   0  0  0  0  0  0  0  0  0  0  0  0
   10.3117  -18.7627   27.8457 O   0  0  0  0  0  0  0  0  0  0  0  0
  2  9  1  0
  2  1  1  1
  2  3  1  0
  3  4  1  0
  4  8  1  0
  4  5  2  0
  5  6  1  0
  7  6  1  0
  8  7  2  0
  9 10  2  0
 11 12  1  0
 11  9  1  0
 12 23  1  0
 12 13  1  1
 14 13  1  0
 14 22  1  0
 15 16  1  0
 15 14  2  0
 16 17  1  0
 17 18  2  0
 17 22  1  0
 18 19  1  0
 19 20  2  0
 21 20  1  0
 22 21  2  0
 23 25  1  0
 23 24  2  0
 25 26  1  0
 26 37  1  0
 26 27  1  1
 27 28  1  0
 28 36  1  0
 29 30  1  0
 29 28  2  0
 30 31  1  0
 31 36  2  0
 31 32  1  0
 32 33  2  0
 33 34  1  0
 35 34  2  0
 36 35  1  0
 37 38  1  0
 39 37  2  0
M  END
$$$$
