HWW.pdb
     RDKit          3D

 39 43  0  0  1  0  0  0  0  0999 V2000
   10.9756  -17.6732   18.2559 N   0  0  0  0  0  0  0  0  0  0  0  0
   11.8131  -17.3781   19.3998 C   0  0  1  0  0  0  0  0  0  0  0  0
   13.0766  -16.7654   18.8382 C   0  0  0  0  0  0  0  0  0  0  0  0
   13.9031  -17.8368   18.2299 C   0  0  0  0  0  0  0  0  0  0  0  0
   13.4914  -19.0550   17.7237 C   0  0  0  0  0  0  0  0  0  0  0  0
   14.5491  -19.7479   17.2681 N   0  0  0  0  0  0  0  0  0  0  0  0
   15.6262  -18.9781   17.4820 C   0  0  0  0  0  0  0  0  0  0  0  0
   15.2435  -17.8085   18.0687 N   0  0  0  0  0  0  0  0  0  0  0  0
   11.1418  -16.5120   20.3886 C   0  0  0  0  0  0  0  0  0  0  0  0
   11.1062  -15.2731   20.1737 O   0  0  0  0  0  0  0  0  0  0  0  0
   10.5301  -16.9804   21.5701 N   0  0  0  0  0  0  0  0  0  0  0  0
    9.6969  -16.1874   22.4566 C   0  0  1  0  0  0  0  0  0  0  0  0
    8.2519  -16.5475   22.4120 C   0  0  0  0  0  0  0  0  0  0  0  0
    7.4906  -15.9299   21.3050 C   0  0  0  0  0  0  0  0  0  0  0  0
    6.4560  -16.4307   20.5687 C   0  0  0  0  0  0  0  0  0  0  0  0
    6.0920  -15.5156   19.6725 N   0  0  0  0  0  0  0  0  0  0  0  0
    6.8459  -14.4134   19.7777 C   0  0  0  0  0  0  0  0  0  0  0  0
    6.8593  -13.2151   19.0877 C   0  0  0  0  0  0  0  0  0  0  0  0
    7.7667  -12.2306   19.4116 C   0  0  0  0  0  0  0  0  0  0  0  0
    8.6456  -12.4807   20.4320 C   0  0  0  0  0  0  0  0  0  0  0  0
    8.6425  -13.6777   21.1308 C   0  0  0  0  0  0  0  0  0  0  0  0
    7.7323  -14.6474   20.7950 C   0  0  0  0  0  0  0  0  0  0  0  0
   10.2259  -16.5180   23.8402 C   0  0  0  0  0  0  0  0  0  0  0  0
   11.1580  -17.3877   23.9654 O   0  0  0  0  0  0  0  0  0  0  0  0
    9.7408  -15.9089   25.0066 N   0  0  0  0  0  0  0  0  0  0  0  0
   10.2416  -16.3216   26.3128 C   0  0  1  0  0  0  0  0  0  0  0  0
    9.7656  -15.4094   27.3850 C   0  0  0  0  0  0  0  0  0  0  0  0
    8.4005  -14.9359   27.1569 C   0  0  0  0  0  0  0  0  0  0  0  0
    7.3141  -15.7680   26.8489 C   0  0  0  0  0  0  0  0  0  0  0  0
    6.2097  -15.0437   26.6528 N   0  0  0  0  0  0  0  0  0  0  0  0
    6.5304  -13.7364   26.8247 C   0  0  0  0  0  0  0  0  0  0  0  0
    5.7297  -12.6230   26.7457 C   0  0  0  0  0  0  0  0  0  0  0  0
    6.2836  -11.3789   26.9867 C   0  0  0  0  0  0  0  0  0  0  0  0
    7.6177  -11.2997   27.2967 C   0  0  0  0  0  0  0  0  0  0  0  0
    8.4164  -12.4071   27.3747 C   0  0  0  0  0  0  0  0  0  0  0  0
    7.8709  -13.6681   27.1336 C   0  0  0  0  0  0  0  0  0  0  0  0
   10.0338  -17.7415   26.5351 C   0  0  0  0  0  0  0  0  0  0  0  0
   10.6949  -18.3829   27.5937 O   0  0  0  0  0  0  0  0  0  0  0  0
    9.2893  -18.4472   25.8305 O   0  0  0  0  0  0  0  0  0  0  0  0
  2  9  1  0
  2  1  1  6
  2  3  1  0
  3  4  1  0
  4  8  1  0
  4  5  2  0
  5  6  1  0
  7  6  1  0
  8  7  2  0
  9 10  2  0
 11 12  1  0
 11  9  1  0
 12 23  1  0
 12 13  1  1
 14 13  1  0
 14 22  1  0
 15 16  1  0
 15 14  2  0
 16 17  1  0
 17 18  2  0
 17 22  1  0
 18 19  1  0
 19 20  2  0
 21 20  1  0
 22 21  2  0
 23 25  1  0
 23 24  2  0
 25 26  1  0
 26 37  1  0
 26 27  1  1
 27 28  1  0
 28 36  1  0
 29 30  1  0
 29 28  2  0
 30 31  1  0
 31 36  2  0
 31 32  1  0
 32 33  2  0
 33 34  1  0
 35 34  2  0
 36 35  1  0
 37 38  1  0
 39 37  2  0
M  END
$$$$
