HWW.pdb
     RDKit          3D

 39 43  0  0  1  0  0  0  0  0999 V2000
   10.6529  -17.4391   18.9710 N   0  0  0  0  0  0  0  0  0  0  0  0
   11.3655  -17.5096   20.2297 C   0  0  1  0  0  0  0  0  0  0  0  0
   12.8044  -17.1728   19.9079 C   0  0  0  0  0  0  0  0  0  0  0  0
   13.3201  -18.1532   18.9210 C   0  0  0  0  0  0  0  0  0  0  0  0
   13.1232  -19.5206   18.8869 C   0  0  0  0  0  0  0  0  0  0  0  0
   13.7662  -20.0544   17.8341 N   0  0  0  0  0  0  0  0  0  0  0  0
   14.3679  -19.0360   17.2023 C   0  0  0  0  0  0  0  0  0  0  0  0
   14.1021  -17.8701   17.8572 N   0  0  0  0  0  0  0  0  0  0  0  0
   10.7843  -16.6305   21.2631 C   0  0  0  0  0  0  0  0  0  0  0  0
   11.1961  -15.4445   21.3417 O   0  0  0  0  0  0  0  0  0  0  0  0
    9.7883  -17.0303   22.1783 N   0  0  0  0  0  0  0  0  0  0  0  0
    9.1108  -16.1554   23.1187 C   0  0  1  0  0  0  0  0  0  0  0  0
    7.6397  -16.0590   22.9037 C   0  0  0  0  0  0  0  0  0  0  0  0
    7.2367  -15.5721   21.5669 C   0  0  0  0  0  0  0  0  0  0  0  0
    6.5689  -16.2166   20.5659 C   0  0  0  0  0  0  0  0  0  0  0  0
    6.4358  -15.3800   19.5385 N   0  0  0  0  0  0  0  0  0  0  0  0
    6.9916  -14.1920   19.8110 C   0  0  0  0  0  0  0  0  0  0  0  0
    7.1127  -13.0225   19.0831 C   0  0  0  0  0  0  0  0  0  0  0  0
    7.7505  -11.9262   19.6203 C   0  0  0  0  0  0  0  0  0  0  0  0
    8.2546  -12.0369   20.8892 C   0  0  0  0  0  0  0  0  0  0  0  0
    8.1400  -13.2035   21.6287 C   0  0  0  0  0  0  0  0  0  0  0  0
    7.5020  -14.2860   21.0782 C   0  0  0  0  0  0  0  0  0  0  0  0
    9.3515  -16.8160   24.4638 C   0  0  0  0  0  0  0  0  0  0  0  0
    8.4391  -17.5578   24.9719 O   0  0  0  0  0  0  0  0  0  0  0  0
   10.5410  -16.6554   25.1891 N   0  0  0  0  0  0  0  0  0  0  0  0
   10.4958  -16.3533   26.6153 C   0  0  1  0  0  0  0  0  0  0  0  0
   10.0685  -14.9503   26.8553 C   0  0  0  0  0  0  0  0  0  0  0  0
    8.6381  -14.7497   26.6245 C   0  0  0  0  0  0  0  0  0  0  0  0
    7.7387  -15.7719   26.2871 C   0  0  0  0  0  0  0  0  0  0  0  0
    6.5141  -15.2748   26.0965 N   0  0  0  0  0  0  0  0  0  0  0  0
    6.5699  -13.9344   26.3008 C   0  0  0  0  0  0  0  0  0  0  0  0
    5.5658  -12.9990   26.2390 C   0  0  0  0  0  0  0  0  0  0  0  0
    5.8623  -11.6763   26.5134 C   0  0  0  0  0  0  0  0  0  0  0  0
    7.1529  -11.3434   26.8382 C   0  0  0  0  0  0  0  0  0  0  0  0
    8.1539  -12.2733   26.8992 C   0  0  0  0  0  0  0  0  0  0  0  0
    7.8690  -13.6109   26.6244 C   0  0  0  0  0  0  0  0  0  0  0  0
    9.7801  -17.3801   27.3516 C   0  0  0  0  0  0  0  0  0  0  0  0
    9.2497  -18.4839   26.6665 O   0  0  0  0  0  0  0  0  0  0  0  0
    9.5997  -17.3458   28.5824 O   0  0  0  0  0  0  0  0  0  0  0  0
  2  9  1  0
  2  1  1  6
  2  3  1  0
  3  4  1  0
  4  8  1  0
  4  5  2  0
  5  6  1  0
  7  6  1  0
  8  7  2  0
  9 10  2  0
 11 12  1  0
 11  9  1  0
 12 23  1  0
 12 13  1  6
 14 13  1  0
 14 22  1  0
 15 16  1  0
 15 14  2  0
 16 17  1  0
 17 18  2  0
 17 22  1  0
 18 19  1  0
 19 20  2  0
 21 20  1  0
 22 21  2  0
 23 25  1  0
 23 24  2  0
 25 26  1  0
 26 37  1  0
 26 27  1  6
 27 28  1  0
 28 36  1  0
 29 30  1  0
 29 28  2  0
 30 31  1  0
 31 36  2  0
 31 32  1  0
 32 33  2  0
 33 34  1  0
 35 34  2  0
 36 35  1  0
 37 38  1  0
 39 37  2  0
M  END
$$$$
