HWW.pdb
     RDKit          3D

 39 43  0  0  1  0  0  0  0  0999 V2000
   10.0483  -16.5593   18.5388 N   0  0  0  0  0  0  0  0  0  0  0  0
   10.8816  -17.1331   19.5750 C   0  0  1  0  0  0  0  0  0  0  0  0
   12.3087  -16.8733   19.1468 C   0  0  0  0  0  0  0  0  0  0  0  0
   12.6585  -17.8032   18.0450 C   0  0  0  0  0  0  0  0  0  0  0  0
   12.0436  -18.9909   17.6970 C   0  0  0  0  0  0  0  0  0  0  0  0
   12.6672  -19.5428   16.6420 N   0  0  0  0  0  0  0  0  0  0  0  0
   13.6713  -18.7141   16.3200 C   0  0  0  0  0  0  0  0  0  0  0  0
   13.6753  -17.6482   17.1701 N   0  0  0  0  0  0  0  0  0  0  0  0
   10.5743  -16.5962   20.9151 C   0  0  0  0  0  0  0  0  0  0  0  0
   10.6823  -15.3571   21.1034 O   0  0  0  0  0  0  0  0  0  0  0  0
   10.1628  -17.3826   22.0112 N   0  0  0  0  0  0  0  0  0  0  0  0
    9.7869  -16.8724   23.3178 C   0  0  1  0  0  0  0  0  0  0  0  0
    8.3193  -16.8861   23.5737 C   0  0  0  0  0  0  0  0  0  0  0  0
    7.6350  -15.5959   23.3417 C   0  0  0  0  0  0  0  0  0  0  0  0
    7.0676  -15.0988   22.2040 C   0  0  0  0  0  0  0  0  0  0  0  0
    6.5754  -13.8903   22.4694 N   0  0  0  0  0  0  0  0  0  0  0  0
    6.7915  -13.5534   23.7478 C   0  0  0  0  0  0  0  0  0  0  0  0
    6.4802  -12.4277   24.4881 C   0  0  0  0  0  0  0  0  0  0  0  0
    6.8325  -12.3441   25.8171 C   0  0  0  0  0  0  0  0  0  0  0  0
    7.4955  -13.4067   26.3717 C   0  0  0  0  0  0  0  0  0  0  0  0
    7.8136  -14.5402   25.6403 C   0  0  0  0  0  0  0  0  0  0  0  0
    7.4556  -14.6067   24.3178 C   0  0  0  0  0  0  0  0  0  0  0  0
   10.4463  -17.8380   24.2855 C   0  0  0  0  0  0  0  0  0  0  0  0
   10.5031  -19.0831   23.9900 O   0  0  0  0  0  0  0  0  0  0  0  0
   11.0075  -17.4303   25.5043 N   0  0  0  0  0  0  0  0  0  0  0  0
   11.7201  -18.3890   26.3412 C   0  0  1  0  0  0  0  0  0  0  0  0
   12.5883  -17.6993   27.3308 C   0  0  0  0  0  0  0  0  0  0  0  0
   11.8229  -16.9354   28.3158 C   0  0  0  0  0  0  0  0  0  0  0  0
   11.4653  -17.4131   29.5853 C   0  0  0  0  0  0  0  0  0  0  0  0
   10.7325  -16.5073   30.2376 N   0  0  0  0  0  0  0  0  0  0  0  0
   10.5900  -15.4250   29.4316 C   0  0  0  0  0  0  0  0  0  0  0  0
    9.9378  -14.2394   29.6685 C   0  0  0  0  0  0  0  0  0  0  0  0
    9.9480  -13.2604   28.6918 C   0  0  0  0  0  0  0  0  0  0  0  0
   10.6107  -13.5083   27.5164 C   0  0  0  0  0  0  0  0  0  0  0  0
   11.2596  -14.6884   27.2785 C   0  0  0  0  0  0  0  0  0  0  0  0
   11.2569  -15.6847   28.2548 C   0  0  0  0  0  0  0  0  0  0  0  0
   10.8229  -19.4028   26.8667 C   0  0  0  0  0  0  0  0  0  0  0  0
   11.3512  -20.5861   27.4050 O   0  0  0  0  0  0  0  0  0  0  0  0
    9.5836  -19.2901   26.8713 O   0  0  0  0  0  0  0  0  0  0  0  0
  2  9  1  0
  2  1  1  6
  2  3  1  0
  3  4  1  0
  4  8  1  0
  4  5  2  0
  5  6  1  0
  7  6  1  0
  8  7  2  0
  9 10  2  0
 11 12  1  0
 11  9  1  0
 12 23  1  0
 12 13  1  6
 14 13  1  0
 14 22  1  0
 15 16  1  0
 15 14  2  0
 16 17  1  0
 17 18  2  0
 17 22  1  0
 18 19  1  0
 19 20  2  0
 21 20  1  0
 22 21  2  0
 23 25  1  0
 23 24  2  0
 25 26  1  0
 26 37  1  0
 26 27  1  1
 27 28  1  0
 28 36  1  0
 29 30  1  0
 29 28  2  0
 30 31  1  0
 31 36  2  0
 31 32  1  0
 32 33  2  0
 33 34  1  0
 35 34  2  0
 36 35  1  0
 37 38  1  0
 39 37  2  0
M  END
$$$$
