HWW.pdb
     RDKit          3D

 39 43  0  0  1  0  0  0  0  0999 V2000
   10.1901  -19.1177   20.9798 N   0  0  0  0  0  0  0  0  0  0  0  0
   10.9146  -17.9950   20.4215 C   0  0  1  0  0  0  0  0  0  0  0  0
   10.5612  -17.9668   18.9512 C   0  0  0  0  0  0  0  0  0  0  0  0
   11.5722  -18.7482   18.1972 C   0  0  0  0  0  0  0  0  0  0  0  0
   11.9192  -20.0769   18.3514 C   0  0  0  0  0  0  0  0  0  0  0  0
   12.8873  -20.4064   17.4792 N   0  0  0  0  0  0  0  0  0  0  0  0
   13.1553  -19.2971   16.7747 C   0  0  0  0  0  0  0  0  0  0  0  0
   12.3579  -18.2782   17.2046 N   0  0  0  0  0  0  0  0  0  0  0  0
   10.6157  -16.7247   21.1113 C   0  0  0  0  0  0  0  0  0  0  0  0
   11.2068  -15.6820   20.7295 O   0  0  0  0  0  0  0  0  0  0  0  0
    9.7036  -16.5958   22.1794 N   0  0  0  0  0  0  0  0  0  0  0  0
    9.2833  -15.3418   22.7791 C   0  0  1  0  0  0  0  0  0  0  0  0
    7.8211  -15.0783   22.6689 C   0  0  0  0  0  0  0  0  0  0  0  0
    7.3090  -14.9800   21.2852 C   0  0  0  0  0  0  0  0  0  0  0  0
    6.4744  -15.8150   20.6000 C   0  0  0  0  0  0  0  0  0  0  0  0
    6.2963  -15.3242   19.3750 N   0  0  0  0  0  0  0  0  0  0  0  0
    6.9829  -14.1861   19.2088 C   0  0  0  0  0  0  0  0  0  0  0  0
    7.1208  -13.3198   18.1398 C   0  0  0  0  0  0  0  0  0  0  0  0
    7.9114  -12.1969   18.2460 C   0  0  0  0  0  0  0  0  0  0  0  0
    8.5488  -11.9730   19.4376 C   0  0  0  0  0  0  0  0  0  0  0  0
    8.4190  -12.8338   20.5161 C   0  0  0  0  0  0  0  0  0  0  0  0
    7.6279  -13.9477   20.3931 C   0  0  0  0  0  0  0  0  0  0  0  0
    9.6255  -15.5118   24.2480 C   0  0  0  0  0  0  0  0  0  0  0  0
    9.6928  -14.4779   25.0013 O   0  0  0  0  0  0  0  0  0  0  0  0
    9.8733  -16.7623   24.8324 N   0  0  0  0  0  0  0  0  0  0  0  0
   10.2011  -16.8576   26.2505 C   0  0  1  0  0  0  0  0  0  0  0  0
    8.9741  -16.9828   27.0796 C   0  0  0  0  0  0  0  0  0  0  0  0
    7.9988  -15.9278   26.8055 C   0  0  0  0  0  0  0  0  0  0  0  0
    6.7306  -16.1465   26.2474 C   0  0  0  0  0  0  0  0  0  0  0  0
    6.0882  -14.9886   26.0753 N   0  0  0  0  0  0  0  0  0  0  0  0
    6.8997  -13.9911   26.5090 C   0  0  0  0  0  0  0  0  0  0  0  0
    6.6730  -12.6369   26.5512 C   0  0  0  0  0  0  0  0  0  0  0  0
    7.6536  -11.8076   27.0644 C   0  0  0  0  0  0  0  0  0  0  0  0
    8.8222  -12.3678   27.5144 C   0  0  0  0  0  0  0  0  0  0  0  0
    9.0498  -13.7157   27.4722 C   0  0  0  0  0  0  0  0  0  0  0  0
    8.0696  -14.5638   26.9566 C   0  0  0  0  0  0  0  0  0  0  0  0
   11.2429  -17.8409   26.4882 C   0  0  0  0  0  0  0  0  0  0  0  0
   11.7838  -18.5546   25.4078 O   0  0  0  0  0  0  0  0  0  0  0  0
   11.7001  -18.1009   27.6160 O   0  0  0  0  0  0  0  0  0  0  0  0
  2  9  1  0
  2  1  1  1
  2  3  1  0
  3  4  1  0
  4  8  1  0
  4  5  2  0
  5  6  1  0
  7  6  1  0
  8  7  2  0
  9 10  2  0
 11 12  1  0
 11  9  1  0
 12 23  1  0
 12 13  1  1
 14 13  1  0
 14 22  1  0
 15 16  1  0
 15 14  2  0
 16 17  1  0
 17 18  2  0
 17 22  1  0
 18 19  1  0
 19 20  2  0
 21 20  1  0
 22 21  2  0
 23 25  1  0
 23 24  2  0
 25 26  1  0
 26 37  1  0
 26 27  1  1
 27 28  1  0
 28 36  1  0
 29 30  1  0
 29 28  2  0
 30 31  1  0
 31 36  2  0
 31 32  1  0
 32 33  2  0
 33 34  1  0
 35 34  2  0
 36 35  1  0
 37 38  1  0
 39 37  2  0
M  END
$$$$
