HWW.pdb
     RDKit          3D

 39 43  0  0  1  0  0  0  0  0999 V2000
    8.1979  -16.5789   20.0174 N   0  0  0  0  0  0  0  0  0  0  0  0
    9.0884  -15.4603   20.2476 C   0  0  1  0  0  0  0  0  0  0  0  0
    8.3903  -14.2515   19.6653 C   0  0  0  0  0  0  0  0  0  0  0  0
    8.1961  -14.4615   18.2096 C   0  0  0  0  0  0  0  0  0  0  0  0
    8.6491  -15.5053   17.4254 C   0  0  0  0  0  0  0  0  0  0  0  0
    8.2697  -15.3234   16.1489 N   0  0  0  0  0  0  0  0  0  0  0  0
    7.5807  -14.1732   16.1193 C   0  0  0  0  0  0  0  0  0  0  0  0
    7.5292  -13.6383   17.3723 N   0  0  0  0  0  0  0  0  0  0  0  0
    9.4378  -15.2944   21.6720 C   0  0  0  0  0  0  0  0  0  0  0  0
   10.2071  -14.3529   21.9946 O   0  0  0  0  0  0  0  0  0  0  0  0
    8.9643  -16.1255   22.7086 N   0  0  0  0  0  0  0  0  0  0  0  0
    9.2865  -15.9792   24.1170 C   0  0  1  0  0  0  0  0  0  0  0  0
    8.2406  -16.5102   25.0354 C   0  0  0  0  0  0  0  0  0  0  0  0
    7.0624  -15.6338   25.2099 C   0  0  0  0  0  0  0  0  0  0  0  0
    5.7342  -15.9482   25.2334 C   0  0  0  0  0  0  0  0  0  0  0  0
    5.0368  -14.8275   25.4089 N   0  0  0  0  0  0  0  0  0  0  0  0
    5.8486  -13.7662   25.5041 C   0  0  0  0  0  0  0  0  0  0  0  0
    5.6120  -12.4157   25.6843 C   0  0  0  0  0  0  0  0  0  0  0  0
    6.6594  -11.5233   25.7451 C   0  0  0  0  0  0  0  0  0  0  0  0
    7.9305  -12.0186   25.6218 C   0  0  0  0  0  0  0  0  0  0  0  0
    8.1807  -13.3698   25.4405 C   0  0  0  0  0  0  0  0  0  0  0  0
    7.1259  -14.2447   25.3820 C   0  0  0  0  0  0  0  0  0  0  0  0
   10.5396  -16.8178   24.2894 C   0  0  0  0  0  0  0  0  0  0  0  0
   11.6385  -16.4213   23.7637 O   0  0  0  0  0  0  0  0  0  0  0  0
   10.5573  -18.0221   25.0078 N   0  0  0  0  0  0  0  0  0  0  0  0
   11.8230  -18.5884   25.4601 C   0  0  1  0  0  0  0  0  0  0  0  0
   12.6204  -17.5886   26.2173 C   0  0  0  0  0  0  0  0  0  0  0  0
   11.9941  -17.2111   27.4841 C   0  0  0  0  0  0  0  0  0  0  0  0
   11.8042  -18.0841   28.5655 C   0  0  0  0  0  0  0  0  0  0  0  0
   11.1670  -17.4643   29.5619 N   0  0  0  0  0  0  0  0  0  0  0  0
   10.9244  -16.1870   29.1734 C   0  0  0  0  0  0  0  0  0  0  0  0
   10.3139  -15.1661   29.8604 C   0  0  0  0  0  0  0  0  0  0  0  0
   10.1998  -13.9259   29.2591 C   0  0  0  0  0  0  0  0  0  0  0  0
   10.7014  -13.7580   27.9933 C   0  0  0  0  0  0  0  0  0  0  0  0
   11.3087  -14.7736   27.3076 C   0  0  0  0  0  0  0  0  0  0  0  0
   11.4301  -16.0297   27.9019 C   0  0  0  0  0  0  0  0  0  0  0  0
   11.6277  -19.8765   26.1014 C   0  0  0  0  0  0  0  0  0  0  0  0
   12.7425  -20.6379   26.4842 O   0  0  0  0  0  0  0  0  0  0  0  0
   10.5080  -20.3643   26.3401 O   0  0  0  0  0  0  0  0  0  0  0  0
  2  9  1  0
  2  1  1  1
  2  3  1  0
  3  4  1  0
  4  8  1  0
  4  5  2  0
  5  6  1  0
  7  6  1  0
  8  7  2  0
  9 10  2  0
 11 12  1  0
 11  9  1  0
 12 23  1  0
 12 13  1  1
 14 13  1  0
 14 22  1  0
 15 16  1  0
 15 14  2  0
 16 17  1  0
 17 18  2  0
 17 22  1  0
 18 19  1  0
 19 20  2  0
 21 20  1  0
 22 21  2  0
 23 25  1  0
 23 24  2  0
 25 26  1  0
 26 37  1  0
 26 27  1  1
 27 28  1  0
 28 36  1  0
 29 30  1  0
 29 28  2  0
 30 31  1  0
 31 36  2  0
 31 32  1  0
 32 33  2  0
 33 34  1  0
 35 34  2  0
 36 35  1  0
 37 38  1  0
 39 37  2  0
M  END
$$$$
