HWW.pdb
     RDKit          3D

 39 43  0  0  1  0  0  0  0  0999 V2000
    9.9392  -16.7898   17.6251 N   0  0  0  0  0  0  0  0  0  0  0  0
   10.6478  -17.3694   18.7471 C   0  0  1  0  0  0  0  0  0  0  0  0
   12.1184  -17.2198   18.4273 C   0  0  0  0  0  0  0  0  0  0  0  0
   12.4164  -17.9544   17.1734 C   0  0  0  0  0  0  0  0  0  0  0  0
   12.3268  -19.3122   16.9325 C   0  0  0  0  0  0  0  0  0  0  0  0
   12.6931  -19.5830   15.6680 N   0  0  0  0  0  0  0  0  0  0  0  0
   13.0137  -18.4077   15.1072 C   0  0  0  0  0  0  0  0  0  0  0  0
   12.8482  -17.4062   16.0173 N   0  0  0  0  0  0  0  0  0  0  0  0
   10.2722  -16.7560   20.0360 C   0  0  0  0  0  0  0  0  0  0  0  0
   10.9161  -15.7503   20.4313 O   0  0  0  0  0  0  0  0  0  0  0  0
    9.2303  -17.2223   20.8646 N   0  0  0  0  0  0  0  0  0  0  0  0
    8.8175  -16.6159   22.1178 C   0  0  1  0  0  0  0  0  0  0  0  0
    7.3724  -16.7980   22.4313 C   0  0  0  0  0  0  0  0  0  0  0  0
    6.9571  -16.3035   23.7615 C   0  0  0  0  0  0  0  0  0  0  0  0
    6.5390  -16.9963   24.8608 C   0  0  0  0  0  0  0  0  0  0  0  0
    6.2627  -16.1261   25.8301 N   0  0  0  0  0  0  0  0  0  0  0  0
    6.4793  -14.8684   25.4229 C   0  0  0  0  0  0  0  0  0  0  0  0
    6.3406  -13.6421   26.0466 C   0  0  0  0  0  0  0  0  0  0  0  0
    6.6397  -12.4772   25.3752 C   0  0  0  0  0  0  0  0  0  0  0  0
    7.0752  -12.5783   24.0804 C   0  0  0  0  0  0  0  0  0  0  0  0
    7.2180  -13.8013   23.4442 C   0  0  0  0  0  0  0  0  0  0  0  0
    6.9154  -14.9516   24.1275 C   0  0  0  0  0  0  0  0  0  0  0  0
    9.6274  -17.3609   23.1630 C   0  0  0  0  0  0  0  0  0  0  0  0
    9.8344  -18.6170   23.0198 O   0  0  0  0  0  0  0  0  0  0  0  0
   10.1712  -16.7348   24.2939 N   0  0  0  0  0  0  0  0  0  0  0  0
   11.0824  -17.4634   25.1692 C   0  0  1  0  0  0  0  0  0  0  0  0
   11.8958  -16.5329   25.9945 C   0  0  0  0  0  0  0  0  0  0  0  0
   11.1766  -16.0495   27.1729 C   0  0  0  0  0  0  0  0  0  0  0  0
   10.8927  -16.8297   28.3034 C   0  0  0  0  0  0  0  0  0  0  0  0
   10.1866  -16.1271   29.1926 N   0  0  0  0  0  0  0  0  0  0  0  0
    9.9897  -14.8848   28.6833 C   0  0  0  0  0  0  0  0  0  0  0  0
    9.3389  -13.8079   29.2345 C   0  0  0  0  0  0  0  0  0  0  0  0
    9.2864  -12.6208   28.5270 C   0  0  0  0  0  0  0  0  0  0  0  0
    9.8875  -12.5599   27.2953 C   0  0  0  0  0  0  0  0  0  0  0  0
   10.5350  -13.6313   26.7447 C   0  0  0  0  0  0  0  0  0  0  0  0
   10.5951  -14.8350   27.4471 C   0  0  0  0  0  0  0  0  0  0  0  0
   10.3954  -18.5252   25.8828 C   0  0  0  0  0  0  0  0  0  0  0  0
   11.1408  -19.5271   26.5230 O   0  0  0  0  0  0  0  0  0  0  0  0
    9.1566  -18.6094   25.9665 O   0  0  0  0  0  0  0  0  0  0  0  0
  2  9  1  0
  2  1  1  6
  2  3  1  0
  3  4  1  0
  4  8  1  0
  4  5  2  0
  5  6  1  0
  7  6  1  0
  8  7  2  0
  9 10  2  0
 11 12  1  0
 11  9  1  0
 12 23  1  0
 12 13  1  1
 14 13  1  0
 14 22  1  0
 15 16  1  0
 15 14  2  0
 16 17  1  0
 17 18  2  0
 17 22  1  0
 18 19  1  0
 19 20  2  0
 21 20  1  0
 22 21  2  0
 23 25  1  0
 23 24  2  0
 25 26  1  0
 26 37  1  0
 26 27  1  1
 27 28  1  0
 28 36  1  0
 29 30  1  0
 29 28  2  0
 30 31  1  0
 31 36  2  0
 31 32  1  0
 32 33  2  0
 33 34  1  0
 35 34  2  0
 36 35  1  0
 37 38  1  0
 39 37  2  0
M  END
$$$$
