HWW.pdb
     RDKit          3D

 39 43  0  0  1  0  0  0  0  0999 V2000
    8.2122  -16.7231   18.5031 N   0  0  0  0  0  0  0  0  0  0  0  0
    8.3195  -17.6689   19.5944 C   0  0  1  0  0  0  0  0  0  0  0  0
    9.2823  -18.7354   19.1221 C   0  0  0  0  0  0  0  0  0  0  0  0
   10.5105  -18.0821   18.6066 C   0  0  0  0  0  0  0  0  0  0  0  0
   11.0874  -16.8951   19.0164 C   0  0  0  0  0  0  0  0  0  0  0  0
   12.1913  -16.6431   18.2922 N   0  0  0  0  0  0  0  0  0  0  0  0
   12.3172  -17.6607   17.4279 C   0  0  0  0  0  0  0  0  0  0  0  0
   11.2963  -18.5456   17.6111 N   0  0  0  0  0  0  0  0  0  0  0  0
    8.7372  -17.0336   20.8595 C   0  0  0  0  0  0  0  0  0  0  0  0
    9.3119  -15.9158   20.8075 O   0  0  0  0  0  0  0  0  0  0  0  0
    8.5347  -17.5969   22.1367 N   0  0  0  0  0  0  0  0  0  0  0  0
    8.8272  -16.9429   23.3998 C   0  0  1  0  0  0  0  0  0  0  0  0
    7.8922  -17.3077   24.5009 C   0  0  0  0  0  0  0  0  0  0  0  0
    6.9331  -16.2479   24.8796 C   0  0  0  0  0  0  0  0  0  0  0  0
    5.6381  -16.3493   25.2993 C   0  0  0  0  0  0  0  0  0  0  0  0
    5.1669  -15.1235   25.5194 N   0  0  0  0  0  0  0  0  0  0  0  0
    6.0994  -14.1968   25.2619 C   0  0  0  0  0  0  0  0  0  0  0  0
    6.0964  -12.8159   25.3339 C   0  0  0  0  0  0  0  0  0  0  0  0
    7.2216  -12.0948   25.0004 C   0  0  0  0  0  0  0  0  0  0  0  0
    8.3317  -12.7898   24.5992 C   0  0  0  0  0  0  0  0  0  0  0  0
    8.3472  -14.1736   24.5225 C   0  0  0  0  0  0  0  0  0  0  0  0
    7.2178  -14.8761   24.8581 C   0  0  0  0  0  0  0  0  0  0  0  0
   10.2089  -17.4569   23.7607 C   0  0  0  0  0  0  0  0  0  0  0  0
   10.7096  -18.4321   23.0979 O   0  0  0  0  0  0  0  0  0  0  0  0
   10.9786  -16.9089   24.7970 N   0  0  0  0  0  0  0  0  0  0  0  0
   12.2330  -17.5397   25.1919 C   0  0  1  0  0  0  0  0  0  0  0  0
   13.0302  -16.6477   26.0737 C   0  0  0  0  0  0  0  0  0  0  0  0
   12.2952  -16.2333   27.2685 C   0  0  0  0  0  0  0  0  0  0  0  0
   12.2524  -16.9632   28.4656 C   0  0  0  0  0  0  0  0  0  0  0  0
   11.4661  -16.3554   29.3573 N   0  0  0  0  0  0  0  0  0  0  0  0
   10.9780  -15.2264   28.7843 C   0  0  0  0  0  0  0  0  0  0  0  0
   10.1455  -14.2691   29.3112 C   0  0  0  0  0  0  0  0  0  0  0  0
    9.7982  -13.1794   28.5337 C   0  0  0  0  0  0  0  0  0  0  0  0
   10.2983  -13.0922   27.2592 C   0  0  0  0  0  0  0  0  0  0  0  0
   11.1264  -14.0448   26.7328 C   0  0  0  0  0  0  0  0  0  0  0  0
   11.4845  -15.1495   27.5057 C   0  0  0  0  0  0  0  0  0  0  0  0
   12.0172  -18.8937   25.6703 C   0  0  0  0  0  0  0  0  0  0  0  0
   13.1184  -19.6919   26.0162 O   0  0  0  0  0  0  0  0  0  0  0  0
   10.8912  -19.4083   25.7967 O   0  0  0  0  0  0  0  0  0  0  0  0
  2  9  1  0
  2  1  1  6
  2  3  1  0
  3  4  1  0
  4  8  1  0
  4  5  2  0
  5  6  1  0
  7  6  1  0
  8  7  2  0
  9 10  2  0
 11 12  1  0
 11  9  1  0
 12 23  1  0
 12 13  1  1
 14 13  1  0
 14 22  1  0
 15 16  1  0
 15 14  2  0
 16 17  1  0
 17 18  2  0
 17 22  1  0
 18 19  1  0
 19 20  2  0
 21 20  1  0
 22 21  2  0
 23 25  1  0
 23 24  2  0
 25 26  1  0
 26 37  1  0
 26 27  1  1
 27 28  1  0
 28 36  1  0
 29 30  1  0
 29 28  2  0
 30 31  1  0
 31 36  2  0
 31 32  1  0
 32 33  2  0
 33 34  1  0
 35 34  2  0
 36 35  1  0
 37 38  1  0
 39 37  2  0
M  END
$$$$
