HWW.pdb
     RDKit          3D

 39 43  0  0  1  0  0  0  0  0999 V2000
    8.5898  -15.7482   19.0001 N   0  0  0  0  0  0  0  0  0  0  0  0
    9.8236  -16.4507   18.7152 C   0  0  1  0  0  0  0  0  0  0  0  0
   10.4052  -15.7814   17.4899 C   0  0  0  0  0  0  0  0  0  0  0  0
    9.4795  -15.9790   16.3474 C   0  0  0  0  0  0  0  0  0  0  0  0
    8.8497  -17.1412   15.9446 C   0  0  0  0  0  0  0  0  0  0  0  0
    8.0967  -16.9059   14.8564 N   0  0  0  0  0  0  0  0  0  0  0  0
    8.2451  -15.6047   14.5677 C   0  0  0  0  0  0  0  0  0  0  0  0
    9.0873  -15.0286   15.4719 N   0  0  0  0  0  0  0  0  0  0  0  0
   10.7516  -16.4600   19.8629 C   0  0  0  0  0  0  0  0  0  0  0  0
   11.7798  -17.1817   19.7964 O   0  0  0  0  0  0  0  0  0  0  0  0
   10.5656  -15.7080   21.0416 N   0  0  0  0  0  0  0  0  0  0  0  0
    9.9433  -16.1950   22.2600 C   0  0  1  0  0  0  0  0  0  0  0  0
    8.5022  -16.5408   22.1071 C   0  0  0  0  0  0  0  0  0  0  0  0
    7.5644  -15.4262   22.3618 C   0  0  0  0  0  0  0  0  0  0  0  0
    6.6156  -14.8781   21.5478 C   0  0  0  0  0  0  0  0  0  0  0  0
    6.0159  -13.8867   22.2040 N   0  0  0  0  0  0  0  0  0  0  0  0
    6.5279  -13.7457   23.4339 C   0  0  0  0  0  0  0  0  0  0  0  0
    6.2497  -12.8770   24.4732 C   0  0  0  0  0  0  0  0  0  0  0  0
    6.9490  -12.9552   25.6574 C   0  0  0  0  0  0  0  0  0  0  0  0
    7.9196  -13.9157   25.7655 C   0  0  0  0  0  0  0  0  0  0  0  0
    8.2080  -14.7918   24.7310 C   0  0  0  0  0  0  0  0  0  0  0  0
    7.5022  -14.6998   23.5584 C   0  0  0  0  0  0  0  0  0  0  0  0
   10.7068  -17.4695   22.5704 C   0  0  0  0  0  0  0  0  0  0  0  0
   10.4040  -18.5498   21.9522 O   0  0  0  0  0  0  0  0  0  0  0  0
   11.7444  -17.5255   23.5121 N   0  0  0  0  0  0  0  0  0  0  0  0
   11.4462  -17.4511   24.9379 C   0  0  1  0  0  0  0  0  0  0  0  0
   10.3418  -16.4941   25.2080 C   0  0  0  0  0  0  0  0  0  0  0  0
    9.9961  -16.4187   26.6273 C   0  0  0  0  0  0  0  0  0  0  0  0
    9.2542  -17.3904   27.3150 C   0  0  0  0  0  0  0  0  0  0  0  0
    9.0620  -17.0222   28.5841 N   0  0  0  0  0  0  0  0  0  0  0  0
    9.6627  -15.8192   28.7665 C   0  0  0  0  0  0  0  0  0  0  0  0
    9.7521  -15.0508   29.9017 C   0  0  0  0  0  0  0  0  0  0  0  0
   10.4453  -13.8552   29.8506 C   0  0  0  0  0  0  0  0  0  0  0  0
   11.0208  -13.4767   28.6641 C   0  0  0  0  0  0  0  0  0  0  0  0
   10.9319  -14.2400   27.5328 C   0  0  0  0  0  0  0  0  0  0  0  0
   10.2354  -15.4480   27.5701 C   0  0  0  0  0  0  0  0  0  0  0  0
   11.3092  -18.7745   25.5200 C   0  0  0  0  0  0  0  0  0  0  0  0
   11.5878  -19.9080   24.7411 O   0  0  0  0  0  0  0  0  0  0  0  0
   10.9508  -18.9767   26.6944 O   0  0  0  0  0  0  0  0  0  0  0  0
  2  9  1  0
  2  1  1  1
  2  3  1  0
  3  4  1  0
  4  8  1  0
  4  5  2  0
  5  6  1  0
  7  6  1  0
  8  7  2  0
  9 10  2  0
 11 12  1  0
 11  9  1  0
 12 23  1  0
 12 13  1  6
 14 13  1  0
 14 22  1  0
 15 16  1  0
 15 14  2  0
 16 17  1  0
 17 18  2  0
 17 22  1  0
 18 19  1  0
 19 20  2  0
 21 20  1  0
 22 21  2  0
 23 25  1  0
 23 24  2  0
 25 26  1  0
 26 37  1  0
 26 27  1  6
 27 28  1  0
 28 36  1  0
 29 30  1  0
 29 28  2  0
 30 31  1  0
 31 36  2  0
 31 32  1  0
 32 33  2  0
 33 34  1  0
 35 34  2  0
 36 35  1  0
 37 38  1  0
 39 37  2  0
M  END
$$$$
