HWW.pdb
     RDKit          3D

 39 43  0  0  1  0  0  0  0  0999 V2000
   11.2329  -18.6516   19.7497 N   0  0  0  0  0  0  0  0  0  0  0  0
   11.5481  -17.4965   20.5643 C   0  0  1  0  0  0  0  0  0  0  0  0
   11.2087  -16.2902   19.7175 C   0  0  0  0  0  0  0  0  0  0  0  0
   12.1457  -16.2282   18.5690 C   0  0  0  0  0  0  0  0  0  0  0  0
   13.3442  -15.5468   18.4754 C   0  0  0  0  0  0  0  0  0  0  0  0
   13.8912  -15.7373   17.2626 N   0  0  0  0  0  0  0  0  0  0  0  0
   13.0485  -16.5333   16.5883 C   0  0  0  0  0  0  0  0  0  0  0  0
   11.9791  -16.8396   17.3766 N   0  0  0  0  0  0  0  0  0  0  0  0
   10.8458  -17.5065   21.8624 C   0  0  0  0  0  0  0  0  0  0  0  0
    9.6246  -17.8078   21.8807 O   0  0  0  0  0  0  0  0  0  0  0  0
   11.4538  -17.1995   23.0975 N   0  0  0  0  0  0  0  0  0  0  0  0
   10.7930  -17.2295   24.3903 C   0  0  1  0  0  0  0  0  0  0  0  0
   11.6887  -16.9046   25.5356 C   0  0  0  0  0  0  0  0  0  0  0  0
   11.0337  -16.9180   26.8612 C   0  0  0  0  0  0  0  0  0  0  0  0
   10.7292  -17.9702   27.6759 C   0  0  0  0  0  0  0  0  0  0  0  0
   10.1345  -17.5000   28.7706 N   0  0  0  0  0  0  0  0  0  0  0  0
   10.0260  -16.1657   28.7231 C   0  0  0  0  0  0  0  0  0  0  0  0
    9.4939  -15.2348   29.5964 C   0  0  0  0  0  0  0  0  0  0  0  0
    9.5140  -13.8928   29.2869 C   0  0  0  0  0  0  0  0  0  0  0  0
   10.0750  -13.5191   28.0945 C   0  0  0  0  0  0  0  0  0  0  0  0
   10.6110  -14.4423   27.2106 C   0  0  0  0  0  0  0  0  0  0  0  0
   10.5825  -15.7750   27.5344 C   0  0  0  0  0  0  0  0  0  0  0  0
    9.7433  -16.1384   24.2843 C   0  0  0  0  0  0  0  0  0  0  0  0
   10.1140  -14.9137   24.2230 O   0  0  0  0  0  0  0  0  0  0  0  0
    8.3673  -16.4063   24.2471 N   0  0  0  0  0  0  0  0  0  0  0  0
    7.4431  -15.6123   25.0487 C   0  0  1  0  0  0  0  0  0  0  0  0
    6.8665  -14.4946   24.2570 C   0  0  0  0  0  0  0  0  0  0  0  0
    6.8347  -14.7783   22.8224 C   0  0  0  0  0  0  0  0  0  0  0  0
    6.2127  -15.8974   22.2494 C   0  0  0  0  0  0  0  0  0  0  0  0
    6.3905  -15.9061   20.9260 N   0  0  0  0  0  0  0  0  0  0  0  0
    7.1205  -14.8113   20.5944 C   0  0  0  0  0  0  0  0  0  0  0  0
    7.5385  -14.3818   19.3583 C   0  0  0  0  0  0  0  0  0  0  0  0
    8.2615  -13.2066   19.2648 C   0  0  0  0  0  0  0  0  0  0  0  0
    8.5375  -12.5088   20.4132 C   0  0  0  0  0  0  0  0  0  0  0  0
    8.1229  -12.9355   21.6447 C   0  0  0  0  0  0  0  0  0  0  0  0
    7.3932  -14.1194   21.7537 C   0  0  0  0  0  0  0  0  0  0  0  0
    6.4967  -16.4561   25.7568 C   0  0  0  0  0  0  0  0  0  0  0  0
    5.6612  -15.8941   26.7341 O   0  0  0  0  0  0  0  0  0  0  0  0
    6.3740  -17.6771   25.5502 O   0  0  0  0  0  0  0  0  0  0  0  0
  2  9  1  0
  2  1  1  6
  2  3  1  0
  3  4  1  0
  4  8  1  0
  4  5  2  0
  5  6  1  0
  7  6  1  0
  8  7  2  0
  9 10  2  0
 11 12  1  0
 11  9  1  0
 12 23  1  0
 12 13  1  1
 14 13  1  0
 14 22  1  0
 15 16  1  0
 15 14  2  0
 16 17  1  0
 17 18  2  0
 17 22  1  0
 18 19  1  0
 19 20  2  0
 21 20  1  0
 22 21  2  0
 23 25  1  0
 23 24  2  0
 25 26  1  0
 26 37  1  0
 26 27  1  6
 27 28  1  0
 28 36  1  0
 29 30  1  0
 29 28  2  0
 30 31  1  0
 31 36  2  0
 31 32  1  0
 32 33  2  0
 33 34  1  0
 35 34  2  0
 36 35  1  0
 37 38  1  0
 39 37  2  0
M  END
$$$$
