PRE.pdb
     RDKit          3D

 28 28  0  0  1  0  0  0  0  0999 V2000
   28.0943  -20.6665  -17.2449 N   0  0  0  0  0  0  0  0  0  0  0  0
   29.2884  -20.7928  -18.1289 C   0  0  0  0  0  0  0  0  0  0  0  0
   29.9869  -21.9983  -17.5742 C   0  0  0  0  0  0  0  0  0  0  0  0
   28.9223  -22.7493  -16.8394 C   0  0  0  0  0  0  0  0  0  0  0  0
   27.6230  -22.0601  -17.2669 C   0  0  1  0  0  0  0  0  0  0  0  0
   26.6087  -22.3130  -16.2134 C   0  0  0  0  0  0  0  0  0  0  0  0
   25.8625  -23.3133  -16.3148 O   0  0  0  0  0  0  0  0  0  0  0  0
   22.6416  -19.9837  -10.0829 N   0  0  0  0  0  0  0  0  0  0  0  0
   23.4633  -20.5502   -9.0849 C   0  0  0  0  0  0  0  0  0  0  0  0
   22.9918  -20.8324   -7.8949 N   0  0  0  0  0  0  0  0  0  0  0  0
   24.8283  -20.8511   -9.2866 N   0  0  0  0  0  0  0  0  0  0  0  0
   25.5641  -20.6145  -10.4899 C   0  0  0  0  0  0  0  0  0  0  0  0
   25.3657  -21.6355  -11.5734 C   0  0  0  0  0  0  0  0  0  0  0  0
   26.2028  -21.3295  -12.7565 C   0  0  0  0  0  0  0  0  0  0  0  0
   25.4349  -21.5929  -14.0993 C   0  0  2  0  0  0  0  0  0  0  0  0
   26.4762  -21.4525  -15.0979 N   0  0  0  0  0  0  0  0  0  0  0  0
   24.2609  -20.7918  -14.2566 C   0  0  0  0  0  0  0  0  0  0  0  0
   24.3778  -19.5186  -14.3072 O   0  0  0  0  0  0  0  0  0  0  0  0
   23.6638  -21.1904   -7.1958 N   0  0  0  0  0  0  0  0  0  0  0  0
   22.9509  -21.3290  -14.3683 C   0  0  1  0  0  0  0  0  0  0  0  0
   21.8441  -20.4380  -14.7286 C   0  0  0  0  0  0  0  0  0  0  0  0
   21.7390  -20.5322  -16.2313 C   0  0  0  0  0  0  0  0  0  0  0  0
   22.5170  -19.5094  -16.9895 C   0  0  0  0  0  0  0  0  0  0  0  0
   22.2958  -19.5205  -18.4411 O   0  0  0  0  0  0  0  0  0  0  0  0
   22.8657  -18.6970  -19.1691 C   0  0  0  0  0  0  0  0  0  0  0  0
   20.5846  -20.8314  -14.0523 O   0  0  0  0  0  0  0  0  0  0  0  0
   20.4180  -21.8800  -13.3865 O   0  0  0  0  0  0  0  0  0  0  0  0
   21.4495  -20.4428  -19.0606 O   0  0  0  0  0  0  0  0  0  0  0  0
  1  5  1  0
  1  2  1  0
  2  3  1  0
  4  3  1  0
  5  4  1  0
  6  7  2  0
  5  6  1  1
  9  8  1  0
 10  9  2  0
 11  9  1  0
 12 13  1  0
 12 11  1  0
 13 14  1  0
 15 14  1  1
 15 16  1  0
 16  6  1  0
 17 15  1  0
 18 17  2  0
 19 17  1  0
 20 25  1  0
 20 19  1  0
 20 21  1  1
 22 21  1  0
 23 27  1  0
 23 22  1  0
 24 23  2  0
 25 28  1  0
 26 25  2  0
M  END
$$$$
