PRE.pdb
     RDKit          3D

 28 28  0  0  1  0  0  0  0  0999 V2000
   27.7207  -17.7367  -18.5045 N   0  0  0  0  0  0  0  0  0  0  0  0
   28.4934  -17.4579  -19.7488 C   0  0  0  0  0  0  0  0  0  0  0  0
   28.9242  -18.8260  -20.1865 C   0  0  0  0  0  0  0  0  0  0  0  0
   27.9558  -19.7574  -19.5292 C   0  0  0  0  0  0  0  0  0  0  0  0
   26.8633  -18.8309  -18.9868 C   0  0  1  0  0  0  0  0  0  0  0  0
   26.1886  -19.5336  -17.8672 C   0  0  0  0  0  0  0  0  0  0  0  0
   25.3676  -20.4429  -18.1261 O   0  0  0  0  0  0  0  0  0  0  0  0
   26.8593  -20.8296   -9.8854 N   0  0  0  0  0  0  0  0  0  0  0  0
   25.4786  -20.9386  -10.1570 C   0  0  0  0  0  0  0  0  0  0  0  0
   24.5819  -20.6787   -9.2369 N   0  0  0  0  0  0  0  0  0  0  0  0
   24.9665  -21.3273  -11.4144 N   0  0  0  0  0  0  0  0  0  0  0  0
   25.6309  -21.1648  -12.6703 C   0  0  0  0  0  0  0  0  0  0  0  0
   26.2313  -19.8085  -12.9067 C   0  0  0  0  0  0  0  0  0  0  0  0
   26.8497  -19.7241  -14.2500 C   0  0  0  0  0  0  0  0  0  0  0  0
   25.7775  -19.8057  -15.3928 C   0  0  2  0  0  0  0  0  0  0  0  0
   26.4614  -19.2016  -16.5190 N   0  0  0  0  0  0  0  0  0  0  0  0
   24.5060  -19.2629  -15.0276 C   0  0  0  0  0  0  0  0  0  0  0  0
   24.4173  -18.0173  -14.7489 O   0  0  0  0  0  0  0  0  0  0  0  0
   23.5895  -20.7980   -9.5007 N   0  0  0  0  0  0  0  0  0  0  0  0
   23.3130  -20.0306  -14.9593 C   0  0  2  0  0  0  0  0  0  0  0  0
   22.0590  -19.3667  -14.5910 C   0  0  0  0  0  0  0  0  0  0  0  0
   21.1164  -19.6478  -15.7358 C   0  0  0  0  0  0  0  0  0  0  0  0
   19.7277  -19.1318  -15.5588 C   0  0  0  0  0  0  0  0  0  0  0  0
   18.7992  -19.4817  -16.6412 O   0  0  0  0  0  0  0  0  0  0  0  0
   17.6806  -19.9453  -16.3832 C   0  0  0  0  0  0  0  0  0  0  0  0
   21.5359  -19.8678  -13.2973 O   0  0  0  0  0  0  0  0  0  0  0  0
   21.8801  -20.9381  -12.7436 O   0  0  0  0  0  0  0  0  0  0  0  0
   19.1247  -19.3113  -17.9886 O   0  0  0  0  0  0  0  0  0  0  0  0
  1  5  1  0
  1  2  1  0
  2  3  1  0
  4  3  1  0
  5  4  1  0
  6  7  2  0
  5  6  1  1
  9  8  1  0
 10  9  2  0
 11  9  1  0
 12 13  1  0
 12 11  1  0
 13 14  1  0
 15 14  1  1
 15 16  1  0
 16  6  1  0
 17 15  1  0
 18 17  2  0
 19 17  1  0
 20 25  1  0
 20 19  1  0
 20 21  1  6
 22 21  1  0
 23 27  1  0
 23 22  1  0
 24 23  2  0
 25 28  1  0
 26 25  2  0
M  END
$$$$
