PRE.pdb
     RDKit          3D

 28 28  0  0  1  0  0  0  0  0999 V2000
   28.0757  -23.1614  -17.6170 N   0  0  0  0  0  0  0  0  0  0  0  0
   29.0596  -24.1585  -18.1281 C   0  0  0  0  0  0  0  0  0  0  0  0
   28.9449  -25.2774  -17.1362 C   0  0  0  0  0  0  0  0  0  0  0  0
   27.5978  -25.0951  -16.5123 C   0  0  0  0  0  0  0  0  0  0  0  0
   26.9200  -24.0454  -17.3982 C   0  0  1  0  0  0  0  0  0  0  0  0
   25.8673  -23.3821  -16.5894 C   0  0  0  0  0  0  0  0  0  0  0  0
   24.7901  -23.9852  -16.3803 O   0  0  0  0  0  0  0  0  0  0  0  0
   25.2346  -20.3059   -9.6317 N   0  0  0  0  0  0  0  0  0  0  0  0
   26.4908  -20.4814  -10.2508 C   0  0  0  0  0  0  0  0  0  0  0  0
   27.4441  -21.1702   -9.6721 N   0  0  0  0  0  0  0  0  0  0  0  0
   26.8115  -19.9405  -11.5153 N   0  0  0  0  0  0  0  0  0  0  0  0
   25.9731  -19.0780  -12.2889 C   0  0  0  0  0  0  0  0  0  0  0  0
   25.1255  -19.7652  -13.3209 C   0  0  0  0  0  0  0  0  0  0  0  0
   25.9376  -20.6778  -14.1587 C   0  0  0  0  0  0  0  0  0  0  0  0
   25.0680  -21.4017  -15.2459 C   0  0  2  0  0  0  0  0  0  0  0  0
   26.0614  -22.0899  -16.0462 N   0  0  0  0  0  0  0  0  0  0  0  0
   24.1610  -20.5323  -15.9287 C   0  0  0  0  0  0  0  0  0  0  0  0
   24.6215  -19.6980  -16.7826 O   0  0  0  0  0  0  0  0  0  0  0  0
   28.3376  -21.2585  -10.1843 N   0  0  0  0  0  0  0  0  0  0  0  0
   22.7561  -20.5401  -15.7203 C   0  0  2  0  0  0  0  0  0  0  0  0
   21.9154  -19.6261  -16.4992 C   0  0  0  0  0  0  0  0  0  0  0  0
   20.4975  -20.0518  -16.2051 C   0  0  0  0  0  0  0  0  0  0  0  0
   19.4406  -19.2962  -16.9387 C   0  0  0  0  0  0  0  0  0  0  0  0
   18.0661  -19.7234  -16.6486 O   0  0  0  0  0  0  0  0  0  0  0  0
   17.8487  -20.6222  -15.8252 C   0  0  0  0  0  0  0  0  0  0  0  0
   22.1638  -18.2108  -16.1333 O   0  0  0  0  0  0  0  0  0  0  0  0
   22.5380  -17.8100  -15.0064 O   0  0  0  0  0  0  0  0  0  0  0  0
   16.9575  -19.1481  -17.2735 O   0  0  0  0  0  0  0  0  0  0  0  0
  1  5  1  0
  1  2  1  0
  2  3  1  0
  4  3  1  0
  5  4  1  0
  6  7  2  0
  5  6  1  1
  9  8  1  0
 10  9  2  0
 11  9  1  0
 12 13  1  0
 12 11  1  0
 13 14  1  0
 15 14  1  1
 15 16  1  0
 16  6  1  0
 17 15  1  0
 18 17  2  0
 19 17  1  0
 20 25  1  0
 20 19  1  0
 20 21  1  6
 22 21  1  0
 23 27  1  0
 23 22  1  0
 24 23  2  0
 25 28  1  0
 26 25  2  0
M  END
$$$$
