PRE.pdb
     RDKit          3D

 28 28  0  0  1  0  0  0  0  0999 V2000
   16.8269  -24.3824   -8.4269 N   0  0  0  0  0  0  0  0  0  0  0  0
   17.2131  -24.1337   -9.8455 C   0  0  0  0  0  0  0  0  0  0  0  0
   18.7097  -24.0679   -9.7761 C   0  0  0  0  0  0  0  0  0  0  0  0
   19.0641  -24.8000   -8.5208 C   0  0  0  0  0  0  0  0  0  0  0  0
   17.7547  -25.4789   -8.1076 C   0  0  1  0  0  0  0  0  0  0  0  0
   17.8191  -25.7354   -6.6473 C   0  0  0  0  0  0  0  0  0  0  0  0
   18.7281  -26.4699   -6.1980 O   0  0  0  0  0  0  0  0  0  0  0  0
   16.1252  -23.2724    0.3540 N   0  0  0  0  0  0  0  0  0  0  0  0
   15.2244  -22.3635   -0.2415 C   0  0  0  0  0  0  0  0  0  0  0  0
   14.9920  -21.1886    0.2912 N   0  0  0  0  0  0  0  0  0  0  0  0
   14.5187  -22.6429   -1.4324 N   0  0  0  0  0  0  0  0  0  0  0  0
   14.2148  -23.9474   -1.9336 C   0  0  0  0  0  0  0  0  0  0  0  0
   15.3997  -24.7524   -2.3850 C   0  0  0  0  0  0  0  0  0  0  0  0
   15.6656  -24.5499   -3.8280 C   0  0  0  0  0  0  0  0  0  0  0  0
   16.8358  -25.4614   -4.3399 C   0  0  2  0  0  0  0  0  0  0  0  0
   16.8810  -25.1608   -5.7572 N   0  0  0  0  0  0  0  0  0  0  0  0
   16.7018  -26.8343   -3.9630 C   0  0  0  0  0  0  0  0  0  0  0  0
   15.7884  -27.5441   -4.5099 O   0  0  0  0  0  0  0  0  0  0  0  0
   14.2658  -20.6049   -0.1564 N   0  0  0  0  0  0  0  0  0  0  0  0
   17.5366  -27.4731   -3.0079 C   0  0  2  0  0  0  0  0  0  0  0  0
   17.4325  -28.9242   -2.8284 C   0  0  0  0  0  0  0  0  0  0  0  0
   18.8175  -29.3694   -2.4262 C   0  0  0  0  0  0  0  0  0  0  0  0
   18.9761  -30.8364   -2.2058 C   0  0  0  0  0  0  0  0  0  0  0  0
   20.3238  -31.2550   -1.8003 O   0  0  0  0  0  0  0  0  0  0  0  0
   20.5266  -32.4049   -1.3886 C   0  0  0  0  0  0  0  0  0  0  0  0
   16.4125  -29.2764   -1.8114 O   0  0  0  0  0  0  0  0  0  0  0  0
   15.9990  -28.5134   -0.9073 O   0  0  0  0  0  0  0  0  0  0  0  0
   21.4223  -30.3945   -1.8588 O   0  0  0  0  0  0  0  0  0  0  0  0
  1  5  1  0
  1  2  1  0
  2  3  1  0
  4  3  1  0
  5  4  1  0
  6  7  2  0
  5  6  1  1
  9  8  1  0
 10  9  2  0
 11  9  1  0
 12 13  1  0
 12 11  1  0
 13 14  1  0
 15 14  1  6
 15 16  1  0
 16  6  1  0
 17 15  1  0
 18 17  2  0
 19 17  1  0
 20 25  1  0
 20 19  1  0
 20 21  1  6
 22 21  1  0
 23 27  1  0
 23 22  1  0
 24 23  2  0
 25 28  1  0
 26 25  2  0
M  END
$$$$
