PRE.pdb
     RDKit          3D

 28 28  0  0  1  0  0  0  0  0999 V2000
   19.2437  -13.6968  -17.6108 N   0  0  0  0  0  0  0  0  0  0  0  0
   18.2456  -14.8042  -17.5861 C   0  0  0  0  0  0  0  0  0  0  0  0
   18.3892  -15.3504  -16.1969 C   0  0  0  0  0  0  0  0  0  0  0  0
   18.9984  -14.2332  -15.4108 C   0  0  0  0  0  0  0  0  0  0  0  0
   18.8985  -13.0257  -16.3478 C   0  0  1  0  0  0  0  0  0  0  0  0
   19.9409  -12.0504  -15.9419 C   0  0  0  0  0  0  0  0  0  0  0  0
   19.8490  -11.4908  -14.8256 O   0  0  0  0  0  0  0  0  0  0  0  0
   26.8482  -13.1896  -15.6325 N   0  0  0  0  0  0  0  0  0  0  0  0
   26.5009  -14.1336  -16.6225 C   0  0  0  0  0  0  0  0  0  0  0  0
   26.8645  -15.3890  -16.5226 N   0  0  0  0  0  0  0  0  0  0  0  0
   25.7501  -13.8064  -17.7730 N   0  0  0  0  0  0  0  0  0  0  0  0
   25.0708  -12.5685  -17.9996 C   0  0  0  0  0  0  0  0  0  0  0  0
   23.9405  -12.2757  -17.0550 C   0  0  0  0  0  0  0  0  0  0  0  0
   23.1886  -11.0714  -17.4775 C   0  0  0  0  0  0  0  0  0  0  0  0
   22.0229  -10.7321  -16.4834 C   0  0  2  0  0  0  0  0  0  0  0  0
   21.0357  -11.7493  -16.7864 N   0  0  0  0  0  0  0  0  0  0  0  0
   21.5992   -9.3675  -16.5391 C   0  0  0  0  0  0  0  0  0  0  0  0
   20.7942   -9.0025  -17.4642 O   0  0  0  0  0  0  0  0  0  0  0  0
   26.5941  -16.0196  -17.2958 N   0  0  0  0  0  0  0  0  0  0  0  0
   22.0175   -8.3753  -15.6130 C   0  0  2  0  0  0  0  0  0  0  0  0
   21.5442   -6.9982  -15.7822 C   0  0  0  0  0  0  0  0  0  0  0  0
   21.8647   -6.3109  -14.4772 C   0  0  0  0  0  0  0  0  0  0  0  0
   21.4821   -4.8706  -14.4051 C   0  0  0  0  0  0  0  0  0  0  0  0
   21.8851   -4.1886  -13.1688 O   0  0  0  0  0  0  0  0  0  0  0  0
   22.4960   -4.8025  -12.2839 C   0  0  0  0  0  0  0  0  0  0  0  0
   22.1936   -6.3364  -16.9393 O   0  0  0  0  0  0  0  0  0  0  0  0
   21.6372   -5.5228  -17.7132 O   0  0  0  0  0  0  0  0  0  0  0  0
   21.6062   -2.8404  -12.9346 O   0  0  0  0  0  0  0  0  0  0  0  0
  1  5  1  0
  1  2  1  0
  2  3  1  0
  4  3  1  0
  5  4  1  0
  6  7  2  0
  5  6  1  1
  9  8  1  0
 10  9  2  0
 11  9  1  0
 12 13  1  0
 12 11  1  0
 13 14  1  0
 15 14  1  6
 15 16  1  0
 16  6  1  0
 17 15  1  0
 18 17  2  0
 19 17  1  0
 20 25  1  0
 20 19  1  0
 20 21  1  1
 22 21  1  0
 23 27  1  0
 23 22  1  0
 24 23  2  0
 25 28  1  0
 26 25  2  0
M  END
$$$$
