PRE.pdb
     RDKit          3D

 28 28  0  0  1  0  0  0  0  0999 V2000
   27.0117  -15.1185  -18.8494 N   0  0  0  0  0  0  0  0  0  0  0  0
   27.7136  -14.2861  -19.8680 C   0  0  0  0  0  0  0  0  0  0  0  0
   27.9067  -15.2446  -21.0052 C   0  0  0  0  0  0  0  0  0  0  0  0
   26.8706  -16.3018  -20.7906 C   0  0  0  0  0  0  0  0  0  0  0  0
   25.9699  -15.7190  -19.6974 C   0  0  1  0  0  0  0  0  0  0  0  0
   25.2936  -16.8513  -19.0168 C   0  0  0  0  0  0  0  0  0  0  0  0
   24.3783  -17.4615  -19.6146 O   0  0  0  0  0  0  0  0  0  0  0  0
   28.7568  -21.7975  -17.4296 N   0  0  0  0  0  0  0  0  0  0  0  0
   28.0722  -22.6993  -16.5870 C   0  0  0  0  0  0  0  0  0  0  0  0
   28.0773  -23.9887  -16.8234 N   0  0  0  0  0  0  0  0  0  0  0  0
   27.3443  -22.2917  -15.4475 N   0  0  0  0  0  0  0  0  0  0  0  0
   27.1814  -20.9425  -15.0024 C   0  0  0  0  0  0  0  0  0  0  0  0
   25.9674  -20.2349  -15.5327 C   0  0  0  0  0  0  0  0  0  0  0  0
   26.3481  -19.0968  -16.4008 C   0  0  0  0  0  0  0  0  0  0  0  0
   25.0931  -18.4014  -17.0361 C   0  0  2  0  0  0  0  0  0  0  0  0
   25.6686  -17.2566  -17.7139 N   0  0  0  0  0  0  0  0  0  0  0  0
   24.0402  -18.1512  -16.1016 C   0  0  0  0  0  0  0  0  0  0  0  0
   24.2637  -17.3842  -15.1021 O   0  0  0  0  0  0  0  0  0  0  0  0
   27.6255  -24.5972  -16.1205 N   0  0  0  0  0  0  0  0  0  0  0  0
   22.7373  -18.7046  -16.2174 C   0  0  2  0  0  0  0  0  0  0  0  0
   21.7611  -18.4573  -15.1522 C   0  0  0  0  0  0  0  0  0  0  0  0
   20.4388  -18.2978  -15.8622 C   0  0  0  0  0  0  0  0  0  0  0  0
   19.9047  -19.5366  -16.4998 C   0  0  0  0  0  0  0  0  0  0  0  0
   18.4752  -19.7796  -16.2687 O   0  0  0  0  0  0  0  0  0  0  0  0
   17.8304  -19.0511  -15.5029 C   0  0  0  0  0  0  0  0  0  0  0  0
   21.7383  -19.5636  -14.1653 O   0  0  0  0  0  0  0  0  0  0  0  0
   22.2850  -20.6809  -14.3184 O   0  0  0  0  0  0  0  0  0  0  0  0
   17.7851  -20.8230  -16.8897 O   0  0  0  0  0  0  0  0  0  0  0  0
  1  5  1  0
  1  2  1  0
  2  3  1  0
  4  3  1  0
  5  4  1  0
  6  7  2  0
  5  6  1  1
  9  8  1  0
 10  9  2  0
 11  9  1  0
 12 13  1  0
 12 11  1  0
 13 14  1  0
 15 14  1  1
 15 16  1  0
 16  6  1  0
 17 15  1  0
 18 17  2  0
 19 17  1  0
 20 25  1  0
 20 19  1  0
 20 21  1  6
 22 21  1  0
 23 27  1  0
 23 22  1  0
 24 23  2  0
 25 28  1  0
 26 25  2  0
M  END
$$$$
