PRE.pdb
     RDKit          3D

 28 28  0  0  1  0  0  0  0  0999 V2000
   21.5762  -27.6619  -12.3639 N   0  0  0  0  0  0  0  0  0  0  0  0
   21.5850  -26.5095  -13.3099 C   0  0  0  0  0  0  0  0  0  0  0  0
   20.3408  -26.7322  -14.1170 C   0  0  0  0  0  0  0  0  0  0  0  0
   19.4819  -27.6046  -13.2576 C   0  0  0  0  0  0  0  0  0  0  0  0
   20.1832  -27.5861  -11.8960 C   0  0  1  0  0  0  0  0  0  0  0  0
   19.7828  -28.8134  -11.1640 C   0  0  0  0  0  0  0  0  0  0  0  0
   18.6421  -28.8709  -10.6508 O   0  0  0  0  0  0  0  0  0  0  0  0
   26.6321  -33.1359   -9.3532 N   0  0  0  0  0  0  0  0  0  0  0  0
   25.4294  -33.7971   -9.0240 C   0  0  0  0  0  0  0  0  0  0  0  0
   25.3957  -34.7286   -8.1024 N   0  0  0  0  0  0  0  0  0  0  0  0
   24.1950  -33.5124   -9.6481 N   0  0  0  0  0  0  0  0  0  0  0  0
   23.9508  -32.4368  -10.5584 C   0  0  0  0  0  0  0  0  0  0  0  0
   22.8025  -31.5391  -10.1962 C   0  0  0  0  0  0  0  0  0  0  0  0
   21.5182  -32.0877  -10.6898 C   0  0  0  0  0  0  0  0  0  0  0  0
   20.3114  -31.1432  -10.3525 C   0  0  2  0  0  0  0  0  0  0  0  0
   20.6598  -29.9174  -11.0432 N   0  0  0  0  0  0  0  0  0  0  0  0
   20.0267  -31.0517   -8.9542 C   0  0  0  0  0  0  0  0  0  0  0  0
   20.6223  -30.1616   -8.2542 O   0  0  0  0  0  0  0  0  0  0  0  0
   24.4860  -35.1893   -7.9327 N   0  0  0  0  0  0  0  0  0  0  0  0
   19.1040  -31.8969   -8.2821 C   0  0  2  0  0  0  0  0  0  0  0  0
   18.9146  -31.7381   -6.8372 C   0  0  0  0  0  0  0  0  0  0  0  0
   17.4475  -31.4274   -6.6666 C   0  0  0  0  0  0  0  0  0  0  0  0
   17.0812  -29.9875   -6.8037 C   0  0  0  0  0  0  0  0  0  0  0  0
   15.6754  -29.6803   -6.5114 O   0  0  0  0  0  0  0  0  0  0  0  0
   14.7664  -30.3109   -7.0675 C   0  0  0  0  0  0  0  0  0  0  0  0
   19.3200  -32.9569   -6.0965 O   0  0  0  0  0  0  0  0  0  0  0  0
   19.5874  -34.0647   -6.6178 O   0  0  0  0  0  0  0  0  0  0  0  0
   15.3010  -28.6825   -5.6088 O   0  0  0  0  0  0  0  0  0  0  0  0
  1  5  1  0
  1  2  1  0
  2  3  1  0
  4  3  1  0
  5  4  1  0
  6  7  2  0
  5  6  1  1
  9  8  1  0
 10  9  2  0
 11  9  1  0
 12 13  1  0
 12 11  1  0
 13 14  1  0
 15 14  1  1
 15 16  1  0
 16  6  1  0
 17 15  1  0
 18 17  2  0
 19 17  1  0
 20 25  1  0
 20 19  1  0
 20 21  1  6
 22 21  1  0
 23 27  1  0
 23 22  1  0
 24 23  2  0
 25 28  1  0
 26 25  2  0
M  END
$$$$
