PRE.pdb
     RDKit          3D

 28 28  0  0  1  0  0  0  0  0999 V2000
   23.5214  -24.2511  -14.6576 N   0  0  0  0  0  0  0  0  0  0  0  0
   24.8740  -24.1683  -15.2796 C   0  0  0  0  0  0  0  0  0  0  0  0
   25.0019  -22.7099  -15.6045 C   0  0  0  0  0  0  0  0  0  0  0  0
   24.0297  -22.0311  -14.6929 C   0  0  0  0  0  0  0  0  0  0  0  0
   23.6172  -23.1303  -13.7092 C   0  0  1  0  0  0  0  0  0  0  0  0
   22.2899  -22.7663  -13.1541 C   0  0  0  0  0  0  0  0  0  0  0  0
   22.2090  -21.8137  -12.3455 O   0  0  0  0  0  0  0  0  0  0  0  0
   14.5216  -23.5829  -14.6314 N   0  0  0  0  0  0  0  0  0  0  0  0
   14.3859  -22.6883  -13.5481 C   0  0  0  0  0  0  0  0  0  0  0  0
   13.2070  -22.3761  -13.0674 N   0  0  0  0  0  0  0  0  0  0  0  0
   15.4861  -22.0733  -12.9111 N   0  0  0  0  0  0  0  0  0  0  0  0
   16.8020  -21.9499  -13.4572 C   0  0  0  0  0  0  0  0  0  0  0  0
   17.4629  -23.2446  -13.8352 C   0  0  0  0  0  0  0  0  0  0  0  0
   18.8899  -23.0378  -14.1741 C   0  0  0  0  0  0  0  0  0  0  0  0
   19.8209  -23.2327  -12.9260 C   0  0  2  0  0  0  0  0  0  0  0  0
   21.1189  -23.4678  -13.5268 N   0  0  0  0  0  0  0  0  0  0  0  0
   19.3400  -24.2078  -11.9972 C   0  0  0  0  0  0  0  0  0  0  0  0
   19.3956  -25.4471  -12.3105 O   0  0  0  0  0  0  0  0  0  0  0  0
   13.1855  -21.7500  -12.2452 N   0  0  0  0  0  0  0  0  0  0  0  0
   18.8009  -23.8829  -10.7240 C   0  0  2  0  0  0  0  0  0  0  0  0
   18.3739  -24.9665   -9.8338 C   0  0  0  0  0  0  0  0  0  0  0  0
   18.7806  -24.5200   -8.4505 C   0  0  0  0  0  0  0  0  0  0  0  0
   18.4446  -25.4699   -7.3502 C   0  0  0  0  0  0  0  0  0  0  0  0
   18.9444  -25.0785   -6.0261 O   0  0  0  0  0  0  0  0  0  0  0  0
   19.6101  -24.0438   -5.8873 C   0  0  0  0  0  0  0  0  0  0  0  0
   16.9158  -25.2151   -9.9372 O   0  0  0  0  0  0  0  0  0  0  0  0
   16.0439  -24.3357  -10.1293 O   0  0  0  0  0  0  0  0  0  0  0  0
   18.6977  -25.8378   -4.8802 O   0  0  0  0  0  0  0  0  0  0  0  0
  1  5  1  0
  1  2  1  0
  2  3  1  0
  4  3  1  0
  5  4  1  0
  6  7  2  0
  5  6  1  6
  9  8  1  0
 10  9  2  0
 11  9  1  0
 12 13  1  0
 12 11  1  0
 13 14  1  0
 15 14  1  6
 15 16  1  0
 16  6  1  0
 17 15  1  0
 18 17  2  0
 19 17  1  0
 20 25  1  0
 20 19  1  0
 20 21  1  6
 22 21  1  0
 23 27  1  0
 23 22  1  0
 24 23  2  0
 25 28  1  0
 26 25  2  0
M  END
$$$$
