PRE.pdb
     RDKit          3D

 28 28  0  0  1  0  0  0  0  0999 V2000
   28.5481  -20.6896  -17.4777 N   0  0  0  0  0  0  0  0  0  0  0  0
   29.7480  -20.7974  -18.3563 C   0  0  0  0  0  0  0  0  0  0  0  0
   30.4745  -21.9778  -17.7838 C   0  0  0  0  0  0  0  0  0  0  0  0
   29.4264  -22.7457  -17.0427 C   0  0  0  0  0  0  0  0  0  0  0  0
   28.1117  -22.0948  -17.4831 C   0  0  1  0  0  0  0  0  0  0  0  0
   27.1005  -22.3593  -16.4296 C   0  0  0  0  0  0  0  0  0  0  0  0
   26.6485  -23.5195  -16.2976 O   0  0  0  0  0  0  0  0  0  0  0  0
   23.8479  -20.0734   -9.7855 N   0  0  0  0  0  0  0  0  0  0  0  0
   24.9191  -20.5142   -8.9791 C   0  0  0  0  0  0  0  0  0  0  0  0
   24.9103  -20.3374   -7.6803 N   0  0  0  0  0  0  0  0  0  0  0  0
   26.0593  -21.1667   -9.4975 N   0  0  0  0  0  0  0  0  0  0  0  0
   26.6551  -20.9143  -10.7728 C   0  0  0  0  0  0  0  0  0  0  0  0
   25.8234  -21.3121  -11.9585 C   0  0  0  0  0  0  0  0  0  0  0  0
   26.5493  -21.0692  -13.2267 C   0  0  0  0  0  0  0  0  0  0  0  0
   25.7272  -21.5539  -14.4723 C   0  0  2  0  0  0  0  0  0  0  0  0
   26.6463  -21.3306  -15.5707 N   0  0  0  0  0  0  0  0  0  0  0  0
   24.4294  -20.9615  -14.5701 C   0  0  0  0  0  0  0  0  0  0  0  0
   24.3334  -19.6998  -14.7600 O   0  0  0  0  0  0  0  0  0  0  0  0
   25.7383  -20.6656   -7.1556 N   0  0  0  0  0  0  0  0  0  0  0  0
   23.2189  -21.6982  -14.4746 C   0  0  2  0  0  0  0  0  0  0  0  0
   21.9418  -20.9860  -14.5764 C   0  0  0  0  0  0  0  0  0  0  0  0
   20.8965  -22.0697  -14.6823 C   0  0  0  0  0  0  0  0  0  0  0  0
   19.4913  -21.5879  -14.8212 C   0  0  0  0  0  0  0  0  0  0  0  0
   18.4839  -22.6514  -14.9210 O   0  0  0  0  0  0  0  0  0  0  0  0
   18.8196  -23.8416  -14.8604 C   0  0  0  0  0  0  0  0  0  0  0  0
   21.7160  -20.1008  -13.4085 O   0  0  0  0  0  0  0  0  0  0  0  0
   22.0721  -20.3494  -12.2329 O   0  0  0  0  0  0  0  0  0  0  0  0
   17.1239  -22.3789  -15.0848 O   0  0  0  0  0  0  0  0  0  0  0  0
  1  5  1  0
  1  2  1  0
  2  3  1  0
  4  3  1  0
  5  4  1  0
  6  7  2  0
  5  6  1  1
  9  8  1  0
 10  9  2  0
 11  9  1  0
 12 13  1  0
 12 11  1  0
 13 14  1  0
 15 14  1  1
 15 16  1  0
 16  6  1  0
 17 15  1  0
 18 17  2  0
 19 17  1  0
 20 25  1  0
 20 19  1  0
 20 21  1  6
 22 21  1  0
 23 27  1  0
 23 22  1  0
 24 23  2  0
 25 28  1  0
 26 25  2  0
M  END
$$$$
