PRE.pdb
     RDKit          3D

 28 28  0  0  1  0  0  0  0  0999 V2000
   27.8908  -21.5054  -11.5615 N   0  0  0  0  0  0  0  0  0  0  0  0
   29.2230  -21.5755  -10.8954 C   0  0  0  0  0  0  0  0  0  0  0  0
   30.1541  -21.0788  -11.9609 C   0  0  0  0  0  0  0  0  0  0  0  0
   29.2862  -20.2822  -12.8824 C   0  0  0  0  0  0  0  0  0  0  0  0
   27.9653  -20.1458  -12.1191 C   0  0  1  0  0  0  0  0  0  0  0  0
   26.8911  -19.9009  -13.1133 C   0  0  0  0  0  0  0  0  0  0  0  0
   26.8796  -18.8185  -13.7426 O   0  0  0  0  0  0  0  0  0  0  0  0
   26.5549  -25.9406  -16.2055 N   0  0  0  0  0  0  0  0  0  0  0  0
   27.6464  -25.1208  -16.5643 C   0  0  0  0  0  0  0  0  0  0  0  0
   28.8705  -25.5892  -16.5862 N   0  0  0  0  0  0  0  0  0  0  0  0
   27.5077  -23.7613  -16.9205 N   0  0  0  0  0  0  0  0  0  0  0  0
   26.2724  -23.0465  -17.0123 C   0  0  0  0  0  0  0  0  0  0  0  0
   26.1596  -21.8447  -16.1186 C   0  0  0  0  0  0  0  0  0  0  0  0
   24.9567  -21.9288  -15.2584 C   0  0  0  0  0  0  0  0  0  0  0  0
   24.8177  -20.6755  -14.3244 C   0  0  2  0  0  0  0  0  0  0  0  0
   25.8893  -20.8675  -13.3675 N   0  0  0  0  0  0  0  0  0  0  0  0
   23.4984  -20.4891  -13.8055 C   0  0  0  0  0  0  0  0  0  0  0  0
   23.1091  -21.2074  -12.8208 O   0  0  0  0  0  0  0  0  0  0  0  0
   29.6198  -24.9332  -16.8632 N   0  0  0  0  0  0  0  0  0  0  0  0
   22.5784  -19.5364  -14.3185 C   0  0  2  0  0  0  0  0  0  0  0  0
   21.2911  -19.3532  -13.6417 C   0  0  0  0  0  0  0  0  0  0  0  0
   20.6546  -18.1676  -14.3253 C   0  0  0  0  0  0  0  0  0  0  0  0
   19.2832  -17.8199  -13.8515 C   0  0  0  0  0  0  0  0  0  0  0  0
   18.6745  -16.6657  -14.5248 O   0  0  0  0  0  0  0  0  0  0  0  0
   17.6358  -16.8002  -15.1852 C   0  0  0  0  0  0  0  0  0  0  0  0
   20.4496  -20.5708  -13.7309 O   0  0  0  0  0  0  0  0  0  0  0  0
   20.4194  -21.3594  -14.7045 O   0  0  0  0  0  0  0  0  0  0  0  0
   19.2250  -15.3841  -14.4543 O   0  0  0  0  0  0  0  0  0  0  0  0
  1  5  1  0
  1  2  1  0
  2  3  1  0
  4  3  1  0
  5  4  1  0
  6  7  2  0
  5  6  1  6
  9  8  1  0
 10  9  2  0
 11  9  1  0
 12 13  1  0
 12 11  1  0
 13 14  1  0
 15 14  1  6
 15 16  1  0
 16  6  1  0
 17 15  1  0
 18 17  2  0
 19 17  1  0
 20 25  1  0
 20 19  1  0
 20 21  1  6
 22 21  1  0
 23 27  1  0
 23 22  1  0
 24 23  2  0
 25 28  1  0
 26 25  2  0
M  END
$$$$
