PRE.pdb
     RDKit          3D

 28 28  0  0  1  0  0  0  0  0999 V2000
   26.2897  -10.5094  -17.0883 N   0  0  0  0  0  0  0  0  0  0  0  0
   27.2802  -11.2703  -16.2740 C   0  0  0  0  0  0  0  0  0  0  0  0
   26.6604  -11.2677  -14.9085 C   0  0  0  0  0  0  0  0  0  0  0  0
   25.2049  -11.0242  -15.1527 C   0  0  0  0  0  0  0  0  0  0  0  0
   25.0530  -11.1869  -16.6682 C   0  0  1  0  0  0  0  0  0  0  0  0
   23.8451  -10.4325  -17.0855 C   0  0  0  0  0  0  0  0  0  0  0  0
   23.2824  -10.7326  -18.1631 O   0  0  0  0  0  0  0  0  0  0  0  0
   16.7013   -9.8936  -13.9368 N   0  0  0  0  0  0  0  0  0  0  0  0
   16.3381   -9.7413  -15.2922 C   0  0  0  0  0  0  0  0  0  0  0  0
   15.1230   -9.3893  -15.6353 N   0  0  0  0  0  0  0  0  0  0  0  0
   17.2365   -9.9514  -16.3614 N   0  0  0  0  0  0  0  0  0  0  0  0
   18.6002  -10.3629  -16.2344 C   0  0  0  0  0  0  0  0  0  0  0  0
   19.6196   -9.2901  -16.4905 C   0  0  0  0  0  0  0  0  0  0  0  0
   20.9970   -9.8231  -16.3771 C   0  0  0  0  0  0  0  0  0  0  0  0
   22.0759   -8.7035  -16.5893 C   0  0  2  0  0  0  0  0  0  0  0  0
   23.3158   -9.3907  -16.2874 N   0  0  0  0  0  0  0  0  0  0  0  0
   21.8011   -7.4974  -15.8720 C   0  0  0  0  0  0  0  0  0  0  0  0
   21.3702   -7.5722  -14.6696 O   0  0  0  0  0  0  0  0  0  0  0  0
   14.9464   -9.2287  -16.6411 N   0  0  0  0  0  0  0  0  0  0  0  0
   21.9851   -6.1987  -16.4167 C   0  0  2  0  0  0  0  0  0  0  0  0
   21.6011   -5.0307  -15.6186 C   0  0  0  0  0  0  0  0  0  0  0  0
   20.1113   -5.1661  -15.4181 C   0  0  0  0  0  0  0  0  0  0  0  0
   19.4628   -4.0418  -14.6822 C   0  0  0  0  0  0  0  0  0  0  0  0
   18.2532   -3.5065  -15.3196 O   0  0  0  0  0  0  0  0  0  0  0  0
   17.2246   -4.1923  -15.3893 C   0  0  0  0  0  0  0  0  0  0  0  0
   22.3382   -4.9820  -14.3329 O   0  0  0  0  0  0  0  0  0  0  0  0
   23.1610   -5.8409  -13.9379 O   0  0  0  0  0  0  0  0  0  0  0  0
   18.2031   -2.2226  -15.8670 O   0  0  0  0  0  0  0  0  0  0  0  0
  1  5  1  0
  1  2  1  0
  2  3  1  0
  4  3  1  0
  5  4  1  0
  6  7  2  0
  5  6  1  6
  9  8  1  0
 10  9  2  0
 11  9  1  0
 12 13  1  0
 12 11  1  0
 13 14  1  0
 15 14  1  1
 15 16  1  0
 16  6  1  0
 17 15  1  0
 18 17  2  0
 19 17  1  0
 20 25  1  0
 20 19  1  0
 20 21  1  6
 22 21  1  0
 23 27  1  0
 23 22  1  0
 24 23  2  0
 25 28  1  0
 26 25  2  0
M  END
$$$$
