PRE.pdb
     RDKit          3D

 28 28  0  0  1  0  0  0  0  0999 V2000
   14.4713  -20.7125    2.1087 N   0  0  0  0  0  0  0  0  0  0  0  0
   14.0140  -21.6479    1.0415 C   0  0  0  0  0  0  0  0  0  0  0  0
   15.3035  -22.1327    0.4491 C   0  0  0  0  0  0  0  0  0  0  0  0
   16.3238  -21.8985    1.5175 C   0  0  0  0  0  0  0  0  0  0  0  0
   15.4896  -21.5551    2.7553 C   0  0  1  0  0  0  0  0  0  0  0  0
   16.3481  -20.7692    3.6760 C   0  0  0  0  0  0  0  0  0  0  0  0
   17.3621  -21.3101    4.1729 O   0  0  0  0  0  0  0  0  0  0  0  0
   18.7836  -12.3939    3.5901 N   0  0  0  0  0  0  0  0  0  0  0  0
   18.7834  -12.7476    4.9565 C   0  0  0  0  0  0  0  0  0  0  0  0
   19.2853  -11.9482    5.8660 N   0  0  0  0  0  0  0  0  0  0  0  0
   18.2533  -13.9640    5.4399 N   0  0  0  0  0  0  0  0  0  0  0  0
   17.6632  -14.9916    4.6394 C   0  0  0  0  0  0  0  0  0  0  0  0
   17.1347  -16.1732    5.4011 C   0  0  0  0  0  0  0  0  0  0  0  0
   16.5166  -17.1641    4.4900 C   0  0  0  0  0  0  0  0  0  0  0  0
   16.8088  -18.6373    4.9442 C   0  0  2  0  0  0  0  0  0  0  0  0
   16.0471  -19.4237    3.9943 N   0  0  0  0  0  0  0  0  0  0  0  0
   16.5656  -18.8690    6.3342 C   0  0  0  0  0  0  0  0  0  0  0  0
   15.3584  -18.9507    6.7501 O   0  0  0  0  0  0  0  0  0  0  0  0
   19.2661  -12.2793    6.8451 N   0  0  0  0  0  0  0  0  0  0  0  0
   17.5970  -19.0230    7.2984 C   0  0  2  0  0  0  0  0  0  0  0  0
   17.2333  -19.2573    8.6990 C   0  0  0  0  0  0  0  0  0  0  0  0
   17.8643  -20.5825    9.0509 C   0  0  0  0  0  0  0  0  0  0  0  0
   17.5985  -21.0664   10.4370 C   0  0  0  0  0  0  0  0  0  0  0  0
   18.2302  -22.3489   10.7721 O   0  0  0  0  0  0  0  0  0  0  0  0
   18.9152  -22.9492    9.9334 C   0  0  0  0  0  0  0  0  0  0  0  0
   17.7066  -18.1598    9.5766 O   0  0  0  0  0  0  0  0  0  0  0  0
   18.4586  -17.2224    9.2210 O   0  0  0  0  0  0  0  0  0  0  0  0
   18.0935  -22.9430   12.0286 O   0  0  0  0  0  0  0  0  0  0  0  0
  1  5  1  0
  1  2  1  0
  2  3  1  0
  4  3  1  0
  5  4  1  0
  6  7  2  0
  5  6  1  1
  9  8  1  0
 10  9  2  0
 11  9  1  0
 12 13  1  0
 12 11  1  0
 13 14  1  0
 15 14  1  6
 15 16  1  0
 16  6  1  0
 17 15  1  0
 18 17  2  0
 19 17  1  0
 20 25  1  0
 20 19  1  0
 20 21  1  6
 22 21  1  0
 23 27  1  0
 23 22  1  0
 24 23  2  0
 25 28  1  0
 26 25  2  0
M  END
$$$$
