SHV.pdb
     RDKit          3D

 24 24  0  0  1  0  0  0  0  0999 V2000
    8.8633  -12.2279   20.2346 O   0  0  0  0  0  0  0  0  0  0  0  0
    8.2103  -12.8049   19.1304 C   0  0  0  0  0  0  0  0  0  0  0  0
    8.3669  -14.3176   19.1839 C   0  0  2  0  0  0  0  0  0  0  0  0
    7.7338  -14.8747   18.0283 N   0  0  0  0  0  0  0  0  0  0  0  0
    7.8160  -14.8406   20.4636 C   0  0  0  0  0  0  0  0  0  0  0  0
    6.5836  -14.9178   20.5975 O   0  0  0  0  0  0  0  0  0  0  0  0
    8.6624  -15.2537   21.5352 N   0  0  0  0  0  0  0  0  0  0  0  0
    8.1780  -15.7065   22.8153 C   0  0  1  0  0  0  0  0  0  0  0  0
    8.3716  -17.1376   23.1147 C   0  0  0  0  0  0  0  0  0  0  0  0
    7.8475  -18.0942   22.1358 C   0  0  0  0  0  0  0  0  0  0  0  0
    6.5335  -18.3923   21.8837 C   0  0  0  0  0  0  0  0  0  0  0  0
    6.4849  -19.3377   20.9287 N   0  0  0  0  0  0  0  0  0  0  0  0
    7.7283  -19.6442   20.5721 C   0  0  0  0  0  0  0  0  0  0  0  0
    8.5618  -18.8941   21.3000 N   0  0  0  0  0  0  0  0  0  0  0  0
    8.6481  -14.8143   23.9194 C   0  0  0  0  0  0  0  0  0  0  0  0
    9.8488  -14.4670   24.0109 O   0  0  0  0  0  0  0  0  0  0  0  0
    5.8384  -13.2165   26.8113 C   0  0  0  0  0  0  0  0  0  0  0  0
    7.0667  -12.4529   26.3603 C   0  0  2  0  0  0  0  0  0  0  0  0
    6.7501  -11.4762   25.2559 C   0  0  0  0  0  0  0  0  0  0  0  0
    8.1808  -13.4096   25.9693 C   0  0  2  0  0  0  0  0  0  0  0  0
    7.7667  -14.3159   24.9159 N   0  0  0  0  0  0  0  0  0  0  0  0
    8.4801  -14.2468   27.1624 C   0  0  0  0  0  0  0  0  0  0  0  0
    8.1128  -15.5910   27.0826 O   0  0  0  0  0  0  0  0  0  0  0  0
    9.0248  -13.8137   28.1915 O   0  0  0  0  0  0  0  0  0  0  0  0
  2  3  1  0
  2  1  1  0
  3  4  1  6
  5  6  2  0
  5  3  1  0
  7  5  1  0
  8  7  1  0
  8 15  1  0
  8  9  1  1
 10  9  1  0
 11 10  2  0
 12 13  1  0
 12 11  1  0
 13 14  2  0
 14 10  1  0
 15 21  1  0
 16 15  2  0
 18 17  1  6
 18 20  1  0
 19 18  1  0
 20 22  1  0
 20 21  1  6
 22 24  2  0
 22 23  1  0
M  END
$$$$
