SHV.pdb
     RDKit          3D

 24 24  0  0  1  0  0  0  0  0999 V2000
    4.1347  -18.8819   24.3726 O   0  0  0  0  0  0  0  0  0  0  0  0
    5.4082  -18.2945   24.2641 C   0  0  0  0  0  0  0  0  0  0  0  0
    5.7639  -18.1263   22.7941 C   0  0  2  0  0  0  0  0  0  0  0  0
    5.5282  -19.3717   22.1308 N   0  0  0  0  0  0  0  0  0  0  0  0
    7.1670  -17.6483   22.6622 C   0  0  0  0  0  0  0  0  0  0  0  0
    8.0883  -18.4808   22.6920 O   0  0  0  0  0  0  0  0  0  0  0  0
    7.4800  -16.2654   22.5033 N   0  0  0  0  0  0  0  0  0  0  0  0
    8.8230  -15.7482   22.4199 C   0  0  1  0  0  0  0  0  0  0  0  0
    9.1129  -14.8739   21.2681 C   0  0  0  0  0  0  0  0  0  0  0  0
    8.9863  -15.4721   19.9361 C   0  0  0  0  0  0  0  0  0  0  0  0
    8.7289  -16.7840   19.6334 C   0  0  0  0  0  0  0  0  0  0  0  0
    8.7161  -16.9198   18.2956 N   0  0  0  0  0  0  0  0  0  0  0  0
    8.9580  -15.7334   17.7469 C   0  0  0  0  0  0  0  0  0  0  0  0
    9.1234  -14.8489   18.7355 N   0  0  0  0  0  0  0  0  0  0  0  0
    9.2572  -15.1549   23.7220 C   0  0  0  0  0  0  0  0  0  0  0  0
   10.3957  -14.6498   23.8614 O   0  0  0  0  0  0  0  0  0  0  0  0
    6.4124  -13.9157   26.6104 C   0  0  0  0  0  0  0  0  0  0  0  0
    7.8353  -13.4042   26.5153 C   0  0  2  0  0  0  0  0  0  0  0  0
    7.9490  -12.2215   25.5868 C   0  0  0  0  0  0  0  0  0  0  0  0
    8.7843  -14.5251   26.1248 C   0  0  2  0  0  0  0  0  0  0  0  0
    8.4099  -15.1317   24.8621 N   0  0  0  0  0  0  0  0  0  0  0  0
    8.6635  -15.5848   27.1624 C   0  0  0  0  0  0  0  0  0  0  0  0
    9.1876  -15.2814   28.4200 O   0  0  0  0  0  0  0  0  0  0  0  0
    8.1336  -16.6904   26.9626 O   0  0  0  0  0  0  0  0  0  0  0  0
  2  3  1  0
  2  1  1  0
  3  4  1  6
  5  6  2  0
  5  3  1  0
  7  5  1  0
  8  7  1  0
  8 15  1  0
  8  9  1  6
 10  9  1  0
 11 10  2  0
 12 13  1  0
 12 11  1  0
 13 14  2  0
 14 10  1  0
 15 21  1  0
 16 15  2  0
 18 17  1  6
 18 20  1  0
 19 18  1  0
 20 22  1  0
 20 21  1  6
 22 24  2  0
 22 23  1  0
M  END
$$$$
