SHV.pdb
     RDKit          3D

 24 24  0  0  1  0  0  0  0  0999 V2000
    9.7218  -13.4425   20.8159 O   0  0  0  0  0  0  0  0  0  0  0  0
    8.3915  -13.6671   20.4179 C   0  0  0  0  0  0  0  0  0  0  0  0
    8.0885  -15.1569   20.4841 C   0  0  2  0  0  0  0  0  0  0  0  0
    6.7979  -15.3776   19.9077 N   0  0  0  0  0  0  0  0  0  0  0  0
    8.1922  -15.6347   21.8897 C   0  0  0  0  0  0  0  0  0  0  0  0
    7.2174  -15.4875   22.6453 O   0  0  0  0  0  0  0  0  0  0  0  0
    9.3762  -16.2542   22.3894 N   0  0  0  0  0  0  0  0  0  0  0  0
    9.4662  -16.8992   23.6755 C   0  0  1  0  0  0  0  0  0  0  0  0
   10.0705  -18.2444   23.6876 C   0  0  0  0  0  0  0  0  0  0  0  0
    9.3151  -19.3139   23.0289 C   0  0  0  0  0  0  0  0  0  0  0  0
    8.0456  -19.2433   22.5170 C   0  0  0  0  0  0  0  0  0  0  0  0
    7.7166  -20.4491   22.0209 N   0  0  0  0  0  0  0  0  0  0  0  0
    8.7404  -21.2769   22.2053 C   0  0  0  0  0  0  0  0  0  0  0  0
    9.7150  -20.5960   22.8167 N   0  0  0  0  0  0  0  0  0  0  0  0
   10.0624  -15.9864   24.6990 C   0  0  0  0  0  0  0  0  0  0  0  0
   11.1891  -15.4642   24.5301 O   0  0  0  0  0  0  0  0  0  0  0  0
    8.2456  -13.1005   26.6696 C   0  0  0  0  0  0  0  0  0  0  0  0
    8.9498  -14.0002   27.6645 C   0  0  2  0  0  0  0  0  0  0  0  0
    9.5512  -13.2184   28.8052 C   0  0  0  0  0  0  0  0  0  0  0  0
    9.9824  -14.8693   26.9661 C   0  0  2  0  0  0  0  0  0  0  0  0
    9.3897  -15.6643   25.9082 N   0  0  0  0  0  0  0  0  0  0  0  0
   10.5088  -15.8253   27.9776 C   0  0  0  0  0  0  0  0  0  0  0  0
   11.5918  -15.3847   28.7400 O   0  0  0  0  0  0  0  0  0  0  0  0
   10.0404  -16.9604   28.1652 O   0  0  0  0  0  0  0  0  0  0  0  0
  2  3  1  0
  2  1  1  0
  3  4  1  1
  5  6  2  0
  5  3  1  0
  7  5  1  0
  8  7  1  0
  8 15  1  0
  8  9  1  6
 10  9  1  0
 11 10  2  0
 12 13  1  0
 12 11  1  0
 13 14  2  0
 14 10  1  0
 15 21  1  0
 16 15  2  0
 18 17  1  6
 18 20  1  0
 19 18  1  0
 20 22  1  0
 20 21  1  6
 22 24  2  0
 22 23  1  0
M  END
$$$$
