SHV.pdb
     RDKit          3D

 24 24  0  0  1  0  0  0  0  0999 V2000
   11.7004  -13.7712   18.9259 O   0  0  0  0  0  0  0  0  0  0  0  0
   10.6278  -13.7974   19.8356 C   0  0  0  0  0  0  0  0  0  0  0  0
    9.4029  -14.3923   19.1562 C   0  0  2  0  0  0  0  0  0  0  0  0
    8.9522  -13.4711   18.1588 N   0  0  0  0  0  0  0  0  0  0  0  0
    8.3632  -14.7116   20.1719 C   0  0  0  0  0  0  0  0  0  0  0  0
    7.2303  -15.0429   19.7851 O   0  0  0  0  0  0  0  0  0  0  0  0
    8.6325  -14.6473   21.5715 N   0  0  0  0  0  0  0  0  0  0  0  0
    8.0491  -15.5358   22.5454 C   0  0  1  0  0  0  0  0  0  0  0  0
    8.0959  -16.9743   22.2237 C   0  0  0  0  0  0  0  0  0  0  0  0
    7.5819  -17.8958   23.2409 C   0  0  0  0  0  0  0  0  0  0  0  0
    6.7698  -17.5946   24.3034 C   0  0  0  0  0  0  0  0  0  0  0  0
    6.5500  -18.7197   25.0063 N   0  0  0  0  0  0  0  0  0  0  0  0
    7.1993  -19.7201   24.4189 C   0  0  0  0  0  0  0  0  0  0  0  0
    7.8284  -19.2287   23.3465 N   0  0  0  0  0  0  0  0  0  0  0  0
    8.5472  -15.2329   23.9224 C   0  0  0  0  0  0  0  0  0  0  0  0
    9.7496  -15.4016   24.2330 O   0  0  0  0  0  0  0  0  0  0  0  0
    7.6035  -11.6593   27.1457 C   0  0  0  0  0  0  0  0  0  0  0  0
    7.0894  -12.6932   26.1649 C   0  0  2  0  0  0  0  0  0  0  0  0
    5.7487  -13.2459   26.5786 C   0  0  0  0  0  0  0  0  0  0  0  0
    8.1166  -13.7935   25.9563 C   0  0  2  0  0  0  0  0  0  0  0  0
    7.6917  -14.7416   24.9447 N   0  0  0  0  0  0  0  0  0  0  0  0
    8.2189  -14.5475   27.2350 C   0  0  0  0  0  0  0  0  0  0  0  0
    8.9320  -13.9282   28.2627 O   0  0  0  0  0  0  0  0  0  0  0  0
    7.7131  -15.6671   27.4195 O   0  0  0  0  0  0  0  0  0  0  0  0
  2  3  1  0
  2  1  1  0
  3  4  1  6
  5  6  2  0
  5  3  1  0
  7  5  1  0
  8  7  1  0
  8 15  1  0
  8  9  1  6
 10  9  1  0
 11 10  2  0
 12 13  1  0
 12 11  1  0
 13 14  2  0
 14 10  1  0
 15 21  1  0
 16 15  2  0
 18 17  1  1
 18 20  1  0
 19 18  1  0
 20 22  1  0
 20 21  1  6
 22 24  2  0
 22 23  1  0
M  END
$$$$
