SHV.pdb
     RDKit          3D

 24 24  0  0  1  0  0  0  0  0999 V2000
    9.4839  -17.9023   18.5730 O   0  0  0  0  0  0  0  0  0  0  0  0
    9.1570  -17.4622   19.8684 C   0  0  0  0  0  0  0  0  0  0  0  0
    8.1418  -18.4137   20.4847 C   0  0  2  0  0  0  0  0  0  0  0  0
    7.4124  -19.0386   19.4244 N   0  0  0  0  0  0  0  0  0  0  0  0
    7.2709  -17.6779   21.4411 C   0  0  0  0  0  0  0  0  0  0  0  0
    6.0788  -17.4934   21.1450 O   0  0  0  0  0  0  0  0  0  0  0  0
    7.7672  -17.1812   22.6830 N   0  0  0  0  0  0  0  0  0  0  0  0
    6.9418  -16.5642   23.6911 C   0  0  1  0  0  0  0  0  0  0  0  0
    6.1742  -17.4815   24.5540 C   0  0  0  0  0  0  0  0  0  0  0  0
    6.9473  -18.4035   25.3908 C   0  0  0  0  0  0  0  0  0  0  0  0
    8.3101  -18.5424   25.4373 C   0  0  0  0  0  0  0  0  0  0  0  0
    8.6115  -19.5127   26.3182 N   0  0  0  0  0  0  0  0  0  0  0  0
    7.4797  -19.9893   26.8273 C   0  0  0  0  0  0  0  0  0  0  0  0
    6.4645  -19.3216   26.2698 N   0  0  0  0  0  0  0  0  0  0  0  0
    7.7083  -15.5422   24.4683 C   0  0  0  0  0  0  0  0  0  0  0  0
    8.9612  -15.5485   24.4960 O   0  0  0  0  0  0  0  0  0  0  0  0
    7.6747  -11.0007   26.4805 C   0  0  0  0  0  0  0  0  0  0  0  0
    6.8831  -12.1786   25.9500 C   0  0  2  0  0  0  0  0  0  0  0  0
    5.6557  -12.4540   26.7816 C   0  0  0  0  0  0  0  0  0  0  0  0
    7.7685  -13.4070   25.8215 C   0  0  2  0  0  0  0  0  0  0  0  0
    7.0633  -14.5172   25.2111 N   0  0  0  0  0  0  0  0  0  0  0  0
    8.1301  -13.8343   27.2001 C   0  0  0  0  0  0  0  0  0  0  0  0
    9.0958  -13.0660   27.8524 O   0  0  0  0  0  0  0  0  0  0  0  0
    7.6254  -14.8130   27.7751 O   0  0  0  0  0  0  0  0  0  0  0  0
  2  3  1  0
  2  1  1  0
  3  4  1  6
  5  6  2  0
  5  3  1  0
  7  5  1  0
  8  7  1  0
  8 15  1  0
  8  9  1  1
 10  9  1  0
 11 10  2  0
 12 13  1  0
 12 11  1  0
 13 14  2  0
 14 10  1  0
 15 21  1  0
 16 15  2  0
 18 17  1  1
 18 20  1  0
 19 18  1  0
 20 22  1  0
 20 21  1  1
 22 24  2  0
 22 23  1  0
M  END
$$$$
