SHV.pdb
     RDKit          3D

 24 24  0  0  1  0  0  0  0  0999 V2000
   10.3490  -13.2364   20.2349 O   0  0  0  0  0  0  0  0  0  0  0  0
    9.8672  -14.1885   19.3184 C   0  0  0  0  0  0  0  0  0  0  0  0
    8.3494  -14.2524   19.4066 C   0  0  2  0  0  0  0  0  0  0  0  0
    7.8205  -13.0100   18.9341 N   0  0  0  0  0  0  0  0  0  0  0  0
    7.9344  -14.5745   20.7990 C   0  0  0  0  0  0  0  0  0  0  0  0
    7.3699  -13.6974   21.4734 O   0  0  0  0  0  0  0  0  0  0  0  0
    8.1668  -15.8582   21.3764 N   0  0  0  0  0  0  0  0  0  0  0  0
    7.6921  -16.2531   22.6792 C   0  0  1  0  0  0  0  0  0  0  0  0
    7.8245  -17.6834   23.0135 C   0  0  0  0  0  0  0  0  0  0  0  0
    7.3846  -18.0928   24.3503 C   0  0  0  0  0  0  0  0  0  0  0  0
    6.8582  -17.2965   25.3341 C   0  0  0  0  0  0  0  0  0  0  0  0
    6.6082  -18.0586   26.4134 N   0  0  0  0  0  0  0  0  0  0  0  0
    6.9616  -19.3105   26.1392 C   0  0  0  0  0  0  0  0  0  0  0  0
    7.4340  -19.3402   24.8889 N   0  0  0  0  0  0  0  0  0  0  0  0
    8.2307  -15.3556   23.7472 C   0  0  0  0  0  0  0  0  0  0  0  0
    9.4387  -15.0229   23.7719 O   0  0  0  0  0  0  0  0  0  0  0  0
    5.8610  -12.4151   25.3002 C   0  0  0  0  0  0  0  0  0  0  0  0
    6.6960  -13.0944   26.3664 C   0  0  2  0  0  0  0  0  0  0  0  0
    7.1557  -12.1249   27.4259 C   0  0  0  0  0  0  0  0  0  0  0  0
    7.8601  -13.8444   25.7404 C   0  0  2  0  0  0  0  0  0  0  0  0
    7.4091  -14.8357   24.7831 N   0  0  0  0  0  0  0  0  0  0  0  0
    8.5450  -14.5848   26.8343 C   0  0  0  0  0  0  0  0  0  0  0  0
    8.2958  -15.9565   26.9031 O   0  0  0  0  0  0  0  0  0  0  0  0
    9.3036  -14.0511   27.6606 O   0  0  0  0  0  0  0  0  0  0  0  0
  2  3  1  0
  2  1  1  0
  3  4  1  1
  5  6  2  0
  5  3  1  0
  7  5  1  0
  8  7  1  0
  8 15  1  0
  8  9  1  1
 10  9  1  0
 11 10  2  0
 12 13  1  0
 12 11  1  0
 13 14  2  0
 14 10  1  0
 15 21  1  0
 16 15  2  0
 18 17  1  6
 18 20  1  0
 19 18  1  0
 20 22  1  0
 20 21  1  6
 22 24  2  0
 22 23  1  0
M  END
$$$$
