SHV.pdb
     RDKit          3D

 24 24  0  0  1  0  0  0  0  0999 V2000
    8.6584  -14.3188   19.3021 O   0  0  0  0  0  0  0  0  0  0  0  0
    8.2340  -15.4586   18.5954 C   0  0  0  0  0  0  0  0  0  0  0  0
    8.2485  -16.6640   19.5241 C   0  0  2  0  0  0  0  0  0  0  0  0
    7.8656  -17.8165   18.7681 N   0  0  0  0  0  0  0  0  0  0  0  0
    7.3672  -16.4128   20.6966 C   0  0  0  0  0  0  0  0  0  0  0  0
    6.1862  -16.7947   20.6505 O   0  0  0  0  0  0  0  0  0  0  0  0
    7.8413  -15.7479   21.8665 N   0  0  0  0  0  0  0  0  0  0  0  0
    7.5321  -16.1658   23.2112 C   0  0  1  0  0  0  0  0  0  0  0  0
    7.6870  -17.6043   23.4970 C   0  0  0  0  0  0  0  0  0  0  0  0
    7.4659  -18.0303   24.8819 C   0  0  0  0  0  0  0  0  0  0  0  0
    6.6159  -17.4702   25.7999 C   0  0  0  0  0  0  0  0  0  0  0  0
    6.7303  -18.1459   26.9568 N   0  0  0  0  0  0  0  0  0  0  0  0
    7.6268  -19.1142   26.7953 C   0  0  0  0  0  0  0  0  0  0  0  0
    8.0784  -19.0512   25.5386 N   0  0  0  0  0  0  0  0  0  0  0  0
    8.2150  -15.2975   24.2191 C   0  0  0  0  0  0  0  0  0  0  0  0
    9.4639  -15.2727   24.3194 O   0  0  0  0  0  0  0  0  0  0  0  0
    5.9553  -12.9333   27.1025 C   0  0  0  0  0  0  0  0  0  0  0  0
    7.1732  -12.3838   26.3884 C   0  0  2  0  0  0  0  0  0  0  0  0
    6.7957  -11.5326   25.2023 C   0  0  0  0  0  0  0  0  0  0  0  0
    8.1216  -13.5066   26.0018 C   0  0  2  0  0  0  0  0  0  0  0  0
    7.4911  -14.4605   25.1101 N   0  0  0  0  0  0  0  0  0  0  0  0
    8.4608  -14.2443   27.2488 C   0  0  0  0  0  0  0  0  0  0  0  0
    9.3598  -13.6174   28.1130 O   0  0  0  0  0  0  0  0  0  0  0  0
    7.9929  -15.3570   27.5424 O   0  0  0  0  0  0  0  0  0  0  0  0
  2  3  1  0
  2  1  1  0
  3  4  1  6
  5  6  2  0
  5  3  1  0
  7  5  1  0
  8  7  1  0
  8 15  1  0
  8  9  1  6
 10  9  1  0
 11 10  2  0
 12 13  1  0
 12 11  1  0
 13 14  2  0
 14 10  1  0
 15 21  1  0
 16 15  2  0
 18 17  1  6
 18 20  1  0
 19 18  1  0
 20 22  1  0
 20 21  1  6
 22 24  2  0
 22 23  1  0
M  END
$$$$
