SHV.pdb
     RDKit          3D

 24 24  0  0  1  0  0  0  0  0999 V2000
   13.2204  -13.7802   19.7329 O   0  0  0  0  0  0  0  0  0  0  0  0
   11.8769  -13.8941   20.1339 C   0  0  0  0  0  0  0  0  0  0  0  0
   11.4791  -15.3627   20.1581 C   0  0  2  0  0  0  0  0  0  0  0  0
   11.2745  -15.7936   18.8093 N   0  0  0  0  0  0  0  0  0  0  0  0
   10.2817  -15.5507   21.0215 C   0  0  0  0  0  0  0  0  0  0  0  0
    9.1540  -15.4122   20.5195 O   0  0  0  0  0  0  0  0  0  0  0  0
   10.3948  -15.8842   22.4041 N   0  0  0  0  0  0  0  0  0  0  0  0
    9.2667  -16.0764   23.2809 C   0  0  1  0  0  0  0  0  0  0  0  0
    8.8782  -17.4746   23.5437 C   0  0  0  0  0  0  0  0  0  0  0  0
    8.4625  -18.2734   22.3873 C   0  0  0  0  0  0  0  0  0  0  0  0
    7.2708  -18.2056   21.7133 C   0  0  0  0  0  0  0  0  0  0  0  0
    7.2823  -19.1233   20.7306 N   0  0  0  0  0  0  0  0  0  0  0  0
    8.4449  -19.7672   20.7655 C   0  0  0  0  0  0  0  0  0  0  0  0
    9.1673  -19.2576   21.7683 N   0  0  0  0  0  0  0  0  0  0  0  0
    9.4086  -15.2691   24.5316 C   0  0  0  0  0  0  0  0  0  0  0  0
   10.4672  -15.2858   25.2022 O   0  0  0  0  0  0  0  0  0  0  0  0
    5.9547  -13.5144   26.3974 C   0  0  0  0  0  0  0  0  0  0  0  0
    7.2659  -12.7566   26.4359 C   0  0  2  0  0  0  0  0  0  0  0  0
    7.2996  -11.6354   25.4280 C   0  0  0  0  0  0  0  0  0  0  0  0
    8.4405  -13.7060   26.2675 C   0  0  2  0  0  0  0  0  0  0  0  0
    8.3601  -14.4462   25.0232 N   0  0  0  0  0  0  0  0  0  0  0  0
    8.3591  -14.7052   27.3671 C   0  0  0  0  0  0  0  0  0  0  0  0
    8.8116  -14.2852   28.6189 O   0  0  0  0  0  0  0  0  0  0  0  0
    7.9201  -15.8582   27.2221 O   0  0  0  0  0  0  0  0  0  0  0  0
  2  3  1  0
  2  1  1  0
  3  4  1  6
  5  6  2  0
  5  3  1  0
  7  5  1  0
  8  7  1  0
  8 15  1  0
  8  9  1  1
 10  9  1  0
 11 10  2  0
 12 13  1  0
 12 11  1  0
 13 14  2  0
 14 10  1  0
 15 21  1  0
 16 15  2  0
 18 17  1  6
 18 20  1  0
 19 18  1  0
 20 22  1  0
 20 21  1  6
 22 24  2  0
 22 23  1  0
M  END
$$$$
