SHV.pdb
     RDKit          3D

 24 24  0  0  1  0  0  0  0  0999 V2000
    8.9697  -14.8256   20.3789 O   0  0  0  0  0  0  0  0  0  0  0  0
    7.9678  -15.4362   19.6030 C   0  0  0  0  0  0  0  0  0  0  0  0
    7.6295  -16.7971   20.1940 C   0  0  2  0  0  0  0  0  0  0  0  0
    6.7078  -17.4501   19.3162 N   0  0  0  0  0  0  0  0  0  0  0  0
    7.1062  -16.6344   21.5777 C   0  0  0  0  0  0  0  0  0  0  0  0
    5.9128  -16.3275   21.7340 O   0  0  0  0  0  0  0  0  0  0  0  0
    7.9356  -16.8207   22.7235 N   0  0  0  0  0  0  0  0  0  0  0  0
    7.4843  -16.6446   24.0813 C   0  0  1  0  0  0  0  0  0  0  0  0
    7.4902  -17.8507   24.9301 C   0  0  0  0  0  0  0  0  0  0  0  0
    6.7196  -19.0009   24.4490 C   0  0  0  0  0  0  0  0  0  0  0  0
    5.6498  -18.9870   23.5923 C   0  0  0  0  0  0  0  0  0  0  0  0
    5.2186  -20.2497   23.4258 N   0  0  0  0  0  0  0  0  0  0  0  0
    5.9842  -21.0582   24.1521 C   0  0  0  0  0  0  0  0  0  0  0  0
    6.8979  -20.3084   24.7766 N   0  0  0  0  0  0  0  0  0  0  0  0
    8.1569  -15.4765   24.7288 C   0  0  0  0  0  0  0  0  0  0  0  0
    9.3625  -15.2138   24.5092 O   0  0  0  0  0  0  0  0  0  0  0  0
    5.9992  -12.8437   27.4686 C   0  0  0  0  0  0  0  0  0  0  0  0
    7.0863  -12.3572   26.5322 C   0  0  2  0  0  0  0  0  0  0  0  0
    6.5187  -11.7821   25.2590 C   0  0  0  0  0  0  0  0  0  0  0  0
    8.0921  -13.4624   26.2563 C   0  0  2  0  0  0  0  0  0  0  0  0
    7.4716  -14.6084   25.6205 N   0  0  0  0  0  0  0  0  0  0  0  0
    8.6056  -13.9281   27.5729 C   0  0  0  0  0  0  0  0  0  0  0  0
    8.2644  -15.2295   27.9445 O   0  0  0  0  0  0  0  0  0  0  0  0
    9.3016  -13.2305   28.3292 O   0  0  0  0  0  0  0  0  0  0  0  0
  2  3  1  0
  2  1  1  0
  3  4  1  6
  5  6  2  0
  5  3  1  0
  7  5  1  0
  8  7  1  0
  8 15  1  0
  8  9  1  1
 10  9  1  0
 11 10  2  0
 12 13  1  0
 12 11  1  0
 13 14  2  0
 14 10  1  0
 15 21  1  0
 16 15  2  0
 18 17  1  1
 18 20  1  0
 19 18  1  0
 20 22  1  0
 20 21  1  1
 22 24  2  0
 22 23  1  0
M  END
$$$$
