SHV.pdb
     RDKit          3D

 24 24  0  0  1  0  0  0  0  0999 V2000
    9.2520  -20.8065   17.5646 O   0  0  0  0  0  0  0  0  0  0  0  0
    8.4494  -20.1736   16.5983 C   0  0  0  0  0  0  0  0  0  0  0  0
    9.2029  -18.9882   16.0126 C   0  0  2  0  0  0  0  0  0  0  0  0
   10.4104  -19.4741   15.4189 N   0  0  0  0  0  0  0  0  0  0  0  0
    9.4388  -17.9648   17.0670 C   0  0  0  0  0  0  0  0  0  0  0  0
   10.5486  -17.9230   17.6231 O   0  0  0  0  0  0  0  0  0  0  0  0
    8.4281  -17.0351   17.4538 N   0  0  0  0  0  0  0  0  0  0  0  0
    8.6199  -16.0015   18.4404 C   0  0  1  0  0  0  0  0  0  0  0  0
    7.6295  -14.9087   18.4384 C   0  0  0  0  0  0  0  0  0  0  0  0
    7.9124  -13.7591   19.3024 C   0  0  0  0  0  0  0  0  0  0  0  0
    7.3771  -13.4926   20.5358 C   0  0  0  0  0  0  0  0  0  0  0  0
    7.8831  -12.3283   20.9793 N   0  0  0  0  0  0  0  0  0  0  0  0
    8.7204  -11.8535   20.0624 C   0  0  0  0  0  0  0  0  0  0  0  0
    8.7441  -12.7157   19.0410 N   0  0  0  0  0  0  0  0  0  0  0  0
    8.8378  -16.5840   19.8003 C   0  0  0  0  0  0  0  0  0  0  0  0
    8.1754  -17.5692   20.2018 O   0  0  0  0  0  0  0  0  0  0  0  0
   12.2644  -15.5058   22.1582 C   0  0  0  0  0  0  0  0  0  0  0  0
   11.4891  -16.7959   22.3302 C   0  0  2  0  0  0  0  0  0  0  0  0
   12.0672  -17.9164   21.5030 C   0  0  0  0  0  0  0  0  0  0  0  0
   10.0134  -16.5790   22.0390 C   0  0  2  0  0  0  0  0  0  0  0  0
    9.7996  -16.0568   20.7033 N   0  0  0  0  0  0  0  0  0  0  0  0
    9.5259  -15.5419   22.9882 C   0  0  0  0  0  0  0  0  0  0  0  0
    9.1572  -14.3170   22.4299 O   0  0  0  0  0  0  0  0  0  0  0  0
    9.4366  -15.7153   24.2150 O   0  0  0  0  0  0  0  0  0  0  0  0
  2  3  1  0
  2  1  1  0
  3  4  1  1
  5  6  2  0
  5  3  1  0
  7  5  1  0
  8  7  1  0
  8 15  1  0
  8  9  1  1
 10  9  1  0
 11 10  2  0
 12 13  1  0
 12 11  1  0
 13 14  2  0
 14 10  1  0
 15 21  1  0
 16 15  2  0
 18 17  1  6
 18 20  1  0
 19 18  1  0
 20 22  1  0
 20 21  1  6
 22 24  2  0
 22 23  1  0
M  END
$$$$
