SHV.pdb
     RDKit          3D

 24 24  0  0  1  0  0  0  0  0999 V2000
    9.9726  -12.1013   18.5145 O   0  0  0  0  0  0  0  0  0  0  0  0
    9.0082  -12.5214   19.4483 C   0  0  0  0  0  0  0  0  0  0  0  0
    8.7103  -13.9988   19.2377 C   0  0  2  0  0  0  0  0  0  0  0  0
    7.8208  -14.1222   18.1241 N   0  0  0  0  0  0  0  0  0  0  0  0
    8.1672  -14.5913   20.4902 C   0  0  0  0  0  0  0  0  0  0  0  0
    6.9373  -14.6012   20.6634 O   0  0  0  0  0  0  0  0  0  0  0  0
    9.0182  -15.1454   21.4922 N   0  0  0  0  0  0  0  0  0  0  0  0
    8.5393  -15.8373   22.6628 C   0  0  1  0  0  0  0  0  0  0  0  0
    8.9368  -17.2518   22.7903 C   0  0  0  0  0  0  0  0  0  0  0  0
    8.3494  -18.1920   21.8315 C   0  0  0  0  0  0  0  0  0  0  0  0
    7.4545  -17.9118   20.8318 C   0  0  0  0  0  0  0  0  0  0  0  0
    7.1509  -19.0571   20.1959 N   0  0  0  0  0  0  0  0  0  0  0  0
    7.8272  -20.0500   20.7652 C   0  0  0  0  0  0  0  0  0  0  0  0
    8.5572  -19.5337   21.7591 N   0  0  0  0  0  0  0  0  0  0  0  0
    8.8019  -15.0470   23.9049 C   0  0  0  0  0  0  0  0  0  0  0  0
    9.9593  -14.6742   24.2084 O   0  0  0  0  0  0  0  0  0  0  0  0
    6.0408  -12.4219   25.2785 C   0  0  0  0  0  0  0  0  0  0  0  0
    6.6838  -13.1782   26.4230 C   0  0  2  0  0  0  0  0  0  0  0  0
    6.9007  -12.2993   27.6290 C   0  0  0  0  0  0  0  0  0  0  0  0
    7.9711  -13.8465   25.9694 C   0  0  2  0  0  0  0  0  0  0  0  0
    7.7625  -14.6788   24.8005 N   0  0  0  0  0  0  0  0  0  0  0  0
    8.4075  -14.7507   27.0676 C   0  0  0  0  0  0  0  0  0  0  0  0
    9.2735  -14.2008   28.0141 O   0  0  0  0  0  0  0  0  0  0  0  0
    8.0453  -15.9342   27.1734 O   0  0  0  0  0  0  0  0  0  0  0  0
  2  3  1  0
  2  1  1  0
  3  4  1  6
  5  6  2  0
  5  3  1  0
  7  5  1  0
  8  7  1  0
  8 15  1  0
  8  9  1  1
 10  9  1  0
 11 10  2  0
 12 13  1  0
 12 11  1  0
 13 14  2  0
 14 10  1  0
 15 21  1  0
 16 15  2  0
 18 17  1  6
 18 20  1  0
 19 18  1  0
 20 22  1  0
 20 21  1  6
 22 24  2  0
 22 23  1  0
M  END
$$$$
