IDK.pdb
     RDKit          3D

 26 25  0  0  1  0  0  0  0  0999 V2000
    6.6227  -11.2796   26.7558 C   0  0  0  0  0  0  0  0  0  0  0  0
    6.0173  -12.4497   26.0513 C   0  0  0  0  0  0  0  0  0  0  0  0
    7.0015  -13.3923   25.4453 C   0  0  2  0  0  0  0  0  0  0  0  0
    7.9343  -12.6259   24.5556 C   0  0  0  0  0  0  0  0  0  0  0  0
    6.3607  -14.5623   24.7390 C   0  0  2  0  0  0  0  0  0  0  0  0
    5.5430  -15.2535   25.7017 N   0  0  0  0  0  0  0  0  0  0  0  0
    7.3542  -15.5025   24.1901 C   0  0  0  0  0  0  0  0  0  0  0  0
    7.7872  -16.4696   24.8565 O   0  0  0  0  0  0  0  0  0  0  0  0
    7.8496  -15.3302   22.8744 N   0  0  0  0  0  0  0  0  0  0  0  0
    8.8127  -16.2412   22.3456 C   0  0  1  0  0  0  0  0  0  0  0  0
    9.1233  -16.0858   20.8994 C   0  0  0  0  0  0  0  0  0  0  0  0
   10.0668  -17.0880   20.3593 C   0  0  0  0  0  0  0  0  0  0  0  0
   11.2110  -17.2009   20.8729 O   0  0  0  0  0  0  0  0  0  0  0  0
   10.1061  -16.1312   23.1181 C   0  0  0  0  0  0  0  0  0  0  0  0
   10.7108  -15.0144   23.1322 O   0  0  0  0  0  0  0  0  0  0  0  0
    9.7782  -17.9345   19.3046 O   0  0  0  0  0  0  0  0  0  0  0  0
   10.6489  -17.2171   23.8090 N   0  0  0  0  0  0  0  0  0  0  0  0
   11.8149  -17.0968   24.7375 C   0  0  1  0  0  0  0  0  0  0  0  0
   11.4532  -17.9353   25.8852 C   0  0  0  0  0  0  0  0  0  0  0  0
   12.3799  -18.3786   26.9193 C   0  0  0  0  0  0  0  0  0  0  0  0
   11.9820  -19.3439   27.9690 C   0  0  0  0  0  0  0  0  0  0  0  0
   13.2945  -19.6653   28.7675 C   0  0  0  0  0  0  0  0  0  0  0  0
   12.9409  -20.6293   29.7917 N   0  0  0  0  0  0  0  0  0  0  0  0
   12.9835  -17.3730   23.9340 C   0  0  0  0  0  0  0  0  0  0  0  0
   13.1541  -18.3294   22.9436 O   0  0  0  0  0  0  0  0  0  0  0  0
   14.0513  -16.6743   24.1158 O   0  0  0  0  0  0  0  0  0  0  0  0
  1  2  1  0
  3  4  1  6
  3  2  1  0
  5  3  1  0
  5  6  1  1
  7  5  1  0
  8  7  2  0
  9  7  1  0
 10  9  1  0
 10 14  1  0
 10 11  1  6
 12 11  1  0
 13 12  2  0
 14 15  2  0
 14 17  1  0
 16 12  1  0
 17 18  1  0
 18 19  1  1
 19 20  1  0
 21 20  1  0
 22 21  1  0
 23 22  1  0
 24 18  1  0
 24 25  1  0
 26 24  2  0
M  END
$$$$
