IDK.pdb
     RDKit          3D

 26 25  0  0  1  0  0  0  0  0999 V2000
    7.5793  -12.9139   26.3794 C   0  0  0  0  0  0  0  0  0  0  0  0
    7.3601  -13.9211   25.2980 C   0  0  0  0  0  0  0  0  0  0  0  0
    7.9561  -13.5618   23.9788 C   0  0  2  0  0  0  0  0  0  0  0  0
    7.3586  -12.2710   23.5035 C   0  0  0  0  0  0  0  0  0  0  0  0
    7.8505  -14.6608   22.9494 C   0  0  2  0  0  0  0  0  0  0  0  0
    6.4595  -15.0142   22.8351 N   0  0  0  0  0  0  0  0  0  0  0  0
    8.6212  -15.8600   23.3240 C   0  0  0  0  0  0  0  0  0  0  0  0
    8.0784  -16.8542   23.8567 O   0  0  0  0  0  0  0  0  0  0  0  0
   10.0162  -15.9156   23.0856 N   0  0  0  0  0  0  0  0  0  0  0  0
   10.7437  -17.1127   23.3597 C   0  0  1  0  0  0  0  0  0  0  0  0
   11.9825  -17.3131   22.5615 C   0  0  0  0  0  0  0  0  0  0  0  0
   11.7605  -17.4851   21.1097 C   0  0  0  0  0  0  0  0  0  0  0  0
   10.7778  -18.1635   20.7099 O   0  0  0  0  0  0  0  0  0  0  0  0
   11.1138  -17.1681   24.8231 C   0  0  0  0  0  0  0  0  0  0  0  0
   11.4546  -16.0912   25.4037 O   0  0  0  0  0  0  0  0  0  0  0  0
   12.5727  -16.9410   20.1318 O   0  0  0  0  0  0  0  0  0  0  0  0
   11.0927  -18.3633   25.5460 N   0  0  0  0  0  0  0  0  0  0  0  0
   11.5655  -18.4733   26.9604 C   0  0  1  0  0  0  0  0  0  0  0  0
   10.8964  -19.6728   27.4747 C   0  0  0  0  0  0  0  0  0  0  0  0
   10.9439  -20.1253   28.8594 C   0  0  0  0  0  0  0  0  0  0  0  0
   10.3465  -21.4110   29.2863 C   0  0  0  0  0  0  0  0  0  0  0  0
   10.6970  -21.5552   30.8095 C   0  0  0  0  0  0  0  0  0  0  0  0
   10.0288  -22.7510   31.2857 N   0  0  0  0  0  0  0  0  0  0  0  0
   13.0057  -18.3748   26.8990 C   0  0  0  0  0  0  0  0  0  0  0  0
   13.8860  -17.8704   27.8452 O   0  0  0  0  0  0  0  0  0  0  0  0
   13.6201  -18.7897   25.8446 O   0  0  0  0  0  0  0  0  0  0  0  0
  1  2  1  0
  3  4  1  6
  3  2  1  0
  5  3  1  0
  5  6  1  1
  7  5  1  0
  8  7  2  0
  9  7  1  0
 10  9  1  0
 10 14  1  0
 10 11  1  6
 12 11  1  0
 13 12  2  0
 14 15  2  0
 14 17  1  0
 16 12  1  0
 17 18  1  0
 18 19  1  6
 19 20  1  0
 21 20  1  0
 22 21  1  0
 23 22  1  0
 24 18  1  0
 24 25  1  0
 26 24  2  0
M  END
$$$$
