IDK.pdb
     RDKit          3D

 26 25  0  0  1  0  0  0  0  0999 V2000
    7.1482  -11.6602   19.5896 C   0  0  0  0  0  0  0  0  0  0  0  0
    7.3930  -13.0783   19.1882 C   0  0  0  0  0  0  0  0  0  0  0  0
    8.0167  -13.9280   20.2434 C   0  0  2  0  0  0  0  0  0  0  0  0
    9.2981  -13.2923   20.6941 C   0  0  0  0  0  0  0  0  0  0  0  0
    8.2008  -15.3676   19.8285 C   0  0  2  0  0  0  0  0  0  0  0  0
    6.9456  -15.8275   19.2939 N   0  0  0  0  0  0  0  0  0  0  0  0
    8.5887  -16.2341   20.9559 C   0  0  0  0  0  0  0  0  0  0  0  0
    7.7450  -16.6844   21.7635 O   0  0  0  0  0  0  0  0  0  0  0  0
    9.9470  -16.5826   21.1543 N   0  0  0  0  0  0  0  0  0  0  0  0
   10.3299  -17.3598   22.2886 C   0  0  1  0  0  0  0  0  0  0  0  0
   11.6633  -18.0131   22.2040 C   0  0  0  0  0  0  0  0  0  0  0  0
   11.8364  -18.9156   21.0456 C   0  0  0  0  0  0  0  0  0  0  0  0
   12.8612  -18.8048   20.3223 O   0  0  0  0  0  0  0  0  0  0  0  0
   10.3044  -16.5039   23.5331 C   0  0  0  0  0  0  0  0  0  0  0  0
   11.1243  -15.5380   23.6217 O   0  0  0  0  0  0  0  0  0  0  0  0
   10.9330  -19.8996   20.6882 O   0  0  0  0  0  0  0  0  0  0  0  0
    9.4114  -16.7475   24.5792 N   0  0  0  0  0  0  0  0  0  0  0  0
    9.3689  -15.9254   25.8277 C   0  0  1  0  0  0  0  0  0  0  0  0
    8.1044  -15.1884   25.7344 C   0  0  0  0  0  0  0  0  0  0  0  0
    7.9884  -13.7638   25.4484 C   0  0  0  0  0  0  0  0  0  0  0  0
    6.6780  -13.0763   25.4020 C   0  0  0  0  0  0  0  0  0  0  0  0
    6.6359  -12.1599   26.6756 C   0  0  0  0  0  0  0  0  0  0  0  0
    5.3737  -11.4464   26.6415 N   0  0  0  0  0  0  0  0  0  0  0  0
    9.6330  -16.8457   26.9098 C   0  0  0  0  0  0  0  0  0  0  0  0
   10.1628  -16.5858   28.1654 O   0  0  0  0  0  0  0  0  0  0  0  0
    9.3678  -18.0969   26.7502 O   0  0  0  0  0  0  0  0  0  0  0  0
  1  2  1  0
  3  4  1  6
  3  2  1  0
  5  3  1  0
  5  6  1  1
  7  5  1  0
  8  7  2  0
  9  7  1  0
 10  9  1  0
 10 14  1  0
 10 11  1  6
 12 11  1  0
 13 12  2  0
 14 15  2  0
 14 17  1  0
 16 12  1  0
 17 18  1  0
 18 19  1  1
 19 20  1  0
 21 20  1  0
 22 21  1  0
 23 22  1  0
 24 18  1  0
 24 25  1  0
 26 24  2  0
M  END
$$$$
