IDK.pdb
     RDKit          3D

 26 25  0  0  1  0  0  0  0  0999 V2000
    7.2278  -11.8573   19.1604 C   0  0  0  0  0  0  0  0  0  0  0  0
    7.8113  -13.1781   18.7773 C   0  0  0  0  0  0  0  0  0  0  0  0
    8.2189  -14.0383   19.9255 C   0  0  2  0  0  0  0  0  0  0  0  0
    9.1597  -13.2713   20.8062 C   0  0  0  0  0  0  0  0  0  0  0  0
    8.7796  -15.3762   19.5082 C   0  0  2  0  0  0  0  0  0  0  0  0
    7.8026  -16.0093   18.6610 N   0  0  0  0  0  0  0  0  0  0  0  0
    9.0583  -16.2543   20.6587 C   0  0  0  0  0  0  0  0  0  0  0  0
    8.1423  -16.8354   21.2833 O   0  0  0  0  0  0  0  0  0  0  0  0
   10.3908  -16.4640   21.0906 N   0  0  0  0  0  0  0  0  0  0  0  0
   10.6508  -17.2146   22.2764 C   0  0  1  0  0  0  0  0  0  0  0  0
   11.9720  -17.8950   22.3339 C   0  0  0  0  0  0  0  0  0  0  0  0
   12.2212  -18.6560   23.5770 C   0  0  0  0  0  0  0  0  0  0  0  0
   12.9644  -18.1631   24.4660 O   0  0  0  0  0  0  0  0  0  0  0  0
   10.5289  -16.3224   23.4892 C   0  0  0  0  0  0  0  0  0  0  0  0
   11.2988  -15.3166   23.5819 O   0  0  0  0  0  0  0  0  0  0  0  0
   11.6834  -19.9016   23.8440 O   0  0  0  0  0  0  0  0  0  0  0  0
    9.6008  -16.5749   24.5022 N   0  0  0  0  0  0  0  0  0  0  0  0
    9.4917  -15.7417   25.7392 C   0  0  1  0  0  0  0  0  0  0  0  0
    8.2897  -14.9292   25.5250 C   0  0  0  0  0  0  0  0  0  0  0  0
    7.8773  -13.8121   26.3655 C   0  0  0  0  0  0  0  0  0  0  0  0
    6.6668  -13.0122   26.0704 C   0  0  0  0  0  0  0  0  0  0  0  0
    6.5762  -11.9437   27.2165 C   0  0  0  0  0  0  0  0  0  0  0  0
    5.4411  -11.0936   26.9131 N   0  0  0  0  0  0  0  0  0  0  0  0
    9.5951  -16.6677   26.8435 C   0  0  0  0  0  0  0  0  0  0  0  0
    9.3104  -18.0252   26.8723 O   0  0  0  0  0  0  0  0  0  0  0  0
    9.9958  -16.2367   27.9902 O   0  0  0  0  0  0  0  0  0  0  0  0
  1  2  1  0
  3  4  1  6
  3  2  1  0
  5  3  1  0
  5  6  1  6
  7  5  1  0
  8  7  2  0
  9  7  1  0
 10  9  1  0
 10 14  1  0
 10 11  1  6
 12 11  1  0
 13 12  2  0
 14 15  2  0
 14 17  1  0
 16 12  1  0
 17 18  1  0
 18 19  1  6
 19 20  1  0
 21 20  1  0
 22 21  1  0
 23 22  1  0
 24 18  1  0
 24 25  1  0
 26 24  2  0
M  END
$$$$
