IDK.pdb
     RDKit          3D

 26 25  0  0  1  0  0  0  0  0999 V2000
    8.7182  -12.6598   27.6297 C   0  0  0  0  0  0  0  0  0  0  0  0
    7.8160  -13.6602   26.9838 C   0  0  0  0  0  0  0  0  0  0  0  0
    7.1337  -13.1804   25.7474 C   0  0  2  0  0  0  0  0  0  0  0  0
    6.2726  -12.0002   26.0864 C   0  0  0  0  0  0  0  0  0  0  0  0
    6.3717  -14.2615   25.0202 C   0  0  2  0  0  0  0  0  0  0  0  0
    5.5086  -14.9016   25.9785 N   0  0  0  0  0  0  0  0  0  0  0  0
    7.2611  -15.2742   24.4237 C   0  0  0  0  0  0  0  0  0  0  0  0
    7.3375  -16.4373   24.8801 O   0  0  0  0  0  0  0  0  0  0  0  0
    8.0625  -14.9491   23.3021 N   0  0  0  0  0  0  0  0  0  0  0  0
    8.9137  -15.9351   22.7187 C   0  0  1  0  0  0  0  0  0  0  0  0
    9.4847  -15.5909   21.3892 C   0  0  0  0  0  0  0  0  0  0  0  0
   10.2454  -16.6817   20.7428 C   0  0  0  0  0  0  0  0  0  0  0  0
   11.3685  -17.0123   21.2066 O   0  0  0  0  0  0  0  0  0  0  0  0
   10.0576  -16.2484   23.6542 C   0  0  0  0  0  0  0  0  0  0  0  0
   10.7300  -15.2838   24.1342 O   0  0  0  0  0  0  0  0  0  0  0  0
    9.8032  -17.3857   19.6379 O   0  0  0  0  0  0  0  0  0  0  0  0
   10.3919  -17.5600   23.9994 N   0  0  0  0  0  0  0  0  0  0  0  0
   11.4212  -17.8985   25.0300 C   0  0  1  0  0  0  0  0  0  0  0  0
   10.9201  -19.1276   25.6537 C   0  0  0  0  0  0  0  0  0  0  0  0
   11.4993  -19.7614   26.8316 C   0  0  0  0  0  0  0  0  0  0  0  0
   11.3899  -19.1607   28.1804 C   0  0  0  0  0  0  0  0  0  0  0  0
   12.0789  -20.1802   29.1547 C   0  0  0  0  0  0  0  0  0  0  0  0
   12.0801  -19.5721   30.4713 N   0  0  0  0  0  0  0  0  0  0  0  0
   12.6905  -17.8600   24.3409 C   0  0  0  0  0  0  0  0  0  0  0  0
   13.9597  -17.6561   24.8627 O   0  0  0  0  0  0  0  0  0  0  0  0
   12.7176  -18.0251   23.0629 O   0  0  0  0  0  0  0  0  0  0  0  0
  1  2  1  0
  3  4  1  1
  3  2  1  0
  5  3  1  0
  5  6  1  1
  7  5  1  0
  8  7  2  0
  9  7  1  0
 10  9  1  0
 10 14  1  0
 10 11  1  6
 12 11  1  0
 13 12  2  0
 14 15  2  0
 14 17  1  0
 16 12  1  0
 17 18  1  0
 18 19  1  6
 19 20  1  0
 21 20  1  0
 22 21  1  0
 23 22  1  0
 24 18  1  0
 24 25  1  0
 26 24  2  0
M  END
$$$$
