IDK.pdb
     RDKit          3D

 26 25  0  0  1  0  0  0  0  0999 V2000
    6.1314  -11.5967   26.9062 C   0  0  0  0  0  0  0  0  0  0  0  0
    5.7298  -12.8063   26.1268 C   0  0  0  0  0  0  0  0  0  0  0  0
    6.8553  -13.5225   25.4599 C   0  0  2  0  0  0  0  0  0  0  0  0
    7.5974  -12.5621   24.5791 C   0  0  0  0  0  0  0  0  0  0  0  0
    6.4261  -14.7682   24.7234 C   0  0  2  0  0  0  0  0  0  0  0  0
    5.6723  -15.5775   25.6452 N   0  0  0  0  0  0  0  0  0  0  0  0
    7.5710  -15.5502   24.2233 C   0  0  0  0  0  0  0  0  0  0  0  0
    8.1693  -16.3802   24.9444 O   0  0  0  0  0  0  0  0  0  0  0  0
    8.0275  -15.3775   22.8938 N   0  0  0  0  0  0  0  0  0  0  0  0
    9.1039  -16.1718   22.3961 C   0  0  1  0  0  0  0  0  0  0  0  0
    9.4731  -15.9414   20.9739 C   0  0  0  0  0  0  0  0  0  0  0  0
   10.0973  -17.1016   20.3023 C   0  0  0  0  0  0  0  0  0  0  0  0
   10.9723  -17.7721   20.9110 O   0  0  0  0  0  0  0  0  0  0  0  0
   10.3371  -15.9581   23.2419 C   0  0  0  0  0  0  0  0  0  0  0  0
   10.8987  -14.8192   23.2184 O   0  0  0  0  0  0  0  0  0  0  0  0
    9.7825  -17.5172   19.0216 O   0  0  0  0  0  0  0  0  0  0  0  0
   10.8708  -16.9729   24.0398 N   0  0  0  0  0  0  0  0  0  0  0  0
   11.9346  -16.7355   25.0637 C   0  0  1  0  0  0  0  0  0  0  0  0
   11.2070  -16.6736   26.3356 C   0  0  0  0  0  0  0  0  0  0  0  0
   11.8007  -16.3235   27.6200 C   0  0  0  0  0  0  0  0  0  0  0  0
   11.0155  -16.3268   28.8751 C   0  0  0  0  0  0  0  0  0  0  0  0
   12.0039  -15.8414   29.9936 C   0  0  0  0  0  0  0  0  0  0  0  0
   11.2567  -15.8165   31.2363 N   0  0  0  0  0  0  0  0  0  0  0  0
   12.9455  -17.7375   24.8154 C   0  0  0  0  0  0  0  0  0  0  0  0
   14.3047  -17.6910   25.0895 O   0  0  0  0  0  0  0  0  0  0  0  0
   12.6055  -18.8496   24.2597 O   0  0  0  0  0  0  0  0  0  0  0  0
  1  2  1  0
  3  4  1  6
  3  2  1  0
  5  3  1  0
  5  6  1  1
  7  5  1  0
  8  7  2  0
  9  7  1  0
 10  9  1  0
 10 14  1  0
 10 11  1  6
 12 11  1  0
 13 12  2  0
 14 15  2  0
 14 17  1  0
 16 12  1  0
 17 18  1  0
 18 19  1  1
 19 20  1  0
 21 20  1  0
 22 21  1  0
 23 22  1  0
 24 18  1  0
 24 25  1  0
 26 24  2  0
M  END
$$$$
