IDK.pdb
     RDKit          3D

 26 25  0  0  1  0  0  0  0  0999 V2000
    8.1984  -12.1075   18.7839 C   0  0  0  0  0  0  0  0  0  0  0  0
    7.6111  -12.9970   19.8307 C   0  0  0  0  0  0  0  0  0  0  0  0
    8.5931  -13.8803   20.5235 C   0  0  2  0  0  0  0  0  0  0  0  0
    9.3380  -14.6859   19.5011 C   0  0  0  0  0  0  0  0  0  0  0  0
    7.9766  -14.7407   21.5997 C   0  0  2  0  0  0  0  0  0  0  0  0
    7.1746  -13.8829   22.4327 N   0  0  0  0  0  0  0  0  0  0  0  0
    8.9895  -15.4105   22.4350 C   0  0  0  0  0  0  0  0  0  0  0  0
    9.6334  -14.7943   23.3139 O   0  0  0  0  0  0  0  0  0  0  0  0
    9.2615  -16.7893   22.2593 N   0  0  0  0  0  0  0  0  0  0  0  0
   10.2861  -17.4217   23.0260 C   0  0  1  0  0  0  0  0  0  0  0  0
    9.8578  -18.5948   23.8337 C   0  0  0  0  0  0  0  0  0  0  0  0
   10.9222  -19.1907   24.6694 C   0  0  0  0  0  0  0  0  0  0  0  0
   10.6078  -19.9504   25.6233 O   0  0  0  0  0  0  0  0  0  0  0  0
   11.4120  -17.8611   22.1199 C   0  0  0  0  0  0  0  0  0  0  0  0
   11.1600  -18.7055   21.2053 O   0  0  0  0  0  0  0  0  0  0  0  0
   12.2736  -18.9712   24.4757 O   0  0  0  0  0  0  0  0  0  0  0  0
   12.7111  -17.3680   22.2631 N   0  0  0  0  0  0  0  0  0  0  0  0
   13.8398  -17.7609   21.3642 C   0  0  1  0  0  0  0  0  0  0  0  0
   13.6667  -16.9199   20.1752 C   0  0  0  0  0  0  0  0  0  0  0  0
   14.5883  -15.8724   19.7531 C   0  0  0  0  0  0  0  0  0  0  0  0
   14.3389  -15.0444   18.5514 C   0  0  0  0  0  0  0  0  0  0  0  0
   15.5834  -14.0963   18.4253 C   0  0  0  0  0  0  0  0  0  0  0  0
   15.3869  -13.2974   17.2310 N   0  0  0  0  0  0  0  0  0  0  0  0
   15.0308  -17.6878   22.1789 C   0  0  0  0  0  0  0  0  0  0  0  0
   15.1514  -17.3438   23.5175 O   0  0  0  0  0  0  0  0  0  0  0  0
   16.1732  -17.9623   21.6489 O   0  0  0  0  0  0  0  0  0  0  0  0
  1  2  1  0
  3  4  1  6
  3  2  1  0
  5  3  1  0
  5  6  1  1
  7  5  1  0
  8  7  2  0
  9  7  1  0
 10  9  1  0
 10 14  1  0
 10 11  1  6
 12 11  1  0
 13 12  2  0
 14 15  2  0
 14 17  1  0
 16 12  1  0
 17 18  1  0
 18 19  1  6
 19 20  1  0
 21 20  1  0
 22 21  1  0
 23 22  1  0
 24 18  1  0
 24 25  1  0
 26 24  2  0
M  END
$$$$
