IDK.pdb
     RDKit          3D

 26 25  0  0  1  0  0  0  0  0999 V2000
    6.2723  -11.3452   26.5004 C   0  0  0  0  0  0  0  0  0  0  0  0
    5.8268  -12.6401   25.9032 C   0  0  0  0  0  0  0  0  0  0  0  0
    6.9247  -13.4829   25.3476 C   0  0  2  0  0  0  0  0  0  0  0  0
    7.7325  -12.6667   24.3831 C   0  0  0  0  0  0  0  0  0  0  0  0
    6.4434  -14.7803   24.7446 C   0  0  2  0  0  0  0  0  0  0  0  0
    5.6576  -15.4564   25.7438 N   0  0  0  0  0  0  0  0  0  0  0  0
    7.5544  -15.6572   24.3334 C   0  0  0  0  0  0  0  0  0  0  0  0
    8.0849  -16.4674   25.1267 O   0  0  0  0  0  0  0  0  0  0  0  0
    8.0551  -15.6024   23.0097 N   0  0  0  0  0  0  0  0  0  0  0  0
    9.1128  -16.4717   22.6062 C   0  0  1  0  0  0  0  0  0  0  0  0
    9.4157  -16.4884   21.1502 C   0  0  0  0  0  0  0  0  0  0  0  0
   10.4201  -17.4931   20.7400 C   0  0  0  0  0  0  0  0  0  0  0  0
   10.7806  -18.3784   21.5597 O   0  0  0  0  0  0  0  0  0  0  0  0
   10.3817  -16.1185   23.3459 C   0  0  0  0  0  0  0  0  0  0  0  0
   10.8997  -14.9756   23.1499 O   0  0  0  0  0  0  0  0  0  0  0  0
   11.0080  -17.5350   19.4891 O   0  0  0  0  0  0  0  0  0  0  0  0
   10.9944  -17.0100   24.2297 N   0  0  0  0  0  0  0  0  0  0  0  0
   12.2616  -16.6982   24.9600 C   0  0  1  0  0  0  0  0  0  0  0  0
   11.8891  -16.7618   26.3771 C   0  0  0  0  0  0  0  0  0  0  0  0
   11.1940  -15.7075   27.1050 C   0  0  0  0  0  0  0  0  0  0  0  0
   10.8871  -15.8210   28.5489 C   0  0  0  0  0  0  0  0  0  0  0  0
   10.1402  -14.4937   28.9282 C   0  0  0  0  0  0  0  0  0  0  0  0
    9.7981  -14.5881   30.3344 N   0  0  0  0  0  0  0  0  0  0  0  0
   13.2619  -17.5762   24.3979 C   0  0  0  0  0  0  0  0  0  0  0  0
   14.6437  -17.4570   24.4303 O   0  0  0  0  0  0  0  0  0  0  0  0
   12.8858  -18.6314   23.7604 O   0  0  0  0  0  0  0  0  0  0  0  0
  1  2  1  0
  3  4  1  6
  3  2  1  0
  5  3  1  0
  5  6  1  1
  7  5  1  0
  8  7  2  0
  9  7  1  0
 10  9  1  0
 10 14  1  0
 10 11  1  6
 12 11  1  0
 13 12  2  0
 14 15  2  0
 14 17  1  0
 16 12  1  0
 17 18  1  0
 18 19  1  1
 19 20  1  0
 21 20  1  0
 22 21  1  0
 23 22  1  0
 24 18  1  0
 24 25  1  0
 26 24  2  0
M  END
$$$$
