IDK.pdb
     RDKit          3D

 26 25  0  0  1  0  0  0  0  0999 V2000
    8.2924  -12.1707   18.9119 C   0  0  0  0  0  0  0  0  0  0  0  0
    8.5426  -12.8130   20.2373 C   0  0  0  0  0  0  0  0  0  0  0  0
    8.2154  -14.2668   20.2993 C   0  0  2  0  0  0  0  0  0  0  0  0
    6.7930  -14.4704   19.8696 C   0  0  0  0  0  0  0  0  0  0  0  0
    8.5093  -14.8950   21.6399 C   0  0  2  0  0  0  0  0  0  0  0  0
    9.1057  -13.8818   22.4709 N   0  0  0  0  0  0  0  0  0  0  0  0
    9.4352  -16.0371   21.5365 C   0  0  0  0  0  0  0  0  0  0  0  0
    9.1300  -17.0808   20.9163 O   0  0  0  0  0  0  0  0  0  0  0  0
   10.7122  -15.9787   22.1462 N   0  0  0  0  0  0  0  0  0  0  0  0
   11.5987  -17.0942   22.0629 C   0  0  1  0  0  0  0  0  0  0  0  0
   12.9349  -16.8151   21.4725 C   0  0  0  0  0  0  0  0  0  0  0  0
   12.9353  -16.6302   20.0054 C   0  0  0  0  0  0  0  0  0  0  0  0
   12.9293  -15.4649   19.5284 O   0  0  0  0  0  0  0  0  0  0  0  0
   11.8069  -17.6917   23.4346 C   0  0  0  0  0  0  0  0  0  0  0  0
   11.8593  -16.9107   24.4346 O   0  0  0  0  0  0  0  0  0  0  0  0
   12.9433  -17.6697   19.0935 O   0  0  0  0  0  0  0  0  0  0  0  0
   11.9437  -19.0684   23.6279 N   0  0  0  0  0  0  0  0  0  0  0  0
   12.0633  -19.6976   24.9793 C   0  0  1  0  0  0  0  0  0  0  0  0
   11.5667  -21.0643   24.7887 C   0  0  0  0  0  0  0  0  0  0  0  0
   11.4180  -22.0532   25.8491 C   0  0  0  0  0  0  0  0  0  0  0  0
   10.7870  -23.3712   25.6110 C   0  0  0  0  0  0  0  0  0  0  0  0
   10.8818  -24.1385   26.9770 C   0  0  0  0  0  0  0  0  0  0  0  0
   10.0988  -25.3510   26.8360 N   0  0  0  0  0  0  0  0  0  0  0  0
   13.4161  -19.4351   25.4134 C   0  0  0  0  0  0  0  0  0  0  0  0
   13.9120  -19.3287   26.7047 O   0  0  0  0  0  0  0  0  0  0  0  0
   14.3376  -19.2603   24.5293 O   0  0  0  0  0  0  0  0  0  0  0  0
  1  2  1  0
  3  4  1  1
  3  2  1  0
  5  3  1  0
  5  6  1  1
  7  5  1  0
  8  7  2  0
  9  7  1  0
 10  9  1  0
 10 14  1  0
 10 11  1  1
 12 11  1  0
 13 12  2  0
 14 15  2  0
 14 17  1  0
 16 12  1  0
 17 18  1  0
 18 19  1  6
 19 20  1  0
 21 20  1  0
 22 21  1  0
 23 22  1  0
 24 18  1  0
 24 25  1  0
 26 24  2  0
M  END
$$$$
