PWV.pdb
     RDKit          3D

 29 31  0  0  1  0  0  0  0  0999 V2000
    6.9623  -16.1695   21.3448 N   0  0  0  0  0  0  0  0  0  0  0  0
    6.1730  -15.8509   20.1684 C   0  0  0  0  0  0  0  0  0  0  0  0
    6.3089  -14.3225   20.1492 C   0  0  0  0  0  0  0  0  0  0  0  0
    7.6518  -14.0385   20.8189 C   0  0  0  0  0  0  0  0  0  0  0  0
    8.1662  -15.4087   21.1001 C   0  0  1  0  0  0  0  0  0  0  0  0
    9.0744  -15.4798   22.2664 C   0  0  0  0  0  0  0  0  0  0  0  0
   10.1549  -14.8432   22.2257 O   0  0  0  0  0  0  0  0  0  0  0  0
    8.7619  -16.2389   23.4172 N   0  0  0  0  0  0  0  0  0  0  0  0
    9.5044  -16.3023   24.6336 C   0  0  1  0  0  0  0  0  0  0  0  0
    8.6832  -16.4257   25.8685 C   0  0  0  0  0  0  0  0  0  0  0  0
    7.5441  -15.4525   25.8438 C   0  0  0  0  0  0  0  0  0  0  0  0
    6.2398  -15.7801   25.5503 C   0  0  0  0  0  0  0  0  0  0  0  0
    5.5170  -14.6502   25.6298 N   0  0  0  0  0  0  0  0  0  0  0  0
    6.2917  -13.6134   25.9595 C   0  0  0  0  0  0  0  0  0  0  0  0
    6.0483  -12.2619   26.1657 C   0  0  0  0  0  0  0  0  0  0  0  0
    7.0626  -11.3977   26.5065 C   0  0  0  0  0  0  0  0  0  0  0  0
    8.3350  -11.9085   26.6393 C   0  0  0  0  0  0  0  0  0  0  0  0
    8.5850  -13.2379   26.4384 C   0  0  0  0  0  0  0  0  0  0  0  0
    7.5603  -14.1024   26.0958 C   0  0  0  0  0  0  0  0  0  0  0  0
   10.5745  -17.3523   24.6397 C   0  0  0  0  0  0  0  0  0  0  0  0
   10.2644  -18.5127   24.2960 O   0  0  0  0  0  0  0  0  0  0  0  0
   15.3327  -18.5170   24.4216 C   0  0  0  0  0  0  0  0  0  0  0  0
   14.2248  -17.5033   24.4883 C   0  0  1  0  0  0  0  0  0  0  0  0
   14.0116  -16.7814   23.1808 C   0  0  0  0  0  0  0  0  0  0  0  0
   12.9344  -18.1419   24.8974 C   0  0  2  0  0  0  0  0  0  0  0  0
   11.8981  -17.1057   25.0081 N   0  0  0  0  0  0  0  0  0  0  0  0
   13.0385  -18.9046   26.1696 C   0  0  0  0  0  0  0  0  0  0  0  0
   13.6345  -20.1496   26.1442 O   0  0  0  0  0  0  0  0  0  0  0  0
   12.6132  -18.4775   27.2670 O   0  0  0  0  0  0  0  0  0  0  0  0
  1  5  1  0
  2  3  1  0
  2  1  1  0
  3  4  1  0
  4  5  1  0
  5  6  1  1
  6  8  1  0
  6  7  2  0
  8  9  1  0
  9 10  1  1
  9 20  1  0
 10 11  1  0
 11 19  1  0
 11 12  2  0
 12 13  1  0
 14 13  1  0
 14 15  2  0
 16 15  1  0
 17 16  2  0
 18 19  2  0
 18 17  1  0
 19 14  1  0
 20 26  1  0
 21 20  2  0
 23 22  1  6
 23 24  1  0
 25 23  1  0
 25 27  1  0
 25 26  1  1
 27 29  2  0
 27 28  1  0
M  END
$$$$
