PWV.pdb
     RDKit          3D

 29 31  0  0  1  0  0  0  0  0999 V2000
    8.6555  -15.5850   19.4328 N   0  0  0  0  0  0  0  0  0  0  0  0
    8.7102  -15.3673   17.9983 C   0  0  0  0  0  0  0  0  0  0  0  0
    8.4681  -13.8531   17.9384 C   0  0  0  0  0  0  0  0  0  0  0  0
    9.0015  -13.3167   19.2651 C   0  0  0  0  0  0  0  0  0  0  0  0
    9.5354  -14.5460   19.9168 C   0  0  1  0  0  0  0  0  0  0  0  0
    9.5189  -14.4953   21.3958 C   0  0  0  0  0  0  0  0  0  0  0  0
   10.2143  -13.6259   21.9746 O   0  0  0  0  0  0  0  0  0  0  0  0
    8.7473  -15.3917   22.1700 N   0  0  0  0  0  0  0  0  0  0  0  0
    8.3807  -15.2485   23.5411 C   0  0  1  0  0  0  0  0  0  0  0  0
    7.1152  -15.9278   23.9303 C   0  0  0  0  0  0  0  0  0  0  0  0
    6.3598  -15.1041   24.9284 C   0  0  0  0  0  0  0  0  0  0  0  0
    5.4607  -15.6083   25.8405 C   0  0  0  0  0  0  0  0  0  0  0  0
    4.9943  -14.5712   26.5562 N   0  0  0  0  0  0  0  0  0  0  0  0
    5.5488  -13.4262   26.1494 C   0  0  0  0  0  0  0  0  0  0  0  0
    5.4155  -12.1022   26.5463 C   0  0  0  0  0  0  0  0  0  0  0  0
    6.1296  -11.0982   25.9348 C   0  0  0  0  0  0  0  0  0  0  0  0
    6.9864  -11.4400   24.9118 C   0  0  0  0  0  0  0  0  0  0  0  0
    7.1248  -12.7410   24.5136 C   0  0  0  0  0  0  0  0  0  0  0  0
    6.4036  -13.7466   25.1328 C   0  0  0  0  0  0  0  0  0  0  0  0
    9.4658  -15.6265   24.5041 C   0  0  0  0  0  0  0  0  0  0  0  0
   10.3675  -16.3939   24.1054 O   0  0  0  0  0  0  0  0  0  0  0  0
   11.4648  -15.3258   29.0352 C   0  0  0  0  0  0  0  0  0  0  0  0
   10.3476  -14.9906   28.0871 C   0  0  1  0  0  0  0  0  0  0  0  0
   10.1778  -13.5054   27.8833 C   0  0  0  0  0  0  0  0  0  0  0  0
   10.5618  -15.6345   26.7530 C   0  0  2  0  0  0  0  0  0  0  0  0
    9.5249  -15.1688   25.8215 N   0  0  0  0  0  0  0  0  0  0  0  0
   10.5677  -17.1201   26.8166 C   0  0  0  0  0  0  0  0  0  0  0  0
   11.7837  -17.7727   26.8563 O   0  0  0  0  0  0  0  0  0  0  0  0
    9.5259  -17.8142   26.8359 O   0  0  0  0  0  0  0  0  0  0  0  0
  1  5  1  0
  2  3  1  0
  2  1  1  0
  3  4  1  0
  4  5  1  0
  5  6  1  1
  6  8  1  0
  6  7  2  0
  8  9  1  0
  9 10  1  1
  9 20  1  0
 10 11  1  0
 11 19  1  0
 11 12  2  0
 12 13  1  0
 14 13  1  0
 14 15  2  0
 16 15  1  0
 17 16  2  0
 18 19  2  0
 18 17  1  0
 19 14  1  0
 20 26  1  0
 21 20  2  0
 23 22  1  1
 23 24  1  0
 25 23  1  0
 25 27  1  0
 25 26  1  6
 27 29  2  0
 27 28  1  0
M  END
$$$$
