PWV.pdb
     RDKit          3D

 29 31  0  0  1  0  0  0  0  0999 V2000
    8.2814  -16.7053   20.5501 N   0  0  0  0  0  0  0  0  0  0  0  0
    8.1365  -16.7154   19.1054 C   0  0  0  0  0  0  0  0  0  0  0  0
    8.0029  -15.2117   18.8298 C   0  0  0  0  0  0  0  0  0  0  0  0
    8.7682  -14.5344   19.9647 C   0  0  0  0  0  0  0  0  0  0  0  0
    9.2998  -15.6964   20.7317 C   0  0  1  0  0  0  0  0  0  0  0  0
    9.5093  -15.4193   22.1702 C   0  0  0  0  0  0  0  0  0  0  0  0
   10.3215  -14.5202   22.4964 O   0  0  0  0  0  0  0  0  0  0  0  0
    8.8253  -16.1333   23.1805 N   0  0  0  0  0  0  0  0  0  0  0  0
    8.7487  -15.8025   24.5660 C   0  0  1  0  0  0  0  0  0  0  0  0
    7.5487  -16.3250   25.2742 C   0  0  0  0  0  0  0  0  0  0  0  0
    6.4948  -15.2649   25.3788 C   0  0  0  0  0  0  0  0  0  0  0  0
    5.1396  -15.4994   25.3247 C   0  0  0  0  0  0  0  0  0  0  0  0
    4.5238  -14.3121   25.4537 N   0  0  0  0  0  0  0  0  0  0  0  0
    5.4157  -13.3270   25.5879 C   0  0  0  0  0  0  0  0  0  0  0  0
    5.3084  -11.9520   25.7493 C   0  0  0  0  0  0  0  0  0  0  0  0
    6.4252  -11.1575   25.8653 C   0  0  0  0  0  0  0  0  0  0  0  0
    7.6617  -11.7629   25.8172 C   0  0  0  0  0  0  0  0  0  0  0  0
    7.7778  -13.1162   25.6587 C   0  0  0  0  0  0  0  0  0  0  0  0
    6.6504  -13.9101   25.5425 C   0  0  0  0  0  0  0  0  0  0  0  0
    9.9801  -16.1550   25.3451 C   0  0  0  0  0  0  0  0  0  0  0  0
   10.7757  -16.9808   24.8491 O   0  0  0  0  0  0  0  0  0  0  0  0
   10.2967  -15.2981   29.3981 C   0  0  0  0  0  0  0  0  0  0  0  0
   11.5722  -15.2330   28.6055 C   0  0  1  0  0  0  0  0  0  0  0  0
   12.7729  -15.7048   29.3878 C   0  0  0  0  0  0  0  0  0  0  0  0
   11.4696  -16.0445   27.3520 C   0  0  2  0  0  0  0  0  0  0  0  0
   10.2873  -15.6121   26.5938 N   0  0  0  0  0  0  0  0  0  0  0  0
   11.4107  -17.5081   27.6079 C   0  0  0  0  0  0  0  0  0  0  0  0
   12.5927  -18.2212   27.6279 O   0  0  0  0  0  0  0  0  0  0  0  0
   10.3433  -18.1315   27.8068 O   0  0  0  0  0  0  0  0  0  0  0  0
  1  5  1  0
  2  3  1  0
  2  1  1  0
  3  4  1  0
  4  5  1  0
  5  6  1  1
  6  8  1  0
  6  7  2  0
  8  9  1  0
  9 10  1  1
  9 20  1  0
 10 11  1  0
 11 19  1  0
 11 12  2  0
 12 13  1  0
 14 13  1  0
 14 15  2  0
 16 15  1  0
 17 16  2  0
 18 19  2  0
 18 17  1  0
 19 14  1  0
 20 26  1  0
 21 20  2  0
 23 22  1  1
 23 24  1  0
 25 23  1  0
 25 27  1  0
 25 26  1  1
 27 29  2  0
 27 28  1  0
M  END
$$$$
