PWV.pdb
     RDKit          3D

 29 31  0  0  1  0  0  0  0  0999 V2000
    8.3273  -15.7584   19.9806 N   0  0  0  0  0  0  0  0  0  0  0  0
    8.2734  -15.5721   18.5416 C   0  0  0  0  0  0  0  0  0  0  0  0
    8.0481  -14.0560   18.4667 C   0  0  0  0  0  0  0  0  0  0  0  0
    8.6903  -13.4998   19.7359 C   0  0  0  0  0  0  0  0  0  0  0  0
    9.2564  -14.7231   20.3717 C   0  0  1  0  0  0  0  0  0  0  0  0
    9.3555  -14.6406   21.8459 C   0  0  0  0  0  0  0  0  0  0  0  0
   10.1016  -13.7666   22.3496 O   0  0  0  0  0  0  0  0  0  0  0  0
    8.6385  -15.5120   22.6974 N   0  0  0  0  0  0  0  0  0  0  0  0
    8.3983  -15.3457   24.0936 C   0  0  1  0  0  0  0  0  0  0  0  0
    7.1570  -15.9903   24.6017 C   0  0  0  0  0  0  0  0  0  0  0  0
    6.2562  -14.9741   25.2350 C   0  0  0  0  0  0  0  0  0  0  0  0
    4.9855  -15.2327   25.6965 C   0  0  0  0  0  0  0  0  0  0  0  0
    4.4994  -14.0826   26.1929 N   0  0  0  0  0  0  0  0  0  0  0  0
    5.3943  -13.0983   26.0733 C   0  0  0  0  0  0  0  0  0  0  0  0
    5.3923  -11.7534   26.4188 C   0  0  0  0  0  0  0  0  0  0  0  0
    6.4819  -10.9512   26.1719 C   0  0  0  0  0  0  0  0  0  0  0  0
    7.5833  -11.5179   25.5692 C   0  0  0  0  0  0  0  0  0  0  0  0
    7.5952  -12.8414   25.2251 C   0  0  0  0  0  0  0  0  0  0  0  0
    6.4958  -13.6433   25.4762 C   0  0  0  0  0  0  0  0  0  0  0  0
    9.5556  -15.7394   24.9616 C   0  0  0  0  0  0  0  0  0  0  0  0
   10.4563  -16.4448   24.4596 O   0  0  0  0  0  0  0  0  0  0  0  0
   11.9299  -15.4897   29.3085 C   0  0  0  0  0  0  0  0  0  0  0  0
   10.7202  -15.1734   28.4743 C   0  0  1  0  0  0  0  0  0  0  0  0
   10.4950  -13.6910   28.3069 C   0  0  0  0  0  0  0  0  0  0  0  0
   10.8233  -15.7971   27.1176 C   0  0  2  0  0  0  0  0  0  0  0  0
    9.6828  -15.3618   26.2994 N   0  0  0  0  0  0  0  0  0  0  0  0
   10.8889  -17.2820   27.1617 C   0  0  0  0  0  0  0  0  0  0  0  0
   12.1241  -17.8900   27.0588 O   0  0  0  0  0  0  0  0  0  0  0  0
    9.8809  -18.0138   27.2873 O   0  0  0  0  0  0  0  0  0  0  0  0
  1  5  1  0
  2  3  1  0
  2  1  1  0
  3  4  1  0
  4  5  1  0
  5  6  1  1
  6  8  1  0
  6  7  2  0
  8  9  1  0
  9 10  1  1
  9 20  1  0
 10 11  1  0
 11 19  1  0
 11 12  2  0
 12 13  1  0
 14 13  1  0
 14 15  2  0
 16 15  1  0
 17 16  2  0
 18 19  2  0
 18 17  1  0
 19 14  1  0
 20 26  1  0
 21 20  2  0
 23 22  1  1
 23 24  1  0
 25 23  1  0
 25 27  1  0
 25 26  1  6
 27 29  2  0
 27 28  1  0
M  END
$$$$
