PWV.pdb
     RDKit          3D

 29 31  0  0  1  0  0  0  0  0999 V2000
    8.1041  -16.4099   20.8509 N   0  0  0  0  0  0  0  0  0  0  0  0
    7.8386  -16.3381   19.4252 C   0  0  0  0  0  0  0  0  0  0  0  0
    7.7142  -14.8195   19.2427 C   0  0  0  0  0  0  0  0  0  0  0  0
    8.5861  -14.2184   20.3431 C   0  0  0  0  0  0  0  0  0  0  0  0
    9.1553  -15.4296   20.9991 C   0  0  1  0  0  0  0  0  0  0  0  0
    9.4903  -15.2355   22.4274 C   0  0  0  0  0  0  0  0  0  0  0  0
   10.3548  -14.3780   22.7303 O   0  0  0  0  0  0  0  0  0  0  0  0
    8.8685  -15.9830   23.4536 N   0  0  0  0  0  0  0  0  0  0  0  0
    8.8540  -15.6833   24.8482 C   0  0  1  0  0  0  0  0  0  0  0  0
    7.6165  -16.0893   25.5681 C   0  0  0  0  0  0  0  0  0  0  0  0
    6.5853  -15.0044   25.4975 C   0  0  0  0  0  0  0  0  0  0  0  0
    5.3039  -15.1709   25.0233 C   0  0  0  0  0  0  0  0  0  0  0  0
    4.6852  -13.9820   25.1193 N   0  0  0  0  0  0  0  0  0  0  0  0
    5.5052  -13.0603   25.6313 C   0  0  0  0  0  0  0  0  0  0  0  0
    5.3645  -11.7114   25.9295 C   0  0  0  0  0  0  0  0  0  0  0  0
    6.4035  -10.9866   26.4651 C   0  0  0  0  0  0  0  0  0  0  0  0
    7.5957  -11.6353   26.7004 C   0  0  0  0  0  0  0  0  0  0  0  0
    7.7442  -12.9635   26.4102 C   0  0  0  0  0  0  0  0  0  0  0  0
    6.6951  -13.6874   25.8715 C   0  0  0  0  0  0  0  0  0  0  0  0
   10.0526  -16.1904   25.5923 C   0  0  0  0  0  0  0  0  0  0  0  0
   10.7600  -17.0636   25.0464 O   0  0  0  0  0  0  0  0  0  0  0  0
   11.9733  -14.0541   28.4268 C   0  0  0  0  0  0  0  0  0  0  0  0
   11.8507  -15.5058   28.7967 C   0  0  1  0  0  0  0  0  0  0  0  0
   10.7920  -15.7569   29.8419 C   0  0  0  0  0  0  0  0  0  0  0  0
   11.5441  -16.3438   27.5950 C   0  0  2  0  0  0  0  0  0  0  0  0
   10.4224  -15.7412   26.8611 N   0  0  0  0  0  0  0  0  0  0  0  0
   11.2374  -17.7589   27.9336 C   0  0  0  0  0  0  0  0  0  0  0  0
    9.9147  -18.1502   27.9924 O   0  0  0  0  0  0  0  0  0  0  0  0
   12.1169  -18.6182   28.1693 O   0  0  0  0  0  0  0  0  0  0  0  0
  1  5  1  0
  2  3  1  0
  2  1  1  0
  3  4  1  0
  4  5  1  0
  5  6  1  1
  6  8  1  0
  6  7  2  0
  8  9  1  0
  9 10  1  1
  9 20  1  0
 10 11  1  0
 11 19  1  0
 11 12  2  0
 12 13  1  0
 14 13  1  0
 14 15  2  0
 16 15  1  0
 17 16  2  0
 18 19  2  0
 18 17  1  0
 19 14  1  0
 20 26  1  0
 21 20  2  0
 23 22  1  6
 23 24  1  0
 25 23  1  0
 25 27  1  0
 25 26  1  1
 27 29  2  0
 27 28  1  0
M  END
$$$$
