PWV.pdb
     RDKit          3D

 29 31  0  0  1  0  0  0  0  0999 V2000
   10.1786  -17.9296   20.4305 N   0  0  0  0  0  0  0  0  0  0  0  0
   10.5256  -18.2950   19.0688 C   0  0  0  0  0  0  0  0  0  0  0  0
   10.5127  -16.9141   18.3995 C   0  0  0  0  0  0  0  0  0  0  0  0
   10.8632  -15.9327   19.5160 C   0  0  0  0  0  0  0  0  0  0  0  0
   11.0912  -16.8371   20.6784 C   0  0  1  0  0  0  0  0  0  0  0  0
   10.8107  -16.2100   21.9892 C   0  0  0  0  0  0  0  0  0  0  0  0
   11.4910  -15.2144   22.3364 O   0  0  0  0  0  0  0  0  0  0  0  0
    9.8053  -16.6968   22.8555 N   0  0  0  0  0  0  0  0  0  0  0  0
    9.2703  -16.0437   24.0053 C   0  0  1  0  0  0  0  0  0  0  0  0
    7.7946  -16.1521   24.1632 C   0  0  0  0  0  0  0  0  0  0  0  0
    7.1447  -14.8146   23.9781 C   0  0  0  0  0  0  0  0  0  0  0  0
    6.7459  -14.2982   22.7662 C   0  0  0  0  0  0  0  0  0  0  0  0
    6.2100  -13.0892   23.0044 N   0  0  0  0  0  0  0  0  0  0  0  0
    6.2448  -12.8034   24.3087 C   0  0  0  0  0  0  0  0  0  0  0  0
    5.8311  -11.7131   25.0626 C   0  0  0  0  0  0  0  0  0  0  0  0
    5.9949  -11.6859   26.4280 C   0  0  0  0  0  0  0  0  0  0  0  0
    6.5834  -12.7739   27.0341 C   0  0  0  0  0  0  0  0  0  0  0  0
    6.9942  -13.8525   26.3004 C   0  0  0  0  0  0  0  0  0  0  0  0
    6.8266  -13.8739   24.9270 C   0  0  0  0  0  0  0  0  0  0  0  0
    9.9387  -16.4293   25.2907 C   0  0  0  0  0  0  0  0  0  0  0  0
   10.4840  -17.5513   25.3586 O   0  0  0  0  0  0  0  0  0  0  0  0
   11.4553  -15.2255   29.8556 C   0  0  0  0  0  0  0  0  0  0  0  0
   10.7256  -14.8604   28.5932 C   0  0  1  0  0  0  0  0  0  0  0  0
   11.3408  -13.6813   27.8809 C   0  0  0  0  0  0  0  0  0  0  0  0
   10.6758  -16.0181   27.6458 C   0  0  2  0  0  0  0  0  0  0  0  0
    9.9859  -15.6045   26.4158 N   0  0  0  0  0  0  0  0  0  0  0  0
   10.0187  -17.2191   28.2262 C   0  0  0  0  0  0  0  0  0  0  0  0
   10.8086  -18.1683   28.8434 O   0  0  0  0  0  0  0  0  0  0  0  0
    8.7831  -17.4172   28.1854 O   0  0  0  0  0  0  0  0  0  0  0  0
  1  5  1  0
  2  3  1  0
  2  1  1  0
  3  4  1  0
  4  5  1  0
  5  6  1  1
  6  8  1  0
  6  7  2  0
  8  9  1  0
  9 10  1  1
  9 20  1  0
 10 11  1  0
 11 19  1  0
 11 12  2  0
 12 13  1  0
 14 13  1  0
 14 15  2  0
 16 15  1  0
 17 16  2  0
 18 19  2  0
 18 17  1  0
 19 14  1  0
 20 26  1  0
 21 20  2  0
 23 22  1  1
 23 24  1  0
 25 23  1  0
 25 27  1  0
 25 26  1  6
 27 29  2  0
 27 28  1  0
M  END
$$$$
