PWV.pdb
     RDKit          3D

 29 31  0  0  1  0  0  0  0  0999 V2000
    8.2056  -15.9522   20.3787 N   0  0  0  0  0  0  0  0  0  0  0  0
    8.0881  -15.8044   18.9390 C   0  0  0  0  0  0  0  0  0  0  0  0
    7.9872  -14.2775   18.8245 C   0  0  0  0  0  0  0  0  0  0  0  0
    8.7430  -13.7412   20.0385 C   0  0  0  0  0  0  0  0  0  0  0  0
    9.2386  -14.9893   20.6850 C   0  0  1  0  0  0  0  0  0  0  0  0
    9.4255  -14.8722   22.1483 C   0  0  0  0  0  0  0  0  0  0  0  0
   10.2188  -14.0036   22.5847 O   0  0  0  0  0  0  0  0  0  0  0  0
    8.7406  -15.7049   23.0626 N   0  0  0  0  0  0  0  0  0  0  0  0
    8.5876  -15.4989   24.4658 C   0  0  1  0  0  0  0  0  0  0  0  0
    7.3522  -16.0797   25.0580 C   0  0  0  0  0  0  0  0  0  0  0  0
    6.3037  -15.0234   25.2319 C   0  0  0  0  0  0  0  0  0  0  0  0
    4.9578  -15.2120   25.0142 C   0  0  0  0  0  0  0  0  0  0  0  0
    4.3442  -14.0450   25.2736 N   0  0  0  0  0  0  0  0  0  0  0  0
    5.2288  -13.1165   25.6469 C   0  0  0  0  0  0  0  0  0  0  0  0
    5.1202  -11.7822   26.0158 C   0  0  0  0  0  0  0  0  0  0  0  0
    6.2284  -11.0447   26.3619 C   0  0  0  0  0  0  0  0  0  0  0  0
    7.4576  -11.6658   26.3335 C   0  0  0  0  0  0  0  0  0  0  0  0
    7.5750  -12.9794   25.9716 C   0  0  0  0  0  0  0  0  0  0  0  0
    6.4563  -13.7161   25.6246 C   0  0  0  0  0  0  0  0  0  0  0  0
    9.7756  -15.9225   25.2764 C   0  0  0  0  0  0  0  0  0  0  0  0
   10.6844  -16.5595   24.7026 O   0  0  0  0  0  0  0  0  0  0  0  0
   12.2754  -15.9129   29.5563 C   0  0  0  0  0  0  0  0  0  0  0  0
   11.0711  -15.4981   28.7581 C   0  0  1  0  0  0  0  0  0  0  0  0
   10.9628  -14.0021   28.5954 C   0  0  0  0  0  0  0  0  0  0  0  0
   11.0824  -16.1269   27.3998 C   0  0  2  0  0  0  0  0  0  0  0  0
    9.9229  -15.6448   26.6363 N   0  0  0  0  0  0  0  0  0  0  0  0
   11.0878  -17.6131   27.4451 C   0  0  0  0  0  0  0  0  0  0  0  0
   12.2934  -18.2718   27.3082 O   0  0  0  0  0  0  0  0  0  0  0  0
   10.0544  -18.3025   27.6010 O   0  0  0  0  0  0  0  0  0  0  0  0
  1  5  1  0
  2  3  1  0
  2  1  1  0
  3  4  1  0
  4  5  1  0
  5  6  1  1
  6  8  1  0
  6  7  2  0
  8  9  1  0
  9 10  1  1
  9 20  1  0
 10 11  1  0
 11 19  1  0
 11 12  2  0
 12 13  1  0
 14 13  1  0
 14 15  2  0
 16 15  1  0
 17 16  2  0
 18 19  2  0
 18 17  1  0
 19 14  1  0
 20 26  1  0
 21 20  2  0
 23 22  1  6
 23 24  1  0
 25 23  1  0
 25 27  1  0
 25 26  1  6
 27 29  2  0
 27 28  1  0
M  END
$$$$
