PWV.pdb
     RDKit          3D

 29 31  0  0  1  0  0  0  0  0999 V2000
    7.0594  -16.1931   21.3026 N   0  0  0  0  0  0  0  0  0  0  0  0
    6.2498  -15.8992   20.1337 C   0  0  0  0  0  0  0  0  0  0  0  0
    6.3042  -14.3656   20.1374 C   0  0  0  0  0  0  0  0  0  0  0  0
    7.6327  -14.0209   20.8072 C   0  0  0  0  0  0  0  0  0  0  0  0
    8.2203  -15.3658   21.0659 C   0  0  1  0  0  0  0  0  0  0  0  0
    9.1356  -15.4061   22.2281 C   0  0  0  0  0  0  0  0  0  0  0  0
   10.2010  -14.7454   22.1765 O   0  0  0  0  0  0  0  0  0  0  0  0
    8.8461  -16.1622   23.3869 N   0  0  0  0  0  0  0  0  0  0  0  0
    9.5897  -16.1900   24.6039 C   0  0  1  0  0  0  0  0  0  0  0  0
    8.7750  -16.3598   25.8376 C   0  0  0  0  0  0  0  0  0  0  0  0
    7.6196  -15.4057   25.8420 C   0  0  0  0  0  0  0  0  0  0  0  0
    6.3141  -15.7547   25.5803 C   0  0  0  0  0  0  0  0  0  0  0  0
    5.5748  -14.6371   25.6788 N   0  0  0  0  0  0  0  0  0  0  0  0
    6.3401  -13.5878   25.9907 C   0  0  0  0  0  0  0  0  0  0  0  0
    6.0793  -12.2407   26.2045 C   0  0  0  0  0  0  0  0  0  0  0  0
    7.0871  -11.3600   26.5214 C   0  0  0  0  0  0  0  0  0  0  0  0
    8.3707  -11.8496   26.6223 C   0  0  0  0  0  0  0  0  0  0  0  0
    8.6378  -13.1746   26.4137 C   0  0  0  0  0  0  0  0  0  0  0  0
    7.6195  -14.0557   26.0952 C   0  0  0  0  0  0  0  0  0  0  0  0
   10.7135  -17.1824   24.6083 C   0  0  0  0  0  0  0  0  0  0  0  0
   10.4347  -18.3899   24.4499 O   0  0  0  0  0  0  0  0  0  0  0  0
   15.5491  -18.1839   24.4743 C   0  0  0  0  0  0  0  0  0  0  0  0
   14.4240  -17.1872   24.4653 C   0  0  1  0  0  0  0  0  0  0  0  0
   14.2869  -16.4701   23.1450 C   0  0  0  0  0  0  0  0  0  0  0  0
   13.1191  -17.8449   24.7895 C   0  0  2  0  0  0  0  0  0  0  0  0
   12.0539  -16.8325   24.7793 N   0  0  0  0  0  0  0  0  0  0  0  0
   13.1353  -18.5627   26.0916 C   0  0  0  0  0  0  0  0  0  0  0  0
   13.5236  -19.8875   26.1084 O   0  0  0  0  0  0  0  0  0  0  0  0
   12.8145  -18.0291   27.1778 O   0  0  0  0  0  0  0  0  0  0  0  0
  1  5  1  0
  2  3  1  0
  2  1  1  0
  3  4  1  0
  4  5  1  0
  5  6  1  1
  6  8  1  0
  6  7  2  0
  8  9  1  0
  9 10  1  1
  9 20  1  0
 10 11  1  0
 11 19  1  0
 11 12  2  0
 12 13  1  0
 14 13  1  0
 14 15  2  0
 16 15  1  0
 17 16  2  0
 18 19  2  0
 18 17  1  0
 19 14  1  0
 20 26  1  0
 21 20  2  0
 23 22  1  6
 23 24  1  0
 25 23  1  0
 25 27  1  0
 25 26  1  1
 27 29  2  0
 27 28  1  0
M  END
$$$$
