PWV.pdb
     RDKit          3D

 29 31  0  0  1  0  0  0  0  0999 V2000
    8.6555  -19.4153   22.1894 N   0  0  0  0  0  0  0  0  0  0  0  0
    8.4123  -20.6211   21.4181 C   0  0  0  0  0  0  0  0  0  0  0  0
    8.8930  -20.1661   20.0336 C   0  0  0  0  0  0  0  0  0  0  0  0
    9.9522  -19.1025   20.3150 C   0  0  0  0  0  0  0  0  0  0  0  0
   10.0106  -19.0938   21.8042 C   0  0  1  0  0  0  0  0  0  0  0  0
   10.4225  -17.7942   22.3798 C   0  0  0  0  0  0  0  0  0  0  0  0
   11.6339  -17.4714   22.3280 O   0  0  0  0  0  0  0  0  0  0  0  0
    9.4967  -16.9118   22.9822 N   0  0  0  0  0  0  0  0  0  0  0  0
    9.6823  -15.5235   23.2527 C   0  0  1  0  0  0  0  0  0  0  0  0
    8.5013  -14.6626   22.9726 C   0  0  0  0  0  0  0  0  0  0  0  0
    7.6164  -14.5727   24.1786 C   0  0  0  0  0  0  0  0  0  0  0  0
    7.0370  -15.6512   24.8075 C   0  0  0  0  0  0  0  0  0  0  0  0
    6.3221  -15.1741   25.8404 N   0  0  0  0  0  0  0  0  0  0  0  0
    6.4134  -13.8432   25.9062 C   0  0  0  0  0  0  0  0  0  0  0  0
    5.8812  -12.8868   26.7607 C   0  0  0  0  0  0  0  0  0  0  0  0
    6.1489  -11.5485   26.5897 C   0  0  0  0  0  0  0  0  0  0  0  0
    6.9634  -11.1769   25.5427 C   0  0  0  0  0  0  0  0  0  0  0  0
    7.4924  -12.1112   24.6956 C   0  0  0  0  0  0  0  0  0  0  0  0
    7.2194  -13.4561   24.8730 C   0  0  0  0  0  0  0  0  0  0  0  0
   10.1936  -15.2351   24.6322 C   0  0  0  0  0  0  0  0  0  0  0  0
   10.9082  -14.2236   24.7970 O   0  0  0  0  0  0  0  0  0  0  0  0
   10.3618  -13.5369   26.9484 C   0  0  0  0  0  0  0  0  0  0  0  0
   10.3411  -14.7933   27.7733 C   0  0  1  0  0  0  0  0  0  0  0  0
    8.9916  -15.0676   28.3896 C   0  0  0  0  0  0  0  0  0  0  0  0
   10.7434  -15.9810   26.9560 C   0  0  2  0  0  0  0  0  0  0  0  0
    9.9156  -16.0335   25.7428 N   0  0  0  0  0  0  0  0  0  0  0  0
   10.6454  -17.2632   27.7026 C   0  0  0  0  0  0  0  0  0  0  0  0
   11.4130  -17.4240   28.8388 O   0  0  0  0  0  0  0  0  0  0  0  0
    9.9017  -18.2087   27.3556 O   0  0  0  0  0  0  0  0  0  0  0  0
  1  5  1  0
  2  3  1  0
  2  1  1  0
  3  4  1  0
  4  5  1  0
  5  6  1  1
  6  8  1  0
  6  7  2  0
  8  9  1  0
  9 10  1  1
  9 20  1  0
 10 11  1  0
 11 19  1  0
 11 12  2  0
 12 13  1  0
 14 13  1  0
 14 15  2  0
 16 15  1  0
 17 16  2  0
 18 19  2  0
 18 17  1  0
 19 14  1  0
 20 26  1  0
 21 20  2  0
 23 22  1  6
 23 24  1  0
 25 23  1  0
 25 27  1  0
 25 26  1  6
 27 29  2  0
 27 28  1  0
M  END
$$$$
