PWV.pdb
     RDKit          3D

 29 31  0  0  1  0  0  0  0  0999 V2000
    8.2088  -15.8942   19.9966 N   0  0  0  0  0  0  0  0  0  0  0  0
    8.1140  -15.7256   18.5576 C   0  0  0  0  0  0  0  0  0  0  0  0
    7.9762  -14.2000   18.4658 C   0  0  0  0  0  0  0  0  0  0  0  0
    8.6956  -13.6651   19.7023 C   0  0  0  0  0  0  0  0  0  0  0  0
    9.2110  -14.9107   20.3377 C   0  0  1  0  0  0  0  0  0  0  0  0
    9.3680  -14.8133   21.8060 C   0  0  0  0  0  0  0  0  0  0  0  0
   10.1627  -13.9601   22.2696 O   0  0  0  0  0  0  0  0  0  0  0  0
    8.6533  -15.6479   22.6954 N   0  0  0  0  0  0  0  0  0  0  0  0
    8.4697  -15.4545   24.0967 C   0  0  1  0  0  0  0  0  0  0  0  0
    7.2583  -16.1015   24.6697 C   0  0  0  0  0  0  0  0  0  0  0  0
    6.3077  -15.0692   25.1951 C   0  0  0  0  0  0  0  0  0  0  0  0
    4.9949  -15.3113   25.5304 C   0  0  0  0  0  0  0  0  0  0  0  0
    4.4718  -14.1503   25.9592 N   0  0  0  0  0  0  0  0  0  0  0  0
    5.3830  -13.1746   25.9161 C   0  0  0  0  0  0  0  0  0  0  0  0
    5.3583  -11.8248   26.2407 C   0  0  0  0  0  0  0  0  0  0  0  0
    6.4743  -11.0345   26.0930 C   0  0  0  0  0  0  0  0  0  0  0  0
    7.6255  -11.6184   25.6119 C   0  0  0  0  0  0  0  0  0  0  0  0
    7.6600  -12.9470   25.2895 C   0  0  0  0  0  0  0  0  0  0  0  0
    6.5338  -13.7368   25.4403 C   0  0  0  0  0  0  0  0  0  0  0  0
    9.6667  -15.8173   24.9234 C   0  0  0  0  0  0  0  0  0  0  0  0
   10.5455  -16.5380   24.4045 O   0  0  0  0  0  0  0  0  0  0  0  0
    9.8439  -14.9405   29.0063 C   0  0  0  0  0  0  0  0  0  0  0  0
   11.1348  -14.9281   28.2364 C   0  0  1  0  0  0  0  0  0  0  0  0
   12.3123  -15.3894   29.0592 C   0  0  0  0  0  0  0  0  0  0  0  0
   11.0411  -15.7861   27.0135 C   0  0  2  0  0  0  0  0  0  0  0  0
    9.8541  -15.3948   26.2404 N   0  0  0  0  0  0  0  0  0  0  0  0
   10.9982  -17.2400   27.3229 C   0  0  0  0  0  0  0  0  0  0  0  0
    9.7663  -17.8501   27.4502 O   0  0  0  0  0  0  0  0  0  0  0  0
   12.0225  -17.9436   27.4750 O   0  0  0  0  0  0  0  0  0  0  0  0
  1  5  1  0
  2  3  1  0
  2  1  1  0
  3  4  1  0
  4  5  1  0
  5  6  1  1
  6  8  1  0
  6  7  2  0
  8  9  1  0
  9 10  1  1
  9 20  1  0
 10 11  1  0
 11 19  1  0
 11 12  2  0
 12 13  1  0
 14 13  1  0
 14 15  2  0
 16 15  1  0
 17 16  2  0
 18 19  2  0
 18 17  1  0
 19 14  1  0
 20 26  1  0
 21 20  2  0
 23 22  1  1
 23 24  1  0
 25 23  1  0
 25 27  1  0
 25 26  1  1
 27 29  2  0
 27 28  1  0
M  END
$$$$
