PWV.pdb
     RDKit          3D

 29 31  0  0  1  0  0  0  0  0999 V2000
    8.6585  -15.5822   19.2353 N   0  0  0  0  0  0  0  0  0  0  0  0
    8.5242  -15.3239   17.8128 C   0  0  0  0  0  0  0  0  0  0  0  0
    8.2821  -13.8086   17.8281 C   0  0  0  0  0  0  0  0  0  0  0  0
    8.9880  -13.3102   19.0874 C   0  0  0  0  0  0  0  0  0  0  0  0
    9.5987  -14.5576   19.6280 C   0  0  1  0  0  0  0  0  0  0  0  0
    9.7777  -14.5488   21.0970 C   0  0  0  0  0  0  0  0  0  0  0  0
   10.5753  -13.7210   21.5998 O   0  0  0  0  0  0  0  0  0  0  0  0
    9.0806  -15.4401   21.9444 N   0  0  0  0  0  0  0  0  0  0  0  0
    8.6084  -15.1796   23.2650 C   0  0  1  0  0  0  0  0  0  0  0  0
    7.1952  -15.5706   23.5186 C   0  0  0  0  0  0  0  0  0  0  0  0
    6.6983  -14.9563   24.7919 C   0  0  0  0  0  0  0  0  0  0  0  0
    6.2376  -15.6668   25.8770 C   0  0  0  0  0  0  0  0  0  0  0  0
    5.8847  -14.7744   26.8176 N   0  0  0  0  0  0  0  0  0  0  0  0
    6.0958  -13.5265   26.3908 C   0  0  0  0  0  0  0  0  0  0  0  0
    5.9051  -12.2739   26.9588 C   0  0  0  0  0  0  0  0  0  0  0  0
    6.2182  -11.1237   26.2727 C   0  0  0  0  0  0  0  0  0  0  0  0
    6.7293  -11.2449   24.9992 C   0  0  0  0  0  0  0  0  0  0  0  0
    6.9209  -12.4741   24.4311 C   0  0  0  0  0  0  0  0  0  0  0  0
    6.6040  -13.6276   25.1265 C   0  0  0  0  0  0  0  0  0  0  0  0
    9.4825  -15.7411   24.3459 C   0  0  0  0  0  0  0  0  0  0  0  0
   10.1341  -16.7780   24.0986 O   0  0  0  0  0  0  0  0  0  0  0  0
   11.4365  -15.3622   28.8925 C   0  0  0  0  0  0  0  0  0  0  0  0
   10.4135  -14.9296   27.8798 C   0  0  1  0  0  0  0  0  0  0  0  0
   10.4686  -13.4508   27.5859 C   0  0  0  0  0  0  0  0  0  0  0  0
   10.5778  -15.6786   26.5943 C   0  0  2  0  0  0  0  0  0  0  0  0
    9.6090  -15.1699   25.6133 N   0  0  0  0  0  0  0  0  0  0  0  0
   10.4266  -17.1494   26.7528 C   0  0  0  0  0  0  0  0  0  0  0  0
    9.1589  -17.6921   26.6858 O   0  0  0  0  0  0  0  0  0  0  0  0
   11.3901  -17.9255   26.9445 O   0  0  0  0  0  0  0  0  0  0  0  0
  1  5  1  0
  2  3  1  0
  2  1  1  0
  3  4  1  0
  4  5  1  0
  5  6  1  1
  6  8  1  0
  6  7  2  0
  8  9  1  0
  9 10  1  6
  9 20  1  0
 10 11  1  0
 11 19  1  0
 11 12  2  0
 12 13  1  0
 14 13  1  0
 14 15  2  0
 16 15  1  0
 17 16  2  0
 18 19  2  0
 18 17  1  0
 19 14  1  0
 20 26  1  0
 21 20  2  0
 23 22  1  1
 23 24  1  0
 25 23  1  0
 25 27  1  0
 25 26  1  6
 27 29  2  0
 27 28  1  0
M  END
$$$$
