PWV.pdb
     RDKit          3D

 29 31  0  0  1  0  0  0  0  0999 V2000
    8.3456  -16.1808   20.0752 N   0  0  0  0  0  0  0  0  0  0  0  0
    8.2583  -16.0721   18.6299 C   0  0  0  0  0  0  0  0  0  0  0  0
    8.0843  -14.5552   18.4762 C   0  0  0  0  0  0  0  0  0  0  0  0
    8.7805  -13.9539   19.6953 C   0  0  0  0  0  0  0  0  0  0  0  0
    9.3209  -15.1602   20.3838 C   0  0  1  0  0  0  0  0  0  0  0  0
    9.4636  -15.0004   21.8480 C   0  0  0  0  0  0  0  0  0  0  0  0
   10.2196  -14.0983   22.2828 O   0  0  0  0  0  0  0  0  0  0  0  0
    8.7774  -15.8292   22.7650 N   0  0  0  0  0  0  0  0  0  0  0  0
    8.5154  -15.5576   24.1406 C   0  0  1  0  0  0  0  0  0  0  0  0
    7.2545  -16.1438   24.6706 C   0  0  0  0  0  0  0  0  0  0  0  0
    6.3617  -15.0703   25.2145 C   0  0  0  0  0  0  0  0  0  0  0  0
    5.0802  -15.2748   25.6733 C   0  0  0  0  0  0  0  0  0  0  0  0
    4.6063  -14.0842   26.0775 N   0  0  0  0  0  0  0  0  0  0  0  0
    5.5193  -13.1253   25.9013 C   0  0  0  0  0  0  0  0  0  0  0  0
    5.5347  -11.7590   26.1486 C   0  0  0  0  0  0  0  0  0  0  0  0
    6.6412  -10.9940   25.8617 C   0  0  0  0  0  0  0  0  0  0  0  0
    7.7417  -11.6202   25.3190 C   0  0  0  0  0  0  0  0  0  0  0  0
    7.7363  -12.9652   25.0717 C   0  0  0  0  0  0  0  0  0  0  0  0
    6.6201  -13.7295   25.3627 C   0  0  0  0  0  0  0  0  0  0  0  0
    9.6503  -15.9052   25.0567 C   0  0  0  0  0  0  0  0  0  0  0  0
   10.5468  -16.6605   24.6249 O   0  0  0  0  0  0  0  0  0  0  0  0
   11.8945  -15.4421   29.4584 C   0  0  0  0  0  0  0  0  0  0  0  0
   10.7011  -15.1937   28.5790 C   0  0  1  0  0  0  0  0  0  0  0  0
   10.3952  -13.7263   28.4070 C   0  0  0  0  0  0  0  0  0  0  0  0
   10.8928  -15.8036   27.2257 C   0  0  2  0  0  0  0  0  0  0  0  0
    9.7609  -15.4318   26.3651 N   0  0  0  0  0  0  0  0  0  0  0  0
   11.0437  -17.2823   27.2683 C   0  0  0  0  0  0  0  0  0  0  0  0
   12.3161  -17.8160   27.2221 O   0  0  0  0  0  0  0  0  0  0  0  0
   10.0758  -18.0728   27.3439 O   0  0  0  0  0  0  0  0  0  0  0  0
  1  5  1  0
  2  3  1  0
  2  1  1  0
  3  4  1  0
  4  5  1  0
  5  6  1  1
  6  8  1  0
  6  7  2  0
  8  9  1  0
  9 10  1  1
  9 20  1  0
 10 11  1  0
 11 19  1  0
 11 12  2  0
 12 13  1  0
 14 13  1  0
 14 15  2  0
 16 15  1  0
 17 16  2  0
 18 19  2  0
 18 17  1  0
 19 14  1  0
 20 26  1  0
 21 20  2  0
 23 22  1  1
 23 24  1  0
 25 23  1  0
 25 27  1  0
 25 26  1  6
 27 29  2  0
 27 28  1  0
M  END
$$$$
