FKW.pdb
     RDKit          3D

 35 37  0  0  1  0  0  0  0  0999 V2000
   26.0804  -18.9132  -15.8071 N   0  0  0  0  0  0  0  0  0  0  0  0
   26.8688  -19.2260  -14.6501 C   0  0  1  0  0  0  0  0  0  0  0  0
   27.7015  -18.0401  -14.2588 C   0  0  0  0  0  0  0  0  0  0  0  0
   28.5585  -17.5377  -15.3420 C   0  0  0  0  0  0  0  0  0  0  0  0
   28.3257  -16.3233  -15.9404 C   0  0  0  0  0  0  0  0  0  0  0  0
   29.1589  -15.8713  -16.9655 C   0  0  0  0  0  0  0  0  0  0  0  0
   30.2275  -16.6249  -17.4002 C   0  0  0  0  0  0  0  0  0  0  0  0
   30.4596  -17.8375  -16.8024 C   0  0  0  0  0  0  0  0  0  0  0  0
   29.6312  -18.2677  -15.7959 C   0  0  0  0  0  0  0  0  0  0  0  0
   25.9659  -19.6709  -13.5471 C   0  0  0  0  0  0  0  0  0  0  0  0
   25.0700  -18.9045  -13.0837 O   0  0  0  0  0  0  0  0  0  0  0  0
   26.0820  -20.9651  -12.9825 N   0  0  0  0  0  0  0  0  0  0  0  0
   25.0542  -21.4489  -12.0233 C   0  0  1  0  0  0  0  0  0  0  0  0
   24.6751  -22.8439  -12.4212 C   0  0  0  0  0  0  0  0  0  0  0  0
   24.3978  -23.0131  -13.8799 C   0  0  0  0  0  0  0  0  0  0  0  0
   23.9166  -24.4415  -14.1723 C   0  0  0  0  0  0  0  0  0  0  0  0
   23.6595  -24.5494  -15.6638 C   0  0  0  0  0  0  0  0  0  0  0  0
   23.1971  -25.8795  -15.9954 N   0  0  0  0  0  0  0  0  0  0  0  0
   25.6194  -21.2944  -10.6815 C   0  0  0  0  0  0  0  0  0  0  0  0
   26.8607  -21.5572  -10.5186 O   0  0  0  0  0  0  0  0  0  0  0  0
   24.8404  -20.8653   -9.5897 N   0  0  0  0  0  0  0  0  0  0  0  0
   25.4116  -20.9721   -8.2401 C   0  0  1  0  0  0  0  0  0  0  0  0
   25.7443  -19.5735   -7.8138 C   0  0  0  0  0  0  0  0  0  0  0  0
   27.1310  -19.3185   -7.4026 C   0  0  0  0  0  0  0  0  0  0  0  0
   28.1412  -18.7879   -8.2232 C   0  0  0  0  0  0  0  0  0  0  0  0
   29.2706  -18.7239   -7.5429 N   0  0  0  0  0  0  0  0  0  0  0  0
   29.1148  -19.1807   -6.2816 C   0  0  0  0  0  0  0  0  0  0  0  0
   29.9989  -19.2869   -5.2277 C   0  0  0  0  0  0  0  0  0  0  0  0
   29.5336  -19.7837   -4.0296 C   0  0  0  0  0  0  0  0  0  0  0  0
   28.1996  -20.1536   -3.9387 C   0  0  0  0  0  0  0  0  0  0  0  0
   27.3273  -20.0439   -4.9968 C   0  0  0  0  0  0  0  0  0  0  0  0
   27.7789  -19.5514   -6.1948 C   0  0  0  0  0  0  0  0  0  0  0  0
   24.4320  -21.6406   -7.3845 C   0  0  0  0  0  0  0  0  0  0  0  0
   23.2163  -21.6769   -7.7468 O   0  0  0  0  0  0  0  0  0  0  0  0
   24.7161  -22.2646   -6.1757 O   0  0  0  0  0  0  0  0  0  0  0  0
  2  1  1  6
  2  3  1  0
  3  4  1  0
  4  5  2  0
  5  6  1  0
  7  6  2  0
  8  7  1  0
  9  8  2  0
  9  4  1  0
 10  2  1  0
 11 10  2  0
 12 10  1  0
 13 19  1  0
 13 12  1  0
 13 14  1  6
 15 14  1  0
 16 17  1  0
 16 15  1  0
 18 17  1  0
 19 21  1  0
 20 19  2  0
 21 22  1  0
 22 23  1  1
 22 33  1  0
 24 23  1  0
 25 24  2  0
 26 27  1  0
 26 25  1  0
 27 32  2  0
 28 29  2  0
 28 27  1  0
 29 30  1  0
 30 31  2  0
 32 24  1  0
 32 31  1  0
 33 34  2  0
 33 35  1  0
M  END
$$$$
