FKW.pdb
     RDKit          3D

 35 37  0  0  1  0  0  0  0  0999 V2000
   26.2992  -18.1710  -20.6322 N   0  0  0  0  0  0  0  0  0  0  0  0
   26.5221  -18.3364  -19.2247 C   0  0  1  0  0  0  0  0  0  0  0  0
   26.2148  -17.0578  -18.5011 C   0  0  0  0  0  0  0  0  0  0  0  0
   27.0693  -15.9319  -18.9042 C   0  0  0  0  0  0  0  0  0  0  0  0
   28.4372  -15.9899  -18.7929 C   0  0  0  0  0  0  0  0  0  0  0  0
   29.2230  -14.9049  -19.1866 C   0  0  0  0  0  0  0  0  0  0  0  0
   28.6520  -13.7575  -19.6926 C   0  0  0  0  0  0  0  0  0  0  0  0
   27.2859  -13.7001  -19.8034 C   0  0  0  0  0  0  0  0  0  0  0  0
   26.5274  -14.7752  -19.4121 C   0  0  0  0  0  0  0  0  0  0  0  0
   25.6976  -19.4784  -18.7286 C   0  0  0  0  0  0  0  0  0  0  0  0
   24.5177  -19.6666  -19.1492 O   0  0  0  0  0  0  0  0  0  0  0  0
   26.2084  -20.3888  -17.7707 N   0  0  0  0  0  0  0  0  0  0  0  0
   25.3707  -21.5284  -17.3127 C   0  0  1  0  0  0  0  0  0  0  0  0
   26.2759  -22.5322  -16.6637 C   0  0  0  0  0  0  0  0  0  0  0  0
   25.5738  -23.7392  -16.1314 C   0  0  0  0  0  0  0  0  0  0  0  0
   25.9019  -24.9713  -16.9868 C   0  0  0  0  0  0  0  0  0  0  0  0
   25.0462  -26.1224  -16.4917 C   0  0  0  0  0  0  0  0  0  0  0  0
   25.1178  -27.2316  -17.4177 N   0  0  0  0  0  0  0  0  0  0  0  0
   24.3186  -20.9675  -16.4627 C   0  0  0  0  0  0  0  0  0  0  0  0
   24.6043  -19.9452  -15.7489 O   0  0  0  0  0  0  0  0  0  0  0  0
   23.0227  -21.5169  -16.4206 N   0  0  0  0  0  0  0  0  0  0  0  0
   22.0199  -20.8742  -15.5603 C   0  0  1  0  0  0  0  0  0  0  0  0
   21.7356  -19.5363  -16.1749 C   0  0  0  0  0  0  0  0  0  0  0  0
   21.0328  -19.5357  -17.4646 C   0  0  0  0  0  0  0  0  0  0  0  0
   19.9341  -20.3473  -17.7956 C   0  0  0  0  0  0  0  0  0  0  0  0
   19.5750  -20.1118  -19.0439 N   0  0  0  0  0  0  0  0  0  0  0  0
   20.3611  -19.1746  -19.6162 C   0  0  0  0  0  0  0  0  0  0  0  0
   20.3494  -18.6106  -20.8753 C   0  0  0  0  0  0  0  0  0  0  0  0
   21.2850  -17.6422  -21.1682 C   0  0  0  0  0  0  0  0  0  0  0  0
   22.1941  -17.2798  -20.1849 C   0  0  0  0  0  0  0  0  0  0  0  0
   22.1966  -17.8499  -18.9328 C   0  0  0  0  0  0  0  0  0  0  0  0
   21.2706  -18.8154  -18.6296 C   0  0  0  0  0  0  0  0  0  0  0  0
   20.8558  -21.7561  -15.4835 C   0  0  0  0  0  0  0  0  0  0  0  0
   19.9103  -21.4652  -14.6886 O   0  0  0  0  0  0  0  0  0  0  0  0
   20.6787  -22.9172  -16.2261 O   0  0  0  0  0  0  0  0  0  0  0  0
  2  1  1  6
  2  3  1  0
  3  4  1  0
  4  5  2  0
  5  6  1  0
  7  6  2  0
  8  7  1  0
  9  8  2  0
  9  4  1  0
 10  2  1  0
 11 10  2  0
 12 10  1  0
 13 19  1  0
 13 12  1  0
 13 14  1  1
 15 14  1  0
 16 17  1  0
 16 15  1  0
 18 17  1  0
 19 21  1  0
 20 19  2  0
 21 22  1  0
 22 23  1  6
 22 33  1  0
 24 23  1  0
 25 24  2  0
 26 27  1  0
 26 25  1  0
 27 32  2  0
 28 29  2  0
 28 27  1  0
 29 30  1  0
 30 31  2  0
 32 24  1  0
 32 31  1  0
 33 34  2  0
 33 35  1  0
M  END
$$$$
