FKW.pdb
     RDKit          3D

 35 37  0  0  1  0  0  0  0  0999 V2000
   25.7813  -18.6083  -20.0044 N   0  0  0  0  0  0  0  0  0  0  0  0
   26.1712  -18.7106  -18.6276 C   0  0  1  0  0  0  0  0  0  0  0  0
   26.0566  -17.3715  -17.9593 C   0  0  0  0  0  0  0  0  0  0  0  0
   26.9611  -16.3553  -18.5156 C   0  0  0  0  0  0  0  0  0  0  0  0
   26.5005  -15.1275  -18.9248 C   0  0  0  0  0  0  0  0  0  0  0  0
   27.3846  -14.1813  -19.4469 C   0  0  0  0  0  0  0  0  0  0  0  0
   28.7306  -14.4517  -19.5643 C   0  0  0  0  0  0  0  0  0  0  0  0
   29.1900  -15.6779  -19.1556 C   0  0  0  0  0  0  0  0  0  0  0  0
   28.3081  -16.5973  -18.6445 C   0  0  0  0  0  0  0  0  0  0  0  0
   25.3346  -19.7500  -17.9569 C   0  0  0  0  0  0  0  0  0  0  0  0
   24.0911  -19.8366  -18.1824 O   0  0  0  0  0  0  0  0  0  0  0  0
   25.9047  -20.6734  -17.0460 N   0  0  0  0  0  0  0  0  0  0  0  0
   25.0521  -21.7192  -16.4218 C   0  0  1  0  0  0  0  0  0  0  0  0
   25.9576  -22.7636  -15.8409 C   0  0  0  0  0  0  0  0  0  0  0  0
   25.2433  -23.9241  -15.2275 C   0  0  0  0  0  0  0  0  0  0  0  0
   24.8820  -24.9602  -16.3014 C   0  0  0  0  0  0  0  0  0  0  0  0
   24.2169  -26.1351  -15.6089 C   0  0  0  0  0  0  0  0  0  0  0  0
   23.7431  -27.0886  -16.5885 N   0  0  0  0  0  0  0  0  0  0  0  0
   24.1676  -21.0369  -15.4753 C   0  0  0  0  0  0  0  0  0  0  0  0
   24.6672  -20.1126  -14.7455 O   0  0  0  0  0  0  0  0  0  0  0  0
   22.8038  -21.3677  -15.3585 N   0  0  0  0  0  0  0  0  0  0  0  0
   22.0112  -20.7025  -14.3153 C   0  0  1  0  0  0  0  0  0  0  0  0
   21.8193  -19.2874  -14.7727 C   0  0  0  0  0  0  0  0  0  0  0  0
   20.8715  -19.0698  -15.8732 C   0  0  0  0  0  0  0  0  0  0  0  0
   19.4800  -19.2544  -15.8005 C   0  0  0  0  0  0  0  0  0  0  0  0
   18.9417  -19.0017  -16.9790 N   0  0  0  0  0  0  0  0  0  0  0  0
   19.8784  -18.6464  -17.8847 C   0  0  0  0  0  0  0  0  0  0  0  0
   19.7812  -18.2854  -19.2127 C   0  0  0  0  0  0  0  0  0  0  0  0
   20.9352  -17.9489  -19.8864 C   0  0  0  0  0  0  0  0  0  0  0  0
   22.1397  -17.9888  -19.1991 C   0  0  0  0  0  0  0  0  0  0  0  0
   22.2244  -18.3512  -17.8746 C   0  0  0  0  0  0  0  0  0  0  0  0
   21.0826  -18.6889  -17.1935 C   0  0  0  0  0  0  0  0  0  0  0  0
   20.7656  -21.4500  -14.1461 C   0  0  0  0  0  0  0  0  0  0  0  0
   20.4681  -22.3549  -14.9846 O   0  0  0  0  0  0  0  0  0  0  0  0
   19.8497  -21.2607  -13.1183 O   0  0  0  0  0  0  0  0  0  0  0  0
  2  1  1  6
  2  3  1  0
  3  4  1  0
  4  5  2  0
  5  6  1  0
  7  6  2  0
  8  7  1  0
  9  8  2  0
  9  4  1  0
 10  2  1  0
 11 10  2  0
 12 10  1  0
 13 19  1  0
 13 12  1  0
 13 14  1  1
 15 14  1  0
 16 17  1  0
 16 15  1  0
 18 17  1  0
 19 21  1  0
 20 19  2  0
 21 22  1  0
 22 23  1  6
 22 33  1  0
 24 23  1  0
 25 24  2  0
 26 27  1  0
 26 25  1  0
 27 32  2  0
 28 29  2  0
 28 27  1  0
 29 30  1  0
 30 31  2  0
 32 24  1  0
 32 31  1  0
 33 34  2  0
 33 35  1  0
M  END
$$$$
