FKW.pdb
     RDKit          3D

 35 37  0  0  1  0  0  0  0  0999 V2000
   30.3394  -19.3549  -13.2409 N   0  0  0  0  0  0  0  0  0  0  0  0
   29.3321  -20.3730  -13.3234 C   0  0  1  0  0  0  0  0  0  0  0  0
   29.1876  -21.0627  -11.9981 C   0  0  0  0  0  0  0  0  0  0  0  0
   30.4512  -21.5967  -11.4701 C   0  0  0  0  0  0  0  0  0  0  0  0
   31.2093  -22.4922  -12.1846 C   0  0  0  0  0  0  0  0  0  0  0  0
   32.4067  -22.9799  -11.6577 C   0  0  0  0  0  0  0  0  0  0  0  0
   32.8558  -22.5794  -10.4181 C   0  0  0  0  0  0  0  0  0  0  0  0
   32.0983  -21.6852   -9.7051 C   0  0  0  0  0  0  0  0  0  0  0  0
   30.9234  -21.2150  -10.2369 C   0  0  0  0  0  0  0  0  0  0  0  0
   28.0508  -19.7592  -13.7833 C   0  0  0  0  0  0  0  0  0  0  0  0
   27.5918  -18.7128  -13.2366 O   0  0  0  0  0  0  0  0  0  0  0  0
   27.3065  -20.3275  -14.8465 N   0  0  0  0  0  0  0  0  0  0  0  0
   25.9269  -19.8476  -15.1232 C   0  0  1  0  0  0  0  0  0  0  0  0
   25.8135  -19.6012  -16.5979 C   0  0  0  0  0  0  0  0  0  0  0  0
   24.4848  -19.0730  -17.0324 C   0  0  0  0  0  0  0  0  0  0  0  0
   24.4444  -18.9127  -18.5588 C   0  0  0  0  0  0  0  0  0  0  0  0
   23.1234  -18.2610  -18.9231 C   0  0  0  0  0  0  0  0  0  0  0  0
   23.0650  -18.0138  -20.3474 N   0  0  0  0  0  0  0  0  0  0  0  0
   25.0107  -20.8443  -14.5658 C   0  0  0  0  0  0  0  0  0  0  0  0
   25.0518  -22.0309  -15.0421 O   0  0  0  0  0  0  0  0  0  0  0  0
   24.1069  -20.5303  -13.5326 N   0  0  0  0  0  0  0  0  0  0  0  0
   23.2771  -21.6094  -12.9794 C   0  0  1  0  0  0  0  0  0  0  0  0
   23.9992  -22.1134  -11.7657 C   0  0  0  0  0  0  0  0  0  0  0  0
   24.2228  -21.1496  -10.6802 C   0  0  0  0  0  0  0  0  0  0  0  0
   23.2768  -20.2281  -10.1991 C   0  0  0  0  0  0  0  0  0  0  0  0
   23.8228  -19.4961   -9.2459 N   0  0  0  0  0  0  0  0  0  0  0  0
   25.1070  -19.8504   -9.0245 C   0  0  0  0  0  0  0  0  0  0  0  0
   26.0480  -19.3812   -8.1312 C   0  0  0  0  0  0  0  0  0  0  0  0
   27.2955  -19.9663   -8.1260 C   0  0  0  0  0  0  0  0  0  0  0  0
   27.5473  -20.9986   -9.0180 C   0  0  0  0  0  0  0  0  0  0  0  0
   26.6011  -21.4577   -9.9049 C   0  0  0  0  0  0  0  0  0  0  0  0
   25.3558  -20.8827   -9.9200 C   0  0  0  0  0  0  0  0  0  0  0  0
   21.9492  -21.0633  -12.7010 C   0  0  0  0  0  0  0  0  0  0  0  0
   21.7402  -19.8241  -12.8776 O   0  0  0  0  0  0  0  0  0  0  0  0
   20.8580  -21.7973  -12.2519 O   0  0  0  0  0  0  0  0  0  0  0  0
  2  1  1  1
  2  3  1  0
  3  4  1  0
  4  5  2  0
  5  6  1  0
  7  6  2  0
  8  7  1  0
  9  8  2  0
  9  4  1  0
 10  2  1  0
 11 10  2  0
 12 10  1  0
 13 19  1  0
 13 12  1  0
 13 14  1  6
 15 14  1  0
 16 17  1  0
 16 15  1  0
 18 17  1  0
 19 21  1  0
 20 19  2  0
 21 22  1  0
 22 23  1  1
 22 33  1  0
 24 23  1  0
 25 24  2  0
 26 27  1  0
 26 25  1  0
 27 32  2  0
 28 29  2  0
 28 27  1  0
 29 30  1  0
 30 31  2  0
 32 24  1  0
 32 31  1  0
 33 34  2  0
 33 35  1  0
M  END
$$$$
