FKW.pdb
     RDKit          3D

 35 37  0  0  1  0  0  0  0  0999 V2000
   27.5260  -18.5675   -8.8994 N   0  0  0  0  0  0  0  0  0  0  0  0
   27.2411  -19.9628   -9.0730 C   0  0  1  0  0  0  0  0  0  0  0  0
   26.5453  -20.5012   -7.8570 C   0  0  0  0  0  0  0  0  0  0  0  0
   27.2574  -20.2284   -6.6005 C   0  0  0  0  0  0  0  0  0  0  0  0
   26.6465  -19.5864   -5.5510 C   0  0  0  0  0  0  0  0  0  0  0  0
   27.3482  -19.3435   -4.3686 C   0  0  0  0  0  0  0  0  0  0  0  0
   28.6605  -19.7381   -4.2245 C   0  0  0  0  0  0  0  0  0  0  0  0
   29.2702  -20.3792   -5.2729 C   0  0  0  0  0  0  0  0  0  0  0  0
   28.5667  -20.6105   -6.4287 C   0  0  0  0  0  0  0  0  0  0  0  0
   26.4323  -20.1473  -10.3147 C   0  0  0  0  0  0  0  0  0  0  0  0
   25.3689  -19.4870  -10.5086 O   0  0  0  0  0  0  0  0  0  0  0  0
   26.8282  -21.0675  -11.3167 N   0  0  0  0  0  0  0  0  0  0  0  0
   26.5354  -20.7773  -12.7451 C   0  0  1  0  0  0  0  0  0  0  0  0
   27.5434  -21.5104  -13.5786 C   0  0  0  0  0  0  0  0  0  0  0  0
   27.3095  -21.4144  -15.0515 C   0  0  0  0  0  0  0  0  0  0  0  0
   28.3147  -22.2905  -15.8125 C   0  0  0  0  0  0  0  0  0  0  0  0
   28.1266  -22.0327  -17.2959 C   0  0  0  0  0  0  0  0  0  0  0  0
   28.9849  -22.9057  -18.0668 N   0  0  0  0  0  0  0  0  0  0  0  0
   25.1333  -21.1327  -12.9719 C   0  0  0  0  0  0  0  0  0  0  0  0
   24.6839  -22.1918  -12.4126 O   0  0  0  0  0  0  0  0  0  0  0  0
   24.2850  -20.3444  -13.7732 N   0  0  0  0  0  0  0  0  0  0  0  0
   22.8848  -20.7620  -13.9283 C   0  0  1  0  0  0  0  0  0  0  0  0
   22.0594  -19.5165  -13.8029 C   0  0  0  0  0  0  0  0  0  0  0  0
   20.6421  -19.6210  -14.1735 C   0  0  0  0  0  0  0  0  0  0  0  0
   19.5940  -19.9657  -13.3026 C   0  0  0  0  0  0  0  0  0  0  0  0
   18.4581  -19.9977  -13.9743 N   0  0  0  0  0  0  0  0  0  0  0  0
   18.6448  -19.6929  -15.2766 C   0  0  0  0  0  0  0  0  0  0  0  0
   17.7612  -19.5896  -16.3312 C   0  0  0  0  0  0  0  0  0  0  0  0
   18.2552  -19.2343  -17.5675 C   0  0  0  0  0  0  0  0  0  0  0  0
   19.6163  -18.9971  -17.6943 C   0  0  0  0  0  0  0  0  0  0  0  0
   20.4880  -19.1039  -16.6355 C   0  0  0  0  0  0  0  0  0  0  0  0
   20.0082  -19.4576  -15.4000 C   0  0  0  0  0  0  0  0  0  0  0  0
   22.7534  -21.4388  -15.2180 C   0  0  0  0  0  0  0  0  0  0  0  0
   23.6151  -21.2183  -16.1232 O   0  0  0  0  0  0  0  0  0  0  0  0
   21.7449  -22.3331  -15.5556 O   0  0  0  0  0  0  0  0  0  0  0  0
  2  1  1  1
  2  3  1  0
  3  4  1  0
  4  5  2  0
  5  6  1  0
  7  6  2  0
  8  7  1  0
  9  8  2  0
  9  4  1  0
 10  2  1  0
 11 10  2  0
 12 10  1  0
 13 19  1  0
 13 12  1  0
 13 14  1  6
 15 14  1  0
 16 17  1  0
 16 15  1  0
 18 17  1  0
 19 21  1  0
 20 19  2  0
 21 22  1  0
 22 23  1  6
 22 33  1  0
 24 23  1  0
 25 24  2  0
 26 27  1  0
 26 25  1  0
 27 32  2  0
 28 29  2  0
 28 27  1  0
 29 30  1  0
 30 31  2  0
 32 24  1  0
 32 31  1  0
 33 34  2  0
 33 35  1  0
M  END
$$$$
