FKW.pdb
     RDKit          3D

 35 37  0  0  1  0  0  0  0  0999 V2000
   27.4696  -18.3427   -7.9917 N   0  0  0  0  0  0  0  0  0  0  0  0
   27.6389  -19.7306   -8.3127 C   0  0  1  0  0  0  0  0  0  0  0  0
   27.3442  -20.5770   -7.1087 C   0  0  0  0  0  0  0  0  0  0  0  0
   28.2846  -20.3707   -5.9981 C   0  0  0  0  0  0  0  0  0  0  0  0
   29.5675  -20.8599   -6.0400 C   0  0  0  0  0  0  0  0  0  0  0  0
   30.4389  -20.6455   -4.9704 C   0  0  0  0  0  0  0  0  0  0  0  0
   30.0386  -19.9436   -3.8543 C   0  0  0  0  0  0  0  0  0  0  0  0
   28.7573  -19.4553   -3.8129 C   0  0  0  0  0  0  0  0  0  0  0  0
   27.9128  -19.6745   -4.8726 C   0  0  0  0  0  0  0  0  0  0  0  0
   26.7649  -20.0757   -9.4733 C   0  0  0  0  0  0  0  0  0  0  0  0
   25.5650  -19.6744   -9.5326 O   0  0  0  0  0  0  0  0  0  0  0  0
   27.2496  -20.8638  -10.5464 N   0  0  0  0  0  0  0  0  0  0  0  0
   26.6706  -20.6992  -11.9057 C   0  0  1  0  0  0  0  0  0  0  0  0
   27.6519  -21.2556  -12.8935 C   0  0  0  0  0  0  0  0  0  0  0  0
   27.1864  -21.2131  -14.3129 C   0  0  0  0  0  0  0  0  0  0  0  0
   27.9695  -20.1547  -15.1027 C   0  0  0  0  0  0  0  0  0  0  0  0
   27.3805  -20.0866  -16.4994 C   0  0  0  0  0  0  0  0  0  0  0  0
   28.1601  -19.1916  -17.3266 N   0  0  0  0  0  0  0  0  0  0  0  0
   25.3506  -21.3324  -11.8847 C   0  0  0  0  0  0  0  0  0  0  0  0
   25.1615  -22.3001  -11.0697 O   0  0  0  0  0  0  0  0  0  0  0  0
   24.3042  -20.9021  -12.7232 N   0  0  0  0  0  0  0  0  0  0  0  0
   22.9556  -21.4346  -12.4855 C   0  0  1  0  0  0  0  0  0  0  0  0
   22.2160  -20.3775  -11.7213 C   0  0  0  0  0  0  0  0  0  0  0  0
   20.7986  -20.6357  -11.4361 C   0  0  0  0  0  0  0  0  0  0  0  0
   20.2927  -21.1856  -10.2456 C   0  0  0  0  0  0  0  0  0  0  0  0
   18.9821  -21.3104  -10.3423 N   0  0  0  0  0  0  0  0  0  0  0  0
   18.5309  -20.8768  -11.5391 C   0  0  0  0  0  0  0  0  0  0  0  0
   17.2592  -20.8031  -12.0691 C   0  0  0  0  0  0  0  0  0  0  0  0
   17.1067  -20.2848  -13.3367 C   0  0  0  0  0  0  0  0  0  0  0  0
   18.2374  -19.8617  -14.0204 C   0  0  0  0  0  0  0  0  0  0  0  0
   19.5008  -19.9409  -13.4819 C   0  0  0  0  0  0  0  0  0  0  0  0
   19.6654  -20.4556  -12.2211 C   0  0  0  0  0  0  0  0  0  0  0  0
   22.3617  -21.7609  -13.7815 C   0  0  0  0  0  0  0  0  0  0  0  0
   21.4735  -22.6651  -13.8452 O   0  0  0  0  0  0  0  0  0  0  0  0
   22.6845  -21.1516  -14.9880 O   0  0  0  0  0  0  0  0  0  0  0  0
  2  1  1  1
  2  3  1  0
  3  4  1  0
  4  5  2  0
  5  6  1  0
  7  6  2  0
  8  7  1  0
  9  8  2  0
  9  4  1  0
 10  2  1  0
 11 10  2  0
 12 10  1  0
 13 19  1  0
 13 12  1  0
 13 14  1  6
 15 14  1  0
 16 17  1  0
 16 15  1  0
 18 17  1  0
 19 21  1  0
 20 19  2  0
 21 22  1  0
 22 23  1  6
 22 33  1  0
 24 23  1  0
 25 24  2  0
 26 27  1  0
 26 25  1  0
 27 32  2  0
 28 29  2  0
 28 27  1  0
 29 30  1  0
 30 31  2  0
 32 24  1  0
 32 31  1  0
 33 34  2  0
 33 35  1  0
M  END
$$$$
