FKW.pdb
     RDKit          3D

 35 37  0  0  1  0  0  0  0  0999 V2000
   27.5445  -22.0009  -10.9715 N   0  0  0  0  0  0  0  0  0  0  0  0
   26.4280  -21.1138  -10.8150 C   0  0  1  0  0  0  0  0  0  0  0  0
   26.9054  -19.7556  -10.3905 C   0  0  0  0  0  0  0  0  0  0  0  0
   27.4116  -19.7127   -9.0112 C   0  0  0  0  0  0  0  0  0  0  0  0
   28.7476  -19.8628   -8.7292 C   0  0  0  0  0  0  0  0  0  0  0  0
   29.1989  -19.8148   -7.4088 C   0  0  0  0  0  0  0  0  0  0  0  0
   28.3238  -19.6171   -6.3629 C   0  0  0  0  0  0  0  0  0  0  0  0
   26.9898  -19.4673   -6.6451 C   0  0  0  0  0  0  0  0  0  0  0  0
   26.5619  -19.5170   -7.9485 C   0  0  0  0  0  0  0  0  0  0  0  0
   25.6558  -21.0672  -12.0924 C   0  0  0  0  0  0  0  0  0  0  0  0
   26.2144  -20.7536  -13.1851 O   0  0  0  0  0  0  0  0  0  0  0  0
   24.2726  -21.3724  -12.1235 N   0  0  0  0  0  0  0  0  0  0  0  0
   23.5202  -21.2665  -13.4014 C   0  0  1  0  0  0  0  0  0  0  0  0
   23.1974  -22.6567  -13.8609 C   0  0  0  0  0  0  0  0  0  0  0  0
   24.3876  -23.4576  -14.2795 C   0  0  0  0  0  0  0  0  0  0  0  0
   23.9477  -24.8111  -14.8556 C   0  0  0  0  0  0  0  0  0  0  0  0
   25.1947  -25.5602  -15.2871 C   0  0  0  0  0  0  0  0  0  0  0  0
   25.9348  -24.7809  -16.2556 N   0  0  0  0  0  0  0  0  0  0  0  0
   22.3744  -20.3909  -13.1483 C   0  0  0  0  0  0  0  0  0  0  0  0
   21.7187  -20.5583  -12.0627 O   0  0  0  0  0  0  0  0  0  0  0  0
   21.9908  -19.3845  -14.0555 N   0  0  0  0  0  0  0  0  0  0  0  0
   20.8304  -18.5478  -13.7201 C   0  0  1  0  0  0  0  0  0  0  0  0
   20.9070  -17.3466  -14.6144 C   0  0  0  0  0  0  0  0  0  0  0  0
   20.6606  -17.5692  -16.0450 C   0  0  0  0  0  0  0  0  0  0  0  0
   19.4258  -17.4040  -16.6959 C   0  0  0  0  0  0  0  0  0  0  0  0
   19.5559  -17.7214  -17.9706 N   0  0  0  0  0  0  0  0  0  0  0  0
   20.8190  -18.1025  -18.2590 C   0  0  0  0  0  0  0  0  0  0  0  0
   21.4113  -18.4992  -19.4402 C   0  0  0  0  0  0  0  0  0  0  0  0
   22.7526  -18.8148  -19.4270 C   0  0  0  0  0  0  0  0  0  0  0  0
   23.4443  -18.7192  -18.2282 C   0  0  0  0  0  0  0  0  0  0  0  0
   22.8427  -18.3231  -17.0561 C   0  0  0  0  0  0  0  0  0  0  0  0
   21.5079  -18.0070  -17.0566 C   0  0  0  0  0  0  0  0  0  0  0  0
   19.6230  -19.3526  -13.9024 C   0  0  0  0  0  0  0  0  0  0  0  0
   19.6919  -20.4294  -14.5703 O   0  0  0  0  0  0  0  0  0  0  0  0
   18.3678  -19.0427  -13.3928 O   0  0  0  0  0  0  0  0  0  0  0  0
  2  1  1  6
  2  3  1  0
  3  4  1  0
  4  5  2  0
  5  6  1  0
  7  6  2  0
  8  7  1  0
  9  8  2  0
  9  4  1  0
 10  2  1  0
 11 10  2  0
 12 10  1  0
 13 19  1  0
 13 12  1  0
 13 14  1  1
 15 14  1  0
 16 17  1  0
 16 15  1  0
 18 17  1  0
 19 21  1  0
 20 19  2  0
 21 22  1  0
 22 23  1  6
 22 33  1  0
 24 23  1  0
 25 24  2  0
 26 27  1  0
 26 25  1  0
 27 32  2  0
 28 29  2  0
 28 27  1  0
 29 30  1  0
 30 31  2  0
 32 24  1  0
 32 31  1  0
 33 34  2  0
 33 35  1  0
M  END
$$$$
