FKW.pdb
     RDKit          3D

 35 37  0  0  1  0  0  0  0  0999 V2000
   19.6763  -20.7754  -12.9686 N   0  0  0  0  0  0  0  0  0  0  0  0
   20.8610  -19.9818  -13.1261 C   0  0  1  0  0  0  0  0  0  0  0  0
   20.7638  -18.7401  -12.2885 C   0  0  0  0  0  0  0  0  0  0  0  0
   19.8339  -17.7370  -12.8264 C   0  0  0  0  0  0  0  0  0  0  0  0
   20.1327  -17.0078  -13.9516 C   0  0  0  0  0  0  0  0  0  0  0  0
   19.2278  -16.0635  -14.4404 C   0  0  0  0  0  0  0  0  0  0  0  0
   18.0217  -15.8402  -13.8126 C   0  0  0  0  0  0  0  0  0  0  0  0
   17.7238  -16.5685  -12.6890 C   0  0  0  0  0  0  0  0  0  0  0  0
   18.6241  -17.4931  -12.2210 C   0  0  0  0  0  0  0  0  0  0  0  0
   22.0547  -20.8077  -12.7753 C   0  0  0  0  0  0  0  0  0  0  0  0
   22.0724  -21.5240  -11.7307 O   0  0  0  0  0  0  0  0  0  0  0  0
   23.2069  -20.8169  -13.5998 N   0  0  0  0  0  0  0  0  0  0  0  0
   24.4030  -21.5995  -13.1909 C   0  0  1  0  0  0  0  0  0  0  0  0
   25.1434  -21.9902  -14.4349 C   0  0  0  0  0  0  0  0  0  0  0  0
   26.3757  -22.7988  -14.1882 C   0  0  0  0  0  0  0  0  0  0  0  0
   27.0450  -23.1755  -15.5177 C   0  0  0  0  0  0  0  0  0  0  0  0
   28.3138  -23.9439  -15.1982 C   0  0  0  0  0  0  0  0  0  0  0  0
   28.9758  -24.3443  -16.4206 N   0  0  0  0  0  0  0  0  0  0  0  0
   25.1436  -20.7747  -12.2345 C   0  0  0  0  0  0  0  0  0  0  0  0
   25.1926  -19.5131  -12.4407 O   0  0  0  0  0  0  0  0  0  0  0  0
   25.7857  -21.3308  -11.1113 N   0  0  0  0  0  0  0  0  0  0  0  0
   26.6604  -20.4657  -10.3079 C   0  0  1  0  0  0  0  0  0  0  0  0
   26.2664  -20.6834   -8.8776 C   0  0  0  0  0  0  0  0  0  0  0  0
   26.9575  -19.8698   -7.8689 C   0  0  0  0  0  0  0  0  0  0  0  0
   26.8985  -18.4690   -7.7701 C   0  0  0  0  0  0  0  0  0  0  0  0
   27.6641  -18.0669   -6.7727 N   0  0  0  0  0  0  0  0  0  0  0  0
   28.2630  -19.1095   -6.1576 C   0  0  0  0  0  0  0  0  0  0  0  0
   29.1208  -19.1695   -5.0786 C   0  0  0  0  0  0  0  0  0  0  0  0
   29.5597  -20.4063   -4.6586 C   0  0  0  0  0  0  0  0  0  0  0  0
   29.1195  -21.5322   -5.3391 C   0  0  0  0  0  0  0  0  0  0  0  0
   28.2645  -21.4600   -6.4145 C   0  0  0  0  0  0  0  0  0  0  0  0
   27.8212  -20.2344   -6.8424 C   0  0  0  0  0  0  0  0  0  0  0  0
   28.0474  -20.8205  -10.6064 C   0  0  0  0  0  0  0  0  0  0  0  0
   28.3213  -22.0105  -10.9518 O   0  0  0  0  0  0  0  0  0  0  0  0
   29.1282  -19.9487  -10.5507 O   0  0  0  0  0  0  0  0  0  0  0  0
  2  1  1  1
  2  3  1  0
  3  4  1  0
  4  5  2  0
  5  6  1  0
  7  6  2  0
  8  7  1  0
  9  8  2  0
  9  4  1  0
 10  2  1  0
 11 10  2  0
 12 10  1  0
 13 19  1  0
 13 12  1  0
 13 14  1  6
 15 14  1  0
 16 17  1  0
 16 15  1  0
 18 17  1  0
 19 21  1  0
 20 19  2  0
 21 22  1  0
 22 23  1  1
 22 33  1  0
 24 23  1  0
 25 24  2  0
 26 27  1  0
 26 25  1  0
 27 32  2  0
 28 29  2  0
 28 27  1  0
 29 30  1  0
 30 31  2  0
 32 24  1  0
 32 31  1  0
 33 34  2  0
 33 35  1  0
M  END
$$$$
