FKW.pdb
     RDKit          3D

 35 37  0  0  1  0  0  0  0  0999 V2000
   30.4216  -20.0466  -14.1881 N   0  0  0  0  0  0  0  0  0  0  0  0
   29.4720  -20.9524  -13.6086 C   0  0  1  0  0  0  0  0  0  0  0  0
   29.9946  -21.4812  -12.3047 C   0  0  0  0  0  0  0  0  0  0  0  0
   31.1690  -22.3530  -12.4498 C   0  0  0  0  0  0  0  0  0  0  0  0
   31.1433  -23.4689  -13.2505 C   0  0  0  0  0  0  0  0  0  0  0  0
   32.2759  -24.2765  -13.3705 C   0  0  0  0  0  0  0  0  0  0  0  0
   33.4392  -23.9781  -12.6949 C   0  0  0  0  0  0  0  0  0  0  0  0
   33.4643  -22.8636  -11.8954 C   0  0  0  0  0  0  0  0  0  0  0  0
   32.3425  -22.0798  -11.7880 C   0  0  0  0  0  0  0  0  0  0  0  0
   28.1616  -20.2540  -13.4503 C   0  0  0  0  0  0  0  0  0  0  0  0
   28.1044  -19.0415  -13.0884 O   0  0  0  0  0  0  0  0  0  0  0  0
   26.9391  -20.9252  -13.6999 N   0  0  0  0  0  0  0  0  0  0  0  0
   25.6710  -20.3844  -13.1434 C   0  0  1  0  0  0  0  0  0  0  0  0
   24.5607  -20.7653  -14.0762 C   0  0  0  0  0  0  0  0  0  0  0  0
   23.1948  -20.4151  -13.5813 C   0  0  0  0  0  0  0  0  0  0  0  0
   22.1222  -20.9690  -14.5300 C   0  0  0  0  0  0  0  0  0  0  0  0
   20.7780  -20.4291  -14.0781 C   0  0  0  0  0  0  0  0  0  0  0  0
   19.7220  -20.9547  -14.9157 N   0  0  0  0  0  0  0  0  0  0  0  0
   25.5600  -20.8874  -11.7728 C   0  0  0  0  0  0  0  0  0  0  0  0
   25.7946  -22.1280  -11.5674 O   0  0  0  0  0  0  0  0  0  0  0  0
   25.2125  -20.0480  -10.6968 N   0  0  0  0  0  0  0  0  0  0  0  0
   25.1461  -20.6313   -9.3499 C   0  0  1  0  0  0  0  0  0  0  0  0
   26.3202  -20.0816   -8.5965 C   0  0  0  0  0  0  0  0  0  0  0  0
   26.3869  -20.3846   -7.1609 C   0  0  0  0  0  0  0  0  0  0  0  0
   25.5562  -21.2900   -6.4785 C   0  0  0  0  0  0  0  0  0  0  0  0
   25.8685  -21.2908   -5.1959 N   0  0  0  0  0  0  0  0  0  0  0  0
   26.8783  -20.4337   -4.9322 C   0  0  0  0  0  0  0  0  0  0  0  0
   27.5334  -20.1197   -3.7593 C   0  0  0  0  0  0  0  0  0  0  0  0
   28.5597  -19.2015   -3.8076 C   0  0  0  0  0  0  0  0  0  0  0  0
   28.8863  -18.6362   -5.0317 C   0  0  0  0  0  0  0  0  0  0  0  0
   28.2253  -18.9565   -6.1949 C   0  0  0  0  0  0  0  0  0  0  0  0
   27.2014  -19.8687   -6.1593 C   0  0  0  0  0  0  0  0  0  0  0  0
   23.8488  -20.2861   -8.7695 C   0  0  0  0  0  0  0  0  0  0  0  0
   23.2891  -19.1986   -9.1078 O   0  0  0  0  0  0  0  0  0  0  0  0
   23.1458  -21.0636   -7.8572 O   0  0  0  0  0  0  0  0  0  0  0  0
  2  1  1  1
  2  3  1  0
  3  4  1  0
  4  5  2  0
  5  6  1  0
  7  6  2  0
  8  7  1  0
  9  8  2  0
  9  4  1  0
 10  2  1  0
 11 10  2  0
 12 10  1  0
 13 19  1  0
 13 12  1  0
 13 14  1  6
 15 14  1  0
 16 17  1  0
 16 15  1  0
 18 17  1  0
 19 21  1  0
 20 19  2  0
 21 22  1  0
 22 23  1  1
 22 33  1  0
 24 23  1  0
 25 24  2  0
 26 27  1  0
 26 25  1  0
 27 32  2  0
 28 29  2  0
 28 27  1  0
 29 30  1  0
 30 31  2  0
 32 24  1  0
 32 31  1  0
 33 34  2  0
 33 35  1  0
M  END
$$$$
