FKW.pdb
     RDKit          3D

 35 37  0  0  1  0  0  0  0  0999 V2000
   28.7745  -21.2344   -9.3441 N   0  0  0  0  0  0  0  0  0  0  0  0
   27.3627  -21.0404   -9.1789 C   0  0  1  0  0  0  0  0  0  0  0  0
   27.1062  -19.8658   -8.2804 C   0  0  0  0  0  0  0  0  0  0  0  0
   27.7056  -20.0024   -6.9453 C   0  0  0  0  0  0  0  0  0  0  0  0
   29.0192  -19.6775   -6.7087 C   0  0  0  0  0  0  0  0  0  0  0  0
   29.5598  -19.8153   -5.4288 C   0  0  0  0  0  0  0  0  0  0  0  0
   28.7967  -20.2768   -4.3784 C   0  0  0  0  0  0  0  0  0  0  0  0
   27.4850  -20.6012   -4.6152 C   0  0  0  0  0  0  0  0  0  0  0  0
   26.9684  -20.4601   -5.8792 C   0  0  0  0  0  0  0  0  0  0  0  0
   26.7303  -20.8733  -10.5214 C   0  0  0  0  0  0  0  0  0  0  0  0
   27.1233  -19.9757  -11.3241 O   0  0  0  0  0  0  0  0  0  0  0  0
   25.6696  -21.7136  -10.9410 N   0  0  0  0  0  0  0  0  0  0  0  0
   25.1056  -21.5662  -12.3086 C   0  0  1  0  0  0  0  0  0  0  0  0
   25.3280  -22.8568  -13.0388 C   0  0  0  0  0  0  0  0  0  0  0  0
   24.7538  -22.8895  -14.4180 C   0  0  0  0  0  0  0  0  0  0  0  0
   25.1067  -24.2114  -15.1148 C   0  0  0  0  0  0  0  0  0  0  0  0
   24.1058  -25.2578  -14.6613 C   0  0  0  0  0  0  0  0  0  0  0  0
   24.3185  -26.4957  -15.3790 N   0  0  0  0  0  0  0  0  0  0  0  0
   23.7110  -21.1494  -12.1503 C   0  0  0  0  0  0  0  0  0  0  0  0
   23.0402  -21.6510  -11.1835 O   0  0  0  0  0  0  0  0  0  0  0  0
   23.1071  -20.2215  -13.0206 N   0  0  0  0  0  0  0  0  0  0  0  0
   21.7293  -19.7954  -12.7396 C   0  0  1  0  0  0  0  0  0  0  0  0
   21.6387  -18.3608  -13.1662 C   0  0  0  0  0  0  0  0  0  0  0  0
   20.3138  -17.7311  -13.0958 C   0  0  0  0  0  0  0  0  0  0  0  0
   19.5278  -17.6109  -11.9368 C   0  0  0  0  0  0  0  0  0  0  0  0
   18.3849  -17.0243  -12.2406 N   0  0  0  0  0  0  0  0  0  0  0  0
   18.3187  -16.7210  -13.5550 C   0  0  0  0  0  0  0  0  0  0  0  0
   17.3416  -16.1009  -14.3061 C   0  0  0  0  0  0  0  0  0  0  0  0
   17.5723  -15.9085  -15.6509 C   0  0  0  0  0  0  0  0  0  0  0  0
   18.7747  -16.3466  -16.1865 C   0  0  0  0  0  0  0  0  0  0  0  0
   19.7416  -16.9646  -15.4277 C   0  0  0  0  0  0  0  0  0  0  0  0
   19.5232  -17.1623  -14.0880 C   0  0  0  0  0  0  0  0  0  0  0  0
   20.8223  -20.6907  -13.4570 C   0  0  0  0  0  0  0  0  0  0  0  0
   21.2240  -21.2576  -14.5190 O   0  0  0  0  0  0  0  0  0  0  0  0
   19.5222  -20.9933  -13.0709 O   0  0  0  0  0  0  0  0  0  0  0  0
  2  1  1  6
  2  3  1  0
  3  4  1  0
  4  5  2  0
  5  6  1  0
  7  6  2  0
  8  7  1  0
  9  8  2  0
  9  4  1  0
 10  2  1  0
 11 10  2  0
 12 10  1  0
 13 19  1  0
 13 12  1  0
 13 14  1  1
 15 14  1  0
 16 17  1  0
 16 15  1  0
 18 17  1  0
 19 21  1  0
 20 19  2  0
 21 22  1  0
 22 23  1  6
 22 33  1  0
 24 23  1  0
 25 24  2  0
 26 27  1  0
 26 25  1  0
 27 32  2  0
 28 29  2  0
 28 27  1  0
 29 30  1  0
 30 31  2  0
 32 24  1  0
 32 31  1  0
 33 34  2  0
 33 35  1  0
M  END
$$$$
