FKW.pdb
     RDKit          3D

 35 37  0  0  1  0  0  0  0  0999 V2000
   25.9001  -30.3313  -24.7843 N   0  0  0  0  0  0  0  0  0  0  0  0
   25.8948  -28.8999  -24.6884 C   0  0  1  0  0  0  0  0  0  0  0  0
   24.9661  -28.3187  -25.7143 C   0  0  0  0  0  0  0  0  0  0  0  0
   25.5182  -28.3176  -27.0765 C   0  0  0  0  0  0  0  0  0  0  0  0
   26.3904  -27.3443  -27.4995 C   0  0  0  0  0  0  0  0  0  0  0  0
   26.9004  -27.3712  -28.7990 C   0  0  0  0  0  0  0  0  0  0  0  0
   26.5454  -28.3662  -29.6837 C   0  0  0  0  0  0  0  0  0  0  0  0
   25.6743  -29.3379  -29.2608 C   0  0  0  0  0  0  0  0  0  0  0  0
   25.1818  -29.2973  -27.9801 C   0  0  0  0  0  0  0  0  0  0  0  0
   25.5205  -28.5030  -23.2983 C   0  0  0  0  0  0  0  0  0  0  0  0
   24.5366  -29.0376  -22.7062 O   0  0  0  0  0  0  0  0  0  0  0  0
   26.2539  -27.5148  -22.5962 N   0  0  0  0  0  0  0  0  0  0  0  0
   25.8083  -27.0832  -21.2451 C   0  0  1  0  0  0  0  0  0  0  0  0
   27.0246  -26.6759  -20.4687 C   0  0  0  0  0  0  0  0  0  0  0  0
   26.7363  -26.1889  -19.0856 C   0  0  0  0  0  0  0  0  0  0  0  0
   28.0433  -25.8696  -18.3460 C   0  0  0  0  0  0  0  0  0  0  0  0
   27.6902  -25.4924  -16.9193 C   0  0  0  0  0  0  0  0  0  0  0  0
   28.8926  -25.2138  -16.1646 N   0  0  0  0  0  0  0  0  0  0  0  0
   24.7950  -26.0451  -21.4435 C   0  0  0  0  0  0  0  0  0  0  0  0
   25.1353  -24.9865  -22.0759 O   0  0  0  0  0  0  0  0  0  0  0  0
   23.4779  -26.1885  -20.9662 N   0  0  0  0  0  0  0  0  0  0  0  0
   22.5456  -25.0667  -21.1431 C   0  0  1  0  0  0  0  0  0  0  0  0
   21.1727  -25.6673  -21.1989 C   0  0  0  0  0  0  0  0  0  0  0  0
   20.0535  -24.7424  -21.4200 C   0  0  0  0  0  0  0  0  0  0  0  0
   19.8418  -23.9804  -22.5819 C   0  0  0  0  0  0  0  0  0  0  0  0
   18.7631  -23.2353  -22.4274 N   0  0  0  0  0  0  0  0  0  0  0  0
   18.1974  -23.4291  -21.2165 C   0  0  0  0  0  0  0  0  0  0  0  0
   17.0700  -22.8891  -20.6327 C   0  0  0  0  0  0  0  0  0  0  0  0
   16.7256  -23.3046  -19.3649 C   0  0  0  0  0  0  0  0  0  0  0  0
   17.5273  -24.2455  -18.7350 C   0  0  0  0  0  0  0  0  0  0  0  0
   18.6499  -24.7765  -19.3269 C   0  0  0  0  0  0  0  0  0  0  0  0
   19.0033  -24.3702  -20.5885 C   0  0  0  0  0  0  0  0  0  0  0  0
   22.7446  -24.1324  -20.0358 C   0  0  0  0  0  0  0  0  0  0  0  0
   23.0226  -24.5877  -18.8843 O   0  0  0  0  0  0  0  0  0  0  0  0
   22.6605  -22.7485  -20.1289 O   0  0  0  0  0  0  0  0  0  0  0  0
  2  1  1  1
  2  3  1  0
  3  4  1  0
  4  5  2  0
  5  6  1  0
  7  6  2  0
  8  7  1  0
  9  8  2  0
  9  4  1  0
 10  2  1  0
 11 10  2  0
 12 10  1  0
 13 19  1  0
 13 12  1  0
 13 14  1  1
 15 14  1  0
 16 17  1  0
 16 15  1  0
 18 17  1  0
 19 21  1  0
 20 19  2  0
 21 22  1  0
 22 23  1  1
 22 33  1  0
 24 23  1  0
 25 24  2  0
 26 27  1  0
 26 25  1  0
 27 32  2  0
 28 29  2  0
 28 27  1  0
 29 30  1  0
 30 31  2  0
 32 24  1  0
 32 31  1  0
 33 34  2  0
 33 35  1  0
M  END
$$$$
