FKW.pdb
     RDKit          3D

 35 37  0  0  1  0  0  0  0  0999 V2000
   27.1801  -21.7089  -16.3440 N   0  0  0  0  0  0  0  0  0  0  0  0
   27.0808  -20.7078  -15.3213 C   0  0  1  0  0  0  0  0  0  0  0  0
   26.7037  -19.3878  -15.9281 C   0  0  0  0  0  0  0  0  0  0  0  0
   27.7458  -18.8169  -16.7932 C   0  0  0  0  0  0  0  0  0  0  0  0
   29.0326  -18.6359  -16.3476 C   0  0  0  0  0  0  0  0  0  0  0  0
   30.0017  -18.0935  -17.1937 C   0  0  0  0  0  0  0  0  0  0  0  0
   29.6958  -17.7288  -18.4868 C   0  0  0  0  0  0  0  0  0  0  0  0
   28.4107  -17.9097  -18.9313 C   0  0  0  0  0  0  0  0  0  0  0  0
   27.4693  -18.4442  -18.0871 C   0  0  0  0  0  0  0  0  0  0  0  0
   26.0987  -21.1564  -14.2897 C   0  0  0  0  0  0  0  0  0  0  0  0
   25.1229  -21.9043  -14.5947 O   0  0  0  0  0  0  0  0  0  0  0  0
   26.2264  -20.7598  -12.9355 N   0  0  0  0  0  0  0  0  0  0  0  0
   25.1126  -21.0101  -11.9831 C   0  0  1  0  0  0  0  0  0  0  0  0
   25.6071  -20.6911  -10.6040 C   0  0  0  0  0  0  0  0  0  0  0  0
   24.5252  -20.3987   -9.6155 C   0  0  0  0  0  0  0  0  0  0  0  0
   23.8233  -21.6960   -9.1892 C   0  0  0  0  0  0  0  0  0  0  0  0
   22.7035  -21.3267   -8.2341 C   0  0  0  0  0  0  0  0  0  0  0  0
   21.9866  -22.5141   -7.8228 N   0  0  0  0  0  0  0  0  0  0  0  0
   23.9681  -20.2270  -12.4527 C   0  0  0  0  0  0  0  0  0  0  0  0
   24.1047  -18.9583  -12.5427 O   0  0  0  0  0  0  0  0  0  0  0  0
   22.7460  -20.8313  -12.8055 N   0  0  0  0  0  0  0  0  0  0  0  0
   21.5848  -19.9654  -13.0520 C   0  0  1  0  0  0  0  0  0  0  0  0
   21.7580  -19.4156  -14.4362 C   0  0  0  0  0  0  0  0  0  0  0  0
   21.3734  -20.2922  -15.5501 C   0  0  0  0  0  0  0  0  0  0  0  0
   20.0759  -20.7703  -15.8019 C   0  0  0  0  0  0  0  0  0  0  0  0
   20.0964  -21.5577  -16.8612 N   0  0  0  0  0  0  0  0  0  0  0  0
   21.3409  -21.6630  -17.3752 C   0  0  0  0  0  0  0  0  0  0  0  0
   21.8281  -22.3514  -18.4671 C   0  0  0  0  0  0  0  0  0  0  0  0
   23.1705  -22.2487  -18.7607 C   0  0  0  0  0  0  0  0  0  0  0  0
   23.9688  -21.4590  -17.9460 C   0  0  0  0  0  0  0  0  0  0  0  0
   23.4718  -20.7776  -16.8591 C   0  0  0  0  0  0  0  0  0  0  0  0
   22.1373  -20.8726  -16.5563 C   0  0  0  0  0  0  0  0  0  0  0  0
   20.3749  -20.7675  -12.8745 C   0  0  0  0  0  0  0  0  0  0  0  0
   20.4817  -22.0223  -12.7182 O   0  0  0  0  0  0  0  0  0  0  0  0
   19.0778  -20.2693  -12.8551 O   0  0  0  0  0  0  0  0  0  0  0  0
  2  1  1  6
  2  3  1  0
  3  4  1  0
  4  5  2  0
  5  6  1  0
  7  6  2  0
  8  7  1  0
  9  8  2  0
  9  4  1  0
 10  2  1  0
 11 10  2  0
 12 10  1  0
 13 19  1  0
 13 12  1  0
 13 14  1  1
 15 14  1  0
 16 17  1  0
 16 15  1  0
 18 17  1  0
 19 21  1  0
 20 19  2  0
 21 22  1  0
 22 23  1  6
 22 33  1  0
 24 23  1  0
 25 24  2  0
 26 27  1  0
 26 25  1  0
 27 32  2  0
 28 29  2  0
 28 27  1  0
 29 30  1  0
 30 31  2  0
 32 24  1  0
 32 31  1  0
 33 34  2  0
 33 35  1  0
M  END
$$$$
