FKW.pdb
     RDKit          3D

 35 37  0  0  1  0  0  0  0  0999 V2000
   29.0682  -19.8681  -20.1704 N   0  0  0  0  0  0  0  0  0  0  0  0
   28.8031  -20.1822  -18.7959 C   0  0  1  0  0  0  0  0  0  0  0  0
   28.5882  -18.9205  -18.0118 C   0  0  0  0  0  0  0  0  0  0  0  0
   29.7454  -18.0144  -18.0233 C   0  0  0  0  0  0  0  0  0  0  0  0
   29.6113  -16.6782  -18.3124 C   0  0  0  0  0  0  0  0  0  0  0  0
   30.7291  -15.8415  -18.3129 C   0  0  0  0  0  0  0  0  0  0  0  0
   31.9853  -16.3298  -18.0258 C   0  0  0  0  0  0  0  0  0  0  0  0
   32.1186  -17.6642  -17.7372 C   0  0  0  0  0  0  0  0  0  0  0  0
   31.0099  -18.4736  -17.7408 C   0  0  0  0  0  0  0  0  0  0  0  0
   27.6283  -21.1010  -18.7206 C   0  0  0  0  0  0  0  0  0  0  0  0
   26.6575  -20.9914  -19.5268 O   0  0  0  0  0  0  0  0  0  0  0  0
   27.5613  -22.1256  -17.7444 N   0  0  0  0  0  0  0  0  0  0  0  0
   26.4470  -23.1091  -17.7793 C   0  0  1  0  0  0  0  0  0  0  0  0
   26.8132  -24.2504  -16.8785 C   0  0  0  0  0  0  0  0  0  0  0  0
   27.5869  -25.3389  -17.5492 C   0  0  0  0  0  0  0  0  0  0  0  0
   27.7963  -26.5183  -16.5888 C   0  0  0  0  0  0  0  0  0  0  0  0
   28.5960  -27.5790  -17.3222 C   0  0  0  0  0  0  0  0  0  0  0  0
   28.8966  -28.6805  -16.4337 N   0  0  0  0  0  0  0  0  0  0  0  0
   25.2262  -22.3804  -17.4295 C   0  0  0  0  0  0  0  0  0  0  0  0
   25.2703  -21.5770  -16.4350 O   0  0  0  0  0  0  0  0  0  0  0  0
   24.0298  -22.5391  -18.1551 N   0  0  0  0  0  0  0  0  0  0  0  0
   22.8236  -21.8541  -17.6704 C   0  0  1  0  0  0  0  0  0  0  0  0
   22.4017  -20.9219  -18.7665 C   0  0  0  0  0  0  0  0  0  0  0  0
   21.1239  -20.2211  -18.5848 C   0  0  0  0  0  0  0  0  0  0  0  0
   20.8088  -19.3617  -17.5181 C   0  0  0  0  0  0  0  0  0  0  0  0
   19.5672  -18.9336  -17.6517 N   0  0  0  0  0  0  0  0  0  0  0  0
   18.9846  -19.4435  -18.7582 C   0  0  0  0  0  0  0  0  0  0  0  0
   17.7274  -19.2667  -19.2983 C   0  0  0  0  0  0  0  0  0  0  0  0
   17.4217  -19.9177  -20.4737 C   0  0  0  0  0  0  0  0  0  0  0  0
   18.3909  -20.7198  -21.0587 C   0  0  0  0  0  0  0  0  0  0  0  0
   19.6412  -20.8892  -20.5103 C   0  0  0  0  0  0  0  0  0  0  0  0
   19.9570  -20.2468  -19.3402 C   0  0  0  0  0  0  0  0  0  0  0  0
   21.8280  -22.8715  -17.3350 C   0  0  0  0  0  0  0  0  0  0  0  0
   21.9081  -24.0174  -17.8744 O   0  0  0  0  0  0  0  0  0  0  0  0
   20.7714  -22.6986  -16.4490 O   0  0  0  0  0  0  0  0  0  0  0  0
  2  1  1  6
  2  3  1  0
  3  4  1  0
  4  5  2  0
  5  6  1  0
  7  6  2  0
  8  7  1  0
  9  8  2  0
  9  4  1  0
 10  2  1  0
 11 10  2  0
 12 10  1  0
 13 19  1  0
 13 12  1  0
 13 14  1  1
 15 14  1  0
 16 17  1  0
 16 15  1  0
 18 17  1  0
 19 21  1  0
 20 19  2  0
 21 22  1  0
 22 23  1  6
 22 33  1  0
 24 23  1  0
 25 24  2  0
 26 27  1  0
 26 25  1  0
 27 32  2  0
 28 29  2  0
 28 27  1  0
 29 30  1  0
 30 31  2  0
 32 24  1  0
 32 31  1  0
 33 34  2  0
 33 35  1  0
M  END
$$$$
