FKW.pdb
     RDKit          3D

 35 37  0  0  1  0  0  0  0  0999 V2000
   24.7253  -17.3600  -17.7068 N   0  0  0  0  0  0  0  0  0  0  0  0
   25.3676  -17.3196  -16.4246 C   0  0  1  0  0  0  0  0  0  0  0  0
   24.3898  -16.8833  -15.3727 C   0  0  0  0  0  0  0  0  0  0  0  0
   23.8277  -15.5458  -15.6082 C   0  0  0  0  0  0  0  0  0  0  0  0
   24.5737  -14.4076  -15.4210 C   0  0  0  0  0  0  0  0  0  0  0  0
   24.0128  -13.1507  -15.6554 C   0  0  0  0  0  0  0  0  0  0  0  0
   22.7075  -13.0199  -16.0772 C   0  0  0  0  0  0  0  0  0  0  0  0
   21.9630  -14.1568  -16.2640 C   0  0  0  0  0  0  0  0  0  0  0  0
   22.5290  -15.3852  -16.0292 C   0  0  0  0  0  0  0  0  0  0  0  0
   25.9554  -18.6599  -16.1282 C   0  0  0  0  0  0  0  0  0  0  0  0
   25.3393  -19.7262  -16.4245 O   0  0  0  0  0  0  0  0  0  0  0  0
   27.2221  -18.7826  -15.5054 N   0  0  0  0  0  0  0  0  0  0  0  0
   27.7036  -20.1183  -15.0645 C   0  0  1  0  0  0  0  0  0  0  0  0
   29.1827  -20.0218  -14.8386 C   0  0  0  0  0  0  0  0  0  0  0  0
   29.8339  -21.3156  -14.4706 C   0  0  0  0  0  0  0  0  0  0  0  0
   29.9113  -22.2435  -15.6913 C   0  0  0  0  0  0  0  0  0  0  0  0
   30.5473  -23.5469  -15.2452 C   0  0  0  0  0  0  0  0  0  0  0  0
   30.6016  -24.4794  -16.3499 N   0  0  0  0  0  0  0  0  0  0  0  0
   26.8991  -20.4970  -13.9012 C   0  0  0  0  0  0  0  0  0  0  0  0
   27.1603  -19.9357  -12.7818 O   0  0  0  0  0  0  0  0  0  0  0  0
   25.8606  -21.4440  -13.9897 N   0  0  0  0  0  0  0  0  0  0  0  0
   25.2434  -21.9213  -12.7447 C   0  0  1  0  0  0  0  0  0  0  0  0
   24.5802  -20.7294  -12.1216 C   0  0  0  0  0  0  0  0  0  0  0  0
   25.3756  -19.9569  -11.1586 C   0  0  0  0  0  0  0  0  0  0  0  0
   25.6891  -18.5912  -11.2683 C   0  0  0  0  0  0  0  0  0  0  0  0
   26.4456  -18.2313  -10.2482 N   0  0  0  0  0  0  0  0  0  0  0  0
   26.6850  -19.2702   -9.4192 C   0  0  0  0  0  0  0  0  0  0  0  0
   27.3980  -19.3598   -8.2415 C   0  0  0  0  0  0  0  0  0  0  0  0
   27.4483  -20.5766   -7.5969 C   0  0  0  0  0  0  0  0  0  0  0  0
   26.7807  -21.6539   -8.1612 C   0  0  0  0  0  0  0  0  0  0  0  0
   26.0734  -21.5528   -9.3369 C   0  0  0  0  0  0  0  0  0  0  0  0
   26.0166  -20.3469   -9.9881 C   0  0  0  0  0  0  0  0  0  0  0  0
   24.3248  -23.0083  -13.0814 C   0  0  0  0  0  0  0  0  0  0  0  0
   23.9972  -23.1885  -14.2941 O   0  0  0  0  0  0  0  0  0  0  0  0
   23.7625  -23.8945  -12.1705 O   0  0  0  0  0  0  0  0  0  0  0  0
  2  1  1  6
  2  3  1  0
  3  4  1  0
  4  5  2  0
  5  6  1  0
  7  6  2  0
  8  7  1  0
  9  8  2  0
  9  4  1  0
 10  2  1  0
 11 10  2  0
 12 10  1  0
 13 19  1  0
 13 12  1  0
 13 14  1  1
 15 14  1  0
 16 17  1  0
 16 15  1  0
 18 17  1  0
 19 21  1  0
 20 19  2  0
 21 22  1  0
 22 23  1  6
 22 33  1  0
 24 23  1  0
 25 24  2  0
 26 27  1  0
 26 25  1  0
 27 32  2  0
 28 29  2  0
 28 27  1  0
 29 30  1  0
 30 31  2  0
 32 24  1  0
 32 31  1  0
 33 34  2  0
 33 35  1  0
M  END
$$$$
