FKW.pdb
     RDKit          3D

 35 37  0  0  1  0  0  0  0  0999 V2000
   24.7232  -21.5768   -8.8936 N   0  0  0  0  0  0  0  0  0  0  0  0
   24.9655  -20.5231   -9.8365 C   0  0  1  0  0  0  0  0  0  0  0  0
   26.4321  -20.4339  -10.1429 C   0  0  0  0  0  0  0  0  0  0  0  0
   27.2502  -20.0158   -8.9956 C   0  0  0  0  0  0  0  0  0  0  0  0
   26.8595  -18.9920   -8.1672 C   0  0  0  0  0  0  0  0  0  0  0  0
   27.6567  -18.6191   -7.0833 C   0  0  0  0  0  0  0  0  0  0  0  0
   28.8460  -19.2626   -6.8182 C   0  0  0  0  0  0  0  0  0  0  0  0
   29.2357  -20.2848   -7.6458 C   0  0  0  0  0  0  0  0  0  0  0  0
   28.4408  -20.6395   -8.7072 C   0  0  0  0  0  0  0  0  0  0  0  0
   24.1461  -20.7632  -11.0616 C   0  0  0  0  0  0  0  0  0  0  0  0
   23.9534  -21.9350  -11.5022 O   0  0  0  0  0  0  0  0  0  0  0  0
   23.5574  -19.6875  -11.7714 N   0  0  0  0  0  0  0  0  0  0  0  0
   22.6567  -19.9647  -12.9212 C   0  0  1  0  0  0  0  0  0  0  0  0
   21.4826  -19.0378  -12.8189 C   0  0  0  0  0  0  0  0  0  0  0  0
   20.4271  -19.2665  -13.8517 C   0  0  0  0  0  0  0  0  0  0  0  0
   19.7068  -20.5982  -13.5968 C   0  0  0  0  0  0  0  0  0  0  0  0
   18.6833  -20.7919  -14.7001 C   0  0  0  0  0  0  0  0  0  0  0  0
   18.0534  -22.0882  -14.5743 N   0  0  0  0  0  0  0  0  0  0  0  0
   23.4673  -19.8437  -14.1345 C   0  0  0  0  0  0  0  0  0  0  0  0
   24.1807  -18.7916  -14.2779 O   0  0  0  0  0  0  0  0  0  0  0  0
   23.4811  -20.8451  -15.1245 N   0  0  0  0  0  0  0  0  0  0  0  0
   24.1074  -20.5391  -16.4180 C   0  0  1  0  0  0  0  0  0  0  0  0
   25.2132  -21.5363  -16.5948 C   0  0  0  0  0  0  0  0  0  0  0  0
   26.4857  -21.2402  -15.9238 C   0  0  0  0  0  0  0  0  0  0  0  0
   27.1131  -22.0566  -14.9670 C   0  0  0  0  0  0  0  0  0  0  0  0
   28.2200  -21.4714  -14.5490 N   0  0  0  0  0  0  0  0  0  0  0  0
   28.4118  -20.2822  -15.1598 C   0  0  0  0  0  0  0  0  0  0  0  0
   29.4201  -19.3467  -15.0522 C   0  0  0  0  0  0  0  0  0  0  0  0
   29.3505  -18.2152  -15.8354 C   0  0  0  0  0  0  0  0  0  0  0  0
   28.2712  -18.0692  -16.6948 C   0  0  0  0  0  0  0  0  0  0  0  0
   27.2709  -19.0086  -16.7930 C   0  0  0  0  0  0  0  0  0  0  0  0
   27.3289  -20.1389  -16.0179 C   0  0  0  0  0  0  0  0  0  0  0  0
   23.0729  -20.6047  -17.4497 C   0  0  0  0  0  0  0  0  0  0  0  0
   21.8996  -20.9654  -17.1276 O   0  0  0  0  0  0  0  0  0  0  0  0
   23.2575  -20.2945  -18.7916 O   0  0  0  0  0  0  0  0  0  0  0  0
  2  1  1  1
  2  3  1  0
  3  4  1  0
  4  5  2  0
  5  6  1  0
  7  6  2  0
  8  7  1  0
  9  8  2  0
  9  4  1  0
 10  2  1  0
 11 10  2  0
 12 10  1  0
 13 19  1  0
 13 12  1  0
 13 14  1  6
 15 14  1  0
 16 17  1  0
 16 15  1  0
 18 17  1  0
 19 21  1  0
 20 19  2  0
 21 22  1  0
 22 23  1  6
 22 33  1  0
 24 23  1  0
 25 24  2  0
 26 27  1  0
 26 25  1  0
 27 32  2  0
 28 29  2  0
 28 27  1  0
 29 30  1  0
 30 31  2  0
 32 24  1  0
 32 31  1  0
 33 34  2  0
 33 35  1  0
M  END
$$$$
