SKS.pdb
     RDKit          3D

 22 21  0  0  1  0  0  0  0  0999 V2000
   14.6796   -7.7837  -17.7033 O   0  0  0  0  0  0  0  0  0  0  0  0
   15.7958   -7.8218  -16.8722 C   0  0  0  0  0  0  0  0  0  0  0  0
   16.6588   -9.0504  -17.1870 C   0  0  2  0  0  0  0  0  0  0  0  0
   15.8841  -10.2006  -16.9513 N   0  0  0  0  0  0  0  0  0  0  0  0
   17.9161   -8.9596  -16.4172 C   0  0  0  0  0  0  0  0  0  0  0  0
   17.7953   -8.6290  -15.2181 O   0  0  0  0  0  0  0  0  0  0  0  0
   19.1648   -9.2287  -17.0011 N   0  0  0  0  0  0  0  0  0  0  0  0
   20.4581   -9.1438  -16.3939 C   0  0  1  0  0  0  0  0  0  0  0  0
   21.5188  -10.0546  -16.9587 C   0  0  0  0  0  0  0  0  0  0  0  0
   22.8423   -9.9896  -16.2953 C   0  0  0  0  0  0  0  0  0  0  0  0
   23.8922  -10.8494  -16.9645 C   0  0  0  0  0  0  0  0  0  0  0  0
   25.2214  -10.7718  -16.2582 C   0  0  0  0  0  0  0  0  0  0  0  0
   26.2369  -11.5768  -16.8640 N   0  0  0  0  0  0  0  0  0  0  0  0
   20.9528   -7.7567  -16.3791 C   0  0  0  0  0  0  0  0  0  0  0  0
   21.3824   -7.2102  -17.4555 O   0  0  0  0  0  0  0  0  0  0  0  0
   19.3931   -4.7866  -14.5121 O   0  0  0  0  0  0  0  0  0  0  0  0
   20.3827   -4.6614  -15.4911 C   0  0  0  0  0  0  0  0  0  0  0  0
   21.5062   -5.6543  -15.2195 C   0  0  2  0  0  0  0  0  0  0  0  0
   20.9709   -6.9845  -15.1852 N   0  0  0  0  0  0  0  0  0  0  0  0
   22.1732   -5.2605  -13.9761 C   0  0  0  0  0  0  0  0  0  0  0  0
   22.1823   -6.0301  -12.9881 O   0  0  0  0  0  0  0  0  0  0  0  0
   22.8070   -4.0376  -13.8585 O   0  0  0  0  0  0  0  0  0  0  0  0
  2  1  1  0
  3  5  1  0
  3  2  1  0
  3  4  1  1
  5  7  1  0
  5  6  2  0
  7  8  1  0
  8 14  1  0
  9 10  1  0
  8  9  1  6
 10 11  1  0
 11 12  1  0
 12 13  1  0
 14 15  2  0
 14 19  1  0
 17 16  1  0
 18 17  1  1
 19 18  1  0
 20 18  1  0
 20 22  1  0
 21 20  2  0
M  END
$$$$
