SKS.pdb
     RDKit          3D

 22 21  0  0  1  0  0  0  0  0999 V2000
   15.2360  -10.1176  -16.5404 O   0  0  0  0  0  0  0  0  0  0  0  0
   16.3491   -9.6628  -15.8387 C   0  0  0  0  0  0  0  0  0  0  0  0
   17.3979  -10.7754  -15.7147 C   0  0  2  0  0  0  0  0  0  0  0  0
   17.0141  -11.6220  -14.6590 N   0  0  0  0  0  0  0  0  0  0  0  0
   18.7338  -10.1587  -15.5843 C   0  0  0  0  0  0  0  0  0  0  0  0
   19.1249   -9.9542  -14.4151 O   0  0  0  0  0  0  0  0  0  0  0  0
   19.5101   -9.8257  -16.7063 N   0  0  0  0  0  0  0  0  0  0  0  0
   20.8213   -9.2522  -16.7317 C   0  0  1  0  0  0  0  0  0  0  0  0
   21.6721   -9.5913  -17.9295 C   0  0  0  0  0  0  0  0  0  0  0  0
   23.0571   -9.0650  -17.9045 C   0  0  0  0  0  0  0  0  0  0  0  0
   23.8535   -9.4115  -19.1435 C   0  0  0  0  0  0  0  0  0  0  0  0
   25.2287   -8.7949  -19.1230 C   0  0  0  0  0  0  0  0  0  0  0  0
   26.0408   -9.1753  -20.2374 N   0  0  0  0  0  0  0  0  0  0  0  0
   20.7699   -7.7906  -16.5583 C   0  0  0  0  0  0  0  0  0  0  0  0
   20.2745   -7.0459  -17.4759 O   0  0  0  0  0  0  0  0  0  0  0  0
   20.3124   -5.9464  -13.0454 O   0  0  0  0  0  0  0  0  0  0  0  0
   20.0641   -5.3681  -14.2933 C   0  0  0  0  0  0  0  0  0  0  0  0
   21.1804   -5.7348  -15.2635 C   0  0  2  0  0  0  0  0  0  0  0  0
   21.2618   -7.1618  -15.3815 N   0  0  0  0  0  0  0  0  0  0  0  0
   22.4202   -5.1159  -14.7884 C   0  0  0  0  0  0  0  0  0  0  0  0
   22.4916   -3.8755  -14.6301 O   0  0  0  0  0  0  0  0  0  0  0  0
   23.5384   -5.8771  -14.5035 O   0  0  0  0  0  0  0  0  0  0  0  0
  2  1  1  0
  3  5  1  0
  3  2  1  0
  3  4  1  1
  5  7  1  0
  5  6  2  0
  7  8  1  0
  8 14  1  0
  9 10  1  0
  8  9  1  6
 10 11  1  0
 11 12  1  0
 12 13  1  0
 14 15  2  0
 14 19  1  0
 17 16  1  0
 18 17  1  1
 19 18  1  0
 20 18  1  0
 20 22  1  0
 21 20  2  0
M  END
$$$$
