SKS.pdb
     RDKit          3D

 22 21  0  0  1  0  0  0  0  0999 V2000
   26.8991   -9.9018  -15.2633 O   0  0  0  0  0  0  0  0  0  0  0  0
   25.9865  -10.9237  -15.0157 C   0  0  0  0  0  0  0  0  0  0  0  0
   25.1378  -11.2003  -16.2633 C   0  0  2  0  0  0  0  0  0  0  0  0
   26.0096  -11.4643  -17.3352 N   0  0  0  0  0  0  0  0  0  0  0  0
   24.2037  -10.0738  -16.4636 C   0  0  0  0  0  0  0  0  0  0  0  0
   24.5169   -9.2625  -17.3611 O   0  0  0  0  0  0  0  0  0  0  0  0
   23.0394   -9.9290  -15.6916 N   0  0  0  0  0  0  0  0  0  0  0  0
   21.9845   -8.9761  -15.8584 C   0  0  1  0  0  0  0  0  0  0  0  0
   20.5813   -9.5013  -15.6885 C   0  0  0  0  0  0  0  0  0  0  0  0
   19.4957   -8.5132  -15.8912 C   0  0  0  0  0  0  0  0  0  0  0  0
   18.1105   -9.1104  -15.7727 C   0  0  0  0  0  0  0  0  0  0  0  0
   17.0305   -8.0751  -15.9559 C   0  0  0  0  0  0  0  0  0  0  0  0
   15.7093   -8.5900  -15.7677 N   0  0  0  0  0  0  0  0  0  0  0  0
   22.1820   -7.8014  -14.9922 C   0  0  0  0  0  0  0  0  0  0  0  0
   22.4331   -7.9508  -13.7446 O   0  0  0  0  0  0  0  0  0  0  0  0
   23.0699   -4.0896  -16.4996 O   0  0  0  0  0  0  0  0  0  0  0  0
   23.4177   -4.4731  -15.2014 C   0  0  0  0  0  0  0  0  0  0  0  0
   22.3321   -5.3704  -14.6199 C   0  0  2  0  0  0  0  0  0  0  0  0
   22.1022   -6.4768  -15.5031 N   0  0  0  0  0  0  0  0  0  0  0  0
   21.1399   -4.5520  -14.3856 C   0  0  0  0  0  0  0  0  0  0  0  0
   20.0763   -4.7864  -15.0039 O   0  0  0  0  0  0  0  0  0  0  0  0
   21.1546   -3.5057  -13.4824 O   0  0  0  0  0  0  0  0  0  0  0  0
  2  1  1  0
  3  5  1  0
  3  2  1  0
  3  4  1  6
  5  7  1  0
  5  6  2  0
  7  8  1  0
  8 14  1  0
  9 10  1  0
  8  9  1  1
 10 11  1  0
 11 12  1  0
 12 13  1  0
 14 15  2  0
 14 19  1  0
 17 16  1  0
 18 17  1  6
 19 18  1  0
 20 18  1  0
 20 22  1  0
 21 20  2  0
M  END
$$$$
