SKS.pdb
     RDKit          3D

 22 21  0  0  1  0  0  0  0  0999 V2000
   19.4946  -13.7133  -17.6230 O   0  0  0  0  0  0  0  0  0  0  0  0
   19.4268  -12.3303  -17.7679 C   0  0  0  0  0  0  0  0  0  0  0  0
   20.2414  -11.6342  -16.6702 C   0  0  2  0  0  0  0  0  0  0  0  0
   20.0092  -12.3102  -15.4586 N   0  0  0  0  0  0  0  0  0  0  0  0
   19.9100  -10.1948  -16.6710 C   0  0  0  0  0  0  0  0  0  0  0  0
   20.2329   -9.5645  -17.7007 O   0  0  0  0  0  0  0  0  0  0  0  0
   19.2727   -9.5795  -15.5812 N   0  0  0  0  0  0  0  0  0  0  0  0
   18.8525   -8.2165  -15.4611 C   0  0  1  0  0  0  0  0  0  0  0  0
   17.4480   -7.9957  -14.9587 C   0  0  0  0  0  0  0  0  0  0  0  0
   16.3632   -8.3675  -15.8973 C   0  0  0  0  0  0  0  0  0  0  0  0
   14.9781   -8.1884  -15.3152 C   0  0  0  0  0  0  0  0  0  0  0  0
   13.9062   -8.7211  -16.2312 C   0  0  0  0  0  0  0  0  0  0  0  0
   12.5785   -8.4635  -15.7654 N   0  0  0  0  0  0  0  0  0  0  0  0
   19.7985   -7.4342  -14.6473 C   0  0  0  0  0  0  0  0  0  0  0  0
   20.1814   -7.8666  -13.5035 O   0  0  0  0  0  0  0  0  0  0  0  0
   23.6254   -5.1380  -14.0131 O   0  0  0  0  0  0  0  0  0  0  0  0
   22.6787   -5.7817  -14.8148 C   0  0  0  0  0  0  0  0  0  0  0  0
   21.2772   -5.4962  -14.2892 C   0  0  2  0  0  0  0  0  0  0  0  0
   20.3139   -6.1872  -15.0962 N   0  0  0  0  0  0  0  0  0  0  0  0
   21.0855   -4.0441  -14.2649 C   0  0  0  0  0  0  0  0  0  0  0  0
   20.5583   -3.4560  -15.2370 O   0  0  0  0  0  0  0  0  0  0  0  0
   21.4778   -3.2870  -13.1769 O   0  0  0  0  0  0  0  0  0  0  0  0
  2  1  1  0
  3  5  1  0
  3  2  1  0
  3  4  1  1
  5  7  1  0
  5  6  2  0
  7  8  1  0
  8 14  1  0
  9 10  1  0
  8  9  1  1
 10 11  1  0
 11 12  1  0
 12 13  1  0
 14 15  2  0
 14 19  1  0
 17 16  1  0
 18 17  1  6
 19 18  1  0
 20 18  1  0
 20 22  1  0
 21 20  2  0
M  END
$$$$
