SKS.pdb
     RDKit          3D

 22 21  0  0  1  0  0  0  0  0999 V2000
   26.9764  -18.6620  -17.2084 O   0  0  0  0  0  0  0  0  0  0  0  0
   27.6817  -18.6102  -16.0092 C   0  0  0  0  0  0  0  0  0  0  0  0
   28.0110  -20.0256  -15.5178 C   0  0  2  0  0  0  0  0  0  0  0  0
   28.6931  -20.6981  -16.5479 N   0  0  0  0  0  0  0  0  0  0  0  0
   26.7664  -20.6695  -15.0507 C   0  0  0  0  0  0  0  0  0  0  0  0
   26.3879  -21.6608  -15.7109 O   0  0  0  0  0  0  0  0  0  0  0  0
   26.0582  -20.1936  -13.9352 N   0  0  0  0  0  0  0  0  0  0  0  0
   24.8824  -20.7478  -13.3360 C   0  0  1  0  0  0  0  0  0  0  0  0
   24.6146  -20.3506  -11.9063 C   0  0  0  0  0  0  0  0  0  0  0  0
   25.5513  -20.9021  -10.8992 C   0  0  0  0  0  0  0  0  0  0  0  0
   25.2476  -20.4521   -9.4868 C   0  0  0  0  0  0  0  0  0  0  0  0
   26.2160  -21.0316   -8.4878 C   0  0  0  0  0  0  0  0  0  0  0  0
   25.9865  -20.5875   -7.1475 N   0  0  0  0  0  0  0  0  0  0  0  0
   23.6878  -20.4830  -14.1558 C   0  0  0  0  0  0  0  0  0  0  0  0
   23.4354  -19.2968  -14.5694 O   0  0  0  0  0  0  0  0  0  0  0  0
   19.9338  -22.1874  -16.6718 O   0  0  0  0  0  0  0  0  0  0  0  0
   20.9911  -22.4908  -15.8095 C   0  0  0  0  0  0  0  0  0  0  0  0
   21.6297  -21.2035  -15.3028 C   0  0  2  0  0  0  0  0  0  0  0  0
   22.7839  -21.5209  -14.5129 N   0  0  0  0  0  0  0  0  0  0  0  0
   20.6115  -20.4454  -14.5717 C   0  0  0  0  0  0  0  0  0  0  0  0
   20.4863  -20.5799  -13.3328 O   0  0  0  0  0  0  0  0  0  0  0  0
   19.7661  -19.5668  -15.2231 O   0  0  0  0  0  0  0  0  0  0  0  0
  2  1  1  0
  3  5  1  0
  3  2  1  0
  3  4  1  6
  5  7  1  0
  5  6  2  0
  7  8  1  0
  8 14  1  0
  9 10  1  0
  8  9  1  1
 10 11  1  0
 11 12  1  0
 12 13  1  0
 14 15  2  0
 14 19  1  0
 17 16  1  0
 18 17  1  1
 19 18  1  0
 20 18  1  0
 20 22  1  0
 21 20  2  0
M  END
$$$$
