SKS.pdb
     RDKit          3D

 22 21  0  0  1  0  0  0  0  0999 V2000
   22.2291  -22.3067  -14.0251 O   0  0  0  0  0  0  0  0  0  0  0  0
   23.1647  -22.9798  -14.8059 C   0  0  0  0  0  0  0  0  0  0  0  0
   22.4857  -23.6277  -16.0194 C   0  0  2  0  0  0  0  0  0  0  0  0
   21.9093  -22.6055  -16.7950 N   0  0  0  0  0  0  0  0  0  0  0  0
   21.5535  -24.6700  -15.5438 C   0  0  0  0  0  0  0  0  0  0  0  0
   20.3650  -24.3108  -15.4014 O   0  0  0  0  0  0  0  0  0  0  0  0
   21.9814  -25.9796  -15.2707 N   0  0  0  0  0  0  0  0  0  0  0  0
   21.2199  -27.0579  -14.7175 C   0  0  1  0  0  0  0  0  0  0  0  0
   21.7230  -28.4480  -15.0148 C   0  0  0  0  0  0  0  0  0  0  0  0
   20.9235  -29.5572  -14.4435 C   0  0  0  0  0  0  0  0  0  0  0  0
   21.5072  -30.9246  -14.7245 C   0  0  0  0  0  0  0  0  0  0  0  0
   20.5802  -32.0340  -14.2981 C   0  0  0  0  0  0  0  0  0  0  0  0
   21.1280  -33.3410  -14.4922 N   0  0  0  0  0  0  0  0  0  0  0  0
   21.0400  -26.8963  -13.2647 C   0  0  0  0  0  0  0  0  0  0  0  0
   22.0459  -26.6499  -12.5103 O   0  0  0  0  0  0  0  0  0  0  0  0
   18.7880  -25.1097   -9.7073 O   0  0  0  0  0  0  0  0  0  0  0  0
   18.8541  -25.4284  -11.0665 C   0  0  0  0  0  0  0  0  0  0  0  0
   19.6246  -26.7294  -11.2548 C   0  0  2  0  0  0  0  0  0  0  0  0
   19.7599  -27.0066  -12.6554 N   0  0  0  0  0  0  0  0  0  0  0  0
   18.9278  -27.7842  -10.5147 C   0  0  0  0  0  0  0  0  0  0  0  0
   18.2779  -28.6650  -11.1235 O   0  0  0  0  0  0  0  0  0  0  0  0
   18.9673  -27.8375   -9.1340 O   0  0  0  0  0  0  0  0  0  0  0  0
  2  1  1  0
  3  5  1  0
  3  2  1  0
  3  4  1  1
  5  7  1  0
  5  6  2  0
  7  8  1  0
  8 14  1  0
  9 10  1  0
  8  9  1  1
 10 11  1  0
 11 12  1  0
 12 13  1  0
 14 15  2  0
 14 19  1  0
 17 16  1  0
 18 17  1  6
 19 18  1  0
 20 18  1  0
 20 22  1  0
 21 20  2  0
M  END
$$$$
