SKS.pdb
     RDKit          3D

 22 21  0  0  1  0  0  0  0  0999 V2000
   15.4966  -11.3346  -18.1492 O   0  0  0  0  0  0  0  0  0  0  0  0
   16.7933  -11.0206  -17.7512 C   0  0  0  0  0  0  0  0  0  0  0  0
   17.0235   -9.5053  -17.8164 C   0  0  2  0  0  0  0  0  0  0  0  0
   16.9045   -9.1026  -19.1589 N   0  0  0  0  0  0  0  0  0  0  0  0
   18.3130   -9.1909  -17.1682 C   0  0  0  0  0  0  0  0  0  0  0  0
   18.4633   -9.6418  -16.0124 O   0  0  0  0  0  0  0  0  0  0  0  0
   19.3031   -8.4331  -17.8146 N   0  0  0  0  0  0  0  0  0  0  0  0
   20.6018   -8.0809  -17.3268 C   0  0  1  0  0  0  0  0  0  0  0  0
   21.6769   -7.9007  -18.3686 C   0  0  0  0  0  0  0  0  0  0  0  0
   23.0288   -7.5853  -17.8500 C   0  0  0  0  0  0  0  0  0  0  0  0
   24.0877   -7.5286  -18.9293 C   0  0  0  0  0  0  0  0  0  0  0  0
   25.4759   -7.4105  -18.3543 C   0  0  0  0  0  0  0  0  0  0  0  0
   26.5083   -7.4527  -19.3435 N   0  0  0  0  0  0  0  0  0  0  0  0
   20.5444   -6.8895  -16.4629 C   0  0  0  0  0  0  0  0  0  0  0  0
   20.1864   -5.7569  -16.9434 O   0  0  0  0  0  0  0  0  0  0  0  0
   20.2073   -7.0200  -12.3939 O   0  0  0  0  0  0  0  0  0  0  0  0
   19.8902   -5.8897  -13.1522 C   0  0  0  0  0  0  0  0  0  0  0  0
   20.8767   -5.7479  -14.3048 C   0  0  2  0  0  0  0  0  0  0  0  0
   20.8800   -6.9529  -15.0825 N   0  0  0  0  0  0  0  0  0  0  0  0
   22.1876   -5.4098  -13.7451 C   0  0  0  0  0  0  0  0  0  0  0  0
   23.1757   -6.1527  -13.9466 O   0  0  0  0  0  0  0  0  0  0  0  0
   22.3704   -4.2701  -12.9845 O   0  0  0  0  0  0  0  0  0  0  0  0
  2  1  1  0
  3  5  1  0
  3  2  1  0
  3  4  1  6
  5  7  1  0
  5  6  2  0
  7  8  1  0
  8 14  1  0
  9 10  1  0
  8  9  1  6
 10 11  1  0
 11 12  1  0
 12 13  1  0
 14 15  2  0
 14 19  1  0
 17 16  1  0
 18 17  1  1
 19 18  1  0
 20 18  1  0
 20 22  1  0
 21 20  2  0
M  END
$$$$
