SKS.pdb
     RDKit          3D

 22 21  0  0  1  0  0  0  0  0999 V2000
   26.8435  -10.5498  -15.3008 O   0  0  0  0  0  0  0  0  0  0  0  0
   25.7410   -9.7861  -15.6742 C   0  0  0  0  0  0  0  0  0  0  0  0
   24.6420  -10.6802  -16.2624 C   0  0  2  0  0  0  0  0  0  0  0  0
   25.1514  -11.2937  -17.4212 N   0  0  0  0  0  0  0  0  0  0  0  0
   23.4209   -9.8715  -16.4532 C   0  0  0  0  0  0  0  0  0  0  0  0
   23.2533   -9.4046  -17.6002 O   0  0  0  0  0  0  0  0  0  0  0  0
   22.5100   -9.6451  -15.4084 N   0  0  0  0  0  0  0  0  0  0  0  0
   21.2587   -8.9524  -15.4650 C   0  0  1  0  0  0  0  0  0  0  0  0
   20.0936   -9.6279  -14.7870 C   0  0  0  0  0  0  0  0  0  0  0  0
   19.4894  -10.7621  -15.5248 C   0  0  0  0  0  0  0  0  0  0  0  0
   18.3319  -11.4059  -14.7932 C   0  0  0  0  0  0  0  0  0  0  0  0
   17.7043  -12.5177  -15.5942 C   0  0  0  0  0  0  0  0  0  0  0  0
   16.7225  -13.2609  -14.8663 N   0  0  0  0  0  0  0  0  0  0  0  0
   21.3881   -7.5717  -14.9689 C   0  0  0  0  0  0  0  0  0  0  0  0
   21.8618   -7.3446  -13.8002 O   0  0  0  0  0  0  0  0  0  0  0  0
   23.0692   -4.8047  -16.6440 O   0  0  0  0  0  0  0  0  0  0  0  0
   21.8378   -4.2523  -16.2807 C   0  0  0  0  0  0  0  0  0  0  0  0
   21.1659   -5.1322  -15.2338 C   0  0  2  0  0  0  0  0  0  0  0  0
   20.9969   -6.4560  -15.7590 N   0  0  0  0  0  0  0  0  0  0  0  0
   19.9072   -4.4943  -14.8406 C   0  0  0  0  0  0  0  0  0  0  0  0
   18.8095   -5.0337  -15.1104 O   0  0  0  0  0  0  0  0  0  0  0  0
   19.8948   -3.2880  -14.1657 O   0  0  0  0  0  0  0  0  0  0  0  0
  2  1  1  0
  3  5  1  0
  3  2  1  0
  3  4  1  6
  5  7  1  0
  5  6  2  0
  7  8  1  0
  8 14  1  0
  9 10  1  0
  8  9  1  1
 10 11  1  0
 11 12  1  0
 12 13  1  0
 14 15  2  0
 14 19  1  0
 17 16  1  0
 18 17  1  6
 19 18  1  0
 20 18  1  0
 20 22  1  0
 21 20  2  0
M  END
$$$$
