SKS.pdb
     RDKit          3D

 22 21  0  0  1  0  0  0  0  0999 V2000
   20.4516  -12.8035  -15.7413 O   0  0  0  0  0  0  0  0  0  0  0  0
   20.2663  -11.4563  -16.0397 C   0  0  0  0  0  0  0  0  0  0  0  0
   18.8317  -11.0250  -15.7096 C   0  0  2  0  0  0  0  0  0  0  0  0
   17.9594  -11.7096  -16.5751 N   0  0  0  0  0  0  0  0  0  0  0  0
   18.7536   -9.5509  -15.7606 C   0  0  0  0  0  0  0  0  0  0  0  0
   19.2633   -9.0152  -16.7680 O   0  0  0  0  0  0  0  0  0  0  0  0
   18.1440   -8.8043  -14.7390 N   0  0  0  0  0  0  0  0  0  0  0  0
   17.9801   -7.3844  -14.6631 C   0  0  1  0  0  0  0  0  0  0  0  0
   16.6722   -6.8958  -14.0938 C   0  0  0  0  0  0  0  0  0  0  0  0
   15.4680   -7.1866  -14.9069 C   0  0  0  0  0  0  0  0  0  0  0  0
   14.1812   -6.7193  -14.2626 C   0  0  0  0  0  0  0  0  0  0  0  0
   12.9781   -7.0175  -15.1202 C   0  0  0  0  0  0  0  0  0  0  0  0
   11.7522   -6.5216  -14.5749 N   0  0  0  0  0  0  0  0  0  0  0  0
   19.0999   -6.7538  -13.9438 C   0  0  0  0  0  0  0  0  0  0  0  0
   19.7301   -7.3979  -13.0329 O   0  0  0  0  0  0  0  0  0  0  0  0
   23.1327   -5.2782  -13.8571 O   0  0  0  0  0  0  0  0  0  0  0  0
   21.9102   -5.7141  -14.3756 C   0  0  0  0  0  0  0  0  0  0  0  0
   20.7678   -4.9552  -13.7117 C   0  0  2  0  0  0  0  0  0  0  0  0
   19.5162   -5.4248  -14.2311 N   0  0  0  0  0  0  0  0  0  0  0  0
   20.9877   -3.5223  -13.9228 C   0  0  0  0  0  0  0  0  0  0  0  0
   20.4543   -2.9331  -14.8909 O   0  0  0  0  0  0  0  0  0  0  0  0
   21.7840   -2.7851  -13.0665 O   0  0  0  0  0  0  0  0  0  0  0  0
  2  1  1  0
  3  5  1  0
  3  2  1  0
  3  4  1  6
  5  7  1  0
  5  6  2  0
  7  8  1  0
  8 14  1  0
  9 10  1  0
  8  9  1  1
 10 11  1  0
 11 12  1  0
 12 13  1  0
 14 15  2  0
 14 19  1  0
 17 16  1  0
 18 17  1  6
 19 18  1  0
 20 18  1  0
 20 22  1  0
 21 20  2  0
M  END
$$$$
