SKS.pdb
     RDKit          3D

 22 21  0  0  1  0  0  0  0  0999 V2000
   26.2486  -12.1527  -15.5685 O   0  0  0  0  0  0  0  0  0  0  0  0
   25.4991  -11.0334  -15.9198 C   0  0  0  0  0  0  0  0  0  0  0  0
   24.2937  -11.4409  -16.7767 C   0  0  2  0  0  0  0  0  0  0  0  0
   24.7773  -12.0227  -17.9626 N   0  0  0  0  0  0  0  0  0  0  0  0
   23.4163  -10.2660  -16.9545 C   0  0  0  0  0  0  0  0  0  0  0  0
   23.6229   -9.5854  -17.9820 O   0  0  0  0  0  0  0  0  0  0  0  0
   22.4156   -9.9398  -16.0246 N   0  0  0  0  0  0  0  0  0  0  0  0
   21.4932   -8.8462  -16.0702 C   0  0  1  0  0  0  0  0  0  0  0  0
   20.0781   -9.1522  -15.6488 C   0  0  0  0  0  0  0  0  0  0  0  0
   19.1255   -8.0196  -15.7240 C   0  0  0  0  0  0  0  0  0  0  0  0
   17.7367   -8.3699  -15.2360 C   0  0  0  0  0  0  0  0  0  0  0  0
   16.7971   -7.1937  -15.3114 C   0  0  0  0  0  0  0  0  0  0  0  0
   15.4818   -7.4829  -14.8294 N   0  0  0  0  0  0  0  0  0  0  0  0
   21.9969   -7.6888  -15.3114 C   0  0  0  0  0  0  0  0  0  0  0  0
   22.4854   -7.8462  -14.1374 O   0  0  0  0  0  0  0  0  0  0  0  0
   23.2716   -3.0355  -15.2385 O   0  0  0  0  0  0  0  0  0  0  0  0
   22.6634   -4.0643  -15.9631 C   0  0  0  0  0  0  0  0  0  0  0  0
   22.4751   -5.2839  -15.0692 C   0  0  2  0  0  0  0  0  0  0  0  0
   21.9594   -6.3724  -15.8478 N   0  0  0  0  0  0  0  0  0  0  0  0
   21.6080   -4.9020  -13.9520 C   0  0  0  0  0  0  0  0  0  0  0  0
   20.3642   -4.8674  -14.0956 O   0  0  0  0  0  0  0  0  0  0  0  0
   22.1333   -4.5713  -12.7169 O   0  0  0  0  0  0  0  0  0  0  0  0
  2  1  1  0
  3  5  1  0
  3  2  1  0
  3  4  1  6
  5  7  1  0
  5  6  2  0
  7  8  1  0
  8 14  1  0
  9 10  1  0
  8  9  1  1
 10 11  1  0
 11 12  1  0
 12 13  1  0
 14 15  2  0
 14 19  1  0
 17 16  1  0
 18 17  1  6
 19 18  1  0
 20 18  1  0
 20 22  1  0
 21 20  2  0
M  END
$$$$
