SKS.pdb
     RDKit          3D

 22 21  0  0  1  0  0  0  0  0999 V2000
   31.8271  -25.3492  -15.7212 O   0  0  0  0  0  0  0  0  0  0  0  0
   31.0889  -26.5289  -15.6840 C   0  0  0  0  0  0  0  0  0  0  0  0
   29.9578  -26.4882  -16.7195 C   0  0  2  0  0  0  0  0  0  0  0  0
   29.0760  -25.4519  -16.3629 N   0  0  0  0  0  0  0  0  0  0  0  0
   29.3545  -27.8327  -16.8195 C   0  0  0  0  0  0  0  0  0  0  0  0
   28.3798  -28.0471  -16.0673 O   0  0  0  0  0  0  0  0  0  0  0  0
   29.8491  -28.8040  -17.7051 N   0  0  0  0  0  0  0  0  0  0  0  0
   29.2989  -30.0929  -17.9961 C   0  0  1  0  0  0  0  0  0  0  0  0
   29.0738  -30.4061  -19.4538 C   0  0  0  0  0  0  0  0  0  0  0  0
   28.1402  -31.5218  -19.7353 C   0  0  0  0  0  0  0  0  0  0  0  0
   27.9233  -31.7649  -21.2129 C   0  0  0  0  0  0  0  0  0  0  0  0
   26.9856  -32.9177  -21.4650 C   0  0  0  0  0  0  0  0  0  0  0  0
   26.7322  -33.1535  -22.8530 N   0  0  0  0  0  0  0  0  0  0  0  0
   30.0933  -31.1667  -17.3756 C   0  0  0  0  0  0  0  0  0  0  0  0
   31.3733  -31.1387  -17.4272 O   0  0  0  0  0  0  0  0  0  0  0  0
   28.3662  -34.4765  -15.3917 O   0  0  0  0  0  0  0  0  0  0  0  0
   29.4907  -33.8302  -14.8711 C   0  0  0  0  0  0  0  0  0  0  0  0
   30.2955  -33.2027  -16.0027 C   0  0  2  0  0  0  0  0  0  0  0  0
   29.4761  -32.2587  -16.7059 N   0  0  0  0  0  0  0  0  0  0  0  0
   30.8059  -34.2810  -16.8528 C   0  0  0  0  0  0  0  0  0  0  0  0
   31.5379  -35.1768  -16.3726 O   0  0  0  0  0  0  0  0  0  0  0  0
   30.4968  -34.3405  -18.1988 O   0  0  0  0  0  0  0  0  0  0  0  0
  2  1  1  0
  3  5  1  0
  3  2  1  0
  3  4  1  1
  5  7  1  0
  5  6  2  0
  7  8  1  0
  8 14  1  0
  9 10  1  0
  8  9  1  6
 10 11  1  0
 11 12  1  0
 12 13  1  0
 14 15  2  0
 14 19  1  0
 17 16  1  0
 18 17  1  1
 19 18  1  0
 20 18  1  0
 20 22  1  0
 21 20  2  0
M  END
$$$$
