SKS.pdb
     RDKit          3D

 22 21  0  0  1  0  0  0  0  0999 V2000
   16.8998  -13.1916  -12.8623 O   0  0  0  0  0  0  0  0  0  0  0  0
   17.1763  -11.8292  -12.9361 C   0  0  0  0  0  0  0  0  0  0  0  0
   15.8992  -11.0086  -12.7149 C   0  0  2  0  0  0  0  0  0  0  0  0
   15.0094  -11.2932  -13.7664 N   0  0  0  0  0  0  0  0  0  0  0  0
   16.2674   -9.5868  -12.5582 C   0  0  0  0  0  0  0  0  0  0  0  0
   16.1714   -8.8850  -13.5878 O   0  0  0  0  0  0  0  0  0  0  0  0
   16.6971   -9.0628  -11.3281 N   0  0  0  0  0  0  0  0  0  0  0  0
   17.1512   -7.7349  -11.0464 C   0  0  1  0  0  0  0  0  0  0  0  0
   16.7669   -7.1722   -9.7014 C   0  0  0  0  0  0  0  0  0  0  0  0
   15.3208   -6.9199   -9.4991 C   0  0  0  0  0  0  0  0  0  0  0  0
   14.9886   -6.4078   -8.1145 C   0  0  0  0  0  0  0  0  0  0  0  0
   13.5155   -6.1340   -7.9509 C   0  0  0  0  0  0  0  0  0  0  0  0
   13.1651   -5.6592   -6.6478 N   0  0  0  0  0  0  0  0  0  0  0  0
   18.6069   -7.6153  -11.2359 C   0  0  0  0  0  0  0  0  0  0  0  0
   19.3962   -8.5154  -10.7792 O   0  0  0  0  0  0  0  0  0  0  0  0
   21.8824   -7.7730  -14.0083 O   0  0  0  0  0  0  0  0  0  0  0  0
   20.5887   -7.7015  -13.4843 C   0  0  0  0  0  0  0  0  0  0  0  0
   20.5228   -6.6145  -12.4185 C   0  0  2  0  0  0  0  0  0  0  0  0
   19.1808   -6.5108  -11.9236 N   0  0  0  0  0  0  0  0  0  0  0  0
   21.0280   -5.3701  -13.0033 C   0  0  0  0  0  0  0  0  0  0  0  0
   20.2534   -4.5880  -13.6009 O   0  0  0  0  0  0  0  0  0  0  0  0
   22.3637   -5.0257  -12.9132 O   0  0  0  0  0  0  0  0  0  0  0  0
  2  1  1  0
  3  5  1  0
  3  2  1  0
  3  4  1  6
  5  7  1  0
  5  6  2  0
  7  8  1  0
  8 14  1  0
  9 10  1  0
  8  9  1  1
 10 11  1  0
 11 12  1  0
 12 13  1  0
 14 15  2  0
 14 19  1  0
 17 16  1  0
 18 17  1  6
 19 18  1  0
 20 18  1  0
 20 22  1  0
 21 20  2  0
M  END
$$$$
