SKS.pdb
     RDKit          3D

 22 21  0  0  1  0  0  0  0  0999 V2000
   25.5652  -14.6657  -19.4508 O   0  0  0  0  0  0  0  0  0  0  0  0
   24.4914  -13.8999  -19.8965 C   0  0  0  0  0  0  0  0  0  0  0  0
   23.2343  -14.7677  -20.0382 C   0  0  2  0  0  0  0  0  0  0  0  0
   23.3774  -15.5588  -21.1925 N   0  0  0  0  0  0  0  0  0  0  0  0
   22.0450  -13.8923  -20.0084 C   0  0  0  0  0  0  0  0  0  0  0  0
   21.7065  -13.3997  -21.1059 O   0  0  0  0  0  0  0  0  0  0  0  0
   21.3435  -13.6338  -18.8195 N   0  0  0  0  0  0  0  0  0  0  0  0
   20.1651  -12.8400  -18.6466 C   0  0  1  0  0  0  0  0  0  0  0  0
   19.2197  -13.2818  -17.5582 C   0  0  0  0  0  0  0  0  0  0  0  0
   17.9206  -12.5708  -17.5068 C   0  0  0  0  0  0  0  0  0  0  0  0
   16.9962  -13.0865  -16.4256 C   0  0  0  0  0  0  0  0  0  0  0  0
   15.6906  -12.3343  -16.3912 C   0  0  0  0  0  0  0  0  0  0  0  0
   14.7359  -12.8904  -15.4826 N   0  0  0  0  0  0  0  0  0  0  0  0
   20.4997  -11.4173  -18.4647 C   0  0  0  0  0  0  0  0  0  0  0  0
   21.3928  -11.0647  -17.6163 O   0  0  0  0  0  0  0  0  0  0  0  0
   20.5114   -6.9871  -20.2907 O   0  0  0  0  0  0  0  0  0  0  0  0
   19.9636   -8.2713  -20.3561 C   0  0  0  0  0  0  0  0  0  0  0  0
   20.2992   -9.0410  -19.0846 C   0  0  2  0  0  0  0  0  0  0  0  0
   19.8518  -10.3974  -19.2146 N   0  0  0  0  0  0  0  0  0  0  0  0
   19.6993   -8.3338  -17.9506 C   0  0  0  0  0  0  0  0  0  0  0  0
   18.5058   -8.5402  -17.6320 O   0  0  0  0  0  0  0  0  0  0  0  0
   20.4276   -7.4253  -17.2056 O   0  0  0  0  0  0  0  0  0  0  0  0
  2  1  1  0
  3  5  1  0
  3  2  1  0
  3  4  1  6
  5  7  1  0
  5  6  2  0
  7  8  1  0
  8 14  1  0
  9 10  1  0
  8  9  1  1
 10 11  1  0
 11 12  1  0
 12 13  1  0
 14 15  2  0
 14 19  1  0
 17 16  1  0
 18 17  1  6
 19 18  1  0
 20 18  1  0
 20 22  1  0
 21 20  2  0
M  END
$$$$
