GEI.pdb
     RDKit          3D

 22 21  0  0  1  0  0  0  0  0999 V2000
   24.1582  -23.6729  -14.5126 N   0  0  0  0  0  0  0  0  0  0  0  0
   23.5425  -24.4640  -15.5799 C   0  0  0  0  0  0  0  0  0  0  0  0
   24.6337  -24.9339  -16.4709 C   0  0  0  0  0  0  0  0  0  0  0  0
   24.3850  -25.5336  -17.5713 O   0  0  0  0  0  0  0  0  0  0  0  0
   25.9847  -24.7052  -16.0780 N   0  0  0  0  0  0  0  0  0  0  0  0
   27.0440  -25.0568  -16.9687 C   0  0  1  0  0  0  0  0  0  0  0  0
   28.1374  -24.0086  -17.0122 C   0  0  0  0  0  0  0  0  0  0  0  0
   29.2212  -24.3879  -17.9964 C   0  0  0  0  0  0  0  0  0  0  0  0
   30.2644  -23.3368  -18.0848 C   0  0  0  0  0  0  0  0  0  0  0  0
   31.3761  -23.5675  -17.5133 O   0  0  0  0  0  0  0  0  0  0  0  0
   27.6018  -26.3725  -16.5630 C   0  0  0  0  0  0  0  0  0  0  0  0
   27.9838  -26.6100  -15.3842 O   0  0  0  0  0  0  0  0  0  0  0  0
   30.0514  -22.1480  -18.7581 O   0  0  0  0  0  0  0  0  0  0  0  0
   25.0637  -30.9460  -16.8485 C   0  0  0  0  0  0  0  0  0  0  0  0
   26.0082  -29.7998  -16.6081 C   0  0  0  0  0  0  0  0  0  0  0  0
   27.3247  -29.9004  -17.2899 C   0  0  2  0  0  0  0  0  0  0  0  0
   27.9683  -31.2167  -16.9168 C   0  0  0  0  0  0  0  0  0  0  0  0
   28.2519  -28.7453  -17.1237 C   0  0  2  0  0  0  0  0  0  0  0  0
   27.7434  -27.4652  -17.4921 N   0  0  0  0  0  0  0  0  0  0  0  0
   29.5743  -29.0472  -17.6815 C   0  0  0  0  0  0  0  0  0  0  0  0
   30.3978  -29.9629  -17.0740 O   0  0  0  0  0  0  0  0  0  0  0  0
   29.9579  -28.4691  -18.7174 O   0  0  0  0  0  0  0  0  0  0  0  0
  2  1  1  0
  3  5  1  0
  3  2  1  0
  4  3  2  0
  6  5  1  0
  6 11  1  0
  6  7  1  1
  8  7  1  0
  9  8  1  0
 10  9  2  0
 11 19  1  0
 12 11  2  0
 13  9  1  0
 14 15  1  0
 16 18  1  0
 16 15  1  0
 16 17  1  1
 18 20  1  0
 18 19  1  6
 20 21  1  0
 22 20  2  0
M  END
$$$$
