GEI.pdb
     RDKit          3D

 22 21  0  0  1  0  0  0  0  0999 V2000
   16.8507  -10.9205  -15.7219 N   0  0  0  0  0  0  0  0  0  0  0  0
   17.1769   -9.8647  -16.6827 C   0  0  0  0  0  0  0  0  0  0  0  0
   17.3847   -8.6118  -15.9129 C   0  0  0  0  0  0  0  0  0  0  0  0
   16.4158   -8.0206  -15.3264 O   0  0  0  0  0  0  0  0  0  0  0  0
   18.6993   -8.0664  -15.8348 N   0  0  0  0  0  0  0  0  0  0  0  0
   18.9193   -6.8689  -15.0887 C   0  0  1  0  0  0  0  0  0  0  0  0
   20.3619   -6.7148  -14.6514 C   0  0  0  0  0  0  0  0  0  0  0  0
   20.5545   -5.4592  -13.8305 C   0  0  0  0  0  0  0  0  0  0  0  0
   21.9840   -5.2439  -13.4975 C   0  0  0  0  0  0  0  0  0  0  0  0
   22.5978   -4.3241  -14.1243 O   0  0  0  0  0  0  0  0  0  0  0  0
   18.4975   -5.7032  -15.9073 C   0  0  0  0  0  0  0  0  0  0  0  0
   18.8352   -5.5684  -17.1155 O   0  0  0  0  0  0  0  0  0  0  0  0
   22.6373   -6.0052  -12.5458 O   0  0  0  0  0  0  0  0  0  0  0  0
   14.1403   -2.5457  -18.2319 C   0  0  0  0  0  0  0  0  0  0  0  0
   15.4697   -2.4083  -17.5408 C   0  0  0  0  0  0  0  0  0  0  0  0
   15.9018   -3.5850  -16.7427 C   0  0  2  0  0  0  0  0  0  0  0  0
   14.8290   -3.9064  -15.7268 C   0  0  0  0  0  0  0  0  0  0  0  0
   17.2606   -3.5156  -16.1340 C   0  0  2  0  0  0  0  0  0  0  0  0
   17.6737   -4.6483  -15.3729 N   0  0  0  0  0  0  0  0  0  0  0  0
   17.4693   -2.2313  -15.4574 C   0  0  0  0  0  0  0  0  0  0  0  0
   17.5237   -1.0623  -16.1758 O   0  0  0  0  0  0  0  0  0  0  0  0
   17.5987   -2.1964  -14.2179 O   0  0  0  0  0  0  0  0  0  0  0  0
  2  1  1  0
  3  5  1  0
  3  2  1  0
  4  3  2  0
  6  5  1  0
  6 11  1  0
  6  7  1  6
  8  7  1  0
  9  8  1  0
 10  9  2  0
 11 19  1  0
 12 11  2  0
 13  9  1  0
 14 15  1  0
 16 18  1  0
 16 15  1  0
 16 17  1  1
 18 20  1  0
 18 19  1  1
 20 21  1  0
 22 20  2  0
M  END
$$$$
