GEI.pdb
     RDKit          3D

 22 21  0  0  1  0  0  0  0  0999 V2000
   28.8030  -18.8967  -15.9615 N   0  0  0  0  0  0  0  0  0  0  0  0
   28.0980  -20.0894  -15.4878 C   0  0  0  0  0  0  0  0  0  0  0  0
   27.3092  -19.6945  -14.2931 C   0  0  0  0  0  0  0  0  0  0  0  0
   27.3490  -18.5042  -13.8308 O   0  0  0  0  0  0  0  0  0  0  0  0
   26.4936  -20.6751  -13.6565 N   0  0  0  0  0  0  0  0  0  0  0  0
   25.5396  -20.2656  -12.6760 C   0  0  1  0  0  0  0  0  0  0  0  0
   24.1214  -20.6423  -13.0539 C   0  0  0  0  0  0  0  0  0  0  0  0
   23.1320  -20.1638  -12.0149 C   0  0  0  0  0  0  0  0  0  0  0  0
   21.7490  -20.5826  -12.3505 C   0  0  0  0  0  0  0  0  0  0  0  0
   21.0531  -21.0992  -11.4208 O   0  0  0  0  0  0  0  0  0  0  0  0
   25.9041  -20.8633  -11.3658 C   0  0  0  0  0  0  0  0  0  0  0  0
   26.1441  -22.0943  -11.2280 O   0  0  0  0  0  0  0  0  0  0  0  0
   21.2232  -20.4243  -13.6196 O   0  0  0  0  0  0  0  0  0  0  0  0
   28.5377  -19.7391   -5.8566 C   0  0  0  0  0  0  0  0  0  0  0  0
   27.6194  -20.5394   -6.7398 C   0  0  0  0  0  0  0  0  0  0  0  0
   27.2084  -19.8767   -8.0048 C   0  0  2  0  0  0  0  0  0  0  0  0
   26.7090  -18.4855   -7.6871 C   0  0  0  0  0  0  0  0  0  0  0  0
   26.2685  -20.6338   -8.8795 C   0  0  2  0  0  0  0  0  0  0  0  0
   26.0069  -20.0738  -10.1644 N   0  0  0  0  0  0  0  0  0  0  0  0
   25.0638  -21.0272   -8.1415 C   0  0  0  0  0  0  0  0  0  0  0  0
   25.0956  -22.0794   -7.2596 O   0  0  0  0  0  0  0  0  0  0  0  0
   23.9986  -20.4026   -8.3135 O   0  0  0  0  0  0  0  0  0  0  0  0
  2  1  1  0
  3  5  1  0
  3  2  1  0
  4  3  2  0
  6  5  1  0
  6 11  1  0
  6  7  1  6
  8  7  1  0
  9  8  1  0
 10  9  2  0
 11 19  1  0
 12 11  2  0
 13  9  1  0
 14 15  1  0
 16 18  1  0
 16 15  1  0
 16 17  1  1
 18 20  1  0
 18 19  1  6
 20 21  1  0
 22 20  2  0
M  END
$$$$
