GEI.pdb
     RDKit          3D

 22 21  0  0  1  0  0  0  0  0999 V2000
   12.5570  -12.9769  -12.0758 N   0  0  0  0  0  0  0  0  0  0  0  0
   12.7091  -11.8775  -13.0309 C   0  0  0  0  0  0  0  0  0  0  0  0
   13.8296  -11.0269  -12.5550 C   0  0  0  0  0  0  0  0  0  0  0  0
   14.1609  -10.9884  -11.3218 O   0  0  0  0  0  0  0  0  0  0  0  0
   14.5434  -10.2402  -13.5055 N   0  0  0  0  0  0  0  0  0  0  0  0
   15.6420   -9.4387  -13.0699 C   0  0  1  0  0  0  0  0  0  0  0  0
   16.5356   -9.0078  -14.2153 C   0  0  0  0  0  0  0  0  0  0  0  0
   17.7211   -8.2125  -13.7160 C   0  0  0  0  0  0  0  0  0  0  0  0
   18.6749   -7.9157  -14.8128 C   0  0  0  0  0  0  0  0  0  0  0  0
   19.6795   -7.1891  -14.5329 O   0  0  0  0  0  0  0  0  0  0  0  0
   15.1191   -8.2525  -12.3446 C   0  0  0  0  0  0  0  0  0  0  0  0
   14.1284   -7.5898  -12.7587 O   0  0  0  0  0  0  0  0  0  0  0  0
   18.4923   -8.4023  -16.0942 O   0  0  0  0  0  0  0  0  0  0  0  0
   13.5266   -6.1476   -6.9210 C   0  0  0  0  0  0  0  0  0  0  0  0
   14.1842   -5.8051   -8.2303 C   0  0  0  0  0  0  0  0  0  0  0  0
   14.7149   -6.9588   -9.0021 C   0  0  2  0  0  0  0  0  0  0  0  0
   15.7461   -7.6761   -8.1606 C   0  0  0  0  0  0  0  0  0  0  0  0
   15.2041   -6.6710  -10.3803 C   0  0  2  0  0  0  0  0  0  0  0  0
   15.7112   -7.7805  -11.1183 N   0  0  0  0  0  0  0  0  0  0  0  0
   16.0784   -5.4935  -10.3932 C   0  0  0  0  0  0  0  0  0  0  0  0
   17.3997   -5.6066  -10.7496 O   0  0  0  0  0  0  0  0  0  0  0  0
   15.6210   -4.3772  -10.0784 O   0  0  0  0  0  0  0  0  0  0  0  0
  2  1  1  0
  3  5  1  0
  3  2  1  0
  4  3  2  0
  6  5  1  0
  6 11  1  0
  6  7  1  6
  8  7  1  0
  9  8  1  0
 10  9  2  0
 11 19  1  0
 12 11  2  0
 13  9  1  0
 14 15  1  0
 16 18  1  0
 16 15  1  0
 16 17  1  1
 18 20  1  0
 18 19  1  1
 20 21  1  0
 22 20  2  0
M  END
$$$$
