GEI.pdb
     RDKit          3D

 22 21  0  0  1  0  0  0  0  0999 V2000
   16.0656  -14.9589  -15.0481 N   0  0  0  0  0  0  0  0  0  0  0  0
   16.2036  -13.8923  -16.0418 C   0  0  0  0  0  0  0  0  0  0  0  0
   17.1806  -12.9100  -15.5069 C   0  0  0  0  0  0  0  0  0  0  0  0
   17.5527  -12.9367  -14.2850 O   0  0  0  0  0  0  0  0  0  0  0  0
   17.7073  -11.9198  -16.3867 N   0  0  0  0  0  0  0  0  0  0  0  0
   18.5251  -10.8751  -15.8587 C   0  0  1  0  0  0  0  0  0  0  0  0
   19.9958  -11.0815  -16.1598 C   0  0  0  0  0  0  0  0  0  0  0  0
   20.1926  -12.1091  -17.2518 C   0  0  0  0  0  0  0  0  0  0  0  0
   21.6324  -12.3629  -17.5036 C   0  0  0  0  0  0  0  0  0  0  0  0
   22.0624  -13.5414  -17.2995 O   0  0  0  0  0  0  0  0  0  0  0  0
   18.0611   -9.5736  -16.4040 C   0  0  0  0  0  0  0  0  0  0  0  0
   17.6940   -9.4357  -17.6033 O   0  0  0  0  0  0  0  0  0  0  0  0
   22.4860  -11.3675  -17.9427 O   0  0  0  0  0  0  0  0  0  0  0  0
   14.7152   -5.4597  -14.3307 C   0  0  0  0  0  0  0  0  0  0  0  0
   15.6987   -6.5756  -14.5574 C   0  0  0  0  0  0  0  0  0  0  0  0
   16.1963   -6.7182  -15.9504 C   0  0  2  0  0  0  0  0  0  0  0  0
   15.2613   -7.6304  -16.7118 C   0  0  0  0  0  0  0  0  0  0  0  0
   17.6266   -7.1052  -16.1114 C   0  0  2  0  0  0  0  0  0  0  0  0
   18.0005   -8.3813  -15.5966 N   0  0  0  0  0  0  0  0  0  0  0  0
   18.5165   -6.0121  -15.7063 C   0  0  0  0  0  0  0  0  0  0  0  0
   19.3842   -6.1695  -14.6537 O   0  0  0  0  0  0  0  0  0  0  0  0
   18.4880   -4.9280  -16.3213 O   0  0  0  0  0  0  0  0  0  0  0  0
  2  1  1  0
  3  5  1  0
  3  2  1  0
  4  3  2  0
  6  5  1  0
  6 11  1  0
  6  7  1  6
  8  7  1  0
  9  8  1  0
 10  9  2  0
 11 19  1  0
 12 11  2  0
 13  9  1  0
 14 15  1  0
 16 18  1  0
 16 15  1  0
 16 17  1  1
 18 20  1  0
 18 19  1  1
 20 21  1  0
 22 20  2  0
M  END
$$$$
