GEI.pdb
     RDKit          3D

 22 21  0  0  1  0  0  0  0  0999 V2000
   28.5829  -18.1492  -15.3184 N   0  0  0  0  0  0  0  0  0  0  0  0
   28.5991  -19.3681  -14.5071 C   0  0  0  0  0  0  0  0  0  0  0  0
   27.4518  -19.2920  -13.5673 C   0  0  0  0  0  0  0  0  0  0  0  0
   26.9619  -18.1701  -13.2020 O   0  0  0  0  0  0  0  0  0  0  0  0
   26.8940  -20.5051  -13.0683 N   0  0  0  0  0  0  0  0  0  0  0  0
   25.7187  -20.4566  -12.2587 C   0  0  1  0  0  0  0  0  0  0  0  0
   24.5713  -21.2474  -12.8538 C   0  0  0  0  0  0  0  0  0  0  0  0
   23.3333  -21.1509  -11.9905 C   0  0  0  0  0  0  0  0  0  0  0  0
   22.2431  -20.4242  -12.6863 C   0  0  0  0  0  0  0  0  0  0  0  0
   22.4202  -20.1397  -13.9124 O   0  0  0  0  0  0  0  0  0  0  0  0
   26.0454  -20.9586  -10.8993 C   0  0  0  0  0  0  0  0  0  0  0  0
   26.6545  -22.0472  -10.7093 O   0  0  0  0  0  0  0  0  0  0  0  0
   21.0748  -20.0632  -12.0407 O   0  0  0  0  0  0  0  0  0  0  0  0
   28.3916  -18.3524   -6.7848 C   0  0  0  0  0  0  0  0  0  0  0  0
   27.8010  -19.3299   -7.7643 C   0  0  0  0  0  0  0  0  0  0  0  0
   26.4842  -19.9032   -7.3827 C   0  0  2  0  0  0  0  0  0  0  0  0
   26.6176  -20.5791   -6.0368 C   0  0  0  0  0  0  0  0  0  0  0  0
   25.8170  -20.7724   -8.3933 C   0  0  2  0  0  0  0  0  0  0  0  0
   25.6864  -20.2332   -9.7067 N   0  0  0  0  0  0  0  0  0  0  0  0
   24.5797  -21.3488   -7.8570 C   0  0  0  0  0  0  0  0  0  0  0  0
   23.3582  -20.9801   -8.3646 O   0  0  0  0  0  0  0  0  0  0  0  0
   24.6333  -22.1823   -6.9313 O   0  0  0  0  0  0  0  0  0  0  0  0
  2  1  1  0
  3  5  1  0
  3  2  1  0
  4  3  2  0
  6  5  1  0
  6 11  1  0
  6  7  1  6
  8  7  1  0
  9  8  1  0
 10  9  2  0
 11 19  1  0
 12 11  2  0
 13  9  1  0
 14 15  1  0
 16 18  1  0
 16 15  1  0
 16 17  1  1
 18 20  1  0
 18 19  1  6
 20 21  1  0
 22 20  2  0
M  END
$$$$
