GEI.pdb
     RDKit          3D

 22 21  0  0  1  0  0  0  0  0999 V2000
   29.3600  -22.6947  -17.3900 N   0  0  0  0  0  0  0  0  0  0  0  0
   28.2950  -23.2839  -16.5759 C   0  0  0  0  0  0  0  0  0  0  0  0
   27.5964  -22.1706  -15.8845 C   0  0  0  0  0  0  0  0  0  0  0  0
   28.2403  -21.1865  -15.3853 O   0  0  0  0  0  0  0  0  0  0  0  0
   26.1754  -22.2130  -15.7817 N   0  0  0  0  0  0  0  0  0  0  0  0
   25.4878  -21.1536  -15.1154 C   0  0  1  0  0  0  0  0  0  0  0  0
   24.1791  -20.7965  -15.7906 C   0  0  0  0  0  0  0  0  0  0  0  0
   24.4102  -20.2664  -17.1880 C   0  0  0  0  0  0  0  0  0  0  0  0
   23.1377  -19.8502  -17.8268 C   0  0  0  0  0  0  0  0  0  0  0  0
   22.7567  -18.6515  -17.6436 O   0  0  0  0  0  0  0  0  0  0  0  0
   25.2532  -21.5420  -13.7009 C   0  0  0  0  0  0  0  0  0  0  0  0
   24.7535  -22.6552  -13.3798 O   0  0  0  0  0  0  0  0  0  0  0  0
   22.3842  -20.7197  -18.5937 O   0  0  0  0  0  0  0  0  0  0  0  0
   28.7107  -20.7391   -9.4429 C   0  0  0  0  0  0  0  0  0  0  0  0
   27.6436  -21.2450  -10.3753 C   0  0  0  0  0  0  0  0  0  0  0  0
   26.3110  -20.6031  -10.2327 C   0  0  2  0  0  0  0  0  0  0  0  0
   25.8266  -20.7939   -8.8132 C   0  0  0  0  0  0  0  0  0  0  0  0
   25.2795  -20.9764  -11.2419 C   0  0  2  0  0  0  0  0  0  0  0  0
   25.5817  -20.6701  -12.6013 N   0  0  0  0  0  0  0  0  0  0  0  0
   23.9444  -20.5462  -10.8138 C   0  0  0  0  0  0  0  0  0  0  0  0
   23.1859  -21.3372   -9.9864 O   0  0  0  0  0  0  0  0  0  0  0  0
   23.4903  -19.4521  -11.2027 O   0  0  0  0  0  0  0  0  0  0  0  0
  2  1  1  0
  3  5  1  0
  3  2  1  0
  4  3  2  0
  6  5  1  0
  6 11  1  0
  6  7  1  6
  8  7  1  0
  9  8  1  0
 10  9  2  0
 11 19  1  0
 12 11  2  0
 13  9  1  0
 14 15  1  0
 16 18  1  0
 16 15  1  0
 16 17  1  1
 18 20  1  0
 18 19  1  6
 20 21  1  0
 22 20  2  0
M  END
$$$$
