GEI.pdb
     RDKit          3D

 22 21  0  0  1  0  0  0  0  0999 V2000
   16.2872  -11.4433  -17.1204 N   0  0  0  0  0  0  0  0  0  0  0  0
   15.9470  -10.1096  -16.6209 C   0  0  0  0  0  0  0  0  0  0  0  0
   17.1702   -9.2730  -16.7180 C   0  0  0  0  0  0  0  0  0  0  0  0
   18.3373   -9.7917  -16.6882 O   0  0  0  0  0  0  0  0  0  0  0  0
   17.0252   -7.8608  -16.8463 N   0  0  0  0  0  0  0  0  0  0  0  0
   18.1883   -7.0469  -17.0001 C   0  0  1  0  0  0  0  0  0  0  0  0
   17.8552   -5.6375  -17.4461 C   0  0  0  0  0  0  0  0  0  0  0  0
   19.1098   -4.8282  -17.6876 C   0  0  0  0  0  0  0  0  0  0  0  0
   18.7878   -3.4393  -18.0974 C   0  0  0  0  0  0  0  0  0  0  0  0
   19.7628   -2.6611  -18.3408 O   0  0  0  0  0  0  0  0  0  0  0  0
   18.9359   -7.0223  -15.7166 C   0  0  0  0  0  0  0  0  0  0  0  0
   18.3595   -6.8982  -14.6011 O   0  0  0  0  0  0  0  0  0  0  0  0
   17.4841   -2.9935  -18.2143 O   0  0  0  0  0  0  0  0  0  0  0  0
   23.0107   -9.8386  -12.4195 C   0  0  0  0  0  0  0  0  0  0  0  0
   22.6592   -8.4591  -12.9066 C   0  0  0  0  0  0  0  0  0  0  0  0
   21.9149   -8.4034  -14.1916 C   0  0  2  0  0  0  0  0  0  0  0  0
   22.8704   -8.7091  -15.3227 C   0  0  0  0  0  0  0  0  0  0  0  0
   21.1086   -7.1752  -14.4427 C   0  0  2  0  0  0  0  0  0  0  0  0
   20.3715   -7.1384  -15.6626 N   0  0  0  0  0  0  0  0  0  0  0  0
   21.8968   -5.9659  -14.1828 C   0  0  0  0  0  0  0  0  0  0  0  0
   22.2213   -5.1087  -15.2052 O   0  0  0  0  0  0  0  0  0  0  0  0
   22.2774   -5.7103  -13.0234 O   0  0  0  0  0  0  0  0  0  0  0  0
  2  1  1  0
  3  5  1  0
  3  2  1  0
  4  3  2  0
  6  5  1  0
  6 11  1  0
  6  7  1  1
  8  7  1  0
  9  8  1  0
 10  9  2  0
 11 19  1  0
 12 11  2  0
 13  9  1  0
 14 15  1  0
 16 18  1  0
 16 15  1  0
 16 17  1  6
 18 20  1  0
 18 19  1  6
 20 21  1  0
 22 20  2  0
M  END
$$$$
