GEI.pdb
     RDKit          3D

 22 21  0  0  1  0  0  0  0  0999 V2000
   28.0233  -25.0112  -16.6115 N   0  0  0  0  0  0  0  0  0  0  0  0
   26.7018  -24.4906  -16.9676 C   0  0  0  0  0  0  0  0  0  0  0  0
   26.4389  -23.3142  -16.1003 C   0  0  0  0  0  0  0  0  0  0  0  0
   27.3634  -22.7857  -15.3945 O   0  0  0  0  0  0  0  0  0  0  0  0
   25.1210  -22.7722  -16.0628 N   0  0  0  0  0  0  0  0  0  0  0  0
   24.9011  -21.5031  -15.4463 C   0  0  1  0  0  0  0  0  0  0  0  0
   24.0216  -20.5963  -16.2831 C   0  0  0  0  0  0  0  0  0  0  0  0
   23.7708  -19.2789  -15.5841 C   0  0  0  0  0  0  0  0  0  0  0  0
   22.9554  -18.3671  -16.4234 C   0  0  0  0  0  0  0  0  0  0  0  0
   23.5761  -17.5912  -17.2161 O   0  0  0  0  0  0  0  0  0  0  0  0
   24.3012  -21.7138  -14.1037 C   0  0  0  0  0  0  0  0  0  0  0  0
   23.2348  -22.3668  -13.9350 O   0  0  0  0  0  0  0  0  0  0  0  0
   21.5743  -18.3495  -16.3576 O   0  0  0  0  0  0  0  0  0  0  0  0
   26.1939  -19.5422   -8.7165 C   0  0  0  0  0  0  0  0  0  0  0  0
   25.3225  -19.7277   -9.9290 C   0  0  0  0  0  0  0  0  0  0  0  0
   25.2351  -21.1172  -10.4488 C   0  0  2  0  0  0  0  0  0  0  0  0
   26.6337  -21.6317  -10.7041 C   0  0  0  0  0  0  0  0  0  0  0  0
   24.3255  -21.3394  -11.6085 C   0  0  2  0  0  0  0  0  0  0  0  0
   24.8997  -21.1843  -12.9043 N   0  0  0  0  0  0  0  0  0  0  0  0
   23.0569  -20.6263  -11.4266 C   0  0  0  0  0  0  0  0  0  0  0  0
   22.7290  -19.5643  -12.2331 O   0  0  0  0  0  0  0  0  0  0  0  0
   22.2657  -20.9849  -10.5323 O   0  0  0  0  0  0  0  0  0  0  0  0
  2  1  1  0
  3  5  1  0
  3  2  1  0
  4  3  2  0
  6  5  1  0
  6 11  1  0
  6  7  1  6
  8  7  1  0
  9  8  1  0
 10  9  2  0
 11 19  1  0
 12 11  2  0
 13  9  1  0
 14 15  1  0
 16 18  1  0
 16 15  1  0
 16 17  1  6
 18 20  1  0
 18 19  1  6
 20 21  1  0
 22 20  2  0
M  END
$$$$
