GEI.pdb
     RDKit          3D

 22 21  0  0  1  0  0  0  0  0999 V2000
   17.9892  -13.0838  -17.2264 N   0  0  0  0  0  0  0  0  0  0  0  0
   17.5401  -12.0556  -16.2857 C   0  0  0  0  0  0  0  0  0  0  0  0
   18.3555  -10.8394  -16.5337 C   0  0  0  0  0  0  0  0  0  0  0  0
   19.4883  -10.9039  -17.1209 O   0  0  0  0  0  0  0  0  0  0  0  0
   17.8521   -9.5778  -16.1015 N   0  0  0  0  0  0  0  0  0  0  0  0
   18.5993   -8.3924  -16.3763 C   0  0  1  0  0  0  0  0  0  0  0  0
   17.7099   -7.1948  -16.6423 C   0  0  0  0  0  0  0  0  0  0  0  0
   18.5290   -5.9630  -16.9570 C   0  0  0  0  0  0  0  0  0  0  0  0
   17.8713   -4.7321  -16.4539 C   0  0  0  0  0  0  0  0  0  0  0  0
   18.4471   -3.6238  -16.6900 O   0  0  0  0  0  0  0  0  0  0  0  0
   19.5112   -8.1189  -15.2359 C   0  0  0  0  0  0  0  0  0  0  0  0
   19.1379   -8.2136  -14.0344 O   0  0  0  0  0  0  0  0  0  0  0  0
   16.6793   -4.7720  -15.7541 O   0  0  0  0  0  0  0  0  0  0  0  0
   25.0135   -9.5358  -15.2302 C   0  0  0  0  0  0  0  0  0  0  0  0
   23.9424   -8.4830  -15.3203 C   0  0  0  0  0  0  0  0  0  0  0  0
   22.9142   -8.5213  -14.2481 C   0  0  2  0  0  0  0  0  0  0  0  0
   22.4152   -9.9409  -14.1009 C   0  0  0  0  0  0  0  0  0  0  0  0
   21.8023   -7.5345  -14.3547 C   0  0  2  0  0  0  0  0  0  0  0  0
   20.8845   -7.7262  -15.4289 N   0  0  0  0  0  0  0  0  0  0  0  0
   22.3036   -6.1615  -14.2335 C   0  0  0  0  0  0  0  0  0  0  0  0
   22.8877   -5.7300  -13.0681 O   0  0  0  0  0  0  0  0  0  0  0  0
   22.2003   -5.3757  -15.1959 O   0  0  0  0  0  0  0  0  0  0  0  0
  2  1  1  0
  3  5  1  0
  3  2  1  0
  4  3  2  0
  6  5  1  0
  6 11  1  0
  6  7  1  1
  8  7  1  0
  9  8  1  0
 10  9  2  0
 11 19  1  0
 12 11  2  0
 13  9  1  0
 14 15  1  0
 16 18  1  0
 16 15  1  0
 16 17  1  6
 18 20  1  0
 18 19  1  6
 20 21  1  0
 22 20  2  0
M  END
$$$$
