GEI.pdb
     RDKit          3D

 22 21  0  0  1  0  0  0  0  0999 V2000
   17.9623  -10.0295  -15.5190 N   0  0  0  0  0  0  0  0  0  0  0  0
   16.9728  -10.3302  -14.4824 C   0  0  0  0  0  0  0  0  0  0  0  0
   17.4050   -9.6387  -13.2412 C   0  0  0  0  0  0  0  0  0  0  0  0
   17.1835  -10.1393  -12.0869 O   0  0  0  0  0  0  0  0  0  0  0  0
   18.0808   -8.3887  -13.3538 N   0  0  0  0  0  0  0  0  0  0  0  0
   18.4910   -7.7033  -12.1702 C   0  0  1  0  0  0  0  0  0  0  0  0
   19.5500   -6.6548  -12.4446 C   0  0  0  0  0  0  0  0  0  0  0  0
   20.8500   -7.2908  -12.8837 C   0  0  0  0  0  0  0  0  0  0  0  0
   21.8844   -6.2666  -13.1696 C   0  0  0  0  0  0  0  0  0  0  0  0
   22.5113   -5.7767  -12.1784 O   0  0  0  0  0  0  0  0  0  0  0  0
   17.3011   -7.0848  -11.5312 C   0  0  0  0  0  0  0  0  0  0  0  0
   16.4846   -6.3689  -12.1736 O   0  0  0  0  0  0  0  0  0  0  0  0
   22.1672   -5.8506  -14.4577 O   0  0  0  0  0  0  0  0  0  0  0  0
   13.4877   -9.6847   -9.1246 C   0  0  0  0  0  0  0  0  0  0  0  0
   14.3877   -8.6746   -9.7829 C   0  0  0  0  0  0  0  0  0  0  0  0
   14.8720   -7.5786   -8.9039 C   0  0  2  0  0  0  0  0  0  0  0  0
   13.6783   -6.8441   -8.3369 C   0  0  0  0  0  0  0  0  0  0  0  0
   15.8856   -6.6544   -9.4872 C   0  0  2  0  0  0  0  0  0  0  0  0
   17.0020   -7.2626  -10.1325 N   0  0  0  0  0  0  0  0  0  0  0  0
   16.2465   -5.5998   -8.5340 C   0  0  0  0  0  0  0  0  0  0  0  0
   15.4820   -4.4645   -8.4236 O   0  0  0  0  0  0  0  0  0  0  0  0
   17.2564   -5.7320   -7.8150 O   0  0  0  0  0  0  0  0  0  0  0  0
  2  1  1  0
  3  5  1  0
  3  2  1  0
  4  3  2  0
  6  5  1  0
  6 11  1  0
  6  7  1  6
  8  7  1  0
  9  8  1  0
 10  9  2  0
 11 19  1  0
 12 11  2  0
 13  9  1  0
 14 15  1  0
 16 18  1  0
 16 15  1  0
 16 17  1  6
 18 20  1  0
 18 19  1  1
 20 21  1  0
 22 20  2  0
M  END
$$$$
