GEI.pdb
     RDKit          3D

 22 21  0  0  1  0  0  0  0  0999 V2000
   27.9708  -20.4659  -15.5121 N   0  0  0  0  0  0  0  0  0  0  0  0
   27.2422  -21.2136  -14.4853 C   0  0  0  0  0  0  0  0  0  0  0  0
   26.9475  -20.2724  -13.3750 C   0  0  0  0  0  0  0  0  0  0  0  0
   26.7766  -19.0240  -13.5862 O   0  0  0  0  0  0  0  0  0  0  0  0
   26.8565  -20.7857  -12.0484 N   0  0  0  0  0  0  0  0  0  0  0  0
   26.1584  -20.0375  -11.0525 C   0  0  1  0  0  0  0  0  0  0  0  0
   24.6812  -19.8989  -11.3604 C   0  0  0  0  0  0  0  0  0  0  0  0
   24.0274  -21.2521  -11.5296 C   0  0  0  0  0  0  0  0  0  0  0  0
   22.6084  -21.1203  -11.9417 C   0  0  0  0  0  0  0  0  0  0  0  0
   22.1572  -19.9448  -12.1153 O   0  0  0  0  0  0  0  0  0  0  0  0
   26.3546  -20.6877   -9.7313 C   0  0  0  0  0  0  0  0  0  0  0  0
   26.2954  -21.9387   -9.5784 O   0  0  0  0  0  0  0  0  0  0  0  0
   21.7957  -22.2225  -12.1333 O   0  0  0  0  0  0  0  0  0  0  0  0
   29.3103  -19.7067   -4.3186 C   0  0  0  0  0  0  0  0  0  0  0  0
   28.3137  -20.4609   -5.1563 C   0  0  0  0  0  0  0  0  0  0  0  0
   27.8682  -19.7735   -6.3963 C   0  0  2  0  0  0  0  0  0  0  0  0
   27.3344  -18.4067   -6.0318 C   0  0  0  0  0  0  0  0  0  0  0  0
   26.9386  -20.5310   -7.2815 C   0  0  2  0  0  0  0  0  0  0  0  0
   26.6256  -19.9296   -8.5359 N   0  0  0  0  0  0  0  0  0  0  0  0
   25.7677  -21.0024   -6.5348 C   0  0  0  0  0  0  0  0  0  0  0  0
   24.4975  -20.7314   -6.9808 O   0  0  0  0  0  0  0  0  0  0  0  0
   25.9230  -21.6560   -5.4845 O   0  0  0  0  0  0  0  0  0  0  0  0
  2  1  1  0
  3  5  1  0
  3  2  1  0
  4  3  2  0
  6  5  1  0
  6 11  1  0
  6  7  1  6
  8  7  1  0
  9  8  1  0
 10  9  2  0
 11 19  1  0
 12 11  2  0
 13  9  1  0
 14 15  1  0
 16 18  1  0
 16 15  1  0
 16 17  1  1
 18 20  1  0
 18 19  1  6
 20 21  1  0
 22 20  2  0
M  END
$$$$
