GEI.pdb
     RDKit          3D

 22 21  0  0  1  0  0  0  0  0999 V2000
   12.2740  -12.6205  -10.8821 N   0  0  0  0  0  0  0  0  0  0  0  0
   12.5302  -11.8078  -12.0728 C   0  0  0  0  0  0  0  0  0  0  0  0
   13.6095  -10.8466  -11.7313 C   0  0  0  0  0  0  0  0  0  0  0  0
   14.0796  -10.7646  -10.5462 O   0  0  0  0  0  0  0  0  0  0  0  0
   14.1237  -10.0016  -12.7577 N   0  0  0  0  0  0  0  0  0  0  0  0
   15.2068   -9.1188  -12.4632 C   0  0  1  0  0  0  0  0  0  0  0  0
   15.9626   -8.6935  -13.7058 C   0  0  0  0  0  0  0  0  0  0  0  0
   17.1475   -7.8217  -13.3548 C   0  0  0  0  0  0  0  0  0  0  0  0
   18.3214   -8.6373  -12.9580 C   0  0  0  0  0  0  0  0  0  0  0  0
   18.7267   -9.5171  -13.7810 O   0  0  0  0  0  0  0  0  0  0  0  0
   14.6815   -7.9306  -11.7428 C   0  0  0  0  0  0  0  0  0  0  0  0
   13.6303   -7.3324  -12.1024 O   0  0  0  0  0  0  0  0  0  0  0  0
   18.9602   -8.4600  -11.7445 O   0  0  0  0  0  0  0  0  0  0  0  0
   13.2350   -5.8508   -6.3168 C   0  0  0  0  0  0  0  0  0  0  0  0
   13.8447   -5.4700   -7.6386 C   0  0  0  0  0  0  0  0  0  0  0  0
   14.4424   -6.5877   -8.4143 C   0  0  2  0  0  0  0  0  0  0  0  0
   15.5896   -7.1730   -7.6222 C   0  0  0  0  0  0  0  0  0  0  0  0
   14.8164   -6.2940   -9.8269 C   0  0  2  0  0  0  0  0  0  0  0  0
   15.3405   -7.3827  -10.5841 N   0  0  0  0  0  0  0  0  0  0  0  0
   15.6117   -5.0650   -9.9162 C   0  0  0  0  0  0  0  0  0  0  0  0
   16.8954   -5.0958  -10.4027 O   0  0  0  0  0  0  0  0  0  0  0  0
   15.1207   -3.9797   -9.5481 O   0  0  0  0  0  0  0  0  0  0  0  0
  2  1  1  0
  3  5  1  0
  3  2  1  0
  4  3  2  0
  6  5  1  0
  6 11  1  0
  6  7  1  6
  8  7  1  0
  9  8  1  0
 10  9  2  0
 11 19  1  0
 12 11  2  0
 13  9  1  0
 14 15  1  0
 16 18  1  0
 16 15  1  0
 16 17  1  1
 18 20  1  0
 18 19  1  1
 20 21  1  0
 22 20  2  0
M  END
$$$$
