GEI.pdb
     RDKit          3D

 22 21  0  0  1  0  0  0  0  0999 V2000
   29.0416  -28.9972  -16.8161 N   0  0  0  0  0  0  0  0  0  0  0  0
   28.1831  -28.1467  -17.6430 C   0  0  0  0  0  0  0  0  0  0  0  0
   26.9479  -27.8722  -16.8656 C   0  0  0  0  0  0  0  0  0  0  0  0
   26.7431  -28.4119  -15.7258 O   0  0  0  0  0  0  0  0  0  0  0  0
   25.9764  -26.9853  -17.4146 N   0  0  0  0  0  0  0  0  0  0  0  0
   24.8600  -26.5870  -16.6183 C   0  0  1  0  0  0  0  0  0  0  0  0
   24.5868  -25.0991  -16.7053 C   0  0  0  0  0  0  0  0  0  0  0  0
   24.9194  -24.4039  -15.4041 C   0  0  0  0  0  0  0  0  0  0  0  0
   24.5541  -22.9667  -15.4490 C   0  0  0  0  0  0  0  0  0  0  0  0
   23.9856  -22.5411  -16.5032 O   0  0  0  0  0  0  0  0  0  0  0  0
   23.6636  -27.3601  -17.0398 C   0  0  0  0  0  0  0  0  0  0  0  0
   23.3903  -27.5742  -18.2528 O   0  0  0  0  0  0  0  0  0  0  0  0
   24.8152  -22.1111  -14.3946 O   0  0  0  0  0  0  0  0  0  0  0  0
   22.1687  -32.2677  -15.1172 C   0  0  0  0  0  0  0  0  0  0  0  0
   22.4197  -30.9856  -15.8634 C   0  0  0  0  0  0  0  0  0  0  0  0
   21.3622  -29.9498  -15.7317 C   0  0  2  0  0  0  0  0  0  0  0  0
   20.0239  -30.5748  -16.0544 C   0  0  0  0  0  0  0  0  0  0  0  0
   21.5858  -28.6714  -16.4648 C   0  0  2  0  0  0  0  0  0  0  0  0
   22.7352  -27.9165  -16.0880 N   0  0  0  0  0  0  0  0  0  0  0  0
   20.3506  -27.8843  -16.5391 C   0  0  0  0  0  0  0  0  0  0  0  0
   19.3456  -28.2389  -17.4051 O   0  0  0  0  0  0  0  0  0  0  0  0
   20.2078  -26.8829  -15.8103 O   0  0  0  0  0  0  0  0  0  0  0  0
  2  1  1  0
  3  5  1  0
  3  2  1  0
  4  3  2  0
  6  5  1  0
  6 11  1  0
  6  7  1  6
  8  7  1  0
  9  8  1  0
 10  9  2  0
 11 19  1  0
 12 11  2  0
 13  9  1  0
 14 15  1  0
 16 18  1  0
 16 15  1  0
 16 17  1  6
 18 20  1  0
 18 19  1  1
 20 21  1  0
 22 20  2  0
M  END
$$$$
