PME.pdb
     RDKit          3D

 25 25  0  0  1  0  0  0  0  0999 V2000
    7.3195  -14.9985   20.0565 N   0  0  0  0  0  0  0  0  0  0  0  0
    6.6645  -14.5017   18.8573 C   0  0  0  0  0  0  0  0  0  0  0  0
    7.3417  -13.2472   18.4759 C   0  0  0  0  0  0  0  0  0  0  0  0
    8.0969  -12.8159   19.7124 C   0  0  0  0  0  0  0  0  0  0  0  0
    8.4713  -14.1903   20.2636 C   0  0  1  0  0  0  0  0  0  0  0  0
    8.9856  -14.1375   21.6403 C   0  0  0  0  0  0  0  0  0  0  0  0
   10.2453  -13.9212   21.7265 O   0  0  0  0  0  0  0  0  0  0  0  0
    5.3360  -12.2207   26.3909 C   0  0  0  0  0  0  0  0  0  0  0  0
    6.8931  -12.2896   27.3206 S   0  0  0  0  0  0  0  0  0  0  0  0
    8.0027  -13.4823   26.4723 C   0  0  0  0  0  0  0  0  0  0  0  0
    7.5788  -13.5425   25.0517 C   0  0  0  0  0  0  0  0  0  0  0  0
    8.5998  -14.2156   24.1277 C   0  0  2  0  0  0  0  0  0  0  0  0
    8.1731  -14.3091   22.7608 N   0  0  0  0  0  0  0  0  0  0  0  0
    8.8736  -15.5547   24.7053 C   0  0  0  0  0  0  0  0  0  0  0  0
    7.9688  -16.4590   24.6471 O   0  0  0  0  0  0  0  0  0  0  0  0
   10.1057  -15.8825   25.3259 N   0  0  0  0  0  0  0  0  0  0  0  0
   10.4902  -17.2619   25.4988 C   0  0  1  0  0  0  0  0  0  0  0  0
   11.7732  -17.5845   24.7750 C   0  0  0  0  0  0  0  0  0  0  0  0
   12.8632  -16.5897   25.0184 C   0  0  0  0  0  0  0  0  0  0  0  0
   14.0483  -16.8380   24.1572 C   0  0  0  0  0  0  0  0  0  0  0  0
   14.0316  -17.8677   23.4214 O   0  0  0  0  0  0  0  0  0  0  0  0
   10.5386  -17.5819   26.9320 C   0  0  0  0  0  0  0  0  0  0  0  0
   10.2553  -16.6337   27.8894 O   0  0  0  0  0  0  0  0  0  0  0  0
   15.1465  -15.9952   24.1356 O   0  0  0  0  0  0  0  0  0  0  0  0
   10.8402  -18.7296   27.3070 O   0  0  0  0  0  0  0  0  0  0  0  0
  1  5  1  0
  2  1  1  0
  3  2  1  0
  4  3  1  0
  4  5  1  0
  5  6  1  1
  6 13  1  0
  6  7  2  0
  9  8  1  0
 10  9  1  0
 11 10  1  0
 12 14  1  0
 12 11  1  1
 13 12  1  0
 14 15  2  0
 16 17  1  0
 16 14  1  0
 18 19  1  0
 17 18  1  1
 19 20  1  0
 20 21  2  0
 20 24  1  0
 22 17  1  0
 23 22  1  0
 25 22  2  0
M  END
$$$$
