PME.pdb
     RDKit          3D

 25 25  0  0  1  0  0  0  0  0999 V2000
    7.2050  -15.4560   19.5085 N   0  0  0  0  0  0  0  0  0  0  0  0
    6.5305  -15.0055   18.3018 C   0  0  0  0  0  0  0  0  0  0  0  0
    7.0767  -13.6767   17.9646 C   0  0  0  0  0  0  0  0  0  0  0  0
    7.7490  -13.1948   19.2300 C   0  0  0  0  0  0  0  0  0  0  0  0
    8.2565  -14.5330   19.7636 C   0  0  1  0  0  0  0  0  0  0  0  0
    8.7269  -14.4565   21.1548 C   0  0  0  0  0  0  0  0  0  0  0  0
    9.9956  -14.3278   21.2779 O   0  0  0  0  0  0  0  0  0  0  0  0
    6.4620  -12.0021   28.2713 C   0  0  0  0  0  0  0  0  0  0  0  0
    5.9715  -12.5313   26.6061 S   0  0  0  0  0  0  0  0  0  0  0  0
    7.3772  -13.4591   25.8736 C   0  0  0  0  0  0  0  0  0  0  0  0
    7.0266  -13.7439   24.4604 C   0  0  0  0  0  0  0  0  0  0  0  0
    8.2138  -14.2048   23.6075 C   0  0  2  0  0  0  0  0  0  0  0  0
    7.8670  -14.5195   22.2509 N   0  0  0  0  0  0  0  0  0  0  0  0
    8.8051  -15.3742   24.3035 C   0  0  0  0  0  0  0  0  0  0  0  0
    8.1788  -16.4912   24.2944 O   0  0  0  0  0  0  0  0  0  0  0  0
   10.0463  -15.3107   24.9861 N   0  0  0  0  0  0  0  0  0  0  0  0
   10.8239  -16.5071   25.1971 C   0  0  1  0  0  0  0  0  0  0  0  0
   12.2804  -16.2982   24.8670 C   0  0  0  0  0  0  0  0  0  0  0  0
   13.1100  -17.5338   25.0154 C   0  0  0  0  0  0  0  0  0  0  0  0
   14.5419  -17.2854   24.7058 C   0  0  0  0  0  0  0  0  0  0  0  0
   14.9113  -16.0824   24.5707 O   0  0  0  0  0  0  0  0  0  0  0  0
   10.6056  -16.9996   26.5641 C   0  0  0  0  0  0  0  0  0  0  0  0
   10.9845  -18.2691   26.9391 O   0  0  0  0  0  0  0  0  0  0  0  0
   15.4644  -18.3081   24.5639 O   0  0  0  0  0  0  0  0  0  0  0  0
   10.0679  -16.2672   27.4146 O   0  0  0  0  0  0  0  0  0  0  0  0
  1  5  1  0
  2  1  1  0
  3  2  1  0
  4  3  1  0
  4  5  1  0
  5  6  1  1
  6 13  1  0
  6  7  2  0
  9  8  1  0
 10  9  1  0
 11 10  1  0
 12 14  1  0
 12 11  1  1
 13 12  1  0
 14 15  2  0
 16 17  1  0
 16 14  1  0
 18 19  1  0
 17 18  1  1
 19 20  1  0
 20 21  2  0
 20 24  1  0
 22 17  1  0
 23 22  1  0
 25 22  2  0
M  END
$$$$
