PME.pdb
     RDKit          3D

 25 25  0  0  1  0  0  0  0  0999 V2000
    7.4370  -16.8489   20.1239 N   0  0  0  0  0  0  0  0  0  0  0  0
    6.8319  -16.8449   18.8019 C   0  0  0  0  0  0  0  0  0  0  0  0
    7.4500  -15.7421   18.0404 C   0  0  0  0  0  0  0  0  0  0  0  0
    8.0921  -14.8554   19.0829 C   0  0  0  0  0  0  0  0  0  0  0  0
    8.5177  -15.9250   20.0869 C   0  0  1  0  0  0  0  0  0  0  0  0
    8.9352  -15.3655   21.3812 C   0  0  0  0  0  0  0  0  0  0  0  0
   10.1006  -14.8335   21.3764 O   0  0  0  0  0  0  0  0  0  0  0  0
    6.3386  -12.0344   28.0190 C   0  0  0  0  0  0  0  0  0  0  0  0
    5.9610  -12.8704   26.4531 S   0  0  0  0  0  0  0  0  0  0  0  0
    7.5248  -13.5815   25.8035 C   0  0  0  0  0  0  0  0  0  0  0  0
    7.2250  -14.1555   24.4686 C   0  0  0  0  0  0  0  0  0  0  0  0
    8.4361  -14.7987   23.7837 C   0  0  2  0  0  0  0  0  0  0  0  0
    8.1327  -15.4095   22.5210 N   0  0  0  0  0  0  0  0  0  0  0  0
    8.9916  -15.7829   24.7451 C   0  0  0  0  0  0  0  0  0  0  0  0
    8.2758  -16.7832   25.1016 O   0  0  0  0  0  0  0  0  0  0  0  0
   10.2940  -15.6652   25.2934 N   0  0  0  0  0  0  0  0  0  0  0  0
   10.8806  -16.7642   26.0204 C   0  0  1  0  0  0  0  0  0  0  0  0
   12.3564  -16.9003   25.7422 C   0  0  0  0  0  0  0  0  0  0  0  0
   12.7693  -16.3398   24.4185 C   0  0  0  0  0  0  0  0  0  0  0  0
   14.2163  -16.5466   24.1513 C   0  0  0  0  0  0  0  0  0  0  0  0
   14.9146  -15.5246   23.8873 O   0  0  0  0  0  0  0  0  0  0  0  0
   10.5718  -16.6272   27.4503 C   0  0  0  0  0  0  0  0  0  0  0  0
   10.9609  -17.5813   28.3636 O   0  0  0  0  0  0  0  0  0  0  0  0
   14.8110  -17.7965   24.1819 O   0  0  0  0  0  0  0  0  0  0  0  0
    9.9459  -15.6338   27.8628 O   0  0  0  0  0  0  0  0  0  0  0  0
  1  5  1  0
  2  1  1  0
  3  2  1  0
  4  3  1  0
  4  5  1  0
  5  6  1  1
  6 13  1  0
  6  7  2  0
  9  8  1  0
 10  9  1  0
 11 10  1  0
 12 14  1  0
 12 11  1  1
 13 12  1  0
 14 15  2  0
 16 17  1  0
 16 14  1  0
 18 19  1  0
 17 18  1  1
 19 20  1  0
 20 21  2  0
 20 24  1  0
 22 17  1  0
 23 22  1  0
 25 22  2  0
M  END
$$$$
