PME.pdb
     RDKit          3D

 25 25  0  0  1  0  0  0  0  0999 V2000
    7.3514  -16.2201   20.1572 N   0  0  0  0  0  0  0  0  0  0  0  0
    6.6844  -15.9715   18.8894 C   0  0  0  0  0  0  0  0  0  0  0  0
    7.1665  -14.6698   18.3884 C   0  0  0  0  0  0  0  0  0  0  0  0
    7.7794  -13.9880   19.5905 C   0  0  0  0  0  0  0  0  0  0  0  0
    8.3447  -15.2133   20.3062 C   0  0  1  0  0  0  0  0  0  0  0  0
    8.7748  -14.9276   21.6832 C   0  0  0  0  0  0  0  0  0  0  0  0
    9.9673  -14.4698   21.7807 O   0  0  0  0  0  0  0  0  0  0  0  0
    7.0258  -11.5373   28.0853 C   0  0  0  0  0  0  0  0  0  0  0  0
    6.5868  -12.1929   26.4510 S   0  0  0  0  0  0  0  0  0  0  0  0
    7.2717  -13.8922   26.3238 C   0  0  0  0  0  0  0  0  0  0  0  0
    6.9819  -14.3810   24.9533 C   0  0  0  0  0  0  0  0  0  0  0  0
    8.2350  -14.7075   24.1332 C   0  0  2  0  0  0  0  0  0  0  0  0
    7.9562  -15.1373   22.7926 N   0  0  0  0  0  0  0  0  0  0  0  0
    8.9791  -15.7423   24.8928 C   0  0  0  0  0  0  0  0  0  0  0  0
    8.4656  -16.9070   25.0331 O   0  0  0  0  0  0  0  0  0  0  0  0
   10.2477  -15.4976   25.4773 N   0  0  0  0  0  0  0  0  0  0  0  0
   11.0201  -16.5859   26.0244 C   0  0  1  0  0  0  0  0  0  0  0  0
   12.5032  -16.3469   25.8922 C   0  0  0  0  0  0  0  0  0  0  0  0
   13.0641  -16.7842   24.5765 C   0  0  0  0  0  0  0  0  0  0  0  0
   14.5096  -16.4633   24.4515 C   0  0  0  0  0  0  0  0  0  0  0  0
   15.3263  -17.1783   25.1023 O   0  0  0  0  0  0  0  0  0  0  0  0
   10.5966  -16.8415   27.4079 C   0  0  0  0  0  0  0  0  0  0  0  0
   10.9662  -17.9899   28.0715 O   0  0  0  0  0  0  0  0  0  0  0  0
   14.9799  -15.4281   23.6614 O   0  0  0  0  0  0  0  0  0  0  0  0
    9.8881  -16.0131   28.0085 O   0  0  0  0  0  0  0  0  0  0  0  0
  1  5  1  0
  2  1  1  0
  3  2  1  0
  4  3  1  0
  4  5  1  0
  5  6  1  1
  6 13  1  0
  6  7  2  0
  9  8  1  0
 10  9  1  0
 11 10  1  0
 12 14  1  0
 12 11  1  1
 13 12  1  0
 14 15  2  0
 16 17  1  0
 16 14  1  0
 18 19  1  0
 17 18  1  1
 19 20  1  0
 20 21  2  0
 20 24  1  0
 22 17  1  0
 23 22  1  0
 25 22  2  0
M  END
$$$$
