PME.pdb
     RDKit          3D

 25 25  0  0  1  0  0  0  0  0999 V2000
    7.4862  -15.1775   19.6687 N   0  0  0  0  0  0  0  0  0  0  0  0
    6.8446  -14.6645   18.4691 C   0  0  0  0  0  0  0  0  0  0  0  0
    7.3087  -13.2760   18.2835 C   0  0  0  0  0  0  0  0  0  0  0  0
    7.8766  -12.8683   19.6239 C   0  0  0  0  0  0  0  0  0  0  0  0
    8.4523  -14.2123   20.0659 C   0  0  1  0  0  0  0  0  0  0  0  0
    8.8422  -14.2327   21.4837 C   0  0  0  0  0  0  0  0  0  0  0  0
   10.1037  -14.1405   21.6868 O   0  0  0  0  0  0  0  0  0  0  0  0
    6.7515  -10.9904   27.3767 C   0  0  0  0  0  0  0  0  0  0  0  0
    5.9841  -12.5776   26.9460 S   0  0  0  0  0  0  0  0  0  0  0  0
    7.2819  -13.6488   26.2102 C   0  0  0  0  0  0  0  0  0  0  0  0
    7.0027  -13.7411   24.7560 C   0  0  0  0  0  0  0  0  0  0  0  0
    8.2069  -14.1892   23.9203 C   0  0  2  0  0  0  0  0  0  0  0  0
    7.9188  -14.3442   22.5230 N   0  0  0  0  0  0  0  0  0  0  0  0
    8.6891  -15.4575   24.5206 C   0  0  0  0  0  0  0  0  0  0  0  0
    8.0392  -16.5397   24.3048 O   0  0  0  0  0  0  0  0  0  0  0  0
    9.8501  -15.5269   25.3317 N   0  0  0  0  0  0  0  0  0  0  0  0
   10.6509  -16.7263   25.3568 C   0  0  1  0  0  0  0  0  0  0  0  0
   12.0640  -16.4704   24.8967 C   0  0  0  0  0  0  0  0  0  0  0  0
   12.9511  -17.6706   24.9947 C   0  0  0  0  0  0  0  0  0  0  0  0
   14.3368  -17.3789   24.5445 C   0  0  0  0  0  0  0  0  0  0  0  0
   14.6261  -16.1747   24.2835 O   0  0  0  0  0  0  0  0  0  0  0  0
   10.5788  -17.3366   26.6914 C   0  0  0  0  0  0  0  0  0  0  0  0
   10.0271  -16.6651   27.7593 O   0  0  0  0  0  0  0  0  0  0  0  0
   15.3003  -18.3633   24.4050 O   0  0  0  0  0  0  0  0  0  0  0  0
   11.0212  -18.4847   26.8791 O   0  0  0  0  0  0  0  0  0  0  0  0
  1  5  1  0
  2  1  1  0
  3  2  1  0
  4  3  1  0
  4  5  1  0
  5  6  1  1
  6 13  1  0
  6  7  2  0
  9  8  1  0
 10  9  1  0
 11 10  1  0
 12 14  1  0
 12 11  1  1
 13 12  1  0
 14 15  2  0
 16 17  1  0
 16 14  1  0
 18 19  1  0
 17 18  1  1
 19 20  1  0
 20 21  2  0
 20 24  1  0
 22 17  1  0
 23 22  1  0
 25 22  2  0
M  END
$$$$
