PME.pdb
     RDKit          3D

 25 25  0  0  1  0  0  0  0  0999 V2000
    7.2519  -15.0092   19.9628 N   0  0  0  0  0  0  0  0  0  0  0  0
    6.5717  -14.5337   18.7691 C   0  0  0  0  0  0  0  0  0  0  0  0
    7.2018  -13.2555   18.3855 C   0  0  0  0  0  0  0  0  0  0  0  0
    7.9498  -12.8000   19.6177 C   0  0  0  0  0  0  0  0  0  0  0  0
    8.3760  -14.1614   20.1637 C   0  0  1  0  0  0  0  0  0  0  0  0
    8.8975  -14.0928   21.5370 C   0  0  0  0  0  0  0  0  0  0  0  0
   10.0324  -13.5081   21.6433 O   0  0  0  0  0  0  0  0  0  0  0  0
    5.5493  -12.2236   27.4696 C   0  0  0  0  0  0  0  0  0  0  0  0
    7.0965  -12.0652   26.5345 S   0  0  0  0  0  0  0  0  0  0  0  0
    6.8348  -12.8215   24.8813 C   0  0  0  0  0  0  0  0  0  0  0  0
    7.3780  -14.2009   24.9385 C   0  0  0  0  0  0  0  0  0  0  0  0
    8.5758  -14.4348   24.0112 C   0  0  2  0  0  0  0  0  0  0  0  0
    8.2168  -14.6200   22.6342 N   0  0  0  0  0  0  0  0  0  0  0  0
    9.3015  -15.6126   24.5477 C   0  0  0  0  0  0  0  0  0  0  0  0
    8.7112  -16.7485   24.5854 O   0  0  0  0  0  0  0  0  0  0  0  0
   10.6343  -15.5370   25.0260 N   0  0  0  0  0  0  0  0  0  0  0  0
   11.4635  -16.7166   25.0620 C   0  0  1  0  0  0  0  0  0  0  0  0
   12.9142  -16.3939   24.8059 C   0  0  0  0  0  0  0  0  0  0  0  0
   13.8182  -17.5807   24.9114 C   0  0  0  0  0  0  0  0  0  0  0  0
   15.1344  -17.3391   24.2658 C   0  0  0  0  0  0  0  0  0  0  0  0
   15.4054  -16.1536   23.9148 O   0  0  0  0  0  0  0  0  0  0  0  0
   11.2447  -17.4320   26.3265 C   0  0  0  0  0  0  0  0  0  0  0  0
   10.6966  -16.8030   27.4219 O   0  0  0  0  0  0  0  0  0  0  0  0
   16.0538  -18.3497   24.0413 O   0  0  0  0  0  0  0  0  0  0  0  0
   11.5556  -18.6328   26.4279 O   0  0  0  0  0  0  0  0  0  0  0  0
  1  5  1  0
  2  1  1  0
  3  2  1  0
  4  3  1  0
  4  5  1  0
  5  6  1  1
  6 13  1  0
  6  7  2  0
  9  8  1  0
 10  9  1  0
 11 10  1  0
 12 14  1  0
 12 11  1  1
 13 12  1  0
 14 15  2  0
 16 17  1  0
 16 14  1  0
 18 19  1  0
 17 18  1  1
 19 20  1  0
 20 21  2  0
 20 24  1  0
 22 17  1  0
 23 22  1  0
 25 22  2  0
M  END
$$$$
