PME.pdb
     RDKit          3D

 25 25  0  0  1  0  0  0  0  0999 V2000
    7.6057  -15.2186   19.8023 N   0  0  0  0  0  0  0  0  0  0  0  0
    7.0520  -14.7912   18.5277 C   0  0  0  0  0  0  0  0  0  0  0  0
    7.5673  -13.4347   18.2589 C   0  0  0  0  0  0  0  0  0  0  0  0
    8.0662  -12.9314   19.5943 C   0  0  0  0  0  0  0  0  0  0  0  0
    8.5746  -14.2479   20.1787 C   0  0  1  0  0  0  0  0  0  0  0  0
    8.8788  -14.1604   21.6148 C   0  0  0  0  0  0  0  0  0  0  0  0
   10.0628  -13.7499   21.8807 O   0  0  0  0  0  0  0  0  0  0  0  0
    6.2114  -11.1819   26.9498 C   0  0  0  0  0  0  0  0  0  0  0  0
    5.6674  -12.9129   26.9197 S   0  0  0  0  0  0  0  0  0  0  0  0
    7.0495  -13.9257   26.2584 C   0  0  0  0  0  0  0  0  0  0  0  0
    6.8640  -14.0158   24.7891 C   0  0  0  0  0  0  0  0  0  0  0  0
    8.1513  -14.3325   24.0197 C   0  0  2  0  0  0  0  0  0  0  0  0
    7.9582  -14.4964   22.6071 N   0  0  0  0  0  0  0  0  0  0  0  0
    8.7220  -15.5553   24.6365 C   0  0  0  0  0  0  0  0  0  0  0  0
    8.0709  -16.6557   24.5648 O   0  0  0  0  0  0  0  0  0  0  0  0
    9.9701  -15.5612   25.3097 N   0  0  0  0  0  0  0  0  0  0  0  0
   10.5369  -16.8002   25.7828 C   0  0  1  0  0  0  0  0  0  0  0  0
   11.9924  -16.9325   25.4110 C   0  0  0  0  0  0  0  0  0  0  0  0
   12.2201  -17.1178   23.9445 C   0  0  0  0  0  0  0  0  0  0  0  0
   13.6613  -17.0454   23.5897 C   0  0  0  0  0  0  0  0  0  0  0  0
   14.4815  -16.7967   24.5210 O   0  0  0  0  0  0  0  0  0  0  0  0
   10.2945  -16.9313   27.2260 C   0  0  0  0  0  0  0  0  0  0  0  0
   10.6274  -18.0798   27.9087 O   0  0  0  0  0  0  0  0  0  0  0  0
   14.1241  -17.2379   22.2991 O   0  0  0  0  0  0  0  0  0  0  0  0
    9.7779  -15.9941   27.8613 O   0  0  0  0  0  0  0  0  0  0  0  0
  1  5  1  0
  2  1  1  0
  3  2  1  0
  4  3  1  0
  4  5  1  0
  5  6  1  1
  6 13  1  0
  6  7  2  0
  9  8  1  0
 10  9  1  0
 11 10  1  0
 12 14  1  0
 12 11  1  1
 13 12  1  0
 14 15  2  0
 16 17  1  0
 16 14  1  0
 18 19  1  0
 17 18  1  1
 19 20  1  0
 20 21  2  0
 20 24  1  0
 22 17  1  0
 23 22  1  0
 25 22  2  0
M  END
$$$$
