PME.pdb
     RDKit          3D

 25 25  0  0  1  0  0  0  0  0999 V2000
    8.2056  -16.1524   21.1513 N   0  0  0  0  0  0  0  0  0  0  0  0
    7.3660  -16.8491   20.1902 C   0  0  0  0  0  0  0  0  0  0  0  0
    6.3910  -15.8709   19.6701 C   0  0  0  0  0  0  0  0  0  0  0  0
    6.4085  -14.7315   20.6634 C   0  0  0  0  0  0  0  0  0  0  0  0
    7.8842  -14.7703   21.0559 C   0  0  1  0  0  0  0  0  0  0  0  0
    8.1861  -13.9526   22.2403 C   0  0  0  0  0  0  0  0  0  0  0  0
    7.5698  -12.8301   22.2793 O   0  0  0  0  0  0  0  0  0  0  0  0
    6.3984  -12.4214   27.6140 C   0  0  0  0  0  0  0  0  0  0  0  0
    7.3429  -12.1740   26.0842 S   0  0  0  0  0  0  0  0  0  0  0  0
    6.5976  -13.2366   24.7847 C   0  0  0  0  0  0  0  0  0  0  0  0
    7.2276  -14.5752   24.8972 C   0  0  0  0  0  0  0  0  0  0  0  0
    8.7346  -14.5770   24.6176 C   0  0  2  0  0  0  0  0  0  0  0  0
    9.0698  -14.3610   23.2390 N   0  0  0  0  0  0  0  0  0  0  0  0
    9.2532  -15.8784   25.1064 C   0  0  0  0  0  0  0  0  0  0  0  0
    8.5995  -16.9495   24.8503 O   0  0  0  0  0  0  0  0  0  0  0  0
   10.4536  -15.9917   25.8527 N   0  0  0  0  0  0  0  0  0  0  0  0
   11.0171  -17.2893   26.1340 C   0  0  1  0  0  0  0  0  0  0  0  0
   12.4643  -17.3773   25.7193 C   0  0  0  0  0  0  0  0  0  0  0  0
   12.8012  -16.5215   24.5399 C   0  0  0  0  0  0  0  0  0  0  0  0
   14.2292  -16.6470   24.1488 C   0  0  0  0  0  0  0  0  0  0  0  0
   15.0887  -16.0726   24.8790 O   0  0  0  0  0  0  0  0  0  0  0  0
   10.7994  -17.6228   27.5483 C   0  0  0  0  0  0  0  0  0  0  0  0
   11.1587  -18.8494   28.0604 O   0  0  0  0  0  0  0  0  0  0  0  0
   14.6392  -17.3581   23.0338 O   0  0  0  0  0  0  0  0  0  0  0  0
   10.2802  -16.7908   28.3145 O   0  0  0  0  0  0  0  0  0  0  0  0
  1  5  1  0
  2  1  1  0
  3  2  1  0
  4  3  1  0
  4  5  1  0
  5  6  1  1
  6 13  1  0
  6  7  2  0
  9  8  1  0
 10  9  1  0
 11 10  1  0
 12 14  1  0
 12 11  1  6
 13 12  1  0
 14 15  2  0
 16 17  1  0
 16 14  1  0
 18 19  1  0
 17 18  1  1
 19 20  1  0
 20 21  2  0
 20 24  1  0
 22 17  1  0
 23 22  1  0
 25 22  2  0
M  END
$$$$
