PME.pdb
     RDKit          3D

 25 25  0  0  1  0  0  0  0  0999 V2000
    7.3400  -15.2112   19.7062 N   0  0  0  0  0  0  0  0  0  0  0  0
    6.8018  -14.7065   18.4535 C   0  0  0  0  0  0  0  0  0  0  0  0
    7.4941  -13.4369   18.1590 C   0  0  0  0  0  0  0  0  0  0  0  0
    8.1135  -13.0128   19.4712 C   0  0  0  0  0  0  0  0  0  0  0  0
    8.4521  -14.3896   20.0395 C   0  0  1  0  0  0  0  0  0  0  0  0
    8.8236  -14.3493   21.4617 C   0  0  0  0  0  0  0  0  0  0  0  0
   10.0636  -14.1106   21.6781 O   0  0  0  0  0  0  0  0  0  0  0  0
    6.9410  -11.1211   27.2251 C   0  0  0  0  0  0  0  0  0  0  0  0
    5.9719  -12.5872   26.7727 S   0  0  0  0  0  0  0  0  0  0  0  0
    7.1384  -13.8642   26.1549 C   0  0  0  0  0  0  0  0  0  0  0  0
    6.8938  -14.0151   24.6994 C   0  0  0  0  0  0  0  0  0  0  0  0
    8.1532  -14.3420   23.8892 C   0  0  2  0  0  0  0  0  0  0  0  0
    7.9060  -14.5546   22.4917 N   0  0  0  0  0  0  0  0  0  0  0  0
    8.7639  -15.5371   24.5220 C   0  0  0  0  0  0  0  0  0  0  0  0
    8.1512  -16.6600   24.4618 O   0  0  0  0  0  0  0  0  0  0  0  0
   10.0096  -15.4921   25.1980 N   0  0  0  0  0  0  0  0  0  0  0  0
   10.8233  -16.6782   25.3061 C   0  0  1  0  0  0  0  0  0  0  0  0
   12.2245  -16.4488   24.7982 C   0  0  0  0  0  0  0  0  0  0  0  0
   13.1228  -17.6325   24.9674 C   0  0  0  0  0  0  0  0  0  0  0  0
   14.5083  -17.3519   24.5097 C   0  0  0  0  0  0  0  0  0  0  0  0
   14.7697  -16.1758   24.1221 O   0  0  0  0  0  0  0  0  0  0  0  0
   10.7832  -17.1765   26.6877 C   0  0  0  0  0  0  0  0  0  0  0  0
   11.2684  -18.4225   27.0160 O   0  0  0  0  0  0  0  0  0  0  0  0
   15.5007  -18.3173   24.4948 O   0  0  0  0  0  0  0  0  0  0  0  0
   10.3039  -16.4706   27.5938 O   0  0  0  0  0  0  0  0  0  0  0  0
  1  5  1  0
  2  1  1  0
  3  2  1  0
  4  3  1  0
  4  5  1  0
  5  6  1  1
  6 13  1  0
  6  7  2  0
  9  8  1  0
 10  9  1  0
 11 10  1  0
 12 14  1  0
 12 11  1  1
 13 12  1  0
 14 15  2  0
 16 17  1  0
 16 14  1  0
 18 19  1  0
 17 18  1  1
 19 20  1  0
 20 21  2  0
 20 24  1  0
 22 17  1  0
 23 22  1  0
 25 22  2  0
M  END
$$$$
