PME.pdb
     RDKit          3D

 25 25  0  0  1  0  0  0  0  0999 V2000
    7.6822  -15.3823   19.8225 N   0  0  0  0  0  0  0  0  0  0  0  0
    7.0859  -15.0365   18.5423 C   0  0  0  0  0  0  0  0  0  0  0  0
    7.4840  -13.6493   18.2340 C   0  0  0  0  0  0  0  0  0  0  0  0
    7.9482  -13.0710   19.5514 C   0  0  0  0  0  0  0  0  0  0  0  0
    8.5690  -14.3245   20.1649 C   0  0  1  0  0  0  0  0  0  0  0  0
    8.8746  -14.1739   21.5955 C   0  0  0  0  0  0  0  0  0  0  0  0
   10.0301  -13.6778   21.8402 O   0  0  0  0  0  0  0  0  0  0  0  0
    5.9144  -11.1699   26.8499 C   0  0  0  0  0  0  0  0  0  0  0  0
    5.6227  -12.9603   26.9042 S   0  0  0  0  0  0  0  0  0  0  0  0
    7.1156  -13.7942   26.2340 C   0  0  0  0  0  0  0  0  0  0  0  0
    6.9200  -13.9350   24.7700 C   0  0  0  0  0  0  0  0  0  0  0  0
    8.1865  -14.3477   24.0118 C   0  0  2  0  0  0  0  0  0  0  0  0
    7.9840  -14.5404   22.6042 N   0  0  0  0  0  0  0  0  0  0  0  0
    8.6853  -15.5835   24.6641 C   0  0  0  0  0  0  0  0  0  0  0  0
    7.9326  -16.6188   24.7036 O   0  0  0  0  0  0  0  0  0  0  0  0
    9.9724  -15.6716   25.2526 N   0  0  0  0  0  0  0  0  0  0  0  0
   10.4923  -16.9471   25.6807 C   0  0  1  0  0  0  0  0  0  0  0  0
   11.9187  -17.1523   25.2366 C   0  0  0  0  0  0  0  0  0  0  0  0
   12.1552  -16.7976   23.8030 C   0  0  0  0  0  0  0  0  0  0  0  0
   13.5693  -17.0128   23.4006 C   0  0  0  0  0  0  0  0  0  0  0  0
   14.4699  -16.6714   24.2217 O   0  0  0  0  0  0  0  0  0  0  0  0
   10.3124  -17.0883   27.1320 C   0  0  0  0  0  0  0  0  0  0  0  0
    9.7681  -16.0759   27.8900 O   0  0  0  0  0  0  0  0  0  0  0  0
   13.9240  -17.5636   22.1809 O   0  0  0  0  0  0  0  0  0  0  0  0
   10.6539  -18.1387   27.7056 O   0  0  0  0  0  0  0  0  0  0  0  0
  1  5  1  0
  2  1  1  0
  3  2  1  0
  4  3  1  0
  4  5  1  0
  5  6  1  1
  6 13  1  0
  6  7  2  0
  9  8  1  0
 10  9  1  0
 11 10  1  0
 12 14  1  0
 12 11  1  1
 13 12  1  0
 14 15  2  0
 16 17  1  0
 16 14  1  0
 18 19  1  0
 17 18  1  1
 19 20  1  0
 20 21  2  0
 20 24  1  0
 22 17  1  0
 23 22  1  0
 25 22  2  0
M  END
$$$$
