PME.pdb
     RDKit          3D

 25 25  0  0  1  0  0  0  0  0999 V2000
    7.3454  -15.0331   19.9120 N   0  0  0  0  0  0  0  0  0  0  0  0
    6.8461  -14.4784   18.6642 C   0  0  0  0  0  0  0  0  0  0  0  0
    7.5906  -13.2296   18.4108 C   0  0  0  0  0  0  0  0  0  0  0  0
    8.2054  -12.8609   19.7418 C   0  0  0  0  0  0  0  0  0  0  0  0
    8.4825  -14.2628   20.2813 C   0  0  1  0  0  0  0  0  0  0  0  0
    8.8334  -14.2707   21.7093 C   0  0  0  0  0  0  0  0  0  0  0  0
   10.0807  -14.1028   21.9486 O   0  0  0  0  0  0  0  0  0  0  0  0
    6.2726  -11.1330   26.8146 C   0  0  0  0  0  0  0  0  0  0  0  0
    7.7434  -12.1961   26.7965 S   0  0  0  0  0  0  0  0  0  0  0  0
    7.1950  -13.9091   26.4250 C   0  0  0  0  0  0  0  0  0  0  0  0
    6.9280  -13.9782   24.9672 C   0  0  0  0  0  0  0  0  0  0  0  0
    8.1497  -14.3751   24.1309 C   0  0  2  0  0  0  0  0  0  0  0  0
    7.8901  -14.4472   22.7213 N   0  0  0  0  0  0  0  0  0  0  0  0
    8.6220  -15.6765   24.6646 C   0  0  0  0  0  0  0  0  0  0  0  0
    7.8188  -16.6738   24.6856 O   0  0  0  0  0  0  0  0  0  0  0  0
    9.9375  -15.8687   25.1580 N   0  0  0  0  0  0  0  0  0  0  0  0
   10.3943  -17.1879   25.5204 C   0  0  1  0  0  0  0  0  0  0  0  0
   11.8173  -17.4312   25.0845 C   0  0  0  0  0  0  0  0  0  0  0  0
   12.1523  -16.8122   23.7648 C   0  0  0  0  0  0  0  0  0  0  0  0
   13.5791  -16.4053   23.6851 C   0  0  0  0  0  0  0  0  0  0  0  0
   14.3610  -17.1411   23.0150 O   0  0  0  0  0  0  0  0  0  0  0  0
   10.1856  -17.4016   26.9590 C   0  0  0  0  0  0  0  0  0  0  0  0
   10.4121  -18.6277   27.5432 O   0  0  0  0  0  0  0  0  0  0  0  0
   14.0687  -15.2699   24.3082 O   0  0  0  0  0  0  0  0  0  0  0  0
    9.7958  -16.4654   27.6805 O   0  0  0  0  0  0  0  0  0  0  0  0
  1  5  1  0
  2  1  1  0
  3  2  1  0
  4  3  1  0
  4  5  1  0
  5  6  1  1
  6 13  1  0
  6  7  2  0
  9  8  1  0
 10  9  1  0
 11 10  1  0
 12 14  1  0
 12 11  1  1
 13 12  1  0
 14 15  2  0
 16 17  1  0
 16 14  1  0
 18 19  1  0
 17 18  1  1
 19 20  1  0
 20 21  2  0
 20 24  1  0
 22 17  1  0
 23 22  1  0
 25 22  2  0
M  END
$$$$
