PME.pdb
     RDKit          3D

 25 25  0  0  1  0  0  0  0  0999 V2000
    7.4241  -15.0669   19.9678 N   0  0  0  0  0  0  0  0  0  0  0  0
    6.9140  -14.5546   18.7064 C   0  0  0  0  0  0  0  0  0  0  0  0
    7.6818  -13.3356   18.3859 C   0  0  0  0  0  0  0  0  0  0  0  0
    8.3298  -12.9248   19.6885 C   0  0  0  0  0  0  0  0  0  0  0  0
    8.5852  -14.3084   20.2830 C   0  0  1  0  0  0  0  0  0  0  0  0
    8.9627  -14.2634   21.7036 C   0  0  0  0  0  0  0  0  0  0  0  0
   10.2142  -14.0871   21.9131 O   0  0  0  0  0  0  0  0  0  0  0  0
    5.6567  -11.2274   25.9789 C   0  0  0  0  0  0  0  0  0  0  0  0
    6.1157  -12.5389   27.1463 S   0  0  0  0  0  0  0  0  0  0  0  0
    7.4861  -13.5050   26.3968 C   0  0  0  0  0  0  0  0  0  0  0  0
    7.1909  -13.6352   24.9486 C   0  0  0  0  0  0  0  0  0  0  0  0
    8.3241  -14.2760   24.1396 C   0  0  2  0  0  0  0  0  0  0  0  0
    8.0386  -14.4019   22.7389 N   0  0  0  0  0  0  0  0  0  0  0  0
    8.5924  -15.5963   24.7613 C   0  0  0  0  0  0  0  0  0  0  0  0
    7.7029  -16.5149   24.6897 O   0  0  0  0  0  0  0  0  0  0  0  0
    9.8027  -15.8909   25.4388 N   0  0  0  0  0  0  0  0  0  0  0  0
   10.0851  -17.2366   25.8745 C   0  0  1  0  0  0  0  0  0  0  0  0
   11.2411  -17.8427   25.1193 C   0  0  0  0  0  0  0  0  0  0  0  0
   12.4781  -17.0024   25.1449 C   0  0  0  0  0  0  0  0  0  0  0  0
   13.1242  -16.9192   23.8095 C   0  0  0  0  0  0  0  0  0  0  0  0
   14.3842  -17.0295   23.7610 O   0  0  0  0  0  0  0  0  0  0  0  0
   10.2748  -17.2511   27.3314 C   0  0  0  0  0  0  0  0  0  0  0  0
   10.1942  -16.0967   28.0776 O   0  0  0  0  0  0  0  0  0  0  0  0
   12.4053  -16.7288   22.6417 O   0  0  0  0  0  0  0  0  0  0  0  0
   10.5142  -18.3209   27.9206 O   0  0  0  0  0  0  0  0  0  0  0  0
  1  5  1  0
  2  1  1  0
  3  2  1  0
  4  3  1  0
  4  5  1  0
  5  6  1  1
  6 13  1  0
  6  7  2  0
  9  8  1  0
 10  9  1  0
 11 10  1  0
 12 14  1  0
 12 11  1  1
 13 12  1  0
 14 15  2  0
 16 17  1  0
 16 14  1  0
 18 19  1  0
 17 18  1  6
 19 20  1  0
 20 21  2  0
 20 24  1  0
 22 17  1  0
 23 22  1  0
 25 22  2  0
M  END
$$$$
