PME.pdb
     RDKit          3D

 25 25  0  0  1  0  0  0  0  0999 V2000
    7.4316  -15.2155   19.5704 N   0  0  0  0  0  0  0  0  0  0  0  0
    6.8353  -14.7261   18.3380 C   0  0  0  0  0  0  0  0  0  0  0  0
    7.4384  -13.4099   18.0519 C   0  0  0  0  0  0  0  0  0  0  0  0
    8.0575  -12.9683   19.3585 C   0  0  0  0  0  0  0  0  0  0  0  0
    8.4957  -14.3295   19.8953 C   0  0  1  0  0  0  0  0  0  0  0  0
    8.8944  -14.2887   21.3102 C   0  0  0  0  0  0  0  0  0  0  0  0
   10.1607  -14.2671   21.5026 O   0  0  0  0  0  0  0  0  0  0  0  0
    6.4167  -11.8656   28.4019 C   0  0  0  0  0  0  0  0  0  0  0  0
    6.0012  -12.2691   26.6820 S   0  0  0  0  0  0  0  0  0  0  0  0
    7.4138  -13.1986   25.9651 C   0  0  0  0  0  0  0  0  0  0  0  0
    7.1198  -13.4024   24.5252 C   0  0  0  0  0  0  0  0  0  0  0  0
    8.2779  -14.0254   23.7378 C   0  0  2  0  0  0  0  0  0  0  0  0
    7.9737  -14.2756   22.3578 N   0  0  0  0  0  0  0  0  0  0  0  0
    8.6483  -15.2741   24.4486 C   0  0  0  0  0  0  0  0  0  0  0  0
    7.8896  -16.3009   24.3481 O   0  0  0  0  0  0  0  0  0  0  0  0
    9.8176  -15.3836   25.2433 N   0  0  0  0  0  0  0  0  0  0  0  0
   10.4939  -16.6510   25.3738 C   0  0  1  0  0  0  0  0  0  0  0  0
   11.9095  -16.5903   24.8578 C   0  0  0  0  0  0  0  0  0  0  0  0
   12.6843  -17.8486   25.0889 C   0  0  0  0  0  0  0  0  0  0  0  0
   14.0865  -17.7368   24.6100 C   0  0  0  0  0  0  0  0  0  0  0  0
   14.8350  -18.7478   24.7495 O   0  0  0  0  0  0  0  0  0  0  0  0
   10.4049  -17.1136   26.7655 C   0  0  0  0  0  0  0  0  0  0  0  0
    9.8449  -16.3290   27.7487 O   0  0  0  0  0  0  0  0  0  0  0  0
   14.5882  -16.5849   24.0283 O   0  0  0  0  0  0  0  0  0  0  0  0
   10.8399  -18.2362   27.0807 O   0  0  0  0  0  0  0  0  0  0  0  0
  1  5  1  0
  2  1  1  0
  3  2  1  0
  4  3  1  0
  4  5  1  0
  5  6  1  1
  6 13  1  0
  6  7  2  0
  9  8  1  0
 10  9  1  0
 11 10  1  0
 12 14  1  0
 12 11  1  1
 13 12  1  0
 14 15  2  0
 16 17  1  0
 16 14  1  0
 18 19  1  0
 17 18  1  1
 19 20  1  0
 20 21  2  0
 20 24  1  0
 22 17  1  0
 23 22  1  0
 25 22  2  0
M  END
$$$$
