KAD.pdb
     RDKit          3D

 23 22  0  0  1  0  0  0  0  0999 V2000
    7.8074  -13.3198   18.9560 N   0  0  0  0  0  0  0  0  0  0  0  0
    7.3214  -14.1655   20.0262 C   0  0  1  0  0  0  0  0  0  0  0  0
    7.5907  -15.6211   19.7761 C   0  0  0  0  0  0  0  0  0  0  0  0
    9.0109  -15.9768   19.5534 C   0  0  0  0  0  0  0  0  0  0  0  0
    9.3258  -17.4024   19.3049 C   0  0  0  0  0  0  0  0  0  0  0  0
   10.7852  -17.6738   19.0544 C   0  0  0  0  0  0  0  0  0  0  0  0
   11.0320  -19.0890   18.8507 N   0  0  0  0  0  0  0  0  0  0  0  0
    7.7909  -13.7311   21.3649 C   0  0  0  0  0  0  0  0  0  0  0  0
    8.8667  -13.0746   21.4422 O   0  0  0  0  0  0  0  0  0  0  0  0
    6.5526  -13.5344   24.9270 C   0  0  0  0  0  0  0  0  0  0  0  0
    7.6280  -13.5449   23.8705 C   0  0  2  0  0  0  0  0  0  0  0  0
    7.1268  -13.9919   22.5867 N   0  0  0  0  0  0  0  0  0  0  0  0
    8.7778  -14.3742   24.3252 C   0  0  0  0  0  0  0  0  0  0  0  0
    9.3259  -14.1067   25.4252 O   0  0  0  0  0  0  0  0  0  0  0  0
    9.2944  -15.4554   23.5847 N   0  0  0  0  0  0  0  0  0  0  0  0
   10.3709  -16.3337   24.0613 C   0  0  1  0  0  0  0  0  0  0  0  0
    9.6316  -17.4818   24.7592 C   0  0  0  0  0  0  0  0  0  0  0  0
   10.1731  -17.7795   26.0973 C   0  0  0  0  0  0  0  0  0  0  0  0
   11.1147  -17.0976   26.5722 O   0  0  0  0  0  0  0  0  0  0  0  0
   11.0507  -16.8729   22.8612 C   0  0  0  0  0  0  0  0  0  0  0  0
   12.3985  -17.1200   22.8790 O   0  0  0  0  0  0  0  0  0  0  0  0
    9.6410  -18.8248   26.8471 O   0  0  0  0  0  0  0  0  0  0  0  0
   10.4248  -17.1174   21.8032 O   0  0  0  0  0  0  0  0  0  0  0  0
  2  8  1  0
  2  1  1  6
  3  2  1  0
  4  3  1  0
  5  4  1  0
  6  5  1  0
  7  6  1  0
  8  9  2  0
 11 10  1  1
 12 11  1  0
 12  8  1  0
 13 11  1  0
 13 15  1  0
 14 13  2  0
 16 15  1  0
 16 17  1  6
 17 18  1  0
 18 22  1  0
 19 18  2  0
 20 16  1  0
 21 20  1  0
 23 20  2  0
M  END
$$$$
