KAD.pdb
     RDKit          3D

 23 22  0  0  1  0  0  0  0  0999 V2000
    5.8676  -19.9972   15.4026 N   0  0  0  0  0  0  0  0  0  0  0  0
    6.1144  -20.8519   16.5450 C   0  0  1  0  0  0  0  0  0  0  0  0
    6.5521  -22.2317   16.1468 C   0  0  0  0  0  0  0  0  0  0  0  0
    7.9346  -22.3356   15.6261 C   0  0  0  0  0  0  0  0  0  0  0  0
    8.4108  -23.6777   15.2195 C   0  0  0  0  0  0  0  0  0  0  0  0
    9.8190  -23.6939   14.6876 C   0  0  0  0  0  0  0  0  0  0  0  0
   10.2160  -25.0298   14.2841 N   0  0  0  0  0  0  0  0  0  0  0  0
    7.0300  -20.2389   17.5385 C   0  0  0  0  0  0  0  0  0  0  0  0
    8.1005  -19.7116   17.1262 O   0  0  0  0  0  0  0  0  0  0  0  0
    7.1034  -19.1801   21.1493 C   0  0  0  0  0  0  0  0  0  0  0  0
    7.7607  -19.6352   19.8711 C   0  0  2  0  0  0  0  0  0  0  0  0
    6.8053  -20.1914   18.9346 N   0  0  0  0  0  0  0  0  0  0  0  0
    8.8499  -20.6028   20.1774 C   0  0  0  0  0  0  0  0  0  0  0  0
    8.6211  -21.8346   20.0658 O   0  0  0  0  0  0  0  0  0  0  0  0
   10.1390  -20.2134   20.5906 N   0  0  0  0  0  0  0  0  0  0  0  0
   11.1771  -21.1552   21.0297 C   0  0  1  0  0  0  0  0  0  0  0  0
   12.4900  -20.4026   20.7816 C   0  0  0  0  0  0  0  0  0  0  0  0
   12.8451  -20.3299   19.3530 C   0  0  0  0  0  0  0  0  0  0  0  0
   12.0971  -20.8383   18.4817 O   0  0  0  0  0  0  0  0  0  0  0  0
   11.0067  -21.3348   22.4898 C   0  0  0  0  0  0  0  0  0  0  0  0
   11.5937  -22.3935   23.1322 O   0  0  0  0  0  0  0  0  0  0  0  0
   14.0188  -19.6937   18.9587 O   0  0  0  0  0  0  0  0  0  0  0  0
   10.3288  -20.5358   23.1775 O   0  0  0  0  0  0  0  0  0  0  0  0
  2  8  1  0
  2  1  1  6
  3  2  1  0
  4  3  1  0
  5  4  1  0
  6  5  1  0
  7  6  1  0
  8  9  2  0
 11 10  1  1
 12 11  1  0
 12  8  1  0
 13 11  1  0
 13 15  1  0
 14 13  2  0
 16 15  1  0
 16 17  1  1
 17 18  1  0
 18 22  1  0
 19 18  2  0
 20 16  1  0
 21 20  1  0
 23 20  2  0
M  END
$$$$
