KAD.pdb
     RDKit          3D

 23 22  0  0  1  0  0  0  0  0999 V2000
    6.3502  -16.8045   20.2968 N   0  0  0  0  0  0  0  0  0  0  0  0
    7.2917  -16.0438   21.0914 C   0  0  1  0  0  0  0  0  0  0  0  0
    7.2487  -14.5750   20.7838 C   0  0  0  0  0  0  0  0  0  0  0  0
    7.4490  -14.2164   19.3609 C   0  0  0  0  0  0  0  0  0  0  0  0
    7.4631  -12.7760   19.0164 C   0  0  0  0  0  0  0  0  0  0  0  0
    7.6790  -12.4974   17.5529 C   0  0  0  0  0  0  0  0  0  0  0  0
    8.7490  -13.3143   17.0117 N   0  0  0  0  0  0  0  0  0  0  0  0
    7.1729  -16.3151   22.5452 C   0  0  0  0  0  0  0  0  0  0  0  0
    6.2395  -15.7582   23.1877 O   0  0  0  0  0  0  0  0  0  0  0  0
    6.4416  -18.1208   24.8937 C   0  0  0  0  0  0  0  0  0  0  0  0
    7.7964  -17.4949   24.6803 C   0  0  2  0  0  0  0  0  0  0  0  0
    8.0294  -17.1596   23.2902 N   0  0  0  0  0  0  0  0  0  0  0  0
    8.8592  -18.3930   25.2097 C   0  0  0  0  0  0  0  0  0  0  0  0
    8.7158  -18.9013   26.3513 O   0  0  0  0  0  0  0  0  0  0  0  0
   10.0318  -18.7106   24.4967 N   0  0  0  0  0  0  0  0  0  0  0  0
   11.0933  -19.5838   25.0144 C   0  0  1  0  0  0  0  0  0  0  0  0
   12.0861  -19.6911   23.8505 C   0  0  0  0  0  0  0  0  0  0  0  0
   11.4952  -20.3122   22.6516 C   0  0  0  0  0  0  0  0  0  0  0  0
   10.4348  -20.9798   22.7342 O   0  0  0  0  0  0  0  0  0  0  0  0
   11.7479  -18.8550   26.1251 C   0  0  0  0  0  0  0  0  0  0  0  0
   12.6260  -19.4999   26.9563 O   0  0  0  0  0  0  0  0  0  0  0  0
   12.1129  -20.1618   21.4132 O   0  0  0  0  0  0  0  0  0  0  0  0
   11.5232  -17.6408   26.3395 O   0  0  0  0  0  0  0  0  0  0  0  0
  2  8  1  0
  2  1  1  6
  3  2  1  0
  4  3  1  0
  5  4  1  0
  6  5  1  0
  7  6  1  0
  8  9  2  0
 11 10  1  6
 12 11  1  0
 12  8  1  0
 13 11  1  0
 13 15  1  0
 14 13  2  0
 16 15  1  0
 16 17  1  6
 17 18  1  0
 18 22  1  0
 19 18  2  0
 20 16  1  0
 21 20  1  0
 23 20  2  0
M  END
$$$$
