KAD.pdb
     RDKit          3D

 23 22  0  0  1  0  0  0  0  0999 V2000
    9.8711  -13.4625   18.6393 N   0  0  0  0  0  0  0  0  0  0  0  0
    8.9320  -13.5986   19.7331 C   0  0  1  0  0  0  0  0  0  0  0  0
    7.5205  -13.2968   19.3198 C   0  0  0  0  0  0  0  0  0  0  0  0
    7.3308  -12.9807   17.8855 C   0  0  0  0  0  0  0  0  0  0  0  0
    7.4182  -14.1026   16.9228 C   0  0  0  0  0  0  0  0  0  0  0  0
    7.0346  -13.7340   15.5145 C   0  0  0  0  0  0  0  0  0  0  0  0
    7.1575  -14.8691   14.6192 N   0  0  0  0  0  0  0  0  0  0  0  0
    9.0441  -14.9023   20.4325 C   0  0  0  0  0  0  0  0  0  0  0  0
    8.2944  -15.1200   21.4248 O   0  0  0  0  0  0  0  0  0  0  0  0
    9.8812  -18.3890   19.8926 C   0  0  0  0  0  0  0  0  0  0  0  0
   10.0145  -17.1956   20.8041 C   0  0  2  0  0  0  0  0  0  0  0  0
    9.9339  -15.9439   20.0789 N   0  0  0  0  0  0  0  0  0  0  0  0
   11.2783  -17.2925   21.5851 C   0  0  0  0  0  0  0  0  0  0  0  0
   11.5795  -18.3878   22.1251 O   0  0  0  0  0  0  0  0  0  0  0  0
   12.1679  -16.2139   21.7567 N   0  0  0  0  0  0  0  0  0  0  0  0
   13.4717  -16.3265   22.4238 C   0  0  1  0  0  0  0  0  0  0  0  0
   14.1981  -15.0317   22.0398 C   0  0  0  0  0  0  0  0  0  0  0  0
   14.5974  -15.0004   20.6213 C   0  0  0  0  0  0  0  0  0  0  0  0
   14.5529  -13.9287   19.9682 O   0  0  0  0  0  0  0  0  0  0  0  0
   13.2132  -16.3060   23.8819 C   0  0  0  0  0  0  0  0  0  0  0  0
   14.2178  -16.5919   24.7690 O   0  0  0  0  0  0  0  0  0  0  0  0
   15.0285  -16.1656   19.9933 O   0  0  0  0  0  0  0  0  0  0  0  0
   12.0824  -16.0309   24.3469 O   0  0  0  0  0  0  0  0  0  0  0  0
  2  8  1  0
  2  1  1  6
  3  2  1  0
  4  3  1  0
  5  4  1  0
  6  5  1  0
  7  6  1  0
  8  9  2  0
 11 10  1  6
 12 11  1  0
 12  8  1  0
 13 11  1  0
 13 15  1  0
 14 13  2  0
 16 15  1  0
 16 17  1  1
 17 18  1  0
 18 22  1  0
 19 18  2  0
 20 16  1  0
 21 20  1  0
 23 20  2  0
M  END
$$$$
