KAD.pdb
     RDKit          3D

 23 22  0  0  1  0  0  0  0  0999 V2000
    8.6304  -16.2372   17.6514 N   0  0  0  0  0  0  0  0  0  0  0  0
    9.1741  -14.9099   17.8495 C   0  0  1  0  0  0  0  0  0  0  0  0
    8.7533  -13.9499   16.7747 C   0  0  0  0  0  0  0  0  0  0  0  0
    8.4397  -14.5607   15.4626 C   0  0  0  0  0  0  0  0  0  0  0  0
    7.9706  -13.6589   14.3855 C   0  0  0  0  0  0  0  0  0  0  0  0
    7.5353  -14.3728   13.1337 C   0  0  0  0  0  0  0  0  0  0  0  0
    7.1119  -13.4350   12.1108 N   0  0  0  0  0  0  0  0  0  0  0  0
    8.9154  -14.3763   19.2096 C   0  0  0  0  0  0  0  0  0  0  0  0
    9.5141  -13.3240   19.5678 O   0  0  0  0  0  0  0  0  0  0  0  0
    6.4531  -14.6320   22.0020 C   0  0  0  0  0  0  0  0  0  0  0  0
    7.8561  -14.4184   21.4933 C   0  0  2  0  0  0  0  0  0  0  0  0
    8.0398  -14.9533   20.1594 N   0  0  0  0  0  0  0  0  0  0  0  0
    8.8370  -14.9969   22.4522 C   0  0  0  0  0  0  0  0  0  0  0  0
    8.7927  -14.6431   23.6584 O   0  0  0  0  0  0  0  0  0  0  0  0
    9.8252  -15.9298   22.0817 N   0  0  0  0  0  0  0  0  0  0  0  0
   10.8095  -16.4936   23.0149 C   0  0  1  0  0  0  0  0  0  0  0  0
   10.6916  -18.0085   22.8082 C   0  0  0  0  0  0  0  0  0  0  0  0
   10.8698  -18.4081   21.4008 C   0  0  0  0  0  0  0  0  0  0  0  0
   11.0510  -17.5431   20.5086 O   0  0  0  0  0  0  0  0  0  0  0  0
   12.1456  -16.0578   22.5478 C   0  0  0  0  0  0  0  0  0  0  0  0
   12.2864  -15.4244   21.3408 O   0  0  0  0  0  0  0  0  0  0  0  0
   10.8378  -19.7548   21.0498 O   0  0  0  0  0  0  0  0  0  0  0  0
   13.1782  -16.2516   23.2311 O   0  0  0  0  0  0  0  0  0  0  0  0
  2  8  1  0
  2  1  1  6
  3  2  1  0
  4  3  1  0
  5  4  1  0
  6  5  1  0
  7  6  1  0
  8  9  2  0
 11 10  1  1
 12 11  1  0
 12  8  1  0
 13 11  1  0
 13 15  1  0
 14 13  2  0
 16 15  1  0
 16 17  1  6
 17 18  1  0
 18 22  1  0
 19 18  2  0
 20 16  1  0
 21 20  1  0
 23 20  2  0
M  END
$$$$
