KAD.pdb
     RDKit          3D

 23 22  0  0  1  0  0  0  0  0999 V2000
   10.7015  -15.9924   16.7817 N   0  0  0  0  0  0  0  0  0  0  0  0
   11.3458  -14.9018   17.4831 C   0  0  1  0  0  0  0  0  0  0  0  0
   10.4346  -14.2377   18.4744 C   0  0  0  0  0  0  0  0  0  0  0  0
    9.0696  -13.9391   17.9839 C   0  0  0  0  0  0  0  0  0  0  0  0
    8.1610  -13.2096   18.8981 C   0  0  0  0  0  0  0  0  0  0  0  0
    6.8041  -12.9214   18.3135 C   0  0  0  0  0  0  0  0  0  0  0  0
    5.9700  -12.1909   19.2494 N   0  0  0  0  0  0  0  0  0  0  0  0
   12.6437  -15.2901   18.0882 C   0  0  0  0  0  0  0  0  0  0  0  0
   12.7279  -16.4094   18.6664 O   0  0  0  0  0  0  0  0  0  0  0  0
   16.2193  -14.0470   18.2883 C   0  0  0  0  0  0  0  0  0  0  0  0
   15.0598  -14.9216   18.6927 C   0  0  2  0  0  0  0  0  0  0  0  0
   13.8187  -14.5021   18.0740 N   0  0  0  0  0  0  0  0  0  0  0  0
   14.9443  -14.9567   20.1766 C   0  0  0  0  0  0  0  0  0  0  0  0
   14.4746  -13.9557   20.7759 O   0  0  0  0  0  0  0  0  0  0  0  0
   15.3362  -16.0608   20.9586 N   0  0  0  0  0  0  0  0  0  0  0  0
   15.2253  -16.1076   22.4224 C   0  0  1  0  0  0  0  0  0  0  0  0
   14.7212  -17.5268   22.7113 C   0  0  0  0  0  0  0  0  0  0  0  0
   14.6371  -17.8202   24.1532 C   0  0  0  0  0  0  0  0  0  0  0  0
   14.9590  -16.9525   25.0021 O   0  0  0  0  0  0  0  0  0  0  0  0
   16.5977  -15.9769   22.9633 C   0  0  0  0  0  0  0  0  0  0  0  0
   17.6745  -15.9190   22.1176 O   0  0  0  0  0  0  0  0  0  0  0  0
   14.1982  -19.0686   24.5854 O   0  0  0  0  0  0  0  0  0  0  0  0
   16.8175  -15.9164   24.1957 O   0  0  0  0  0  0  0  0  0  0  0  0
  2  8  1  0
  2  1  1  1
  3  2  1  0
  4  3  1  0
  5  4  1  0
  6  5  1  0
  7  6  1  0
  8  9  2  0
 11 10  1  1
 12 11  1  0
 12  8  1  0
 13 11  1  0
 13 15  1  0
 14 13  2  0
 16 15  1  0
 16 17  1  6
 17 18  1  0
 18 22  1  0
 19 18  2  0
 20 16  1  0
 21 20  1  0
 23 20  2  0
M  END
$$$$
