KAD.pdb
     RDKit          3D

 23 22  0  0  1  0  0  0  0  0999 V2000
    9.4318  -15.6041   18.0727 N   0  0  0  0  0  0  0  0  0  0  0  0
    9.0864  -14.2852   18.5603 C   0  0  1  0  0  0  0  0  0  0  0  0
    8.1062  -13.5807   17.6677 C   0  0  0  0  0  0  0  0  0  0  0  0
    8.0645  -14.0576   16.2663 C   0  0  0  0  0  0  0  0  0  0  0  0
    7.1177  -13.3868   15.3458 C   0  0  0  0  0  0  0  0  0  0  0  0
    7.1790  -13.8905   13.9286 C   0  0  0  0  0  0  0  0  0  0  0  0
    6.1706  -13.2580   13.0990 N   0  0  0  0  0  0  0  0  0  0  0  0
    8.6500  -14.2891   19.9783 C   0  0  0  0  0  0  0  0  0  0  0  0
    8.4102  -13.1830   20.5380 O   0  0  0  0  0  0  0  0  0  0  0  0
    6.9736  -16.3842   22.4722 C   0  0  0  0  0  0  0  0  0  0  0  0
    8.0683  -15.3943   22.1645 C   0  0  2  0  0  0  0  0  0  0  0  0
    8.4747  -15.4453   20.7748 N   0  0  0  0  0  0  0  0  0  0  0  0
    9.2228  -15.6146   23.0783 C   0  0  0  0  0  0  0  0  0  0  0  0
    9.0340  -15.5735   24.3211 O   0  0  0  0  0  0  0  0  0  0  0  0
   10.5321  -15.8697   22.6254 N   0  0  0  0  0  0  0  0  0  0  0  0
   11.6704  -16.1292   23.5166 C   0  0  1  0  0  0  0  0  0  0  0  0
   11.6641  -17.6526   23.6927 C   0  0  0  0  0  0  0  0  0  0  0  0
   11.8826  -18.0665   25.0902 C   0  0  0  0  0  0  0  0  0  0  0  0
   12.0197  -17.2087   25.9971 O   0  0  0  0  0  0  0  0  0  0  0  0
   12.8942  -15.7466   22.7755 C   0  0  0  0  0  0  0  0  0  0  0  0
   14.0867  -15.5983   23.4342 O   0  0  0  0  0  0  0  0  0  0  0  0
   11.9392  -19.4190   25.4152 O   0  0  0  0  0  0  0  0  0  0  0  0
   12.8804  -15.5478   21.5382 O   0  0  0  0  0  0  0  0  0  0  0  0
  2  8  1  0
  2  1  1  6
  3  2  1  0
  4  3  1  0
  5  4  1  0
  6  5  1  0
  7  6  1  0
  8  9  2  0
 11 10  1  6
 12 11  1  0
 12  8  1  0
 13 11  1  0
 13 15  1  0
 14 13  2  0
 16 15  1  0
 16 17  1  6
 17 18  1  0
 18 22  1  0
 19 18  2  0
 20 16  1  0
 21 20  1  0
 23 20  2  0
M  END
$$$$
