KAD.pdb
     RDKit          3D

 23 22  0  0  1  0  0  0  0  0999 V2000
   11.7570  -15.7884   16.1655 N   0  0  0  0  0  0  0  0  0  0  0  0
   12.4364  -15.2866   17.3416 C   0  0  1  0  0  0  0  0  0  0  0  0
   12.0541  -16.0311   18.5879 C   0  0  0  0  0  0  0  0  0  0  0  0
   10.6001  -16.2201   18.7961 C   0  0  0  0  0  0  0  0  0  0  0  0
   10.1772  -17.0087   19.9761 C   0  0  0  0  0  0  0  0  0  0  0  0
    8.6901  -17.0128   20.2105 C   0  0  0  0  0  0  0  0  0  0  0  0
    8.3315  -17.8847   21.3133 N   0  0  0  0  0  0  0  0  0  0  0  0
   13.9075  -15.2033   17.1679 C   0  0  0  0  0  0  0  0  0  0  0  0
   14.4767  -16.0581   16.4334 O   0  0  0  0  0  0  0  0  0  0  0  0
   16.7554  -12.8260   17.7276 C   0  0  0  0  0  0  0  0  0  0  0  0
   16.1840  -14.2144   17.5906 C   0  0  2  0  0  0  0  0  0  0  0  0
   14.7457  -14.2317   17.7639 N   0  0  0  0  0  0  0  0  0  0  0  0
   16.8588  -15.1370   18.5445 C   0  0  0  0  0  0  0  0  0  0  0  0
   18.0739  -15.4117   18.3717 O   0  0  0  0  0  0  0  0  0  0  0  0
   16.2062  -15.7281   19.6441 N   0  0  0  0  0  0  0  0  0  0  0  0
   16.8260  -16.7291   20.5223 C   0  0  1  0  0  0  0  0  0  0  0  0
   16.7625  -16.0908   21.9153 C   0  0  0  0  0  0  0  0  0  0  0  0
   17.8667  -15.1460   22.1611 C   0  0  0  0  0  0  0  0  0  0  0  0
   18.7274  -14.9238   21.2740 O   0  0  0  0  0  0  0  0  0  0  0  0
   15.9444  -17.9189   20.5097 C   0  0  0  0  0  0  0  0  0  0  0  0
   16.3073  -19.0589   21.1780 O   0  0  0  0  0  0  0  0  0  0  0  0
   17.9629  -14.4905   23.3854 O   0  0  0  0  0  0  0  0  0  0  0  0
   14.8520  -17.9233   19.8953 O   0  0  0  0  0  0  0  0  0  0  0  0
  2  8  1  0
  2  1  1  6
  3  2  1  0
  4  3  1  0
  5  4  1  0
  6  5  1  0
  7  6  1  0
  8  9  2  0
 11 10  1  1
 12 11  1  0
 12  8  1  0
 13 11  1  0
 13 15  1  0
 14 13  2  0
 16 15  1  0
 16 17  1  1
 17 18  1  0
 18 22  1  0
 19 18  2  0
 20 16  1  0
 21 20  1  0
 23 20  2  0
M  END
$$$$
