KAD.pdb
     RDKit          3D

 23 22  0  0  1  0  0  0  0  0999 V2000
    8.5147  -16.4766   15.3961 N   0  0  0  0  0  0  0  0  0  0  0  0
    8.3811  -16.4130   16.8365 C   0  0  1  0  0  0  0  0  0  0  0  0
    9.0868  -17.5423   17.5297 C   0  0  0  0  0  0  0  0  0  0  0  0
    8.4296  -18.8652   17.4226 C   0  0  0  0  0  0  0  0  0  0  0  0
    9.0412  -19.9922   18.1636 C   0  0  0  0  0  0  0  0  0  0  0  0
    8.2813  -21.2866   18.0483 C   0  0  0  0  0  0  0  0  0  0  0  0
    8.9544  -22.3592   18.7565 N   0  0  0  0  0  0  0  0  0  0  0  0
    8.7579  -15.0908   17.3942 C   0  0  0  0  0  0  0  0  0  0  0  0
    9.8861  -14.6098   17.0943 O   0  0  0  0  0  0  0  0  0  0  0  0
    7.2673  -12.3069   19.4970 C   0  0  0  0  0  0  0  0  0  0  0  0
    8.3935  -13.0545   18.8295 C   0  0  2  0  0  0  0  0  0  0  0  0
    7.9489  -14.3053   18.2489 N   0  0  0  0  0  0  0  0  0  0  0  0
    9.5046  -13.2676   19.7972 C   0  0  0  0  0  0  0  0  0  0  0  0
   10.0389  -12.2680   20.3426 O   0  0  0  0  0  0  0  0  0  0  0  0
    9.9989  -14.5408   20.1418 N   0  0  0  0  0  0  0  0  0  0  0  0
   11.0761  -14.7648   21.1149 C   0  0  1  0  0  0  0  0  0  0  0  0
   10.5107  -15.8371   22.0541 C   0  0  0  0  0  0  0  0  0  0  0  0
   11.4855  -16.2803   23.0669 C   0  0  0  0  0  0  0  0  0  0  0  0
   12.6133  -15.7343   23.1507 O   0  0  0  0  0  0  0  0  0  0  0  0
   12.2163  -15.3461   20.3698 C   0  0  0  0  0  0  0  0  0  0  0  0
   13.4867  -14.8696   20.5624 O   0  0  0  0  0  0  0  0  0  0  0  0
   11.1601  -17.3131   23.9417 O   0  0  0  0  0  0  0  0  0  0  0  0
   12.0597  -16.2801   19.5489 O   0  0  0  0  0  0  0  0  0  0  0  0
  2  8  1  0
  2  1  1  6
  3  2  1  0
  4  3  1  0
  5  4  1  0
  6  5  1  0
  7  6  1  0
  8  9  2  0
 11 10  1  1
 12 11  1  0
 12  8  1  0
 13 11  1  0
 13 15  1  0
 14 13  2  0
 16 15  1  0
 16 17  1  1
 17 18  1  0
 18 22  1  0
 19 18  2  0
 20 16  1  0
 21 20  1  0
 23 20  2  0
M  END
$$$$
