KAD.pdb
     RDKit          3D

 23 22  0  0  1  0  0  0  0  0999 V2000
    9.1521  -12.1479   19.4044 N   0  0  0  0  0  0  0  0  0  0  0  0
    8.7857  -13.5412   19.2584 C   0  0  1  0  0  0  0  0  0  0  0  0
    7.8566  -13.7732   18.1022 C   0  0  0  0  0  0  0  0  0  0  0  0
    7.0713  -15.0275   18.1582 C   0  0  0  0  0  0  0  0  0  0  0  0
    7.3724  -16.0660   17.1462 C   0  0  0  0  0  0  0  0  0  0  0  0
    6.4252  -17.2359   17.1671 C   0  0  0  0  0  0  0  0  0  0  0  0
    6.6911  -18.1505   16.0725 N   0  0  0  0  0  0  0  0  0  0  0  0
    9.9601  -14.4472   19.2236 C   0  0  0  0  0  0  0  0  0  0  0  0
    9.7593  -15.6937   19.2160 O   0  0  0  0  0  0  0  0  0  0  0  0
   13.4880  -14.5653   18.2005 C   0  0  0  0  0  0  0  0  0  0  0  0
   12.4256  -14.9566   19.1959 C   0  0  2  0  0  0  0  0  0  0  0  0
   11.3118  -14.0301   19.1972 N   0  0  0  0  0  0  0  0  0  0  0  0
   13.0254  -15.0895   20.5520 C   0  0  0  0  0  0  0  0  0  0  0  0
   13.3132  -14.0486   21.1967 O   0  0  0  0  0  0  0  0  0  0  0  0
   13.2930  -16.3302   21.1630 N   0  0  0  0  0  0  0  0  0  0  0  0
   13.9407  -16.4746   22.4733 C   0  0  1  0  0  0  0  0  0  0  0  0
   13.6257  -17.9174   22.8861 C   0  0  0  0  0  0  0  0  0  0  0  0
   12.2313  -18.0925   23.3304 C   0  0  0  0  0  0  0  0  0  0  0  0
   11.5451  -17.1032   23.6874 O   0  0  0  0  0  0  0  0  0  0  0  0
   15.3998  -16.3578   22.2483 C   0  0  0  0  0  0  0  0  0  0  0  0
   16.2478  -16.1249   23.2993 O   0  0  0  0  0  0  0  0  0  0  0  0
   11.6633  -19.3631   23.3576 O   0  0  0  0  0  0  0  0  0  0  0  0
   15.9010  -16.4660   21.1047 O   0  0  0  0  0  0  0  0  0  0  0  0
  2  8  1  0
  2  1  1  6
  3  2  1  0
  4  3  1  0
  5  4  1  0
  6  5  1  0
  7  6  1  0
  8  9  2  0
 11 10  1  6
 12 11  1  0
 12  8  1  0
 13 11  1  0
 13 15  1  0
 14 13  2  0
 16 15  1  0
 16 17  1  6
 17 18  1  0
 18 22  1  0
 19 18  2  0
 20 16  1  0
 21 20  1  0
 23 20  2  0
M  END
$$$$
