KAD.pdb
     RDKit          3D

 23 22  0  0  1  0  0  0  0  0999 V2000
   -3.2344  -27.0336   29.2224 N   0  0  0  0  0  0  0  0  0  0  0  0
   -2.7915  -25.6564   29.2845 C   0  0  1  0  0  0  0  0  0  0  0  0
   -1.3040  -25.5234   29.1304 C   0  0  0  0  0  0  0  0  0  0  0  0
   -0.5040  -26.6383   29.6874 C   0  0  0  0  0  0  0  0  0  0  0  0
    0.9700  -26.4962   29.6672 C   0  0  0  0  0  0  0  0  0  0  0  0
    1.7085  -27.6828   30.2264 C   0  0  0  0  0  0  0  0  0  0  0  0
    2.7908  -28.0921   29.3509 N   0  0  0  0  0  0  0  0  0  0  0  0
   -3.5324  -24.7684   28.3551 C   0  0  0  0  0  0  0  0  0  0  0  0
   -3.3122  -23.5261   28.4048 O   0  0  0  0  0  0  0  0  0  0  0  0
   -5.6479  -25.0068   25.2493 C   0  0  0  0  0  0  0  0  0  0  0  0
   -5.1436  -24.2954   26.4791 C   0  0  2  0  0  0  0  0  0  0  0  0
   -4.4822  -25.1986   27.3988 N   0  0  0  0  0  0  0  0  0  0  0  0
   -6.2626  -23.5685   27.1394 C   0  0  0  0  0  0  0  0  0  0  0  0
   -6.8462  -22.6475   26.5124 O   0  0  0  0  0  0  0  0  0  0  0  0
   -6.7115  -23.8564   28.4432 N   0  0  0  0  0  0  0  0  0  0  0  0
   -7.8298  -23.1627   29.0956 C   0  0  1  0  0  0  0  0  0  0  0  0
   -8.4713  -24.2408   29.9776 C   0  0  0  0  0  0  0  0  0  0  0  0
   -9.5523  -23.7128   30.8291 C   0  0  0  0  0  0  0  0  0  0  0  0
  -10.3343  -22.8308   30.3960 O   0  0  0  0  0  0  0  0  0  0  0  0
   -7.2408  -22.1259   29.9737 C   0  0  0  0  0  0  0  0  0  0  0  0
   -7.9815  -21.0385   30.3573 O   0  0  0  0  0  0  0  0  0  0  0  0
   -9.7138  -24.1914   32.1263 O   0  0  0  0  0  0  0  0  0  0  0  0
   -6.0612  -22.2066   30.3893 O   0  0  0  0  0  0  0  0  0  0  0  0
  2  8  1  0
  2  1  1  6
  3  2  1  0
  4  3  1  0
  5  4  1  0
  6  5  1  0
  7  6  1  0
  8  9  2  0
 11 10  1  6
 12 11  1  0
 12  8  1  0
 13 11  1  0
 13 15  1  0
 14 13  2  0
 16 15  1  0
 16 17  1  1
 17 18  1  0
 18 22  1  0
 19 18  2  0
 20 16  1  0
 21 20  1  0
 23 20  2  0
M  END
$$$$
