KAD.pdb
     RDKit          3D

 23 22  0  0  1  0  0  0  0  0999 V2000
    7.3221  -18.0239   20.2751 N   0  0  0  0  0  0  0  0  0  0  0  0
    8.5375  -17.4022   19.7924 C   0  0  1  0  0  0  0  0  0  0  0  0
    8.5511  -15.9175   20.0143 C   0  0  0  0  0  0  0  0  0  0  0  0
    7.4742  -15.1622   19.3338 C   0  0  0  0  0  0  0  0  0  0  0  0
    7.4771  -13.6885   19.4814 C   0  0  0  0  0  0  0  0  0  0  0  0
    6.3930  -12.9919   18.7031 C   0  0  0  0  0  0  0  0  0  0  0  0
    6.4886  -11.5505   18.8384 N   0  0  0  0  0  0  0  0  0  0  0  0
    9.7655  -18.0567   20.3073 C   0  0  0  0  0  0  0  0  0  0  0  0
    9.7541  -18.5196   21.4819 O   0  0  0  0  0  0  0  0  0  0  0  0
   13.1414  -19.2432   19.0900 C   0  0  0  0  0  0  0  0  0  0  0  0
   12.1627  -18.8105   20.1519 C   0  0  2  0  0  0  0  0  0  0  0  0
   10.9718  -18.2114   19.5844 N   0  0  0  0  0  0  0  0  0  0  0  0
   12.8307  -17.8900   21.1126 C   0  0  0  0  0  0  0  0  0  0  0  0
   12.7127  -16.6483   20.9507 O   0  0  0  0  0  0  0  0  0  0  0  0
   13.5978  -18.3353   22.2070 N   0  0  0  0  0  0  0  0  0  0  0  0
   14.3237  -17.4389   23.1164 C   0  0  1  0  0  0  0  0  0  0  0  0
   14.4335  -18.2411   24.4188 C   0  0  0  0  0  0  0  0  0  0  0  0
   15.1520  -17.5122   25.4793 C   0  0  0  0  0  0  0  0  0  0  0  0
   15.6254  -16.3695   25.2617 O   0  0  0  0  0  0  0  0  0  0  0  0
   15.6832  -17.2643   22.5557 C   0  0  0  0  0  0  0  0  0  0  0  0
   16.4011  -16.1267   22.8170 O   0  0  0  0  0  0  0  0  0  0  0  0
   15.3115  -18.0895   26.7359 O   0  0  0  0  0  0  0  0  0  0  0  0
   16.2153  -18.1390   21.8327 O   0  0  0  0  0  0  0  0  0  0  0  0
  2  8  1  0
  2  1  1  1
  3  2  1  0
  4  3  1  0
  5  4  1  0
  6  5  1  0
  7  6  1  0
  8  9  2  0
 11 10  1  6
 12 11  1  0
 12  8  1  0
 13 11  1  0
 13 15  1  0
 14 13  2  0
 16 15  1  0
 16 17  1  1
 17 18  1  0
 18 22  1  0
 19 18  2  0
 20 16  1  0
 21 20  1  0
 23 20  2  0
M  END
$$$$
