KAD.pdb
     RDKit          3D

 23 22  0  0  1  0  0  0  0  0999 V2000
    7.3205  -15.3648   19.6436 N   0  0  0  0  0  0  0  0  0  0  0  0
    6.5448  -15.0594   20.8275 C   0  0  1  0  0  0  0  0  0  0  0  0
    5.3819  -15.9914   21.0092 C   0  0  0  0  0  0  0  0  0  0  0  0
    5.7334  -17.4146   21.2192 C   0  0  0  0  0  0  0  0  0  0  0  0
    4.6261  -18.3981   21.2153 C   0  0  0  0  0  0  0  0  0  0  0  0
    5.0737  -19.8266   21.3736 C   0  0  0  0  0  0  0  0  0  0  0  0
    3.9505  -20.7427   21.3064 N   0  0  0  0  0  0  0  0  0  0  0  0
    7.3758  -14.9554   22.0522 C   0  0  0  0  0  0  0  0  0  0  0  0
    8.4764  -15.5731   22.0876 O   0  0  0  0  0  0  0  0  0  0  0  0
    7.3109  -13.2468   25.4456 C   0  0  0  0  0  0  0  0  0  0  0  0
    7.8622  -14.1799   24.3976 C   0  0  2  0  0  0  0  0  0  0  0  0
    7.0379  -14.2104   23.2066 N   0  0  0  0  0  0  0  0  0  0  0  0
    8.0387  -15.5415   24.9732 C   0  0  0  0  0  0  0  0  0  0  0  0
    7.0206  -16.2427   25.2052 O   0  0  0  0  0  0  0  0  0  0  0  0
    9.2968  -16.0974   25.2771 N   0  0  0  0  0  0  0  0  0  0  0  0
    9.4793  -17.3729   25.9823 C   0  0  1  0  0  0  0  0  0  0  0  0
   10.4712  -18.1443   25.1032 C   0  0  0  0  0  0  0  0  0  0  0  0
   11.6775  -17.3611   24.7812 C   0  0  0  0  0  0  0  0  0  0  0  0
   11.8021  -16.1810   25.1923 O   0  0  0  0  0  0  0  0  0  0  0  0
   10.1371  -17.0623   27.2722 C   0  0  0  0  0  0  0  0  0  0  0  0
   10.3761  -18.0549   28.1863 O   0  0  0  0  0  0  0  0  0  0  0  0
   12.6917  -17.9279   24.0145 O   0  0  0  0  0  0  0  0  0  0  0  0
   10.4918  -15.8970   27.5674 O   0  0  0  0  0  0  0  0  0  0  0  0
  2  8  1  0
  2  1  1  6
  3  2  1  0
  4  3  1  0
  5  4  1  0
  6  5  1  0
  7  6  1  0
  8  9  2  0
 11 10  1  1
 12 11  1  0
 12  8  1  0
 13 11  1  0
 13 15  1  0
 14 13  2  0
 16 15  1  0
 16 17  1  6
 17 18  1  0
 18 22  1  0
 19 18  2  0
 20 16  1  0
 21 20  1  0
 23 20  2  0
M  END
$$$$
