KAD.pdb
     RDKit          3D

 23 22  0  0  1  0  0  0  0  0999 V2000
    8.8359  -16.9463   16.5226 N   0  0  0  0  0  0  0  0  0  0  0  0
    8.0812  -16.9577   17.7583 C   0  0  1  0  0  0  0  0  0  0  0  0
    8.1170  -18.2941   18.4415 C   0  0  0  0  0  0  0  0  0  0  0  0
    9.4584  -18.7567   18.8655 C   0  0  0  0  0  0  0  0  0  0  0  0
    9.5665  -20.1321   19.4041 C   0  0  0  0  0  0  0  0  0  0  0  0
   10.9678  -20.5367   19.7766 C   0  0  0  0  0  0  0  0  0  0  0  0
   11.1879  -20.4234   21.2063 N   0  0  0  0  0  0  0  0  0  0  0  0
    8.4536  -15.8509   18.6734 C   0  0  0  0  0  0  0  0  0  0  0  0
    9.6675  -15.5108   18.7448 O   0  0  0  0  0  0  0  0  0  0  0  0
    6.7539  -13.2511   20.8519 C   0  0  0  0  0  0  0  0  0  0  0  0
    7.9431  -13.9726   20.2705 C   0  0  2  0  0  0  0  0  0  0  0  0
    7.5514  -15.1280   19.4890 N   0  0  0  0  0  0  0  0  0  0  0  0
    8.8910  -14.3452   21.3563 C   0  0  0  0  0  0  0  0  0  0  0  0
    9.3836  -13.4377   22.0745 O   0  0  0  0  0  0  0  0  0  0  0  0
    9.2735  -15.6731   21.6295 N   0  0  0  0  0  0  0  0  0  0  0  0
   10.1364  -16.0618   22.7527 C   0  0  1  0  0  0  0  0  0  0  0  0
    9.6603  -17.4738   23.1151 C   0  0  0  0  0  0  0  0  0  0  0  0
   10.4449  -18.0781   24.2068 C   0  0  0  0  0  0  0  0  0  0  0  0
   10.4720  -19.3241   24.3607 O   0  0  0  0  0  0  0  0  0  0  0  0
   11.5171  -16.1521   22.2248 C   0  0  0  0  0  0  0  0  0  0  0  0
   12.5391  -15.4723   22.8340 O   0  0  0  0  0  0  0  0  0  0  0  0
   11.1646  -17.2663   25.0791 O   0  0  0  0  0  0  0  0  0  0  0  0
   11.7932  -16.8434   21.2165 O   0  0  0  0  0  0  0  0  0  0  0  0
  2  8  1  0
  2  1  1  6
  3  2  1  0
  4  3  1  0
  5  4  1  0
  6  5  1  0
  7  6  1  0
  8  9  2  0
 11 10  1  1
 12 11  1  0
 12  8  1  0
 13 11  1  0
 13 15  1  0
 14 13  2  0
 16 15  1  0
 16 17  1  6
 17 18  1  0
 18 22  1  0
 19 18  2  0
 20 16  1  0
 21 20  1  0
 23 20  2  0
M  END
$$$$
