KAD.pdb
     RDKit          3D

 23 22  0  0  1  0  0  0  0  0999 V2000
    9.1185  -19.9241   26.9763 N   0  0  0  0  0  0  0  0  0  0  0  0
    7.6781  -19.8086   26.8838 C   0  0  1  0  0  0  0  0  0  0  0  0
    7.0132  -19.8161   28.2298 C   0  0  0  0  0  0  0  0  0  0  0  0
    7.5852  -20.7599   29.2172 C   0  0  0  0  0  0  0  0  0  0  0  0
    8.7295  -20.2864   30.0294 C   0  0  0  0  0  0  0  0  0  0  0  0
    9.1307  -21.2290   31.1325 C   0  0  0  0  0  0  0  0  0  0  0  0
   10.1946  -20.6692   31.9449 N   0  0  0  0  0  0  0  0  0  0  0  0
    7.2426  -18.6609   26.0504 C   0  0  0  0  0  0  0  0  0  0  0  0
    6.0070  -18.4974   25.8487 O   0  0  0  0  0  0  0  0  0  0  0  0
    8.2770  -15.4073   24.6354 C   0  0  0  0  0  0  0  0  0  0  0  0
    7.6675  -16.7723   24.4405 C   0  0  2  0  0  0  0  0  0  0  0  0
    8.1061  -17.7145   25.4500 N   0  0  0  0  0  0  0  0  0  0  0  0
    7.9621  -17.2681   23.0679 C   0  0  0  0  0  0  0  0  0  0  0  0
    7.5722  -16.5953   22.0793 O   0  0  0  0  0  0  0  0  0  0  0  0
    8.6614  -18.4631   22.8089 N   0  0  0  0  0  0  0  0  0  0  0  0
    8.8449  -19.0295   21.4662 C   0  0  1  0  0  0  0  0  0  0  0  0
   10.2494  -19.6435   21.5112 C   0  0  0  0  0  0  0  0  0  0  0  0
   11.2487  -18.8361   20.7889 C   0  0  0  0  0  0  0  0  0  0  0  0
   10.9240  -17.7493   20.2498 O   0  0  0  0  0  0  0  0  0  0  0  0
    7.8577  -20.1238   21.3211 C   0  0  0  0  0  0  0  0  0  0  0  0
    7.6863  -20.7486   20.1135 O   0  0  0  0  0  0  0  0  0  0  0  0
   12.5664  -19.2761   20.6991 O   0  0  0  0  0  0  0  0  0  0  0  0
    7.1550  -20.5096   22.2845 O   0  0  0  0  0  0  0  0  0  0  0  0
  2  8  1  0
  2  1  1  1
  3  2  1  0
  4  3  1  0
  5  4  1  0
  6  5  1  0
  7  6  1  0
  8  9  2  0
 11 10  1  1
 12 11  1  0
 12  8  1  0
 13 11  1  0
 13 15  1  0
 14 13  2  0
 16 15  1  0
 16 17  1  1
 17 18  1  0
 18 22  1  0
 19 18  2  0
 20 16  1  0
 21 20  1  0
 23 20  2  0
M  END
$$$$
