DFR.pdb
     RDKit          3D

 31 31  0  0  1  0  0  0  0  0999 V2000
   29.5727  -22.6280  -16.8562 N   0  0  0  0  0  0  0  0  0  0  0  0
   28.6110  -21.5485  -16.7609 C   0  0  1  0  0  0  0  0  0  0  0  0
   27.8001  -21.5653  -18.0527 C   0  0  0  0  0  0  0  0  0  0  0  0
   28.2383  -20.4767  -18.9575 C   0  0  0  0  0  0  0  0  0  0  0  0
   29.3064  -19.8438  -18.8092 O   0  0  0  0  0  0  0  0  0  0  0  0
   27.7641  -21.7665  -15.5819 C   0  0  0  0  0  0  0  0  0  0  0  0
   27.2749  -22.9235  -15.3614 O   0  0  0  0  0  0  0  0  0  0  0  0
   27.4213  -20.1512  -20.0129 O   0  0  0  0  0  0  0  0  0  0  0  0
   27.4307  -20.7752  -14.6367 N   0  0  0  0  0  0  0  0  0  0  0  0
   26.6107  -21.0453  -13.5137 C   0  0  1  0  0  0  0  0  0  0  0  0
   26.9477  -20.2409  -12.2869 C   0  0  0  0  0  0  0  0  0  0  0  0
   28.1036  -20.7616  -11.5431 C   0  0  0  0  0  0  0  0  0  0  0  0
   29.3613  -20.5262  -12.1002 C   0  0  0  0  0  0  0  0  0  0  0  0
   30.5183  -20.9491  -11.5193 C   0  0  0  0  0  0  0  0  0  0  0  0
   30.4633  -21.6365  -10.3374 C   0  0  0  0  0  0  0  0  0  0  0  0
   29.2291  -21.8850   -9.7612 C   0  0  0  0  0  0  0  0  0  0  0  0
   28.0530  -21.4481  -10.3635 C   0  0  0  0  0  0  0  0  0  0  0  0
   25.1661  -20.8816  -13.7689 C   0  0  0  0  0  0  0  0  0  0  0  0
   24.7669  -19.8413  -14.3836 O   0  0  0  0  0  0  0  0  0  0  0  0
   17.6820  -23.1446  -10.7610 N   0  0  0  0  0  0  0  0  0  0  0  0
   17.3296  -22.7985  -12.0943 C   0  0  0  0  0  0  0  0  0  0  0  0
   16.1015  -22.6360  -12.3794 N   0  0  0  0  0  0  0  0  0  0  0  0
   18.2990  -22.6296  -13.1119 N   0  0  0  0  0  0  0  0  0  0  0  0
   19.6926  -22.8052  -12.7722 C   0  0  0  0  0  0  0  0  0  0  0  0
   20.5599  -22.6352  -14.0249 C   0  0  0  0  0  0  0  0  0  0  0  0
   22.0056  -22.8734  -13.7039 C   0  0  0  0  0  0  0  0  0  0  0  0
   22.7356  -21.5714  -13.6163 C   0  0  2  0  0  0  0  0  0  0  0  0
   24.1646  -21.7968  -13.3832 N   0  0  0  0  0  0  0  0  0  0  0  0
   22.2165  -20.7308  -12.5345 C   0  0  0  0  0  0  0  0  0  0  0  0
   22.6018  -20.7186  -11.3479 O   0  0  0  0  0  0  0  0  0  0  0  0
   21.1754  -19.8337  -12.8348 O   0  0  0  0  0  0  0  0  0  0  0  0
  2  1  1  6
  2  3  1  0
  3  4  1  0
  4  8  1  0
  5  4  2  0
  6  2  1  0
  6  7  2  0
  9  6  1  0
 10  9  1  0
 10 11  1  1
 11 12  1  0
 12 13  2  0
 12 17  1  0
 13 14  1  0
 14 15  2  0
 16 15  1  0
 17 16  2  0
 18 10  1  0
 19 18  2  0
 20 21  1  0
 21 22  2  0
 21 23  1  0
 24 23  1  0
 24 25  1  0
 25 26  1  0
 27 26  1  1
 27 29  1  0
 27 28  1  0
 28 18  1  0
 29 31  1  0
 30 29  2  0
M  END
$$$$
