DFR.pdb
     RDKit          3D

 31 31  0  0  1  0  0  0  0  0999 V2000
   28.1188   -9.2103  -20.6734 N   0  0  0  0  0  0  0  0  0  0  0  0
   27.1362   -8.3348  -20.0672 C   0  0  1  0  0  0  0  0  0  0  0  0
   26.2387   -7.8327  -21.1936 C   0  0  0  0  0  0  0  0  0  0  0  0
   25.3016   -6.8000  -20.6926 C   0  0  0  0  0  0  0  0  0  0  0  0
   25.2981   -6.3850  -19.5130 O   0  0  0  0  0  0  0  0  0  0  0  0
   26.3793   -9.0907  -19.0619 C   0  0  0  0  0  0  0  0  0  0  0  0
   25.8374  -10.1999  -19.3823 O   0  0  0  0  0  0  0  0  0  0  0  0
   24.3908   -6.2761  -21.5775 O   0  0  0  0  0  0  0  0  0  0  0  0
   26.1907   -8.6856  -17.7250 N   0  0  0  0  0  0  0  0  0  0  0  0
   25.5347   -9.5027  -16.7718 C   0  0  1  0  0  0  0  0  0  0  0  0
   26.3590   -9.8266  -15.5547 C   0  0  0  0  0  0  0  0  0  0  0  0
   27.3510  -10.8870  -15.7831 C   0  0  0  0  0  0  0  0  0  0  0  0
   26.9987  -12.1711  -15.3654 C   0  0  0  0  0  0  0  0  0  0  0  0
   27.8183  -13.2484  -15.5154 C   0  0  0  0  0  0  0  0  0  0  0  0
   29.0447  -13.0821  -16.0992 C   0  0  0  0  0  0  0  0  0  0  0  0
   29.4214  -11.8192  -16.5234 C   0  0  0  0  0  0  0  0  0  0  0  0
   28.5758  -10.7252  -16.3652 C   0  0  0  0  0  0  0  0  0  0  0  0
   24.2431   -8.9636  -16.3026 C   0  0  0  0  0  0  0  0  0  0  0  0
   24.1721   -7.7331  -15.9859 O   0  0  0  0  0  0  0  0  0  0  0  0
   16.5147  -10.5231  -18.3334 N   0  0  0  0  0  0  0  0  0  0  0  0
   16.8704  -11.3997  -17.2719 C   0  0  0  0  0  0  0  0  0  0  0  0
   16.2873  -12.5262  -17.1879 N   0  0  0  0  0  0  0  0  0  0  0  0
   17.8497  -11.0599  -16.3079 N   0  0  0  0  0  0  0  0  0  0  0  0
   18.3535   -9.7056  -16.2852 C   0  0  0  0  0  0  0  0  0  0  0  0
   19.4264   -9.5667  -15.1988 C   0  0  0  0  0  0  0  0  0  0  0  0
   20.7205  -10.1742  -15.6525 C   0  0  0  0  0  0  0  0  0  0  0  0
   21.7970   -9.1366  -15.6759 C   0  0  2  0  0  0  0  0  0  0  0  0
   23.0523   -9.7079  -16.1707 N   0  0  0  0  0  0  0  0  0  0  0  0
   22.0368   -8.5744  -14.3444 C   0  0  0  0  0  0  0  0  0  0  0  0
   22.9180   -8.9248  -13.5336 O   0  0  0  0  0  0  0  0  0  0  0  0
   21.2030   -7.5290  -13.9073 O   0  0  0  0  0  0  0  0  0  0  0  0
  2  1  1  6
  2  3  1  0
  3  4  1  0
  4  8  1  0
  5  4  2  0
  6  2  1  0
  6  7  2  0
  9  6  1  0
 10  9  1  0
 10 11  1  1
 11 12  1  0
 12 13  2  0
 12 17  1  0
 13 14  1  0
 14 15  2  0
 16 15  1  0
 17 16  2  0
 18 10  1  0
 19 18  2  0
 20 21  1  0
 21 22  2  0
 21 23  1  0
 24 23  1  0
 24 25  1  0
 25 26  1  0
 27 26  1  1
 27 29  1  0
 27 28  1  0
 28 18  1  0
 29 31  1  0
 30 29  2  0
M  END
$$$$
