DFR.pdb
     RDKit          3D

 31 31  0  0  1  0  0  0  0  0999 V2000
   32.3560  -32.3237  -16.5963 N   0  0  0  0  0  0  0  0  0  0  0  0
   32.1796  -32.2433  -18.0322 C   0  0  1  0  0  0  0  0  0  0  0  0
   31.3605  -33.4621  -18.4446 C   0  0  0  0  0  0  0  0  0  0  0  0
   32.1106  -34.7107  -18.1728 C   0  0  0  0  0  0  0  0  0  0  0  0
   33.2474  -34.9479  -18.6366 O   0  0  0  0  0  0  0  0  0  0  0  0
   31.4925  -30.9879  -18.3590 C   0  0  0  0  0  0  0  0  0  0  0  0
   30.9538  -30.3024  -17.4282 O   0  0  0  0  0  0  0  0  0  0  0  0
   31.5184  -35.6531  -17.3676 O   0  0  0  0  0  0  0  0  0  0  0  0
   31.3704  -30.4523  -19.6573 N   0  0  0  0  0  0  0  0  0  0  0  0
   30.7521  -29.2023  -19.9053 C   0  0  1  0  0  0  0  0  0  0  0  0
   31.5679  -28.2588  -20.7480 C   0  0  0  0  0  0  0  0  0  0  0  0
   32.8657  -27.9120  -20.1515 C   0  0  0  0  0  0  0  0  0  0  0  0
   32.8873  -26.8004  -19.3080 C   0  0  0  0  0  0  0  0  0  0  0  0
   34.0184  -26.3660  -18.6860 C   0  0  0  0  0  0  0  0  0  0  0  0
   35.1939  -27.0372  -18.8860 C   0  0  0  0  0  0  0  0  0  0  0  0
   35.2028  -28.1438  -19.7181 C   0  0  0  0  0  0  0  0  0  0  0  0
   34.0410  -28.5791  -20.3486 C   0  0  0  0  0  0  0  0  0  0  0  0
   29.4141  -29.3031  -20.5205 C   0  0  0  0  0  0  0  0  0  0  0  0
   29.0548  -30.4144  -21.0258 O   0  0  0  0  0  0  0  0  0  0  0  0
   22.5584  -32.7655  -19.1807 N   0  0  0  0  0  0  0  0  0  0  0  0
   23.6925  -32.9993  -20.0058 C   0  0  0  0  0  0  0  0  0  0  0  0
   24.0168  -34.1990  -20.2735 N   0  0  0  0  0  0  0  0  0  0  0  0
   24.4704  -31.9429  -20.5372 N   0  0  0  0  0  0  0  0  0  0  0  0
   24.1636  -30.5900  -20.1322 C   0  0  0  0  0  0  0  0  0  0  0  0
   24.9866  -29.5980  -20.9625 C   0  0  0  0  0  0  0  0  0  0  0  0
   26.3680  -29.4525  -20.3965 C   0  0  0  0  0  0  0  0  0  0  0  0
   27.1309  -28.4164  -21.1584 C   0  0  2  0  0  0  0  0  0  0  0  0
   28.4758  -28.2530  -20.6002 N   0  0  0  0  0  0  0  0  0  0  0  0
   26.4561  -27.1163  -21.1298 C   0  0  0  0  0  0  0  0  0  0  0  0
   26.8039  -26.1087  -20.4814 O   0  0  0  0  0  0  0  0  0  0  0  0
   25.2926  -26.9572  -21.9044 O   0  0  0  0  0  0  0  0  0  0  0  0
  2  1  1  1
  2  3  1  0
  3  4  1  0
  4  8  1  0
  5  4  2  0
  6  2  1  0
  6  7  2  0
  9  6  1  0
 10  9  1  0
 10 11  1  6
 11 12  1  0
 12 13  2  0
 12 17  1  0
 13 14  1  0
 14 15  2  0
 16 15  1  0
 17 16  2  0
 18 10  1  0
 19 18  2  0
 20 21  1  0
 21 22  2  0
 21 23  1  0
 24 23  1  0
 24 25  1  0
 25 26  1  0
 27 26  1  1
 27 29  1  0
 27 28  1  0
 28 18  1  0
 29 31  1  0
 30 29  2  0
M  END
$$$$
