DFR.pdb
     RDKit          3D

 31 31  0  0  1  0  0  0  0  0999 V2000
   39.0412   -5.4209  -11.5860 N   0  0  0  0  0  0  0  0  0  0  0  0
   40.0970   -6.4026  -11.7314 C   0  0  1  0  0  0  0  0  0  0  0  0
   41.3272   -5.6553  -12.2362 C   0  0  0  0  0  0  0  0  0  0  0  0
   41.2037   -5.3659  -13.6842 C   0  0  0  0  0  0  0  0  0  0  0  0
   42.1085   -4.8300  -14.3607 O   0  0  0  0  0  0  0  0  0  0  0  0
   40.3401   -7.0382  -10.4307 C   0  0  0  0  0  0  0  0  0  0  0  0
   40.3272   -6.3303   -9.3700 O   0  0  0  0  0  0  0  0  0  0  0  0
   40.0289   -5.7073  -14.3092 O   0  0  0  0  0  0  0  0  0  0  0  0
   40.5959   -8.4116  -10.2421 N   0  0  0  0  0  0  0  0  0  0  0  0
   40.7101   -8.9904   -8.9543 C   0  0  1  0  0  0  0  0  0  0  0  0
   39.5973   -9.9381   -8.5950 C   0  0  0  0  0  0  0  0  0  0  0  0
   38.5242   -9.3121   -7.8093 C   0  0  0  0  0  0  0  0  0  0  0  0
   37.6495   -8.4752   -8.5038 C   0  0  0  0  0  0  0  0  0  0  0  0
   36.6097   -7.8315   -7.9044 C   0  0  0  0  0  0  0  0  0  0  0  0
   36.3990   -8.0015   -6.5631 C   0  0  0  0  0  0  0  0  0  0  0  0
   37.2511   -8.8260   -5.8481 C   0  0  0  0  0  0  0  0  0  0  0  0
   38.3106   -9.4791   -6.4708 C   0  0  0  0  0  0  0  0  0  0  0  0
   41.9860   -9.6951   -8.7212 C   0  0  0  0  0  0  0  0  0  0  0  0
   42.4117  -10.5006   -9.6098 O   0  0  0  0  0  0  0  0  0  0  0  0
   47.8798  -11.7978   -3.1741 N   0  0  0  0  0  0  0  0  0  0  0  0
   48.7055  -11.2846   -4.2118 C   0  0  0  0  0  0  0  0  0  0  0  0
   49.8233  -11.8463   -4.4377 N   0  0  0  0  0  0  0  0  0  0  0  0
   48.3247  -10.1716   -4.9991 N   0  0  0  0  0  0  0  0  0  0  0  0
   46.9503   -9.7282   -4.9465 C   0  0  0  0  0  0  0  0  0  0  0  0
   46.1613  -10.3361   -6.1121 C   0  0  0  0  0  0  0  0  0  0  0  0
   44.7880   -9.7381   -6.1904 C   0  0  0  0  0  0  0  0  0  0  0  0
   44.0699  -10.2522   -7.3971 C   0  0  2  0  0  0  0  0  0  0  0  0
   42.7948   -9.5524   -7.5745 N   0  0  0  0  0  0  0  0  0  0  0  0
   43.8000  -11.6886   -7.2960 C   0  0  0  0  0  0  0  0  0  0  0  0
   42.8129  -12.2266   -6.7549 O   0  0  0  0  0  0  0  0  0  0  0  0
   44.7328  -12.5786   -7.8590 O   0  0  0  0  0  0  0  0  0  0  0  0
  2  1  1  1
  2  3  1  0
  3  4  1  0
  4  8  1  0
  5  4  2  0
  6  2  1  0
  6  7  2  0
  9  6  1  0
 10  9  1  0
 10 11  1  6
 11 12  1  0
 12 13  2  0
 12 17  1  0
 13 14  1  0
 14 15  2  0
 16 15  1  0
 17 16  2  0
 18 10  1  0
 19 18  2  0
 20 21  1  0
 21 22  2  0
 21 23  1  0
 24 23  1  0
 24 25  1  0
 25 26  1  0
 27 26  1  1
 27 29  1  0
 27 28  1  0
 28 18  1  0
 29 31  1  0
 30 29  2  0
M  END
$$$$
