DFR.pdb
     RDKit          3D

 31 31  0  0  1  0  0  0  0  0999 V2000
   27.7635  -22.8513  -16.8026 N   0  0  0  0  0  0  0  0  0  0  0  0
   27.4636  -21.5155  -16.3279 C   0  0  1  0  0  0  0  0  0  0  0  0
   26.6137  -20.8462  -17.4032 C   0  0  0  0  0  0  0  0  0  0  0  0
   27.4466  -19.9593  -18.2490 C   0  0  0  0  0  0  0  0  0  0  0  0
   28.4138  -19.2979  -17.8124 O   0  0  0  0  0  0  0  0  0  0  0  0
   26.7491  -21.6126  -15.0493 C   0  0  0  0  0  0  0  0  0  0  0  0
   25.8331  -22.4880  -14.9030 O   0  0  0  0  0  0  0  0  0  0  0  0
   27.1324  -19.8638  -19.5829 O   0  0  0  0  0  0  0  0  0  0  0  0
   26.9935  -20.7950  -13.9273 N   0  0  0  0  0  0  0  0  0  0  0  0
   26.1358  -20.7804  -12.8001 C   0  0  1  0  0  0  0  0  0  0  0  0
   26.5907  -19.8819  -11.6814 C   0  0  0  0  0  0  0  0  0  0  0  0
   25.9469  -20.1768  -10.3933 C   0  0  0  0  0  0  0  0  0  0  0  0
   26.7893  -20.2898   -9.2864 C   0  0  0  0  0  0  0  0  0  0  0  0
   26.3306  -20.5580   -8.0324 C   0  0  0  0  0  0  0  0  0  0  0  0
   24.9877  -20.7271   -7.8312 C   0  0  0  0  0  0  0  0  0  0  0  0
   24.1277  -20.6209   -8.9111 C   0  0  0  0  0  0  0  0  0  0  0  0
   24.6073  -20.3464  -10.1884 C   0  0  0  0  0  0  0  0  0  0  0  0
   24.7367  -20.4278  -13.1117 C   0  0  0  0  0  0  0  0  0  0  0  0
   24.4995  -19.3223  -13.6958 O   0  0  0  0  0  0  0  0  0  0  0  0
   20.4009  -22.1070  -18.0101 N   0  0  0  0  0  0  0  0  0  0  0  0
   19.1047  -21.8466  -17.4870 C   0  0  0  0  0  0  0  0  0  0  0  0
   18.2803  -21.1880  -18.1961 N   0  0  0  0  0  0  0  0  0  0  0  0
   18.7033  -22.2951  -16.2059 N   0  0  0  0  0  0  0  0  0  0  0  0
   19.7035  -22.8592  -15.3285 C   0  0  0  0  0  0  0  0  0  0  0  0
   20.2570  -21.7709  -14.4012 C   0  0  0  0  0  0  0  0  0  0  0  0
   21.7057  -22.0177  -14.1014 C   0  0  0  0  0  0  0  0  0  0  0  0
   22.2561  -20.9061  -13.2663 C   0  0  2  0  0  0  0  0  0  0  0  0
   23.6125  -21.2254  -12.8131 N   0  0  0  0  0  0  0  0  0  0  0  0
   21.4227  -20.6488  -12.0892 C   0  0  0  0  0  0  0  0  0  0  0  0
   20.2401  -20.2512  -12.0842 O   0  0  0  0  0  0  0  0  0  0  0  0
   21.9871  -20.8639  -10.8187 O   0  0  0  0  0  0  0  0  0  0  0  0
  2  1  1  6
  2  3  1  0
  3  4  1  0
  4  8  1  0
  5  4  2  0
  6  2  1  0
  6  7  2  0
  9  6  1  0
 10  9  1  0
 10 11  1  1
 11 12  1  0
 12 13  2  0
 12 17  1  0
 13 14  1  0
 14 15  2  0
 16 15  1  0
 17 16  2  0
 18 10  1  0
 19 18  2  0
 20 21  1  0
 21 22  2  0
 21 23  1  0
 24 23  1  0
 24 25  1  0
 25 26  1  0
 27 26  1  1
 27 29  1  0
 27 28  1  0
 28 18  1  0
 29 31  1  0
 30 29  2  0
M  END
$$$$
