DFR.pdb
     RDKit          3D

 31 31  0  0  1  0  0  0  0  0999 V2000
   28.1120  -21.4871  -18.1648 N   0  0  0  0  0  0  0  0  0  0  0  0
   27.5307  -20.3360  -17.5041 C   0  0  1  0  0  0  0  0  0  0  0  0
   26.5059  -19.7458  -18.4675 C   0  0  0  0  0  0  0  0  0  0  0  0
   27.1829  -19.0623  -19.5945 C   0  0  0  0  0  0  0  0  0  0  0  0
   28.1907  -18.3352  -19.4557 O   0  0  0  0  0  0  0  0  0  0  0  0
   26.9108  -20.7703  -16.2463 C   0  0  0  0  0  0  0  0  0  0  0  0
   26.5047  -21.9732  -16.1252 O   0  0  0  0  0  0  0  0  0  0  0  0
   26.6694  -19.2420  -20.8559 O   0  0  0  0  0  0  0  0  0  0  0  0
   26.7169  -19.9466  -15.1189 N   0  0  0  0  0  0  0  0  0  0  0  0
   26.1263  -20.4258  -13.9239 C   0  0  1  0  0  0  0  0  0  0  0  0
   26.5505  -19.6919  -12.6802 C   0  0  0  0  0  0  0  0  0  0  0  0
   26.0874  -20.3262  -11.4378 C   0  0  0  0  0  0  0  0  0  0  0  0
   24.9264  -19.8040  -10.8660 C   0  0  0  0  0  0  0  0  0  0  0  0
   24.3826  -20.2941   -9.7175 C   0  0  0  0  0  0  0  0  0  0  0  0
   24.9886  -21.3444   -9.0834 C   0  0  0  0  0  0  0  0  0  0  0  0
   26.1422  -21.8830   -9.6275 C   0  0  0  0  0  0  0  0  0  0  0  0
   26.6892  -21.3743  -10.8018 C   0  0  0  0  0  0  0  0  0  0  0  0
   24.6505  -20.4451  -13.9465 C   0  0  0  0  0  0  0  0  0  0  0  0
   24.0282  -19.3678  -14.2142 O   0  0  0  0  0  0  0  0  0  0  0  0
   17.6479  -25.1511  -12.2335 N   0  0  0  0  0  0  0  0  0  0  0  0
   17.3874  -24.6953  -13.5549 C   0  0  0  0  0  0  0  0  0  0  0  0
   16.1819  -24.6318  -13.9532 N   0  0  0  0  0  0  0  0  0  0  0  0
   18.4239  -24.3112  -14.4392 N   0  0  0  0  0  0  0  0  0  0  0  0
   19.7846  -24.3229  -13.9526 C   0  0  0  0  0  0  0  0  0  0  0  0
   20.3927  -22.9205  -14.0711 C   0  0  0  0  0  0  0  0  0  0  0  0
   21.8233  -22.9244  -13.6206 C   0  0  0  0  0  0  0  0  0  0  0  0
   22.3846  -21.5394  -13.6743 C   0  0  2  0  0  0  0  0  0  0  0  0
   23.8492  -21.5776  -13.6919 N   0  0  0  0  0  0  0  0  0  0  0  0
   21.9556  -20.7361  -12.5267 C   0  0  0  0  0  0  0  0  0  0  0  0
   22.5533  -20.6094  -11.4388 O   0  0  0  0  0  0  0  0  0  0  0  0
   20.7486  -20.0214  -12.6331 O   0  0  0  0  0  0  0  0  0  0  0  0
  2  1  1  6
  2  3  1  0
  3  4  1  0
  4  8  1  0
  5  4  2  0
  6  2  1  0
  6  7  2  0
  9  6  1  0
 10  9  1  0
 10 11  1  1
 11 12  1  0
 12 13  2  0
 12 17  1  0
 13 14  1  0
 14 15  2  0
 16 15  1  0
 17 16  2  0
 18 10  1  0
 19 18  2  0
 20 21  1  0
 21 22  2  0
 21 23  1  0
 24 23  1  0
 24 25  1  0
 25 26  1  0
 27 26  1  1
 27 29  1  0
 27 28  1  0
 28 18  1  0
 29 31  1  0
 30 29  2  0
M  END
$$$$
