DFR.pdb
     RDKit          3D

 31 31  0  0  1  0  0  0  0  0999 V2000
   26.7326  -26.6218  -19.9306 N   0  0  0  0  0  0  0  0  0  0  0  0
   25.6661  -26.7320  -18.9561 C   0  0  1  0  0  0  0  0  0  0  0  0
   24.3744  -26.3487  -19.6711 C   0  0  0  0  0  0  0  0  0  0  0  0
   24.2520  -24.8755  -19.7725 C   0  0  0  0  0  0  0  0  0  0  0  0
   23.8287  -24.2864  -20.7910 O   0  0  0  0  0  0  0  0  0  0  0  0
   25.6220  -28.1094  -18.4505 C   0  0  0  0  0  0  0  0  0  0  0  0
   25.2276  -29.0504  -19.2158 O   0  0  0  0  0  0  0  0  0  0  0  0
   24.6260  -24.1239  -18.6850 O   0  0  0  0  0  0  0  0  0  0  0  0
   25.9902  -28.4998  -17.1470 N   0  0  0  0  0  0  0  0  0  0  0  0
   25.9552  -29.8510  -16.7232 C   0  0  1  0  0  0  0  0  0  0  0  0
   27.2743  -30.3861  -16.2341 C   0  0  0  0  0  0  0  0  0  0  0  0
   28.2802  -30.5277  -17.2964 C   0  0  0  0  0  0  0  0  0  0  0  0
   29.1618  -29.4594  -17.4672 C   0  0  0  0  0  0  0  0  0  0  0  0
   30.1441  -29.4547  -18.4105 C   0  0  0  0  0  0  0  0  0  0  0  0
   30.2870  -30.5370  -19.2355 C   0  0  0  0  0  0  0  0  0  0  0  0
   29.4265  -31.6118  -19.0894 C   0  0  0  0  0  0  0  0  0  0  0  0
   28.4261  -31.6060  -18.1219 C   0  0  0  0  0  0  0  0  0  0  0  0
   24.9488  -30.1295  -15.6798 C   0  0  0  0  0  0  0  0  0  0  0  0
   24.8247  -29.3097  -14.7144 O   0  0  0  0  0  0  0  0  0  0  0  0
   20.8364  -28.1024  -10.5466 N   0  0  0  0  0  0  0  0  0  0  0  0
   20.3471  -29.4301  -10.4066 C   0  0  0  0  0  0  0  0  0  0  0  0
   19.3149  -29.6290   -9.6916 N   0  0  0  0  0  0  0  0  0  0  0  0
   20.9700  -30.5347  -11.0354 N   0  0  0  0  0  0  0  0  0  0  0  0
   21.8768  -30.2822  -12.1319 C   0  0  0  0  0  0  0  0  0  0  0  0
   21.1452  -30.4670  -13.4665 C   0  0  0  0  0  0  0  0  0  0  0  0
   22.0971  -30.3212  -14.6164 C   0  0  0  0  0  0  0  0  0  0  0  0
   23.0682  -31.4583  -14.6292 C   0  0  2  0  0  0  0  0  0  0  0  0
   24.0919  -31.2497  -15.6566 N   0  0  0  0  0  0  0  0  0  0  0  0
   22.4023  -32.7367  -14.8914 C   0  0  0  0  0  0  0  0  0  0  0  0
   22.4884  -33.4245  -15.9288 O   0  0  0  0  0  0  0  0  0  0  0  0
   21.5735  -33.2695  -13.8873 O   0  0  0  0  0  0  0  0  0  0  0  0
  2  1  1  6
  2  3  1  0
  3  4  1  0
  4  8  1  0
  5  4  2  0
  6  2  1  0
  6  7  2  0
  9  6  1  0
 10  9  1  0
 10 11  1  1
 11 12  1  0
 12 13  2  0
 12 17  1  0
 13 14  1  0
 14 15  2  0
 16 15  1  0
 17 16  2  0
 18 10  1  0
 19 18  2  0
 20 21  1  0
 21 22  2  0
 21 23  1  0
 24 23  1  0
 24 25  1  0
 25 26  1  0
 27 26  1  6
 27 29  1  0
 27 28  1  0
 28 18  1  0
 29 31  1  0
 30 29  2  0
M  END
$$$$
