DFR.pdb
     RDKit          3D

 31 31  0  0  1  0  0  0  0  0999 V2000
   27.1394  -21.9068  -13.7002 N   0  0  0  0  0  0  0  0  0  0  0  0
   27.0642  -20.6214  -13.0358 C   0  0  1  0  0  0  0  0  0  0  0  0
   25.8721  -19.8837  -13.6368 C   0  0  0  0  0  0  0  0  0  0  0  0
   26.1104  -19.5874  -15.0689 C   0  0  0  0  0  0  0  0  0  0  0  0
   25.2373  -19.7154  -15.9549 O   0  0  0  0  0  0  0  0  0  0  0  0
   26.9008  -20.8387  -11.5932 C   0  0  0  0  0  0  0  0  0  0  0  0
   26.1521  -21.7841  -11.1781 O   0  0  0  0  0  0  0  0  0  0  0  0
   27.3601  -19.1497  -15.4347 O   0  0  0  0  0  0  0  0  0  0  0  0
   27.5201  -20.0678  -10.5885 N   0  0  0  0  0  0  0  0  0  0  0  0
   27.3173  -20.3183   -9.2092 C   0  0  1  0  0  0  0  0  0  0  0  0
   28.2856  -19.6132   -8.2978 C   0  0  0  0  0  0  0  0  0  0  0  0
   28.1104  -19.9541   -6.8788 C   0  0  0  0  0  0  0  0  0  0  0  0
   27.7032  -18.9200   -6.0346 C   0  0  0  0  0  0  0  0  0  0  0  0
   27.4999  -19.0925   -4.6990 C   0  0  0  0  0  0  0  0  0  0  0  0
   27.6992  -20.3273   -4.1440 C   0  0  0  0  0  0  0  0  0  0  0  0
   28.1035  -21.3723   -4.9572 C   0  0  0  0  0  0  0  0  0  0  0  0
   28.3083  -21.1849   -6.3210 C   0  0  0  0  0  0  0  0  0  0  0  0
   25.9545  -20.0084   -8.7342 C   0  0  0  0  0  0  0  0  0  0  0  0
   25.5537  -18.8010   -8.7693 O   0  0  0  0  0  0  0  0  0  0  0  0
   20.4681  -21.4884  -13.6205 N   0  0  0  0  0  0  0  0  0  0  0  0
   21.8436  -21.6942  -13.3248 C   0  0  0  0  0  0  0  0  0  0  0  0
   22.5522  -22.3594  -14.1443 N   0  0  0  0  0  0  0  0  0  0  0  0
   22.4480  -21.1843  -12.1508 N   0  0  0  0  0  0  0  0  0  0  0  0
   21.6538  -20.3595  -11.2692 C   0  0  0  0  0  0  0  0  0  0  0  0
   22.4960  -19.9225  -10.0649 C   0  0  0  0  0  0  0  0  0  0  0  0
   22.7953  -21.0928   -9.1758 C   0  0  0  0  0  0  0  0  0  0  0  0
   23.6181  -20.6549   -8.0065 C   0  0  2  0  0  0  0  0  0  0  0  0
   25.0347  -20.9530   -8.2331 N   0  0  0  0  0  0  0  0  0  0  0  0
   23.1972  -21.3171   -6.7693 C   0  0  0  0  0  0  0  0  0  0  0  0
   23.7281  -22.3134   -6.2379 O   0  0  0  0  0  0  0  0  0  0  0  0
   22.0819  -20.7980   -6.0870 O   0  0  0  0  0  0  0  0  0  0  0  0
  2  1  1  6
  2  3  1  0
  3  4  1  0
  4  8  1  0
  5  4  2  0
  6  2  1  0
  6  7  2  0
  9  6  1  0
 10  9  1  0
 10 11  1  1
 11 12  1  0
 12 13  2  0
 12 17  1  0
 13 14  1  0
 14 15  2  0
 16 15  1  0
 17 16  2  0
 18 10  1  0
 19 18  2  0
 20 21  1  0
 21 22  2  0
 21 23  1  0
 24 23  1  0
 24 25  1  0
 25 26  1  0
 27 26  1  6
 27 29  1  0
 27 28  1  0
 28 18  1  0
 29 31  1  0
 30 29  2  0
M  END
$$$$
