DFR.pdb
     RDKit          3D

 31 31  0  0  1  0  0  0  0  0999 V2000
   28.8725  -20.8580  -14.6678 N   0  0  0  0  0  0  0  0  0  0  0  0
   27.9604  -19.8738  -14.1210 C   0  0  1  0  0  0  0  0  0  0  0  0
   27.2931  -19.1845  -15.3068 C   0  0  0  0  0  0  0  0  0  0  0  0
   28.2670  -18.3348  -16.0316 C   0  0  0  0  0  0  0  0  0  0  0  0
   28.9890  -17.4811  -15.4718 O   0  0  0  0  0  0  0  0  0  0  0  0
   26.9820  -20.5542  -13.2638 C   0  0  0  0  0  0  0  0  0  0  0  0
   26.5431  -21.7045  -13.5968 O   0  0  0  0  0  0  0  0  0  0  0  0
   28.3759  -18.4998  -17.3910 O   0  0  0  0  0  0  0  0  0  0  0  0
   26.4652  -20.0310  -12.0612 N   0  0  0  0  0  0  0  0  0  0  0  0
   25.4713  -20.7034  -11.3085 C   0  0  1  0  0  0  0  0  0  0  0  0
   25.3612  -20.2526   -9.8766 C   0  0  0  0  0  0  0  0  0  0  0  0
   26.6393  -20.2846   -9.1515 C   0  0  0  0  0  0  0  0  0  0  0  0
   27.5490  -21.2714   -9.5340 C   0  0  0  0  0  0  0  0  0  0  0  0
   28.7711  -21.4168   -8.9507 C   0  0  0  0  0  0  0  0  0  0  0  0
   29.1391  -20.5666   -7.9436 C   0  0  0  0  0  0  0  0  0  0  0  0
   28.2568  -19.5778   -7.5427 C   0  0  0  0  0  0  0  0  0  0  0  0
   27.0104  -19.4381   -8.1460 C   0  0  0  0  0  0  0  0  0  0  0  0
   24.1203  -20.6382  -11.8996 C   0  0  0  0  0  0  0  0  0  0  0  0
   23.6729  -19.5096  -12.2813 O   0  0  0  0  0  0  0  0  0  0  0  0
   19.2362  -26.6028  -12.2212 N   0  0  0  0  0  0  0  0  0  0  0  0
   18.1668  -25.6674  -12.2766 C   0  0  0  0  0  0  0  0  0  0  0  0
   17.1219  -25.8921  -11.5884 N   0  0  0  0  0  0  0  0  0  0  0  0
   18.2273  -24.4975  -13.0711 N   0  0  0  0  0  0  0  0  0  0  0  0
   19.4155  -24.2599  -13.8586 C   0  0  0  0  0  0  0  0  0  0  0  0
   19.9860  -22.8738  -13.5362 C   0  0  0  0  0  0  0  0  0  0  0  0
   21.3455  -22.9929  -12.9140 C   0  0  0  0  0  0  0  0  0  0  0  0
   21.9405  -21.6360  -12.7114 C   0  0  2  0  0  0  0  0  0  0  0  0
   23.2604  -21.7409  -12.0837 N   0  0  0  0  0  0  0  0  0  0  0  0
   21.0913  -20.7925  -11.8667 C   0  0  0  0  0  0  0  0  0  0  0  0
   21.1506  -20.6788  -10.6256 O   0  0  0  0  0  0  0  0  0  0  0  0
   20.0969  -20.0182  -12.4917 O   0  0  0  0  0  0  0  0  0  0  0  0
  2  1  1  6
  2  3  1  0
  3  4  1  0
  4  8  1  0
  5  4  2  0
  6  2  1  0
  6  7  2  0
  9  6  1  0
 10  9  1  0
 10 11  1  1
 11 12  1  0
 12 13  2  0
 12 17  1  0
 13 14  1  0
 14 15  2  0
 16 15  1  0
 17 16  2  0
 18 10  1  0
 19 18  2  0
 20 21  1  0
 21 22  2  0
 21 23  1  0
 24 23  1  0
 24 25  1  0
 25 26  1  0
 27 26  1  1
 27 29  1  0
 27 28  1  0
 28 18  1  0
 29 31  1  0
 30 29  2  0
M  END
$$$$
