DFR.pdb
     RDKit          3D

 31 31  0  0  1  0  0  0  0  0999 V2000
   27.4131  -25.6217  -16.8933 N   0  0  0  0  0  0  0  0  0  0  0  0
   26.8505  -24.3065  -17.1239 C   0  0  1  0  0  0  0  0  0  0  0  0
   25.8554  -24.4478  -18.2711 C   0  0  0  0  0  0  0  0  0  0  0  0
   26.5663  -24.6088  -19.5612 C   0  0  0  0  0  0  0  0  0  0  0  0
   27.6538  -24.0507  -19.8244 O   0  0  0  0  0  0  0  0  0  0  0  0
   26.2010  -23.8426  -15.8918 C   0  0  0  0  0  0  0  0  0  0  0  0
   25.5161  -24.6605  -15.1929 O   0  0  0  0  0  0  0  0  0  0  0  0
   25.9931  -25.4158  -20.5137 O   0  0  0  0  0  0  0  0  0  0  0  0
   26.2689  -22.5257  -15.3937 N   0  0  0  0  0  0  0  0  0  0  0  0
   25.6484  -22.1428  -14.1793 C   0  0  1  0  0  0  0  0  0  0  0  0
   26.2993  -20.9757  -13.4867 C   0  0  0  0  0  0  0  0  0  0  0  0
   25.7545  -20.7096  -12.1477 C   0  0  0  0  0  0  0  0  0  0  0  0
   24.6496  -19.8596  -12.0815 C   0  0  0  0  0  0  0  0  0  0  0  0
   24.0414  -19.5273  -10.9091 C   0  0  0  0  0  0  0  0  0  0  0  0
   24.5220  -20.0405   -9.7351 C   0  0  0  0  0  0  0  0  0  0  0  0
   25.6173  -20.8866   -9.7700 C   0  0  0  0  0  0  0  0  0  0  0  0
   26.2311  -21.2195  -10.9738 C   0  0  0  0  0  0  0  0  0  0  0  0
   24.2100  -21.8370  -14.3075 C   0  0  0  0  0  0  0  0  0  0  0  0
   23.8467  -20.9346  -15.1281 O   0  0  0  0  0  0  0  0  0  0  0  0
   18.3999  -27.6151  -14.7563 N   0  0  0  0  0  0  0  0  0  0  0  0
   19.7429  -27.4333  -14.3260 C   0  0  0  0  0  0  0  0  0  0  0  0
   20.3922  -28.4424  -13.9063 N   0  0  0  0  0  0  0  0  0  0  0  0
   20.3787  -26.1689  -14.3494 N   0  0  0  0  0  0  0  0  0  0  0  0
   19.6892  -25.0622  -14.9724 C   0  0  0  0  0  0  0  0  0  0  0  0
   20.6115  -23.8388  -15.0294 C   0  0  0  0  0  0  0  0  0  0  0  0
   20.9016  -23.3302  -13.6485 C   0  0  0  0  0  0  0  0  0  0  0  0
   21.7636  -22.1103  -13.7188 C   0  0  2  0  0  0  0  0  0  0  0  0
   23.1776  -22.4705  -13.5849 N   0  0  0  0  0  0  0  0  0  0  0  0
   21.4285  -21.1486  -12.6657 C   0  0  0  0  0  0  0  0  0  0  0  0
   20.8462  -20.0548  -12.8113 O   0  0  0  0  0  0  0  0  0  0  0  0
   21.7876  -21.4639  -11.3426 O   0  0  0  0  0  0  0  0  0  0  0  0
  2  1  1  1
  2  3  1  0
  3  4  1  0
  4  8  1  0
  5  4  2  0
  6  2  1  0
  6  7  2  0
  9  6  1  0
 10  9  1  0
 10 11  1  6
 11 12  1  0
 12 13  2  0
 12 17  1  0
 13 14  1  0
 14 15  2  0
 16 15  1  0
 17 16  2  0
 18 10  1  0
 19 18  2  0
 20 21  1  0
 21 22  2  0
 21 23  1  0
 24 23  1  0
 24 25  1  0
 25 26  1  0
 27 26  1  1
 27 29  1  0
 27 28  1  0
 28 18  1  0
 29 31  1  0
 30 29  2  0
M  END
$$$$
