DFR.pdb
     RDKit          3D

 31 31  0  0  1  0  0  0  0  0999 V2000
   28.0553  -22.5886  -16.2429 N   0  0  0  0  0  0  0  0  0  0  0  0
   28.2133  -21.2734  -15.6558 C   0  0  1  0  0  0  0  0  0  0  0  0
   27.2141  -20.3563  -16.3538 C   0  0  0  0  0  0  0  0  0  0  0  0
   27.6574  -20.0581  -17.7359 C   0  0  0  0  0  0  0  0  0  0  0  0
   28.8146  -19.6817  -18.0236 O   0  0  0  0  0  0  0  0  0  0  0  0
   27.9581  -21.3611  -14.2128 C   0  0  0  0  0  0  0  0  0  0  0  0
   26.9957  -22.0801  -13.7846 O   0  0  0  0  0  0  0  0  0  0  0  0
   26.7419  -20.2051  -18.7495 O   0  0  0  0  0  0  0  0  0  0  0  0
   28.7091  -20.6974  -13.2216 N   0  0  0  0  0  0  0  0  0  0  0  0
   28.3642  -20.7498  -11.8487 C   0  0  1  0  0  0  0  0  0  0  0  0
   29.3357  -20.0534  -10.9340 C   0  0  0  0  0  0  0  0  0  0  0  0
   28.9033  -20.0267   -9.5295 C   0  0  0  0  0  0  0  0  0  0  0  0
   29.2560  -21.1273   -8.7472 C   0  0  0  0  0  0  0  0  0  0  0  0
   28.9241  -21.2358   -7.4308 C   0  0  0  0  0  0  0  0  0  0  0  0
   28.2135  -20.2306   -6.8332 C   0  0  0  0  0  0  0  0  0  0  0  0
   27.8495  -19.1262   -7.5847 C   0  0  0  0  0  0  0  0  0  0  0  0
   28.1941  -19.0257   -8.9293 C   0  0  0  0  0  0  0  0  0  0  0  0
   27.0170  -20.2284  -11.5453 C   0  0  0  0  0  0  0  0  0  0  0  0
   26.6928  -19.0783  -11.9831 O   0  0  0  0  0  0  0  0  0  0  0  0
   19.9935  -21.5551  -14.8132 N   0  0  0  0  0  0  0  0  0  0  0  0
   21.2980  -21.0009  -14.9258 C   0  0  0  0  0  0  0  0  0  0  0  0
   21.8309  -20.9210  -16.0772 N   0  0  0  0  0  0  0  0  0  0  0  0
   22.0210  -20.5369  -13.8008 N   0  0  0  0  0  0  0  0  0  0  0  0
   21.4141  -20.6556  -12.4947 C   0  0  0  0  0  0  0  0  0  0  0  0
   22.3994  -20.1872  -11.4175 C   0  0  0  0  0  0  0  0  0  0  0  0
   23.7517  -20.7983  -11.6356 C   0  0  0  0  0  0  0  0  0  0  0  0
   24.6920  -20.3688  -10.5550 C   0  0  2  0  0  0  0  0  0  0  0  0
   26.0334  -20.9069  -10.7958 N   0  0  0  0  0  0  0  0  0  0  0  0
   24.2423  -20.8183   -9.2352 C   0  0  0  0  0  0  0  0  0  0  0  0
   24.7713  -21.6979   -8.5258 O   0  0  0  0  0  0  0  0  0  0  0  0
   23.0981  -20.2132   -8.6841 O   0  0  0  0  0  0  0  0  0  0  0  0
  2  1  1  6
  2  3  1  0
  3  4  1  0
  4  8  1  0
  5  4  2  0
  6  2  1  0
  6  7  2  0
  9  6  1  0
 10  9  1  0
 10 11  1  1
 11 12  1  0
 12 13  2  0
 12 17  1  0
 13 14  1  0
 14 15  2  0
 16 15  1  0
 17 16  2  0
 18 10  1  0
 19 18  2  0
 20 21  1  0
 21 22  2  0
 21 23  1  0
 24 23  1  0
 24 25  1  0
 25 26  1  0
 27 26  1  6
 27 29  1  0
 27 28  1  0
 28 18  1  0
 29 31  1  0
 30 29  2  0
M  END
$$$$
