DFR.pdb
     RDKit          3D

 31 31  0  0  1  0  0  0  0  0999 V2000
   26.8982  -21.3435  -13.3076 N   0  0  0  0  0  0  0  0  0  0  0  0
   25.7962  -20.6826  -12.6382 C   0  0  1  0  0  0  0  0  0  0  0  0
   24.5134  -21.2951  -13.1913 C   0  0  0  0  0  0  0  0  0  0  0  0
   24.4089  -21.0572  -14.6501 C   0  0  0  0  0  0  0  0  0  0  0  0
   24.8815  -20.0501  -15.2209 O   0  0  0  0  0  0  0  0  0  0  0  0
   25.9217  -20.8932  -11.1908 C   0  0  0  0  0  0  0  0  0  0  0  0
   25.4770  -21.9684  -10.6685 O   0  0  0  0  0  0  0  0  0  0  0  0
   23.7559  -21.9981  -15.4088 O   0  0  0  0  0  0  0  0  0  0  0  0
   26.5114  -19.9798  -10.2935 N   0  0  0  0  0  0  0  0  0  0  0  0
   26.5796  -20.2248   -8.9000 C   0  0  1  0  0  0  0  0  0  0  0  0
   27.4207  -19.2395   -8.1335 C   0  0  0  0  0  0  0  0  0  0  0  0
   27.6011  -19.5972   -6.7193 C   0  0  0  0  0  0  0  0  0  0  0  0
   28.5059  -20.6240   -6.4461 C   0  0  0  0  0  0  0  0  0  0  0  0
   28.7732  -21.0575   -5.1830 C   0  0  0  0  0  0  0  0  0  0  0  0
   28.1353  -20.4716   -4.1237 C   0  0  0  0  0  0  0  0  0  0  0  0
   27.2319  -19.4503   -4.3643 C   0  0  0  0  0  0  0  0  0  0  0  0
   26.9664  -19.0151   -5.6593 C   0  0  0  0  0  0  0  0  0  0  0  0
   25.2635  -20.2964   -8.2354 C   0  0  0  0  0  0  0  0  0  0  0  0
   24.4478  -19.3315   -8.3870 O   0  0  0  0  0  0  0  0  0  0  0  0
   19.3777  -24.8301   -5.2610 N   0  0  0  0  0  0  0  0  0  0  0  0
   18.5231  -24.0349   -6.0727 C   0  0  0  0  0  0  0  0  0  0  0  0
   17.2879  -23.9698   -5.7794 N   0  0  0  0  0  0  0  0  0  0  0  0
   19.0014  -23.3154   -7.1940 N   0  0  0  0  0  0  0  0  0  0  0  0
   20.3819  -23.4871   -7.5854 C   0  0  0  0  0  0  0  0  0  0  0  0
   21.2454  -22.3944   -6.9443 C   0  0  0  0  0  0  0  0  0  0  0  0
   22.6666  -22.5009   -7.4116 C   0  0  0  0  0  0  0  0  0  0  0  0
   23.4902  -21.4067   -6.8111 C   0  0  2  0  0  0  0  0  0  0  0  0
   24.8185  -21.3641   -7.4282 N   0  0  0  0  0  0  0  0  0  0  0  0
   23.6559  -21.5839   -5.3663 C   0  0  0  0  0  0  0  0  0  0  0  0
   24.5858  -22.1830   -4.7893 O   0  0  0  0  0  0  0  0  0  0  0  0
   22.6811  -21.0315   -4.5155 O   0  0  0  0  0  0  0  0  0  0  0  0
  2  1  1  6
  2  3  1  0
  3  4  1  0
  4  8  1  0
  5  4  2  0
  6  2  1  0
  6  7  2  0
  9  6  1  0
 10  9  1  0
 10 11  1  1
 11 12  1  0
 12 13  2  0
 12 17  1  0
 13 14  1  0
 14 15  2  0
 16 15  1  0
 17 16  2  0
 18 10  1  0
 19 18  2  0
 20 21  1  0
 21 22  2  0
 21 23  1  0
 24 23  1  0
 24 25  1  0
 25 26  1  0
 27 26  1  6
 27 29  1  0
 27 28  1  0
 28 18  1  0
 29 31  1  0
 30 29  2  0
M  END
$$$$
