DFR.pdb
     RDKit          3D

 31 31  0  0  1  0  0  0  0  0999 V2000
   28.3579  -20.6997  -15.5269 N   0  0  0  0  0  0  0  0  0  0  0  0
   27.9462  -20.0097  -14.3211 C   0  0  1  0  0  0  0  0  0  0  0  0
   27.3513  -18.6750  -14.7583 C   0  0  0  0  0  0  0  0  0  0  0  0
   28.3269  -17.9104  -15.5703 C   0  0  0  0  0  0  0  0  0  0  0  0
   29.4787  -17.6242  -15.1767 O   0  0  0  0  0  0  0  0  0  0  0  0
   26.9652  -20.8375  -13.6089 C   0  0  0  0  0  0  0  0  0  0  0  0
   26.2121  -21.6297  -14.2661 O   0  0  0  0  0  0  0  0  0  0  0  0
   27.9370  -17.4971  -16.8211 O   0  0  0  0  0  0  0  0  0  0  0  0
   26.7739  -20.8352  -12.2123 N   0  0  0  0  0  0  0  0  0  0  0  0
   25.7654  -21.6075  -11.5852 C   0  0  1  0  0  0  0  0  0  0  0  0
   26.0780  -22.0105  -10.1690 C   0  0  0  0  0  0  0  0  0  0  0  0
   26.9138  -21.0364   -9.4527 C   0  0  0  0  0  0  0  0  0  0  0  0
   26.2512  -19.9556   -8.8693 C   0  0  0  0  0  0  0  0  0  0  0  0
   26.8981  -18.9792   -8.1743 C   0  0  0  0  0  0  0  0  0  0  0  0
   28.2575  -19.0453   -8.0323 C   0  0  0  0  0  0  0  0  0  0  0  0
   28.9419  -20.1063   -8.6007 C   0  0  0  0  0  0  0  0  0  0  0  0
   28.2705  -21.0987   -9.3088 C   0  0  0  0  0  0  0  0  0  0  0  0
   24.4334  -20.9713  -11.5820 C   0  0  0  0  0  0  0  0  0  0  0  0
   24.3545  -19.7171  -11.3812 O   0  0  0  0  0  0  0  0  0  0  0  0
   19.0245  -24.0313  -17.7083 N   0  0  0  0  0  0  0  0  0  0  0  0
   18.5984  -22.7002  -17.4471 C   0  0  0  0  0  0  0  0  0  0  0  0
   17.7075  -22.1858  -18.1939 N   0  0  0  0  0  0  0  0  0  0  0  0
   19.1325  -21.9309  -16.3857 N   0  0  0  0  0  0  0  0  0  0  0  0
   20.1822  -22.5075  -15.5770 C   0  0  0  0  0  0  0  0  0  0  0  0
   20.5764  -21.5321  -14.4617 C   0  0  0  0  0  0  0  0  0  0  0  0
   21.7322  -22.0706  -13.6719 C   0  0  0  0  0  0  0  0  0  0  0  0
   22.1199  -21.1026  -12.6000 C   0  0  2  0  0  0  0  0  0  0  0  0
   23.2113  -21.6450  -11.7865 N   0  0  0  0  0  0  0  0  0  0  0  0
   20.9932  -20.7926  -11.7165 C   0  0  0  0  0  0  0  0  0  0  0  0
   20.8663  -21.1296  -10.5219 O   0  0  0  0  0  0  0  0  0  0  0  0
   19.9287  -20.0373  -12.2414 O   0  0  0  0  0  0  0  0  0  0  0  0
  2  1  1  6
  2  3  1  0
  3  4  1  0
  4  8  1  0
  5  4  2  0
  6  2  1  0
  6  7  2  0
  9  6  1  0
 10  9  1  0
 10 11  1  1
 11 12  1  0
 12 13  2  0
 12 17  1  0
 13 14  1  0
 14 15  2  0
 16 15  1  0
 17 16  2  0
 18 10  1  0
 19 18  2  0
 20 21  1  0
 21 22  2  0
 21 23  1  0
 24 23  1  0
 24 25  1  0
 25 26  1  0
 27 26  1  6
 27 29  1  0
 27 28  1  0
 28 18  1  0
 29 31  1  0
 30 29  2  0
M  END
$$$$
