DFR.pdb
     RDKit          3D

 31 31  0  0  1  0  0  0  0  0999 V2000
   27.7219  -21.7707  -16.5189 N   0  0  0  0  0  0  0  0  0  0  0  0
   26.3683  -21.3332  -16.7944 C   0  0  1  0  0  0  0  0  0  0  0  0
   25.8552  -22.1879  -17.9488 C   0  0  0  0  0  0  0  0  0  0  0  0
   25.2899  -21.3333  -19.0192 C   0  0  0  0  0  0  0  0  0  0  0  0
   25.8970  -20.3611  -19.5191 O   0  0  0  0  0  0  0  0  0  0  0  0
   25.5555  -21.5058  -15.5842 C   0  0  0  0  0  0  0  0  0  0  0  0
   25.6404  -22.5887  -14.9159 O   0  0  0  0  0  0  0  0  0  0  0  0
   24.0310  -21.6314  -19.4811 O   0  0  0  0  0  0  0  0  0  0  0  0
   24.6564  -20.5465  -15.0758 N   0  0  0  0  0  0  0  0  0  0  0  0
   23.9312  -20.7497  -13.8761 C   0  0  1  0  0  0  0  0  0  0  0  0
   23.9191  -19.5663  -12.9460 C   0  0  0  0  0  0  0  0  0  0  0  0
   23.3577  -19.8668  -11.6213 C   0  0  0  0  0  0  0  0  0  0  0  0
   22.0601  -19.4152  -11.3766 C   0  0  0  0  0  0  0  0  0  0  0  0
   21.4149  -19.6239  -10.1955 C   0  0  0  0  0  0  0  0  0  0  0  0
   22.0524  -20.3044   -9.1939 C   0  0  0  0  0  0  0  0  0  0  0  0
   23.3406  -20.7643   -9.4081 C   0  0  0  0  0  0  0  0  0  0  0  0
   23.9905  -20.5454  -10.6191 C   0  0  0  0  0  0  0  0  0  0  0  0
   22.5303  -21.1670  -14.0818 C   0  0  0  0  0  0  0  0  0  0  0  0
   21.8103  -20.5114  -14.9012 O   0  0  0  0  0  0  0  0  0  0  0  0
   17.4703  -27.5998  -13.6670 N   0  0  0  0  0  0  0  0  0  0  0  0
   16.5083  -26.7309  -13.0826 C   0  0  0  0  0  0  0  0  0  0  0  0
   15.2743  -26.9647  -13.2790 N   0  0  0  0  0  0  0  0  0  0  0  0
   16.8787  -25.6170  -12.2917 N   0  0  0  0  0  0  0  0  0  0  0  0
   18.2847  -25.3275  -12.1244 C   0  0  0  0  0  0  0  0  0  0  0  0
   18.6669  -24.0992  -12.9585 C   0  0  0  0  0  0  0  0  0  0  0  0
   20.1350  -23.8155  -12.8405 C   0  0  0  0  0  0  0  0  0  0  0  0
   20.4823  -22.5724  -13.5957 C   0  0  2  0  0  0  0  0  0  0  0  0
   21.9034  -22.2531  -13.4363 N   0  0  0  0  0  0  0  0  0  0  0  0
   19.6952  -21.4239  -13.1400 C   0  0  0  0  0  0  0  0  0  0  0  0
   19.9484  -20.6836  -12.1681 O   0  0  0  0  0  0  0  0  0  0  0  0
   18.5274  -21.0969  -13.8530 O   0  0  0  0  0  0  0  0  0  0  0  0
  2  1  1  1
  2  3  1  0
  3  4  1  0
  4  8  1  0
  5  4  2  0
  6  2  1  0
  6  7  2  0
  9  6  1  0
 10  9  1  0
 10 11  1  6
 11 12  1  0
 12 13  2  0
 12 17  1  0
 13 14  1  0
 14 15  2  0
 16 15  1  0
 17 16  2  0
 18 10  1  0
 19 18  2  0
 20 21  1  0
 21 22  2  0
 21 23  1  0
 24 23  1  0
 24 25  1  0
 25 26  1  0
 27 26  1  1
 27 29  1  0
 27 28  1  0
 28 18  1  0
 29 31  1  0
 30 29  2  0
M  END
$$$$
