DFR.pdb
     RDKit          3D

 31 31  0  0  1  0  0  0  0  0999 V2000
   28.8121  -21.3168  -14.1892 N   0  0  0  0  0  0  0  0  0  0  0  0
   28.1182  -20.2142  -13.5551 C   0  0  1  0  0  0  0  0  0  0  0  0
   27.3438  -19.4913  -14.6525 C   0  0  0  0  0  0  0  0  0  0  0  0
   28.2643  -18.7124  -15.5137 C   0  0  0  0  0  0  0  0  0  0  0  0
   28.7110  -19.1320  -16.6036 O   0  0  0  0  0  0  0  0  0  0  0  0
   27.2265  -20.7453  -12.5170 C   0  0  0  0  0  0  0  0  0  0  0  0
   26.4695  -21.7369  -12.7821 O   0  0  0  0  0  0  0  0  0  0  0  0
   28.6427  -17.4636  -15.0842 O   0  0  0  0  0  0  0  0  0  0  0  0
   27.1283  -20.2389  -11.2051 N   0  0  0  0  0  0  0  0  0  0  0  0
   26.0637  -20.5859  -10.3375 C   0  0  1  0  0  0  0  0  0  0  0  0
   26.1965  -20.0450   -8.9392 C   0  0  0  0  0  0  0  0  0  0  0  0
   27.4618  -20.4103   -8.2865 C   0  0  0  0  0  0  0  0  0  0  0  0
   27.7746  -19.7312   -7.1081 C   0  0  0  0  0  0  0  0  0  0  0  0
   28.9119  -19.9685   -6.3974 C   0  0  0  0  0  0  0  0  0  0  0  0
   29.7978  -20.9108   -6.8443 C   0  0  0  0  0  0  0  0  0  0  0  0
   29.5140  -21.6005   -8.0108 C   0  0  0  0  0  0  0  0  0  0  0  0
   28.3486  -21.3500   -8.7292 C   0  0  0  0  0  0  0  0  0  0  0  0
   24.7290  -20.2014  -10.8374 C   0  0  0  0  0  0  0  0  0  0  0  0
   24.5126  -18.9819  -11.1295 O   0  0  0  0  0  0  0  0  0  0  0  0
   21.5933  -19.4019  -17.8182 N   0  0  0  0  0  0  0  0  0  0  0  0
   20.7157  -18.8865  -16.8253 C   0  0  0  0  0  0  0  0  0  0  0  0
   19.9735  -17.8972  -17.1194 N   0  0  0  0  0  0  0  0  0  0  0  0
   20.6418  -19.4372  -15.5234 N   0  0  0  0  0  0  0  0  0  0  0  0
   21.4817  -20.5694  -15.2053 C   0  0  0  0  0  0  0  0  0  0  0  0
   21.1286  -21.1056  -13.8131 C   0  0  0  0  0  0  0  0  0  0  0  0
   22.3703  -21.4792  -13.0593 C   0  0  0  0  0  0  0  0  0  0  0  0
   22.4349  -20.7287  -11.7676 C   0  0  2  0  0  0  0  0  0  0  0  0
   23.6463  -21.0858  -11.0246 N   0  0  0  0  0  0  0  0  0  0  0  0
   21.2726  -21.0070  -10.9204 C   0  0  0  0  0  0  0  0  0  0  0  0
   20.0723  -20.8615  -11.2283 O   0  0  0  0  0  0  0  0  0  0  0  0
   21.5022  -21.4900   -9.6193 O   0  0  0  0  0  0  0  0  0  0  0  0
  2  1  1  6
  2  3  1  0
  3  4  1  0
  4  8  1  0
  5  4  2  0
  6  2  1  0
  6  7  2  0
  9  6  1  0
 10  9  1  0
 10 11  1  1
 11 12  1  0
 12 13  2  0
 12 17  1  0
 13 14  1  0
 14 15  2  0
 16 15  1  0
 17 16  2  0
 18 10  1  0
 19 18  2  0
 20 21  1  0
 21 22  2  0
 21 23  1  0
 24 23  1  0
 24 25  1  0
 25 26  1  0
 27 26  1  6
 27 29  1  0
 27 28  1  0
 28 18  1  0
 29 31  1  0
 30 29  2  0
M  END
$$$$
