PYK.pdb
     RDKit          3D

 29 30  0  0  1  0  0  0  0  0999 V2000
    7.4122  -15.0994   20.3024 N   0  0  0  0  0  0  0  0  0  0  0  0
    6.7151  -14.1984   19.4367 C   0  0  0  0  0  0  0  0  0  0  0  0
    7.7200  -13.1599   18.9681 C   0  0  0  0  0  0  0  0  0  0  0  0
    8.6318  -13.0791   20.1840 C   0  0  0  0  0  0  0  0  0  0  0  0
    8.7129  -14.5486   20.5743 C   0  0  1  0  0  0  0  0  0  0  0  0
    9.1533  -14.7406   21.9567 C   0  0  0  0  0  0  0  0  0  0  0  0
   10.3180  -14.4155   22.2917 O   0  0  0  0  0  0  0  0  0  0  0  0
    6.7723   -9.9882   27.4685 O   0  0  0  0  0  0  0  0  0  0  0  0
    6.9101  -11.2590   26.8720 C   0  0  0  0  0  0  0  0  0  0  0  0
    5.8671  -11.8316   26.1828 C   0  0  0  0  0  0  0  0  0  0  0  0
    6.0155  -13.0812   25.6013 C   0  0  0  0  0  0  0  0  0  0  0  0
    7.1835  -13.7930   25.6819 C   0  0  0  0  0  0  0  0  0  0  0  0
    7.3387  -15.1078   25.0571 C   0  0  0  0  0  0  0  0  0  0  0  0
    8.6040  -15.3997   24.3471 C   0  0  2  0  0  0  0  0  0  0  0  0
    8.2720  -15.2883   22.9066 N   0  0  0  0  0  0  0  0  0  0  0  0
    9.1577  -16.7417   24.5403 C   0  0  0  0  0  0  0  0  0  0  0  0
    8.5422  -17.7815   24.0781 O   0  0  0  0  0  0  0  0  0  0  0  0
    8.2203  -13.2003   26.3792 C   0  0  0  0  0  0  0  0  0  0  0  0
    8.0907  -11.9592   26.9638 C   0  0  0  0  0  0  0  0  0  0  0  0
   10.3689  -17.0553   25.2099 N   0  0  0  0  0  0  0  0  0  0  0  0
   10.7519  -18.4465   25.4831 C   0  0  1  0  0  0  0  0  0  0  0  0
   12.0644  -18.7073   24.7658 C   0  0  0  0  0  0  0  0  0  0  0  0
   12.6514  -20.0507   25.0310 C   0  0  0  0  0  0  0  0  0  0  0  0
   13.9723  -20.2525   24.2913 C   0  0  0  0  0  0  0  0  0  0  0  0
   14.4783  -21.6526   24.5381 C   0  0  0  0  0  0  0  0  0  0  0  0
   15.7981  -21.7562   23.9135 N   0  0  0  0  0  0  0  0  0  0  0  0
   10.8279  -18.7114   26.9156 C   0  0  0  0  0  0  0  0  0  0  0  0
   10.6647  -17.7928   27.9335 O   0  0  0  0  0  0  0  0  0  0  0  0
   11.0693  -19.9033   27.3341 O   0  0  0  0  0  0  0  0  0  0  0  0
  1  5  1  0
  2  1  1  0
  3  2  1  0
  3  4  1  0
  4  5  1  0
  6  7  2  0
  5  6  1  1
  8  9  1  0
  9 19  2  0
  9 10  1  0
 10 11  2  0
 12 11  1  0
 12 13  1  0
 14 13  1  1
 14 16  1  0
 14 15  1  0
 15  6  1  0
 16 17  2  0
 18 12  2  0
 19 18  1  0
 20 16  1  0
 20 21  1  0
 21 27  1  0
 22 23  1  0
 21 22  1  6
 24 23  1  0
 25 24  1  0
 26 25  1  0
 27 29  2  0
 27 28  1  0
M  END
$$$$
