PYK.pdb
     RDKit          3D

 29 30  0  0  1  0  0  0  0  0999 V2000
    7.7513  -15.5100   18.8893 N   0  0  0  0  0  0  0  0  0  0  0  0
    6.9575  -14.9312   17.8491 C   0  0  0  0  0  0  0  0  0  0  0  0
    7.7448  -13.7619   17.2828 C   0  0  0  0  0  0  0  0  0  0  0  0
    8.4930  -13.2965   18.5237 C   0  0  0  0  0  0  0  0  0  0  0  0
    8.8629  -14.6348   19.1488 C   0  0  1  0  0  0  0  0  0  0  0  0
    9.1989  -14.5193   20.5686 C   0  0  0  0  0  0  0  0  0  0  0  0
   10.3878  -14.3164   20.9143 O   0  0  0  0  0  0  0  0  0  0  0  0
    6.9846  -12.0284   28.8881 O   0  0  0  0  0  0  0  0  0  0  0  0
    7.0434  -12.4234   27.5352 C   0  0  0  0  0  0  0  0  0  0  0  0
    7.9018  -11.8055   26.6566 C   0  0  0  0  0  0  0  0  0  0  0  0
    7.9499  -12.2033   25.3295 C   0  0  0  0  0  0  0  0  0  0  0  0
    7.1620  -13.2105   24.8373 C   0  0  0  0  0  0  0  0  0  0  0  0
    7.2239  -13.6341   23.4374 C   0  0  0  0  0  0  0  0  0  0  0  0
    8.4231  -14.3725   22.9825 C   0  0  2  0  0  0  0  0  0  0  0  0
    8.1902  -14.6357   21.5423 N   0  0  0  0  0  0  0  0  0  0  0  0
    8.6540  -15.6764   23.6082 C   0  0  0  0  0  0  0  0  0  0  0  0
    7.8391  -16.6598   23.4023 O   0  0  0  0  0  0  0  0  0  0  0  0
    6.3055  -13.8191   25.7365 C   0  0  0  0  0  0  0  0  0  0  0  0
    6.2442  -13.4368   27.0590 C   0  0  0  0  0  0  0  0  0  0  0  0
    9.7378  -16.0116   24.4607 N   0  0  0  0  0  0  0  0  0  0  0  0
    9.8695  -17.3571   25.0346 C   0  0  1  0  0  0  0  0  0  0  0  0
   11.1245  -17.9809   24.4508 C   0  0  0  0  0  0  0  0  0  0  0  0
   10.8828  -18.8480   23.2637 C   0  0  0  0  0  0  0  0  0  0  0  0
   12.1847  -19.3959   22.6825 C   0  0  0  0  0  0  0  0  0  0  0  0
   11.8783  -20.2393   21.4692 C   0  0  0  0  0  0  0  0  0  0  0  0
   13.1544  -20.7258   20.9423 N   0  0  0  0  0  0  0  0  0  0  0  0
    9.8819  -17.3202   26.4929 C   0  0  0  0  0  0  0  0  0  0  0  0
   10.0233  -16.2002   27.2879 O   0  0  0  0  0  0  0  0  0  0  0  0
    9.7526  -18.4111   27.1618 O   0  0  0  0  0  0  0  0  0  0  0  0
  1  5  1  0
  2  1  1  0
  3  2  1  0
  3  4  1  0
  4  5  1  0
  6  7  2  0
  5  6  1  1
  8  9  1  0
  9 19  2  0
  9 10  1  0
 10 11  2  0
 12 11  1  0
 12 13  1  0
 14 13  1  1
 14 16  1  0
 14 15  1  0
 15  6  1  0
 16 17  2  0
 18 12  2  0
 19 18  1  0
 20 16  1  0
 20 21  1  0
 21 27  1  0
 22 23  1  0
 21 22  1  6
 24 23  1  0
 25 24  1  0
 26 25  1  0
 27 29  2  0
 27 28  1  0
M  END
$$$$
