PYK.pdb
     RDKit          3D

 29 30  0  0  1  0  0  0  0  0999 V2000
    7.5721  -15.2841   18.7285 N   0  0  0  0  0  0  0  0  0  0  0  0
    6.8737  -14.7142   17.6173 C   0  0  0  0  0  0  0  0  0  0  0  0
    7.8080  -13.7059   16.9705 C   0  0  0  0  0  0  0  0  0  0  0  0
    8.5849  -13.2195   18.1855 C   0  0  0  0  0  0  0  0  0  0  0  0
    8.7773  -14.5280   18.9400 C   0  0  1  0  0  0  0  0  0  0  0  0
    9.0993  -14.3213   20.3526 C   0  0  0  0  0  0  0  0  0  0  0  0
   10.2529  -13.9548   20.6829 O   0  0  0  0  0  0  0  0  0  0  0  0
    6.8347  -12.4459   28.8401 O   0  0  0  0  0  0  0  0  0  0  0  0
    6.9104  -12.7564   27.4662 C   0  0  0  0  0  0  0  0  0  0  0  0
    6.3699  -13.9216   26.9754 C   0  0  0  0  0  0  0  0  0  0  0  0
    6.4511  -14.2148   25.6230 C   0  0  0  0  0  0  0  0  0  0  0  0
    7.0604  -13.3765   24.7266 C   0  0  0  0  0  0  0  0  0  0  0  0
    7.1344  -13.6856   23.2977 C   0  0  0  0  0  0  0  0  0  0  0  0
    8.3647  -14.3280   22.7838 C   0  0  2  0  0  0  0  0  0  0  0  0
    8.1166  -14.5333   21.3368 N   0  0  0  0  0  0  0  0  0  0  0  0
    8.6851  -15.6450   23.3384 C   0  0  0  0  0  0  0  0  0  0  0  0
    8.0225  -16.6937   22.9714 O   0  0  0  0  0  0  0  0  0  0  0  0
    7.5978  -12.2102   25.2397 C   0  0  0  0  0  0  0  0  0  0  0  0
    7.5266  -11.9024   26.5811 C   0  0  0  0  0  0  0  0  0  0  0  0
    9.7052  -15.9254   24.2843 N   0  0  0  0  0  0  0  0  0  0  0  0
   10.0036  -17.3022   24.6993 C   0  0  1  0  0  0  0  0  0  0  0  0
   11.1586  -17.7953   23.8461 C   0  0  0  0  0  0  0  0  0  0  0  0
   11.6034  -19.1823   24.1592 C   0  0  0  0  0  0  0  0  0  0  0  0
   12.8075  -19.5993   23.3173 C   0  0  0  0  0  0  0  0  0  0  0  0
   13.2032  -21.0121   23.6702 C   0  0  0  0  0  0  0  0  0  0  0  0
   14.3270  -21.3793   22.8071 N   0  0  0  0  0  0  0  0  0  0  0  0
   10.2814  -17.3840   26.1291 C   0  0  0  0  0  0  0  0  0  0  0  0
   10.3436  -18.5331   26.8921 O   0  0  0  0  0  0  0  0  0  0  0  0
   10.4982  -16.3094   26.8015 O   0  0  0  0  0  0  0  0  0  0  0  0
  1  5  1  0
  2  1  1  0
  3  2  1  0
  3  4  1  0
  4  5  1  0
  6  7  2  0
  5  6  1  1
  8  9  1  0
  9 19  2  0
  9 10  1  0
 10 11  2  0
 12 11  1  0
 12 13  1  0
 14 13  1  1
 14 16  1  0
 14 15  1  0
 15  6  1  0
 16 17  2  0
 18 12  2  0
 19 18  1  0
 20 16  1  0
 20 21  1  0
 21 27  1  0
 22 23  1  0
 21 22  1  6
 24 23  1  0
 25 24  1  0
 26 25  1  0
 27 29  2  0
 27 28  1  0
M  END
$$$$
