PYK.pdb
     RDKit          3D

 29 30  0  0  1  0  0  0  0  0999 V2000
    6.9027  -14.8168   20.6212 N   0  0  0  0  0  0  0  0  0  0  0  0
    5.9589  -13.9513   19.9830 C   0  0  0  0  0  0  0  0  0  0  0  0
    6.7535  -12.9474   19.1652 C   0  0  0  0  0  0  0  0  0  0  0  0
    8.0081  -12.8178   20.0170 C   0  0  0  0  0  0  0  0  0  0  0  0
    8.2186  -14.2675   20.4321 C   0  0  1  0  0  0  0  0  0  0  0  0
    9.0822  -14.3972   21.6066 C   0  0  0  0  0  0  0  0  0  0  0  0
   10.2996  -14.1061   21.5216 O   0  0  0  0  0  0  0  0  0  0  0  0
   10.3801  -15.1755   30.4864 O   0  0  0  0  0  0  0  0  0  0  0  0
    9.9035  -15.0275   29.1671 C   0  0  0  0  0  0  0  0  0  0  0  0
    9.9264  -13.8029   28.5420 C   0  0  0  0  0  0  0  0  0  0  0  0
    9.4549  -13.6709   27.2451 C   0  0  0  0  0  0  0  0  0  0  0  0
    8.9536  -14.7308   26.5361 C   0  0  0  0  0  0  0  0  0  0  0  0
    8.4665  -14.5885   25.1630 C   0  0  0  0  0  0  0  0  0  0  0  0
    9.3596  -15.0020   24.0576 C   0  0  2  0  0  0  0  0  0  0  0  0
    8.5471  -14.8473   22.8274 N   0  0  0  0  0  0  0  0  0  0  0  0
    9.8127  -16.3945   24.0805 C   0  0  0  0  0  0  0  0  0  0  0  0
    8.9912  -17.3593   23.8196 O   0  0  0  0  0  0  0  0  0  0  0  0
    8.9390  -15.9535   27.1821 C   0  0  0  0  0  0  0  0  0  0  0  0
    9.4033  -16.1034   28.4709 C   0  0  0  0  0  0  0  0  0  0  0  0
   11.1303  -16.8378   24.3655 N   0  0  0  0  0  0  0  0  0  0  0  0
   11.4520  -18.2680   24.4535 C   0  0  1  0  0  0  0  0  0  0  0  0
   12.6696  -18.5160   23.5811 C   0  0  0  0  0  0  0  0  0  0  0  0
   13.1205  -19.9355   23.5472 C   0  0  0  0  0  0  0  0  0  0  0  0
   14.3328  -20.1279   22.6383 C   0  0  0  0  0  0  0  0  0  0  0  0
   14.7480  -21.5786   22.6536 C   0  0  0  0  0  0  0  0  0  0  0  0
   15.8473  -21.7281   21.6987 N   0  0  0  0  0  0  0  0  0  0  0  0
   11.6513  -18.6897   25.8358 C   0  0  0  0  0  0  0  0  0  0  0  0
   11.4546  -19.9571   26.3473 O   0  0  0  0  0  0  0  0  0  0  0  0
   12.0497  -17.8384   26.7135 O   0  0  0  0  0  0  0  0  0  0  0  0
  1  5  1  0
  2  1  1  0
  3  2  1  0
  3  4  1  0
  4  5  1  0
  6  7  2  0
  5  6  1  1
  8  9  1  0
  9 19  2  0
  9 10  1  0
 10 11  2  0
 12 11  1  0
 12 13  1  0
 14 13  1  1
 14 16  1  0
 14 15  1  0
 15  6  1  0
 16 17  2  0
 18 12  2  0
 19 18  1  0
 20 16  1  0
 20 21  1  0
 21 27  1  0
 22 23  1  0
 21 22  1  6
 24 23  1  0
 25 24  1  0
 26 25  1  0
 27 29  2  0
 27 28  1  0
M  END
$$$$
