PYK.pdb
     RDKit          3D

 29 30  0  0  1  0  0  0  0  0999 V2000
    6.9297  -14.7924   20.6434 N   0  0  0  0  0  0  0  0  0  0  0  0
    6.0168  -13.8725   20.0371 C   0  0  0  0  0  0  0  0  0  0  0  0
    6.8453  -12.8772   19.2428 C   0  0  0  0  0  0  0  0  0  0  0  0
    8.1090  -12.8213   20.0891 C   0  0  0  0  0  0  0  0  0  0  0  0
    8.2649  -14.2896   20.4609 C   0  0  1  0  0  0  0  0  0  0  0  0
    9.1297  -14.4868   21.6251 C   0  0  0  0  0  0  0  0  0  0  0  0
   10.3607  -14.2620   21.5337 O   0  0  0  0  0  0  0  0  0  0  0  0
   10.4081  -15.0235   30.5216 O   0  0  0  0  0  0  0  0  0  0  0  0
    9.9383  -14.9315   29.1947 C   0  0  0  0  0  0  0  0  0  0  0  0
    9.5855  -16.0591   28.4915 C   0  0  0  0  0  0  0  0  0  0  0  0
    9.1252  -15.9550   27.1881 C   0  0  0  0  0  0  0  0  0  0  0  0
    9.0009  -14.7494   26.5489 C   0  0  0  0  0  0  0  0  0  0  0  0
    8.5043  -14.6436   25.1759 C   0  0  0  0  0  0  0  0  0  0  0  0
    9.3846  -15.0989   24.0767 C   0  0  2  0  0  0  0  0  0  0  0  0
    8.5807  -14.9275   22.8431 N   0  0  0  0  0  0  0  0  0  0  0  0
    9.7883  -16.5062   24.1140 C   0  0  0  0  0  0  0  0  0  0  0  0
    8.9031  -17.4476   24.0538 O   0  0  0  0  0  0  0  0  0  0  0  0
    9.3608  -13.6274   27.2728 C   0  0  0  0  0  0  0  0  0  0  0  0
    9.8205  -13.7119   28.5692 C   0  0  0  0  0  0  0  0  0  0  0  0
   11.1194  -16.9893   24.2064 N   0  0  0  0  0  0  0  0  0  0  0  0
   11.4029  -18.4239   24.3428 C   0  0  1  0  0  0  0  0  0  0  0  0
   12.4818  -18.7734   23.3334 C   0  0  0  0  0  0  0  0  0  0  0  0
   11.9854  -18.9406   21.9387 C   0  0  0  0  0  0  0  0  0  0  0  0
   13.1160  -19.2696   20.9660 C   0  0  0  0  0  0  0  0  0  0  0  0
   12.5695  -19.3284   19.5606 C   0  0  0  0  0  0  0  0  0  0  0  0
   13.7073  -19.5056   18.6568 N   0  0  0  0  0  0  0  0  0  0  0  0
   11.7741  -18.7706   25.7103 C   0  0  0  0  0  0  0  0  0  0  0  0
   11.9577  -17.8946   26.7617 O   0  0  0  0  0  0  0  0  0  0  0  0
   11.9636  -20.0019   26.0294 O   0  0  0  0  0  0  0  0  0  0  0  0
  1  5  1  0
  2  1  1  0
  3  2  1  0
  3  4  1  0
  4  5  1  0
  6  7  2  0
  5  6  1  1
  8  9  1  0
  9 19  2  0
  9 10  1  0
 10 11  2  0
 12 11  1  0
 12 13  1  0
 14 13  1  1
 14 16  1  0
 14 15  1  0
 15  6  1  0
 16 17  2  0
 18 12  2  0
 19 18  1  0
 20 16  1  0
 20 21  1  0
 21 27  1  0
 22 23  1  0
 21 22  1  6
 24 23  1  0
 25 24  1  0
 26 25  1  0
 27 29  2  0
 27 28  1  0
M  END
$$$$
