PYK.pdb
     RDKit          3D

 29 30  0  0  1  0  0  0  0  0999 V2000
    7.4259  -15.0391   20.0777 N   0  0  0  0  0  0  0  0  0  0  0  0
    6.6823  -14.1064   19.2875 C   0  0  0  0  0  0  0  0  0  0  0  0
    7.6498  -13.0211   18.8470 C   0  0  0  0  0  0  0  0  0  0  0  0
    8.5996  -12.9887   20.0357 C   0  0  0  0  0  0  0  0  0  0  0  0
    8.7234  -14.4757   20.3388 C   0  0  1  0  0  0  0  0  0  0  0  0
    9.2133  -14.7354   21.6933 C   0  0  0  0  0  0  0  0  0  0  0  0
   10.3980  -14.4518   21.9938 O   0  0  0  0  0  0  0  0  0  0  0  0
    6.4815  -10.0443   26.8902 O   0  0  0  0  0  0  0  0  0  0  0  0
    6.7278  -11.3374   26.3832 C   0  0  0  0  0  0  0  0  0  0  0  0
    5.7063  -12.0987   25.8659 C   0  0  0  0  0  0  0  0  0  0  0  0
    5.9617  -13.3680   25.3708 C   0  0  0  0  0  0  0  0  0  0  0  0
    7.2176  -13.9159   25.3714 C   0  0  0  0  0  0  0  0  0  0  0  0
    7.4841  -15.2527   24.8378 C   0  0  0  0  0  0  0  0  0  0  0  0
    8.7366  -15.4659   24.0785 C   0  0  2  0  0  0  0  0  0  0  0  0
    8.3568  -15.3017   22.6550 N   0  0  0  0  0  0  0  0  0  0  0  0
    9.3428  -16.7941   24.1933 C   0  0  0  0  0  0  0  0  0  0  0  0
    8.6595  -17.8568   23.9149 O   0  0  0  0  0  0  0  0  0  0  0  0
    8.2311  -13.1348   25.8959 C   0  0  0  0  0  0  0  0  0  0  0  0
    7.9957  -11.8711   26.3926 C   0  0  0  0  0  0  0  0  0  0  0  0
   10.6766  -17.0700   24.5916 N   0  0  0  0  0  0  0  0  0  0  0  0
   11.1633  -18.4491   24.7255 C   0  0  1  0  0  0  0  0  0  0  0  0
   12.6146  -18.4657   24.2798 C   0  0  0  0  0  0  0  0  0  0  0  0
   13.2496  -19.8131   24.3096 C   0  0  0  0  0  0  0  0  0  0  0  0
   14.6987  -19.7720   23.8289 C   0  0  0  0  0  0  0  0  0  0  0  0
   15.2893  -21.1592   23.8921 C   0  0  0  0  0  0  0  0  0  0  0  0
   16.6756  -21.0648   23.4317 N   0  0  0  0  0  0  0  0  0  0  0  0
   10.9826  -18.9532   26.0824 C   0  0  0  0  0  0  0  0  0  0  0  0
   10.8225  -18.1985   27.2275 O   0  0  0  0  0  0  0  0  0  0  0  0
   10.9621  -20.2211   26.2967 O   0  0  0  0  0  0  0  0  0  0  0  0
  1  5  1  0
  2  1  1  0
  3  2  1  0
  3  4  1  0
  4  5  1  0
  6  7  2  0
  5  6  1  1
  8  9  1  0
  9 19  2  0
  9 10  1  0
 10 11  2  0
 12 11  1  0
 12 13  1  0
 14 13  1  1
 14 16  1  0
 14 15  1  0
 15  6  1  0
 16 17  2  0
 18 12  2  0
 19 18  1  0
 20 16  1  0
 20 21  1  0
 21 27  1  0
 22 23  1  0
 21 22  1  1
 24 23  1  0
 25 24  1  0
 26 25  1  0
 27 29  2  0
 27 28  1  0
M  END
$$$$
