PYK.pdb
     RDKit          3D

 29 30  0  0  1  0  0  0  0  0999 V2000
    8.1112  -17.2596   19.3083 N   0  0  0  0  0  0  0  0  0  0  0  0
    7.4638  -17.1907   18.0342 C   0  0  0  0  0  0  0  0  0  0  0  0
    8.3537  -16.3618   17.1238 C   0  0  0  0  0  0  0  0  0  0  0  0
    8.9716  -15.4012   18.1296 C   0  0  0  0  0  0  0  0  0  0  0  0
    9.2175  -16.3403   19.3027 C   0  0  1  0  0  0  0  0  0  0  0  0
    9.3927  -15.6264   20.5682 C   0  0  0  0  0  0  0  0  0  0  0  0
   10.4292  -14.9468   20.7633 O   0  0  0  0  0  0  0  0  0  0  0  0
    6.4493  -11.9205   28.1973 O   0  0  0  0  0  0  0  0  0  0  0  0
    6.6525  -12.5210   26.9372 C   0  0  0  0  0  0  0  0  0  0  0  0
    7.4299  -11.9099   25.9817 C   0  0  0  0  0  0  0  0  0  0  0  0
    7.6216  -12.5106   24.7473 C   0  0  0  0  0  0  0  0  0  0  0  0
    7.0589  -13.7174   24.4241 C   0  0  0  0  0  0  0  0  0  0  0  0
    7.2729  -14.3528   23.1228 C   0  0  0  0  0  0  0  0  0  0  0  0
    8.5449  -15.0752   22.8979 C   0  0  2  0  0  0  0  0  0  0  0  0
    8.4006  -15.7029   21.5627 N   0  0  0  0  0  0  0  0  0  0  0  0
    8.8447  -16.1609   23.8340 C   0  0  0  0  0  0  0  0  0  0  0  0
    8.1321  -17.2406   23.8412 O   0  0  0  0  0  0  0  0  0  0  0  0
    6.2806  -14.3157   25.3982 C   0  0  0  0  0  0  0  0  0  0  0  0
    6.0789  -13.7332   26.6307 C   0  0  0  0  0  0  0  0  0  0  0  0
    9.8948  -16.1723   24.7886 N   0  0  0  0  0  0  0  0  0  0  0  0
   10.1426  -17.3455   25.6365 C   0  0  1  0  0  0  0  0  0  0  0  0
   11.5866  -17.7639   25.4252 C   0  0  0  0  0  0  0  0  0  0  0  0
   11.9981  -18.9631   26.2077 C   0  0  0  0  0  0  0  0  0  0  0  0
   13.4558  -19.3397   25.9508 C   0  0  0  0  0  0  0  0  0  0  0  0
   13.7775  -20.6264   26.6707 C   0  0  0  0  0  0  0  0  0  0  0  0
   15.0997  -21.0613   26.2178 N   0  0  0  0  0  0  0  0  0  0  0  0
    9.8318  -17.0726   27.0354 C   0  0  0  0  0  0  0  0  0  0  0  0
    9.5214  -15.8451   27.5864 O   0  0  0  0  0  0  0  0  0  0  0  0
    9.8315  -18.0334   27.8903 O   0  0  0  0  0  0  0  0  0  0  0  0
  1  5  1  0
  2  1  1  0
  3  2  1  0
  3  4  1  0
  4  5  1  0
  6  7  2  0
  5  6  1  1
  8  9  1  0
  9 19  2  0
  9 10  1  0
 10 11  2  0
 12 11  1  0
 12 13  1  0
 14 13  1  1
 14 16  1  0
 14 15  1  0
 15  6  1  0
 16 17  2  0
 18 12  2  0
 19 18  1  0
 20 16  1  0
 20 21  1  0
 21 27  1  0
 22 23  1  0
 21 22  1  1
 24 23  1  0
 25 24  1  0
 26 25  1  0
 27 29  2  0
 27 28  1  0
M  END
$$$$
