PYK.pdb
     RDKit          3D

 29 30  0  0  1  0  0  0  0  0999 V2000
    7.6133  -15.4396   18.7263 N   0  0  0  0  0  0  0  0  0  0  0  0
    6.8789  -14.9014   17.6226 C   0  0  0  0  0  0  0  0  0  0  0  0
    7.7576  -13.8471   16.9714 C   0  0  0  0  0  0  0  0  0  0  0  0
    8.5200  -13.3267   18.1815 C   0  0  0  0  0  0  0  0  0  0  0  0
    8.7821  -14.6264   18.9303 C   0  0  1  0  0  0  0  0  0  0  0  0
    9.1052  -14.4080   20.3410 C   0  0  0  0  0  0  0  0  0  0  0  0
   10.1638  -13.8116   20.6539 O   0  0  0  0  0  0  0  0  0  0  0  0
    6.9630  -12.2335   28.6657 O   0  0  0  0  0  0  0  0  0  0  0  0
    7.0179  -12.6670   27.3245 C   0  0  0  0  0  0  0  0  0  0  0  0
    7.5825  -11.8776   26.3505 C   0  0  0  0  0  0  0  0  0  0  0  0
    7.6301  -12.3154   25.0361 C   0  0  0  0  0  0  0  0  0  0  0  0
    7.1284  -13.5305   24.6497 C   0  0  0  0  0  0  0  0  0  0  0  0
    7.1905  -13.9930   23.2622 C   0  0  0  0  0  0  0  0  0  0  0  0
    8.4490  -14.6096   22.7861 C   0  0  2  0  0  0  0  0  0  0  0  0
    8.2301  -14.8664   21.3426 N   0  0  0  0  0  0  0  0  0  0  0  0
    8.8033  -15.8980   23.3854 C   0  0  0  0  0  0  0  0  0  0  0  0
    8.0617  -16.9405   23.1934 O   0  0  0  0  0  0  0  0  0  0  0  0
    6.5648  -14.3095   25.6437 C   0  0  0  0  0  0  0  0  0  0  0  0
    6.5085  -13.8904   26.9553 C   0  0  0  0  0  0  0  0  0  0  0  0
    9.9391  -16.1560   24.1961 N   0  0  0  0  0  0  0  0  0  0  0  0
   10.1526  -17.4709   24.8144 C   0  0  1  0  0  0  0  0  0  0  0  0
   11.4962  -17.9885   24.3327 C   0  0  0  0  0  0  0  0  0  0  0  0
   11.5324  -18.3474   22.8873 C   0  0  0  0  0  0  0  0  0  0  0  0
   12.9064  -18.8599   22.4606 C   0  0  0  0  0  0  0  0  0  0  0  0
   12.9208  -19.0778   20.9674 C   0  0  0  0  0  0  0  0  0  0  0  0
   14.3052  -19.3528   20.5796 N   0  0  0  0  0  0  0  0  0  0  0  0
   10.0616  -17.4019   26.2687 C   0  0  0  0  0  0  0  0  0  0  0  0
    9.8466  -16.2689   27.0282 O   0  0  0  0  0  0  0  0  0  0  0  0
   10.1867  -18.4730   26.9694 O   0  0  0  0  0  0  0  0  0  0  0  0
  1  5  1  0
  2  1  1  0
  3  2  1  0
  3  4  1  0
  4  5  1  0
  6  7  2  0
  5  6  1  1
  8  9  1  0
  9 19  2  0
  9 10  1  0
 10 11  2  0
 12 11  1  0
 12 13  1  0
 14 13  1  1
 14 16  1  0
 14 15  1  0
 15  6  1  0
 16 17  2  0
 18 12  2  0
 19 18  1  0
 20 16  1  0
 20 21  1  0
 21 27  1  0
 22 23  1  0
 21 22  1  1
 24 23  1  0
 25 24  1  0
 26 25  1  0
 27 29  2  0
 27 28  1  0
M  END
$$$$
