PYK.pdb
     RDKit          3D

 29 30  0  0  1  0  0  0  0  0999 V2000
    7.7295  -15.5511   18.8744 N   0  0  0  0  0  0  0  0  0  0  0  0
    7.0193  -15.0562   17.7352 C   0  0  0  0  0  0  0  0  0  0  0  0
    7.9146  -14.0315   17.0597 C   0  0  0  0  0  0  0  0  0  0  0  0
    8.6542  -13.4645   18.2629 C   0  0  0  0  0  0  0  0  0  0  0  0
    8.8967  -14.7333   19.0689 C   0  0  1  0  0  0  0  0  0  0  0  0
    9.1921  -14.4587   20.4758 C   0  0  0  0  0  0  0  0  0  0  0  0
   10.2338  -13.8309   20.7840 O   0  0  0  0  0  0  0  0  0  0  0  0
    6.9766  -11.9617   28.6809 O   0  0  0  0  0  0  0  0  0  0  0  0
    7.0519  -12.4491   27.3593 C   0  0  0  0  0  0  0  0  0  0  0  0
    6.4465  -13.6327   27.0084 C   0  0  0  0  0  0  0  0  0  0  0  0
    6.5280  -14.1005   25.7061 C   0  0  0  0  0  0  0  0  0  0  0  0
    7.2010  -13.4218   24.7242 C   0  0  0  0  0  0  0  0  0  0  0  0
    7.2755  -13.9148   23.3479 C   0  0  0  0  0  0  0  0  0  0  0  0
    8.5118  -14.6058   22.9183 C   0  0  2  0  0  0  0  0  0  0  0  0
    8.3094  -14.8983   21.4792 N   0  0  0  0  0  0  0  0  0  0  0  0
    8.7915  -15.8896   23.5650 C   0  0  0  0  0  0  0  0  0  0  0  0
    8.0193  -16.9088   23.3684 O   0  0  0  0  0  0  0  0  0  0  0  0
    7.8031  -12.2340   25.0972 C   0  0  0  0  0  0  0  0  0  0  0  0
    7.7326  -11.7538   26.3869 C   0  0  0  0  0  0  0  0  0  0  0  0
    9.8818  -16.1673   24.4299 N   0  0  0  0  0  0  0  0  0  0  0  0
   10.0326  -17.4802   25.0704 C   0  0  1  0  0  0  0  0  0  0  0  0
   11.3108  -18.1031   24.5380 C   0  0  0  0  0  0  0  0  0  0  0  0
   11.2992  -18.3679   23.0720 C   0  0  0  0  0  0  0  0  0  0  0  0
   12.6369  -18.9170   22.5805 C   0  0  0  0  0  0  0  0  0  0  0  0
   12.5572  -19.1832   21.0973 C   0  0  0  0  0  0  0  0  0  0  0  0
   13.8563  -19.7117   20.6781 N   0  0  0  0  0  0  0  0  0  0  0  0
   10.0191  -17.3729   26.5252 C   0  0  0  0  0  0  0  0  0  0  0  0
   10.0387  -16.2078   27.2659 O   0  0  0  0  0  0  0  0  0  0  0  0
    9.9862  -18.4380   27.2452 O   0  0  0  0  0  0  0  0  0  0  0  0
  1  5  1  0
  2  1  1  0
  3  2  1  0
  3  4  1  0
  4  5  1  0
  6  7  2  0
  5  6  1  1
  8  9  1  0
  9 19  2  0
  9 10  1  0
 10 11  2  0
 12 11  1  0
 12 13  1  0
 14 13  1  1
 14 16  1  0
 14 15  1  0
 15  6  1  0
 16 17  2  0
 18 12  2  0
 19 18  1  0
 20 16  1  0
 20 21  1  0
 21 27  1  0
 22 23  1  0
 21 22  1  1
 24 23  1  0
 25 24  1  0
 26 25  1  0
 27 29  2  0
 27 28  1  0
M  END
$$$$
