PYK.pdb
     RDKit          3D

 29 30  0  0  1  0  0  0  0  0999 V2000
    7.6764  -15.4182   18.6404 N   0  0  0  0  0  0  0  0  0  0  0  0
    6.8793  -14.8367   17.6042 C   0  0  0  0  0  0  0  0  0  0  0  0
    7.6865  -13.6986   17.0034 C   0  0  0  0  0  0  0  0  0  0  0  0
    8.4689  -13.2317   18.2224 C   0  0  0  0  0  0  0  0  0  0  0  0
    8.8150  -14.5682   18.8647 C   0  0  1  0  0  0  0  0  0  0  0  0
    9.1795  -14.4371   20.2760 C   0  0  0  0  0  0  0  0  0  0  0  0
   10.3607  -14.1559   20.5922 O   0  0  0  0  0  0  0  0  0  0  0  0
    7.0138  -12.3674   28.7430 O   0  0  0  0  0  0  0  0  0  0  0  0
    7.0753  -12.7052   27.3748 C   0  0  0  0  0  0  0  0  0  0  0  0
    6.5501  -13.8904   26.9165 C   0  0  0  0  0  0  0  0  0  0  0  0
    6.6171  -14.2104   25.5694 C   0  0  0  0  0  0  0  0  0  0  0  0
    7.1969  -13.3798   24.6468 C   0  0  0  0  0  0  0  0  0  0  0  0
    7.2559  -13.7175   23.2236 C   0  0  0  0  0  0  0  0  0  0  0  0
    8.4710  -14.3918   22.7144 C   0  0  2  0  0  0  0  0  0  0  0  0
    8.2069  -14.6262   21.2747 N   0  0  0  0  0  0  0  0  0  0  0  0
    8.7744  -15.7009   23.2967 C   0  0  0  0  0  0  0  0  0  0  0  0
    8.0670  -16.7393   22.9887 O   0  0  0  0  0  0  0  0  0  0  0  0
    7.7193  -12.1930   25.1274 C   0  0  0  0  0  0  0  0  0  0  0  0
    7.6619  -11.8584   26.4630 C   0  0  0  0  0  0  0  0  0  0  0  0
    9.8230  -15.9841   24.2101 N   0  0  0  0  0  0  0  0  0  0  0  0
   10.0833  -17.3536   24.6724 C   0  0  1  0  0  0  0  0  0  0  0  0
   11.5069  -17.7049   24.2787 C   0  0  0  0  0  0  0  0  0  0  0  0
   11.9746  -19.0257   24.7847 C   0  0  0  0  0  0  0  0  0  0  0  0
   13.4048  -19.3317   24.3448 C   0  0  0  0  0  0  0  0  0  0  0  0
   13.8307  -20.6646   24.9097 C   0  0  0  0  0  0  0  0  0  0  0  0
   15.1046  -21.0181   24.2812 N   0  0  0  0  0  0  0  0  0  0  0  0
    9.8420  -17.4921   26.1044 C   0  0  0  0  0  0  0  0  0  0  0  0
    9.6116  -18.6674   26.7916 O   0  0  0  0  0  0  0  0  0  0  0  0
    9.8304  -16.4481   26.8555 O   0  0  0  0  0  0  0  0  0  0  0  0
  1  5  1  0
  2  1  1  0
  3  2  1  0
  3  4  1  0
  4  5  1  0
  6  7  2  0
  5  6  1  1
  8  9  1  0
  9 19  2  0
  9 10  1  0
 10 11  2  0
 12 11  1  0
 12 13  1  0
 14 13  1  1
 14 16  1  0
 14 15  1  0
 15  6  1  0
 16 17  2  0
 18 12  2  0
 19 18  1  0
 20 16  1  0
 20 21  1  0
 21 27  1  0
 22 23  1  0
 21 22  1  1
 24 23  1  0
 25 24  1  0
 26 25  1  0
 27 29  2  0
 27 28  1  0
M  END
$$$$
