PYK.pdb
     RDKit          3D

 29 30  0  0  1  0  0  0  0  0999 V2000
    7.7325  -15.4848   19.0223 N   0  0  0  0  0  0  0  0  0  0  0  0
    7.0746  -14.8468   17.9236 C   0  0  0  0  0  0  0  0  0  0  0  0
    8.0293  -13.7990   17.3771 C   0  0  0  0  0  0  0  0  0  0  0  0
    8.7583  -13.3893   18.6487 C   0  0  0  0  0  0  0  0  0  0  0  0
    8.9265  -14.7425   19.3263 C   0  0  1  0  0  0  0  0  0  0  0  0
    9.1944  -14.6248   20.7603 C   0  0  0  0  0  0  0  0  0  0  0  0
   10.3777  -14.6354   21.1773 O   0  0  0  0  0  0  0  0  0  0  0  0
    6.6985  -11.9136   28.9826 O   0  0  0  0  0  0  0  0  0  0  0  0
    6.8073  -12.2928   27.6283 C   0  0  0  0  0  0  0  0  0  0  0  0
    7.9480  -12.0229   26.9096 C   0  0  0  0  0  0  0  0  0  0  0  0
    8.0422  -12.4009   25.5793 C   0  0  0  0  0  0  0  0  0  0  0  0
    7.0257  -13.0487   24.9277 C   0  0  0  0  0  0  0  0  0  0  0  0
    7.1340  -13.4552   23.5256 C   0  0  0  0  0  0  0  0  0  0  0  0
    8.3217  -14.2362   23.1135 C   0  0  2  0  0  0  0  0  0  0  0  0
    8.1267  -14.5000   21.6678 N   0  0  0  0  0  0  0  0  0  0  0  0
    8.4882  -15.5433   23.7526 C   0  0  0  0  0  0  0  0  0  0  0  0
    7.6134  -16.4797   23.5758 O   0  0  0  0  0  0  0  0  0  0  0  0
    5.8871  -13.3108   25.6675 C   0  0  0  0  0  0  0  0  0  0  0  0
    5.7758  -12.9423   26.9907 C   0  0  0  0  0  0  0  0  0  0  0  0
    9.5670  -15.9307   24.5893 N   0  0  0  0  0  0  0  0  0  0  0  0
    9.6247  -17.2698   25.1894 C   0  0  1  0  0  0  0  0  0  0  0  0
   10.5858  -18.1009   24.3582 C   0  0  0  0  0  0  0  0  0  0  0  0
   10.7447  -19.5060   24.8272 C   0  0  0  0  0  0  0  0  0  0  0  0
   11.7655  -20.2749   23.9908 C   0  0  0  0  0  0  0  0  0  0  0  0
   11.8453  -21.7003   24.4799 C   0  0  0  0  0  0  0  0  0  0  0  0
   12.6916  -22.4375   23.5402 N   0  0  0  0  0  0  0  0  0  0  0  0
    9.9997  -17.2117   26.5979 C   0  0  0  0  0  0  0  0  0  0  0  0
   10.3806  -16.0877   27.3037 O   0  0  0  0  0  0  0  0  0  0  0  0
    9.9945  -18.2850   27.3064 O   0  0  0  0  0  0  0  0  0  0  0  0
  1  5  1  0
  2  1  1  0
  3  2  1  0
  3  4  1  0
  4  5  1  0
  6  7  2  0
  5  6  1  1
  8  9  1  0
  9 19  2  0
  9 10  1  0
 10 11  2  0
 12 11  1  0
 12 13  1  0
 14 13  1  1
 14 16  1  0
 14 15  1  0
 15  6  1  0
 16 17  2  0
 18 12  2  0
 19 18  1  0
 20 16  1  0
 20 21  1  0
 21 27  1  0
 22 23  1  0
 21 22  1  6
 24 23  1  0
 25 24  1  0
 26 25  1  0
 27 29  2  0
 27 28  1  0
M  END
$$$$
