PYK.pdb
     RDKit          3D

 29 30  0  0  1  0  0  0  0  0999 V2000
    6.7970  -14.8199   20.6990 N   0  0  0  0  0  0  0  0  0  0  0  0
    5.9182  -13.8841   20.0673 C   0  0  0  0  0  0  0  0  0  0  0  0
    6.7765  -12.9780   19.2010 C   0  0  0  0  0  0  0  0  0  0  0  0
    8.0642  -12.9477   20.0117 C   0  0  0  0  0  0  0  0  0  0  0  0
    8.1517  -14.4011   20.4572 C   0  0  1  0  0  0  0  0  0  0  0  0
    9.0363  -14.5849   21.6085 C   0  0  0  0  0  0  0  0  0  0  0  0
   10.2726  -14.4138   21.4795 O   0  0  0  0  0  0  0  0  0  0  0  0
   10.4226  -14.7083   30.5084 O   0  0  0  0  0  0  0  0  0  0  0  0
    9.9316  -14.6853   29.1862 C   0  0  0  0  0  0  0  0  0  0  0  0
    9.4398  -15.8258   28.5964 C   0  0  0  0  0  0  0  0  0  0  0  0
    8.9603  -15.7897   27.2963 C   0  0  0  0  0  0  0  0  0  0  0  0
    8.9520  -14.6407   26.5498 C   0  0  0  0  0  0  0  0  0  0  0  0
    8.4348  -14.6053   25.1808 C   0  0  0  0  0  0  0  0  0  0  0  0
    9.3200  -15.0630   24.0866 C   0  0  2  0  0  0  0  0  0  0  0  0
    8.5005  -14.9525   22.8563 N   0  0  0  0  0  0  0  0  0  0  0  0
    9.7693  -16.4550   24.1595 C   0  0  0  0  0  0  0  0  0  0  0  0
    8.9275  -17.4275   24.0200 O   0  0  0  0  0  0  0  0  0  0  0  0
    9.4508  -13.5047   27.1606 C   0  0  0  0  0  0  0  0  0  0  0  0
    9.9317  -13.5220   28.4519 C   0  0  0  0  0  0  0  0  0  0  0  0
   11.1033  -16.8904   24.3706 N   0  0  0  0  0  0  0  0  0  0  0  0
   11.4194  -18.3098   24.5760 C   0  0  1  0  0  0  0  0  0  0  0  0
   12.6480  -18.6285   23.7429 C   0  0  0  0  0  0  0  0  0  0  0  0
   12.3466  -19.1081   22.3649 C   0  0  0  0  0  0  0  0  0  0  0  0
   13.6183  -19.4063   21.5735 C   0  0  0  0  0  0  0  0  0  0  0  0
   13.2510  -19.8372   20.1747 C   0  0  0  0  0  0  0  0  0  0  0  0
   14.4972  -19.9779   19.4198 N   0  0  0  0  0  0  0  0  0  0  0  0
   11.5985  -18.6212   25.9899 C   0  0  0  0  0  0  0  0  0  0  0  0
   12.1802  -17.8112   26.9450 O   0  0  0  0  0  0  0  0  0  0  0  0
   11.1937  -19.7507   26.4528 O   0  0  0  0  0  0  0  0  0  0  0  0
  1  5  1  0
  2  1  1  0
  3  2  1  0
  3  4  1  0
  4  5  1  0
  6  7  2  0
  5  6  1  1
  8  9  1  0
  9 19  2  0
  9 10  1  0
 10 11  2  0
 12 11  1  0
 12 13  1  0
 14 13  1  1
 14 16  1  0
 14 15  1  0
 15  6  1  0
 16 17  2  0
 18 12  2  0
 19 18  1  0
 20 16  1  0
 20 21  1  0
 21 27  1  0
 22 23  1  0
 21 22  1  6
 24 23  1  0
 25 24  1  0
 26 25  1  0
 27 29  2  0
 27 28  1  0
M  END
$$$$
