PYK.pdb
     RDKit          3D

 29 30  0  0  1  0  0  0  0  0999 V2000
    7.8389  -15.4896   18.6712 N   0  0  0  0  0  0  0  0  0  0  0  0
    7.1446  -15.0135   17.5144 C   0  0  0  0  0  0  0  0  0  0  0  0
    8.0322  -13.9705   16.8569 C   0  0  0  0  0  0  0  0  0  0  0  0
    8.7306  -13.3841   18.0753 C   0  0  0  0  0  0  0  0  0  0  0  0
    8.9827  -14.6452   18.8905 C   0  0  1  0  0  0  0  0  0  0  0  0
    9.2390  -14.3607   20.3031 C   0  0  0  0  0  0  0  0  0  0  0  0
   10.3032  -13.7888   20.6416 O   0  0  0  0  0  0  0  0  0  0  0  0
    6.7064  -12.3261   28.6266 O   0  0  0  0  0  0  0  0  0  0  0  0
    6.8289  -12.7172   27.2768 C   0  0  0  0  0  0  0  0  0  0  0  0
    6.3077  -13.9116   26.8384 C   0  0  0  0  0  0  0  0  0  0  0  0
    6.4349  -14.2842   25.5092 C   0  0  0  0  0  0  0  0  0  0  0  0
    7.0723  -13.4980   24.5855 C   0  0  0  0  0  0  0  0  0  0  0  0
    7.1949  -13.8910   23.1807 C   0  0  0  0  0  0  0  0  0  0  0  0
    8.4807  -14.4649   22.7247 C   0  0  2  0  0  0  0  0  0  0  0  0
    8.2935  -14.7281   21.2779 N   0  0  0  0  0  0  0  0  0  0  0  0
    8.8683  -15.7411   23.3294 C   0  0  0  0  0  0  0  0  0  0  0  0
    8.2234  -16.8268   23.0480 O   0  0  0  0  0  0  0  0  0  0  0  0
    7.5896  -12.3011   25.0461 C   0  0  0  0  0  0  0  0  0  0  0  0
    7.4727  -11.9146   26.3637 C   0  0  0  0  0  0  0  0  0  0  0  0
    9.9394  -15.9415   24.2386 N   0  0  0  0  0  0  0  0  0  0  0  0
   10.2490  -17.2747   24.7713 C   0  0  1  0  0  0  0  0  0  0  0  0
   11.7029  -17.5686   24.4476 C   0  0  0  0  0  0  0  0  0  0  0  0
   12.1978  -18.8701   24.9774 C   0  0  0  0  0  0  0  0  0  0  0  0
   13.6342  -19.1542   24.5429 C   0  0  0  0  0  0  0  0  0  0  0  0
   14.0585  -20.5065   25.0611 C   0  0  0  0  0  0  0  0  0  0  0  0
   15.4627  -20.6942   24.6930 N   0  0  0  0  0  0  0  0  0  0  0  0
    9.9579  -17.3640   26.1979 C   0  0  0  0  0  0  0  0  0  0  0  0
    9.5436  -16.3353   27.0206 O   0  0  0  0  0  0  0  0  0  0  0  0
   10.0823  -18.4897   26.8073 O   0  0  0  0  0  0  0  0  0  0  0  0
  1  5  1  0
  2  1  1  0
  3  2  1  0
  3  4  1  0
  4  5  1  0
  6  7  2  0
  5  6  1  1
  8  9  1  0
  9 19  2  0
  9 10  1  0
 10 11  2  0
 12 11  1  0
 12 13  1  0
 14 13  1  1
 14 16  1  0
 14 15  1  0
 15  6  1  0
 16 17  2  0
 18 12  2  0
 19 18  1  0
 20 16  1  0
 20 21  1  0
 21 27  1  0
 22 23  1  0
 21 22  1  1
 24 23  1  0
 25 24  1  0
 26 25  1  0
 27 29  2  0
 27 28  1  0
M  END
$$$$
