SNR.pdb
     RDKit          3D

 26 25  0  0  1  0  0  0  0  0999 V2000
   19.1414  -21.9694  -12.6928 O   0  0  0  0  0  0  0  0  0  0  0  0
   20.3630  -22.5693  -13.0236 C   0  0  0  0  0  0  0  0  0  0  0  0
   20.0420  -23.8047  -13.8345 C   0  0  2  0  0  0  0  0  0  0  0  0
   19.1766  -23.4344  -14.9449 N   0  0  0  0  0  0  0  0  0  0  0  0
   19.4042  -24.8597  -13.0125 C   0  0  0  0  0  0  0  0  0  0  0  0
   18.1896  -25.0880  -13.1487 O   0  0  0  0  0  0  0  0  0  0  0  0
   18.4739  -28.8650   -9.7674 N   0  0  0  0  0  0  0  0  0  0  0  0
   19.8538  -28.7514   -9.9498 C   0  0  0  0  0  0  0  0  0  0  0  0
   20.5758  -29.6912   -9.4573 O   0  0  0  0  0  0  0  0  0  0  0  0
   20.5488  -27.6309  -10.6682 C   0  0  0  0  0  0  0  0  0  0  0  0
   19.5429  -26.6463  -11.2149 C   0  0  2  0  0  0  0  0  0  0  0  0
   20.1129  -25.6429  -12.0588 N   0  0  0  0  0  0  0  0  0  0  0  0
   18.8489  -25.9552  -10.0655 C   0  0  0  0  0  0  0  0  0  0  0  0
   19.4518  -25.0352   -9.4340 O   0  0  0  0  0  0  0  0  0  0  0  0
   19.2666  -26.2882   -2.1981 N   0  0  0  0  0  0  0  0  0  0  0  0
   17.9560  -26.6517   -2.6306 C   0  0  0  0  0  0  0  0  0  0  0  0
   17.2508  -27.4615   -1.9174 N   0  0  0  0  0  0  0  0  0  0  0  0
   17.3760  -26.1607   -3.8258 N   0  0  0  0  0  0  0  0  0  0  0  0
   18.2024  -25.4491   -4.8317 C   0  0  0  0  0  0  0  0  0  0  0  0
   17.3409  -25.2267   -6.0073 C   0  0  0  0  0  0  0  0  0  0  0  0
   17.6689  -25.8166   -7.3056 C   0  0  0  0  0  0  0  0  0  0  0  0
   16.8499  -25.6354   -8.5031 C   0  0  2  0  0  0  0  0  0  0  0  0
   17.5506  -26.2951   -9.6675 N   0  0  0  0  0  0  0  0  0  0  0  0
   16.6463  -24.2207   -8.9360 C   0  0  0  0  0  0  0  0  0  0  0  0
   16.1389  -23.3321   -7.9515 O   0  0  0  0  0  0  0  0  0  0  0  0
   16.8594  -23.7118  -10.0291 O   0  0  0  0  0  0  0  0  0  0  0  0
  2  1  1  0
  3  2  1  0
  3  4  1  6
  5  6  2  0
  5  3  1  0
  7  8  1  0
  8 10  1  0
  9  8  2  0
 11 10  1  1
 11 12  1  0
 12  5  1  0
 13 11  1  0
 13 23  1  0
 14 13  2  0
 16 17  2  0
 16 15  1  0
 18 16  1  0
 19 18  1  0
 20 19  1  0
 22 21  1  1
 21 20  1  0
 22 23  1  0
 22 24  1  0
 24 25  1  0
 26 24  2  0
M  END
$$$$
