SNR.pdb
     RDKit          3D

 26 25  0  0  1  0  0  0  0  0999 V2000
   28.1095  -18.3913  -16.1040 O   0  0  0  0  0  0  0  0  0  0  0  0
   26.9006  -18.9592  -15.6822 C   0  0  0  0  0  0  0  0  0  0  0  0
   27.2397  -20.2747  -15.0181 C   0  0  2  0  0  0  0  0  0  0  0  0
   27.7080  -21.2120  -16.0286 N   0  0  0  0  0  0  0  0  0  0  0  0
   26.0840  -20.8418  -14.2842 C   0  0  0  0  0  0  0  0  0  0  0  0
   25.4125  -21.7467  -14.8096 O   0  0  0  0  0  0  0  0  0  0  0  0
   26.6428  -20.5041   -9.2807 N   0  0  0  0  0  0  0  0  0  0  0  0
   25.7764  -21.1502  -10.1651 C   0  0  0  0  0  0  0  0  0  0  0  0
   26.0532  -22.3708  -10.4489 O   0  0  0  0  0  0  0  0  0  0  0  0
   24.5623  -20.5363  -10.8006 C   0  0  0  0  0  0  0  0  0  0  0  0
   24.5271  -20.8390  -12.2796 C   0  0  2  0  0  0  0  0  0  0  0  0
   25.6900  -20.4045  -12.9885 N   0  0  0  0  0  0  0  0  0  0  0  0
   23.3229  -20.1676  -12.8955 C   0  0  0  0  0  0  0  0  0  0  0  0
   23.3526  -18.9207  -13.1260 O   0  0  0  0  0  0  0  0  0  0  0  0
   23.8514  -15.8598  -17.4215 N   0  0  0  0  0  0  0  0  0  0  0  0
   22.8205  -16.4210  -18.2334 C   0  0  0  0  0  0  0  0  0  0  0  0
   22.4438  -15.8056  -19.3017 N   0  0  0  0  0  0  0  0  0  0  0  0
   22.1755  -17.6430  -17.9227 N   0  0  0  0  0  0  0  0  0  0  0  0
   22.5161  -18.3854  -16.6841 C   0  0  0  0  0  0  0  0  0  0  0  0
   21.6625  -19.5874  -16.6621 C   0  0  0  0  0  0  0  0  0  0  0  0
   21.7771  -20.5748  -15.5884 C   0  0  0  0  0  0  0  0  0  0  0  0
   21.1769  -20.4012  -14.2666 C   0  0  2  0  0  0  0  0  0  0  0  0
   22.1629  -20.8780  -13.2260 N   0  0  0  0  0  0  0  0  0  0  0  0
   19.9410  -21.1995  -14.0108 C   0  0  0  0  0  0  0  0  0  0  0  0
   20.1360  -22.5690  -13.6904 O   0  0  0  0  0  0  0  0  0  0  0  0
   18.7716  -20.8372  -14.0353 O   0  0  0  0  0  0  0  0  0  0  0  0
  2  1  1  0
  3  2  1  0
  3  4  1  6
  5  6  2  0
  5  3  1  0
  7  8  1  0
  8 10  1  0
  9  8  2  0
 11 10  1  1
 11 12  1  0
 12  5  1  0
 13 11  1  0
 13 23  1  0
 14 13  2  0
 16 17  2  0
 16 15  1  0
 18 16  1  0
 19 18  1  0
 20 19  1  0
 22 21  1  6
 21 20  1  0
 22 23  1  0
 22 24  1  0
 24 25  1  0
 26 24  2  0
M  END
$$$$
