SNR.pdb
     RDKit          3D

 26 25  0  0  1  0  0  0  0  0999 V2000
   27.0858  -17.0159  -16.6485 O   0  0  0  0  0  0  0  0  0  0  0  0
   26.7913  -18.3787  -16.5151 C   0  0  0  0  0  0  0  0  0  0  0  0
   28.0089  -19.0350  -15.9041 C   0  0  2  0  0  0  0  0  0  0  0  0
   28.8038  -19.6429  -16.9613 N   0  0  0  0  0  0  0  0  0  0  0  0
   27.6433  -20.0478  -14.8861 C   0  0  0  0  0  0  0  0  0  0  0  0
   28.5397  -20.7124  -14.3378 O   0  0  0  0  0  0  0  0  0  0  0  0
   25.1308  -21.7069  -10.6122 N   0  0  0  0  0  0  0  0  0  0  0  0
   25.9297  -20.5695  -10.7482 C   0  0  0  0  0  0  0  0  0  0  0  0
   26.2916  -19.9905   -9.6615 O   0  0  0  0  0  0  0  0  0  0  0  0
   26.3925  -19.9799  -12.0493 C   0  0  0  0  0  0  0  0  0  0  0  0
   25.8897  -20.8009  -13.2126 C   0  0  2  0  0  0  0  0  0  0  0  0
   26.3016  -20.3094  -14.4904 N   0  0  0  0  0  0  0  0  0  0  0  0
   24.3802  -20.8301  -13.1845 C   0  0  0  0  0  0  0  0  0  0  0  0
   23.7315  -19.7510  -13.3377 O   0  0  0  0  0  0  0  0  0  0  0  0
   20.0150  -28.4391  -13.4481 N   0  0  0  0  0  0  0  0  0  0  0  0
   20.7698  -27.6725  -14.3859 C   0  0  0  0  0  0  0  0  0  0  0  0
   21.4290  -28.2730  -15.3168 N   0  0  0  0  0  0  0  0  0  0  0  0
   20.8354  -26.2582  -14.3483 N   0  0  0  0  0  0  0  0  0  0  0  0
   20.1494  -25.4967  -13.2756 C   0  0  0  0  0  0  0  0  0  0  0  0
   20.4825  -24.0758  -13.4851 C   0  0  0  0  0  0  0  0  0  0  0  0
   21.8311  -23.5706  -13.2257 C   0  0  0  0  0  0  0  0  0  0  0  0
   22.2076  -22.1657  -13.3735 C   0  0  2  0  0  0  0  0  0  0  0  0
   23.6624  -22.0168  -12.9945 N   0  0  0  0  0  0  0  0  0  0  0  0
   21.4849  -21.2084  -12.4838 C   0  0  0  0  0  0  0  0  0  0  0  0
   20.2843  -20.6562  -13.0034 O   0  0  0  0  0  0  0  0  0  0  0  0
   21.7813  -20.8300  -11.3576 O   0  0  0  0  0  0  0  0  0  0  0  0
  2  1  1  0
  3  2  1  0
  3  4  1  6
  5  6  2  0
  5  3  1  0
  7  8  1  0
  8 10  1  0
  9  8  2  0
 11 10  1  1
 11 12  1  0
 12  5  1  0
 13 11  1  0
 13 23  1  0
 14 13  2  0
 16 17  2  0
 16 15  1  0
 18 16  1  0
 19 18  1  0
 20 19  1  0
 22 21  1  1
 21 20  1  0
 22 23  1  0
 22 24  1  0
 24 25  1  0
 26 24  2  0
M  END
$$$$
