SNR.pdb
     RDKit          3D

 26 25  0  0  1  0  0  0  0  0999 V2000
   15.6497  -12.0341  -11.2158 O   0  0  0  0  0  0  0  0  0  0  0  0
   15.3765  -12.0144   -9.8422 C   0  0  0  0  0  0  0  0  0  0  0  0
   14.0705  -11.2735   -9.6631 C   0  0  2  0  0  0  0  0  0  0  0  0
   13.0550  -11.8867  -10.5068 N   0  0  0  0  0  0  0  0  0  0  0  0
   14.2011   -9.8314   -9.9780 C   0  0  0  0  0  0  0  0  0  0  0  0
   13.6566   -9.3787  -10.9999 O   0  0  0  0  0  0  0  0  0  0  0  0
   15.4353   -4.7177   -9.8566 N   0  0  0  0  0  0  0  0  0  0  0  0
   15.3883   -5.2249   -8.5562 C   0  0  0  0  0  0  0  0  0  0  0  0
   15.4787   -4.3691   -7.6041 O   0  0  0  0  0  0  0  0  0  0  0  0
   15.2413   -6.6737   -8.1905 C   0  0  0  0  0  0  0  0  0  0  0  0
   15.1042   -7.5231   -9.4314 C   0  0  2  0  0  0  0  0  0  0  0  0
   14.9258   -8.9162   -9.1641 N   0  0  0  0  0  0  0  0  0  0  0  0
   16.3412   -7.3625  -10.2826 C   0  0  0  0  0  0  0  0  0  0  0  0
   17.4756   -7.6570   -9.7978 O   0  0  0  0  0  0  0  0  0  0  0  0
   19.7720  -10.5988  -17.3908 N   0  0  0  0  0  0  0  0  0  0  0  0
   18.6417  -10.8730  -16.5636 C   0  0  0  0  0  0  0  0  0  0  0  0
   18.0320  -12.0037  -16.6713 N   0  0  0  0  0  0  0  0  0  0  0  0
   18.1431   -9.9509  -15.6112 N   0  0  0  0  0  0  0  0  0  0  0  0
   17.8646   -8.5445  -15.9927 C   0  0  0  0  0  0  0  0  0  0  0  0
   18.1755   -7.7160  -14.8134 C   0  0  0  0  0  0  0  0  0  0  0  0
   17.2579   -7.6483  -13.6756 C   0  0  0  0  0  0  0  0  0  0  0  0
   17.4942   -6.8143  -12.4983 C   0  0  2  0  0  0  0  0  0  0  0  0
   16.2815   -6.8965  -11.6012 N   0  0  0  0  0  0  0  0  0  0  0  0
   17.6681   -5.3555  -12.7670 C   0  0  0  0  0  0  0  0  0  0  0  0
   16.4751   -4.6035  -12.9328 O   0  0  0  0  0  0  0  0  0  0  0  0
   18.7031   -4.7083  -12.8628 O   0  0  0  0  0  0  0  0  0  0  0  0
  2  1  1  0
  3  2  1  0
  3  4  1  6
  5  6  2  0
  5  3  1  0
  7  8  1  0
  8 10  1  0
  9  8  2  0
 11 10  1  1
 11 12  1  0
 12  5  1  0
 13 11  1  0
 13 23  1  0
 14 13  2  0
 16 17  2  0
 16 15  1  0
 18 16  1  0
 19 18  1  0
 20 19  1  0
 22 21  1  6
 21 20  1  0
 22 23  1  0
 22 24  1  0
 24 25  1  0
 26 24  2  0
M  END
$$$$
