SNR.pdb
     RDKit          3D

 26 25  0  0  1  0  0  0  0  0999 V2000
   25.0430  -22.0628  -18.5659 O   0  0  0  0  0  0  0  0  0  0  0  0
   25.9750  -21.1937  -17.9847 C   0  0  0  0  0  0  0  0  0  0  0  0
   26.5516  -21.9060  -16.7819 C   0  0  2  0  0  0  0  0  0  0  0  0
   27.2119  -23.1264  -17.2220 N   0  0  0  0  0  0  0  0  0  0  0  0
   25.5154  -22.2162  -15.7692 C   0  0  0  0  0  0  0  0  0  0  0  0
   25.4820  -23.3491  -15.2581 O   0  0  0  0  0  0  0  0  0  0  0  0
   21.7055  -21.8664  -12.1778 N   0  0  0  0  0  0  0  0  0  0  0  0
   22.2276  -20.5975  -12.4379 C   0  0  0  0  0  0  0  0  0  0  0  0
   21.8189  -19.6440  -11.6823 O   0  0  0  0  0  0  0  0  0  0  0  0
   23.2172  -20.2667  -13.5177 C   0  0  0  0  0  0  0  0  0  0  0  0
   23.5581  -21.4992  -14.3209 C   0  0  2  0  0  0  0  0  0  0  0  0
   24.5378  -21.2762  -15.3379 N   0  0  0  0  0  0  0  0  0  0  0  0
   22.3057  -22.0237  -14.9816 C   0  0  0  0  0  0  0  0  0  0  0  0
   21.8515  -21.4398  -16.0119 O   0  0  0  0  0  0  0  0  0  0  0  0
   19.5449  -29.0565  -12.4208 N   0  0  0  0  0  0  0  0  0  0  0  0
   20.0273  -27.9142  -11.7141 C   0  0  0  0  0  0  0  0  0  0  0  0
   20.9250  -28.0616  -10.8006 N   0  0  0  0  0  0  0  0  0  0  0  0
   19.5636  -26.6001  -11.9671 N   0  0  0  0  0  0  0  0  0  0  0  0
   18.5325  -26.3475  -13.0035 C   0  0  0  0  0  0  0  0  0  0  0  0
   18.9074  -25.0906  -13.6768 C   0  0  0  0  0  0  0  0  0  0  0  0
   20.0978  -25.0144  -14.5243 C   0  0  0  0  0  0  0  0  0  0  0  0
   20.4945  -23.8089  -15.2501 C   0  0  2  0  0  0  0  0  0  0  0  0
   21.6205  -23.1430  -14.4946 N   0  0  0  0  0  0  0  0  0  0  0  0
   19.4437  -22.7545  -15.3702 C   0  0  0  0  0  0  0  0  0  0  0  0
   18.5943  -22.8443  -16.5046 O   0  0  0  0  0  0  0  0  0  0  0  0
   19.2058  -21.8158  -14.6209 O   0  0  0  0  0  0  0  0  0  0  0  0
  2  1  1  0
  3  2  1  0
  3  4  1  6
  5  6  2  0
  5  3  1  0
  7  8  1  0
  8 10  1  0
  9  8  2  0
 11 10  1  6
 11 12  1  0
 12  5  1  0
 13 11  1  0
 13 23  1  0
 14 13  2  0
 16 17  2  0
 16 15  1  0
 18 16  1  0
 19 18  1  0
 20 19  1  0
 22 21  1  1
 21 20  1  0
 22 23  1  0
 22 24  1  0
 24 25  1  0
 26 24  2  0
M  END
$$$$
