SNR.pdb
     RDKit          3D

 26 25  0  0  1  0  0  0  0  0999 V2000
   15.0577   -9.0222   -7.5136 O   0  0  0  0  0  0  0  0  0  0  0  0
   15.3638   -8.3911   -8.7260 C   0  0  0  0  0  0  0  0  0  0  0  0
   15.9740   -7.0506   -8.3834 C   0  0  2  0  0  0  0  0  0  0  0  0
   14.9219   -6.1471   -7.9409 N   0  0  0  0  0  0  0  0  0  0  0  0
   16.7094   -6.4649   -9.5287 C   0  0  0  0  0  0  0  0  0  0  0  0
   16.1349   -5.6473  -10.2684 O   0  0  0  0  0  0  0  0  0  0  0  0
   20.2847   -5.6028  -13.3121 N   0  0  0  0  0  0  0  0  0  0  0  0
   20.9255   -6.1589  -12.2028 C   0  0  0  0  0  0  0  0  0  0  0  0
   22.2079   -6.1932  -12.2397 O   0  0  0  0  0  0  0  0  0  0  0  0
   20.2400   -6.7116  -10.9866 C   0  0  0  0  0  0  0  0  0  0  0  0
   18.7654   -6.3875  -11.0152 C   0  0  2  0  0  0  0  0  0  0  0  0
   18.0605   -6.7881   -9.8377 N   0  0  0  0  0  0  0  0  0  0  0  0
   18.1289   -7.0735  -12.2003 C   0  0  0  0  0  0  0  0  0  0  0  0
   18.2503   -8.3288  -12.3349 O   0  0  0  0  0  0  0  0  0  0  0  0
   11.5235   -9.7196  -13.3232 N   0  0  0  0  0  0  0  0  0  0  0  0
   11.8528   -9.1576  -12.0533 C   0  0  0  0  0  0  0  0  0  0  0  0
   11.5656   -9.8044  -10.9758 N   0  0  0  0  0  0  0  0  0  0  0  0
   12.4912   -7.9015  -11.9097 N   0  0  0  0  0  0  0  0  0  0  0  0
   12.9979   -7.1697  -13.0967 C   0  0  0  0  0  0  0  0  0  0  0  0
   14.4458   -7.4371  -13.1732 C   0  0  0  0  0  0  0  0  0  0  0  0
   15.2735   -6.8198  -14.2100 C   0  0  0  0  0  0  0  0  0  0  0  0
   16.7136   -7.0418  -14.3299 C   0  0  2  0  0  0  0  0  0  0  0  0
   17.4012   -6.3679  -13.1658 N   0  0  0  0  0  0  0  0  0  0  0  0
   17.3571   -6.4530  -15.5421 C   0  0  0  0  0  0  0  0  0  0  0  0
   17.4002   -7.2833  -16.6932 O   0  0  0  0  0  0  0  0  0  0  0  0
   17.8554   -5.3440  -15.6875 O   0  0  0  0  0  0  0  0  0  0  0  0
  2  1  1  0
  3  2  1  0
  3  4  1  6
  5  6  2  0
  5  3  1  0
  7  8  1  0
  8 10  1  0
  9  8  2  0
 11 10  1  1
 11 12  1  0
 12  5  1  0
 13 11  1  0
 13 23  1  0
 14 13  2  0
 16 17  2  0
 16 15  1  0
 18 16  1  0
 19 18  1  0
 20 19  1  0
 22 21  1  6
 21 20  1  0
 22 23  1  0
 22 24  1  0
 24 25  1  0
 26 24  2  0
M  END
$$$$
