SNR.pdb
     RDKit          3D

 26 25  0  0  1  0  0  0  0  0999 V2000
   29.6752  -24.0839  -18.9695 O   0  0  0  0  0  0  0  0  0  0  0  0
   28.6597  -23.3088  -18.3953 C   0  0  0  0  0  0  0  0  0  0  0  0
   28.8912  -23.3160  -16.9010 C   0  0  2  0  0  0  0  0  0  0  0  0
   28.5712  -24.6353  -16.3755 N   0  0  0  0  0  0  0  0  0  0  0  0
   28.0926  -22.2772  -16.2091 C   0  0  0  0  0  0  0  0  0  0  0  0
   27.3764  -22.5999  -15.2454 O   0  0  0  0  0  0  0  0  0  0  0  0
   26.3254  -17.6685  -14.4149 N   0  0  0  0  0  0  0  0  0  0  0  0
   27.2817  -17.4236  -15.4027 C   0  0  0  0  0  0  0  0  0  0  0  0
   27.6199  -16.1985  -15.5813 O   0  0  0  0  0  0  0  0  0  0  0  0
   27.9366  -18.4680  -16.2600 C   0  0  0  0  0  0  0  0  0  0  0  0
   27.4384  -19.8452  -15.8921 C   0  0  2  0  0  0  0  0  0  0  0  0
   28.0973  -20.9057  -16.5888 N   0  0  0  0  0  0  0  0  0  0  0  0
   25.9606  -19.9348  -16.1890 C   0  0  0  0  0  0  0  0  0  0  0  0
   25.5701  -20.0391  -17.3913 O   0  0  0  0  0  0  0  0  0  0  0  0
   19.1157  -23.1420  -11.1576 N   0  0  0  0  0  0  0  0  0  0  0  0
   18.7118  -22.8574  -12.4965 C   0  0  0  0  0  0  0  0  0  0  0  0
   17.5629  -23.2647  -12.9163 N   0  0  0  0  0  0  0  0  0  0  0  0
   19.5216  -22.1369  -13.4081 N   0  0  0  0  0  0  0  0  0  0  0  0
   20.9429  -21.8494  -13.0946 C   0  0  0  0  0  0  0  0  0  0  0  0
   21.4932  -21.1205  -14.2520 C   0  0  0  0  0  0  0  0  0  0  0  0
   22.9074  -20.7490  -14.3069 C   0  0  0  0  0  0  0  0  0  0  0  0
   23.5171  -20.0644  -15.4459 C   0  0  2  0  0  0  0  0  0  0  0  0
   24.9952  -19.9074  -15.1757 N   0  0  0  0  0  0  0  0  0  0  0  0
   23.0291  -18.6759  -15.6991 C   0  0  0  0  0  0  0  0  0  0  0  0
   22.0472  -18.5336  -16.7150 O   0  0  0  0  0  0  0  0  0  0  0  0
   23.3559  -17.6324  -15.1481 O   0  0  0  0  0  0  0  0  0  0  0  0
  2  1  1  0
  3  2  1  0
  3  4  1  1
  5  6  2  0
  5  3  1  0
  7  8  1  0
  8 10  1  0
  9  8  2  0
 11 10  1  6
 11 12  1  0
 12  5  1  0
 13 11  1  0
 13 23  1  0
 14 13  2  0
 16 17  2  0
 16 15  1  0
 18 16  1  0
 19 18  1  0
 20 19  1  0
 22 21  1  1
 21 20  1  0
 22 23  1  0
 22 24  1  0
 24 25  1  0
 26 24  2  0
M  END
$$$$
