SNR.pdb
     RDKit          3D

 26 25  0  0  1  0  0  0  0  0999 V2000
   26.2731  -23.6587  -16.6320 O   0  0  0  0  0  0  0  0  0  0  0  0
   27.1906  -23.3033  -17.6288 C   0  0  0  0  0  0  0  0  0  0  0  0
   27.7951  -21.9791  -17.2194 C   0  0  2  0  0  0  0  0  0  0  0  0
   28.6464  -22.1830  -16.0563 N   0  0  0  0  0  0  0  0  0  0  0  0
   26.7591  -20.9604  -16.9285 C   0  0  0  0  0  0  0  0  0  0  0  0
   26.5805  -20.5901  -15.7551 O   0  0  0  0  0  0  0  0  0  0  0  0
   25.9932  -17.6440  -20.8084 N   0  0  0  0  0  0  0  0  0  0  0  0
   25.5657  -17.7387  -19.4823 C   0  0  0  0  0  0  0  0  0  0  0  0
   26.1422  -16.9630  -18.6379 O   0  0  0  0  0  0  0  0  0  0  0  0
   24.4979  -18.6644  -18.9747 C   0  0  0  0  0  0  0  0  0  0  0  0
   24.9532  -19.3587  -17.7134 C   0  0  2  0  0  0  0  0  0  0  0  0
   25.9411  -20.3688  -17.9316 N   0  0  0  0  0  0  0  0  0  0  0  0
   23.7629  -20.0023  -17.0433 C   0  0  0  0  0  0  0  0  0  0  0  0
   23.5380  -21.2378  -17.2216 O   0  0  0  0  0  0  0  0  0  0  0  0
   26.1783  -22.0464  -10.8388 N   0  0  0  0  0  0  0  0  0  0  0  0
   24.9202  -21.4882  -10.4615 C   0  0  0  0  0  0  0  0  0  0  0  0
   24.7093  -21.1640   -9.2318 N   0  0  0  0  0  0  0  0  0  0  0  0
   23.8687  -21.2667  -11.3842 N   0  0  0  0  0  0  0  0  0  0  0  0
   24.0566  -21.5494  -12.8284 C   0  0  0  0  0  0  0  0  0  0  0  0
   23.3246  -20.5021  -13.5641 C   0  0  0  0  0  0  0  0  0  0  0  0
   22.2551  -20.8458  -14.5017 C   0  0  0  0  0  0  0  0  0  0  0  0
   21.7271  -19.9153  -15.4981 C   0  0  2  0  0  0  0  0  0  0  0  0
   22.8895  -19.2785  -16.2230 N   0  0  0  0  0  0  0  0  0  0  0  0
   20.9444  -18.7655  -14.9544 C   0  0  0  0  0  0  0  0  0  0  0  0
   21.3865  -17.4714  -15.3366 O   0  0  0  0  0  0  0  0  0  0  0  0
   19.9640  -18.7797  -14.2209 O   0  0  0  0  0  0  0  0  0  0  0  0
  2  1  1  0
  3  2  1  0
  3  4  1  1
  5  6  2  0
  5  3  1  0
  7  8  1  0
  8 10  1  0
  9  8  2  0
 11 10  1  6
 11 12  1  0
 12  5  1  0
 13 11  1  0
 13 23  1  0
 14 13  2  0
 16 17  2  0
 16 15  1  0
 18 16  1  0
 19 18  1  0
 20 19  1  0
 22 21  1  1
 21 20  1  0
 22 23  1  0
 22 24  1  0
 24 25  1  0
 26 24  2  0
M  END
$$$$
