SNR.pdb
     RDKit          3D

 26 25  0  0  1  0  0  0  0  0999 V2000
   27.5246  -13.8724  -20.1860 O   0  0  0  0  0  0  0  0  0  0  0  0
   27.1220  -14.0898  -18.8621 C   0  0  0  0  0  0  0  0  0  0  0  0
   25.6842  -14.5558  -18.9096 C   0  0  2  0  0  0  0  0  0  0  0  0
   24.8137  -13.4002  -19.0701 N   0  0  0  0  0  0  0  0  0  0  0  0
   25.3071  -15.3218  -17.6985 C   0  0  0  0  0  0  0  0  0  0  0  0
   24.3301  -14.9534  -17.0236 O   0  0  0  0  0  0  0  0  0  0  0  0
   23.6350  -18.6254  -13.9957 N   0  0  0  0  0  0  0  0  0  0  0  0
   23.9501  -18.9649  -15.3133 C   0  0  0  0  0  0  0  0  0  0  0  0
   23.9764  -20.2175  -15.5912 O   0  0  0  0  0  0  0  0  0  0  0  0
   24.2554  -17.9915  -16.4150 C   0  0  0  0  0  0  0  0  0  0  0  0
   25.6016  -17.3443  -16.1934 C   0  0  2  0  0  0  0  0  0  0  0  0
   26.0098  -16.4767  -17.2539 N   0  0  0  0  0  0  0  0  0  0  0  0
   26.6500  -18.4197  -16.0360 C   0  0  0  0  0  0  0  0  0  0  0  0
   26.7157  -19.3574  -16.8875 O   0  0  0  0  0  0  0  0  0  0  0  0
   25.0474  -20.0407   -8.8684 N   0  0  0  0  0  0  0  0  0  0  0  0
   24.6355  -20.4522  -10.1715 C   0  0  0  0  0  0  0  0  0  0  0  0
   23.4161  -20.2628  -10.5444 N   0  0  0  0  0  0  0  0  0  0  0  0
   25.5121  -21.0705  -11.0963 N   0  0  0  0  0  0  0  0  0  0  0  0
   26.9748  -21.0993  -10.8501 C   0  0  0  0  0  0  0  0  0  0  0  0
   27.6284  -21.0110  -12.1688 C   0  0  0  0  0  0  0  0  0  0  0  0
   27.4010  -19.8639  -13.0483 C   0  0  0  0  0  0  0  0  0  0  0  0
   28.0758  -19.6874  -14.3333 C   0  0  2  0  0  0  0  0  0  0  0  0
   27.5624  -18.4196  -14.9744 N   0  0  0  0  0  0  0  0  0  0  0  0
   27.8204  -20.7543  -15.3466 C   0  0  0  0  0  0  0  0  0  0  0  0
   28.9178  -21.6017  -15.6529 O   0  0  0  0  0  0  0  0  0  0  0  0
   26.7883  -21.0070  -15.9551 O   0  0  0  0  0  0  0  0  0  0  0  0
  2  1  1  0
  3  2  1  0
  3  4  1  1
  5  6  2  0
  5  3  1  0
  7  8  1  0
  8 10  1  0
  9  8  2  0
 11 10  1  6
 11 12  1  0
 12  5  1  0
 13 11  1  0
 13 23  1  0
 14 13  2  0
 16 17  2  0
 16 15  1  0
 18 16  1  0
 19 18  1  0
 20 19  1  0
 22 21  1  1
 21 20  1  0
 22 23  1  0
 22 24  1  0
 24 25  1  0
 26 24  2  0
M  END
$$$$
