SNR.pdb
     RDKit          3D

 26 25  0  0  1  0  0  0  0  0999 V2000
   26.7790  -24.6782  -18.6472 O   0  0  0  0  0  0  0  0  0  0  0  0
   28.1461  -24.8241  -18.9148 C   0  0  0  0  0  0  0  0  0  0  0  0
   28.8584  -24.8277  -17.5809 C   0  0  2  0  0  0  0  0  0  0  0  0
   28.4963  -26.0336  -16.8504 N   0  0  0  0  0  0  0  0  0  0  0  0
   28.5420  -23.6232  -16.7778 C   0  0  0  0  0  0  0  0  0  0  0  0
   29.0798  -23.4724  -15.6670 O   0  0  0  0  0  0  0  0  0  0  0  0
   29.0563  -19.1354  -16.1595 N   0  0  0  0  0  0  0  0  0  0  0  0
   28.0689  -19.1189  -17.1469 C   0  0  0  0  0  0  0  0  0  0  0  0
   28.0152  -18.0710  -17.8858 O   0  0  0  0  0  0  0  0  0  0  0  0
   27.0791  -20.2174  -17.4081 C   0  0  0  0  0  0  0  0  0  0  0  0
   27.3483  -21.3995  -16.5079 C   0  0  2  0  0  0  0  0  0  0  0  0
   27.6426  -22.6090  -17.2111 N   0  0  0  0  0  0  0  0  0  0  0  0
   26.1403  -21.6450  -15.6356 C   0  0  0  0  0  0  0  0  0  0  0  0
   25.1610  -22.3062  -16.0964 O   0  0  0  0  0  0  0  0  0  0  0  0
   21.7806  -19.9182   -8.5327 N   0  0  0  0  0  0  0  0  0  0  0  0
   22.7891  -20.8244   -8.0870 C   0  0  0  0  0  0  0  0  0  0  0  0
   22.5519  -21.6000   -7.0850 N   0  0  0  0  0  0  0  0  0  0  0  0
   24.0630  -20.9198   -8.6986 N   0  0  0  0  0  0  0  0  0  0  0  0
   24.4433  -20.0045   -9.8026 C   0  0  0  0  0  0  0  0  0  0  0  0
   24.1337  -20.7070  -11.0613 C   0  0  0  0  0  0  0  0  0  0  0  0
   25.1375  -20.8408  -12.1175 C   0  0  0  0  0  0  0  0  0  0  0  0
   24.8360  -21.3437  -13.4567 C   0  0  2  0  0  0  0  0  0  0  0  0
   26.0608  -21.1655  -14.3229 N   0  0  0  0  0  0  0  0  0  0  0  0
   23.7492  -20.6238  -14.1854 C   0  0  0  0  0  0  0  0  0  0  0  0
   22.4759  -21.2523  -14.1892 O   0  0  0  0  0  0  0  0  0  0  0  0
   23.7991  -19.5566  -14.7836 O   0  0  0  0  0  0  0  0  0  0  0  0
  2  1  1  0
  3  2  1  0
  3  4  1  1
  5  6  2  0
  5  3  1  0
  7  8  1  0
  8 10  1  0
  9  8  2  0
 11 10  1  6
 11 12  1  0
 12  5  1  0
 13 11  1  0
 13 23  1  0
 14 13  2  0
 16 17  2  0
 16 15  1  0
 18 16  1  0
 19 18  1  0
 20 19  1  0
 22 21  1  1
 21 20  1  0
 22 23  1  0
 22 24  1  0
 24 25  1  0
 26 24  2  0
M  END
$$$$
