SNR.pdb
     RDKit          3D

 26 25  0  0  1  0  0  0  0  0999 V2000
   29.1093  -23.7309  -18.9848 O   0  0  0  0  0  0  0  0  0  0  0  0
   30.3238  -23.1134  -18.6598 C   0  0  0  0  0  0  0  0  0  0  0  0
   30.3948  -23.0477  -17.1508 C   0  0  2  0  0  0  0  0  0  0  0  0
   30.4280  -24.4011  -16.6158 N   0  0  0  0  0  0  0  0  0  0  0  0
   29.2591  -22.2918  -16.5725 C   0  0  0  0  0  0  0  0  0  0  0  0
   28.4944  -22.8578  -15.7721 O   0  0  0  0  0  0  0  0  0  0  0  0
   27.1737  -17.7459  -14.1709 N   0  0  0  0  0  0  0  0  0  0  0  0
   27.3540  -17.8036  -15.5546 C   0  0  0  0  0  0  0  0  0  0  0  0
   26.5550  -17.0950  -16.2664 O   0  0  0  0  0  0  0  0  0  0  0  0
   28.3963  -18.6186  -16.2645 C   0  0  0  0  0  0  0  0  0  0  0  0
   28.0555  -20.0882  -16.2002 C   0  0  2  0  0  0  0  0  0  0  0  0
   28.9869  -20.9302  -16.8841 N   0  0  0  0  0  0  0  0  0  0  0  0
   26.6900  -20.3086  -16.8061 C   0  0  0  0  0  0  0  0  0  0  0  0
   26.5824  -20.4806  -18.0581 O   0  0  0  0  0  0  0  0  0  0  0  0
   18.2381  -18.9910  -14.3348 N   0  0  0  0  0  0  0  0  0  0  0  0
   18.9220  -18.7688  -15.5676 C   0  0  0  0  0  0  0  0  0  0  0  0
   18.4612  -17.9046  -16.4058 N   0  0  0  0  0  0  0  0  0  0  0  0
   20.1042  -19.4608  -15.9275 N   0  0  0  0  0  0  0  0  0  0  0  0
   20.7324  -20.4245  -14.9907 C   0  0  0  0  0  0  0  0  0  0  0  0
   21.7994  -21.1113  -15.7415 C   0  0  0  0  0  0  0  0  0  0  0  0
   23.2077  -20.7754  -15.5293 C   0  0  0  0  0  0  0  0  0  0  0  0
   24.1484  -20.5207  -16.6191 C   0  0  2  0  0  0  0  0  0  0  0  0
   25.5261  -20.3312  -16.0288 N   0  0  0  0  0  0  0  0  0  0  0  0
   23.8997  -19.2766  -17.4069 C   0  0  0  0  0  0  0  0  0  0  0  0
   23.1723  -19.4367  -18.6158 O   0  0  0  0  0  0  0  0  0  0  0  0
   24.2344  -18.1260  -17.1551 O   0  0  0  0  0  0  0  0  0  0  0  0
  2  1  1  0
  3  2  1  0
  3  4  1  1
  5  6  2  0
  5  3  1  0
  7  8  1  0
  8 10  1  0
  9  8  2  0
 11 10  1  6
 11 12  1  0
 12  5  1  0
 13 11  1  0
 13 23  1  0
 14 13  2  0
 16 17  2  0
 16 15  1  0
 18 16  1  0
 19 18  1  0
 20 19  1  0
 22 21  1  1
 21 20  1  0
 22 23  1  0
 22 24  1  0
 24 25  1  0
 26 24  2  0
M  END
$$$$
