SNR.pdb
     RDKit          3D

 26 25  0  0  1  0  0  0  0  0999 V2000
   23.5119   -6.8056  -16.5464 O   0  0  0  0  0  0  0  0  0  0  0  0
   22.1521   -6.9406  -16.2390 C   0  0  0  0  0  0  0  0  0  0  0  0
   21.7137   -8.2897  -16.7627 C   0  0  2  0  0  0  0  0  0  0  0  0
   21.7928   -8.2854  -18.2162 N   0  0  0  0  0  0  0  0  0  0  0  0
   20.3430   -8.6393  -16.3214 C   0  0  0  0  0  0  0  0  0  0  0  0
   19.4044   -8.5690  -17.1337 O   0  0  0  0  0  0  0  0  0  0  0  0
   17.4657  -11.5222  -16.0484 N   0  0  0  0  0  0  0  0  0  0  0  0
   18.0392  -11.8210  -14.8106 C   0  0  0  0  0  0  0  0  0  0  0  0
   17.9738  -13.0448  -14.4295 O   0  0  0  0  0  0  0  0  0  0  0  0
   18.7178  -10.8354  -13.9036 C   0  0  0  0  0  0  0  0  0  0  0  0
   18.7408   -9.4632  -14.5334 C   0  0  2  0  0  0  0  0  0  0  0  0
   20.0313   -9.0598  -14.9980 N   0  0  0  0  0  0  0  0  0  0  0  0
   18.2652   -8.4454  -13.5244 C   0  0  0  0  0  0  0  0  0  0  0  0
   18.9899   -8.1769  -12.5187 O   0  0  0  0  0  0  0  0  0  0  0  0
   14.0505   -6.0865   -7.1532 N   0  0  0  0  0  0  0  0  0  0  0  0
   13.8301   -7.2926   -7.8838 C   0  0  0  0  0  0  0  0  0  0  0  0
   12.6996   -7.9034   -7.7804 N   0  0  0  0  0  0  0  0  0  0  0  0
   14.8066   -7.8668   -8.7340 N   0  0  0  0  0  0  0  0  0  0  0  0
   16.1663   -7.2810   -8.8293 C   0  0  0  0  0  0  0  0  0  0  0  0
   16.2421   -6.5960  -10.1327 C   0  0  0  0  0  0  0  0  0  0  0  0
   16.3901   -7.3535  -11.3758 C   0  0  0  0  0  0  0  0  0  0  0  0
   16.5675   -6.7271  -12.6849 C   0  0  2  0  0  0  0  0  0  0  0  0
   17.0414   -7.7794  -13.6597 N   0  0  0  0  0  0  0  0  0  0  0  0
   17.6055   -5.6554  -12.7506 C   0  0  0  0  0  0  0  0  0  0  0  0
   17.2133   -4.3749  -12.2787 O   0  0  0  0  0  0  0  0  0  0  0  0
   18.7593   -5.7248  -13.1548 O   0  0  0  0  0  0  0  0  0  0  0  0
  2  1  1  0
  3  2  1  0
  3  4  1  6
  5  6  2  0
  5  3  1  0
  7  8  1  0
  8 10  1  0
  9  8  2  0
 11 10  1  1
 11 12  1  0
 12  5  1  0
 13 11  1  0
 13 23  1  0
 14 13  2  0
 16 17  2  0
 16 15  1  0
 18 16  1  0
 19 18  1  0
 20 19  1  0
 22 21  1  1
 21 20  1  0
 22 23  1  0
 22 24  1  0
 24 25  1  0
 26 24  2  0
M  END
$$$$
