SNR.pdb
     RDKit          3D

 26 25  0  0  1  0  0  0  0  0999 V2000
   22.1658  -13.0823  -19.9547 O   0  0  0  0  0  0  0  0  0  0  0  0
   22.5790  -11.9930  -19.1771 C   0  0  0  0  0  0  0  0  0  0  0  0
   22.8600  -12.5236  -17.7893 C   0  0  2  0  0  0  0  0  0  0  0  0
   21.6946  -13.2545  -17.3133 N   0  0  0  0  0  0  0  0  0  0  0  0
   23.2134  -11.4414  -16.8407 C   0  0  0  0  0  0  0  0  0  0  0  0
   22.4475  -11.1848  -15.8956 O   0  0  0  0  0  0  0  0  0  0  0  0
   26.7001  -11.4371  -15.1471 N   0  0  0  0  0  0  0  0  0  0  0  0
   27.1127  -10.2092  -15.6691 C   0  0  0  0  0  0  0  0  0  0  0  0
   28.3757   -9.9815  -15.6674 O   0  0  0  0  0  0  0  0  0  0  0  0
   26.2059   -9.1496  -16.2254 C   0  0  0  0  0  0  0  0  0  0  0  0
   24.7607   -9.5697  -16.1022 C   0  0  2  0  0  0  0  0  0  0  0  0
   24.4005  -10.6640  -16.9489 N   0  0  0  0  0  0  0  0  0  0  0  0
   23.8718   -8.3980  -16.4447 C   0  0  0  0  0  0  0  0  0  0  0  0
   23.8500   -7.9570  -17.6337 O   0  0  0  0  0  0  0  0  0  0  0  0
   15.3131   -7.9352  -16.1554 N   0  0  0  0  0  0  0  0  0  0  0  0
   15.9006   -7.0439  -17.1027 C   0  0  0  0  0  0  0  0  0  0  0  0
   15.1589   -6.4818  -17.9947 N   0  0  0  0  0  0  0  0  0  0  0  0
   17.2833   -6.7372  -17.1163 N   0  0  0  0  0  0  0  0  0  0  0  0
   18.2035   -7.3457  -16.1243 C   0  0  0  0  0  0  0  0  0  0  0  0
   19.5395   -6.7772  -16.3811 C   0  0  0  0  0  0  0  0  0  0  0  0
   20.7128   -7.2435  -15.6417 C   0  0  0  0  0  0  0  0  0  0  0  0
   22.0566   -6.7020  -15.8380 C   0  0  2  0  0  0  0  0  0  0  0  0
   23.0615   -7.7745  -15.4886 N   0  0  0  0  0  0  0  0  0  0  0  0
   22.4186   -5.5453  -14.9654 C   0  0  0  0  0  0  0  0  0  0  0  0
   21.7327   -4.3289  -15.2227 O   0  0  0  0  0  0  0  0  0  0  0  0
   23.2286   -5.4965  -14.0485 O   0  0  0  0  0  0  0  0  0  0  0  0
  2  1  1  0
  3  2  1  0
  3  4  1  1
  5  6  2  0
  5  3  1  0
  7  8  1  0
  8 10  1  0
  9  8  2  0
 11 10  1  6
 11 12  1  0
 12  5  1  0
 13 11  1  0
 13 23  1  0
 14 13  2  0
 16 17  2  0
 16 15  1  0
 18 16  1  0
 19 18  1  0
 20 19  1  0
 22 21  1  1
 21 20  1  0
 22 23  1  0
 22 24  1  0
 24 25  1  0
 26 24  2  0
M  END
$$$$
