SNR.pdb
     RDKit          3D

 26 25  0  0  1  0  0  0  0  0999 V2000
   17.3758   -3.2841  -17.6120 O   0  0  0  0  0  0  0  0  0  0  0  0
   16.9458   -4.0305  -16.5075 C   0  0  0  0  0  0  0  0  0  0  0  0
   16.6585   -5.4291  -17.0056 C   0  0  2  0  0  0  0  0  0  0  0  0
   15.5023   -5.3923  -17.8891 N   0  0  0  0  0  0  0  0  0  0  0  0
   16.4276   -6.3797  -15.8926 C   0  0  0  0  0  0  0  0  0  0  0  0
   15.4867   -7.1889  -15.9672 O   0  0  0  0  0  0  0  0  0  0  0  0
   16.7585   -9.6469  -11.9660 N   0  0  0  0  0  0  0  0  0  0  0  0
   17.9754   -9.4545  -12.6236 C   0  0  0  0  0  0  0  0  0  0  0  0
   18.8927  -10.3229  -12.3966 O   0  0  0  0  0  0  0  0  0  0  0  0
   18.2894   -8.3263  -13.5633 C   0  0  0  0  0  0  0  0  0  0  0  0
   17.1189   -7.3775  -13.6634 C   0  0  2  0  0  0  0  0  0  0  0  0
   17.2348   -6.4229  -14.7213 N   0  0  0  0  0  0  0  0  0  0  0  0
   16.9783   -6.6231  -12.3629 C   0  0  0  0  0  0  0  0  0  0  0  0
   17.8506   -5.7593  -12.0443 O   0  0  0  0  0  0  0  0  0  0  0  0
   10.2387   -6.9012   -6.2165 N   0  0  0  0  0  0  0  0  0  0  0  0
   11.1625   -5.8525   -5.9271 C   0  0  0  0  0  0  0  0  0  0  0  0
   10.9090   -5.0248   -4.9718 N   0  0  0  0  0  0  0  0  0  0  0  0
   12.3679   -5.6681   -6.6475 N   0  0  0  0  0  0  0  0  0  0  0  0
   12.4149   -5.8888   -8.1138 C   0  0  0  0  0  0  0  0  0  0  0  0
   13.8060   -5.6416   -8.5353 C   0  0  0  0  0  0  0  0  0  0  0  0
   14.3734   -6.3205   -9.7007 C   0  0  0  0  0  0  0  0  0  0  0  0
   15.7183   -6.0583  -10.2104 C   0  0  2  0  0  0  0  0  0  0  0  0
   15.9089   -6.8435  -11.4869 N   0  0  0  0  0  0  0  0  0  0  0  0
   16.8389   -6.4963   -9.3257 C   0  0  0  0  0  0  0  0  0  0  0  0
   17.2851   -5.5495   -8.3662 O   0  0  0  0  0  0  0  0  0  0  0  0
   17.4321   -7.5674   -9.3076 O   0  0  0  0  0  0  0  0  0  0  0  0
  2  1  1  0
  3  2  1  0
  3  4  1  6
  5  6  2  0
  5  3  1  0
  7  8  1  0
  8 10  1  0
  9  8  2  0
 11 10  1  1
 11 12  1  0
 12  5  1  0
 13 11  1  0
 13 23  1  0
 14 13  2  0
 16 17  2  0
 16 15  1  0
 18 16  1  0
 19 18  1  0
 20 19  1  0
 22 21  1  1
 21 20  1  0
 22 23  1  0
 22 24  1  0
 24 25  1  0
 26 24  2  0
M  END
$$$$
