SNR.pdb
     RDKit          3D

 26 25  0  0  1  0  0  0  0  0999 V2000
   15.7705  -10.3276  -10.7285 O   0  0  0  0  0  0  0  0  0  0  0  0
   15.6011  -10.0147   -9.3739 C   0  0  0  0  0  0  0  0  0  0  0  0
   14.6420   -8.8474   -9.3077 C   0  0  2  0  0  0  0  0  0  0  0  0
   13.4431   -9.1721  -10.0667 N   0  0  0  0  0  0  0  0  0  0  0  0
   15.2520   -7.5965   -9.8164 C   0  0  0  0  0  0  0  0  0  0  0  0
   14.9941   -7.2185  -10.9724 O   0  0  0  0  0  0  0  0  0  0  0  0
   14.3023   -4.1165   -9.2973 N   0  0  0  0  0  0  0  0  0  0  0  0
   15.3613   -3.8177   -8.4373 C   0  0  0  0  0  0  0  0  0  0  0  0
   15.1427   -2.9150   -7.5517 O   0  0  0  0  0  0  0  0  0  0  0  0
   16.7171   -4.4623   -8.4674 C   0  0  0  0  0  0  0  0  0  0  0  0
   16.7527   -5.5761   -9.4864 C   0  0  2  0  0  0  0  0  0  0  0  0
   16.1316   -6.7859   -9.0453 N   0  0  0  0  0  0  0  0  0  0  0  0
   18.1891   -5.8852   -9.8348 C   0  0  0  0  0  0  0  0  0  0  0  0
   18.9803   -6.2834   -8.9270 O   0  0  0  0  0  0  0  0  0  0  0  0
   20.0322  -11.4370  -15.5239 N   0  0  0  0  0  0  0  0  0  0  0  0
   19.2424  -10.8099  -14.5139 C   0  0  0  0  0  0  0  0  0  0  0  0
   18.0788  -11.2852  -14.2276 N   0  0  0  0  0  0  0  0  0  0  0  0
   19.6768   -9.6700  -13.7943 N   0  0  0  0  0  0  0  0  0  0  0  0
   20.9105   -8.9484  -14.1919 C   0  0  0  0  0  0  0  0  0  0  0  0
   21.0935   -7.8545  -13.2204 C   0  0  0  0  0  0  0  0  0  0  0  0
   19.9482   -7.2528  -12.5369 C   0  0  0  0  0  0  0  0  0  0  0  0
   20.0718   -6.1927  -11.5378 C   0  0  2  0  0  0  0  0  0  0  0  0
   18.6850   -5.7478  -11.1366 N   0  0  0  0  0  0  0  0  0  0  0  0
   20.7498   -4.9458  -12.0025 C   0  0  0  0  0  0  0  0  0  0  0  0
   19.8988   -3.8635  -12.3500 O   0  0  0  0  0  0  0  0  0  0  0  0
   21.9470   -4.7203  -12.1251 O   0  0  0  0  0  0  0  0  0  0  0  0
  2  1  1  0
  3  2  1  0
  3  4  1  6
  5  6  2  0
  5  3  1  0
  7  8  1  0
  8 10  1  0
  9  8  2  0
 11 10  1  1
 11 12  1  0
 12  5  1  0
 13 11  1  0
 13 23  1  0
 14 13  2  0
 16 17  2  0
 16 15  1  0
 18 16  1  0
 19 18  1  0
 20 19  1  0
 22 21  1  6
 21 20  1  0
 22 23  1  0
 22 24  1  0
 24 25  1  0
 26 24  2  0
M  END
$$$$
