DCQ.pdb
     RDKit          3D

 24 23  0  0  1  0  0  0  0  0999 V2000
   11.9224  -14.7616   16.0899 N   0  0  0  0  0  0  0  0  0  0  0  0
   12.7296  -15.0961   17.2365 C   0  0  1  0  0  0  0  0  0  0  0  0
   14.1479  -14.6206   17.0967 C   0  0  0  0  0  0  0  0  0  0  0  0
   14.6211  -14.9341   15.7357 C   0  0  0  0  0  0  0  0  0  0  0  0
   14.1300  -15.9030   15.1192 O   0  0  0  0  0  0  0  0  0  0  0  0
   12.1071  -14.6567   18.5073 C   0  0  0  0  0  0  0  0  0  0  0  0
   12.8249  -14.0738   19.3675 O   0  0  0  0  0  0  0  0  0  0  0  0
   15.5946  -14.1766   15.1348 O   0  0  0  0  0  0  0  0  0  0  0  0
   10.7369  -14.8558   18.8158 N   0  0  0  0  0  0  0  0  0  0  0  0
   10.2416  -14.5191   20.1077 C   0  0  1  0  0  0  0  0  0  0  0  0
    8.7220  -14.3652   20.0193 C   0  0  0  0  0  0  0  0  0  0  0  0
    8.2668  -12.9979   18.9479 S   0  0  0  0  0  0  0  0  0  0  0  0
   10.6143  -15.4805   21.1666 C   0  0  0  0  0  0  0  0  0  0  0  0
   11.0544  -16.6045   20.7699 O   0  0  0  0  0  0  0  0  0  0  0  0
   15.2354  -17.2378   23.4989 N   0  0  0  0  0  0  0  0  0  0  0  0
   14.8166  -15.9074   23.1871 C   0  0  0  0  0  0  0  0  0  0  0  0
   15.7155  -15.0342   22.9791 O   0  0  0  0  0  0  0  0  0  0  0  0
   13.3946  -15.5147   23.0910 C   0  0  0  0  0  0  0  0  0  0  0  0
   12.4022  -16.6160   23.1970 C   0  0  0  0  0  0  0  0  0  0  0  0
   10.9904  -16.2832   23.5037 C   0  0  2  0  0  0  0  0  0  0  0  0
   10.5201  -15.2486   22.5379 N   0  0  0  0  0  0  0  0  0  0  0  0
   10.7618  -15.7812   24.8460 C   0  0  0  0  0  0  0  0  0  0  0  0
   11.0466  -16.5939   25.9431 O   0  0  0  0  0  0  0  0  0  0  0  0
   10.3103  -14.6295   25.1272 O   0  0  0  0  0  0  0  0  0  0  0  0
  2  1  1  6
  2  3  1  0
  3  4  1  0
  4  8  1  0
  4  5  2  0
  6  2  1  0
  6  9  1  0
  7  6  2  0
 10  9  1  0
 10 11  1  6
 10 13  1  0
 12 11  1  0
 13 21  1  0
 14 13  2  0
 16 17  2  0
 16 15  1  0
 18 16  1  0
 19 18  1  0
 20 19  1  1
 21 20  1  0
 22 23  1  0
 22 20  1  0
 24 22  2  0
M  END
$$$$
