DCQ.pdb
     RDKit          3D

 24 23  0  0  1  0  0  0  0  0999 V2000
    7.0986  -15.3505   20.6598 N   0  0  0  0  0  0  0  0  0  0  0  0
    8.1146  -15.9210   21.5086 C   0  0  1  0  0  0  0  0  0  0  0  0
    9.3552  -16.2919   20.7467 C   0  0  0  0  0  0  0  0  0  0  0  0
    8.9593  -16.9004   19.4632 C   0  0  0  0  0  0  0  0  0  0  0  0
    9.5206  -16.5370   18.4083 O   0  0  0  0  0  0  0  0  0  0  0  0
    8.4055  -15.0684   22.6850 C   0  0  0  0  0  0  0  0  0  0  0  0
    9.6024  -14.9498   23.0702 O   0  0  0  0  0  0  0  0  0  0  0  0
    7.9817  -17.8618   19.4095 O   0  0  0  0  0  0  0  0  0  0  0  0
    7.4059  -14.3707   23.4104 N   0  0  0  0  0  0  0  0  0  0  0  0
    7.7460  -13.6827   24.6099 C   0  0  1  0  0  0  0  0  0  0  0  0
    6.6158  -12.7082   24.9469 C   0  0  0  0  0  0  0  0  0  0  0  0
    6.8414  -11.9867   26.5757 S   0  0  0  0  0  0  0  0  0  0  0  0
    8.0355  -14.5718   25.7545 C   0  0  0  0  0  0  0  0  0  0  0  0
    7.2329  -15.5422   25.9240 O   0  0  0  0  0  0  0  0  0  0  0  0
   11.6296  -18.9853   26.7793 N   0  0  0  0  0  0  0  0  0  0  0  0
   12.0790  -17.7076   26.3233 C   0  0  0  0  0  0  0  0  0  0  0  0
   13.2005  -17.6487   25.7296 O   0  0  0  0  0  0  0  0  0  0  0  0
   11.2950  -16.4677   26.5070 C   0  0  0  0  0  0  0  0  0  0  0  0
    9.9700  -16.6216   27.1623 C   0  0  0  0  0  0  0  0  0  0  0  0
    9.3067  -15.4237   27.7309 C   0  0  2  0  0  0  0  0  0  0  0  0
    9.1009  -14.4261   26.6414 N   0  0  0  0  0  0  0  0  0  0  0  0
   10.0393  -14.7739   28.8019 C   0  0  0  0  0  0  0  0  0  0  0  0
   10.4122  -15.5098   29.9265 O   0  0  0  0  0  0  0  0  0  0  0  0
   10.3858  -13.5537   28.8133 O   0  0  0  0  0  0  0  0  0  0  0  0
  2  1  1  6
  2  3  1  0
  3  4  1  0
  4  8  1  0
  4  5  2  0
  6  2  1  0
  6  9  1  0
  7  6  2  0
 10  9  1  0
 10 11  1  1
 10 13  1  0
 12 11  1  0
 13 21  1  0
 14 13  2  0
 16 17  2  0
 16 15  1  0
 18 16  1  0
 19 18  1  0
 20 19  1  6
 21 20  1  0
 22 23  1  0
 22 20  1  0
 24 22  2  0
M  END
$$$$
