DCQ.pdb
     RDKit          3D

 24 23  0  0  1  0  0  0  0  0999 V2000
    9.0162  -16.4419   16.4883 N   0  0  0  0  0  0  0  0  0  0  0  0
    8.3060  -16.9803   17.6213 C   0  0  1  0  0  0  0  0  0  0  0  0
    8.3886  -18.4789   17.6895 C   0  0  0  0  0  0  0  0  0  0  0  0
    7.8726  -19.0401   16.4273 C   0  0  0  0  0  0  0  0  0  0  0  0
    8.5806  -19.8296   15.7675 O   0  0  0  0  0  0  0  0  0  0  0  0
    8.7054  -16.3322   18.8925 C   0  0  0  0  0  0  0  0  0  0  0  0
    9.9301  -16.2954   19.1988 O   0  0  0  0  0  0  0  0  0  0  0  0
    6.6241  -18.7078   15.9652 O   0  0  0  0  0  0  0  0  0  0  0  0
    7.7811  -15.7448   19.7940 N   0  0  0  0  0  0  0  0  0  0  0  0
    8.2236  -15.2794   21.0650 C   0  0  1  0  0  0  0  0  0  0  0  0
    7.0496  -14.5921   21.7651 C   0  0  0  0  0  0  0  0  0  0  0  0
    7.4866  -14.0959   23.4346 S   0  0  0  0  0  0  0  0  0  0  0  0
    8.8078  -16.3314   21.9233 C   0  0  0  0  0  0  0  0  0  0  0  0
    8.2803  -17.4836   21.8307 O   0  0  0  0  0  0  0  0  0  0  0  0
   14.4364  -20.4498   22.9509 N   0  0  0  0  0  0  0  0  0  0  0  0
   13.6834  -19.2710   22.6576 C   0  0  0  0  0  0  0  0  0  0  0  0
   14.0924  -18.5229   21.7159 O   0  0  0  0  0  0  0  0  0  0  0  0
   12.4572  -18.8972   23.3940 C   0  0  0  0  0  0  0  0  0  0  0  0
   11.6771  -17.7627   22.8342 C   0  0  0  0  0  0  0  0  0  0  0  0
   10.4427  -17.3272   23.5305 C   0  0  2  0  0  0  0  0  0  0  0  0
    9.8713  -16.1549   22.8068 N   0  0  0  0  0  0  0  0  0  0  0  0
   10.6289  -16.9502   24.9194 C   0  0  0  0  0  0  0  0  0  0  0  0
   10.3346  -15.6487   25.3252 O   0  0  0  0  0  0  0  0  0  0  0  0
   11.0502  -17.7211   25.8345 O   0  0  0  0  0  0  0  0  0  0  0  0
  2  1  1  6
  2  3  1  0
  3  4  1  0
  4  8  1  0
  4  5  2  0
  6  2  1  0
  6  9  1  0
  7  6  2  0
 10  9  1  0
 10 11  1  1
 10 13  1  0
 12 11  1  0
 13 21  1  0
 14 13  2  0
 16 17  2  0
 16 15  1  0
 18 16  1  0
 19 18  1  0
 20 19  1  6
 21 20  1  0
 22 23  1  0
 22 20  1  0
 24 22  2  0
M  END
$$$$
