DCQ.pdb
     RDKit          3D

 24 23  0  0  1  0  0  0  0  0999 V2000
    7.3157  -17.1822   20.3885 N   0  0  0  0  0  0  0  0  0  0  0  0
    8.6618  -16.6922   20.2275 C   0  0  1  0  0  0  0  0  0  0  0  0
    8.9029  -16.1199   18.8594 C   0  0  0  0  0  0  0  0  0  0  0  0
    8.7045  -17.1843   17.8584 C   0  0  0  0  0  0  0  0  0  0  0  0
    9.6172  -18.0100   17.6461 O   0  0  0  0  0  0  0  0  0  0  0  0
    9.0511  -15.7578   21.3095 C   0  0  0  0  0  0  0  0  0  0  0  0
   10.1955  -15.2251   21.2718 O   0  0  0  0  0  0  0  0  0  0  0  0
    7.5305  -17.2820   17.1551 O   0  0  0  0  0  0  0  0  0  0  0  0
    8.2027  -15.4242   22.3963 N   0  0  0  0  0  0  0  0  0  0  0  0
    8.7065  -14.6532   23.4824 C   0  0  1  0  0  0  0  0  0  0  0  0
    7.5852  -13.7471   23.9948 C   0  0  0  0  0  0  0  0  0  0  0  0
    6.5147  -14.6205   25.1420 S   0  0  0  0  0  0  0  0  0  0  0  0
    9.2778  -15.4595   24.5815 C   0  0  0  0  0  0  0  0  0  0  0  0
    8.6415  -16.5160   24.8873 O   0  0  0  0  0  0  0  0  0  0  0  0
   11.8477  -15.2195   29.5616 N   0  0  0  0  0  0  0  0  0  0  0  0
   10.7686  -14.3383   29.2427 C   0  0  0  0  0  0  0  0  0  0  0  0
   10.7004  -13.2323   29.8639 O   0  0  0  0  0  0  0  0  0  0  0  0
    9.7454  -14.6570   28.2244 C   0  0  0  0  0  0  0  0  0  0  0  0
    9.9113  -15.9504   27.5114 C   0  0  0  0  0  0  0  0  0  0  0  0
   10.8903  -16.0381   26.4015 C   0  0  2  0  0  0  0  0  0  0  0  0
   10.4376  -15.1518   25.2907 N   0  0  0  0  0  0  0  0  0  0  0  0
   11.0804  -17.3720   25.8625 C   0  0  0  0  0  0  0  0  0  0  0  0
   12.3693  -17.8942   25.7550 O   0  0  0  0  0  0  0  0  0  0  0  0
   10.1505  -18.1375   25.4644 O   0  0  0  0  0  0  0  0  0  0  0  0
  2  1  1  6
  2  3  1  0
  3  4  1  0
  4  8  1  0
  4  5  2  0
  6  2  1  0
  6  9  1  0
  7  6  2  0
 10  9  1  0
 10 11  1  1
 10 13  1  0
 12 11  1  0
 13 21  1  0
 14 13  2  0
 16 17  2  0
 16 15  1  0
 18 16  1  0
 19 18  1  0
 20 19  1  1
 21 20  1  0
 22 23  1  0
 22 20  1  0
 24 22  2  0
M  END
$$$$
