DCQ.pdb
     RDKit          3D

 24 23  0  0  1  0  0  0  0  0999 V2000
    8.7274  -15.2455   20.2791 N   0  0  0  0  0  0  0  0  0  0  0  0
    7.9526  -15.6428   21.4280 C   0  0  1  0  0  0  0  0  0  0  0  0
    7.9588  -17.1308   21.6359 C   0  0  0  0  0  0  0  0  0  0  0  0
    7.4490  -17.7823   20.4152 C   0  0  0  0  0  0  0  0  0  0  0  0
    6.3885  -17.3759   19.8954 O   0  0  0  0  0  0  0  0  0  0  0  0
    8.3392  -14.8982   22.6493 C   0  0  0  0  0  0  0  0  0  0  0  0
    9.5660  -14.7307   22.8978 O   0  0  0  0  0  0  0  0  0  0  0  0
    8.1228  -18.8302   19.8403 O   0  0  0  0  0  0  0  0  0  0  0  0
    7.3999  -14.3575   23.5645 N   0  0  0  0  0  0  0  0  0  0  0  0
    7.8511  -13.7316   24.7615 C   0  0  1  0  0  0  0  0  0  0  0  0
    6.7492  -12.7973   25.2650 C   0  0  0  0  0  0  0  0  0  0  0  0
    7.1972  -12.0474   26.8339 S   0  0  0  0  0  0  0  0  0  0  0  0
    8.2649  -14.6780   25.8186 C   0  0  0  0  0  0  0  0  0  0  0  0
    7.4390  -15.6039   26.0930 O   0  0  0  0  0  0  0  0  0  0  0  0
   13.3459  -17.9295   26.3880 N   0  0  0  0  0  0  0  0  0  0  0  0
   12.2885  -17.7193   25.4497 C   0  0  0  0  0  0  0  0  0  0  0  0
   12.4240  -18.2026   24.2827 O   0  0  0  0  0  0  0  0  0  0  0  0
   11.0545  -16.9766   25.7832 C   0  0  0  0  0  0  0  0  0  0  0  0
   10.9847  -16.4036   27.1527 C   0  0  0  0  0  0  0  0  0  0  0  0
    9.7690  -15.6579   27.5580 C   0  0  2  0  0  0  0  0  0  0  0  0
    9.4682  -14.6296   26.5204 N   0  0  0  0  0  0  0  0  0  0  0  0
    9.8671  -14.9862   28.8406 C   0  0  0  0  0  0  0  0  0  0  0  0
   10.0852  -15.7364   29.9960 O   0  0  0  0  0  0  0  0  0  0  0  0
    9.7695  -13.7339   29.0178 O   0  0  0  0  0  0  0  0  0  0  0  0
  2  1  1  6
  2  3  1  0
  3  4  1  0
  4  8  1  0
  4  5  2  0
  6  2  1  0
  6  9  1  0
  7  6  2  0
 10  9  1  0
 10 11  1  1
 10 13  1  0
 12 11  1  0
 13 21  1  0
 14 13  2  0
 16 17  2  0
 16 15  1  0
 18 16  1  0
 19 18  1  0
 20 19  1  6
 21 20  1  0
 22 23  1  0
 22 20  1  0
 24 22  2  0
M  END
$$$$
