DCQ.pdb
     RDKit          3D

 24 23  0  0  1  0  0  0  0  0999 V2000
    9.6420  -17.3313   16.5924 N   0  0  0  0  0  0  0  0  0  0  0  0
    8.5549  -17.2509   17.5358 C   0  0  1  0  0  0  0  0  0  0  0  0
    7.9785  -18.5996   17.8615 C   0  0  0  0  0  0  0  0  0  0  0  0
    7.1745  -19.0611   16.7148 C   0  0  0  0  0  0  0  0  0  0  0  0
    7.0179  -18.3107   15.7287 O   0  0  0  0  0  0  0  0  0  0  0  0
    8.9216  -16.4832   18.7489 C   0  0  0  0  0  0  0  0  0  0  0  0
   10.0152  -16.7410   19.3254 O   0  0  0  0  0  0  0  0  0  0  0  0
    6.5945  -20.3046   16.7141 O   0  0  0  0  0  0  0  0  0  0  0  0
    8.1056  -15.4649   19.3052 N   0  0  0  0  0  0  0  0  0  0  0  0
    8.5188  -14.7878   20.4879 C   0  0  1  0  0  0  0  0  0  0  0  0
    7.5516  -13.6311   20.7472 C   0  0  0  0  0  0  0  0  0  0  0  0
    7.5843  -12.4407   19.4031 S   0  0  0  0  0  0  0  0  0  0  0  0
    8.6291  -15.6603   21.6758 C   0  0  0  0  0  0  0  0  0  0  0  0
    7.9336  -16.7235   21.6536 O   0  0  0  0  0  0  0  0  0  0  0  0
   12.5933  -18.8295   20.7903 N   0  0  0  0  0  0  0  0  0  0  0  0
   12.5991  -19.1239   22.1888 C   0  0  0  0  0  0  0  0  0  0  0  0
   13.3677  -20.0484   22.5989 O   0  0  0  0  0  0  0  0  0  0  0  0
   11.7607  -18.3975   23.1661 C   0  0  0  0  0  0  0  0  0  0  0  0
   10.9639  -17.2630   22.6303 C   0  0  0  0  0  0  0  0  0  0  0  0
   10.0436  -16.5391   23.5398 C   0  0  2  0  0  0  0  0  0  0  0  0
    9.4228  -15.4070   22.7933 N   0  0  0  0  0  0  0  0  0  0  0  0
   10.6679  -16.0007   24.7340 C   0  0  0  0  0  0  0  0  0  0  0  0
   11.2232  -14.7216   24.7040 O   0  0  0  0  0  0  0  0  0  0  0  0
   10.7605  -16.6058   25.8451 O   0  0  0  0  0  0  0  0  0  0  0  0
  2  1  1  6
  2  3  1  0
  3  4  1  0
  4  8  1  0
  4  5  2  0
  6  2  1  0
  6  9  1  0
  7  6  2  0
 10  9  1  0
 10 11  1  1
 10 13  1  0
 12 11  1  0
 13 21  1  0
 14 13  2  0
 16 17  2  0
 16 15  1  0
 18 16  1  0
 19 18  1  0
 20 19  1  6
 21 20  1  0
 22 23  1  0
 22 20  1  0
 24 22  2  0
M  END
$$$$
