DCQ.pdb
     RDKit          3D

 24 23  0  0  1  0  0  0  0  0999 V2000
    8.6562  -17.9142   18.6034 N   0  0  0  0  0  0  0  0  0  0  0  0
    9.9988  -17.4135   18.7606 C   0  0  1  0  0  0  0  0  0  0  0  0
   10.4637  -16.6354   17.5624 C   0  0  0  0  0  0  0  0  0  0  0  0
   10.6638  -17.5693   16.4389 C   0  0  0  0  0  0  0  0  0  0  0  0
    9.8465  -18.4953   16.2528 O   0  0  0  0  0  0  0  0  0  0  0  0
   10.1723  -16.6628   20.0262 C   0  0  0  0  0  0  0  0  0  0  0  0
   11.3423  -16.4256   20.4382 O   0  0  0  0  0  0  0  0  0  0  0  0
   11.7359  -17.4367   15.5930 O   0  0  0  0  0  0  0  0  0  0  0  0
    9.0878  -16.1906   20.8092 N   0  0  0  0  0  0  0  0  0  0  0  0
    9.3288  -15.6354   22.0982 C   0  0  1  0  0  0  0  0  0  0  0  0
    8.0667  -14.8997   22.5528 C   0  0  0  0  0  0  0  0  0  0  0  0
    8.2144  -14.3418   24.2532 S   0  0  0  0  0  0  0  0  0  0  0  0
    9.7576  -16.6233   23.1105 C   0  0  0  0  0  0  0  0  0  0  0  0
    9.1689  -17.7488   23.0761 O   0  0  0  0  0  0  0  0  0  0  0  0
   15.1702  -18.7075   23.1560 N   0  0  0  0  0  0  0  0  0  0  0  0
   14.6874  -19.3403   24.3431 C   0  0  0  0  0  0  0  0  0  0  0  0
   15.4493  -20.1739   24.9248 O   0  0  0  0  0  0  0  0  0  0  0  0
   13.3544  -19.0598   24.9176 C   0  0  0  0  0  0  0  0  0  0  0  0
   12.5711  -17.9816   24.2596 C   0  0  0  0  0  0  0  0  0  0  0  0
   11.2781  -17.5676   24.8553 C   0  0  2  0  0  0  0  0  0  0  0  0
   10.7388  -16.4144   24.0783 N   0  0  0  0  0  0  0  0  0  0  0  0
   11.3496  -17.1747   26.2505 C   0  0  0  0  0  0  0  0  0  0  0  0
   11.6448  -18.1316   27.2212 O   0  0  0  0  0  0  0  0  0  0  0  0
   11.1616  -15.9988   26.6879 O   0  0  0  0  0  0  0  0  0  0  0  0
  2  1  1  6
  2  3  1  0
  3  4  1  0
  4  8  1  0
  4  5  2  0
  6  2  1  0
  6  9  1  0
  7  6  2  0
 10  9  1  0
 10 11  1  1
 10 13  1  0
 12 11  1  0
 13 21  1  0
 14 13  2  0
 16 17  2  0
 16 15  1  0
 18 16  1  0
 19 18  1  0
 20 19  1  6
 21 20  1  0
 22 23  1  0
 22 20  1  0
 24 22  2  0
M  END
$$$$
