DCQ.pdb
     RDKit          3D

 24 23  0  0  1  0  0  0  0  0999 V2000
    9.5925  -18.2853   19.1994 N   0  0  0  0  0  0  0  0  0  0  0  0
   10.7622  -17.5149   19.5409 C   0  0  1  0  0  0  0  0  0  0  0  0
   11.3074  -16.7512   18.3675 C   0  0  0  0  0  0  0  0  0  0  0  0
   11.8227  -17.7120   17.3745 C   0  0  0  0  0  0  0  0  0  0  0  0
   12.3674  -17.2906   16.3326 O   0  0  0  0  0  0  0  0  0  0  0  0
   10.5388  -16.6519   20.7244 C   0  0  0  0  0  0  0  0  0  0  0  0
   11.4835  -15.9189   21.1307 O   0  0  0  0  0  0  0  0  0  0  0  0
   11.7128  -19.0645   17.5777 O   0  0  0  0  0  0  0  0  0  0  0  0
    9.3116  -16.6019   21.4342 N   0  0  0  0  0  0  0  0  0  0  0  0
    9.2110  -15.8341   22.6293 C   0  0  1  0  0  0  0  0  0  0  0  0
    7.7348  -15.7345   23.0186 C   0  0  0  0  0  0  0  0  0  0  0  0
    7.5139  -14.7170   24.4816 S   0  0  0  0  0  0  0  0  0  0  0  0
   10.0191  -16.3555   23.7517 C   0  0  0  0  0  0  0  0  0  0  0  0
   10.3098  -17.5915   23.7029 O   0  0  0  0  0  0  0  0  0  0  0  0
   10.5583  -13.0942   28.6949 N   0  0  0  0  0  0  0  0  0  0  0  0
   10.1863  -14.4299   29.0412 C   0  0  0  0  0  0  0  0  0  0  0  0
    9.4756  -14.5990   30.0805 O   0  0  0  0  0  0  0  0  0  0  0  0
   10.5854  -15.6078   28.2419 C   0  0  0  0  0  0  0  0  0  0  0  0
   11.4209  -15.3337   27.0437 C   0  0  0  0  0  0  0  0  0  0  0  0
   11.3271  -16.2462   25.8789 C   0  0  2  0  0  0  0  0  0  0  0  0
   10.4750  -15.6065   24.8352 N   0  0  0  0  0  0  0  0  0  0  0  0
   10.7703  -17.5534   26.1739 C   0  0  0  0  0  0  0  0  0  0  0  0
    9.3900  -17.7439   26.1126 O   0  0  0  0  0  0  0  0  0  0  0  0
   11.4453  -18.5785   26.4947 O   0  0  0  0  0  0  0  0  0  0  0  0
  2  1  1  6
  2  3  1  0
  3  4  1  0
  4  8  1  0
  4  5  2  0
  6  2  1  0
  6  9  1  0
  7  6  2  0
 10  9  1  0
 10 11  1  1
 10 13  1  0
 12 11  1  0
 13 21  1  0
 14 13  2  0
 16 17  2  0
 16 15  1  0
 18 16  1  0
 19 18  1  0
 20 19  1  1
 21 20  1  0
 22 23  1  0
 22 20  1  0
 24 22  2  0
M  END
$$$$
