DCQ.pdb
     RDKit          3D

 24 23  0  0  1  0  0  0  0  0999 V2000
    6.9830  -15.0724   20.6607 N   0  0  0  0  0  0  0  0  0  0  0  0
    8.0343  -15.6584   21.4542 C   0  0  1  0  0  0  0  0  0  0  0  0
    9.2393  -16.0182   20.6322 C   0  0  0  0  0  0  0  0  0  0  0  0
    8.8257  -16.9505   19.5672 C   0  0  0  0  0  0  0  0  0  0  0  0
    7.8060  -17.6544   19.7245 O   0  0  0  0  0  0  0  0  0  0  0  0
    8.3786  -14.8261   22.6306 C   0  0  0  0  0  0  0  0  0  0  0  0
    9.5884  -14.7397   22.9825 O   0  0  0  0  0  0  0  0  0  0  0  0
    9.5450  -17.0570   18.4036 O   0  0  0  0  0  0  0  0  0  0  0  0
    7.4168  -14.1135   23.3918 N   0  0  0  0  0  0  0  0  0  0  0  0
    7.7871  -13.5219   24.6331 C   0  0  1  0  0  0  0  0  0  0  0  0
    6.6127  -12.6820   25.1392 C   0  0  0  0  0  0  0  0  0  0  0  0
    6.9640  -11.9762   26.7526 S   0  0  0  0  0  0  0  0  0  0  0  0
    8.2227  -14.4929   25.6587 C   0  0  0  0  0  0  0  0  0  0  0  0
    7.4749  -15.5076   25.8194 O   0  0  0  0  0  0  0  0  0  0  0  0
   12.6497  -18.1280   25.4936 N   0  0  0  0  0  0  0  0  0  0  0  0
   12.2929  -18.3172   26.8645 C   0  0  0  0  0  0  0  0  0  0  0  0
   12.8550  -19.2624   27.5005 O   0  0  0  0  0  0  0  0  0  0  0  0
   11.3122  -17.4608   27.5649 C   0  0  0  0  0  0  0  0  0  0  0  0
   10.6996  -16.3725   26.7591 C   0  0  0  0  0  0  0  0  0  0  0  0
    9.7247  -15.4618   27.4059 C   0  0  2  0  0  0  0  0  0  0  0  0
    9.3683  -14.3788   26.4444 N   0  0  0  0  0  0  0  0  0  0  0  0
   10.1939  -14.8390   28.6298 C   0  0  0  0  0  0  0  0  0  0  0  0
   10.4864  -15.6332   29.7385 O   0  0  0  0  0  0  0  0  0  0  0  0
   10.3700  -13.5935   28.7937 O   0  0  0  0  0  0  0  0  0  0  0  0
  2  1  1  6
  2  3  1  0
  3  4  1  0
  4  8  1  0
  4  5  2  0
  6  2  1  0
  6  9  1  0
  7  6  2  0
 10  9  1  0
 10 11  1  1
 10 13  1  0
 12 11  1  0
 13 21  1  0
 14 13  2  0
 16 17  2  0
 16 15  1  0
 18 16  1  0
 19 18  1  0
 20 19  1  6
 21 20  1  0
 22 23  1  0
 22 20  1  0
 24 22  2  0
M  END
$$$$
