DCQ.pdb
     RDKit          3D

 24 23  0  0  1  0  0  0  0  0999 V2000
    9.4850  -15.4288   20.6757 N   0  0  0  0  0  0  0  0  0  0  0  0
    8.4353  -15.6926   21.6279 C   0  0  1  0  0  0  0  0  0  0  0  0
    8.1894  -17.1628   21.8162 C   0  0  0  0  0  0  0  0  0  0  0  0
    8.1666  -17.8130   20.4929 C   0  0  0  0  0  0  0  0  0  0  0  0
    7.3306  -17.4478   19.6398 O   0  0  0  0  0  0  0  0  0  0  0  0
    8.6527  -14.9854   22.9116 C   0  0  0  0  0  0  0  0  0  0  0  0
    9.7938  -15.0375   23.4501 O   0  0  0  0  0  0  0  0  0  0  0  0
    9.0513  -18.8151   20.1834 O   0  0  0  0  0  0  0  0  0  0  0  0
    7.6415  -14.2457   23.5768 N   0  0  0  0  0  0  0  0  0  0  0  0
    7.8871  -13.7102   24.8733 C   0  0  1  0  0  0  0  0  0  0  0  0
    6.6974  -12.8333   25.2689 C   0  0  0  0  0  0  0  0  0  0  0  0
    6.9152  -12.1422   26.9119 S   0  0  0  0  0  0  0  0  0  0  0  0
    8.1572  -14.7315   25.9071 C   0  0  0  0  0  0  0  0  0  0  0  0
    7.5303  -15.8298   25.7834 O   0  0  0  0  0  0  0  0  0  0  0  0
   11.7261  -18.3451   24.9000 N   0  0  0  0  0  0  0  0  0  0  0  0
   11.7418  -18.6359   26.2992 C   0  0  0  0  0  0  0  0  0  0  0  0
   12.4009  -19.6497   26.6886 O   0  0  0  0  0  0  0  0  0  0  0  0
   11.0352  -17.8081   27.2997 C   0  0  0  0  0  0  0  0  0  0  0  0
   10.3319  -16.6074   26.7775 C   0  0  0  0  0  0  0  0  0  0  0  0
    9.5308  -15.7813   27.7123 C   0  0  2  0  0  0  0  0  0  0  0  0
    9.0299  -14.5804   26.9833 N   0  0  0  0  0  0  0  0  0  0  0  0
   10.2481  -15.3256   28.8886 C   0  0  0  0  0  0  0  0  0  0  0  0
   10.5290  -16.2262   29.9159 O   0  0  0  0  0  0  0  0  0  0  0  0
   10.6596  -14.1408   29.0789 O   0  0  0  0  0  0  0  0  0  0  0  0
  2  1  1  6
  2  3  1  0
  3  4  1  0
  4  8  1  0
  4  5  2  0
  6  2  1  0
  6  9  1  0
  7  6  2  0
 10  9  1  0
 10 11  1  1
 10 13  1  0
 12 11  1  0
 13 21  1  0
 14 13  2  0
 16 17  2  0
 16 15  1  0
 18 16  1  0
 19 18  1  0
 20 19  1  6
 21 20  1  0
 22 23  1  0
 22 20  1  0
 24 22  2  0
M  END
$$$$
