DCQ.pdb
     RDKit          3D

 24 23  0  0  1  0  0  0  0  0999 V2000
    9.3266  -15.8085   20.3343 N   0  0  0  0  0  0  0  0  0  0  0  0
    8.6492  -16.3209   21.4990 C   0  0  1  0  0  0  0  0  0  0  0  0
    8.9928  -17.7571   21.7756 C   0  0  0  0  0  0  0  0  0  0  0  0
    8.7864  -18.5399   20.5431 C   0  0  0  0  0  0  0  0  0  0  0  0
    9.7733  -19.0011   19.9321 O   0  0  0  0  0  0  0  0  0  0  0  0
    8.8404  -15.4538   22.6852 C   0  0  0  0  0  0  0  0  0  0  0  0
   10.0080  -15.2891   23.1374 O   0  0  0  0  0  0  0  0  0  0  0  0
    7.5245  -18.7700   20.0560 O   0  0  0  0  0  0  0  0  0  0  0  0
    7.7756  -14.7915   23.3484 N   0  0  0  0  0  0  0  0  0  0  0  0
    8.0382  -14.0000   24.5027 C   0  0  1  0  0  0  0  0  0  0  0  0
    6.8212  -13.1118   24.7685 C   0  0  0  0  0  0  0  0  0  0  0  0
    6.9761  -12.2455   26.3338 S   0  0  0  0  0  0  0  0  0  0  0  0
    8.3924  -14.7840   25.7046 C   0  0  0  0  0  0  0  0  0  0  0  0
    7.5936  -15.7225   26.0138 O   0  0  0  0  0  0  0  0  0  0  0  0
   13.2951  -17.9209   26.9575 N   0  0  0  0  0  0  0  0  0  0  0  0
   12.6393  -17.9648   28.2266 C   0  0  0  0  0  0  0  0  0  0  0  0
   13.1217  -18.7290   29.1194 O   0  0  0  0  0  0  0  0  0  0  0  0
   11.4399  -17.1591   28.5393 C   0  0  0  0  0  0  0  0  0  0  0  0
   10.9240  -16.2994   27.4422 C   0  0  0  0  0  0  0  0  0  0  0  0
    9.7493  -15.4326   27.7010 C   0  0  2  0  0  0  0  0  0  0  0  0
    9.5138  -14.5731   26.5051 N   0  0  0  0  0  0  0  0  0  0  0  0
    9.8762  -14.5664   28.8584 C   0  0  0  0  0  0  0  0  0  0  0  0
    9.8399  -15.1181   30.1389 O   0  0  0  0  0  0  0  0  0  0  0  0
   10.0223  -13.3070   28.8147 O   0  0  0  0  0  0  0  0  0  0  0  0
  2  1  1  6
  2  3  1  0
  3  4  1  0
  4  8  1  0
  4  5  2  0
  6  2  1  0
  6  9  1  0
  7  6  2  0
 10  9  1  0
 10 11  1  1
 10 13  1  0
 12 11  1  0
 13 21  1  0
 14 13  2  0
 16 17  2  0
 16 15  1  0
 18 16  1  0
 19 18  1  0
 20 19  1  6
 21 20  1  0
 22 23  1  0
 22 20  1  0
 24 22  2  0
M  END
$$$$
