DCQ.pdb
     RDKit          3D

 24 23  0  0  1  0  0  0  0  0999 V2000
    8.2687  -15.5404   20.4863 N   0  0  0  0  0  0  0  0  0  0  0  0
    7.3590  -15.6529   21.5989 C   0  0  1  0  0  0  0  0  0  0  0  0
    6.9873  -17.0787   21.8927 C   0  0  0  0  0  0  0  0  0  0  0  0
    6.3670  -17.6645   20.6900 C   0  0  0  0  0  0  0  0  0  0  0  0
    6.9662  -18.5619   20.0610 O   0  0  0  0  0  0  0  0  0  0  0  0
    7.8504  -14.9365   22.7992 C   0  0  0  0  0  0  0  0  0  0  0  0
    9.0552  -15.0861   23.1471 O   0  0  0  0  0  0  0  0  0  0  0  0
    5.1392  -17.2383   20.2502 O   0  0  0  0  0  0  0  0  0  0  0  0
    7.0362  -14.0834   23.5877 N   0  0  0  0  0  0  0  0  0  0  0  0
    7.4578  -13.7043   24.8940 C   0  0  1  0  0  0  0  0  0  0  0  0
    6.5937  -12.5312   25.3608 C   0  0  0  0  0  0  0  0  0  0  0  0
    6.9730  -12.0766   27.0560 S   0  0  0  0  0  0  0  0  0  0  0  0
    7.4314  -14.8049   25.8801 C   0  0  0  0  0  0  0  0  0  0  0  0
    6.2929  -15.3198   26.1110 O   0  0  0  0  0  0  0  0  0  0  0  0
    6.9534  -20.0276   25.3204 N   0  0  0  0  0  0  0  0  0  0  0  0
    8.3007  -19.5815   25.1523 C   0  0  0  0  0  0  0  0  0  0  0  0
    9.0582  -20.2530   24.3848 O   0  0  0  0  0  0  0  0  0  0  0  0
    8.8383  -18.3788   25.8232 C   0  0  0  0  0  0  0  0  0  0  0  0
    7.8890  -17.6326   26.6897 C   0  0  0  0  0  0  0  0  0  0  0  0
    8.3881  -16.4769   27.4729 C   0  0  2  0  0  0  0  0  0  0  0  0
    8.5398  -15.3075   26.5597 N   0  0  0  0  0  0  0  0  0  0  0  0
    9.6598  -16.6960   28.1367 C   0  0  0  0  0  0  0  0  0  0  0  0
    9.7731  -17.7058   29.0920 O   0  0  0  0  0  0  0  0  0  0  0  0
   10.7187  -16.0309   27.9227 O   0  0  0  0  0  0  0  0  0  0  0  0
  2  1  1  6
  2  3  1  0
  3  4  1  0
  4  8  1  0
  4  5  2  0
  6  2  1  0
  6  9  1  0
  7  6  2  0
 10  9  1  0
 10 11  1  1
 10 13  1  0
 12 11  1  0
 13 21  1  0
 14 13  2  0
 16 17  2  0
 16 15  1  0
 18 16  1  0
 19 18  1  0
 20 19  1  6
 21 20  1  0
 22 23  1  0
 22 20  1  0
 24 22  2  0
M  END
$$$$
