DCQ.pdb
     RDKit          3D

 24 23  0  0  1  0  0  0  0  0999 V2000
    9.7058  -17.6411   18.6691 N   0  0  0  0  0  0  0  0  0  0  0  0
   10.8677  -17.3300   19.4636 C   0  0  1  0  0  0  0  0  0  0  0  0
   12.0023  -16.7981   18.6347 C   0  0  0  0  0  0  0  0  0  0  0  0
   12.4611  -17.8608   17.7212 C   0  0  0  0  0  0  0  0  0  0  0  0
   11.6889  -18.2934   16.8400 O   0  0  0  0  0  0  0  0  0  0  0  0
   10.5429  -16.4505   20.6108 C   0  0  0  0  0  0  0  0  0  0  0  0
   11.4800  -16.0542   21.3590 O   0  0  0  0  0  0  0  0  0  0  0  0
   13.7258  -18.3830   17.8243 O   0  0  0  0  0  0  0  0  0  0  0  0
    9.2257  -16.0239   20.9197 N   0  0  0  0  0  0  0  0  0  0  0  0
    8.9826  -15.2572   22.0948 C   0  0  1  0  0  0  0  0  0  0  0  0
    7.6528  -14.5198   21.9260 C   0  0  0  0  0  0  0  0  0  0  0  0
    6.3258  -15.3622   22.7941 S   0  0  0  0  0  0  0  0  0  0  0  0
    8.9935  -16.0471   23.3440 C   0  0  0  0  0  0  0  0  0  0  0  0
    8.6338  -17.2613   23.2395 O   0  0  0  0  0  0  0  0  0  0  0  0
   11.6218  -15.2049   29.3008 N   0  0  0  0  0  0  0  0  0  0  0  0
   10.2379  -14.8696   29.1786 C   0  0  0  0  0  0  0  0  0  0  0  0
    9.6878  -14.2531   30.1436 O   0  0  0  0  0  0  0  0  0  0  0  0
    9.4333  -15.2017   27.9837 C   0  0  0  0  0  0  0  0  0  0  0  0
   10.1617  -15.8528   26.8637 C   0  0  0  0  0  0  0  0  0  0  0  0
    9.3831  -16.4877   25.7734 C   0  0  2  0  0  0  0  0  0  0  0  0
    9.3614  -15.5673   24.6000 N   0  0  0  0  0  0  0  0  0  0  0  0
    8.0104  -16.8113   26.1155 C   0  0  0  0  0  0  0  0  0  0  0  0
    7.7394  -17.9523   26.8706 O   0  0  0  0  0  0  0  0  0  0  0  0
    6.9946  -16.1294   25.7802 O   0  0  0  0  0  0  0  0  0  0  0  0
  2  1  1  6
  2  3  1  0
  3  4  1  0
  4  8  1  0
  4  5  2  0
  6  2  1  0
  6  9  1  0
  7  6  2  0
 10  9  1  0
 10 11  1  6
 10 13  1  0
 12 11  1  0
 13 21  1  0
 14 13  2  0
 16 17  2  0
 16 15  1  0
 18 16  1  0
 19 18  1  0
 20 19  1  1
 21 20  1  0
 22 23  1  0
 22 20  1  0
 24 22  2  0
M  END
$$$$
