FTF.pdb
     RDKit          3D

 30 31  0  0  1  0  0  0  0  0999 V2000
    8.5966  -16.7618   19.4051 N   0  0  0  0  0  0  0  0  0  0  0  0
    9.7271  -16.7573   20.3142 C   0  0  1  0  0  0  0  0  0  0  0  0
   10.1763  -15.3182   20.4644 C   0  0  0  0  0  0  0  0  0  0  0  0
    9.0296  -14.3795   20.3889 C   0  0  0  0  0  0  0  0  0  0  0  0
    7.7334  -14.8723   20.2397 C   0  0  0  0  0  0  0  0  0  0  0  0
    6.6433  -14.0324   20.1651 C   0  0  0  0  0  0  0  0  0  0  0  0
    6.8410  -12.6693   20.2401 C   0  0  0  0  0  0  0  0  0  0  0  0
    8.1020  -12.1856   20.3854 C   0  0  0  0  0  0  0  0  0  0  0  0
    9.1864  -13.0279   20.4593 C   0  0  0  0  0  0  0  0  0  0  0  0
    9.3028  -17.2360   21.6764 C   0  0  0  0  0  0  0  0  0  0  0  0
    8.4285  -18.1272   21.8099 O   0  0  0  0  0  0  0  0  0  0  0  0
    9.2983  -19.4320   22.9246 C   0  0  0  0  0  0  0  0  0  0  0  0
   10.0279  -18.7579   24.0581 C   0  0  1  0  0  0  0  0  0  0  0  0
   11.3929  -18.8295   23.7653 O   0  0  0  0  0  0  0  0  0  0  0  0
    9.5867  -17.3092   24.1455 C   0  0  2  0  0  0  0  0  0  0  0  0
    9.8733  -16.6998   22.8608 N   0  0  0  0  0  0  0  0  0  0  0  0
   10.2774  -16.5975   25.2509 C   0  0  0  0  0  0  0  0  0  0  0  0
   11.3935  -16.0398   25.0528 O   0  0  0  0  0  0  0  0  0  0  0  0
    9.6736  -16.5476   26.5352 N   0  0  0  0  0  0  0  0  0  0  0  0
   10.3034  -15.8610   27.6545 C   0  0  1  0  0  0  0  0  0  0  0  0
    9.2487  -15.1597   28.5093 C   0  0  0  0  0  0  0  0  0  0  0  0
    8.4922  -14.2320   27.6232 C   0  0  0  0  0  0  0  0  0  0  0  0
    7.3194  -14.6517   27.0055 C   0  0  0  0  0  0  0  0  0  0  0  0
    6.5901  -13.8078   26.1705 C   0  0  0  0  0  0  0  0  0  0  0  0
    7.0172  -12.5248   25.9341 C   0  0  0  0  0  0  0  0  0  0  0  0
    8.1787  -12.0970   26.5409 C   0  0  0  0  0  0  0  0  0  0  0  0
    8.8995  -12.9429   27.3711 C   0  0  0  0  0  0  0  0  0  0  0  0
   11.1246  -16.7893   28.4672 C   0  0  0  0  0  0  0  0  0  0  0  0
   11.8917  -16.3772   29.3701 O   0  0  0  0  0  0  0  0  0  0  0  0
   11.0490  -18.1454   28.2305 O   0  0  0  0  0  0  0  0  0  0  0  0
  2 10  1  0
  2  1  1  6
  3  2  1  0
  4  9  1  0
  4  3  1  0
  5  4  2  0
  6  7  2  0
  6  5  1  0
  7  8  1  0
  8  9  2  0
 10 11  2  0
 13 15  1  0
 13 14  1  0
 13 12  1  6
 15 16  1  6
 16 10  1  0
 17 18  2  0
 17 15  1  0
 19 17  1  0
 20 19  1  0
 20 28  1  0
 20 21  1  1
 22 21  1  0
 23 22  2  0
 24 23  1  0
 25 24  2  0
 25 26  1  0
 26 27  2  0
 27 22  1  0
 28 30  1  0
 29 28  2  0
M  END
$$$$
