FTF.pdb
     RDKit          3D

 30 31  0  0  1  0  0  0  0  0999 V2000
    9.3921  -16.4612   17.7823 N   0  0  0  0  0  0  0  0  0  0  0  0
   10.2787  -16.2800   18.9160 C   0  0  1  0  0  0  0  0  0  0  0  0
   10.3830  -14.7901   19.1704 C   0  0  0  0  0  0  0  0  0  0  0  0
    9.0610  -14.1997   19.4953 C   0  0  0  0  0  0  0  0  0  0  0  0
    8.2612  -13.6781   18.4787 C   0  0  0  0  0  0  0  0  0  0  0  0
    7.0281  -13.1211   18.7408 C   0  0  0  0  0  0  0  0  0  0  0  0
    6.5746  -13.0794   20.0428 C   0  0  0  0  0  0  0  0  0  0  0  0
    7.3507  -13.5865   21.0356 C   0  0  0  0  0  0  0  0  0  0  0  0
    8.5803  -14.1411   20.7689 C   0  0  0  0  0  0  0  0  0  0  0  0
    9.6817  -16.9019   20.1496 C   0  0  0  0  0  0  0  0  0  0  0  0
    8.8588  -17.8467   20.0690 O   0  0  0  0  0  0  0  0  0  0  0  0
    9.6963  -19.0455   21.0002 C   0  0  0  0  0  0  0  0  0  0  0  0
   10.0185  -18.6285   22.4122 C   0  0  1  0  0  0  0  0  0  0  0  0
   11.4026  -18.7483   22.5678 O   0  0  0  0  0  0  0  0  0  0  0  0
    9.5917  -17.1875   22.6179 C   0  0  2  0  0  0  0  0  0  0  0  0
   10.0250  -16.4453   21.4494 N   0  0  0  0  0  0  0  0  0  0  0  0
   10.1685  -16.6235   23.8648 C   0  0  0  0  0  0  0  0  0  0  0  0
   10.9334  -15.6192   23.8176 O   0  0  0  0  0  0  0  0  0  0  0  0
    9.8538  -17.2218   25.1136 N   0  0  0  0  0  0  0  0  0  0  0  0
    9.1586  -16.4896   26.1632 C   0  0  1  0  0  0  0  0  0  0  0  0
    7.8441  -15.9196   25.6324 C   0  0  0  0  0  0  0  0  0  0  0  0
    7.7296  -14.5170   26.1200 C   0  0  0  0  0  0  0  0  0  0  0  0
    6.5895  -13.7697   25.8466 C   0  0  0  0  0  0  0  0  0  0  0  0
    6.4532  -12.4553   26.2881 C   0  0  0  0  0  0  0  0  0  0  0  0
    7.4541  -11.8581   27.0132 C   0  0  0  0  0  0  0  0  0  0  0  0
    8.5896  -12.5889   27.2907 C   0  0  0  0  0  0  0  0  0  0  0  0
    8.7182  -13.8972   26.8479 C   0  0  0  0  0  0  0  0  0  0  0  0
    8.9342  -17.3374   27.3581 C   0  0  0  0  0  0  0  0  0  0  0  0
    9.3409  -16.9992   28.4955 O   0  0  0  0  0  0  0  0  0  0  0  0
    8.2604  -18.5326   27.2241 O   0  0  0  0  0  0  0  0  0  0  0  0
  2 10  1  0
  2  1  1  6
  3  2  1  0
  4  9  1  0
  4  3  1  0
  5  4  2  0
  6  7  2  0
  6  5  1  0
  7  8  1  0
  8  9  2  0
 10 11  2  0
 13 15  1  0
 13 14  1  0
 13 12  1  6
 15 16  1  6
 16 10  1  0
 17 18  2  0
 17 15  1  0
 19 17  1  0
 20 19  1  0
 20 28  1  0
 20 21  1  6
 22 21  1  0
 23 22  2  0
 24 23  1  0
 25 24  2  0
 25 26  1  0
 26 27  2  0
 27 22  1  0
 28 30  1  0
 29 28  2  0
M  END
$$$$
