FTF.pdb
     RDKit          3D

 30 31  0  0  1  0  0  0  0  0999 V2000
    7.6757  -17.4507   18.6747 N   0  0  0  0  0  0  0  0  0  0  0  0
    8.1121  -16.4223   19.6001 C   0  0  1  0  0  0  0  0  0  0  0  0
    7.0843  -15.3102   19.5522 C   0  0  0  0  0  0  0  0  0  0  0  0
    7.3673  -14.2638   20.5654 C   0  0  0  0  0  0  0  0  0  0  0  0
    8.1629  -13.1676   20.2327 C   0  0  0  0  0  0  0  0  0  0  0  0
    8.4485  -12.1760   21.1462 C   0  0  0  0  0  0  0  0  0  0  0  0
    7.9334  -12.2716   22.4222 C   0  0  0  0  0  0  0  0  0  0  0  0
    7.1581  -13.3376   22.7500 C   0  0  0  0  0  0  0  0  0  0  0  0
    6.8760  -14.3244   21.8348 C   0  0  0  0  0  0  0  0  0  0  0  0
    8.1243  -16.9573   21.0066 C   0  0  0  0  0  0  0  0  0  0  0  0
    7.1335  -17.5661   21.4800 O   0  0  0  0  0  0  0  0  0  0  0  0
    9.3144  -19.6025   22.1982 C   0  0  0  0  0  0  0  0  0  0  0  0
   10.0113  -18.6544   23.1400 C   0  0  1  0  0  0  0  0  0  0  0  0
   11.2945  -18.4401   22.6285 O   0  0  0  0  0  0  0  0  0  0  0  0
    9.2438  -17.3471   23.1923 C   0  0  2  0  0  0  0  0  0  0  0  0
    9.2540  -16.7948   21.8511 N   0  0  0  0  0  0  0  0  0  0  0  0
    9.8422  -16.4054   24.1725 C   0  0  0  0  0  0  0  0  0  0  0  0
   10.7927  -15.6465   23.8311 O   0  0  0  0  0  0  0  0  0  0  0  0
    9.3377  -16.3635   25.4992 N   0  0  0  0  0  0  0  0  0  0  0  0
    9.9463  -15.5300   26.5269 C   0  0  1  0  0  0  0  0  0  0  0  0
    8.8730  -14.9584   27.4521 C   0  0  0  0  0  0  0  0  0  0  0  0
    8.0893  -13.9600   26.6730 C   0  0  0  0  0  0  0  0  0  0  0  0
    6.8792  -14.3182   26.0894 C   0  0  0  0  0  0  0  0  0  0  0  0
    6.1238  -13.4073   25.3540 C   0  0  0  0  0  0  0  0  0  0  0  0
    6.5614  -12.1172   25.1853 C   0  0  0  0  0  0  0  0  0  0  0  0
    7.7598  -11.7500   25.7591 C   0  0  0  0  0  0  0  0  0  0  0  0
    8.5065  -12.6624   26.4900 C   0  0  0  0  0  0  0  0  0  0  0  0
   10.9742  -16.2758   27.2911 C   0  0  0  0  0  0  0  0  0  0  0  0
   11.0216  -17.5293   27.2879 O   0  0  0  0  0  0  0  0  0  0  0  0
   11.9081  -15.5797   28.0286 O   0  0  0  0  0  0  0  0  0  0  0  0
  2 10  1  0
  2  1  1  6
  3  2  1  0
  4  9  1  0
  4  3  1  0
  5  4  2  0
  6  7  2  0
  6  5  1  0
  7  8  1  0
  8  9  2  0
 10 11  2  0
 13 15  1  0
 13 14  1  0
 13 12  1  6
 15 16  1  6
 16 10  1  0
 17 18  2  0
 17 15  1  0
 19 17  1  0
 20 19  1  0
 20 28  1  0
 20 21  1  1
 22 21  1  0
 23 22  2  0
 24 23  1  0
 25 24  2  0
 25 26  1  0
 26 27  2  0
 27 22  1  0
 28 30  1  0
 29 28  2  0
M  END
$$$$
