FTF.pdb
     RDKit          3D

 30 31  0  0  1  0  0  0  0  0999 V2000
    5.9256  -17.2159   21.4578 N   0  0  0  0  0  0  0  0  0  0  0  0
    6.6876  -16.2777   22.2601 C   0  0  1  0  0  0  0  0  0  0  0  0
    5.7966  -15.8386   23.4040 C   0  0  0  0  0  0  0  0  0  0  0  0
    6.4534  -14.8021   24.2383 C   0  0  0  0  0  0  0  0  0  0  0  0
    7.0831  -13.7150   23.6327 C   0  0  0  0  0  0  0  0  0  0  0  0
    7.7042  -12.7327   24.3734 C   0  0  0  0  0  0  0  0  0  0  0  0
    7.7022  -12.8287   25.7495 C   0  0  0  0  0  0  0  0  0  0  0  0
    7.0899  -13.8861   26.3430 C   0  0  0  0  0  0  0  0  0  0  0  0
    6.4715  -14.8635   25.5994 C   0  0  0  0  0  0  0  0  0  0  0  0
    7.8847  -16.9606   22.8647 C   0  0  0  0  0  0  0  0  0  0  0  0
    7.7523  -17.9253   23.6572 O   0  0  0  0  0  0  0  0  0  0  0  0
   10.0508  -18.7671   21.1312 C   0  0  0  0  0  0  0  0  0  0  0  0
   11.0370  -17.9168   21.8901 C   0  0  1  0  0  0  0  0  0  0  0  0
   11.4841  -16.9263   21.0108 O   0  0  0  0  0  0  0  0  0  0  0  0
   10.3405  -17.2845   23.0801 C   0  0  2  0  0  0  0  0  0  0  0  0
    9.2072  -16.5413   22.5631 N   0  0  0  0  0  0  0  0  0  0  0  0
   11.2626  -16.4071   23.8452 C   0  0  0  0  0  0  0  0  0  0  0  0
   11.6124  -15.2864   23.3787 O   0  0  0  0  0  0  0  0  0  0  0  0
   11.7497  -16.8370   25.1079 N   0  0  0  0  0  0  0  0  0  0  0  0
   12.9240  -16.2350   25.7243 C   0  0  1  0  0  0  0  0  0  0  0  0
   12.6271  -14.7947   26.1389 C   0  0  0  0  0  0  0  0  0  0  0  0
   11.5161  -14.8292   27.1301 C   0  0  0  0  0  0  0  0  0  0  0  0
   11.7666  -15.1753   28.4533 C   0  0  0  0  0  0  0  0  0  0  0  0
   10.7486  -15.2176   29.4036 C   0  0  0  0  0  0  0  0  0  0  0  0
    9.4566  -14.9149   29.0522 C   0  0  0  0  0  0  0  0  0  0  0  0
    9.1956  -14.5703   27.7432 C   0  0  0  0  0  0  0  0  0  0  0  0
   10.2144  -14.5303   26.8026 C   0  0  0  0  0  0  0  0  0  0  0  0
   13.4045  -17.0379   26.8737 C   0  0  0  0  0  0  0  0  0  0  0  0
   12.7434  -18.0009   27.3310 O   0  0  0  0  0  0  0  0  0  0  0  0
   14.6111  -16.7242   27.4623 O   0  0  0  0  0  0  0  0  0  0  0  0
  2 10  1  0
  2  1  1  6
  3  2  1  0
  4  9  1  0
  4  3  1  0
  5  4  2  0
  6  7  2  0
  6  5  1  0
  7  8  1  0
  8  9  2  0
 10 11  2  0
 13 15  1  0
 13 14  1  0
 13 12  1  6
 15 16  1  6
 16 10  1  0
 17 18  2  0
 17 15  1  0
 19 17  1  0
 20 19  1  0
 20 28  1  0
 20 21  1  1
 22 21  1  0
 23 22  2  0
 24 23  1  0
 25 24  2  0
 25 26  1  0
 26 27  2  0
 27 22  1  0
 28 30  1  0
 29 28  2  0
M  END
$$$$
