FTF.pdb
     RDKit          3D

 30 31  0  0  1  0  0  0  0  0999 V2000
    6.8528  -17.5248   19.5179 N   0  0  0  0  0  0  0  0  0  0  0  0
    7.5397  -16.4584   20.2217 C   0  0  1  0  0  0  0  0  0  0  0  0
    6.6292  -15.2477   20.2008 C   0  0  0  0  0  0  0  0  0  0  0  0
    7.2857  -14.0626   20.8059 C   0  0  0  0  0  0  0  0  0  0  0  0
    7.9958  -13.1718   20.0013 C   0  0  0  0  0  0  0  0  0  0  0  0
    8.6194  -12.0605   20.5264 C   0  0  0  0  0  0  0  0  0  0  0  0
    8.5382  -11.8247   21.8830 C   0  0  0  0  0  0  0  0  0  0  0  0
    7.8475  -12.6900   22.6698 C   0  0  0  0  0  0  0  0  0  0  0  0
    7.2270  -13.7974   22.1411 C   0  0  0  0  0  0  0  0  0  0  0  0
    7.7475  -16.8347   21.6640 C   0  0  0  0  0  0  0  0  0  0  0  0
    6.8190  -17.3321   22.3471 O   0  0  0  0  0  0  0  0  0  0  0  0
    9.5897  -19.3965   22.3271 C   0  0  0  0  0  0  0  0  0  0  0  0
   10.2332  -18.4317   23.2897 C   0  0  1  0  0  0  0  0  0  0  0  0
   11.3878  -17.9450   22.6698 O   0  0  0  0  0  0  0  0  0  0  0  0
    9.2723  -17.2929   23.5738 C   0  0  2  0  0  0  0  0  0  0  0  0
    8.9987  -16.6420   22.3068 N   0  0  0  0  0  0  0  0  0  0  0  0
    9.8371  -16.3405   24.5635 C   0  0  0  0  0  0  0  0  0  0  0  0
   10.5518  -15.3713   24.1816 O   0  0  0  0  0  0  0  0  0  0  0  0
    9.5679  -16.5267   25.9452 N   0  0  0  0  0  0  0  0  0  0  0  0
   10.2468  -15.7485   26.9723 C   0  0  1  0  0  0  0  0  0  0  0  0
    9.2568  -15.3167   28.0531 C   0  0  0  0  0  0  0  0  0  0  0  0
    8.3102  -14.3456   27.4375 C   0  0  0  0  0  0  0  0  0  0  0  0
    8.6396  -12.9969   27.3606 C   0  0  0  0  0  0  0  0  0  0  0  0
    7.7750  -12.0642   26.7916 C   0  0  0  0  0  0  0  0  0  0  0  0
    6.5612  -12.4589   26.2865 C   0  0  0  0  0  0  0  0  0  0  0  0
    6.2233  -13.7935   26.3569 C   0  0  0  0  0  0  0  0  0  0  0  0
    7.0892  -14.7165   26.9248 C   0  0  0  0  0  0  0  0  0  0  0  0
   11.3866  -16.4963   27.5540 C   0  0  0  0  0  0  0  0  0  0  0  0
   12.1312  -15.9926   28.4290 O   0  0  0  0  0  0  0  0  0  0  0  0
   11.6424  -17.7819   27.1270 O   0  0  0  0  0  0  0  0  0  0  0  0
  2 10  1  0
  2  1  1  6
  3  2  1  0
  4  9  1  0
  4  3  1  0
  5  4  2  0
  6  7  2  0
  6  5  1  0
  7  8  1  0
  8  9  2  0
 10 11  2  0
 13 15  1  0
 13 14  1  0
 13 12  1  6
 15 16  1  6
 16 10  1  0
 17 18  2  0
 17 15  1  0
 19 17  1  0
 20 19  1  0
 20 28  1  0
 20 21  1  1
 22 21  1  0
 23 22  2  0
 24 23  1  0
 25 24  2  0
 25 26  1  0
 26 27  2  0
 27 22  1  0
 28 30  1  0
 29 28  2  0
M  END
$$$$
