FTF.pdb
     RDKit          3D

 30 31  0  0  1  0  0  0  0  0999 V2000
    7.0244  -17.7019   18.4486 N   0  0  0  0  0  0  0  0  0  0  0  0
    7.6541  -16.6975   19.2847 C   0  0  1  0  0  0  0  0  0  0  0  0
    6.6550  -15.5729   19.4647 C   0  0  0  0  0  0  0  0  0  0  0  0
    7.1738  -14.5252   20.3784 C   0  0  0  0  0  0  0  0  0  0  0  0
    6.8991  -14.5924   21.7441 C   0  0  0  0  0  0  0  0  0  0  0  0
    7.3627  -13.6383   22.6241 C   0  0  0  0  0  0  0  0  0  0  0  0
    8.1178  -12.5904   22.1398 C   0  0  0  0  0  0  0  0  0  0  0  0
    8.3874  -12.5217   20.8103 C   0  0  0  0  0  0  0  0  0  0  0  0
    7.9226  -13.4762   19.9365 C   0  0  0  0  0  0  0  0  0  0  0  0
    7.9414  -17.2611   20.6502 C   0  0  0  0  0  0  0  0  0  0  0  0
    7.2634  -18.2080   21.1193 O   0  0  0  0  0  0  0  0  0  0  0  0
    8.9534  -19.5042   21.4946 C   0  0  0  0  0  0  0  0  0  0  0  0
    9.9180  -18.7450   22.3691 C   0  0  1  0  0  0  0  0  0  0  0  0
   11.0949  -18.5810   21.6326 O   0  0  0  0  0  0  0  0  0  0  0  0
    9.3233  -17.3926   22.7130 C   0  0  2  0  0  0  0  0  0  0  0  0
    8.9877  -16.7450   21.4593 N   0  0  0  0  0  0  0  0  0  0  0  0
   10.2680  -16.5721   23.5130 C   0  0  0  0  0  0  0  0  0  0  0  0
   11.0853  -15.7979   22.9397 O   0  0  0  0  0  0  0  0  0  0  0  0
   10.2466  -16.6635   24.9298 N   0  0  0  0  0  0  0  0  0  0  0  0
   11.0976  -15.8291   25.7669 C   0  0  1  0  0  0  0  0  0  0  0  0
   10.9299  -14.3568   25.3944 C   0  0  0  0  0  0  0  0  0  0  0  0
    9.6241  -13.8972   25.9437 C   0  0  0  0  0  0  0  0  0  0  0  0
    8.4866  -13.8991   25.1441 C   0  0  0  0  0  0  0  0  0  0  0  0
    7.2513  -13.4743   25.6286 C   0  0  0  0  0  0  0  0  0  0  0  0
    7.1253  -13.0377   26.9240 C   0  0  0  0  0  0  0  0  0  0  0  0
    8.2461  -13.0311   27.7266 C   0  0  0  0  0  0  0  0  0  0  0  0
    9.4727  -13.4556   27.2373 C   0  0  0  0  0  0  0  0  0  0  0  0
   10.8292  -16.0540   27.2071 C   0  0  0  0  0  0  0  0  0  0  0  0
   11.4999  -15.4858   28.1020 O   0  0  0  0  0  0  0  0  0  0  0  0
    9.8157  -16.9100   27.5820 O   0  0  0  0  0  0  0  0  0  0  0  0
  2 10  1  0
  2  1  1  6
  3  2  1  0
  4  9  1  0
  4  3  1  0
  5  4  2  0
  6  7  2  0
  6  5  1  0
  7  8  1  0
  8  9  2  0
 10 11  2  0
 13 15  1  0
 13 14  1  0
 13 12  1  6
 15 16  1  6
 16 10  1  0
 17 18  2  0
 17 15  1  0
 19 17  1  0
 20 19  1  0
 20 28  1  0
 20 21  1  6
 22 21  1  0
 23 22  2  0
 24 23  1  0
 25 24  2  0
 25 26  1  0
 26 27  2  0
 27 22  1  0
 28 30  1  0
 29 28  2  0
M  END
$$$$
