FTF.pdb
     RDKit          3D

 30 31  0  0  1  0  0  0  0  0999 V2000
   10.1021  -21.7457   13.1898 N   0  0  0  0  0  0  0  0  0  0  0  0
   10.1043  -22.9484   14.0009 C   0  0  1  0  0  0  0  0  0  0  0  0
   11.5160  -23.4981   13.9844 C   0  0  0  0  0  0  0  0  0  0  0  0
   11.9014  -23.9676   12.6306 C   0  0  0  0  0  0  0  0  0  0  0  0
   11.4632  -25.2098   12.1722 C   0  0  0  0  0  0  0  0  0  0  0  0
   11.8006  -25.6805   10.9216 C   0  0  0  0  0  0  0  0  0  0  0  0
   12.5921  -24.9017   10.1033 C   0  0  0  0  0  0  0  0  0  0  0  0
   13.0208  -23.6914   10.5464 C   0  0  0  0  0  0  0  0  0  0  0  0
   12.6814  -23.2261   11.7950 C   0  0  0  0  0  0  0  0  0  0  0  0
    9.7729  -22.6142   15.4303 C   0  0  0  0  0  0  0  0  0  0  0  0
    9.6939  -21.4228   15.8186 O   0  0  0  0  0  0  0  0  0  0  0  0
    6.8831  -23.0774   16.9696 C   0  0  0  0  0  0  0  0  0  0  0  0
    7.7782  -23.7115   18.0031 C   0  0  1  0  0  0  0  0  0  0  0  0
    7.6641  -25.0962   17.8482 O   0  0  0  0  0  0  0  0  0  0  0  0
    9.2103  -23.2742   17.7605 C   0  0  2  0  0  0  0  0  0  0  0  0
    9.5374  -23.6307   16.3931 N   0  0  0  0  0  0  0  0  0  0  0  0
   10.1427  -23.9101   18.7259 C   0  0  0  0  0  0  0  0  0  0  0  0
   10.9267  -24.8258   18.3483 O   0  0  0  0  0  0  0  0  0  0  0  0
   10.1473  -23.4808   20.0795 N   0  0  0  0  0  0  0  0  0  0  0  0
   11.0255  -24.0824   21.0736 C   0  0  1  0  0  0  0  0  0  0  0  0
   12.4868  -23.9276   20.6549 C   0  0  0  0  0  0  0  0  0  0  0  0
   12.8219  -22.4775   20.7098 C   0  0  0  0  0  0  0  0  0  0  0  0
   14.1492  -22.0646   20.7405 C   0  0  0  0  0  0  0  0  0  0  0  0
   14.4946  -20.7158   20.7931 C   0  0  0  0  0  0  0  0  0  0  0  0
   13.5203  -19.7491   20.8162 C   0  0  0  0  0  0  0  0  0  0  0  0
   12.2005  -20.1461   20.7862 C   0  0  0  0  0  0  0  0  0  0  0  0
   11.8643  -21.4908   20.7338 C   0  0  0  0  0  0  0  0  0  0  0  0
   10.7885  -23.5132   22.4214 C   0  0  0  0  0  0  0  0  0  0  0  0
   11.3801  -23.9500   23.4377 O   0  0  0  0  0  0  0  0  0  0  0  0
    9.8945  -22.4745   22.5709 O   0  0  0  0  0  0  0  0  0  0  0  0
  2 10  1  0
  2  1  1  6
  3  2  1  0
  4  9  1  0
  4  3  1  0
  5  4  2  0
  6  7  2  0
  6  5  1  0
  7  8  1  0
  8  9  2  0
 10 11  2  0
 13 15  1  0
 13 14  1  0
 13 12  1  6
 15 16  1  6
 16 10  1  0
 17 18  2  0
 17 15  1  0
 19 17  1  0
 20 19  1  0
 20 28  1  0
 20 21  1  6
 22 21  1  0
 23 22  2  0
 24 23  1  0
 25 24  2  0
 25 26  1  0
 26 27  2  0
 27 22  1  0
 28 30  1  0
 29 28  2  0
M  END
$$$$
