FTF.pdb
     RDKit          3D

 30 31  0  0  1  0  0  0  0  0999 V2000
    7.5931  -17.2848   18.5107 N   0  0  0  0  0  0  0  0  0  0  0  0
    8.0851  -16.3336   19.4892 C   0  0  1  0  0  0  0  0  0  0  0  0
    7.1569  -15.1367   19.4576 C   0  0  0  0  0  0  0  0  0  0  0  0
    7.5867  -14.0894   20.4168 C   0  0  0  0  0  0  0  0  0  0  0  0
    7.2187  -14.1795   21.7591 C   0  0  0  0  0  0  0  0  0  0  0  0
    7.5980  -13.2265   22.6797 C   0  0  0  0  0  0  0  0  0  0  0  0
    8.3612  -12.1565   22.2611 C   0  0  0  0  0  0  0  0  0  0  0  0
    8.7216  -12.0653   20.9546 C   0  0  0  0  0  0  0  0  0  0  0  0
    8.3406  -13.0188   20.0399 C   0  0  0  0  0  0  0  0  0  0  0  0
    8.0077  -16.9212   20.8725 C   0  0  0  0  0  0  0  0  0  0  0  0
    7.1268  -17.7638   21.1733 O   0  0  0  0  0  0  0  0  0  0  0  0
    8.7912  -19.3332   21.8080 C   0  0  0  0  0  0  0  0  0  0  0  0
    9.5860  -18.6182   22.8704 C   0  0  1  0  0  0  0  0  0  0  0  0
   10.8797  -18.4491   22.3684 O   0  0  0  0  0  0  0  0  0  0  0  0
    8.9514  -17.2685   23.1465 C   0  0  2  0  0  0  0  0  0  0  0  0
    8.9254  -16.5462   21.8889 N   0  0  0  0  0  0  0  0  0  0  0  0
    9.7000  -16.5197   24.1880 C   0  0  0  0  0  0  0  0  0  0  0  0
   10.7147  -15.8345   23.8770 O   0  0  0  0  0  0  0  0  0  0  0  0
    9.2666  -16.5791   25.5389 N   0  0  0  0  0  0  0  0  0  0  0  0
    9.9086  -15.7979   26.5871 C   0  0  1  0  0  0  0  0  0  0  0  0
    8.8636  -15.2531   27.5596 C   0  0  0  0  0  0  0  0  0  0  0  0
    7.9771  -14.3286   26.7997 C   0  0  0  0  0  0  0  0  0  0  0  0
    8.3285  -12.9929   26.6393 C   0  0  0  0  0  0  0  0  0  0  0  0
    7.5200  -12.1034   25.9349 C   0  0  0  0  0  0  0  0  0  0  0  0
    6.3414  -12.5293   25.3747 C   0  0  0  0  0  0  0  0  0  0  0  0
    5.9821  -13.8515   25.5269 C   0  0  0  0  0  0  0  0  0  0  0  0
    6.7922  -14.7313   26.2295 C   0  0  0  0  0  0  0  0  0  0  0  0
   10.9431  -16.5882   27.2957 C   0  0  0  0  0  0  0  0  0  0  0  0
   11.7402  -16.0590   28.1068 O   0  0  0  0  0  0  0  0  0  0  0  0
   11.0383  -17.9436   27.0624 O   0  0  0  0  0  0  0  0  0  0  0  0
  2 10  1  0
  2  1  1  6
  3  2  1  0
  4  9  1  0
  4  3  1  0
  5  4  2  0
  6  7  2  0
  6  5  1  0
  7  8  1  0
  8  9  2  0
 10 11  2  0
 13 15  1  0
 13 14  1  0
 13 12  1  6
 15 16  1  6
 16 10  1  0
 17 18  2  0
 17 15  1  0
 19 17  1  0
 20 19  1  0
 20 28  1  0
 20 21  1  1
 22 21  1  0
 23 22  2  0
 24 23  1  0
 25 24  2  0
 25 26  1  0
 26 27  2  0
 27 22  1  0
 28 30  1  0
 29 28  2  0
M  END
$$$$
