FTF.pdb
     RDKit          3D

 30 31  0  0  1  0  0  0  0  0999 V2000
    5.8889  -18.0305   19.8503 N   0  0  0  0  0  0  0  0  0  0  0  0
    6.7643  -16.9256   20.1928 C   0  0  1  0  0  0  0  0  0  0  0  0
    5.8866  -15.7122   20.4216 C   0  0  0  0  0  0  0  0  0  0  0  0
    6.6962  -14.4969   20.6850 C   0  0  0  0  0  0  0  0  0  0  0  0
    7.2961  -13.8154   19.6263 C   0  0  0  0  0  0  0  0  0  0  0  0
    8.0557  -12.6838   19.8309 C   0  0  0  0  0  0  0  0  0  0  0  0
    8.2261  -12.2143   21.1166 C   0  0  0  0  0  0  0  0  0  0  0  0
    7.6433  -12.8753   22.1503 C   0  0  0  0  0  0  0  0  0  0  0  0
    6.8864  -14.0040   21.9410 C   0  0  0  0  0  0  0  0  0  0  0  0
    7.4795  -17.2085   21.4863 C   0  0  0  0  0  0  0  0  0  0  0  0
    6.8507  -17.5629   22.5137 O   0  0  0  0  0  0  0  0  0  0  0  0
   10.2394  -19.4570   21.2644 C   0  0  0  0  0  0  0  0  0  0  0  0
   10.7444  -18.4359   22.2513 C   0  0  1  0  0  0  0  0  0  0  0  0
   11.6499  -17.6196   21.5673 O   0  0  0  0  0  0  0  0  0  0  0  0
    9.5770  -17.6113   22.7593 C   0  0  2  0  0  0  0  0  0  0  0  0
    8.8898  -17.0858   21.5950 N   0  0  0  0  0  0  0  0  0  0  0  0
   10.0334  -16.5214   23.6591 C   0  0  0  0  0  0  0  0  0  0  0  0
   10.7053  -15.5545   23.2015 O   0  0  0  0  0  0  0  0  0  0  0  0
    9.7086  -16.5733   25.0404 N   0  0  0  0  0  0  0  0  0  0  0  0
   10.4793  -15.8455   26.0391 C   0  0  1  0  0  0  0  0  0  0  0  0
   10.3448  -14.3393   25.8202 C   0  0  0  0  0  0  0  0  0  0  0  0
    8.9714  -13.9424   26.2378 C   0  0  0  0  0  0  0  0  0  0  0  0
    7.9181  -14.8441   26.1335 C   0  0  0  0  0  0  0  0  0  0  0  0
    6.6223  -14.5023   26.5148 C   0  0  0  0  0  0  0  0  0  0  0  0
    6.3503  -13.2510   27.0093 C   0  0  0  0  0  0  0  0  0  0  0  0
    7.3864  -12.3482   27.1174 C   0  0  0  0  0  0  0  0  0  0  0  0
    8.6740  -12.6955   26.7358 C   0  0  0  0  0  0  0  0  0  0  0  0
   10.0814  -16.2272   27.4149 C   0  0  0  0  0  0  0  0  0  0  0  0
   10.6111  -15.7064   28.4257 O   0  0  0  0  0  0  0  0  0  0  0  0
    9.1023  -17.1804   27.5974 O   0  0  0  0  0  0  0  0  0  0  0  0
  2 10  1  0
  2  1  1  1
  3  2  1  0
  4  9  1  0
  4  3  1  0
  5  4  2  0
  6  7  2  0
  6  5  1  0
  7  8  1  0
  8  9  2  0
 10 11  2  0
 13 15  1  0
 13 14  1  0
 13 12  1  6
 15 16  1  6
 16 10  1  0
 17 18  2  0
 17 15  1  0
 19 17  1  0
 20 19  1  0
 20 28  1  0
 20 21  1  1
 22 21  1  0
 23 22  2  0
 24 23  1  0
 25 24  2  0
 25 26  1  0
 26 27  2  0
 27 22  1  0
 28 30  1  0
 29 28  2  0
M  END
$$$$
