FTF.pdb
     RDKit          3D

 30 31  0  0  1  0  0  0  0  0999 V2000
    7.3519  -17.0146   19.8223 N   0  0  0  0  0  0  0  0  0  0  0  0
    7.8071  -15.9931   20.7461 C   0  0  1  0  0  0  0  0  0  0  0  0
    6.5802  -15.2502   21.2338 C   0  0  0  0  0  0  0  0  0  0  0  0
    6.9423  -14.1553   22.1675 C   0  0  0  0  0  0  0  0  0  0  0  0
    7.6122  -13.0275   21.6937 C   0  0  0  0  0  0  0  0  0  0  0  0
    7.9659  -11.9906   22.5299 C   0  0  0  0  0  0  0  0  0  0  0  0
    7.6483  -12.0718   23.8697 C   0  0  0  0  0  0  0  0  0  0  0  0
    6.9959  -13.1686   24.3348 C   0  0  0  0  0  0  0  0  0  0  0  0
    6.6452  -14.2006   23.4965 C   0  0  0  0  0  0  0  0  0  0  0  0
    8.4513  -16.6275   21.9492 C   0  0  0  0  0  0  0  0  0  0  0  0
    7.8779  -17.5449   22.5865 O   0  0  0  0  0  0  0  0  0  0  0  0
   12.5586  -18.2996   23.6275 C   0  0  0  0  0  0  0  0  0  0  0  0
   11.7820  -17.3936   22.7068 C   0  0  1  0  0  0  0  0  0  0  0  0
   11.5596  -18.1059   21.5247 O   0  0  0  0  0  0  0  0  0  0  0  0
   10.4598  -17.0337   23.3574 C   0  0  2  0  0  0  0  0  0  0  0  0
    9.7292  -16.2143   22.4094 N   0  0  0  0  0  0  0  0  0  0  0  0
   10.6645  -16.3233   24.6455 C   0  0  0  0  0  0  0  0  0  0  0  0
   11.1921  -15.1757   24.6652 O   0  0  0  0  0  0  0  0  0  0  0  0
   10.2623  -16.9440   25.8576 N   0  0  0  0  0  0  0  0  0  0  0  0
   10.7220  -16.4673   27.1547 C   0  0  1  0  0  0  0  0  0  0  0  0
    9.5311  -16.1792   28.0677 C   0  0  0  0  0  0  0  0  0  0  0  0
    8.8819  -14.9294   27.5833 C   0  0  0  0  0  0  0  0  0  0  0  0
    9.3780  -13.6877   27.9643 C   0  0  0  0  0  0  0  0  0  0  0  0
    8.7921  -12.5010   27.5288 C   0  0  0  0  0  0  0  0  0  0  0  0
    7.6965  -12.5290   26.7022 C   0  0  0  0  0  0  0  0  0  0  0  0
    7.1953  -13.7543   26.3176 C   0  0  0  0  0  0  0  0  0  0  0  0
    7.7840  -14.9316   26.7552 C   0  0  0  0  0  0  0  0  0  0  0  0
   11.6621  -17.4259   27.7825 C   0  0  0  0  0  0  0  0  0  0  0  0
   11.8208  -18.5869   27.3347 O   0  0  0  0  0  0  0  0  0  0  0  0
   12.3862  -17.0386   28.8898 O   0  0  0  0  0  0  0  0  0  0  0  0
  2 10  1  0
  2  1  1  6
  3  2  1  0
  4  9  1  0
  4  3  1  0
  5  4  2  0
  6  7  2  0
  6  5  1  0
  7  8  1  0
  8  9  2  0
 10 11  2  0
 13 15  1  0
 13 14  1  0
 13 12  1  1
 15 16  1  6
 16 10  1  0
 17 18  2  0
 17 15  1  0
 19 17  1  0
 20 19  1  0
 20 28  1  0
 20 21  1  1
 22 21  1  0
 23 22  2  0
 24 23  1  0
 25 24  2  0
 25 26  1  0
 26 27  2  0
 27 22  1  0
 28 30  1  0
 29 28  2  0
M  END
$$$$
