FTF.pdb
     RDKit          3D

 30 31  0  0  1  0  0  0  0  0999 V2000
    8.0445  -17.2504   18.0913 N   0  0  0  0  0  0  0  0  0  0  0  0
    8.4069  -16.3121   19.1366 C   0  0  1  0  0  0  0  0  0  0  0  0
    7.6203  -15.0408   18.8908 C   0  0  0  0  0  0  0  0  0  0  0  0
    7.8032  -14.0658   19.9943 C   0  0  0  0  0  0  0  0  0  0  0  0
    8.6667  -14.3602   21.0492 C   0  0  0  0  0  0  0  0  0  0  0  0
    8.8624  -13.4807   22.0921 C   0  0  0  0  0  0  0  0  0  0  0  0
    8.1858  -12.2787   22.0911 C   0  0  0  0  0  0  0  0  0  0  0  0
    7.3440  -11.9884   21.0654 C   0  0  0  0  0  0  0  0  0  0  0  0
    7.1522  -12.8693   20.0271 C   0  0  0  0  0  0  0  0  0  0  0  0
    7.9881  -16.8421   20.4814 C   0  0  0  0  0  0  0  0  0  0  0  0
    6.9679  -17.5628   20.6079 O   0  0  0  0  0  0  0  0  0  0  0  0
    8.2161  -19.2347   21.3138 C   0  0  0  0  0  0  0  0  0  0  0  0
    8.9599  -18.7552   22.5338 C   0  0  1  0  0  0  0  0  0  0  0  0
   10.3218  -18.7854   22.2202 O   0  0  0  0  0  0  0  0  0  0  0  0
    8.5288  -17.3373   22.8572 C   0  0  2  0  0  0  0  0  0  0  0  0
    8.7287  -16.5483   21.6566 N   0  0  0  0  0  0  0  0  0  0  0  0
    9.2947  -16.7855   24.0039 C   0  0  0  0  0  0  0  0  0  0  0  0
   10.4745  -16.3646   23.8408 O   0  0  0  0  0  0  0  0  0  0  0  0
    8.6905  -16.7340   25.2879 N   0  0  0  0  0  0  0  0  0  0  0  0
    9.3852  -16.1816   26.4426 C   0  0  1  0  0  0  0  0  0  0  0  0
    8.3865  -15.5517   27.4124 C   0  0  0  0  0  0  0  0  0  0  0  0
    7.7668  -14.3832   26.7279 C   0  0  0  0  0  0  0  0  0  0  0  0
    8.3817  -13.1369   26.7717 C   0  0  0  0  0  0  0  0  0  0  0  0
    7.8264  -12.0248   26.1423 C   0  0  0  0  0  0  0  0  0  0  0  0
    6.6433  -12.1337   25.4547 C   0  0  0  0  0  0  0  0  0  0  0  0
    6.0240  -13.3643   25.4041 C   0  0  0  0  0  0  0  0  0  0  0  0
    6.5829  -14.4671   26.0331 C   0  0  0  0  0  0  0  0  0  0  0  0
   10.2165  -17.2070   27.1166 C   0  0  0  0  0  0  0  0  0  0  0  0
   10.0543  -18.4331   26.9071 O   0  0  0  0  0  0  0  0  0  0  0  0
   11.1978  -16.8103   28.0000 O   0  0  0  0  0  0  0  0  0  0  0  0
  2 10  1  0
  2  1  1  6
  3  2  1  0
  4  9  1  0
  4  3  1  0
  5  4  2  0
  6  7  2  0
  6  5  1  0
  7  8  1  0
  8  9  2  0
 10 11  2  0
 13 15  1  0
 13 14  1  0
 13 12  1  6
 15 16  1  6
 16 10  1  0
 17 18  2  0
 17 15  1  0
 19 17  1  0
 20 19  1  0
 20 28  1  0
 20 21  1  1
 22 21  1  0
 23 22  2  0
 24 23  1  0
 25 24  2  0
 25 26  1  0
 26 27  2  0
 27 22  1  0
 28 30  1  0
 29 28  2  0
M  END
$$$$
