FTF.pdb
     RDKit          3D

 30 31  0  0  1  0  0  0  0  0999 V2000
    7.1380  -17.7725   18.5289 N   0  0  0  0  0  0  0  0  0  0  0  0
    7.7878  -16.7604   19.3400 C   0  0  1  0  0  0  0  0  0  0  0  0
    6.8077  -15.6161   19.4996 C   0  0  0  0  0  0  0  0  0  0  0  0
    7.3659  -14.5364   20.3508 C   0  0  0  0  0  0  0  0  0  0  0  0
    8.2331  -13.5927   19.8010 C   0  0  0  0  0  0  0  0  0  0  0  0
    8.7723  -12.5759   20.5593 C   0  0  0  0  0  0  0  0  0  0  0  0
    8.4446  -12.4908   21.8964 C   0  0  0  0  0  0  0  0  0  0  0  0
    7.6002  -13.4082   22.4355 C   0  0  0  0  0  0  0  0  0  0  0  0
    7.0649  -14.4208   21.6747 C   0  0  0  0  0  0  0  0  0  0  0  0
    8.0724  -17.2985   20.7163 C   0  0  0  0  0  0  0  0  0  0  0  0
    7.5146  -18.3424   21.1351 O   0  0  0  0  0  0  0  0  0  0  0  0
    9.4850  -19.3156   21.4369 C   0  0  0  0  0  0  0  0  0  0  0  0
   10.2188  -18.4922   22.4641 C   0  0  1  0  0  0  0  0  0  0  0  0
   11.4183  -18.0799   21.8762 O   0  0  0  0  0  0  0  0  0  0  0  0
    9.3758  -17.2865   22.8337 C   0  0  2  0  0  0  0  0  0  0  0  0
    8.9806  -16.6481   21.5926 N   0  0  0  0  0  0  0  0  0  0  0  0
   10.1229  -16.3508   23.7124 C   0  0  0  0  0  0  0  0  0  0  0  0
   11.0283  -15.6108   23.2344 O   0  0  0  0  0  0  0  0  0  0  0  0
    9.8119  -16.2932   25.0967 N   0  0  0  0  0  0  0  0  0  0  0  0
   10.5938  -15.4908   26.0273 C   0  0  1  0  0  0  0  0  0  0  0  0
   10.3353  -14.0031   25.7935 C   0  0  0  0  0  0  0  0  0  0  0  0
    8.8768  -13.7634   25.9758 C   0  0  0  0  0  0  0  0  0  0  0  0
    8.4314  -12.7730   26.8440 C   0  0  0  0  0  0  0  0  0  0  0  0
    7.0739  -12.5255   27.0367 C   0  0  0  0  0  0  0  0  0  0  0  0
    6.1307  -13.2630   26.3653 C   0  0  0  0  0  0  0  0  0  0  0  0
    6.5599  -14.2479   25.5016 C   0  0  0  0  0  0  0  0  0  0  0  0
    7.9131  -14.4886   25.3149 C   0  0  0  0  0  0  0  0  0  0  0  0
   10.3194  -15.8704   27.4335 C   0  0  0  0  0  0  0  0  0  0  0  0
    9.5136  -16.7860   27.7268 O   0  0  0  0  0  0  0  0  0  0  0  0
   10.9637  -15.2035   28.4536 O   0  0  0  0  0  0  0  0  0  0  0  0
  2 10  1  0
  2  1  1  6
  3  2  1  0
  4  9  1  0
  4  3  1  0
  5  4  2  0
  6  7  2  0
  6  5  1  0
  7  8  1  0
  8  9  2  0
 10 11  2  0
 13 15  1  0
 13 14  1  0
 13 12  1  6
 15 16  1  6
 16 10  1  0
 17 18  2  0
 17 15  1  0
 19 17  1  0
 20 19  1  0
 20 28  1  0
 20 21  1  1
 22 21  1  0
 23 22  2  0
 24 23  1  0
 25 24  2  0
 25 26  1  0
 26 27  2  0
 27 22  1  0
 28 30  1  0
 29 28  2  0
M  END
$$$$
