FTF.pdb
     RDKit          3D

 30 31  0  0  1  0  0  0  0  0999 V2000
    8.1336  -17.3890   17.5547 N   0  0  0  0  0  0  0  0  0  0  0  0
    8.4744  -16.3452   18.5027 C   0  0  1  0  0  0  0  0  0  0  0  0
    7.4904  -15.2120   18.2953 C   0  0  0  0  0  0  0  0  0  0  0  0
    7.7130  -14.1133   19.2674 C   0  0  0  0  0  0  0  0  0  0  0  0
    7.0327  -14.1106   20.4849 C   0  0  0  0  0  0  0  0  0  0  0  0
    7.2123  -13.1076   21.4129 C   0  0  0  0  0  0  0  0  0  0  0  0
    8.0880  -12.0805   21.1286 C   0  0  0  0  0  0  0  0  0  0  0  0
    8.7523  -12.0796   19.9438 C   0  0  0  0  0  0  0  0  0  0  0  0
    8.5696  -13.0827   19.0212 C   0  0  0  0  0  0  0  0  0  0  0  0
    8.2925  -16.8408   19.9120 C   0  0  0  0  0  0  0  0  0  0  0  0
    7.4765  -17.7568   20.1795 O   0  0  0  0  0  0  0  0  0  0  0  0
    8.8274  -19.0248   20.9546 C   0  0  0  0  0  0  0  0  0  0  0  0
    9.5961  -18.3503   22.0618 C   0  0  1  0  0  0  0  0  0  0  0  0
   10.9292  -18.2764   21.6474 O   0  0  0  0  0  0  0  0  0  0  0  0
    9.0384  -16.9569   22.2811 C   0  0  2  0  0  0  0  0  0  0  0  0
    9.0346  -16.2931   20.9913 N   0  0  0  0  0  0  0  0  0  0  0  0
    9.8396  -16.2024   23.2783 C   0  0  0  0  0  0  0  0  0  0  0  0
   10.7532  -15.4160   22.9007 O   0  0  0  0  0  0  0  0  0  0  0  0
    9.5712  -16.3712   24.6625 N   0  0  0  0  0  0  0  0  0  0  0  0
   10.3327  -15.6664   25.6846 C   0  0  1  0  0  0  0  0  0  0  0  0
   10.0862  -14.1615   25.5877 C   0  0  0  0  0  0  0  0  0  0  0  0
    8.7158  -13.8934   26.1056 C   0  0  0  0  0  0  0  0  0  0  0  0
    7.6678  -13.6502   25.2248 C   0  0  0  0  0  0  0  0  0  0  0  0
    6.3753  -13.3952   25.6784 C   0  0  0  0  0  0  0  0  0  0  0  0
    6.1014  -13.3776   27.0234 C   0  0  0  0  0  0  0  0  0  0  0  0
    7.1323  -13.6173   27.9067 C   0  0  0  0  0  0  0  0  0  0  0  0
    8.4166  -13.8705   27.4477 C   0  0  0  0  0  0  0  0  0  0  0  0
   10.0213  -16.1766   27.0408 C   0  0  0  0  0  0  0  0  0  0  0  0
    9.1111  -17.0167   27.2392 O   0  0  0  0  0  0  0  0  0  0  0  0
   10.7479  -15.7203   28.1199 O   0  0  0  0  0  0  0  0  0  0  0  0
  2 10  1  0
  2  1  1  6
  3  2  1  0
  4  9  1  0
  4  3  1  0
  5  4  2  0
  6  7  2  0
  6  5  1  0
  7  8  1  0
  8  9  2  0
 10 11  2  0
 13 15  1  0
 13 14  1  0
 13 12  1  6
 15 16  1  6
 16 10  1  0
 17 18  2  0
 17 15  1  0
 19 17  1  0
 20 19  1  0
 20 28  1  0
 20 21  1  1
 22 21  1  0
 23 22  2  0
 24 23  1  0
 25 24  2  0
 25 26  1  0
 26 27  2  0
 27 22  1  0
 28 30  1  0
 29 28  2  0
M  END
$$$$
