FTF.pdb
     RDKit          3D

 30 31  0  0  1  0  0  0  0  0999 V2000
    7.5591  -17.6927   17.6860 N   0  0  0  0  0  0  0  0  0  0  0  0
    8.0096  -16.6369   18.5730 C   0  0  1  0  0  0  0  0  0  0  0  0
    6.9566  -15.5479   18.5454 C   0  0  0  0  0  0  0  0  0  0  0  0
    7.2305  -14.5004   19.5599 C   0  0  0  0  0  0  0  0  0  0  0  0
    8.0125  -13.3946   19.2272 C   0  0  0  0  0  0  0  0  0  0  0  0
    8.2894  -12.4015   20.1420 C   0  0  0  0  0  0  0  0  0  0  0  0
    7.7790  -12.5055   21.4192 C   0  0  0  0  0  0  0  0  0  0  0  0
    7.0168  -13.5811   21.7470 C   0  0  0  0  0  0  0  0  0  0  0  0
    6.7435  -14.5692   20.8306 C   0  0  0  0  0  0  0  0  0  0  0  0
    8.0899  -17.1432   19.9879 C   0  0  0  0  0  0  0  0  0  0  0  0
    7.1363  -17.7719   20.5093 O   0  0  0  0  0  0  0  0  0  0  0  0
    9.3500  -19.6701   21.1403 C   0  0  0  0  0  0  0  0  0  0  0  0
   10.0229  -18.7466   22.1231 C   0  0  1  0  0  0  0  0  0  0  0  0
   11.3340  -18.5591   21.6759 O   0  0  0  0  0  0  0  0  0  0  0  0
    9.2849  -17.4216   22.1505 C   0  0  2  0  0  0  0  0  0  0  0  0
    9.2443  -16.9299   20.7865 N   0  0  0  0  0  0  0  0  0  0  0  0
    9.9465  -16.4507   23.0589 C   0  0  0  0  0  0  0  0  0  0  0  0
   10.8419  -15.6743   22.6213 O   0  0  0  0  0  0  0  0  0  0  0  0
    9.5650  -16.4004   24.4257 N   0  0  0  0  0  0  0  0  0  0  0  0
   10.2270  -15.5177   25.3765 C   0  0  1  0  0  0  0  0  0  0  0  0
   10.0809  -14.0608   24.9396 C   0  0  0  0  0  0  0  0  0  0  0  0
    8.8051  -13.5439   25.5081 C   0  0  0  0  0  0  0  0  0  0  0  0
    8.8230  -12.5879   26.5175 C   0  0  0  0  0  0  0  0  0  0  0  0
    7.6467  -12.0857   27.0701 C   0  0  0  0  0  0  0  0  0  0  0  0
    6.4256  -12.5283   26.6259 C   0  0  0  0  0  0  0  0  0  0  0  0
    6.3949  -13.4762   25.6254 C   0  0  0  0  0  0  0  0  0  0  0  0
    7.5702  -13.9715   25.0800 C   0  0  0  0  0  0  0  0  0  0  0  0
    9.7147  -15.7211   26.7523 C   0  0  0  0  0  0  0  0  0  0  0  0
   10.1739  -15.0841   27.7305 O   0  0  0  0  0  0  0  0  0  0  0  0
    8.7052  -16.6341   26.9716 O   0  0  0  0  0  0  0  0  0  0  0  0
  2 10  1  0
  2  1  1  6
  3  2  1  0
  4  9  1  0
  4  3  1  0
  5  4  2  0
  6  7  2  0
  6  5  1  0
  7  8  1  0
  8  9  2  0
 10 11  2  0
 13 15  1  0
 13 14  1  0
 13 12  1  6
 15 16  1  6
 16 10  1  0
 17 18  2  0
 17 15  1  0
 19 17  1  0
 20 19  1  0
 20 28  1  0
 20 21  1  6
 22 21  1  0
 23 22  2  0
 24 23  1  0
 25 24  2  0
 25 26  1  0
 26 27  2  0
 27 22  1  0
 28 30  1  0
 29 28  2  0
M  END
$$$$
