FTF.pdb
     RDKit          3D

 30 31  0  0  1  0  0  0  0  0999 V2000
    6.3597  -17.7089   19.9873 N   0  0  0  0  0  0  0  0  0  0  0  0
    7.1544  -16.8816   20.8752 C   0  0  1  0  0  0  0  0  0  0  0  0
    6.2515  -16.4471   22.0116 C   0  0  0  0  0  0  0  0  0  0  0  0
    6.8576  -15.3435   22.7967 C   0  0  0  0  0  0  0  0  0  0  0  0
    6.8153  -15.3739   24.1904 C   0  0  0  0  0  0  0  0  0  0  0  0
    7.3664  -14.3675   24.9540 C   0  0  0  0  0  0  0  0  0  0  0  0
    7.9752  -13.3034   24.3218 C   0  0  0  0  0  0  0  0  0  0  0  0
    8.0184  -13.2703   22.9646 C   0  0  0  0  0  0  0  0  0  0  0  0
    7.4671  -14.2769   22.2072 C   0  0  0  0  0  0  0  0  0  0  0  0
    8.2727  -17.6883   21.4782 C   0  0  0  0  0  0  0  0  0  0  0  0
    8.4079  -18.9092   21.2182 O   0  0  0  0  0  0  0  0  0  0  0  0
   10.3019  -18.7016   20.4295 C   0  0  0  0  0  0  0  0  0  0  0  0
   11.2018  -18.0670   21.4585 C   0  0  1  0  0  0  0  0  0  0  0  0
   11.6363  -16.8496   20.9262 O   0  0  0  0  0  0  0  0  0  0  0  0
   10.4145  -17.8294   22.7331 C   0  0  2  0  0  0  0  0  0  0  0  0
    9.2159  -17.1016   22.3625 N   0  0  0  0  0  0  0  0  0  0  0  0
   11.2165  -17.0818   23.7349 C   0  0  0  0  0  0  0  0  0  0  0  0
   12.1528  -16.3194   23.3635 O   0  0  0  0  0  0  0  0  0  0  0  0
   10.9232  -17.2299   25.1164 N   0  0  0  0  0  0  0  0  0  0  0  0
   11.5826  -16.4219   26.1330 C   0  0  1  0  0  0  0  0  0  0  0  0
   11.3678  -14.9354   25.8522 C   0  0  0  0  0  0  0  0  0  0  0  0
   10.3024  -14.4504   26.7729 C   0  0  0  0  0  0  0  0  0  0  0  0
    9.2030  -13.7615   26.2731 C   0  0  0  0  0  0  0  0  0  0  0  0
    8.1907  -13.2944   27.1089 C   0  0  0  0  0  0  0  0  0  0  0  0
    8.2549  -13.5058   28.4637 C   0  0  0  0  0  0  0  0  0  0  0  0
    9.3401  -14.1877   28.9712 C   0  0  0  0  0  0  0  0  0  0  0  0
   10.3441  -14.6498   28.1330 C   0  0  0  0  0  0  0  0  0  0  0  0
   11.1238  -16.7842   27.4950 C   0  0  0  0  0  0  0  0  0  0  0  0
   10.1210  -17.5138   27.6835 O   0  0  0  0  0  0  0  0  0  0  0  0
   11.8131  -16.3101   28.5908 O   0  0  0  0  0  0  0  0  0  0  0  0
  2 10  1  0
  2  1  1  6
  3  2  1  0
  4  9  1  0
  4  3  1  0
  5  4  2  0
  6  7  2  0
  6  5  1  0
  7  8  1  0
  8  9  2  0
 10 11  2  0
 13 15  1  0
 13 14  1  0
 13 12  1  6
 15 16  1  6
 16 10  1  0
 17 18  2  0
 17 15  1  0
 19 17  1  0
 20 19  1  0
 20 28  1  0
 20 21  1  6
 22 21  1  0
 23 22  2  0
 24 23  1  0
 25 24  2  0
 25 26  1  0
 26 27  2  0
 27 22  1  0
 28 30  1  0
 29 28  2  0
M  END
$$$$
