TAI.pdb
     RDKit          3D

 21 20  0  0  1  0  0  0  0  0999 V2000
    8.5430  -12.4438   19.8505 C   0  0  0  0  0  0  0  0  0  0  0  0
    7.9525  -13.2728   18.7027 C   0  0  1  0  0  0  0  0  0  0  0  0
    8.4893  -12.8268   17.4853 O   0  0  0  0  0  0  0  0  0  0  0  0
    8.3885  -14.6977   18.9072 C   0  0  2  0  0  0  0  0  0  0  0  0
    7.8762  -15.4833   17.7831 N   0  0  0  0  0  0  0  0  0  0  0  0
    7.7476  -15.1905   20.1804 C   0  0  0  0  0  0  0  0  0  0  0  0
    6.5257  -15.0861   20.4275 O   0  0  0  0  0  0  0  0  0  0  0  0
    8.2616  -17.7048   22.6173 C   0  0  0  0  0  0  0  0  0  0  0  0
    7.9891  -16.2322   22.4353 C   0  0  2  0  0  0  0  0  0  0  0  0
    8.5415  -15.8139   21.1866 N   0  0  0  0  0  0  0  0  0  0  0  0
    8.6152  -15.4700   23.5840 C   0  0  0  0  0  0  0  0  0  0  0  0
    9.8231  -15.1245   23.5602 O   0  0  0  0  0  0  0  0  0  0  0  0
    5.8258  -11.6724   26.1518 C   0  0  0  0  0  0  0  0  0  0  0  0
    6.9552  -12.4917   25.5798 C   0  0  0  0  0  0  0  0  0  0  0  0
    7.4197  -13.5626   26.5628 C   0  0  2  0  0  0  0  0  0  0  0  0
    8.0889  -12.8691   27.7235 C   0  0  0  0  0  0  0  0  0  0  0  0
    8.4332  -14.4505   25.8813 C   0  0  2  0  0  0  0  0  0  0  0  0
    7.8533  -15.1210   24.7273 N   0  0  0  0  0  0  0  0  0  0  0  0
    9.0030  -15.4491   26.8349 C   0  0  0  0  0  0  0  0  0  0  0  0
    9.8650  -15.1080   27.6801 O   0  0  0  0  0  0  0  0  0  0  0  0
    8.6236  -16.7797   26.8446 O   0  0  0  0  0  0  0  0  0  0  0  0
  2  1  1  1
  2  4  1  0
  3  2  1  0
  4  5  1  6
  6  4  1  0
  6 10  1  0
  7  6  2  0
  9 10  1  0
  9  8  1  1
 11  9  1  0
 12 11  2  0
 13 14  1  0
 14 15  1  0
 15 16  1  1
 17 15  1  0
 17 18  1  6
 18 11  1  0
 19 17  1  0
 20 19  2  0
 21 19  1  0
M  END
$$$$
