TAI.pdb
     RDKit          3D

 21 20  0  0  1  0  0  0  0  0999 V2000
   10.8299  -14.6070   19.9980 C   0  0  0  0  0  0  0  0  0  0  0  0
   10.0375  -13.4566   19.3643 C   0  0  1  0  0  0  0  0  0  0  0  0
   10.6009  -13.1365   18.1196 O   0  0  0  0  0  0  0  0  0  0  0  0
    8.6379  -13.9530   19.1256 C   0  0  2  0  0  0  0  0  0  0  0  0
    7.8853  -12.8687   18.4924 N   0  0  0  0  0  0  0  0  0  0  0  0
    8.0263  -14.2516   20.4715 C   0  0  0  0  0  0  0  0  0  0  0  0
    7.7407  -13.3723   21.3142 O   0  0  0  0  0  0  0  0  0  0  0  0
    6.8387  -17.4068   22.1144 C   0  0  0  0  0  0  0  0  0  0  0  0
    7.0842  -15.9189   22.0718 C   0  0  2  0  0  0  0  0  0  0  0  0
    7.7437  -15.5973   20.8466 N   0  0  0  0  0  0  0  0  0  0  0  0
    7.9349  -15.5260   23.2610 C   0  0  0  0  0  0  0  0  0  0  0  0
    9.1858  -15.6447   23.2398 O   0  0  0  0  0  0  0  0  0  0  0  0
    5.6379  -12.2171   27.3280 C   0  0  0  0  0  0  0  0  0  0  0  0
    6.1604  -13.4294   26.5992 C   0  0  0  0  0  0  0  0  0  0  0  0
    7.5697  -13.1928   26.0638 C   0  0  2  0  0  0  0  0  0  0  0  0
    7.4720  -12.2267   24.9091 C   0  0  0  0  0  0  0  0  0  0  0  0
    8.1289  -14.4995   25.5542 C   0  0  2  0  0  0  0  0  0  0  0  0
    7.3428  -15.0092   24.4407 N   0  0  0  0  0  0  0  0  0  0  0  0
    8.2080  -15.5149   26.6469 C   0  0  0  0  0  0  0  0  0  0  0  0
    7.4804  -16.5367   26.6254 O   0  0  0  0  0  0  0  0  0  0  0  0
    9.0685  -15.3940   27.7236 O   0  0  0  0  0  0  0  0  0  0  0  0
  2  1  1  6
  2  4  1  0
  3  2  1  0
  4  5  1  1
  6  4  1  0
  6 10  1  0
  7  6  2  0
  9 10  1  0
  9  8  1  6
 11  9  1  0
 12 11  2  0
 13 14  1  0
 14 15  1  0
 15 16  1  6
 17 15  1  0
 17 18  1  6
 18 11  1  0
 19 17  1  0
 20 19  2  0
 21 19  1  0
M  END
$$$$
