TAI.pdb
     RDKit          3D

 21 20  0  0  1  0  0  0  0  0999 V2000
   10.0882  -13.3815   20.2415 C   0  0  0  0  0  0  0  0  0  0  0  0
    8.9402  -13.0435   19.2819 C   0  0  1  0  0  0  0  0  0  0  0  0
    9.4719  -12.6319   18.0502 O   0  0  0  0  0  0  0  0  0  0  0  0
    8.1607  -14.3089   19.0506 C   0  0  2  0  0  0  0  0  0  0  0  0
    7.0560  -13.9893   18.1445 N   0  0  0  0  0  0  0  0  0  0  0  0
    7.5935  -14.7422   20.3792 C   0  0  0  0  0  0  0  0  0  0  0  0
    6.6993  -14.1155   20.9893 O   0  0  0  0  0  0  0  0  0  0  0  0
    7.8701  -17.8237   22.4443 C   0  0  0  0  0  0  0  0  0  0  0  0
    7.5992  -16.3477   22.2899 C   0  0  2  0  0  0  0  0  0  0  0  0
    8.0763  -15.9245   21.0121 N   0  0  0  0  0  0  0  0  0  0  0  0
    8.3018  -15.5990   23.4026 C   0  0  0  0  0  0  0  0  0  0  0  0
    9.5244  -15.3172   23.3327 O   0  0  0  0  0  0  0  0  0  0  0  0
    5.3315  -11.8929   25.9300 C   0  0  0  0  0  0  0  0  0  0  0  0
    6.4485  -12.6803   25.2925 C   0  0  0  0  0  0  0  0  0  0  0  0
    7.1808  -13.5393   26.3194 C   0  0  2  0  0  0  0  0  0  0  0  0
    7.8930  -12.6147   27.2755 C   0  0  0  0  0  0  0  0  0  0  0  0
    8.2101  -14.3857   25.6093 C   0  0  2  0  0  0  0  0  0  0  0  0
    7.5977  -15.1909   24.5633 N   0  0  0  0  0  0  0  0  0  0  0  0
    8.9509  -15.2548   26.5723 C   0  0  0  0  0  0  0  0  0  0  0  0
    8.5607  -16.4228   26.8117 O   0  0  0  0  0  0  0  0  0  0  0  0
   10.0860  -14.8350   27.2429 O   0  0  0  0  0  0  0  0  0  0  0  0
  2  1  1  1
  2  4  1  0
  3  2  1  0
  4  5  1  6
  6  4  1  0
  6 10  1  0
  7  6  2  0
  9 10  1  0
  9  8  1  1
 11  9  1  0
 12 11  2  0
 13 14  1  0
 14 15  1  0
 15 16  1  1
 17 15  1  0
 17 18  1  6
 18 11  1  0
 19 17  1  0
 20 19  2  0
 21 19  1  0
M  END
$$$$
