TAI.pdb
     RDKit          3D

 21 20  0  0  1  0  0  0  0  0999 V2000
   10.4320  -14.1448   17.9434 C   0  0  0  0  0  0  0  0  0  0  0  0
    9.8580  -14.2987   19.3576 C   0  0  1  0  0  0  0  0  0  0  0  0
   10.2622  -13.2082   20.1428 O   0  0  0  0  0  0  0  0  0  0  0  0
    8.3591  -14.2557   19.2411 C   0  0  2  0  0  0  0  0  0  0  0  0
    7.9873  -12.9091   18.8029 N   0  0  0  0  0  0  0  0  0  0  0  0
    7.7895  -14.4968   20.6166 C   0  0  0  0  0  0  0  0  0  0  0  0
    7.5110  -13.5814   21.4223 O   0  0  0  0  0  0  0  0  0  0  0  0
    6.8198  -17.5921   22.5018 C   0  0  0  0  0  0  0  0  0  0  0  0
    6.9638  -16.0988   22.3428 C   0  0  2  0  0  0  0  0  0  0  0  0
    7.5415  -15.8266   21.0655 N   0  0  0  0  0  0  0  0  0  0  0  0
    7.8422  -15.5677   23.4558 C   0  0  0  0  0  0  0  0  0  0  0  0
    9.0935  -15.5356   23.3446 O   0  0  0  0  0  0  0  0  0  0  0  0
    5.6603  -11.7937   26.7497 C   0  0  0  0  0  0  0  0  0  0  0  0
    6.6046  -12.5996   25.8937 C   0  0  0  0  0  0  0  0  0  0  0  0
    7.2612  -13.7214   26.6931 C   0  0  2  0  0  0  0  0  0  0  0  0
    8.1813  -13.0910   27.7091 C   0  0  0  0  0  0  0  0  0  0  0  0
    8.0854  -14.5747   25.7591 C   0  0  2  0  0  0  0  0  0  0  0  0
    7.2764  -15.0876   24.6637 N   0  0  0  0  0  0  0  0  0  0  0  0
    8.7437  -15.6968   26.4932 C   0  0  0  0  0  0  0  0  0  0  0  0
    8.1748  -16.8092   26.6060 O   0  0  0  0  0  0  0  0  0  0  0  0
    9.9916  -15.5810   27.0795 O   0  0  0  0  0  0  0  0  0  0  0  0
  2  1  1  6
  2  4  1  0
  3  2  1  0
  4  5  1  1
  6  4  1  0
  6 10  1  0
  7  6  2  0
  9 10  1  0
  9  8  1  1
 11  9  1  0
 12 11  2  0
 13 14  1  0
 14 15  1  0
 15 16  1  1
 17 15  1  0
 17 18  1  6
 18 11  1  0
 19 17  1  0
 20 19  2  0
 21 19  1  0
M  END
$$$$
