TAI.pdb
     RDKit          3D

 21 20  0  0  1  0  0  0  0  0999 V2000
   10.8035  -13.8655   20.1743 C   0  0  0  0  0  0  0  0  0  0  0  0
    9.6973  -13.1049   19.4321 C   0  0  1  0  0  0  0  0  0  0  0  0
   10.1905  -12.6592   18.1963 O   0  0  0  0  0  0  0  0  0  0  0  0
    8.5846  -14.0804   19.1626 C   0  0  2  0  0  0  0  0  0  0  0  0
    7.5324  -13.3634   18.4398 N   0  0  0  0  0  0  0  0  0  0  0  0
    8.0422  -14.5304   20.4959 C   0  0  0  0  0  0  0  0  0  0  0  0
    7.3444  -13.8073   21.2408 O   0  0  0  0  0  0  0  0  0  0  0  0
    7.9812  -17.8252   22.2641 C   0  0  0  0  0  0  0  0  0  0  0  0
    7.7778  -16.3316   22.2030 C   0  0  2  0  0  0  0  0  0  0  0  0
    8.3181  -15.8444   20.9741 N   0  0  0  0  0  0  0  0  0  0  0  0
    8.4703  -15.6916   23.3876 C   0  0  0  0  0  0  0  0  0  0  0  0
    9.7029  -15.4472   23.3727 O   0  0  0  0  0  0  0  0  0  0  0  0
    5.8380  -11.8478   25.9763 C   0  0  0  0  0  0  0  0  0  0  0  0
    6.8903  -12.7440   25.3737 C   0  0  0  0  0  0  0  0  0  0  0  0
    7.4020  -13.7625   26.3883 C   0  0  2  0  0  0  0  0  0  0  0  0
    8.1440  -13.0119   27.4665 C   0  0  0  0  0  0  0  0  0  0  0  0
    8.3662  -14.7001   25.7019 C   0  0  2  0  0  0  0  0  0  0  0  0
    7.7451  -15.3464   24.5556 N   0  0  0  0  0  0  0  0  0  0  0  0
    8.8960  -15.7213   26.6547 C   0  0  0  0  0  0  0  0  0  0  0  0
    8.3337  -16.8361   26.7766 O   0  0  0  0  0  0  0  0  0  0  0  0
   10.0131  -15.5056   27.4421 O   0  0  0  0  0  0  0  0  0  0  0  0
  2  1  1  6
  2  4  1  0
  3  2  1  0
  4  5  1  6
  6  4  1  0
  6 10  1  0
  7  6  2  0
  9 10  1  0
  9  8  1  1
 11  9  1  0
 12 11  2  0
 13 14  1  0
 14 15  1  0
 15 16  1  1
 17 15  1  0
 17 18  1  6
 18 11  1  0
 19 17  1  0
 20 19  2  0
 21 19  1  0
M  END
$$$$
