TAI.pdb
     RDKit          3D

 21 20  0  0  1  0  0  0  0  0999 V2000
   10.4092  -14.2134   17.8668 C   0  0  0  0  0  0  0  0  0  0  0  0
    9.8106  -14.4050   19.2661 C   0  0  1  0  0  0  0  0  0  0  0  0
   10.3588  -13.4527   20.1388 O   0  0  0  0  0  0  0  0  0  0  0  0
    8.3332  -14.1426   19.1624 C   0  0  2  0  0  0  0  0  0  0  0  0
    8.1567  -12.7262   18.8367 N   0  0  0  0  0  0  0  0  0  0  0  0
    7.7280  -14.4117   20.5173 C   0  0  0  0  0  0  0  0  0  0  0  0
    7.3545  -13.5115   21.3015 O   0  0  0  0  0  0  0  0  0  0  0  0
    6.8057  -17.5467   22.3553 C   0  0  0  0  0  0  0  0  0  0  0  0
    6.9789  -16.0524   22.2423 C   0  0  2  0  0  0  0  0  0  0  0  0
    7.5560  -15.7519   20.9711 N   0  0  0  0  0  0  0  0  0  0  0  0
    7.8729  -15.5740   23.3667 C   0  0  0  0  0  0  0  0  0  0  0  0
    9.1241  -15.5641   23.2503 O   0  0  0  0  0  0  0  0  0  0  0  0
    5.7321  -11.7913   26.5195 C   0  0  0  0  0  0  0  0  0  0  0  0
    6.7658  -12.5693   25.7449 C   0  0  0  0  0  0  0  0  0  0  0  0
    7.3558  -13.6996   26.5833 C   0  0  2  0  0  0  0  0  0  0  0  0
    8.2967  -13.0879   27.5916 C   0  0  0  0  0  0  0  0  0  0  0  0
    8.1445  -14.6205   25.6834 C   0  0  2  0  0  0  0  0  0  0  0  0
    7.3224  -15.1199   24.5915 N   0  0  0  0  0  0  0  0  0  0  0  0
    8.7336  -15.7551   26.4560 C   0  0  0  0  0  0  0  0  0  0  0  0
    8.1074  -16.8343   26.5867 O   0  0  0  0  0  0  0  0  0  0  0  0
    9.9766  -15.6873   27.0600 O   0  0  0  0  0  0  0  0  0  0  0  0
  2  1  1  6
  2  4  1  0
  3  2  1  0
  4  5  1  1
  6  4  1  0
  6 10  1  0
  7  6  2  0
  9 10  1  0
  9  8  1  1
 11  9  1  0
 12 11  2  0
 13 14  1  0
 14 15  1  0
 15 16  1  1
 17 15  1  0
 17 18  1  6
 18 11  1  0
 19 17  1  0
 20 19  2  0
 21 19  1  0
M  END
$$$$
