TAI.pdb
     RDKit          3D

 21 20  0  0  1  0  0  0  0  0999 V2000
    9.4414  -16.5810   18.7648 C   0  0  0  0  0  0  0  0  0  0  0  0
    8.9142  -16.2799   20.1735 C   0  0  1  0  0  0  0  0  0  0  0  0
    8.9819  -14.8981   20.4080 O   0  0  0  0  0  0  0  0  0  0  0  0
    7.4661  -16.6853   20.2072 C   0  0  2  0  0  0  0  0  0  0  0  0
    6.7391  -15.8084   19.2876 N   0  0  0  0  0  0  0  0  0  0  0  0
    6.9612  -16.4502   21.6088 C   0  0  0  0  0  0  0  0  0  0  0  0
    6.4242  -15.3842   21.9830 O   0  0  0  0  0  0  0  0  0  0  0  0
    6.7695  -18.5649   24.6941 C   0  0  0  0  0  0  0  0  0  0  0  0
    6.7585  -17.2435   23.9663 C   0  0  2  0  0  0  0  0  0  0  0  0
    7.0851  -17.4717   22.5949 N   0  0  0  0  0  0  0  0  0  0  0  0
    7.7660  -16.3167   24.6132 C   0  0  0  0  0  0  0  0  0  0  0  0
    8.9491  -16.2412   24.1964 O   0  0  0  0  0  0  0  0  0  0  0  0
    5.6087  -11.8751   26.8921 C   0  0  0  0  0  0  0  0  0  0  0  0
    6.5390  -12.7859   26.1312 C   0  0  0  0  0  0  0  0  0  0  0  0
    7.5393  -13.4645   27.0628 C   0  0  2  0  0  0  0  0  0  0  0  0
    8.5116  -12.4159   27.5438 C   0  0  0  0  0  0  0  0  0  0  0  0
    8.3026  -14.5114   26.2875 C   0  0  2  0  0  0  0  0  0  0  0  0
    7.4030  -15.5014   25.7146 N   0  0  0  0  0  0  0  0  0  0  0  0
    9.3317  -15.1734   27.1443 C   0  0  0  0  0  0  0  0  0  0  0  0
   10.4313  -14.6141   27.3721 O   0  0  0  0  0  0  0  0  0  0  0  0
    9.1397  -16.4141   27.7258 O   0  0  0  0  0  0  0  0  0  0  0  0
  2  1  1  6
  2  4  1  0
  3  2  1  0
  4  5  1  6
  6  4  1  0
  6 10  1  0
  7  6  2  0
  9 10  1  0
  9  8  1  1
 11  9  1  0
 12 11  2  0
 13 14  1  0
 14 15  1  0
 15 16  1  6
 17 15  1  0
 17 18  1  1
 18 11  1  0
 19 17  1  0
 20 19  2  0
 21 19  1  0
M  END
$$$$
