TAI.pdb
     RDKit          3D

 21 20  0  0  1  0  0  0  0  0999 V2000
    8.3812  -12.7532   18.3124 C   0  0  0  0  0  0  0  0  0  0  0  0
    8.4725  -13.4398   19.6811 C   0  0  1  0  0  0  0  0  0  0  0  0
    7.4214  -12.9912   20.4955 O   0  0  0  0  0  0  0  0  0  0  0  0
    8.2874  -14.9155   19.4565 C   0  0  2  0  0  0  0  0  0  0  0  0
    6.9535  -15.1130   18.8864 N   0  0  0  0  0  0  0  0  0  0  0  0
    8.3482  -15.5910   20.8036 C   0  0  0  0  0  0  0  0  0  0  0  0
    7.3418  -15.8227   21.5095 O   0  0  0  0  0  0  0  0  0  0  0  0
   11.0503  -17.2740   22.7516 C   0  0  0  0  0  0  0  0  0  0  0  0
    9.7138  -16.5830   22.6420 C   0  0  2  0  0  0  0  0  0  0  0  0
    9.6021  -16.0027   21.3419 N   0  0  0  0  0  0  0  0  0  0  0  0
    9.6194  -15.5203   23.7164 C   0  0  0  0  0  0  0  0  0  0  0  0
   10.1011  -14.3722   23.5467 O   0  0  0  0  0  0  0  0  0  0  0  0
    6.6352  -11.7785   26.6038 C   0  0  0  0  0  0  0  0  0  0  0  0
    7.6474  -12.8528   26.9122 C   0  0  0  0  0  0  0  0  0  0  0  0
    7.6488  -13.9404   25.8418 C   0  0  2  0  0  0  0  0  0  0  0  0
    6.4261  -14.7994   26.0505 C   0  0  0  0  0  0  0  0  0  0  0  0
    8.8780  -14.8001   26.0145 C   0  0  2  0  0  0  0  0  0  0  0  0
    8.9809  -15.7900   24.9529 N   0  0  0  0  0  0  0  0  0  0  0  0
    8.8877  -15.4647   27.3523 C   0  0  0  0  0  0  0  0  0  0  0  0
    8.8808  -14.7836   28.4058 O   0  0  0  0  0  0  0  0  0  0  0  0
    8.9040  -16.8394   27.5078 O   0  0  0  0  0  0  0  0  0  0  0  0
  2  1  1  6
  2  4  1  0
  3  2  1  0
  4  5  1  1
  6  4  1  0
  6 10  1  0
  7  6  2  0
  9 10  1  0
  9  8  1  6
 11  9  1  0
 12 11  2  0
 13 14  1  0
 14 15  1  0
 15 16  1  1
 17 15  1  0
 17 18  1  6
 18 11  1  0
 19 17  1  0
 20 19  2  0
 21 19  1  0
M  END
$$$$
