TAI.pdb
     RDKit          3D

 21 20  0  0  1  0  0  0  0  0999 V2000
    7.8102  -12.8175   20.0911 C   0  0  0  0  0  0  0  0  0  0  0  0
    8.7020  -13.7601   19.2731 C   0  0  1  0  0  0  0  0  0  0  0  0
    9.9677  -13.8381   19.8740 O   0  0  0  0  0  0  0  0  0  0  0  0
    8.0783  -15.1278   19.3268 C   0  0  2  0  0  0  0  0  0  0  0  0
    6.8632  -15.0928   18.5109 N   0  0  0  0  0  0  0  0  0  0  0  0
    7.6967  -15.3968   20.7609 C   0  0  0  0  0  0  0  0  0  0  0  0
    6.7412  -14.8357   21.3415 O   0  0  0  0  0  0  0  0  0  0  0  0
    8.5004  -18.1077   23.1324 C   0  0  0  0  0  0  0  0  0  0  0  0
    8.0569  -16.6910   22.8642 C   0  0  2  0  0  0  0  0  0  0  0  0
    8.4407  -16.3333   21.5359 N   0  0  0  0  0  0  0  0  0  0  0  0
    8.7046  -15.7719   23.8782 C   0  0  0  0  0  0  0  0  0  0  0  0
    9.8539  -15.2986   23.6937 O   0  0  0  0  0  0  0  0  0  0  0  0
    5.6160  -12.1458   26.3001 C   0  0  0  0  0  0  0  0  0  0  0  0
    6.7727  -12.8963   25.6895 C   0  0  0  0  0  0  0  0  0  0  0  0
    7.5351  -13.6964   26.7418 C   0  0  2  0  0  0  0  0  0  0  0  0
    8.1989  -12.7179   27.6788 C   0  0  0  0  0  0  0  0  0  0  0  0
    8.6057  -14.5136   26.0592 C   0  0  2  0  0  0  0  0  0  0  0  0
    8.0301  -15.4155   25.0730 N   0  0  0  0  0  0  0  0  0  0  0  0
    9.4185  -15.2760   27.0539 C   0  0  0  0  0  0  0  0  0  0  0  0
    9.0433  -16.4026   27.4588 O   0  0  0  0  0  0  0  0  0  0  0  0
   10.6070  -14.7981   27.5769 O   0  0  0  0  0  0  0  0  0  0  0  0
  2  1  1  1
  2  4  1  0
  3  2  1  0
  4  5  1  6
  6  4  1  0
  6 10  1  0
  7  6  2  0
  9 10  1  0
  9  8  1  1
 11  9  1  0
 12 11  2  0
 13 14  1  0
 14 15  1  0
 15 16  1  1
 17 15  1  0
 17 18  1  6
 18 11  1  0
 19 17  1  0
 20 19  2  0
 21 19  1  0
M  END
$$$$
