TAI.pdb
     RDKit          3D

 21 20  0  0  1  0  0  0  0  0999 V2000
    9.0764  -12.6077   19.9125 C   0  0  0  0  0  0  0  0  0  0  0  0
    8.2677  -13.2406   18.7729 C   0  0  1  0  0  0  0  0  0  0  0  0
    8.7993  -12.8264   17.5421 O   0  0  0  0  0  0  0  0  0  0  0  0
    8.4400  -14.7314   18.8741 C   0  0  2  0  0  0  0  0  0  0  0  0
    7.6565  -15.3417   17.7984 N   0  0  0  0  0  0  0  0  0  0  0  0
    7.8698  -15.1655   20.2011 C   0  0  0  0  0  0  0  0  0  0  0  0
    6.6619  -15.0542   20.5069 O   0  0  0  0  0  0  0  0  0  0  0  0
    8.6335  -17.6847   22.5709 C   0  0  0  0  0  0  0  0  0  0  0  0
    8.2084  -16.2445   22.4258 C   0  0  2  0  0  0  0  0  0  0  0  0
    8.7193  -15.7370   21.1926 N   0  0  0  0  0  0  0  0  0  0  0  0
    8.7457  -15.4520   23.5986 C   0  0  0  0  0  0  0  0  0  0  0  0
    9.9439  -15.0757   23.6416 O   0  0  0  0  0  0  0  0  0  0  0  0
    5.4339  -11.9491   26.0555 C   0  0  0  0  0  0  0  0  0  0  0  0
    6.6168  -12.6801   25.4723 C   0  0  0  0  0  0  0  0  0  0  0  0
    7.2691  -13.5962   26.5036 C   0  0  2  0  0  0  0  0  0  0  0  0
    7.8533  -12.7295   27.5917 C   0  0  0  0  0  0  0  0  0  0  0  0
    8.3899  -14.3626   25.8429 C   0  0  2  0  0  0  0  0  0  0  0  0
    7.9085  -15.1083   24.6897 N   0  0  0  0  0  0  0  0  0  0  0  0
    9.0632  -15.2771   26.8133 C   0  0  0  0  0  0  0  0  0  0  0  0
    9.8371  -14.8229   27.6901 O   0  0  0  0  0  0  0  0  0  0  0  0
    8.8788  -16.6483   26.8052 O   0  0  0  0  0  0  0  0  0  0  0  0
  2  1  1  1
  2  4  1  0
  3  2  1  0
  4  5  1  6
  6  4  1  0
  6 10  1  0
  7  6  2  0
  9 10  1  0
  9  8  1  1
 11  9  1  0
 12 11  2  0
 13 14  1  0
 14 15  1  0
 15 16  1  1
 17 15  1  0
 17 18  1  6
 18 11  1  0
 19 17  1  0
 20 19  2  0
 21 19  1  0
M  END
$$$$
