TAI.pdb
     RDKit          3D

 21 20  0  0  1  0  0  0  0  0999 V2000
   10.4332  -19.4740   19.1361 C   0  0  0  0  0  0  0  0  0  0  0  0
   10.3094  -18.5805   20.3767 C   0  0  1  0  0  0  0  0  0  0  0  0
   11.5102  -18.6251   21.1015 O   0  0  0  0  0  0  0  0  0  0  0  0
   10.1104  -17.1693   19.8959 C   0  0  2  0  0  0  0  0  0  0  0  0
   11.3351  -16.7595   19.2063 N   0  0  0  0  0  0  0  0  0  0  0  0
    9.9191  -16.2979   21.1118 C   0  0  0  0  0  0  0  0  0  0  0  0
   10.8580  -15.7327   21.7150 O   0  0  0  0  0  0  0  0  0  0  0  0
    6.8890  -15.0245   22.9089 C   0  0  0  0  0  0  0  0  0  0  0  0
    8.3773  -15.2070   22.7432 C   0  0  2  0  0  0  0  0  0  0  0  0
    8.6126  -16.0812   21.6388 N   0  0  0  0  0  0  0  0  0  0  0  0
    8.9475  -15.7866   24.0204 C   0  0  0  0  0  0  0  0  0  0  0  0
    9.2530  -17.0023   24.1092 O   0  0  0  0  0  0  0  0  0  0  0  0
   10.4121  -14.0244   29.8424 C   0  0  0  0  0  0  0  0  0  0  0  0
   10.5397  -14.9678   28.6730 C   0  0  0  0  0  0  0  0  0  0  0  0
    9.9062  -14.3830   27.4139 C   0  0  2  0  0  0  0  0  0  0  0  0
    8.5597  -13.8166   27.7912 C   0  0  0  0  0  0  0  0  0  0  0  0
    9.6999  -15.4890   26.4069 C   0  0  2  0  0  0  0  0  0  0  0  0
    9.1554  -14.9708   25.1609 N   0  0  0  0  0  0  0  0  0  0  0  0
    8.8179  -16.5617   26.9572 C   0  0  0  0  0  0  0  0  0  0  0  0
    7.5964  -16.5947   26.6731 O   0  0  0  0  0  0  0  0  0  0  0  0
    9.2830  -17.5609   27.7935 O   0  0  0  0  0  0  0  0  0  0  0  0
  2  1  1  6
  2  4  1  0
  3  2  1  0
  4  5  1  1
  6  4  1  0
  6 10  1  0
  7  6  2  0
  9 10  1  0
  9  8  1  1
 11  9  1  0
 12 11  2  0
 13 14  1  0
 14 15  1  0
 15 16  1  1
 17 15  1  0
 17 18  1  6
 18 11  1  0
 19 17  1  0
 20 19  2  0
 21 19  1  0
M  END
$$$$
