KCC.pdb
     RDKit          3D

 22 21  0  0  1  0  0  0  0  0999 V2000
    8.0461  -17.1027   19.1685 N   0  0  0  0  0  0  0  0  0  0  0  0
    8.8364  -17.4002   20.3146 C   0  0  1  0  0  0  0  0  0  0  0  0
   10.2969  -17.0228   20.1413 C   0  0  0  0  0  0  0  0  0  0  0  0
   11.0260  -18.0228   19.2970 C   0  0  0  0  0  0  0  0  0  0  0  0
   12.4096  -17.5424   19.0041 C   0  0  0  0  0  0  0  0  0  0  0  0
   13.1806  -18.5199   18.1620 C   0  0  0  0  0  0  0  0  0  0  0  0
   14.5189  -17.9779   17.9401 N   0  0  0  0  0  0  0  0  0  0  0  0
    8.3178  -16.6225   21.4692 C   0  0  0  0  0  0  0  0  0  0  0  0
    7.4422  -15.7351   21.2487 O   0  0  0  0  0  0  0  0  0  0  0  0
    8.7697  -16.8461   22.7779 N   0  0  0  0  0  0  0  0  0  0  0  0
    8.1310  -16.1404   23.8681 C   0  0  1  0  0  0  0  0  0  0  0  0
    6.6987  -16.5945   23.9134 C   0  0  0  0  0  0  0  0  0  0  0  0
    6.6430  -18.2389   24.7080 S   0  0  0  0  0  0  0  0  0  0  0  0
    8.8732  -16.3644   25.0998 C   0  0  0  0  0  0  0  0  0  0  0  0
    9.7960  -17.2118   25.1201 O   0  0  0  0  0  0  0  0  0  0  0  0
    8.6193  -15.6702   26.3190 N   0  0  0  0  0  0  0  0  0  0  0  0
    9.6694  -15.1248   27.1151 C   0  0  1  0  0  0  0  0  0  0  0  0
    9.2497  -13.8061   27.7160 C   0  0  0  0  0  0  0  0  0  0  0  0
   10.5788  -12.9983   28.6094 S   0  0  0  0  0  0  0  0  0  0  0  0
   10.1087  -16.0981   28.1162 C   0  0  0  0  0  0  0  0  0  0  0  0
    9.2585  -17.1245   28.4826 O   0  0  0  0  0  0  0  0  0  0  0  0
   11.2328  -16.0704   28.6844 O   0  0  0  0  0  0  0  0  0  0  0  0
  2  3  1  0
  2  8  1  0
  2  1  1  6
  4  3  1  0
  5  4  1  0
  6  5  1  0
  6  7  1  0
  8  9  2  0
 10 11  1  0
 10  8  1  0
 11 14  1  0
 12 13  1  0
 11 12  1  1
 14 16  1  0
 14 15  2  0
 16 17  1  0
 17 20  1  0
 17 18  1  1
 19 18  1  0
 20 22  2  0
 20 21  1  0
M  END
$$$$
