KCC.pdb
     RDKit          3D

 22 21  0  0  1  0  0  0  0  0999 V2000
    6.7513  -13.6339   20.7650 N   0  0  0  0  0  0  0  0  0  0  0  0
    6.9597  -14.6502   21.7398 C   0  0  1  0  0  0  0  0  0  0  0  0
    7.7504  -15.8309   21.2049 C   0  0  0  0  0  0  0  0  0  0  0  0
    7.0047  -16.5446   20.1191 C   0  0  0  0  0  0  0  0  0  0  0  0
    7.8270  -17.6681   19.5784 C   0  0  0  0  0  0  0  0  0  0  0  0
    7.1301  -18.3909   18.4599 C   0  0  0  0  0  0  0  0  0  0  0  0
    8.0041  -19.4644   17.9932 N   0  0  0  0  0  0  0  0  0  0  0  0
    7.7375  -14.0786   22.8690 C   0  0  0  0  0  0  0  0  0  0  0  0
    8.1994  -12.9064   22.7454 O   0  0  0  0  0  0  0  0  0  0  0  0
    7.9679  -14.7977   24.0510 N   0  0  0  0  0  0  0  0  0  0  0  0
    8.7232  -14.1710   25.1144 C   0  0  1  0  0  0  0  0  0  0  0  0
    7.9553  -12.9534   25.5477 C   0  0  0  0  0  0  0  0  0  0  0  0
    6.3347  -13.4970   26.1935 S   0  0  0  0  0  0  0  0  0  0  0  0
    8.9710  -15.1360   26.1754 C   0  0  0  0  0  0  0  0  0  0  0  0
    8.0506  -15.9044   26.5394 O   0  0  0  0  0  0  0  0  0  0  0  0
   10.2198  -15.2742   26.8493 N   0  0  0  0  0  0  0  0  0  0  0  0
   10.5814  -16.4680   27.5408 C   0  0  1  0  0  0  0  0  0  0  0  0
   11.9298  -16.9617   27.0780 C   0  0  0  0  0  0  0  0  0  0  0  0
   12.9530  -15.6513   26.4049 S   0  0  0  0  0  0  0  0  0  0  0  0
   10.5118  -16.2600   28.9880 C   0  0  0  0  0  0  0  0  0  0  0  0
   10.1923  -15.0078   29.4784 O   0  0  0  0  0  0  0  0  0  0  0  0
   10.7269  -17.1597   29.8433 O   0  0  0  0  0  0  0  0  0  0  0  0
  2  3  1  0
  2  8  1  0
  2  1  1  6
  4  3  1  0
  5  4  1  0
  6  5  1  0
  6  7  1  0
  8  9  2  0
 10 11  1  0
 10  8  1  0
 11 14  1  0
 12 13  1  0
 11 12  1  1
 14 16  1  0
 14 15  2  0
 16 17  1  0
 17 20  1  0
 17 18  1  1
 19 18  1  0
 20 22  2  0
 20 21  1  0
M  END
$$$$
