KCC.pdb
     RDKit          3D

 22 21  0  0  1  0  0  0  0  0999 V2000
    0.8033  -26.4307   19.2874 N   0  0  0  0  0  0  0  0  0  0  0  0
    1.9292  -25.9796   18.5420 C   0  0  1  0  0  0  0  0  0  0  0  0
    1.7430  -24.5838   17.9740 C   0  0  0  0  0  0  0  0  0  0  0  0
    0.6339  -24.5440   16.9676 C   0  0  0  0  0  0  0  0  0  0  0  0
    0.6406  -23.2389   16.2412 C   0  0  0  0  0  0  0  0  0  0  0  0
   -0.4835  -23.1393   15.2483 C   0  0  0  0  0  0  0  0  0  0  0  0
   -0.3563  -21.8691   14.5380 N   0  0  0  0  0  0  0  0  0  0  0  0
    3.1109  -25.9318   19.4408 C   0  0  0  0  0  0  0  0  0  0  0  0
    2.9419  -25.5372   20.6318 O   0  0  0  0  0  0  0  0  0  0  0  0
    4.3901  -26.3084   19.0061 N   0  0  0  0  0  0  0  0  0  0  0  0
    5.4751  -26.3314   19.9634 C   0  0  1  0  0  0  0  0  0  0  0  0
    5.8723  -27.7691   20.1511 C   0  0  0  0  0  0  0  0  0  0  0  0
    7.2897  -27.8271   21.3027 S   0  0  0  0  0  0  0  0  0  0  0  0
    6.5510  -25.4640   19.5072 C   0  0  0  0  0  0  0  0  0  0  0  0
    6.6829  -25.2344   18.2825 O   0  0  0  0  0  0  0  0  0  0  0  0
    7.4920  -24.8389   20.3771 N   0  0  0  0  0  0  0  0  0  0  0  0
    8.4625  -23.9077   19.9028 C   0  0  1  0  0  0  0  0  0  0  0  0
    7.8677  -22.5247   19.8054 C   0  0  0  0  0  0  0  0  0  0  0  0
    7.4788  -21.8239   21.4100 S   0  0  0  0  0  0  0  0  0  0  0  0
    9.6663  -23.9578   20.7340 C   0  0  0  0  0  0  0  0  0  0  0  0
   10.7649  -23.1961   20.3827 O   0  0  0  0  0  0  0  0  0  0  0  0
    9.7799  -24.6612   21.7730 O   0  0  0  0  0  0  0  0  0  0  0  0
  2  3  1  0
  2  8  1  0
  2  1  1  1
  4  3  1  0
  5  4  1  0
  6  5  1  0
  6  7  1  0
  8  9  2  0
 10 11  1  0
 10  8  1  0
 11 14  1  0
 12 13  1  0
 11 12  1  6
 14 16  1  0
 14 15  2  0
 16 17  1  0
 17 20  1  0
 17 18  1  1
 19 18  1  0
 20 22  2  0
 20 21  1  0
M  END
$$$$
