KCC.pdb
     RDKit          3D

 22 21  0  0  1  0  0  0  0  0999 V2000
   10.7960  -16.8926   17.6602 N   0  0  0  0  0  0  0  0  0  0  0  0
   10.3670  -17.5365   18.8552 C   0  0  1  0  0  0  0  0  0  0  0  0
   10.9475  -18.9299   19.0186 C   0  0  0  0  0  0  0  0  0  0  0  0
   12.3696  -18.9907   18.5511 C   0  0  0  0  0  0  0  0  0  0  0  0
   12.8382  -20.4079   18.5014 C   0  0  0  0  0  0  0  0  0  0  0  0
   14.2322  -20.5231   17.9512 C   0  0  0  0  0  0  0  0  0  0  0  0
   14.6199  -21.9313   17.9762 N   0  0  0  0  0  0  0  0  0  0  0  0
   10.8199  -16.7346   20.0207 C   0  0  0  0  0  0  0  0  0  0  0  0
   11.7764  -15.9223   19.8533 O   0  0  0  0  0  0  0  0  0  0  0  0
   10.2207  -16.8555   21.2830 N   0  0  0  0  0  0  0  0  0  0  0  0
   10.6733  -15.9972   22.3567 C   0  0  1  0  0  0  0  0  0  0  0  0
    9.4493  -15.4118   23.0042 C   0  0  0  0  0  0  0  0  0  0  0  0
    8.4474  -16.7818   23.6808 S   0  0  0  0  0  0  0  0  0  0  0  0
   11.5304  -16.7508   23.2597 C   0  0  0  0  0  0  0  0  0  0  0  0
   11.4797  -18.0027   23.2594 O   0  0  0  0  0  0  0  0  0  0  0  0
   12.4493  -16.1510   24.1701 N   0  0  0  0  0  0  0  0  0  0  0  0
   13.3895  -16.9203   24.9172 C   0  0  1  0  0  0  0  0  0  0  0  0
   14.7153  -16.2051   24.9986 C   0  0  0  0  0  0  0  0  0  0  0  0
   15.2894  -15.6275   23.4005 S   0  0  0  0  0  0  0  0  0  0  0  0
   12.8400  -17.2621   26.2303 C   0  0  0  0  0  0  0  0  0  0  0  0
   11.5986  -16.7746   26.5934 O   0  0  0  0  0  0  0  0  0  0  0  0
   13.4284  -17.9861   27.0768 O   0  0  0  0  0  0  0  0  0  0  0  0
  2  3  1  0
  2  8  1  0
  2  1  1  6
  4  3  1  0
  5  4  1  0
  6  5  1  0
  6  7  1  0
  8  9  2  0
 10 11  1  0
 10  8  1  0
 11 14  1  0
 12 13  1  0
 11 12  1  1
 14 16  1  0
 14 15  2  0
 16 17  1  0
 17 20  1  0
 17 18  1  1
 19 18  1  0
 20 22  2  0
 20 21  1  0
M  END
$$$$
