KCC.pdb
     RDKit          3D

 22 21  0  0  1  0  0  0  0  0999 V2000
    7.5120  -13.8047   20.5522 N   0  0  0  0  0  0  0  0  0  0  0  0
    7.0749  -14.5316   21.6955 C   0  0  1  0  0  0  0  0  0  0  0  0
    7.2489  -16.0325   21.5455 C   0  0  0  0  0  0  0  0  0  0  0  0
    6.3844  -16.5788   20.4507 C   0  0  0  0  0  0  0  0  0  0  0  0
    6.6445  -18.0378   20.2649 C   0  0  0  0  0  0  0  0  0  0  0  0
    5.8656  -18.6083   19.1129 C   0  0  0  0  0  0  0  0  0  0  0  0
    6.2050  -20.0235   18.9863 N   0  0  0  0  0  0  0  0  0  0  0  0
    7.8848  -14.1126   22.8682 C   0  0  0  0  0  0  0  0  0  0  0  0
    9.1056  -13.8327   22.6836 O   0  0  0  0  0  0  0  0  0  0  0  0
    7.3356  -14.0215   24.1555 N   0  0  0  0  0  0  0  0  0  0  0  0
    8.1997  -13.6661   25.2606 C   0  0  1  0  0  0  0  0  0  0  0  0
    7.4714  -12.6396   26.0826 C   0  0  0  0  0  0  0  0  0  0  0  0
    5.8245  -13.3077   26.5069 S   0  0  0  0  0  0  0  0  0  0  0  0
    8.5789  -14.8654   25.9927 C   0  0  0  0  0  0  0  0  0  0  0  0
    7.8144  -15.8583   25.9913 O   0  0  0  0  0  0  0  0  0  0  0  0
    9.7909  -14.9962   26.7322 N   0  0  0  0  0  0  0  0  0  0  0  0
   10.1395  -16.2005   27.4119 C   0  0  1  0  0  0  0  0  0  0  0  0
   11.3878  -16.8037   26.8167 C   0  0  0  0  0  0  0  0  0  0  0  0
   12.7791  -15.6718   26.8330 S   0  0  0  0  0  0  0  0  0  0  0  0
   10.2482  -15.9603   28.8518 C   0  0  0  0  0  0  0  0  0  0  0  0
   10.5060  -17.0219   29.6986 O   0  0  0  0  0  0  0  0  0  0  0  0
   10.1213  -14.8292   29.3919 O   0  0  0  0  0  0  0  0  0  0  0  0
  2  3  1  0
  2  8  1  0
  2  1  1  6
  4  3  1  0
  5  4  1  0
  6  5  1  0
  6  7  1  0
  8  9  2  0
 10 11  1  0
 10  8  1  0
 11 14  1  0
 12 13  1  0
 11 12  1  1
 14 16  1  0
 14 15  2  0
 16 17  1  0
 17 20  1  0
 17 18  1  6
 19 18  1  0
 20 22  2  0
 20 21  1  0
M  END
$$$$
