KCC.pdb
     RDKit          3D

 22 21  0  0  1  0  0  0  0  0999 V2000
    5.5392  -18.0269   21.1893 N   0  0  0  0  0  0  0  0  0  0  0  0
    6.5595  -17.1010   21.5472 C   0  0  1  0  0  0  0  0  0  0  0  0
    6.3819  -15.7418   20.8941 C   0  0  0  0  0  0  0  0  0  0  0  0
    7.6970  -15.1543   20.4824 C   0  0  0  0  0  0  0  0  0  0  0  0
    7.4809  -13.9253   19.6616 C   0  0  0  0  0  0  0  0  0  0  0  0
    8.7773  -13.2916   19.2410 C   0  0  0  0  0  0  0  0  0  0  0  0
    8.4708  -12.0877   18.4723 N   0  0  0  0  0  0  0  0  0  0  0  0
    6.5196  -16.8885   23.0169 C   0  0  0  0  0  0  0  0  0  0  0  0
    5.4606  -16.4161   23.5251 O   0  0  0  0  0  0  0  0  0  0  0  0
    7.6121  -17.1948   23.8414 N   0  0  0  0  0  0  0  0  0  0  0  0
    7.4786  -17.0210   25.2719 C   0  0  1  0  0  0  0  0  0  0  0  0
    7.2878  -18.3869   25.8700 C   0  0  0  0  0  0  0  0  0  0  0  0
    8.8321  -19.3356   25.6383 S   0  0  0  0  0  0  0  0  0  0  0  0
    8.6285  -16.2930   25.7874 C   0  0  0  0  0  0  0  0  0  0  0  0
    9.7169  -16.3375   25.1681 O   0  0  0  0  0  0  0  0  0  0  0  0
    8.6058  -15.5109   26.9794 N   0  0  0  0  0  0  0  0  0  0  0  0
    9.7467  -14.7856   27.4335 C   0  0  1  0  0  0  0  0  0  0  0  0
    9.3384  -13.4363   27.9709 C   0  0  0  0  0  0  0  0  0  0  0  0
    7.8382  -13.5068   28.9514 S   0  0  0  0  0  0  0  0  0  0  0  0
   10.5064  -15.5820   28.3986 C   0  0  0  0  0  0  0  0  0  0  0  0
   11.6877  -15.0799   28.9113 O   0  0  0  0  0  0  0  0  0  0  0  0
   10.1558  -16.7207   28.8081 O   0  0  0  0  0  0  0  0  0  0  0  0
  2  3  1  0
  2  8  1  0
  2  1  1  6
  4  3  1  0
  5  4  1  0
  6  5  1  0
  6  7  1  0
  8  9  2  0
 10 11  1  0
 10  8  1  0
 11 14  1  0
 12 13  1  0
 11 12  1  1
 14 16  1  0
 14 15  2  0
 16 17  1  0
 17 20  1  0
 17 18  1  1
 19 18  1  0
 20 22  2  0
 20 21  1  0
M  END
$$$$
