KCC.pdb
     RDKit          3D

 22 21  0  0  1  0  0  0  0  0999 V2000
    9.2680  -16.0376   20.5448 N   0  0  0  0  0  0  0  0  0  0  0  0
    8.2961  -16.2995   21.5514 C   0  0  1  0  0  0  0  0  0  0  0  0
    8.2721  -17.7537   21.9878 C   0  0  0  0  0  0  0  0  0  0  0  0
    8.6476  -18.6705   20.8640 C   0  0  0  0  0  0  0  0  0  0  0  0
    7.5166  -19.5937   20.5490 C   0  0  0  0  0  0  0  0  0  0  0  0
    7.8366  -20.5075   19.3993 C   0  0  0  0  0  0  0  0  0  0  0  0
    6.6462  -21.2989   19.0978 N   0  0  0  0  0  0  0  0  0  0  0  0
    8.6197  -15.4878   22.7527 C   0  0  0  0  0  0  0  0  0  0  0  0
    9.8284  -15.1680   22.9516 O   0  0  0  0  0  0  0  0  0  0  0  0
    7.6312  -15.0742   23.6576 N   0  0  0  0  0  0  0  0  0  0  0  0
    8.0189  -14.2719   24.7979 C   0  0  1  0  0  0  0  0  0  0  0  0
    6.7663  -13.6537   25.3535 C   0  0  0  0  0  0  0  0  0  0  0  0
    7.2280  -12.5967   26.7706 S   0  0  0  0  0  0  0  0  0  0  0  0
    8.7580  -15.0917   25.7465 C   0  0  0  0  0  0  0  0  0  0  0  0
    8.4536  -16.2988   25.8890 O   0  0  0  0  0  0  0  0  0  0  0  0
    9.8333  -14.6073   26.5479 N   0  0  0  0  0  0  0  0  0  0  0  0
   10.6040  -15.4674   27.3846 C   0  0  1  0  0  0  0  0  0  0  0  0
   11.6020  -14.6712   28.1884 C   0  0  0  0  0  0  0  0  0  0  0  0
   10.8194  -13.5656   29.3641 S   0  0  0  0  0  0  0  0  0  0  0  0
    9.7253  -16.2924   28.2152 C   0  0  0  0  0  0  0  0  0  0  0  0
   10.2521  -17.3784   28.8887 O   0  0  0  0  0  0  0  0  0  0  0  0
    8.4924  -16.0821   28.3667 O   0  0  0  0  0  0  0  0  0  0  0  0
  2  3  1  0
  2  8  1  0
  2  1  1  6
  4  3  1  0
  5  4  1  0
  6  5  1  0
  6  7  1  0
  8  9  2  0
 10 11  1  0
 10  8  1  0
 11 14  1  0
 12 13  1  0
 11 12  1  1
 14 16  1  0
 14 15  2  0
 16 17  1  0
 17 20  1  0
 17 18  1  1
 19 18  1  0
 20 22  2  0
 20 21  1  0
M  END
$$$$
