KCC.pdb
     RDKit          3D

 22 21  0  0  1  0  0  0  0  0999 V2000
    7.8984  -12.6403   19.5600 N   0  0  0  0  0  0  0  0  0  0  0  0
    7.2640  -13.6384   20.3524 C   0  0  1  0  0  0  0  0  0  0  0  0
    7.2525  -15.0036   19.6879 C   0  0  0  0  0  0  0  0  0  0  0  0
    7.6284  -14.9130   18.2405 C   0  0  0  0  0  0  0  0  0  0  0  0
    7.5415  -16.2585   17.5978 C   0  0  0  0  0  0  0  0  0  0  0  0
    7.8310  -16.2003   16.1240 C   0  0  0  0  0  0  0  0  0  0  0  0
    7.7656  -17.5585   15.5901 N   0  0  0  0  0  0  0  0  0  0  0  0
    8.0082  -13.7804   21.6302 C   0  0  0  0  0  0  0  0  0  0  0  0
    9.2667  -13.9075   21.5793 O   0  0  0  0  0  0  0  0  0  0  0  0
    7.3575  -13.7768   22.8727 N   0  0  0  0  0  0  0  0  0  0  0  0
    8.1476  -13.9257   24.0759 C   0  0  1  0  0  0  0  0  0  0  0  0
    7.3410  -13.3588   25.2108 C   0  0  0  0  0  0  0  0  0  0  0  0
    5.7778  -14.2975   25.3285 S   0  0  0  0  0  0  0  0  0  0  0  0
    8.5272  -15.3205   24.2446 C   0  0  0  0  0  0  0  0  0  0  0  0
    8.1450  -16.1709   23.4074 O   0  0  0  0  0  0  0  0  0  0  0  0
    9.3248  -15.8030   25.3235 N   0  0  0  0  0  0  0  0  0  0  0  0
    9.7901  -17.1500   25.3806 C   0  0  1  0  0  0  0  0  0  0  0  0
   10.5865  -17.4892   24.1451 C   0  0  0  0  0  0  0  0  0  0  0  0
   11.8537  -16.2727   23.7826 S   0  0  0  0  0  0  0  0  0  0  0  0
   10.5300  -17.3817   26.6223 C   0  0  0  0  0  0  0  0  0  0  0  0
   10.6790  -16.3465   27.5259 O   0  0  0  0  0  0  0  0  0  0  0  0
   11.0552  -18.4825   26.9380 O   0  0  0  0  0  0  0  0  0  0  0  0
  2  3  1  0
  2  8  1  0
  2  1  1  6
  4  3  1  0
  5  4  1  0
  6  5  1  0
  6  7  1  0
  8  9  2  0
 10 11  1  0
 10  8  1  0
 11 14  1  0
 12 13  1  0
 11 12  1  1
 14 16  1  0
 14 15  2  0
 16 17  1  0
 17 20  1  0
 17 18  1  6
 19 18  1  0
 20 22  2  0
 20 21  1  0
M  END
$$$$
