KCC.pdb
     RDKit          3D

 22 21  0  0  1  0  0  0  0  0999 V2000
    8.3770  -17.0742   16.1320 N   0  0  0  0  0  0  0  0  0  0  0  0
    7.5549  -17.3879   17.2511 C   0  0  1  0  0  0  0  0  0  0  0  0
    7.4878  -18.8774   17.5378 C   0  0  0  0  0  0  0  0  0  0  0  0
    8.8548  -19.4875   17.5965 C   0  0  0  0  0  0  0  0  0  0  0  0
    8.7547  -20.9758   17.6722 C   0  0  0  0  0  0  0  0  0  0  0  0
   10.1030  -21.6266   17.8057 C   0  0  0  0  0  0  0  0  0  0  0  0
   10.5926  -21.9455   16.4667 N   0  0  0  0  0  0  0  0  0  0  0  0
    8.1210  -16.7350   18.4594 C   0  0  0  0  0  0  0  0  0  0  0  0
    9.3766  -16.5884   18.5281 O   0  0  0  0  0  0  0  0  0  0  0  0
    7.3079  -16.2844   19.5096 N   0  0  0  0  0  0  0  0  0  0  0  0
    7.9248  -15.6085   20.6307 C   0  0  1  0  0  0  0  0  0  0  0  0
    6.8345  -14.8797   21.3655 C   0  0  0  0  0  0  0  0  0  0  0  0
    7.5809  -14.0215   22.7956 S   0  0  0  0  0  0  0  0  0  0  0  0
    8.6585  -16.5698   21.4404 C   0  0  0  0  0  0  0  0  0  0  0  0
    8.5586  -17.7934   21.1895 O   0  0  0  0  0  0  0  0  0  0  0  0
    9.5065  -16.2102   22.5288 N   0  0  0  0  0  0  0  0  0  0  0  0
   10.4763  -17.1082   23.0646 C   0  0  1  0  0  0  0  0  0  0  0  0
   11.3663  -17.6431   21.9700 C   0  0  0  0  0  0  0  0  0  0  0  0
   12.7115  -18.6479   22.6008 S   0  0  0  0  0  0  0  0  0  0  0  0
   11.2219  -16.4663   24.1484 C   0  0  0  0  0  0  0  0  0  0  0  0
   12.1768  -17.1911   24.8364 O   0  0  0  0  0  0  0  0  0  0  0  0
   11.0546  -15.2715   24.5114 O   0  0  0  0  0  0  0  0  0  0  0  0
  2  3  1  0
  2  8  1  0
  2  1  1  6
  4  3  1  0
  5  4  1  0
  6  5  1  0
  6  7  1  0
  8  9  2  0
 10 11  1  0
 10  8  1  0
 11 14  1  0
 12 13  1  0
 11 12  1  1
 14 16  1  0
 14 15  2  0
 16 17  1  0
 17 20  1  0
 17 18  1  6
 19 18  1  0
 20 22  2  0
 20 21  1  0
M  END
$$$$
