KCC.pdb
     RDKit          3D

 22 21  0  0  1  0  0  0  0  0999 V2000
    9.5644  -15.2346   20.3637 N   0  0  0  0  0  0  0  0  0  0  0  0
    8.3959  -15.5067   21.1299 C   0  0  1  0  0  0  0  0  0  0  0  0
    8.0633  -16.9866   21.1979 C   0  0  0  0  0  0  0  0  0  0  0  0
    7.9476  -17.5869   19.8301 C   0  0  0  0  0  0  0  0  0  0  0  0
    6.5911  -18.1819   19.6388 C   0  0  0  0  0  0  0  0  0  0  0  0
    6.4102  -18.7433   18.2563 C   0  0  0  0  0  0  0  0  0  0  0  0
    5.0746  -19.3289   18.1706 N   0  0  0  0  0  0  0  0  0  0  0  0
    8.6184  -15.0441   22.5238 C   0  0  0  0  0  0  0  0  0  0  0  0
    9.7672  -15.2035   23.0315 O   0  0  0  0  0  0  0  0  0  0  0  0
    7.5999  -14.4439   23.2784 N   0  0  0  0  0  0  0  0  0  0  0  0
    7.8769  -14.0598   24.6460 C   0  0  1  0  0  0  0  0  0  0  0  0
    6.9893  -12.8900   24.9680 C   0  0  0  0  0  0  0  0  0  0  0  0
    7.1423  -12.5278   26.7523 S   0  0  0  0  0  0  0  0  0  0  0  0
    7.7023  -15.2078   25.5233 C   0  0  0  0  0  0  0  0  0  0  0  0
    6.7229  -15.9711   25.3553 O   0  0  0  0  0  0  0  0  0  0  0  0
    8.5897  -15.5361   26.5899 N   0  0  0  0  0  0  0  0  0  0  0  0
    9.0178  -16.8739   26.8371 C   0  0  1  0  0  0  0  0  0  0  0  0
    9.6641  -17.4603   25.6065 C   0  0  0  0  0  0  0  0  0  0  0  0
    9.5184  -19.2465   25.5325 S   0  0  0  0  0  0  0  0  0  0  0  0
    9.8814  -16.9231   28.0180 C   0  0  0  0  0  0  0  0  0  0  0  0
   10.0810  -18.1296   28.6621 O   0  0  0  0  0  0  0  0  0  0  0  0
   10.4721  -15.9224   28.5047 O   0  0  0  0  0  0  0  0  0  0  0  0
  2  3  1  0
  2  8  1  0
  2  1  1  6
  4  3  1  0
  5  4  1  0
  6  5  1  0
  6  7  1  0
  8  9  2  0
 10 11  1  0
 10  8  1  0
 11 14  1  0
 12 13  1  0
 11 12  1  1
 14 16  1  0
 14 15  2  0
 16 17  1  0
 17 20  1  0
 17 18  1  6
 19 18  1  0
 20 22  2  0
 20 21  1  0
M  END
$$$$
