KCC.pdb
     RDKit          3D

 22 21  0  0  1  0  0  0  0  0999 V2000
    8.5874  -14.7117   20.4494 N   0  0  0  0  0  0  0  0  0  0  0  0
    7.5989  -14.4440   21.4381 C   0  0  1  0  0  0  0  0  0  0  0  0
    6.4880  -15.4789   21.4606 C   0  0  0  0  0  0  0  0  0  0  0  0
    6.5271  -16.3529   20.2445 C   0  0  0  0  0  0  0  0  0  0  0  0
    6.8475  -17.7603   20.6284 C   0  0  0  0  0  0  0  0  0  0  0  0
    6.6639  -18.7145   19.4816 C   0  0  0  0  0  0  0  0  0  0  0  0
    7.0790  -20.0444   19.9211 N   0  0  0  0  0  0  0  0  0  0  0  0
    8.2424  -14.4643   22.7769 C   0  0  0  0  0  0  0  0  0  0  0  0
    9.3818  -15.0055   22.8854 O   0  0  0  0  0  0  0  0  0  0  0  0
    7.6254  -13.9059   23.9058 N   0  0  0  0  0  0  0  0  0  0  0  0
    8.3212  -13.9456   25.1741 C   0  0  1  0  0  0  0  0  0  0  0  0
    7.7147  -12.8831   26.0477 C   0  0  0  0  0  0  0  0  0  0  0  0
    5.9289  -13.2306   26.2178 S   0  0  0  0  0  0  0  0  0  0  0  0
    8.2564  -15.2900   25.7278 C   0  0  0  0  0  0  0  0  0  0  0  0
    7.4697  -16.1273   25.2277 O   0  0  0  0  0  0  0  0  0  0  0  0
    9.0453  -15.7358   26.8287 N   0  0  0  0  0  0  0  0  0  0  0  0
    9.5361  -17.0718   26.9194 C   0  0  1  0  0  0  0  0  0  0  0  0
   10.3180  -17.4351   25.6814 C   0  0  0  0  0  0  0  0  0  0  0  0
   11.0834  -19.0532   25.7961 S   0  0  0  0  0  0  0  0  0  0  0  0
   10.3006  -17.2514   28.1547 C   0  0  0  0  0  0  0  0  0  0  0  0
   10.2164  -18.4513   28.8356 O   0  0  0  0  0  0  0  0  0  0  0  0
   11.0495  -16.3719   28.6575 O   0  0  0  0  0  0  0  0  0  0  0  0
  2  3  1  0
  2  8  1  0
  2  1  1  6
  4  3  1  0
  5  4  1  0
  6  5  1  0
  6  7  1  0
  8  9  2  0
 10 11  1  0
 10  8  1  0
 11 14  1  0
 12 13  1  0
 11 12  1  1
 14 16  1  0
 14 15  2  0
 16 17  1  0
 17 20  1  0
 17 18  1  6
 19 18  1  0
 20 22  2  0
 20 21  1  0
M  END
$$$$
