VFQ.pdb
     RDKit          3D

 28 28  0  0  1  0  0  0  0  0999 V2000
   21.0646  -12.3341  -16.4457 C   0  0  0  0  0  0  0  0  0  0  0  0
   19.7614  -12.4715  -17.1459 C   0  0  2  0  0  0  0  0  0  0  0  0
   19.8745  -13.5644  -18.1862 C   0  0  0  0  0  0  0  0  0  0  0  0
   19.1578  -11.2185  -17.6820 C   0  0  2  0  0  0  0  0  0  0  0  0
   19.9293  -10.8322  -18.8800 N   0  0  0  0  0  0  0  0  0  0  0  0
   19.1295  -10.0811  -16.7280 C   0  0  0  0  0  0  0  0  0  0  0  0
   18.4620  -10.1669  -15.6351 O   0  0  0  0  0  0  0  0  0  0  0  0
   19.8059   -8.8612  -16.9294 N   0  0  0  0  0  0  0  0  0  0  0  0
   19.8269   -7.7720  -15.9695 C   0  0  1  0  0  0  0  0  0  0  0  0
   21.2241   -7.4823  -15.5003 C   0  0  0  0  0  0  0  0  0  0  0  0
   21.8041   -8.5094  -14.6414 C   0  0  0  0  0  0  0  0  0  0  0  0
   22.7612   -9.4205  -15.0102 C   0  0  0  0  0  0  0  0  0  0  0  0
   23.2654  -10.3776  -14.1242 C   0  0  0  0  0  0  0  0  0  0  0  0
   22.7966  -10.4235  -12.8289 C   0  0  0  0  0  0  0  0  0  0  0  0
   21.8288   -9.5158  -12.4248 C   0  0  0  0  0  0  0  0  0  0  0  0
   21.3553   -8.5863  -13.3266 C   0  0  0  0  0  0  0  0  0  0  0  0
   19.0594   -6.6164  -16.4232 C   0  0  0  0  0  0  0  0  0  0  0  0
   19.3176   -6.1476  -17.5844 O   0  0  0  0  0  0  0  0  0  0  0  0
   13.1553   -5.6350  -16.3941 N   0  0  0  0  0  0  0  0  0  0  0  0
   13.5462   -4.3057  -16.6392 C   0  0  0  0  0  0  0  0  0  0  0  0
   12.6791   -3.4324  -16.8364 O   0  0  0  0  0  0  0  0  0  0  0  0
   14.9950   -3.9617  -16.6591 C   0  0  0  0  0  0  0  0  0  0  0  0
   15.8393   -5.1478  -16.2771 C   0  0  0  0  0  0  0  0  0  0  0  0
   17.2999   -4.8074  -16.2139 C   0  0  2  0  0  0  0  0  0  0  0  0
   18.0583   -5.9700  -15.7004 N   0  0  0  0  0  0  0  0  0  0  0  0
   17.6110   -3.6138  -15.4127 C   0  0  0  0  0  0  0  0  0  0  0  0
   17.5763   -2.3121  -15.9245 O   0  0  0  0  0  0  0  0  0  0  0  0
   17.9282   -3.7149  -14.2097 O   0  0  0  0  0  0  0  0  0  0  0  0
  2  1  1  6
  3  2  1  0
  4  2  1  0
  4  5  1  6
  6  4  1  0
  7  6  2  0
  8  6  1  0
  9  8  1  0
  9 10  1  6
 10 11  1  0
 11 16  2  0
 12 11  1  0
 12 13  2  0
 13 14  1  0
 14 15  2  0
 16 15  1  0
 17 18  2  0
 17  9  1  0
 20 22  1  0
 20 19  1  0
 21 20  2  0
 24 23  1  1
 23 22  1  0
 24 25  1  0
 25 17  1  0
 26 24  1  0
 27 26  1  0
 28 26  2  0
M  END
$$$$
