VFQ.pdb
     RDKit          3D

 28 28  0  0  1  0  0  0  0  0999 V2000
   17.7991  -10.8612  -20.1609 C   0  0  0  0  0  0  0  0  0  0  0  0
   19.2116  -11.3055  -20.2835 C   0  0  2  0  0  0  0  0  0  0  0  0
   19.3242  -12.2739  -21.4406 C   0  0  0  0  0  0  0  0  0  0  0  0
   19.8626  -11.8070  -19.0400 C   0  0  2  0  0  0  0  0  0  0  0  0
   19.2167  -13.0867  -18.6867 N   0  0  0  0  0  0  0  0  0  0  0  0
   19.7888  -10.8828  -17.8802 C   0  0  0  0  0  0  0  0  0  0  0  0
   18.8230  -10.9718  -17.0396 O   0  0  0  0  0  0  0  0  0  0  0  0
   20.7334   -9.8720  -17.6114 N   0  0  0  0  0  0  0  0  0  0  0  0
   20.5914   -8.8818  -16.5591 C   0  0  1  0  0  0  0  0  0  0  0  0
   21.8562   -8.7459  -15.7605 C   0  0  0  0  0  0  0  0  0  0  0  0
   21.7845   -7.7866  -14.6633 C   0  0  0  0  0  0  0  0  0  0  0  0
   21.3172   -8.0432  -13.3993 C   0  0  0  0  0  0  0  0  0  0  0  0
   21.2798   -7.0645  -12.4013 C   0  0  0  0  0  0  0  0  0  0  0  0
   21.7242   -5.7895  -12.6779 C   0  0  0  0  0  0  0  0  0  0  0  0
   22.2029   -5.4979  -13.9466 C   0  0  0  0  0  0  0  0  0  0  0  0
   22.2245   -6.4889  -14.9052 C   0  0  0  0  0  0  0  0  0  0  0  0
   20.0128   -7.6332  -17.0452 C   0  0  0  0  0  0  0  0  0  0  0  0
   20.4777   -7.1434  -18.1310 O   0  0  0  0  0  0  0  0  0  0  0  0
   14.2855   -5.3338  -16.4355 N   0  0  0  0  0  0  0  0  0  0  0  0
   14.9176   -4.2610  -17.0909 C   0  0  0  0  0  0  0  0  0  0  0  0
   14.2401   -3.2935  -17.4887 O   0  0  0  0  0  0  0  0  0  0  0  0
   16.3916   -4.2985  -17.2998 C   0  0  0  0  0  0  0  0  0  0  0  0
   16.9815   -5.5799  -16.7747 C   0  0  0  0  0  0  0  0  0  0  0  0
   18.4731   -5.6258  -16.9364 C   0  0  2  0  0  0  0  0  0  0  0  0
   18.9874   -6.9176  -16.4295 N   0  0  0  0  0  0  0  0  0  0  0  0
   19.1883   -4.5145  -16.2908 C   0  0  0  0  0  0  0  0  0  0  0  0
   19.4226   -3.2838  -16.9137 O   0  0  0  0  0  0  0  0  0  0  0  0
   19.6287   -4.6260  -15.1282 O   0  0  0  0  0  0  0  0  0  0  0  0
  2  1  1  1
  3  2  1  0
  4  2  1  0
  4  5  1  1
  6  4  1  0
  7  6  2  0
  8  6  1  0
  9  8  1  0
  9 10  1  6
 10 11  1  0
 11 16  2  0
 12 11  1  0
 12 13  2  0
 13 14  1  0
 14 15  2  0
 16 15  1  0
 17 18  2  0
 17  9  1  0
 20 22  1  0
 20 19  1  0
 21 20  2  0
 24 23  1  1
 23 22  1  0
 24 25  1  0
 25 17  1  0
 26 24  1  0
 27 26  1  0
 28 26  2  0
M  END
$$$$
