VFQ.pdb
     RDKit          3D

 28 28  0  0  1  0  0  0  0  0999 V2000
   26.9080  -21.3508  -20.0112 C   0  0  0  0  0  0  0  0  0  0  0  0
   26.3593  -21.5968  -18.6526 C   0  0  2  0  0  0  0  0  0  0  0  0
   25.3814  -20.4942  -18.3098 C   0  0  0  0  0  0  0  0  0  0  0  0
   27.3511  -21.8520  -17.5697 C   0  0  2  0  0  0  0  0  0  0  0  0
   28.0837  -23.0846  -17.9213 N   0  0  0  0  0  0  0  0  0  0  0  0
   26.7691  -21.9970  -16.2114 C   0  0  0  0  0  0  0  0  0  0  0  0
   26.0472  -23.0173  -15.9199 O   0  0  0  0  0  0  0  0  0  0  0  0
   26.9524  -21.0678  -15.1677 N   0  0  0  0  0  0  0  0  0  0  0  0
   26.2857  -21.1451  -13.8802 C   0  0  1  0  0  0  0  0  0  0  0  0
   27.0807  -20.4544  -12.8093 C   0  0  0  0  0  0  0  0  0  0  0  0
   26.4627  -20.4664  -11.4875 C   0  0  0  0  0  0  0  0  0  0  0  0
   25.8159  -19.4133  -10.8921 C   0  0  0  0  0  0  0  0  0  0  0  0
   25.2501  -19.5059   -9.6167 C   0  0  0  0  0  0  0  0  0  0  0  0
   25.3349  -20.6898   -8.9162 C   0  0  0  0  0  0  0  0  0  0  0  0
   25.9826  -21.7735   -9.4906 C   0  0  0  0  0  0  0  0  0  0  0  0
   26.5284  -21.6447  -10.7503 C   0  0  0  0  0  0  0  0  0  0  0  0
   24.8765  -20.7739  -13.9609 C   0  0  0  0  0  0  0  0  0  0  0  0
   24.5774  -19.7008  -14.5884 O   0  0  0  0  0  0  0  0  0  0  0  0
   19.8724  -24.2853  -14.5490 N   0  0  0  0  0  0  0  0  0  0  0  0
   19.2800  -23.0099  -14.5015 C   0  0  0  0  0  0  0  0  0  0  0  0
   18.0725  -22.8779  -14.7806 O   0  0  0  0  0  0  0  0  0  0  0  0
   20.1080  -21.8333  -14.1172 C   0  0  0  0  0  0  0  0  0  0  0  0
   21.5469  -22.2257  -13.9142 C   0  0  0  0  0  0  0  0  0  0  0  0
   22.4012  -21.0596  -13.5097 C   0  0  2  0  0  0  0  0  0  0  0  0
   23.8139  -21.4899  -13.4123 N   0  0  0  0  0  0  0  0  0  0  0  0
   21.9884  -20.4104  -12.2561 C   0  0  0  0  0  0  0  0  0  0  0  0
   22.1367  -21.0022  -10.9971 O   0  0  0  0  0  0  0  0  0  0  0  0
   21.4738  -19.2732  -12.2632 O   0  0  0  0  0  0  0  0  0  0  0  0
  2  1  1  6
  3  2  1  0
  4  2  1  0
  4  5  1  6
  6  4  1  0
  7  6  2  0
  8  6  1  0
  9  8  1  0
  9 10  1  1
 10 11  1  0
 11 16  2  0
 12 11  1  0
 12 13  2  0
 13 14  1  0
 14 15  2  0
 16 15  1  0
 17 18  2  0
 17  9  1  0
 20 22  1  0
 20 19  1  0
 21 20  2  0
 24 23  1  1
 23 22  1  0
 24 25  1  0
 25 17  1  0
 26 24  1  0
 27 26  1  0
 28 26  2  0
M  END
$$$$
