VFQ.pdb
     RDKit          3D

 28 28  0  0  1  0  0  0  0  0999 V2000
   30.9062  -21.2800   -9.8264 C   0  0  0  0  0  0  0  0  0  0  0  0
   30.3310  -21.7522  -11.1124 C   0  0  2  0  0  0  0  0  0  0  0  0
   31.3678  -21.5938  -12.2030 C   0  0  0  0  0  0  0  0  0  0  0  0
   29.0000  -21.1977  -11.4903 C   0  0  2  0  0  0  0  0  0  0  0  0
   29.2013  -19.7875  -11.8781 N   0  0  0  0  0  0  0  0  0  0  0  0
   27.9675  -21.2720  -10.4259 C   0  0  0  0  0  0  0  0  0  0  0  0
   27.5568  -22.4103   -9.9982 O   0  0  0  0  0  0  0  0  0  0  0  0
   27.3751  -20.1475   -9.8169 N   0  0  0  0  0  0  0  0  0  0  0  0
   26.0382  -20.1359   -9.2509 C   0  0  1  0  0  0  0  0  0  0  0  0
   25.9602  -19.2393   -8.0484 C   0  0  0  0  0  0  0  0  0  0  0  0
   26.9233  -19.5457   -6.9958 C   0  0  0  0  0  0  0  0  0  0  0  0
   28.0740  -18.8476   -6.7301 C   0  0  0  0  0  0  0  0  0  0  0  0
   28.9484  -19.2087   -5.7004 C   0  0  0  0  0  0  0  0  0  0  0  0
   28.6614  -20.3026   -4.9126 C   0  0  0  0  0  0  0  0  0  0  0  0
   27.5053  -21.0295   -5.1557 C   0  0  0  0  0  0  0  0  0  0  0  0
   26.6670  -20.6434   -6.1801 C   0  0  0  0  0  0  0  0  0  0  0  0
   25.0077  -19.9277  -10.2633 C   0  0  0  0  0  0  0  0  0  0  0  0
   25.2822  -19.1535  -11.2431 O   0  0  0  0  0  0  0  0  0  0  0  0
   21.9558  -21.6415  -14.8244 N   0  0  0  0  0  0  0  0  0  0  0  0
   22.7078  -22.5582  -14.0667 C   0  0  0  0  0  0  0  0  0  0  0  0
   22.8203  -23.7368  -14.4557 O   0  0  0  0  0  0  0  0  0  0  0  0
   23.3597  -22.1041  -12.8071 C   0  0  0  0  0  0  0  0  0  0  0  0
   23.2463  -20.6119  -12.6450 C   0  0  0  0  0  0  0  0  0  0  0  0
   22.7147  -20.2269  -11.2951 C   0  0  2  0  0  0  0  0  0  0  0  0
   23.7380  -20.5024  -10.2620 N   0  0  0  0  0  0  0  0  0  0  0  0
   21.4484  -20.8811  -10.9320 C   0  0  0  0  0  0  0  0  0  0  0  0
   20.2198  -20.5613  -11.5201 O   0  0  0  0  0  0  0  0  0  0  0  0
   21.4157  -21.7733  -10.0597 O   0  0  0  0  0  0  0  0  0  0  0  0
  2  1  1  1
  3  2  1  0
  4  2  1  0
  4  5  1  1
  6  4  1  0
  7  6  2  0
  8  6  1  0
  9  8  1  0
  9 10  1  1
 10 11  1  0
 11 16  2  0
 12 11  1  0
 12 13  2  0
 13 14  1  0
 14 15  2  0
 16 15  1  0
 17 18  2  0
 17  9  1  0
 20 22  1  0
 20 19  1  0
 21 20  2  0
 24 23  1  6
 23 22  1  0
 24 25  1  0
 25 17  1  0
 26 24  1  0
 27 26  1  0
 28 26  2  0
M  END
$$$$
