VFQ.pdb
     RDKit          3D

 28 28  0  0  1  0  0  0  0  0999 V2000
   29.1883  -23.2373  -16.1860 C   0  0  0  0  0  0  0  0  0  0  0  0
   28.1411  -22.8915  -17.1816 C   0  0  2  0  0  0  0  0  0  0  0  0
   28.8043  -22.5795  -18.5054 C   0  0  0  0  0  0  0  0  0  0  0  0
   27.1469  -21.8594  -16.7716 C   0  0  2  0  0  0  0  0  0  0  0  0
   27.7982  -20.5408  -16.9007 N   0  0  0  0  0  0  0  0  0  0  0  0
   26.6191  -22.0139  -15.3924 C   0  0  0  0  0  0  0  0  0  0  0  0
   25.9785  -23.0744  -15.0574 O   0  0  0  0  0  0  0  0  0  0  0  0
   26.7708  -21.0518  -14.3738 N   0  0  0  0  0  0  0  0  0  0  0  0
   26.0995  -21.1126  -13.0878 C   0  0  1  0  0  0  0  0  0  0  0  0
   26.9615  -20.5521  -11.9929 C   0  0  0  0  0  0  0  0  0  0  0  0
   26.3431  -20.5488  -10.6713 C   0  0  0  0  0  0  0  0  0  0  0  0
   26.0116  -21.6580   -9.9352 C   0  0  0  0  0  0  0  0  0  0  0  0
   25.4176  -21.5692   -8.6725 C   0  0  0  0  0  0  0  0  0  0  0  0
   25.1473  -20.3312   -8.1303 C   0  0  0  0  0  0  0  0  0  0  0  0
   25.4704  -19.1900   -8.8494 C   0  0  0  0  0  0  0  0  0  0  0  0
   26.0553  -19.3169  -10.0917 C   0  0  0  0  0  0  0  0  0  0  0  0
   24.7362  -20.5949  -13.1475 C   0  0  0  0  0  0  0  0  0  0  0  0
   24.5685  -19.4055  -13.5857 O   0  0  0  0  0  0  0  0  0  0  0  0
   21.8249  -23.4586  -15.7840 N   0  0  0  0  0  0  0  0  0  0  0  0
   21.8564  -22.1300  -16.2465 C   0  0  0  0  0  0  0  0  0  0  0  0
   22.0982  -21.8986  -17.4470 O   0  0  0  0  0  0  0  0  0  0  0  0
   21.5995  -21.0171  -15.2908 C   0  0  0  0  0  0  0  0  0  0  0  0
   21.4371  -21.5345  -13.8867 C   0  0  0  0  0  0  0  0  0  0  0  0
   22.2205  -20.7291  -12.8914 C   0  0  2  0  0  0  0  0  0  0  0  0
   23.5864  -21.2855  -12.7683 N   0  0  0  0  0  0  0  0  0  0  0  0
   21.5975  -20.6339  -11.5624 C   0  0  0  0  0  0  0  0  0  0  0  0
   20.5767  -19.7285  -11.2533 O   0  0  0  0  0  0  0  0  0  0  0  0
   21.9638  -21.3770  -10.6288 O   0  0  0  0  0  0  0  0  0  0  0  0
  2  1  1  1
  3  2  1  0
  4  2  1  0
  4  5  1  1
  6  4  1  0
  7  6  2  0
  8  6  1  0
  9  8  1  0
  9 10  1  1
 10 11  1  0
 11 16  2  0
 12 11  1  0
 12 13  2  0
 13 14  1  0
 14 15  2  0
 16 15  1  0
 17 18  2  0
 17  9  1  0
 20 22  1  0
 20 19  1  0
 21 20  2  0
 24 23  1  6
 23 22  1  0
 24 25  1  0
 25 17  1  0
 26 24  1  0
 27 26  1  0
 28 26  2  0
M  END
$$$$
