VFQ.pdb
     RDKit          3D

 28 28  0  0  1  0  0  0  0  0999 V2000
   31.5675  -21.7987   -8.3599 C   0  0  0  0  0  0  0  0  0  0  0  0
   31.2877  -22.5742   -9.5959 C   0  0  2  0  0  0  0  0  0  0  0  0
   32.5862  -22.8018  -10.3387 C   0  0  0  0  0  0  0  0  0  0  0  0
   30.1984  -22.0591  -10.4733 C   0  0  2  0  0  0  0  0  0  0  0  0
   30.7031  -20.8412  -11.1377 N   0  0  0  0  0  0  0  0  0  0  0  0
   28.9276  -21.7456   -9.7723 C   0  0  0  0  0  0  0  0  0  0  0  0
   28.1903  -22.6898   -9.3117 O   0  0  0  0  0  0  0  0  0  0  0  0
   28.4418  -20.4400   -9.5588 N   0  0  0  0  0  0  0  0  0  0  0  0
   27.1694  -20.1358   -8.9291 C   0  0  1  0  0  0  0  0  0  0  0  0
   27.3037  -19.0181   -7.9347 C   0  0  0  0  0  0  0  0  0  0  0  0
   27.8132  -19.4221   -6.6284 C   0  0  0  0  0  0  0  0  0  0  0  0
   28.5530  -20.5472   -6.3661 C   0  0  0  0  0  0  0  0  0  0  0  0
   29.0033  -20.8650   -5.0810 C   0  0  0  0  0  0  0  0  0  0  0  0
   28.7034  -20.0302   -4.0262 C   0  0  0  0  0  0  0  0  0  0  0  0
   27.9569  -18.8843   -4.2584 C   0  0  0  0  0  0  0  0  0  0  0  0
   27.5302  -18.6037   -5.5392 C   0  0  0  0  0  0  0  0  0  0  0  0
   26.0890  -19.9926   -9.8999 C   0  0  0  0  0  0  0  0  0  0  0  0
   26.3720  -19.4774  -11.0354 O   0  0  0  0  0  0  0  0  0  0  0  0
   25.4845  -21.9879  -14.3896 N   0  0  0  0  0  0  0  0  0  0  0  0
   24.1591  -21.5667  -14.1752 C   0  0  0  0  0  0  0  0  0  0  0  0
   23.5746  -20.8954  -15.0475 O   0  0  0  0  0  0  0  0  0  0  0  0
   23.4729  -21.9311  -12.9047 C   0  0  0  0  0  0  0  0  0  0  0  0
   24.3626  -21.6810  -11.7167 C   0  0  0  0  0  0  0  0  0  0  0  0
   23.8104  -20.6220  -10.8075 C   0  0  2  0  0  0  0  0  0  0  0  0
   24.7624  -20.3714   -9.7023 N   0  0  0  0  0  0  0  0  0  0  0  0
   22.4785  -20.9246  -10.2615 C   0  0  0  0  0  0  0  0  0  0  0  0
   21.2869  -20.4931  -10.8542 O   0  0  0  0  0  0  0  0  0  0  0  0
   22.3521  -21.5972   -9.2176 O   0  0  0  0  0  0  0  0  0  0  0  0
  2  1  1  1
  3  2  1  0
  4  2  1  0
  4  5  1  1
  6  4  1  0
  7  6  2  0
  8  6  1  0
  9  8  1  0
  9 10  1  6
 10 11  1  0
 11 16  2  0
 12 11  1  0
 12 13  2  0
 13 14  1  0
 14 15  2  0
 16 15  1  0
 17 18  2  0
 17  9  1  0
 20 22  1  0
 20 19  1  0
 21 20  2  0
 24 23  1  1
 23 22  1  0
 24 25  1  0
 25 17  1  0
 26 24  1  0
 27 26  1  0
 28 26  2  0
M  END
$$$$
