VFQ.pdb
     RDKit          3D

 28 28  0  0  1  0  0  0  0  0999 V2000
   27.9684  -18.9419  -17.8510 C   0  0  0  0  0  0  0  0  0  0  0  0
   27.2608  -19.4022  -16.6283 C   0  0  2  0  0  0  0  0  0  0  0  0
   26.8972  -18.1981  -15.7873 C   0  0  0  0  0  0  0  0  0  0  0  0
   27.9224  -20.4822  -15.8424 C   0  0  2  0  0  0  0  0  0  0  0  0
   28.0759  -21.6487  -16.7341 N   0  0  0  0  0  0  0  0  0  0  0  0
   27.1971  -20.8946  -14.6143 C   0  0  0  0  0  0  0  0  0  0  0  0
   26.1180  -21.5844  -14.6984 O   0  0  0  0  0  0  0  0  0  0  0  0
   27.6133  -20.5801  -13.3051 N   0  0  0  0  0  0  0  0  0  0  0  0
   26.8483  -20.8873  -12.1099 C   0  0  1  0  0  0  0  0  0  0  0  0
   27.6162  -20.5457  -10.8651 C   0  0  0  0  0  0  0  0  0  0  0  0
   26.8143  -20.5012   -9.6468 C   0  0  0  0  0  0  0  0  0  0  0  0
   25.8566  -21.4124   -9.2801 C   0  0  0  0  0  0  0  0  0  0  0  0
   25.1280  -21.2965   -8.0923 C   0  0  0  0  0  0  0  0  0  0  0  0
   25.3659  -20.2352   -7.2457 C   0  0  0  0  0  0  0  0  0  0  0  0
   26.3280  -19.2965   -7.5879 C   0  0  0  0  0  0  0  0  0  0  0  0
   27.0267  -19.4439   -8.7675 C   0  0  0  0  0  0  0  0  0  0  0  0
   25.4850  -20.3700  -12.1743 C   0  0  0  0  0  0  0  0  0  0  0  0
   25.3305  -19.1261  -12.4264 O   0  0  0  0  0  0  0  0  0  0  0  0
   21.2713  -23.4447  -15.0758 N   0  0  0  0  0  0  0  0  0  0  0  0
   20.4872  -22.3268  -14.7362 C   0  0  0  0  0  0  0  0  0  0  0  0
   19.2852  -22.2918  -15.0637 O   0  0  0  0  0  0  0  0  0  0  0  0
   21.1081  -21.1987  -13.9880 C   0  0  0  0  0  0  0  0  0  0  0  0
   22.5085  -21.5407  -13.5548 C   0  0  0  0  0  0  0  0  0  0  0  0
   22.9834  -20.6676  -12.4300 C   0  0  2  0  0  0  0  0  0  0  0  0
   24.3224  -21.1152  -11.9860 N   0  0  0  0  0  0  0  0  0  0  0  0
   22.0688  -20.6083  -11.2796 C   0  0  0  0  0  0  0  0  0  0  0  0
   22.2632  -21.3390  -10.1025 O   0  0  0  0  0  0  0  0  0  0  0  0
   21.0525  -19.8840  -11.3062 O   0  0  0  0  0  0  0  0  0  0  0  0
  2  1  1  6
  3  2  1  0
  4  2  1  0
  4  5  1  6
  6  4  1  0
  7  6  2  0
  8  6  1  0
  9  8  1  0
  9 10  1  1
 10 11  1  0
 11 16  2  0
 12 11  1  0
 12 13  2  0
 13 14  1  0
 14 15  2  0
 16 15  1  0
 17 18  2  0
 17  9  1  0
 20 22  1  0
 20 19  1  0
 21 20  2  0
 24 23  1  6
 23 22  1  0
 24 25  1  0
 25 17  1  0
 26 24  1  0
 27 26  1  0
 28 26  2  0
M  END
$$$$
