VFQ.pdb
     RDKit          3D

 28 28  0  0  1  0  0  0  0  0999 V2000
   43.6686   -4.7609  -11.2234 C   0  0  0  0  0  0  0  0  0  0  0  0
   43.6345   -6.1954  -10.8381 C   0  0  2  0  0  0  0  0  0  0  0  0
   44.8391   -6.8931  -11.4312 C   0  0  0  0  0  0  0  0  0  0  0  0
   42.3583   -6.9230  -11.0905 C   0  0  2  0  0  0  0  0  0  0  0  0
   42.1565   -6.9697  -12.5522 N   0  0  0  0  0  0  0  0  0  0  0  0
   41.1609   -6.3246  -10.4481 C   0  0  0  0  0  0  0  0  0  0  0  0
   40.3871   -5.5470  -11.1143 O   0  0  0  0  0  0  0  0  0  0  0  0
   40.7843   -6.5502   -9.1089 N   0  0  0  0  0  0  0  0  0  0  0  0
   39.6996   -5.8560   -8.4385 C   0  0  1  0  0  0  0  0  0  0  0  0
   38.7976   -6.8163   -7.7172 C   0  0  0  0  0  0  0  0  0  0  0  0
   37.7374   -6.1876   -6.9362 C   0  0  0  0  0  0  0  0  0  0  0  0
   36.6999   -5.4444   -7.4395 C   0  0  0  0  0  0  0  0  0  0  0  0
   35.7219   -4.8720   -6.6204 C   0  0  0  0  0  0  0  0  0  0  0  0
   35.7849   -5.0496   -5.2550 C   0  0  0  0  0  0  0  0  0  0  0  0
   36.8217   -5.7960   -4.7147 C   0  0  0  0  0  0  0  0  0  0  0  0
   37.7679   -6.3452   -5.5541 C   0  0  0  0  0  0  0  0  0  0  0  0
   40.1686   -4.7179   -7.6543 C   0  0  0  0  0  0  0  0  0  0  0  0
   41.1323   -4.9134   -6.8371 O   0  0  0  0  0  0  0  0  0  0  0  0
   41.4555    0.8611   -9.4609 N   0  0  0  0  0  0  0  0  0  0  0  0
   41.6285    1.0552   -8.0780 C   0  0  0  0  0  0  0  0  0  0  0  0
   42.1031    2.1286   -7.6586 O   0  0  0  0  0  0  0  0  0  0  0  0
   41.2405   -0.0290   -7.1337 C   0  0  0  0  0  0  0  0  0  0  0  0
   40.6380   -1.1972   -7.8670 C   0  0  0  0  0  0  0  0  0  0  0  0
   40.2054   -2.2905   -6.9339 C   0  0  2  0  0  0  0  0  0  0  0  0
   39.6587   -3.4222   -7.7156 N   0  0  0  0  0  0  0  0  0  0  0  0
   39.2315   -1.8695   -5.9153 C   0  0  0  0  0  0  0  0  0  0  0  0
   39.5963   -1.3913   -4.6520 O   0  0  0  0  0  0  0  0  0  0  0  0
   38.0051   -1.9229   -6.1411 O   0  0  0  0  0  0  0  0  0  0  0  0
  2  1  1  6
  3  2  1  0
  4  2  1  0
  4  5  1  6
  6  4  1  0
  7  6  2  0
  8  6  1  0
  9  8  1  0
  9 10  1  1
 10 11  1  0
 11 16  2  0
 12 11  1  0
 12 13  2  0
 13 14  1  0
 14 15  2  0
 16 15  1  0
 17 18  2  0
 17  9  1  0
 20 22  1  0
 20 19  1  0
 21 20  2  0
 24 23  1  6
 23 22  1  0
 24 25  1  0
 25 17  1  0
 26 24  1  0
 27 26  1  0
 28 26  2  0
M  END
$$$$
