VFQ.pdb
     RDKit          3D

 28 28  0  0  1  0  0  0  0  0999 V2000
   28.5697  -19.6383  -12.7204 C   0  0  0  0  0  0  0  0  0  0  0  0
   28.4411  -20.3936  -13.9934 C   0  0  2  0  0  0  0  0  0  0  0  0
   29.4480  -19.8575  -14.9875 C   0  0  0  0  0  0  0  0  0  0  0  0
   27.0685  -20.5118  -14.5621 C   0  0  2  0  0  0  0  0  0  0  0  0
   26.6980  -19.1896  -15.1043 N   0  0  0  0  0  0  0  0  0  0  0  0
   26.0296  -20.9565  -13.5990 C   0  0  0  0  0  0  0  0  0  0  0  0
   26.0430  -22.1537  -13.1365 O   0  0  0  0  0  0  0  0  0  0  0  0
   24.9843  -20.1375  -13.1270 N   0  0  0  0  0  0  0  0  0  0  0  0
   23.8982  -20.6054  -12.2847 C   0  0  1  0  0  0  0  0  0  0  0  0
   23.6935  -19.7018  -11.1025 C   0  0  0  0  0  0  0  0  0  0  0  0
   24.6456  -19.8966  -10.0140 C   0  0  0  0  0  0  0  0  0  0  0  0
   25.7110  -19.0832   -9.7217 C   0  0  0  0  0  0  0  0  0  0  0  0
   26.5811  -19.3416   -8.6581 C   0  0  0  0  0  0  0  0  0  0  0  0
   26.3779  -20.4488   -7.8628 C   0  0  0  0  0  0  0  0  0  0  0  0
   25.3093  -21.2912   -8.1322 C   0  0  0  0  0  0  0  0  0  0  0  0
   24.4723  -21.0041   -9.1897 C   0  0  0  0  0  0  0  0  0  0  0  0
   22.6984  -20.9255  -13.0517 C   0  0  0  0  0  0  0  0  0  0  0  0
   22.5178  -20.3134  -14.1596 O   0  0  0  0  0  0  0  0  0  0  0  0
   19.0866  -25.7019  -14.6817 N   0  0  0  0  0  0  0  0  0  0  0  0
   19.3908  -24.8378  -15.7497 C   0  0  0  0  0  0  0  0  0  0  0  0
   18.9568  -25.0883  -16.8909 O   0  0  0  0  0  0  0  0  0  0  0  0
   20.2295  -23.6331  -15.4990 C   0  0  0  0  0  0  0  0  0  0  0  0
   20.6405  -23.5495  -14.0534 C   0  0  0  0  0  0  0  0  0  0  0  0
   20.5323  -22.1533  -13.5129 C   0  0  2  0  0  0  0  0  0  0  0  0
   21.7206  -21.8486  -12.6849 N   0  0  0  0  0  0  0  0  0  0  0  0
   19.3062  -21.8936  -12.7430 C   0  0  0  0  0  0  0  0  0  0  0  0
   18.4164  -20.8553  -13.0388 O   0  0  0  0  0  0  0  0  0  0  0  0
   19.0000  -22.6080  -11.7663 O   0  0  0  0  0  0  0  0  0  0  0  0
  2  1  1  1
  3  2  1  0
  4  2  1  0
  4  5  1  1
  6  4  1  0
  7  6  2  0
  8  6  1  0
  9  8  1  0
  9 10  1  1
 10 11  1  0
 11 16  2  0
 12 11  1  0
 12 13  2  0
 13 14  1  0
 14 15  2  0
 16 15  1  0
 17 18  2  0
 17  9  1  0
 20 22  1  0
 20 19  1  0
 21 20  2  0
 24 23  1  1
 23 22  1  0
 24 25  1  0
 25 17  1  0
 26 24  1  0
 27 26  1  0
 28 26  2  0
M  END
$$$$
