VFQ.pdb
     RDKit          3D

 28 28  0  0  1  0  0  0  0  0999 V2000
   29.0533  -21.9430  -15.6710 C   0  0  0  0  0  0  0  0  0  0  0  0
   28.2441  -22.3156  -16.8600 C   0  0  2  0  0  0  0  0  0  0  0  0
   28.9905  -21.9067  -18.1111 C   0  0  0  0  0  0  0  0  0  0  0  0
   26.8204  -21.8743  -16.8618 C   0  0  2  0  0  0  0  0  0  0  0  0
   26.7935  -20.4658  -17.3035 N   0  0  0  0  0  0  0  0  0  0  0  0
   26.1284  -21.9921  -15.5534 C   0  0  0  0  0  0  0  0  0  0  0  0
   25.9385  -23.1444  -15.0209 O   0  0  0  0  0  0  0  0  0  0  0  0
   25.6425  -20.8960  -14.8126 N   0  0  0  0  0  0  0  0  0  0  0  0
   24.9217  -21.0147  -13.5579 C   0  0  1  0  0  0  0  0  0  0  0  0
   25.4861  -20.0951  -12.5129 C   0  0  0  0  0  0  0  0  0  0  0  0
   24.9118  -20.2595  -11.1816 C   0  0  0  0  0  0  0  0  0  0  0  0
   25.5050  -20.8991  -10.1228 C   0  0  0  0  0  0  0  0  0  0  0  0
   24.8848  -21.0157   -8.8751 C   0  0  0  0  0  0  0  0  0  0  0  0
   23.6318  -20.4750   -8.6819 C   0  0  0  0  0  0  0  0  0  0  0  0
   23.0050  -19.8218   -9.7328 C   0  0  0  0  0  0  0  0  0  0  0  0
   23.6477  -19.7265  -10.9490 C   0  0  0  0  0  0  0  0  0  0  0  0
   23.4749  -20.9533  -13.7401 C   0  0  0  0  0  0  0  0  0  0  0  0
   23.0115  -20.0691  -14.5389 O   0  0  0  0  0  0  0  0  0  0  0  0
   19.0265  -24.9292  -11.6155 N   0  0  0  0  0  0  0  0  0  0  0  0
   18.2376  -23.9603  -12.2627 C   0  0  0  0  0  0  0  0  0  0  0  0
   17.0046  -24.1217  -12.3461 O   0  0  0  0  0  0  0  0  0  0  0  0
   18.8906  -22.7528  -12.8399 C   0  0  0  0  0  0  0  0  0  0  0  0
   20.3782  -22.7790  -12.6112 C   0  0  0  0  0  0  0  0  0  0  0  0
   21.0788  -21.6481  -13.3065 C   0  0  2  0  0  0  0  0  0  0  0  0
   22.5409  -21.7798  -13.1180 N   0  0  0  0  0  0  0  0  0  0  0  0
   20.6385  -20.3097  -12.8842 C   0  0  0  0  0  0  0  0  0  0  0  0
   19.7930  -19.4998  -13.6500 O   0  0  0  0  0  0  0  0  0  0  0  0
   21.0113  -19.8270  -11.7951 O   0  0  0  0  0  0  0  0  0  0  0  0
  2  1  1  1
  3  2  1  0
  4  2  1  0
  4  5  1  1
  6  4  1  0
  7  6  2  0
  8  6  1  0
  9  8  1  0
  9 10  1  1
 10 11  1  0
 11 16  2  0
 12 11  1  0
 12 13  2  0
 13 14  1  0
 14 15  2  0
 16 15  1  0
 17 18  2  0
 17  9  1  0
 20 22  1  0
 20 19  1  0
 21 20  2  0
 24 23  1  1
 23 22  1  0
 24 25  1  0
 25 17  1  0
 26 24  1  0
 27 26  1  0
 28 26  2  0
M  END
$$$$
