VFQ.pdb
     RDKit          3D

 28 28  0  0  1  0  0  0  0  0999 V2000
   27.5209  -22.9961  -19.8606 C   0  0  0  0  0  0  0  0  0  0  0  0
   26.7444  -23.0405  -18.5947 C   0  0  2  0  0  0  0  0  0  0  0  0
   25.6673  -21.9788  -18.6405 C   0  0  0  0  0  0  0  0  0  0  0  0
   27.5315  -23.0162  -17.3292 C   0  0  2  0  0  0  0  0  0  0  0  0
   28.3445  -24.2479  -17.2892 N   0  0  0  0  0  0  0  0  0  0  0  0
   26.7188  -22.9235  -16.0900 C   0  0  0  0  0  0  0  0  0  0  0  0
   26.0541  -23.9388  -15.6722 O   0  0  0  0  0  0  0  0  0  0  0  0
   26.6125  -21.7632  -15.2972 N   0  0  0  0  0  0  0  0  0  0  0  0
   25.8518  -21.6853  -14.0630 C   0  0  1  0  0  0  0  0  0  0  0  0
   26.4745  -20.7196  -13.0958 C   0  0  0  0  0  0  0  0  0  0  0  0
   25.7707  -20.5912  -11.8240 C   0  0  0  0  0  0  0  0  0  0  0  0
   24.6020  -19.9031  -11.6170 C   0  0  0  0  0  0  0  0  0  0  0  0
   23.9901  -19.8262  -10.3620 C   0  0  0  0  0  0  0  0  0  0  0  0
   24.5665  -20.4580   -9.2811 C   0  0  0  0  0  0  0  0  0  0  0  0
   25.7485  -21.1621   -9.4575 C   0  0  0  0  0  0  0  0  0  0  0  0
   26.3228  -21.2158  -10.7100 C   0  0  0  0  0  0  0  0  0  0  0  0
   24.4226  -21.5093  -14.3012 C   0  0  0  0  0  0  0  0  0  0  0  0
   24.0616  -20.5826  -15.1048 O   0  0  0  0  0  0  0  0  0  0  0  0
   19.7197  -25.5484  -14.2723 N   0  0  0  0  0  0  0  0  0  0  0  0
   18.9891  -24.3466  -14.2322 C   0  0  0  0  0  0  0  0  0  0  0  0
   17.7447  -24.3768  -14.2939 O   0  0  0  0  0  0  0  0  0  0  0  0
   19.7168  -23.0524  -14.1163 C   0  0  0  0  0  0  0  0  0  0  0  0
   21.1978  -23.2746  -13.9645 C   0  0  0  0  0  0  0  0  0  0  0  0
   21.9638  -21.9843  -13.9259 C   0  0  2  0  0  0  0  0  0  0  0  0
   23.4030  -22.2677  -13.7287 N   0  0  0  0  0  0  0  0  0  0  0  0
   21.4973  -21.0315  -12.9071 C   0  0  0  0  0  0  0  0  0  0  0  0
   21.5692  -21.2778  -11.5318 O   0  0  0  0  0  0  0  0  0  0  0  0
   21.0038  -19.9331  -13.2359 O   0  0  0  0  0  0  0  0  0  0  0  0
  2  1  1  6
  3  2  1  0
  4  2  1  0
  4  5  1  1
  6  4  1  0
  7  6  2  0
  8  6  1  0
  9  8  1  0
  9 10  1  1
 10 11  1  0
 11 16  2  0
 12 11  1  0
 12 13  2  0
 13 14  1  0
 14 15  2  0
 16 15  1  0
 17 18  2  0
 17  9  1  0
 20 22  1  0
 20 19  1  0
 21 20  2  0
 24 23  1  1
 23 22  1  0
 24 25  1  0
 25 17  1  0
 26 24  1  0
 27 26  1  0
 28 26  2  0
M  END
$$$$
