VFQ.pdb
     RDKit          3D

 28 28  0  0  1  0  0  0  0  0999 V2000
   28.2652  -19.6019  -17.9504 C   0  0  0  0  0  0  0  0  0  0  0  0
   27.4953  -19.9504  -16.7284 C   0  0  2  0  0  0  0  0  0  0  0  0
   27.0502  -18.6749  -16.0467 C   0  0  0  0  0  0  0  0  0  0  0  0
   28.1342  -20.9180  -15.7918 C   0  0  2  0  0  0  0  0  0  0  0  0
   28.3375  -22.1805  -16.5295 N   0  0  0  0  0  0  0  0  0  0  0  0
   27.3616  -21.1914  -14.5536 C   0  0  0  0  0  0  0  0  0  0  0  0
   26.2344  -21.8022  -14.6133 O   0  0  0  0  0  0  0  0  0  0  0  0
   27.7815  -20.8220  -13.2600 N   0  0  0  0  0  0  0  0  0  0  0  0
   26.9725  -20.9770  -12.0644 C   0  0  1  0  0  0  0  0  0  0  0  0
   27.7436  -20.6075  -10.8295 C   0  0  0  0  0  0  0  0  0  0  0  0
   26.9445  -20.5342   -9.6108 C   0  0  0  0  0  0  0  0  0  0  0  0
   27.1769  -19.7022   -8.5451 C   0  0  0  0  0  0  0  0  0  0  0  0
   26.3619  -19.6945   -7.4089 C   0  0  0  0  0  0  0  0  0  0  0  0
   25.2808  -20.5465   -7.3380 C   0  0  0  0  0  0  0  0  0  0  0  0
   25.0187  -21.4003   -8.3992 C   0  0  0  0  0  0  0  0  0  0  0  0
   25.8446  -21.3796   -9.5032 C   0  0  0  0  0  0  0  0  0  0  0  0
   25.6579  -20.3573  -12.1986 C   0  0  0  0  0  0  0  0  0  0  0  0
   25.6114  -19.0965  -12.4065 O   0  0  0  0  0  0  0  0  0  0  0  0
   22.5124  -19.0877  -15.8640 N   0  0  0  0  0  0  0  0  0  0  0  0
   21.2948  -19.3901  -15.2269 C   0  0  0  0  0  0  0  0  0  0  0  0
   20.2455  -18.8315  -15.6012 O   0  0  0  0  0  0  0  0  0  0  0  0
   21.2790  -20.3765  -14.1114 C   0  0  0  0  0  0  0  0  0  0  0  0
   22.6693  -20.8571  -13.7924 C   0  0  0  0  0  0  0  0  0  0  0  0
   23.1381  -20.3843  -12.4471 C   0  0  2  0  0  0  0  0  0  0  0  0
   24.4343  -21.0202  -12.1219 N   0  0  0  0  0  0  0  0  0  0  0  0
   22.1801  -20.6144  -11.3550 C   0  0  0  0  0  0  0  0  0  0  0  0
   21.1625  -19.7143  -11.0206 O   0  0  0  0  0  0  0  0  0  0  0  0
   22.2366  -21.6505  -10.6613 O   0  0  0  0  0  0  0  0  0  0  0  0
  2  1  1  6
  3  2  1  0
  4  2  1  0
  4  5  1  6
  6  4  1  0
  7  6  2  0
  8  6  1  0
  9  8  1  0
  9 10  1  1
 10 11  1  0
 11 16  2  0
 12 11  1  0
 12 13  2  0
 13 14  1  0
 14 15  2  0
 16 15  1  0
 17 18  2  0
 17  9  1  0
 20 22  1  0
 20 19  1  0
 21 20  2  0
 24 23  1  6
 23 22  1  0
 24 25  1  0
 25 17  1  0
 26 24  1  0
 27 26  1  0
 28 26  2  0
M  END
$$$$
