VFQ.pdb
     RDKit          3D

 28 28  0  0  1  0  0  0  0  0999 V2000
   25.7140  -18.3381  -18.1699 C   0  0  0  0  0  0  0  0  0  0  0  0
   26.6344  -19.4315  -18.5756 C   0  0  2  0  0  0  0  0  0  0  0  0
   25.8164  -20.6160  -19.0416 C   0  0  0  0  0  0  0  0  0  0  0  0
   27.6957  -19.8060  -17.5983 C   0  0  2  0  0  0  0  0  0  0  0  0
   28.5737  -20.7948  -18.2548 N   0  0  0  0  0  0  0  0  0  0  0  0
   27.1955  -20.3668  -16.3177 C   0  0  0  0  0  0  0  0  0  0  0  0
   26.8306  -21.5952  -16.2455 O   0  0  0  0  0  0  0  0  0  0  0  0
   27.0844  -19.6315  -15.1206 N   0  0  0  0  0  0  0  0  0  0  0  0
   26.5276  -20.1592  -13.8878 C   0  0  1  0  0  0  0  0  0  0  0  0
   27.0477  -19.4169  -12.6901 C   0  0  0  0  0  0  0  0  0  0  0  0
   26.5136  -19.8728  -11.4110 C   0  0  0  0  0  0  0  0  0  0  0  0
   25.4295  -19.3440  -10.7573 C   0  0  0  0  0  0  0  0  0  0  0  0
   24.9807  -19.8388   -9.5289 C   0  0  0  0  0  0  0  0  0  0  0  0
   25.6379  -20.8959   -8.9371 C   0  0  0  0  0  0  0  0  0  0  0  0
   26.7378  -21.4530   -9.5726 C   0  0  0  0  0  0  0  0  0  0  0  0
   27.1513  -20.9383  -10.7832 C   0  0  0  0  0  0  0  0  0  0  0  0
   25.0781  -20.3156  -13.9549 C   0  0  0  0  0  0  0  0  0  0  0  0
   24.3979  -19.3595  -14.4628 O   0  0  0  0  0  0  0  0  0  0  0  0
   23.6475  -25.2819  -14.9859 N   0  0  0  0  0  0  0  0  0  0  0  0
   23.1271  -24.4251  -15.9733 C   0  0  0  0  0  0  0  0  0  0  0  0
   23.1601  -24.7692  -17.1707 O   0  0  0  0  0  0  0  0  0  0  0  0
   22.5428  -23.1158  -15.5707 C   0  0  0  0  0  0  0  0  0  0  0  0
   22.5495  -22.9561  -14.0740 C   0  0  0  0  0  0  0  0  0  0  0  0
   22.8908  -21.5558  -13.6546 C   0  0  2  0  0  0  0  0  0  0  0  0
   24.3582  -21.4242  -13.5130 N   0  0  0  0  0  0  0  0  0  0  0  0
   22.2273  -21.1133  -12.4188 C   0  0  0  0  0  0  0  0  0  0  0  0
   20.8606  -20.8251  -12.3391 O   0  0  0  0  0  0  0  0  0  0  0  0
   22.8736  -20.9720  -11.3603 O   0  0  0  0  0  0  0  0  0  0  0  0
  2  1  1  1
  3  2  1  0
  4  2  1  0
  4  5  1  6
  6  4  1  0
  7  6  2  0
  8  6  1  0
  9  8  1  0
  9 10  1  1
 10 11  1  0
 11 16  2  0
 12 11  1  0
 12 13  2  0
 13 14  1  0
 14 15  2  0
 16 15  1  0
 17 18  2  0
 17  9  1  0
 20 22  1  0
 20 19  1  0
 21 20  2  0
 24 23  1  1
 23 22  1  0
 24 25  1  0
 25 17  1  0
 26 24  1  0
 27 26  1  0
 28 26  2  0
M  END
$$$$
