VFQ.pdb
     RDKit          3D

 28 28  0  0  1  0  0  0  0  0999 V2000
   28.4514  -27.4216  -17.6811 C   0  0  0  0  0  0  0  0  0  0  0  0
   29.6087  -26.5169  -17.4586 C   0  0  2  0  0  0  0  0  0  0  0  0
   29.0994  -25.1745  -16.9811 C   0  0  0  0  0  0  0  0  0  0  0  0
   30.5897  -26.4031  -18.5751 C   0  0  2  0  0  0  0  0  0  0  0  0
   29.8758  -25.8355  -19.7361 N   0  0  0  0  0  0  0  0  0  0  0  0
   31.2354  -27.6799  -18.9716 C   0  0  0  0  0  0  0  0  0  0  0  0
   30.7794  -28.3582  -19.9612 O   0  0  0  0  0  0  0  0  0  0  0  0
   32.3585  -28.2340  -18.3250 N   0  0  0  0  0  0  0  0  0  0  0  0
   32.9531  -29.5116  -18.6745 C   0  0  1  0  0  0  0  0  0  0  0  0
   34.4074  -29.3629  -19.0195 C   0  0  0  0  0  0  0  0  0  0  0  0
   34.6680  -28.9228  -20.3861 C   0  0  0  0  0  0  0  0  0  0  0  0
   34.9756  -29.7350  -21.4480 C   0  0  0  0  0  0  0  0  0  0  0  0
   35.2142  -29.2326  -22.7310 C   0  0  0  0  0  0  0  0  0  0  0  0
   35.1425  -27.8749  -22.9571 C   0  0  0  0  0  0  0  0  0  0  0  0
   34.8335  -27.0267  -21.9040 C   0  0  0  0  0  0  0  0  0  0  0  0
   34.6045  -27.5586  -20.6526 C   0  0  0  0  0  0  0  0  0  0  0  0
   32.6363  -30.5558  -17.7052 C   0  0  0  0  0  0  0  0  0  0  0  0
   32.7677  -30.2773  -16.4643 O   0  0  0  0  0  0  0  0  0  0  0  0
   28.4434  -32.7019  -14.6255 N   0  0  0  0  0  0  0  0  0  0  0  0
   28.1661  -32.4214  -15.9762 C   0  0  0  0  0  0  0  0  0  0  0  0
   26.9859  -32.4141  -16.3768 O   0  0  0  0  0  0  0  0  0  0  0  0
   29.2911  -32.1367  -16.9095 C   0  0  0  0  0  0  0  0  0  0  0  0
   30.6115  -32.1480  -16.1868 C   0  0  0  0  0  0  0  0  0  0  0  0
   31.6957  -32.7975  -16.9966 C   0  0  2  0  0  0  0  0  0  0  0  0
   32.1971  -31.8428  -18.0103 N   0  0  0  0  0  0  0  0  0  0  0  0
   31.2970  -34.0548  -17.6474 C   0  0  0  0  0  0  0  0  0  0  0  0
   31.0566  -34.1686  -19.0210 O   0  0  0  0  0  0  0  0  0  0  0  0
   31.1519  -35.1017  -16.9833 O   0  0  0  0  0  0  0  0  0  0  0  0
  2  1  1  6
  3  2  1  0
  4  2  1  0
  4  5  1  6
  6  4  1  0
  7  6  2  0
  8  6  1  0
  9  8  1  0
  9 10  1  1
 10 11  1  0
 11 16  2  0
 12 11  1  0
 12 13  2  0
 13 14  1  0
 14 15  2  0
 16 15  1  0
 17 18  2  0
 17  9  1  0
 20 22  1  0
 20 19  1  0
 21 20  2  0
 24 23  1  6
 23 22  1  0
 24 25  1  0
 25 17  1  0
 26 24  1  0
 27 26  1  0
 28 26  2  0
M  END
$$$$
