EHM.pdb
     RDKit          3D

 28 28  0  0  1  0  0  0  0  0999 V2000
   16.8238  -14.0374  -17.9076 N   0  0  0  0  0  0  0  0  0  0  0  0
   16.6798  -13.2618  -16.7220 C   0  0  1  0  0  0  0  0  0  0  0  0
   17.0520  -13.9748  -15.4766 C   0  0  0  0  0  0  0  0  0  0  0  0
   16.2036  -15.1695  -15.1401 C   0  0  0  0  0  0  0  0  0  0  0  0
   16.5457  -15.7354  -13.8332 C   0  0  0  0  0  0  0  0  0  0  0  0
   16.1104  -15.2373  -12.7713 O   0  0  0  0  0  0  0  0  0  0  0  0
   17.4756  -11.9858  -16.7834 C   0  0  0  0  0  0  0  0  0  0  0  0
   18.5412  -11.9655  -17.4439 O   0  0  0  0  0  0  0  0  0  0  0  0
   17.3786  -16.8616  -13.7503 O   0  0  0  0  0  0  0  0  0  0  0  0
   17.0483  -10.8176  -16.1151 N   0  0  0  0  0  0  0  0  0  0  0  0
   17.6831   -9.4922  -16.3298 C   0  0  1  0  0  0  0  0  0  0  0  0
   16.6885   -8.4231  -16.0609 C   0  0  0  0  0  0  0  0  0  0  0  0
   17.1872   -7.0521  -16.1665 C   0  0  0  0  0  0  0  0  0  0  0  0
   18.4813   -6.6509  -16.4188 C   0  0  0  0  0  0  0  0  0  0  0  0
   18.5660   -5.3217  -16.3990 N   0  0  0  0  0  0  0  0  0  0  0  0
   17.3332   -4.8489  -16.1346 C   0  0  0  0  0  0  0  0  0  0  0  0
   16.5028   -5.8943  -15.9947 N   0  0  0  0  0  0  0  0  0  0  0  0
   18.9333   -9.4797  -15.5810 C   0  0  0  0  0  0  0  0  0  0  0  0
   18.9410   -9.9151  -14.3701 O   0  0  0  0  0  0  0  0  0  0  0  0
   26.5358  -10.9069  -14.7853 C   0  0  0  0  0  0  0  0  0  0  0  0
   25.1476  -10.6262  -15.8623 S   0  0  0  0  0  0  0  0  0  0  0  0
   23.7777   -9.7686  -15.1167 C   0  0  0  0  0  0  0  0  0  0  0  0
   22.5422   -9.6607  -15.9557 C   0  0  0  0  0  0  0  0  0  0  0  0
   21.3766   -9.0318  -15.2111 C   0  0  2  0  0  0  0  0  0  0  0  0
   20.1891   -9.0376  -16.0422 N   0  0  0  0  0  0  0  0  0  0  0  0
   21.6756   -7.7310  -14.6583 C   0  0  0  0  0  0  0  0  0  0  0  0
   21.9727   -7.4211  -13.3498 O   0  0  0  0  0  0  0  0  0  0  0  0
   21.6704   -6.7312  -15.4575 O   0  0  0  0  0  0  0  0  0  0  0  0
  2  1  1  6
  2  3  1  0
  2  7  1  0
  3  4  1  0
  5  4  1  0
  5  6  2  0
  7 10  1  0
  8  7  2  0
  9  5  1  0
 10 11  1  0
 11 12  1  1
 12 13  1  0
 13 17  1  0
 14 13  2  0
 14 15  1  0
 15 16  1  0
 17 16  2  0
 18 11  1  0
 18 19  2  0
 20 21  1  0
 21 22  1  0
 22 23  1  0
 24 23  1  6
 24 25  1  0
 25 18  1  0
 26 27  1  0
 26 24  1  0
 28 26  2  0
M  END
$$$$
