EHM.pdb
     RDKit          3D

 28 28  0  0  1  0  0  0  0  0999 V2000
   20.7106  -15.3028  -19.9563 N   0  0  0  0  0  0  0  0  0  0  0  0
   21.1345  -14.6618  -18.7574 C   0  0  1  0  0  0  0  0  0  0  0  0
   22.5103  -15.0125  -18.3308 C   0  0  0  0  0  0  0  0  0  0  0  0
   23.5837  -14.7722  -19.3557 C   0  0  0  0  0  0  0  0  0  0  0  0
   24.8923  -15.2497  -18.9029 C   0  0  0  0  0  0  0  0  0  0  0  0
   25.6838  -14.5014  -18.2875 O   0  0  0  0  0  0  0  0  0  0  0  0
   21.0463  -13.1628  -18.8584 C   0  0  0  0  0  0  0  0  0  0  0  0
   21.4519  -12.5993  -19.9025 O   0  0  0  0  0  0  0  0  0  0  0  0
   25.2842  -16.5731  -19.1556 O   0  0  0  0  0  0  0  0  0  0  0  0
   20.5191  -12.3827  -17.8061 N   0  0  0  0  0  0  0  0  0  0  0  0
   20.3457  -10.9111  -17.9066 C   0  0  1  0  0  0  0  0  0  0  0  0
   18.9086  -10.6000  -18.1127 C   0  0  0  0  0  0  0  0  0  0  0  0
   18.5635   -9.1786  -18.1280 C   0  0  0  0  0  0  0  0  0  0  0  0
   18.6929   -8.2988  -19.1808 C   0  0  0  0  0  0  0  0  0  0  0  0
   18.3179   -7.0754  -18.8105 N   0  0  0  0  0  0  0  0  0  0  0  0
   17.9431   -7.1486  -17.5192 C   0  0  0  0  0  0  0  0  0  0  0  0
   18.0920   -8.4182  -17.1093 N   0  0  0  0  0  0  0  0  0  0  0  0
   21.0279  -10.3117  -16.7668 C   0  0  0  0  0  0  0  0  0  0  0  0
   20.8504  -10.8156  -15.5962 O   0  0  0  0  0  0  0  0  0  0  0  0
   27.0455  -11.7804  -15.9623 C   0  0  0  0  0  0  0  0  0  0  0  0
   26.3853  -10.1332  -15.8329 S   0  0  0  0  0  0  0  0  0  0  0  0
   24.6124  -10.0406  -15.7056 C   0  0  0  0  0  0  0  0  0  0  0  0
   24.0281   -8.6624  -15.7373 C   0  0  0  0  0  0  0  0  0  0  0  0
   22.5151   -8.6598  -15.5978 C   0  0  2  0  0  0  0  0  0  0  0  0
   21.9006   -9.2057  -16.7916 N   0  0  0  0  0  0  0  0  0  0  0  0
   21.9703   -7.3775  -15.2152 C   0  0  0  0  0  0  0  0  0  0  0  0
   21.8221   -6.8726  -13.9426 O   0  0  0  0  0  0  0  0  0  0  0  0
   21.5708   -6.5998  -16.1499 O   0  0  0  0  0  0  0  0  0  0  0  0
  2  1  1  6
  2  3  1  0
  2  7  1  0
  3  4  1  0
  5  4  1  0
  5  6  2  0
  7 10  1  0
  8  7  2  0
  9  5  1  0
 10 11  1  0
 11 12  1  1
 12 13  1  0
 13 17  1  0
 14 13  2  0
 14 15  1  0
 15 16  1  0
 17 16  2  0
 18 11  1  0
 18 19  2  0
 20 21  1  0
 21 22  1  0
 22 23  1  0
 24 23  1  6
 24 25  1  0
 25 18  1  0
 26 27  1  0
 26 24  1  0
 28 26  2  0
M  END
$$$$
