EHM.pdb
     RDKit          3D

 28 28  0  0  1  0  0  0  0  0999 V2000
   28.9410  -20.4574  -17.2978 N   0  0  0  0  0  0  0  0  0  0  0  0
   29.0360  -19.2784  -16.5047 C   0  0  1  0  0  0  0  0  0  0  0  0
   29.3154  -18.0438  -17.2765 C   0  0  0  0  0  0  0  0  0  0  0  0
   29.1983  -18.1769  -18.7694 C   0  0  0  0  0  0  0  0  0  0  0  0
   30.4038  -18.7575  -19.3653 C   0  0  0  0  0  0  0  0  0  0  0  0
   30.7537  -19.9330  -19.1182 O   0  0  0  0  0  0  0  0  0  0  0  0
   27.7925  -19.0462  -15.6892 C   0  0  0  0  0  0  0  0  0  0  0  0
   27.6790  -17.9762  -15.0455 O   0  0  0  0  0  0  0  0  0  0  0  0
   31.1964  -17.9938  -20.2355 O   0  0  0  0  0  0  0  0  0  0  0  0
   26.7570  -20.0046  -15.6349 N   0  0  0  0  0  0  0  0  0  0  0  0
   25.5131  -19.7989  -14.8497 C   0  0  1  0  0  0  0  0  0  0  0  0
   24.3369  -20.0440  -15.7220 C   0  0  0  0  0  0  0  0  0  0  0  0
   23.0305  -19.9036  -15.0790 C   0  0  0  0  0  0  0  0  0  0  0  0
   22.7763  -19.5387  -13.7746 C   0  0  0  0  0  0  0  0  0  0  0  0
   21.4662  -19.5602  -13.5349 N   0  0  0  0  0  0  0  0  0  0  0  0
   20.8596  -19.9378  -14.6763 C   0  0  0  0  0  0  0  0  0  0  0  0
   21.8050  -20.1446  -15.6065 N   0  0  0  0  0  0  0  0  0  0  0  0
   25.6383  -20.5732  -13.6215 C   0  0  0  0  0  0  0  0  0  0  0  0
   26.6233  -21.3916  -13.4962 O   0  0  0  0  0  0  0  0  0  0  0  0
   29.8216  -20.7325   -9.4658 C   0  0  0  0  0  0  0  0  0  0  0  0
   28.3129  -20.1938   -8.6917 S   0  0  0  0  0  0  0  0  0  0  0  0
   26.8272  -20.9152   -9.3552 C   0  0  0  0  0  0  0  0  0  0  0  0
   26.4713  -20.5060  -10.7508 C   0  0  0  0  0  0  0  0  0  0  0  0
   25.1409  -21.0770  -11.2120 C   0  0  2  0  0  0  0  0  0  0  0  0
   24.7808  -20.5284  -12.5043 N   0  0  0  0  0  0  0  0  0  0  0  0
   24.0870  -20.9566  -10.2312 C   0  0  0  0  0  0  0  0  0  0  0  0
   23.7805  -21.8329   -9.2140 O   0  0  0  0  0  0  0  0  0  0  0  0
   23.3346  -19.9230  -10.2925 O   0  0  0  0  0  0  0  0  0  0  0  0
  2  1  1  6
  2  3  1  0
  2  7  1  0
  3  4  1  0
  5  4  1  0
  5  6  2  0
  7 10  1  0
  8  7  2  0
  9  5  1  0
 10 11  1  0
 11 12  1  6
 12 13  1  0
 13 17  1  0
 14 13  2  0
 14 15  1  0
 15 16  1  0
 17 16  2  0
 18 11  1  0
 18 19  2  0
 20 21  1  0
 21 22  1  0
 22 23  1  0
 24 23  1  1
 24 25  1  0
 25 18  1  0
 26 27  1  0
 26 24  1  0
 28 26  2  0
M  END
$$$$
