EHM.pdb
     RDKit          3D

 28 28  0  0  1  0  0  0  0  0999 V2000
   41.5132   -9.4987   -7.6128 N   0  0  0  0  0  0  0  0  0  0  0  0
   40.5248   -9.8643   -8.5707 C   0  0  1  0  0  0  0  0  0  0  0  0
   39.1634  -10.0348   -8.0091 C   0  0  0  0  0  0  0  0  0  0  0  0
   39.0113  -11.1539   -7.0166 C   0  0  0  0  0  0  0  0  0  0  0  0
   37.6178  -11.3369   -6.6046 C   0  0  0  0  0  0  0  0  0  0  0  0
   36.6863  -10.7061   -7.1519 O   0  0  0  0  0  0  0  0  0  0  0  0
   40.4415   -8.8735   -9.7005 C   0  0  0  0  0  0  0  0  0  0  0  0
   40.9426   -7.7343   -9.5479 O   0  0  0  0  0  0  0  0  0  0  0  0
   37.3009  -12.2359   -5.5749 O   0  0  0  0  0  0  0  0  0  0  0  0
   39.8131   -9.1996  -10.9222 N   0  0  0  0  0  0  0  0  0  0  0  0
   39.7556   -8.2604  -12.0713 C   0  0  1  0  0  0  0  0  0  0  0  0
   40.9660   -8.4402  -12.9122 C   0  0  0  0  0  0  0  0  0  0  0  0
   41.0136   -7.6382  -14.1346 C   0  0  0  0  0  0  0  0  0  0  0  0
   41.4358   -6.3324  -14.2610 C   0  0  0  0  0  0  0  0  0  0  0  0
   41.2959   -5.9206  -15.5201 N   0  0  0  0  0  0  0  0  0  0  0  0
   40.7835   -6.9503  -16.2203 C   0  0  0  0  0  0  0  0  0  0  0  0
   40.6139   -7.9855  -15.3827 N   0  0  0  0  0  0  0  0  0  0  0  0
   38.4483   -8.4142  -12.6967 C   0  0  0  0  0  0  0  0  0  0  0  0
   38.0274   -9.5960  -12.9827 O   0  0  0  0  0  0  0  0  0  0  0  0
   32.3473   -6.0967  -16.8702 C   0  0  0  0  0  0  0  0  0  0  0  0
   34.0001   -5.9651  -16.2249 S   0  0  0  0  0  0  0  0  0  0  0  0
   34.1970   -6.5113  -14.5423 C   0  0  0  0  0  0  0  0  0  0  0  0
   35.5583   -6.3180  -13.9497 C   0  0  0  0  0  0  0  0  0  0  0  0
   36.2892   -7.6285  -13.7106 C   0  0  2  0  0  0  0  0  0  0  0  0
   37.5476   -7.3845  -13.0342 N   0  0  0  0  0  0  0  0  0  0  0  0
   36.4317   -8.4380  -14.8987 C   0  0  0  0  0  0  0  0  0  0  0  0
   37.2251   -8.1885  -15.9964 O   0  0  0  0  0  0  0  0  0  0  0  0
   35.7514   -9.5202  -14.9646 O   0  0  0  0  0  0  0  0  0  0  0  0
  2  1  1  1
  2  3  1  0
  2  7  1  0
  3  4  1  0
  5  4  1  0
  5  6  2  0
  7 10  1  0
  8  7  2  0
  9  5  1  0
 10 11  1  0
 11 12  1  6
 12 13  1  0
 13 17  1  0
 14 13  2  0
 14 15  1  0
 15 16  1  0
 17 16  2  0
 18 11  1  0
 18 19  2  0
 20 21  1  0
 21 22  1  0
 22 23  1  0
 24 23  1  6
 24 25  1  0
 25 18  1  0
 26 27  1  0
 26 24  1  0
 28 26  2  0
M  END
$$$$
