EHM.pdb
     RDKit          3D

 28 28  0  0  1  0  0  0  0  0999 V2000
   39.6648  -23.8725    8.8638 N   0  0  0  0  0  0  0  0  0  0  0  0
   38.3714  -24.2091    9.3556 C   0  0  1  0  0  0  0  0  0  0  0  0
   38.2500  -24.1693   10.8326 C   0  0  0  0  0  0  0  0  0  0  0  0
   36.8653  -24.3975   11.3717 C   0  0  0  0  0  0  0  0  0  0  0  0
   36.7968  -24.1819   12.8188 C   0  0  0  0  0  0  0  0  0  0  0  0
   37.7990  -23.8178   13.4733 O   0  0  0  0  0  0  0  0  0  0  0  0
   37.3006  -23.3241    8.7766 C   0  0  0  0  0  0  0  0  0  0  0  0
   37.3796  -22.0842    8.9461 O   0  0  0  0  0  0  0  0  0  0  0  0
   35.5888  -24.3829   13.5037 O   0  0  0  0  0  0  0  0  0  0  0  0
   36.2144  -23.8596    8.0505 N   0  0  0  0  0  0  0  0  0  0  0  0
   35.1885  -23.0082    7.3958 C   0  0  1  0  0  0  0  0  0  0  0  0
   34.7446  -23.6569    6.1362 C   0  0  0  0  0  0  0  0  0  0  0  0
   33.7645  -22.9088    5.3491 C   0  0  0  0  0  0  0  0  0  0  0  0
   33.2148  -21.6809    5.6480 C   0  0  0  0  0  0  0  0  0  0  0  0
   32.3251  -21.3336    4.7195 N   0  0  0  0  0  0  0  0  0  0  0  0
   32.2886  -22.3283    3.8125 C   0  0  0  0  0  0  0  0  0  0  0  0
   33.1576  -23.2777    4.1942 N   0  0  0  0  0  0  0  0  0  0  0  0
   34.1834  -22.6845    8.4001 C   0  0  0  0  0  0  0  0  0  0  0  0
   33.9798  -23.5070    9.3685 O   0  0  0  0  0  0  0  0  0  0  0  0
   29.4396  -17.3337   11.9714 C   0  0  0  0  0  0  0  0  0  0  0  0
   30.4549  -17.7734   10.5780 S   0  0  0  0  0  0  0  0  0  0  0  0
   31.1073  -19.4290   10.6146 C   0  0  0  0  0  0  0  0  0  0  0  0
   31.9795  -19.8111    9.4592 C   0  0  0  0  0  0  0  0  0  0  0  0
   32.4635  -21.2494    9.5357 C   0  0  2  0  0  0  0  0  0  0  0  0
   33.3783  -21.5290    8.4468 N   0  0  0  0  0  0  0  0  0  0  0  0
   31.3950  -22.2160    9.6411 C   0  0  0  0  0  0  0  0  0  0  0  0
   30.7547  -22.6406   10.7840 O   0  0  0  0  0  0  0  0  0  0  0  0
   30.9751  -22.7566    8.5596 O   0  0  0  0  0  0  0  0  0  0  0  0
  2  1  1  1
  2  3  1  0
  2  7  1  0
  3  4  1  0
  5  4  1  0
  5  6  2  0
  7 10  1  0
  8  7  2  0
  9  5  1  0
 10 11  1  0
 11 12  1  6
 12 13  1  0
 13 17  1  0
 14 13  2  0
 14 15  1  0
 15 16  1  0
 17 16  2  0
 18 11  1  0
 18 19  2  0
 20 21  1  0
 21 22  1  0
 22 23  1  0
 24 23  1  6
 24 25  1  0
 25 18  1  0
 26 27  1  0
 26 24  1  0
 28 26  2  0
M  END
$$$$
