EHM.pdb
     RDKit          3D

 28 28  0  0  1  0  0  0  0  0999 V2000
   20.9233   -9.0997  -14.6439 N   0  0  0  0  0  0  0  0  0  0  0  0
   20.0076   -8.0368  -14.3997 C   0  0  1  0  0  0  0  0  0  0  0  0
   19.2983   -7.5518  -15.6078 C   0  0  0  0  0  0  0  0  0  0  0  0
   20.1725   -6.9348  -16.6640 C   0  0  0  0  0  0  0  0  0  0  0  0
   19.3885   -6.3706  -17.7651 C   0  0  0  0  0  0  0  0  0  0  0  0
   18.1387   -6.4265  -17.7731 O   0  0  0  0  0  0  0  0  0  0  0  0
   18.9739   -8.4087  -13.3710 C   0  0  0  0  0  0  0  0  0  0  0  0
   18.6265   -9.6088  -13.2650 O   0  0  0  0  0  0  0  0  0  0  0  0
   20.0361   -5.7494  -18.8438 O   0  0  0  0  0  0  0  0  0  0  0  0
   18.3904   -7.4380  -12.5277 N   0  0  0  0  0  0  0  0  0  0  0  0
   17.3529   -7.7705  -11.5184 C   0  0  1  0  0  0  0  0  0  0  0  0
   17.2656   -6.6709  -10.5246 C   0  0  0  0  0  0  0  0  0  0  0  0
   16.2595   -6.8417   -9.4767 C   0  0  0  0  0  0  0  0  0  0  0  0
   15.2652   -7.7943   -9.4205 C   0  0  0  0  0  0  0  0  0  0  0  0
   14.5108   -7.6126   -8.3378 N   0  0  0  0  0  0  0  0  0  0  0  0
   15.0056   -6.5448   -7.6834 C   0  0  0  0  0  0  0  0  0  0  0  0
   16.0605   -6.0811   -8.3721 N   0  0  0  0  0  0  0  0  0  0  0  0
   16.1452   -8.1487  -12.2412 C   0  0  0  0  0  0  0  0  0  0  0  0
   15.7540   -7.4218  -13.2282 O   0  0  0  0  0  0  0  0  0  0  0  0
   13.1325  -14.0064  -13.7542 C   0  0  0  0  0  0  0  0  0  0  0  0
   12.4208  -12.6608  -14.6754 S   0  0  0  0  0  0  0  0  0  0  0  0
   12.6312  -11.0525  -13.9426 C   0  0  0  0  0  0  0  0  0  0  0  0
   13.9307  -10.8241  -13.2346 C   0  0  0  0  0  0  0  0  0  0  0  0
   14.0249   -9.4445  -12.6049 C   0  0  2  0  0  0  0  0  0  0  0  0
   15.3228   -9.2639  -11.9854 N   0  0  0  0  0  0  0  0  0  0  0  0
   12.9260   -9.1349  -11.7197 C   0  0  0  0  0  0  0  0  0  0  0  0
   12.5702   -9.7876  -10.5604 O   0  0  0  0  0  0  0  0  0  0  0  0
   12.1792   -8.1415  -12.0257 O   0  0  0  0  0  0  0  0  0  0  0  0
  2  1  1  6
  2  3  1  0
  2  7  1  0
  3  4  1  0
  5  4  1  0
  5  6  2  0
  7 10  1  0
  8  7  2  0
  9  5  1  0
 10 11  1  0
 11 12  1  1
 12 13  1  0
 13 17  1  0
 14 13  2  0
 14 15  1  0
 15 16  1  0
 17 16  2  0
 18 11  1  0
 18 19  2  0
 20 21  1  0
 21 22  1  0
 22 23  1  0
 24 23  1  1
 24 25  1  0
 25 18  1  0
 26 27  1  0
 26 24  1  0
 28 26  2  0
M  END
$$$$
