EHM.pdb
     RDKit          3D

 28 28  0  0  1  0  0  0  0  0999 V2000
   23.3580  -18.7775  -15.1027 N   0  0  0  0  0  0  0  0  0  0  0  0
   22.8296  -19.9989  -14.5959 C   0  0  1  0  0  0  0  0  0  0  0  0
   22.2388  -20.8838  -15.6283 C   0  0  0  0  0  0  0  0  0  0  0  0
   21.6607  -20.1811  -16.8251 C   0  0  0  0  0  0  0  0  0  0  0  0
   20.7314  -21.0355  -17.5679 C   0  0  0  0  0  0  0  0  0  0  0  0
   20.1404  -20.6236  -18.5908 O   0  0  0  0  0  0  0  0  0  0  0  0
   23.8638  -20.7901  -13.8412 C   0  0  0  0  0  0  0  0  0  0  0  0
   23.5500  -21.9107  -13.3743 O   0  0  0  0  0  0  0  0  0  0  0  0
   20.4860  -22.3485  -17.1379 O   0  0  0  0  0  0  0  0  0  0  0  0
   25.1733  -20.2978  -13.6494 N   0  0  0  0  0  0  0  0  0  0  0  0
   26.2309  -21.0779  -12.9575 C   0  0  1  0  0  0  0  0  0  0  0  0
   27.5060  -20.9466  -13.7067 C   0  0  0  0  0  0  0  0  0  0  0  0
   27.7297  -19.6552  -14.3562 C   0  0  0  0  0  0  0  0  0  0  0  0
   26.8921  -18.5609  -14.3503 C   0  0  0  0  0  0  0  0  0  0  0  0
   27.4091  -17.5783  -15.0861 N   0  0  0  0  0  0  0  0  0  0  0  0
   28.5823  -18.0231  -15.5751 C   0  0  0  0  0  0  0  0  0  0  0  0
   28.7739  -19.2762  -15.1336 N   0  0  0  0  0  0  0  0  0  0  0  0
   26.2100  -20.6922  -11.5523 C   0  0  0  0  0  0  0  0  0  0  0  0
   26.0042  -19.4597  -11.2454 O   0  0  0  0  0  0  0  0  0  0  0  0
   28.7056  -19.6449   -4.7775 C   0  0  0  0  0  0  0  0  0  0  0  0
   28.6110  -19.1357   -6.4797 S   0  0  0  0  0  0  0  0  0  0  0  0
   27.0906  -19.5518   -7.3064 C   0  0  0  0  0  0  0  0  0  0  0  0
   27.2277  -20.0421   -8.7145 C   0  0  0  0  0  0  0  0  0  0  0  0
   26.1971  -21.0991   -9.0741 C   0  0  2  0  0  0  0  0  0  0  0  0
   26.3879  -21.5406  -10.4414 N   0  0  0  0  0  0  0  0  0  0  0  0
   24.8370  -20.7029   -8.7907 C   0  0  0  0  0  0  0  0  0  0  0  0
   23.9051  -20.2037   -9.6732 O   0  0  0  0  0  0  0  0  0  0  0  0
   24.4240  -20.8194   -7.5848 O   0  0  0  0  0  0  0  0  0  0  0  0
  2  1  1  6
  2  3  1  0
  2  7  1  0
  3  4  1  0
  5  4  1  0
  5  6  2  0
  7 10  1  0
  8  7  2  0
  9  5  1  0
 10 11  1  0
 11 12  1  6
 12 13  1  0
 13 17  1  0
 14 13  2  0
 14 15  1  0
 15 16  1  0
 17 16  2  0
 18 11  1  0
 18 19  2  0
 20 21  1  0
 21 22  1  0
 22 23  1  0
 24 23  1  6
 24 25  1  0
 25 18  1  0
 26 27  1  0
 26 24  1  0
 28 26  2  0
M  END
$$$$
