EHM.pdb
     RDKit          3D

 28 28  0  0  1  0  0  0  0  0999 V2000
   22.7194  -20.3673  -14.1844 N   0  0  0  0  0  0  0  0  0  0  0  0
   21.3203  -20.3567  -13.9191 C   0  0  1  0  0  0  0  0  0  0  0  0
   20.5413  -19.4395  -14.7850 C   0  0  0  0  0  0  0  0  0  0  0  0
   21.3307  -18.7373  -15.8547 C   0  0  0  0  0  0  0  0  0  0  0  0
   20.5021  -17.8119  -16.6307 C   0  0  0  0  0  0  0  0  0  0  0  0
   20.5634  -16.5748  -16.4542 O   0  0  0  0  0  0  0  0  0  0  0  0
   20.7149  -21.7300  -14.0323 C   0  0  0  0  0  0  0  0  0  0  0  0
   19.4686  -21.8397  -14.1143 O   0  0  0  0  0  0  0  0  0  0  0  0
   19.6139  -18.3052  -17.5985 O   0  0  0  0  0  0  0  0  0  0  0  0
   21.5186  -22.8909  -14.0476 N   0  0  0  0  0  0  0  0  0  0  0  0
   20.9590  -24.2521  -14.2470 C   0  0  1  0  0  0  0  0  0  0  0  0
   21.8429  -25.0159  -15.1634 C   0  0  0  0  0  0  0  0  0  0  0  0
   21.4666  -26.4110  -15.3909 C   0  0  0  0  0  0  0  0  0  0  0  0
   20.2459  -26.8882  -15.8169 C   0  0  0  0  0  0  0  0  0  0  0  0
   20.2613  -28.2192  -15.8678 N   0  0  0  0  0  0  0  0  0  0  0  0
   21.4868  -28.6175  -15.4768 C   0  0  0  0  0  0  0  0  0  0  0  0
   22.2124  -27.5253  -15.1895 N   0  0  0  0  0  0  0  0  0  0  0  0
   20.6813  -24.8081  -12.9289 C   0  0  0  0  0  0  0  0  0  0  0  0
   21.2320  -24.2733  -11.8962 O   0  0  0  0  0  0  0  0  0  0  0  0
   18.2257  -24.7971   -6.1776 C   0  0  0  0  0  0  0  0  0  0  0  0
   18.3774  -24.3206   -7.8851 S   0  0  0  0  0  0  0  0  0  0  0  0
   18.9015  -25.6182   -8.9850 C   0  0  0  0  0  0  0  0  0  0  0  0
   19.1989  -25.1994  -10.3915 C   0  0  0  0  0  0  0  0  0  0  0  0
   19.5981  -26.3641  -11.2818 C   0  0  2  0  0  0  0  0  0  0  0  0
   19.8425  -25.9011  -12.6334 N   0  0  0  0  0  0  0  0  0  0  0  0
   18.6830  -27.4804  -11.2216 C   0  0  0  0  0  0  0  0  0  0  0  0
   18.8160  -28.6384  -10.4883 O   0  0  0  0  0  0  0  0  0  0  0  0
   17.6147  -27.4104  -11.9231 O   0  0  0  0  0  0  0  0  0  0  0  0
  2  1  1  6
  2  3  1  0
  2  7  1  0
  3  4  1  0
  5  4  1  0
  5  6  2  0
  7 10  1  0
  8  7  2  0
  9  5  1  0
 10 11  1  0
 11 12  1  1
 12 13  1  0
 13 17  1  0
 14 13  2  0
 14 15  1  0
 15 16  1  0
 17 16  2  0
 18 11  1  0
 18 19  2  0
 20 21  1  0
 21 22  1  0
 22 23  1  0
 24 23  1  1
 24 25  1  0
 25 18  1  0
 26 27  1  0
 26 24  1  0
 28 26  2  0
M  END
$$$$
