EHM.pdb
     RDKit          3D

 28 28  0  0  1  0  0  0  0  0999 V2000
   17.0924  -15.4204  -15.5460 N   0  0  0  0  0  0  0  0  0  0  0  0
   16.8386  -14.0686  -15.9152 C   0  0  1  0  0  0  0  0  0  0  0  0
   15.5718  -13.5164  -15.3783 C   0  0  0  0  0  0  0  0  0  0  0  0
   14.3248  -14.2506  -15.7859 C   0  0  0  0  0  0  0  0  0  0  0  0
   13.1141  -13.6000  -15.2798 C   0  0  0  0  0  0  0  0  0  0  0  0
   12.2738  -13.0903  -16.0540 O   0  0  0  0  0  0  0  0  0  0  0  0
   17.9582  -13.1519  -15.5016 C   0  0  0  0  0  0  0  0  0  0  0  0
   18.2967  -13.1120  -14.2950 O   0  0  0  0  0  0  0  0  0  0  0  0
   12.8739  -13.5375  -13.8987 O   0  0  0  0  0  0  0  0  0  0  0  0
   18.6312  -12.3400  -16.4407 N   0  0  0  0  0  0  0  0  0  0  0  0
   19.6991  -11.3826  -16.0548 C   0  0  1  0  0  0  0  0  0  0  0  0
   20.9706  -11.7753  -16.7132 C   0  0  0  0  0  0  0  0  0  0  0  0
   22.1092  -10.8892  -16.4727 C   0  0  0  0  0  0  0  0  0  0  0  0
   23.0506  -10.9915  -15.4713 C   0  0  0  0  0  0  0  0  0  0  0  0
   23.9133   -9.9790  -15.5418 N   0  0  0  0  0  0  0  0  0  0  0  0
   23.5421   -9.2126  -16.5849 C   0  0  0  0  0  0  0  0  0  0  0  0
   22.4535   -9.7633  -17.1451 N   0  0  0  0  0  0  0  0  0  0  0  0
   19.1856  -10.0385  -16.2858 C   0  0  0  0  0  0  0  0  0  0  0  0
   18.4696   -9.8139  -17.3311 O   0  0  0  0  0  0  0  0  0  0  0  0
   15.0211   -3.7584  -15.6404 C   0  0  0  0  0  0  0  0  0  0  0  0
   15.4842   -5.4444  -15.3108 S   0  0  0  0  0  0  0  0  0  0  0  0
   17.1722   -5.8516  -15.7022 C   0  0  0  0  0  0  0  0  0  0  0  0
   17.5944   -7.2528  -15.3858 C   0  0  0  0  0  0  0  0  0  0  0  0
   18.9998   -7.5689  -15.8691 C   0  0  2  0  0  0  0  0  0  0  0  0
   19.3790   -8.9086  -15.4665 N   0  0  0  0  0  0  0  0  0  0  0  0
   19.9770   -6.5692  -15.5045 C   0  0  0  0  0  0  0  0  0  0  0  0
   20.0901   -5.2863  -15.9923 O   0  0  0  0  0  0  0  0  0  0  0  0
   20.8524   -6.8874  -14.6266 O   0  0  0  0  0  0  0  0  0  0  0  0
  2  1  1  1
  2  3  1  0
  2  7  1  0
  3  4  1  0
  5  4  1  0
  5  6  2  0
  7 10  1  0
  8  7  2  0
  9  5  1  0
 10 11  1  0
 11 12  1  6
 12 13  1  0
 13 17  1  0
 14 13  2  0
 14 15  1  0
 15 16  1  0
 17 16  2  0
 18 11  1  0
 18 19  2  0
 20 21  1  0
 21 22  1  0
 22 23  1  0
 24 23  1  1
 24 25  1  0
 25 18  1  0
 26 27  1  0
 26 24  1  0
 28 26  2  0
M  END
$$$$
