EHM.pdb
     RDKit          3D

 28 28  0  0  1  0  0  0  0  0999 V2000
   18.2453   -9.4576  -18.1755 N   0  0  0  0  0  0  0  0  0  0  0  0
   17.8732   -9.1673  -16.8319 C   0  0  1  0  0  0  0  0  0  0  0  0
   17.8970  -10.3395  -15.9246 C   0  0  0  0  0  0  0  0  0  0  0  0
   17.1254  -11.5388  -16.4009 C   0  0  0  0  0  0  0  0  0  0  0  0
   17.1749  -12.6415  -15.4382 C   0  0  0  0  0  0  0  0  0  0  0  0
   17.8045  -13.6946  -15.6828 O   0  0  0  0  0  0  0  0  0  0  0  0
   18.7372   -8.0933  -16.2275 C   0  0  0  0  0  0  0  0  0  0  0  0
   18.4540   -7.6558  -15.0871 O   0  0  0  0  0  0  0  0  0  0  0  0
   16.5077  -12.5326  -14.2087 O   0  0  0  0  0  0  0  0  0  0  0  0
   19.8540   -7.5713  -16.9159 N   0  0  0  0  0  0  0  0  0  0  0  0
   20.7330   -6.5215  -16.3404 C   0  0  1  0  0  0  0  0  0  0  0  0
   22.1400   -6.9954  -16.3599 C   0  0  0  0  0  0  0  0  0  0  0  0
   22.3973   -8.2471  -15.6480 C   0  0  0  0  0  0  0  0  0  0  0  0
   21.5046   -8.9783  -14.8945 C   0  0  0  0  0  0  0  0  0  0  0  0
   22.1088  -10.0390  -14.3615 N   0  0  0  0  0  0  0  0  0  0  0  0
   23.3941  -10.0070  -14.7619 C   0  0  0  0  0  0  0  0  0  0  0  0
   23.5661   -8.9252  -15.5378 N   0  0  0  0  0  0  0  0  0  0  0  0
   20.4148   -5.2681  -17.0124 C   0  0  0  0  0  0  0  0  0  0  0  0
   20.3770   -5.2403  -18.2984 O   0  0  0  0  0  0  0  0  0  0  0  0
   16.1959   -0.7946  -20.8287 C   0  0  0  0  0  0  0  0  0  0  0  0
   16.7912   -2.2466  -19.9903 S   0  0  0  0  0  0  0  0  0  0  0  0
   18.1042   -1.9573  -18.8240 C   0  0  0  0  0  0  0  0  0  0  0  0
   18.6265   -3.1695  -18.1171 C   0  0  0  0  0  0  0  0  0  0  0  0
   19.7551   -2.8489  -17.1516 C   0  0  2  0  0  0  0  0  0  0  0  0
   20.1239   -4.0325  -16.4007 N   0  0  0  0  0  0  0  0  0  0  0  0
   19.4916   -1.7036  -16.3114 C   0  0  0  0  0  0  0  0  0  0  0  0
   18.9333   -1.6946  -15.0525 O   0  0  0  0  0  0  0  0  0  0  0  0
   19.8044   -0.5490  -16.7667 O   0  0  0  0  0  0  0  0  0  0  0  0
  2  1  1  6
  2  3  1  0
  2  7  1  0
  3  4  1  0
  5  4  1  0
  5  6  2  0
  7 10  1  0
  8  7  2  0
  9  5  1  0
 10 11  1  0
 11 12  1  6
 12 13  1  0
 13 17  1  0
 14 13  2  0
 14 15  1  0
 15 16  1  0
 17 16  2  0
 18 11  1  0
 18 19  2  0
 20 21  1  0
 21 22  1  0
 22 23  1  0
 24 23  1  1
 24 25  1  0
 25 18  1  0
 26 27  1  0
 26 24  1  0
 28 26  2  0
M  END
$$$$
