EHM.pdb
     RDKit          3D

 28 28  0  0  1  0  0  0  0  0999 V2000
   22.2257  -12.2959  -17.7783 N   0  0  0  0  0  0  0  0  0  0  0  0
   22.0061  -10.9905  -18.3033 C   0  0  1  0  0  0  0  0  0  0  0  0
   20.5807  -10.5868  -18.3602 C   0  0  0  0  0  0  0  0  0  0  0  0
   19.7874  -10.8449  -17.1095 C   0  0  0  0  0  0  0  0  0  0  0  0
   18.8739   -9.7423  -16.8011 C   0  0  0  0  0  0  0  0  0  0  0  0
   18.0029   -9.3677  -17.6173 O   0  0  0  0  0  0  0  0  0  0  0  0
   22.7571   -9.9391  -17.5315 C   0  0  0  0  0  0  0  0  0  0  0  0
   22.6110   -9.8780  -16.2877 O   0  0  0  0  0  0  0  0  0  0  0  0
   18.9623   -9.0796  -15.5675 O   0  0  0  0  0  0  0  0  0  0  0  0
   23.6180   -9.0248  -18.1771 N   0  0  0  0  0  0  0  0  0  0  0  0
   24.3994   -7.9997  -17.4393 C   0  0  1  0  0  0  0  0  0  0  0  0
   25.8441   -8.3328  -17.5200 C   0  0  0  0  0  0  0  0  0  0  0  0
   26.2910   -9.4288  -16.6606 C   0  0  0  0  0  0  0  0  0  0  0  0
   25.5718  -10.0588  -15.6682 C   0  0  0  0  0  0  0  0  0  0  0  0
   26.3214  -10.9820  -15.0681 N   0  0  0  0  0  0  0  0  0  0  0  0
   27.5296  -10.9605  -15.6625 C   0  0  0  0  0  0  0  0  0  0  0  0
   27.5092  -10.0228  -16.6228 N   0  0  0  0  0  0  0  0  0  0  0  0
   23.9622   -6.6925  -17.9125 C   0  0  0  0  0  0  0  0  0  0  0  0
   23.9624   -6.4533  -19.1768 O   0  0  0  0  0  0  0  0  0  0  0  0
   21.2631   -1.0459  -14.5842 C   0  0  0  0  0  0  0  0  0  0  0  0
   20.7111   -1.3044  -16.2557 S   0  0  0  0  0  0  0  0  0  0  0  0
   21.8266   -2.2387  -17.2808 C   0  0  0  0  0  0  0  0  0  0  0  0
   22.2488   -3.5694  -16.7397 C   0  0  0  0  0  0  0  0  0  0  0  0
   23.1854   -4.3162  -17.6745 C   0  0  2  0  0  0  0  0  0  0  0  0
   23.5136   -5.6155  -17.1224 N   0  0  0  0  0  0  0  0  0  0  0  0
   24.3500   -3.5531  -18.0597 C   0  0  0  0  0  0  0  0  0  0  0  0
   24.4436   -2.6061  -19.0552 O   0  0  0  0  0  0  0  0  0  0  0  0
   25.4363   -3.7625  -17.4160 O   0  0  0  0  0  0  0  0  0  0  0  0
  2  1  1  1
  2  3  1  0
  2  7  1  0
  3  4  1  0
  5  4  1  0
  5  6  2  0
  7 10  1  0
  8  7  2  0
  9  5  1  0
 10 11  1  0
 11 12  1  6
 12 13  1  0
 13 17  1  0
 14 13  2  0
 14 15  1  0
 15 16  1  0
 17 16  2  0
 18 11  1  0
 18 19  2  0
 20 21  1  0
 21 22  1  0
 22 23  1  0
 24 23  1  1
 24 25  1  0
 25 18  1  0
 26 27  1  0
 26 24  1  0
 28 26  2  0
M  END
$$$$
