EHM.pdb
     RDKit          3D

 28 28  0  0  1  0  0  0  0  0999 V2000
   20.9901  -12.2074  -18.9515 N   0  0  0  0  0  0  0  0  0  0  0  0
   21.6717  -11.5320  -17.8992 C   0  0  1  0  0  0  0  0  0  0  0  0
   22.9855  -10.9652  -18.2874 C   0  0  0  0  0  0  0  0  0  0  0  0
   22.9789  -10.1124  -19.5256 C   0  0  0  0  0  0  0  0  0  0  0  0
   23.9839   -9.0486  -19.4652 C   0  0  0  0  0  0  0  0  0  0  0  0
   25.1573   -9.2353  -19.8570 O   0  0  0  0  0  0  0  0  0  0  0  0
   20.8418  -10.4228  -17.3110 C   0  0  0  0  0  0  0  0  0  0  0  0
   20.0943   -9.7571  -18.0662 O   0  0  0  0  0  0  0  0  0  0  0  0
   23.6415   -7.7851  -18.9600 O   0  0  0  0  0  0  0  0  0  0  0  0
   20.8884  -10.1185  -15.9329 N   0  0  0  0  0  0  0  0  0  0  0  0
   20.0582   -9.0515  -15.3178 C   0  0  1  0  0  0  0  0  0  0  0  0
   19.2930   -9.6207  -14.1799 C   0  0  0  0  0  0  0  0  0  0  0  0
   18.0377  -10.2853  -14.5291 C   0  0  0  0  0  0  0  0  0  0  0  0
   17.4532  -10.3655  -15.7746 C   0  0  0  0  0  0  0  0  0  0  0  0
   16.2912  -11.0124  -15.6999 N   0  0  0  0  0  0  0  0  0  0  0  0
   16.1105  -11.3570  -14.4108 C   0  0  0  0  0  0  0  0  0  0  0  0
   17.1651  -10.9174  -13.7061 N   0  0  0  0  0  0  0  0  0  0  0  0
   20.9292   -7.9107  -15.0656 C   0  0  0  0  0  0  0  0  0  0  0  0
   22.1238   -8.1194  -14.6353 O   0  0  0  0  0  0  0  0  0  0  0  0
   24.9800   -1.9158  -17.4870 C   0  0  0  0  0  0  0  0  0  0  0  0
   23.7844   -3.2156  -17.7030 S   0  0  0  0  0  0  0  0  0  0  0  0
   23.1154   -3.8814  -16.1940 C   0  0  0  0  0  0  0  0  0  0  0  0
   22.1057   -4.9751  -16.3558 C   0  0  0  0  0  0  0  0  0  0  0  0
   21.5671   -5.4820  -15.0285 C   0  0  2  0  0  0  0  0  0  0  0  0
   20.6127   -6.5501  -15.2498 N   0  0  0  0  0  0  0  0  0  0  0  0
   21.0588   -4.4358  -14.1716 C   0  0  0  0  0  0  0  0  0  0  0  0
   21.7782   -3.6027  -13.3440 O   0  0  0  0  0  0  0  0  0  0  0  0
   19.7941   -4.2392  -14.1613 O   0  0  0  0  0  0  0  0  0  0  0  0
  2  1  1  6
  2  3  1  0
  2  7  1  0
  3  4  1  0
  5  4  1  0
  5  6  2  0
  7 10  1  0
  8  7  2  0
  9  5  1  0
 10 11  1  0
 11 12  1  1
 12 13  1  0
 13 17  1  0
 14 13  2  0
 14 15  1  0
 15 16  1  0
 17 16  2  0
 18 11  1  0
 18 19  2  0
 20 21  1  0
 21 22  1  0
 22 23  1  0
 24 23  1  6
 24 25  1  0
 25 18  1  0
 26 27  1  0
 26 24  1  0
 28 26  2  0
M  END
$$$$
