EHM.pdb
     RDKit          3D

 28 28  0  0  1  0  0  0  0  0999 V2000
   26.1841  -13.4065  -21.8255 N   0  0  0  0  0  0  0  0  0  0  0  0
   25.6281  -13.4172  -20.5144 C   0  0  1  0  0  0  0  0  0  0  0  0
   25.9517  -14.6287  -19.7236 C   0  0  0  0  0  0  0  0  0  0  0  0
   25.6452  -15.9380  -20.3960 C   0  0  0  0  0  0  0  0  0  0  0  0
   26.0487  -17.0836  -19.5774 C   0  0  0  0  0  0  0  0  0  0  0  0
   26.6115  -16.9299  -18.4706 O   0  0  0  0  0  0  0  0  0  0  0  0
   26.0479  -12.2134  -19.7146 C   0  0  0  0  0  0  0  0  0  0  0  0
   26.8705  -12.3616  -18.7799 O   0  0  0  0  0  0  0  0  0  0  0  0
   25.8066  -18.3903  -20.0278 O   0  0  0  0  0  0  0  0  0  0  0  0
   25.5360  -10.9275  -19.9941 N   0  0  0  0  0  0  0  0  0  0  0  0
   25.9381   -9.7195  -19.2292 C   0  0  1  0  0  0  0  0  0  0  0  0
   26.6525   -8.7827  -20.1328 C   0  0  0  0  0  0  0  0  0  0  0  0
   27.9447   -9.2484  -20.6358 C   0  0  0  0  0  0  0  0  0  0  0  0
   29.1508   -9.2461  -19.9691 C   0  0  0  0  0  0  0  0  0  0  0  0
   30.1183   -9.7058  -20.7609 N   0  0  0  0  0  0  0  0  0  0  0  0
   29.5523  -10.0096  -21.9444 C   0  0  0  0  0  0  0  0  0  0  0  0
   28.2410   -9.7329  -21.8670 N   0  0  0  0  0  0  0  0  0  0  0  0
   24.7585   -9.2367  -18.5227 C   0  0  0  0  0  0  0  0  0  0  0  0
   23.6440   -9.1419  -19.1589 O   0  0  0  0  0  0  0  0  0  0  0  0
   20.0974   -9.4447  -12.2567 C   0  0  0  0  0  0  0  0  0  0  0  0
   21.6945   -9.7296  -12.9874 S   0  0  0  0  0  0  0  0  0  0  0  0
   21.9662   -8.9124  -14.5451 C   0  0  0  0  0  0  0  0  0  0  0  0
   23.2502   -9.2449  -15.2400 C   0  0  0  0  0  0  0  0  0  0  0  0
   23.4438   -8.4624  -16.5279 C   0  0  2  0  0  0  0  0  0  0  0  0
   24.6839   -8.8516  -17.1694 N   0  0  0  0  0  0  0  0  0  0  0  0
   23.3150   -7.0330  -16.3629 C   0  0  0  0  0  0  0  0  0  0  0  0
   22.1540   -6.2981  -16.2709 O   0  0  0  0  0  0  0  0  0  0  0  0
   24.3917   -6.3445  -16.2909 O   0  0  0  0  0  0  0  0  0  0  0  0
  2  1  1  6
  2  3  1  0
  2  7  1  0
  3  4  1  0
  5  4  1  0
  5  6  2  0
  7 10  1  0
  8  7  2  0
  9  5  1  0
 10 11  1  0
 11 12  1  6
 12 13  1  0
 13 17  1  0
 14 13  2  0
 14 15  1  0
 15 16  1  0
 17 16  2  0
 18 11  1  0
 18 19  2  0
 20 21  1  0
 21 22  1  0
 22 23  1  0
 24 23  1  1
 24 25  1  0
 25 18  1  0
 26 27  1  0
 26 24  1  0
 28 26  2  0
M  END
$$$$
