EHM.pdb
     RDKit          3D

 28 28  0  0  1  0  0  0  0  0999 V2000
   22.1677  -12.7667  -18.1297 N   0  0  0  0  0  0  0  0  0  0  0  0
   21.7854  -11.3985  -18.2282 C   0  0  1  0  0  0  0  0  0  0  0  0
   20.3225  -11.1669  -18.1653 C   0  0  0  0  0  0  0  0  0  0  0  0
   19.5220  -11.7980  -19.2704 C   0  0  0  0  0  0  0  0  0  0  0  0
   18.3108  -11.0336  -19.5769 C   0  0  0  0  0  0  0  0  0  0  0  0
   18.3089  -10.1326  -20.4448 O   0  0  0  0  0  0  0  0  0  0  0  0
   22.4365  -10.5536  -17.1665 C   0  0  0  0  0  0  0  0  0  0  0  0
   22.1758  -10.7841  -15.9619 O   0  0  0  0  0  0  0  0  0  0  0  0
   17.1162  -11.3040  -18.8923 O   0  0  0  0  0  0  0  0  0  0  0  0
   23.3301   -9.5119  -17.4984 N   0  0  0  0  0  0  0  0  0  0  0  0
   23.9436   -8.6247  -16.4774 C   0  0  1  0  0  0  0  0  0  0  0  0
   25.4190   -8.6330  -16.6438 C   0  0  0  0  0  0  0  0  0  0  0  0
   26.0930   -9.8740  -16.2627 C   0  0  0  0  0  0  0  0  0  0  0  0
   25.5243  -10.9927  -15.6933 C   0  0  0  0  0  0  0  0  0  0  0  0
   26.4569  -11.9110  -15.4457 N   0  0  0  0  0  0  0  0  0  0  0  0
   27.6352  -11.3997  -15.8500 C   0  0  0  0  0  0  0  0  0  0  0  0
   27.4136  -10.1708  -16.3425 N   0  0  0  0  0  0  0  0  0  0  0  0
   23.2472   -7.3458  -16.5343 C   0  0  0  0  0  0  0  0  0  0  0  0
   23.1429   -6.7406  -17.6650 O   0  0  0  0  0  0  0  0  0  0  0  0
   17.0560   -3.0478  -16.5629 C   0  0  0  0  0  0  0  0  0  0  0  0
   17.9339   -4.5502  -16.1917 S   0  0  0  0  0  0  0  0  0  0  0  0
   19.6934   -4.3653  -15.9966 C   0  0  0  0  0  0  0  0  0  0  0  0
   20.4713   -5.6377  -15.8631 C   0  0  0  0  0  0  0  0  0  0  0  0
   21.9514   -5.4009  -15.6147 C   0  0  2  0  0  0  0  0  0  0  0  0
   22.6421   -6.6656  -15.4588 N   0  0  0  0  0  0  0  0  0  0  0  0
   22.2179   -4.4730  -14.5398 C   0  0  0  0  0  0  0  0  0  0  0  0
   22.1980   -3.0971  -14.5923 O   0  0  0  0  0  0  0  0  0  0  0  0
   22.5093   -4.9611  -13.3931 O   0  0  0  0  0  0  0  0  0  0  0  0
  2  1  1  1
  2  3  1  0
  2  7  1  0
  3  4  1  0
  5  4  1  0
  5  6  2  0
  7 10  1  0
  8  7  2  0
  9  5  1  0
 10 11  1  0
 11 12  1  6
 12 13  1  0
 13 17  1  0
 14 13  2  0
 14 15  1  0
 15 16  1  0
 17 16  2  0
 18 11  1  0
 18 19  2  0
 20 21  1  0
 21 22  1  0
 22 23  1  0
 24 23  1  1
 24 25  1  0
 25 18  1  0
 26 27  1  0
 26 24  1  0
 28 26  2  0
M  END
$$$$
