EHM.pdb
     RDKit          3D

 28 28  0  0  1  0  0  0  0  0999 V2000
   18.2817  -12.0082  -17.7148 N   0  0  0  0  0  0  0  0  0  0  0  0
   17.8586  -10.6568  -17.8654 C   0  0  1  0  0  0  0  0  0  0  0  0
   16.7129  -10.2760  -17.0051 C   0  0  0  0  0  0  0  0  0  0  0  0
   16.9248  -10.4649  -15.5287 C   0  0  0  0  0  0  0  0  0  0  0  0
   15.6965  -10.2377  -14.7640 C   0  0  0  0  0  0  0  0  0  0  0  0
   14.6343  -10.8384  -15.0401 O   0  0  0  0  0  0  0  0  0  0  0  0
   18.9777   -9.6840  -17.6077 C   0  0  0  0  0  0  0  0  0  0  0  0
   19.9778  -10.0672  -16.9557 O   0  0  0  0  0  0  0  0  0  0  0  0
   15.6916   -9.3299  -13.6940 O   0  0  0  0  0  0  0  0  0  0  0  0
   18.9237   -8.3555  -18.0830 N   0  0  0  0  0  0  0  0  0  0  0  0
   20.0299   -7.3851  -17.8816 C   0  0  1  0  0  0  0  0  0  0  0  0
   19.8873   -6.2710  -18.8525 C   0  0  0  0  0  0  0  0  0  0  0  0
   20.1941   -6.5997  -20.2444 C   0  0  0  0  0  0  0  0  0  0  0  0
   20.7293   -7.7745  -20.7269 C   0  0  0  0  0  0  0  0  0  0  0  0
   20.9097   -7.6942  -22.0443 N   0  0  0  0  0  0  0  0  0  0  0  0
   20.4955   -6.4718  -22.4283 C   0  0  0  0  0  0  0  0  0  0  0  0
   20.0643   -5.8131  -21.3411 N   0  0  0  0  0  0  0  0  0  0  0  0
   20.0769   -7.0644  -16.4608 C   0  0  0  0  0  0  0  0  0  0  0  0
   19.1755   -7.5486  -15.6805 O   0  0  0  0  0  0  0  0  0  0  0  0
   22.2481   -9.5419  -10.0362 C   0  0  0  0  0  0  0  0  0  0  0  0
   21.9941   -9.4496  -11.7948 S   0  0  0  0  0  0  0  0  0  0  0  0
   21.7176   -7.8102  -12.4304 C   0  0  0  0  0  0  0  0  0  0  0  0
   21.4826   -7.7147  -13.9060 C   0  0  0  0  0  0  0  0  0  0  0  0
   21.2390   -6.2896  -14.3736 C   0  0  2  0  0  0  0  0  0  0  0  0
   21.0329   -6.2610  -15.8080 N   0  0  0  0  0  0  0  0  0  0  0  0
   22.2438   -5.3528  -13.9263 C   0  0  0  0  0  0  0  0  0  0  0  0
   23.2692   -4.8036  -14.6634 O   0  0  0  0  0  0  0  0  0  0  0  0
   22.1984   -4.9721  -12.7052 O   0  0  0  0  0  0  0  0  0  0  0  0
  2  1  1  1
  2  3  1  0
  2  7  1  0
  3  4  1  0
  5  4  1  0
  5  6  2  0
  7 10  1  0
  8  7  2  0
  9  5  1  0
 10 11  1  0
 11 12  1  6
 12 13  1  0
 13 17  1  0
 14 13  2  0
 14 15  1  0
 15 16  1  0
 17 16  2  0
 18 11  1  0
 18 19  2  0
 20 21  1  0
 21 22  1  0
 22 23  1  0
 24 23  1  6
 24 25  1  0
 25 18  1  0
 26 27  1  0
 26 24  1  0
 28 26  2  0
M  END
$$$$
