ELL.pdb
     RDKit          3D

 26 25  0  0  1  0  0  0  0  0999 V2000
   18.1448  -12.4705  -18.2274 N   0  0  0  0  0  0  0  0  0  0  0  0
   18.9672  -11.3018  -18.4683 C   0  0  1  0  0  0  0  0  0  0  0  0
   18.1862  -10.4106  -19.4014 C   0  0  0  0  0  0  0  0  0  0  0  0
   18.2579  -11.0428  -20.7917 C   0  0  0  0  0  0  0  0  0  0  0  0
   19.5963  -10.7877  -21.3344 C   0  0  0  0  0  0  0  0  0  0  0  0
   20.3080   -9.8614  -20.8989 O   0  0  0  0  0  0  0  0  0  0  0  0
   19.1851  -10.5788  -17.1854 C   0  0  0  0  0  0  0  0  0  0  0  0
   18.2506  -10.5458  -16.3444 O   0  0  0  0  0  0  0  0  0  0  0  0
   20.0750  -11.5976  -22.3536 O   0  0  0  0  0  0  0  0  0  0  0  0
   21.3510   -9.4098  -12.5730 C   0  0  0  0  0  0  0  0  0  0  0  0
   22.2906   -9.0558  -13.7685 C   0  0  1  0  0  0  0  0  0  0  0  0
   23.6292   -9.6536  -13.3783 C   0  0  0  0  0  0  0  0  0  0  0  0
   21.7334   -9.6745  -14.9798 C   0  0  0  0  0  0  0  0  0  0  0  0
   20.4742   -9.1700  -15.6004 C   0  0  2  0  0  0  0  0  0  0  0  0
   20.3934   -9.9325  -16.8729 N   0  0  0  0  0  0  0  0  0  0  0  0
   20.3681   -7.7326  -15.8772 C   0  0  0  0  0  0  0  0  0  0  0  0
   20.9673   -7.1250  -16.7848 O   0  0  0  0  0  0  0  0  0  0  0  0
   18.6660   -5.2064  -19.3293 C   0  0  0  0  0  0  0  0  0  0  0  0
   19.3402   -4.8899  -17.9749 C   0  0  1  0  0  0  0  0  0  0  0  0
   19.3130   -3.3849  -17.8648 C   0  0  0  0  0  0  0  0  0  0  0  0
   18.5785   -5.6253  -16.9572 C   0  0  0  0  0  0  0  0  0  0  0  0
   19.0625   -5.6176  -15.5411 C   0  0  2  0  0  0  0  0  0  0  0  0
   19.5238   -6.8768  -15.0831 N   0  0  0  0  0  0  0  0  0  0  0  0
   18.1862   -4.9010  -14.6139 C   0  0  0  0  0  0  0  0  0  0  0  0
   17.4346   -5.5248  -13.8561 O   0  0  0  0  0  0  0  0  0  0  0  0
   18.1802   -3.5361  -14.5668 O   0  0  0  0  0  0  0  0  0  0  0  0
  2  1  1  1
  2  3  1  0
  2  7  1  0
  4  5  1  0
  4  3  1  0
  5  6  2  0
  7  8  2  0
  9  5  1  0
 11 10  1  1
 11 12  1  0
 13 11  1  0
 14 13  1  6
 15 14  1  0
 15  7  1  0
 16 14  1  0
 16 17  2  0
 19 21  1  0
 19 18  1  6
 20 19  1  0
 22 21  1  6
 22 23  1  0
 22 24  1  0
 23 16  1  0
 24 25  2  0
 24 26  1  0
M  END
$$$$
