ELL.pdb
     RDKit          3D

 26 25  0  0  1  0  0  0  0  0999 V2000
   22.2001  -12.9063  -19.3960 N   0  0  0  0  0  0  0  0  0  0  0  0
   23.0422  -11.7852  -19.7627 C   0  0  1  0  0  0  0  0  0  0  0  0
   22.5096  -11.2565  -21.0711 C   0  0  0  0  0  0  0  0  0  0  0  0
   22.8861  -12.2701  -22.1521 C   0  0  0  0  0  0  0  0  0  0  0  0
   24.2397  -11.9508  -22.6176 C   0  0  0  0  0  0  0  0  0  0  0  0
   24.8555  -10.9547  -22.1899 O   0  0  0  0  0  0  0  0  0  0  0  0
   22.9219  -10.7193  -18.7305 C   0  0  0  0  0  0  0  0  0  0  0  0
   21.7816  -10.4426  -18.2781 O   0  0  0  0  0  0  0  0  0  0  0  0
   24.8424  -12.7783  -23.5534 O   0  0  0  0  0  0  0  0  0  0  0  0
   26.6645  -10.0720  -14.8605 C   0  0  0  0  0  0  0  0  0  0  0  0
   25.2905  -10.2720  -15.5744 C   0  0  1  0  0  0  0  0  0  0  0  0
   24.3093  -10.4873  -14.4375 C   0  0  0  0  0  0  0  0  0  0  0  0
   24.9985   -9.0531  -16.3422 C   0  0  0  0  0  0  0  0  0  0  0  0
   23.7943   -8.9565  -17.2172 C   0  0  2  0  0  0  0  0  0  0  0  0
   24.0306  -10.0098  -18.2380 N   0  0  0  0  0  0  0  0  0  0  0  0
   23.5236   -7.6759  -17.8809 C   0  0  0  0  0  0  0  0  0  0  0  0
   24.2016   -7.1812  -18.8015 O   0  0  0  0  0  0  0  0  0  0  0  0
   21.6733   -4.3310  -20.9934 C   0  0  0  0  0  0  0  0  0  0  0  0
   20.6168   -4.4964  -19.8773 C   0  0  1  0  0  0  0  0  0  0  0  0
   19.2908   -4.5480  -20.5963 C   0  0  0  0  0  0  0  0  0  0  0  0
   20.9945   -5.7045  -19.1326 C   0  0  0  0  0  0  0  0  0  0  0  0
   22.1037   -5.6235  -18.1313 C   0  0  2  0  0  0  0  0  0  0  0  0
   22.4011   -6.8568  -17.5000 N   0  0  0  0  0  0  0  0  0  0  0  0
   22.0165   -4.4704  -17.2347 C   0  0  0  0  0  0  0  0  0  0  0  0
   21.8816   -4.6348  -16.0169 O   0  0  0  0  0  0  0  0  0  0  0  0
   22.0816   -3.1962  -17.7216 O   0  0  0  0  0  0  0  0  0  0  0  0
  2  1  1  1
  2  3  1  0
  2  7  1  0
  4  5  1  0
  4  3  1  0
  5  6  2  0
  7  8  2  0
  9  5  1  0
 11 10  1  1
 11 12  1  0
 13 11  1  0
 14 13  1  1
 15 14  1  0
 15  7  1  0
 16 14  1  0
 16 17  2  0
 19 21  1  0
 19 18  1  6
 20 19  1  0
 22 21  1  1
 22 23  1  0
 22 24  1  0
 23 16  1  0
 24 25  2  0
 24 26  1  0
M  END
$$$$
