ELL.pdb
     RDKit          3D

 26 25  0  0  1  0  0  0  0  0999 V2000
   23.8516  -20.0508  -16.4408 N   0  0  0  0  0  0  0  0  0  0  0  0
   24.3631  -19.4380  -15.2313 C   0  0  1  0  0  0  0  0  0  0  0  0
   23.1800  -19.2347  -14.3180 C   0  0  0  0  0  0  0  0  0  0  0  0
   21.9304  -19.6258  -15.1075 C   0  0  0  0  0  0  0  0  0  0  0  0
   20.8565  -18.6966  -14.7412 C   0  0  0  0  0  0  0  0  0  0  0  0
   20.6575  -17.6477  -15.3851 O   0  0  0  0  0  0  0  0  0  0  0  0
   25.3215  -20.3684  -14.5740 C   0  0  0  0  0  0  0  0  0  0  0  0
   25.1487  -21.6069  -14.7072 O   0  0  0  0  0  0  0  0  0  0  0  0
   20.0484  -18.9966  -13.6546 O   0  0  0  0  0  0  0  0  0  0  0  0
   30.1914  -22.0255  -13.1100 C   0  0  0  0  0  0  0  0  0  0  0  0
   29.6112  -20.9423  -12.1471 C   0  0  1  0  0  0  0  0  0  0  0  0
   30.7834  -20.0172  -11.8793 C   0  0  0  0  0  0  0  0  0  0  0  0
   28.5095  -20.2623  -12.8431 C   0  0  0  0  0  0  0  0  0  0  0  0
   27.1854  -20.9227  -13.0321 C   0  0  2  0  0  0  0  0  0  0  0  0
   26.4141  -19.9205  -13.8119 N   0  0  0  0  0  0  0  0  0  0  0  0
   26.4283  -21.3077  -11.8353 C   0  0  0  0  0  0  0  0  0  0  0  0
   26.4430  -22.4333  -11.3017 O   0  0  0  0  0  0  0  0  0  0  0  0
   27.1563  -19.0903   -7.3040 C   0  0  0  0  0  0  0  0  0  0  0  0
   26.8250  -20.1890   -8.3396 C   0  0  1  0  0  0  0  0  0  0  0  0
   27.0975  -21.4927   -7.6298 C   0  0  0  0  0  0  0  0  0  0  0  0
   25.4346  -19.9567   -8.7514 C   0  0  0  0  0  0  0  0  0  0  0  0
   24.9007  -20.6805   -9.9475 C   0  0  2  0  0  0  0  0  0  0  0  0
   25.5716  -20.3692  -11.1562 N   0  0  0  0  0  0  0  0  0  0  0  0
   23.4401  -20.6975  -10.0330 C   0  0  0  0  0  0  0  0  0  0  0  0
   22.8714  -20.3605  -11.0777 O   0  0  0  0  0  0  0  0  0  0  0  0
   22.6789  -21.0834   -8.9667 O   0  0  0  0  0  0  0  0  0  0  0  0
  2  1  1  6
  2  3  1  0
  2  7  1  0
  4  5  1  0
  4  3  1  0
  5  6  2  0
  7  8  2  0
  9  5  1  0
 11 10  1  6
 11 12  1  0
 13 11  1  0
 14 13  1  1
 15 14  1  0
 15  7  1  0
 16 14  1  0
 16 17  2  0
 19 21  1  0
 19 18  1  1
 20 19  1  0
 22 21  1  1
 22 23  1  0
 22 24  1  0
 23 16  1  0
 24 25  2  0
 24 26  1  0
M  END
$$$$
