ELL.pdb
     RDKit          3D

 26 25  0  0  1  0  0  0  0  0999 V2000
   25.4505  -24.8318  -16.1638 N   0  0  0  0  0  0  0  0  0  0  0  0
   25.7810  -23.4651  -15.8129 C   0  0  1  0  0  0  0  0  0  0  0  0
   25.3892  -22.6109  -16.9927 C   0  0  0  0  0  0  0  0  0  0  0  0
   26.6481  -21.8752  -17.4526 C   0  0  0  0  0  0  0  0  0  0  0  0
   26.2710  -20.9800  -18.5515 C   0  0  0  0  0  0  0  0  0  0  0  0
   25.1204  -20.9899  -19.0315 O   0  0  0  0  0  0  0  0  0  0  0  0
   24.9750  -23.0501  -14.6321 C   0  0  0  0  0  0  0  0  0  0  0  0
   24.0326  -23.7918  -14.2533 O   0  0  0  0  0  0  0  0  0  0  0  0
   27.2188  -20.1062  -19.0632 O   0  0  0  0  0  0  0  0  0  0  0  0
   25.1628  -21.7394   -9.5295 C   0  0  0  0  0  0  0  0  0  0  0  0
   25.0993  -20.4749  -10.4430 C   0  0  1  0  0  0  0  0  0  0  0  0
   26.1320  -19.5356   -9.8491 C   0  0  0  0  0  0  0  0  0  0  0  0
   25.4407  -20.8885  -11.8116 C   0  0  0  0  0  0  0  0  0  0  0  0
   24.4641  -21.6232  -12.6671 C   0  0  2  0  0  0  0  0  0  0  0  0
   25.2245  -21.8642  -13.9205 N   0  0  0  0  0  0  0  0  0  0  0  0
   23.1893  -20.9669  -12.9800 C   0  0  0  0  0  0  0  0  0  0  0  0
   22.3395  -20.6029  -12.1450 O   0  0  0  0  0  0  0  0  0  0  0  0
   22.6902  -18.0571  -17.6943 C   0  0  0  0  0  0  0  0  0  0  0  0
   22.7682  -18.4374  -16.1981 C   0  0  1  0  0  0  0  0  0  0  0  0
   22.8287  -17.1218  -15.4611 C   0  0  0  0  0  0  0  0  0  0  0  0
   21.5930  -19.2754  -15.9274 C   0  0  0  0  0  0  0  0  0  0  0  0
   21.5605  -20.0994  -14.6786 C   0  0  2  0  0  0  0  0  0  0  0  0
   22.8073  -20.6811  -14.3396 N   0  0  0  0  0  0  0  0  0  0  0  0
   20.4088  -20.9972  -14.5848 C   0  0  0  0  0  0  0  0  0  0  0  0
   19.2644  -20.5381  -14.4956 O   0  0  0  0  0  0  0  0  0  0  0  0
   20.5731  -22.3529  -14.5935 O   0  0  0  0  0  0  0  0  0  0  0  0
  2  1  1  6
  2  3  1  0
  2  7  1  0
  4  5  1  0
  4  3  1  0
  5  6  2  0
  7  8  2  0
  9  5  1  0
 11 10  1  1
 11 12  1  0
 13 11  1  0
 14 13  1  1
 15 14  1  0
 15  7  1  0
 16 14  1  0
 16 17  2  0
 19 21  1  0
 19 18  1  6
 20 19  1  0
 22 21  1  6
 22 23  1  0
 22 24  1  0
 23 16  1  0
 24 25  2  0
 24 26  1  0
M  END
$$$$
