ELL.pdb
     RDKit          3D

 26 25  0  0  1  0  0  0  0  0999 V2000
   27.8936  -21.0058  -16.5207 N   0  0  0  0  0  0  0  0  0  0  0  0
   26.9158  -19.9647  -16.2752 C   0  0  1  0  0  0  0  0  0  0  0  0
   26.3920  -19.5392  -17.6242 C   0  0  0  0  0  0  0  0  0  0  0  0
   26.9813  -18.1598  -17.9203 C   0  0  0  0  0  0  0  0  0  0  0  0
   27.0547  -18.0042  -19.3769 C   0  0  0  0  0  0  0  0  0  0  0  0
   28.0880  -17.5844  -19.9339 O   0  0  0  0  0  0  0  0  0  0  0  0
   25.7894  -20.5236  -15.4784 C   0  0  0  0  0  0  0  0  0  0  0  0
   25.2502  -21.5930  -15.8622 O   0  0  0  0  0  0  0  0  0  0  0  0
   25.9479  -18.3329  -20.1454 O   0  0  0  0  0  0  0  0  0  0  0  0
   25.7901  -20.7650  -10.0517 C   0  0  0  0  0  0  0  0  0  0  0  0
   25.6741  -21.1712  -11.5546 C   0  0  1  0  0  0  0  0  0  0  0  0
   25.3745  -22.6579  -11.5154 C   0  0  0  0  0  0  0  0  0  0  0  0
   24.5767  -20.3948  -12.1492 C   0  0  0  0  0  0  0  0  0  0  0  0
   24.1914  -20.5653  -13.5801 C   0  0  2  0  0  0  0  0  0  0  0  0
   25.3040  -19.9072  -14.3123 N   0  0  0  0  0  0  0  0  0  0  0  0
   22.9087  -20.0052  -14.0216 C   0  0  0  0  0  0  0  0  0  0  0  0
   22.5805  -18.8057  -13.9494 O   0  0  0  0  0  0  0  0  0  0  0  0
   20.5398  -20.6543  -18.7404 C   0  0  0  0  0  0  0  0  0  0  0  0
   21.0616  -20.0420  -17.4205 C   0  0  1  0  0  0  0  0  0  0  0  0
   21.0023  -18.5485  -17.6299 C   0  0  0  0  0  0  0  0  0  0  0  0
   20.2059  -20.5786  -16.3544 C   0  0  0  0  0  0  0  0  0  0  0  0
   20.5958  -20.3531  -14.9273 C   0  0  2  0  0  0  0  0  0  0  0  0
   21.8854  -20.8396  -14.5985 N   0  0  0  0  0  0  0  0  0  0  0  0
   19.5442  -20.6758  -13.9623 C   0  0  0  0  0  0  0  0  0  0  0  0
   19.6938  -21.6075  -13.1636 O   0  0  0  0  0  0  0  0  0  0  0  0
   18.3824  -19.9590  -13.9243 O   0  0  0  0  0  0  0  0  0  0  0  0
  2  1  1  6
  2  3  1  0
  2  7  1  0
  4  5  1  0
  4  3  1  0
  5  6  2  0
  7  8  2  0
  9  5  1  0
 11 10  1  1
 11 12  1  0
 13 11  1  0
 14 13  1  1
 15 14  1  0
 15  7  1  0
 16 14  1  0
 16 17  2  0
 19 21  1  0
 19 18  1  6
 20 19  1  0
 22 21  1  6
 22 23  1  0
 22 24  1  0
 23 16  1  0
 24 25  2  0
 24 26  1  0
M  END
$$$$
