ELL.pdb
     RDKit          3D

 26 25  0  0  1  0  0  0  0  0999 V2000
   15.6147  -10.8453  -17.7187 N   0  0  0  0  0  0  0  0  0  0  0  0
   15.7642  -10.4121  -16.3438 C   0  0  1  0  0  0  0  0  0  0  0  0
   16.5267  -11.5003  -15.6301 C   0  0  0  0  0  0  0  0  0  0  0  0
   15.5570  -12.6630  -15.4171 C   0  0  0  0  0  0  0  0  0  0  0  0
   16.2430  -13.6811  -14.6147 C   0  0  0  0  0  0  0  0  0  0  0  0
   17.1643  -14.3722  -15.0922 O   0  0  0  0  0  0  0  0  0  0  0  0
   16.5679   -9.1596  -16.3056 C   0  0  0  0  0  0  0  0  0  0  0  0
   17.4498   -8.9809  -17.1842 O   0  0  0  0  0  0  0  0  0  0  0  0
   15.8545  -13.8742  -13.2973 O   0  0  0  0  0  0  0  0  0  0  0  0
   14.6694   -4.1922  -15.9618 C   0  0  0  0  0  0  0  0  0  0  0  0
   15.5716   -5.3826  -16.4163 C   0  0  1  0  0  0  0  0  0  0  0  0
   16.4527   -4.7884  -17.4989 C   0  0  0  0  0  0  0  0  0  0  0  0
   16.3450   -5.8341  -15.2507 C   0  0  0  0  0  0  0  0  0  0  0  0
   17.2859   -6.9879  -15.3429 C   0  0  2  0  0  0  0  0  0  0  0  0
   16.3810   -8.1662  -15.3293 N   0  0  0  0  0  0  0  0  0  0  0  0
   18.3044   -7.1341  -14.2965 C   0  0  0  0  0  0  0  0  0  0  0  0
   18.2005   -7.8484  -13.2811 O   0  0  0  0  0  0  0  0  0  0  0  0
   21.8723   -9.6805  -11.8380 C   0  0  0  0  0  0  0  0  0  0  0  0
   22.2884   -8.5453  -12.8010 C   0  0  1  0  0  0  0  0  0  0  0  0
   23.3974   -9.1299  -13.6413 C   0  0  0  0  0  0  0  0  0  0  0  0
   21.0704   -8.1536  -13.5219 C   0  0  0  0  0  0  0  0  0  0  0  0
   20.6494   -6.7175  -13.5100 C   0  0  2  0  0  0  0  0  0  0  0  0
   19.5593   -6.4297  -14.3684 N   0  0  0  0  0  0  0  0  0  0  0  0
   21.7610   -5.7683  -13.5759 C   0  0  0  0  0  0  0  0  0  0  0  0
   22.5483   -5.6614  -12.6288 O   0  0  0  0  0  0  0  0  0  0  0  0
   21.9507   -4.9851  -14.6785 O   0  0  0  0  0  0  0  0  0  0  0  0
  2  1  1  6
  2  3  1  0
  2  7  1  0
  4  5  1  0
  4  3  1  0
  5  6  2  0
  7  8  2  0
  9  5  1  0
 11 10  1  1
 11 12  1  0
 13 11  1  0
 14 13  1  1
 15 14  1  0
 15  7  1  0
 16 14  1  0
 16 17  2  0
 19 21  1  0
 19 18  1  1
 20 19  1  0
 22 21  1  6
 22 23  1  0
 22 24  1  0
 23 16  1  0
 24 25  2  0
 24 26  1  0
M  END
$$$$
