ELL.pdb
     RDKit          3D

 26 25  0  0  1  0  0  0  0  0999 V2000
   20.8650  -12.9761  -17.7655 N   0  0  0  0  0  0  0  0  0  0  0  0
   21.4369  -11.8028  -18.3951 C   0  0  1  0  0  0  0  0  0  0  0  0
   20.3830  -11.2565  -19.3256 C   0  0  0  0  0  0  0  0  0  0  0  0
   20.3754  -12.1471  -20.5683 C   0  0  0  0  0  0  0  0  0  0  0  0
   19.3994  -11.5943  -21.5132 C   0  0  0  0  0  0  0  0  0  0  0  0
   18.4568  -12.2832  -21.9506 O   0  0  0  0  0  0  0  0  0  0  0  0
   21.7345  -10.7802  -17.3550 C   0  0  0  0  0  0  0  0  0  0  0  0
   20.9079  -10.6086  -16.4228 O   0  0  0  0  0  0  0  0  0  0  0  0
   19.5329  -10.2766  -21.9250 O   0  0  0  0  0  0  0  0  0  0  0  0
   26.7951   -9.9330  -15.5948 C   0  0  0  0  0  0  0  0  0  0  0  0
   25.2660  -10.2438  -15.6462 C   0  0  1  0  0  0  0  0  0  0  0  0
   24.9215  -10.6488  -14.2253 C   0  0  0  0  0  0  0  0  0  0  0  0
   24.5695   -9.0184  -16.0631 C   0  0  0  0  0  0  0  0  0  0  0  0
   23.0946   -9.0011  -16.2857 C   0  0  2  0  0  0  0  0  0  0  0  0
   22.9028   -9.9991  -17.3693 N   0  0  0  0  0  0  0  0  0  0  0  0
   22.4684   -7.7298  -16.6671 C   0  0  0  0  0  0  0  0  0  0  0  0
   22.5689   -7.1797  -17.7803 O   0  0  0  0  0  0  0  0  0  0  0  0
   19.9259   -4.2935  -18.8217 C   0  0  0  0  0  0  0  0  0  0  0  0
   19.0859   -5.1486  -17.8457 C   0  0  1  0  0  0  0  0  0  0  0  0
   17.9058   -5.6251  -18.6570 C   0  0  0  0  0  0  0  0  0  0  0  0
   19.9852   -6.1935  -17.3396 C   0  0  0  0  0  0  0  0  0  0  0  0
   20.8306   -5.9052  -16.1389 C   0  0  2  0  0  0  0  0  0  0  0  0
   21.6526   -6.9881  -15.7395 N   0  0  0  0  0  0  0  0  0  0  0  0
   20.1169   -5.2322  -15.0531 C   0  0  0  0  0  0  0  0  0  0  0  0
   19.5891   -4.1302  -15.2411 O   0  0  0  0  0  0  0  0  0  0  0  0
   20.0197   -5.8039  -13.8167 O   0  0  0  0  0  0  0  0  0  0  0  0
  2  1  1  1
  2  3  1  0
  2  7  1  0
  4  5  1  0
  4  3  1  0
  5  6  2  0
  7  8  2  0
  9  5  1  0
 11 10  1  1
 11 12  1  0
 13 11  1  0
 14 13  1  6
 15 14  1  0
 15  7  1  0
 16 14  1  0
 16 17  2  0
 19 21  1  0
 19 18  1  6
 20 19  1  0
 22 21  1  6
 22 23  1  0
 22 24  1  0
 23 16  1  0
 24 25  2  0
 24 26  1  0
M  END
$$$$
