ELL.pdb
     RDKit          3D

 26 25  0  0  1  0  0  0  0  0999 V2000
   23.0950  -20.5908  -18.2258 N   0  0  0  0  0  0  0  0  0  0  0  0
   23.1466  -19.7680  -17.0340 C   0  0  1  0  0  0  0  0  0  0  0  0
   22.0711  -20.2813  -16.1094 C   0  0  0  0  0  0  0  0  0  0  0  0
   20.7270  -19.8729  -16.7132 C   0  0  0  0  0  0  0  0  0  0  0  0
   19.6763  -20.2205  -15.7508 C   0  0  0  0  0  0  0  0  0  0  0  0
   19.1659  -19.3595  -15.0075 O   0  0  0  0  0  0  0  0  0  0  0  0
   24.4692  -19.9398  -16.3726 C   0  0  0  0  0  0  0  0  0  0  0  0
   25.1052  -21.0079  -16.5625 O   0  0  0  0  0  0  0  0  0  0  0  0
   19.2452  -21.5364  -15.6709 O   0  0  0  0  0  0  0  0  0  0  0  0
   27.5013  -15.5683  -14.6717 C   0  0  0  0  0  0  0  0  0  0  0  0
   27.0370  -16.8419  -15.4462 C   0  0  1  0  0  0  0  0  0  0  0  0
   28.1854  -17.1408  -16.3915 C   0  0  0  0  0  0  0  0  0  0  0  0
   26.8262  -17.9157  -14.4649 C   0  0  0  0  0  0  0  0  0  0  0  0
   26.3316  -19.2605  -14.8798 C   0  0  2  0  0  0  0  0  0  0  0  0
   25.0388  -18.9565  -15.5456 N   0  0  0  0  0  0  0  0  0  0  0  0
   26.1255  -20.2726  -13.8373 C   0  0  0  0  0  0  0  0  0  0  0  0
   26.9638  -21.1209  -13.4773 O   0  0  0  0  0  0  0  0  0  0  0  0
   25.7067  -21.0375   -8.5292 C   0  0  0  0  0  0  0  0  0  0  0  0
   25.2609  -20.2989   -9.8118 C   0  0  1  0  0  0  0  0  0  0  0  0
   25.9704  -18.9676   -9.7650 C   0  0  0  0  0  0  0  0  0  0  0  0
   25.6130  -21.1787  -10.9337 C   0  0  0  0  0  0  0  0  0  0  0  0
   24.6623  -21.3071  -12.0823 C   0  0  2  0  0  0  0  0  0  0  0  0
   24.8802  -20.3654  -13.1185 N   0  0  0  0  0  0  0  0  0  0  0  0
   23.2651  -21.4830  -11.6848 C   0  0  0  0  0  0  0  0  0  0  0  0
   22.9675  -22.2698  -10.7788 O   0  0  0  0  0  0  0  0  0  0  0  0
   22.2664  -20.7859  -12.3028 O   0  0  0  0  0  0  0  0  0  0  0  0
  2  1  1  6
  2  3  1  0
  2  7  1  0
  4  5  1  0
  4  3  1  0
  5  6  2  0
  7  8  2  0
  9  5  1  0
 11 10  1  1
 11 12  1  0
 13 11  1  0
 14 13  1  1
 15 14  1  0
 15  7  1  0
 16 14  1  0
 16 17  2  0
 19 21  1  0
 19 18  1  1
 20 19  1  0
 22 21  1  1
 22 23  1  0
 22 24  1  0
 23 16  1  0
 24 25  2  0
 24 26  1  0
M  END
$$$$
