ELL.pdb
     RDKit          3D

 26 25  0  0  1  0  0  0  0  0999 V2000
   24.4358  -19.5574  -16.5648 N   0  0  0  0  0  0  0  0  0  0  0  0
   24.4677  -19.3049  -15.1382 C   0  0  1  0  0  0  0  0  0  0  0  0
   23.0458  -19.4210  -14.6484 C   0  0  0  0  0  0  0  0  0  0  0  0
   22.2779  -18.2242  -15.2103 C   0  0  0  0  0  0  0  0  0  0  0  0
   20.9154  -18.2685  -14.6692 C   0  0  0  0  0  0  0  0  0  0  0  0
   20.0830  -17.3782  -14.9319 O   0  0  0  0  0  0  0  0  0  0  0  0
   25.2914  -20.3497  -14.4703 C   0  0  0  0  0  0  0  0  0  0  0  0
   25.0869  -21.5564  -14.7597 O   0  0  0  0  0  0  0  0  0  0  0  0
   20.5511  -19.3257  -13.8487 O   0  0  0  0  0  0  0  0  0  0  0  0
   30.6053  -20.0743  -13.6313 C   0  0  0  0  0  0  0  0  0  0  0  0
   29.1616  -20.5121  -14.0331 C   0  0  1  0  0  0  0  0  0  0  0  0
   29.3676  -21.7914  -14.8221 C   0  0  0  0  0  0  0  0  0  0  0  0
   28.3963  -20.7337  -12.7979 C   0  0  0  0  0  0  0  0  0  0  0  0
   26.9698  -21.1680  -12.8357 C   0  0  2  0  0  0  0  0  0  0  0  0
   26.2907  -20.0441  -13.5306 N   0  0  0  0  0  0  0  0  0  0  0  0
   26.2965  -21.4405  -11.5605 C   0  0  0  0  0  0  0  0  0  0  0  0
   26.3846  -22.4980  -10.9079 O   0  0  0  0  0  0  0  0  0  0  0  0
   26.8988  -18.8087   -7.2867 C   0  0  0  0  0  0  0  0  0  0  0  0
   26.6342  -20.0137   -8.2180 C   0  0  1  0  0  0  0  0  0  0  0  0
   27.0861  -21.2220   -7.4347 C   0  0  0  0  0  0  0  0  0  0  0  0
   25.2064  -19.9620   -8.5579 C   0  0  0  0  0  0  0  0  0  0  0  0
   24.7158  -20.7205   -9.7510 C   0  0  2  0  0  0  0  0  0  0  0  0
   25.4436  -20.4597  -10.9386 N   0  0  0  0  0  0  0  0  0  0  0  0
   23.2603  -20.7224   -9.9009 C   0  0  0  0  0  0  0  0  0  0  0  0
   22.7446  -20.4703  -10.9958 O   0  0  0  0  0  0  0  0  0  0  0  0
   22.4459  -21.0011   -8.8406 O   0  0  0  0  0  0  0  0  0  0  0  0
  2  1  1  6
  2  3  1  0
  2  7  1  0
  4  5  1  0
  4  3  1  0
  5  6  2  0
  7  8  2  0
  9  5  1  0
 11 10  1  1
 11 12  1  0
 13 11  1  0
 14 13  1  1
 15 14  1  0
 15  7  1  0
 16 14  1  0
 16 17  2  0
 19 21  1  0
 19 18  1  1
 20 19  1  0
 22 21  1  1
 22 23  1  0
 22 24  1  0
 23 16  1  0
 24 25  2  0
 24 26  1  0
M  END
$$$$
