ELL.pdb
     RDKit          3D

 26 25  0  0  1  0  0  0  0  0999 V2000
   20.6133  -11.9094  -18.7876 N   0  0  0  0  0  0  0  0  0  0  0  0
   19.9980  -11.2363  -17.6613 C   0  0  1  0  0  0  0  0  0  0  0  0
   18.9857  -12.1956  -17.0870 C   0  0  0  0  0  0  0  0  0  0  0  0
   17.9506  -12.4640  -18.1798 C   0  0  0  0  0  0  0  0  0  0  0  0
   16.6347  -12.5635  -17.5397 C   0  0  0  0  0  0  0  0  0  0  0  0
   16.1112  -13.6693  -17.2997 O   0  0  0  0  0  0  0  0  0  0  0  0
   21.0328  -10.9565  -16.6283 C   0  0  0  0  0  0  0  0  0  0  0  0
   20.7176  -11.0566  -15.4150 O   0  0  0  0  0  0  0  0  0  0  0  0
   15.9635  -11.3993  -17.1963 O   0  0  0  0  0  0  0  0  0  0  0  0
   26.2111  -11.3445  -14.8633 C   0  0  0  0  0  0  0  0  0  0  0  0
   25.8369  -10.0698  -15.6833 C   0  0  1  0  0  0  0  0  0  0  0  0
   27.0391   -9.8386  -16.5794 C   0  0  0  0  0  0  0  0  0  0  0  0
   24.6176  -10.3665  -16.4486 C   0  0  0  0  0  0  0  0  0  0  0  0
   23.2630  -10.1990  -15.8466 C   0  0  2  0  0  0  0  0  0  0  0  0
   22.3496  -10.5870  -16.9522 N   0  0  0  0  0  0  0  0  0  0  0  0
   22.8914   -8.8727  -15.3400 C   0  0  0  0  0  0  0  0  0  0  0  0
   23.1047   -8.4537  -14.1863 O   0  0  0  0  0  0  0  0  0  0  0  0
   23.3724   -3.6077  -15.5610 C   0  0  0  0  0  0  0  0  0  0  0  0
   22.1295   -4.1194  -16.3243 C   0  0  1  0  0  0  0  0  0  0  0  0
   21.9707   -3.1771  -17.4926 C   0  0  0  0  0  0  0  0  0  0  0  0
   22.4045   -5.5224  -16.6597 C   0  0  0  0  0  0  0  0  0  0  0  0
   21.9140   -6.5981  -15.7422 C   0  0  2  0  0  0  0  0  0  0  0  0
   22.2210   -7.9112  -16.1778 N   0  0  0  0  0  0  0  0  0  0  0  0
   20.5420   -6.4032  -15.2723 C   0  0  0  0  0  0  0  0  0  0  0  0
   19.5905   -6.8620  -15.9146 O   0  0  0  0  0  0  0  0  0  0  0  0
   20.2854   -5.7143  -14.1214 O   0  0  0  0  0  0  0  0  0  0  0  0
  2  1  1  6
  2  3  1  0
  2  7  1  0
  4  5  1  0
  4  3  1  0
  5  6  2  0
  7  8  2  0
  9  5  1  0
 11 10  1  1
 11 12  1  0
 13 11  1  0
 14 13  1  6
 15 14  1  0
 15  7  1  0
 16 14  1  0
 16 17  2  0
 19 21  1  0
 19 18  1  1
 20 19  1  0
 22 21  1  6
 22 23  1  0
 22 24  1  0
 23 16  1  0
 24 25  2  0
 24 26  1  0
M  END
$$$$
