ELL.pdb
     RDKit          3D

 26 25  0  0  1  0  0  0  0  0999 V2000
   31.0034  -39.2695   -7.0350 N   0  0  0  0  0  0  0  0  0  0  0  0
   30.1567  -38.4734   -6.1692 C   0  0  1  0  0  0  0  0  0  0  0  0
   29.3720  -39.4444   -5.3229 C   0  0  0  0  0  0  0  0  0  0  0  0
   30.1637  -40.7520   -5.2882 C   0  0  0  0  0  0  0  0  0  0  0  0
   29.4615  -41.6807   -4.3963 C   0  0  0  0  0  0  0  0  0  0  0  0
   28.3822  -41.3703   -3.8550 O   0  0  0  0  0  0  0  0  0  0  0  0
   31.0081  -37.6396   -5.2771 C   0  0  0  0  0  0  0  0  0  0  0  0
   32.1434  -38.0706   -4.9500 O   0  0  0  0  0  0  0  0  0  0  0  0
   30.0147  -42.9294   -4.1542 O   0  0  0  0  0  0  0  0  0  0  0  0
   31.9919  -32.7862   -6.6365 C   0  0  0  0  0  0  0  0  0  0  0  0
   32.2842  -34.2057   -6.0559 C   0  0  1  0  0  0  0  0  0  0  0  0
   33.7971  -34.2624   -5.9579 C   0  0  0  0  0  0  0  0  0  0  0  0
   31.6347  -34.2985   -4.7406 C   0  0  0  0  0  0  0  0  0  0  0  0
   31.5694  -35.5895   -3.9962 C   0  0  2  0  0  0  0  0  0  0  0  0
   30.5974  -36.3884   -4.7861 N   0  0  0  0  0  0  0  0  0  0  0  0
   31.1542  -35.5553   -2.5890 C   0  0  0  0  0  0  0  0  0  0  0  0
   29.9767  -35.5636   -2.1823 O   0  0  0  0  0  0  0  0  0  0  0  0
   28.9564  -38.3037    0.1963 C   0  0  0  0  0  0  0  0  0  0  0  0
   29.4977  -36.8600    0.0861 C   0  0  1  0  0  0  0  0  0  0  0  0
   28.9181  -36.1315    1.2740 C   0  0  0  0  0  0  0  0  0  0  0  0
   30.9614  -36.9739    0.0502 C   0  0  0  0  0  0  0  0  0  0  0  0
   31.7808  -35.7407   -0.1674 C   0  0  2  0  0  0  0  0  0  0  0  0
   32.1222  -35.5075   -1.5229 N   0  0  0  0  0  0  0  0  0  0  0  0
   32.8769  -35.5751    0.7877 C   0  0  0  0  0  0  0  0  0  0  0  0
   32.6391  -35.3138    1.9724 O   0  0  0  0  0  0  0  0  0  0  0  0
   34.1778  -35.7049    0.3928 O   0  0  0  0  0  0  0  0  0  0  0  0
  2  1  1  6
  2  3  1  0
  2  7  1  0
  4  5  1  0
  4  3  1  0
  5  6  2  0
  7  8  2  0
  9  5  1  0
 11 10  1  1
 11 12  1  0
 13 11  1  0
 14 13  1  6
 15 14  1  0
 15  7  1  0
 16 14  1  0
 16 17  2  0
 19 21  1  0
 19 18  1  1
 20 19  1  0
 22 21  1  6
 22 23  1  0
 22 24  1  0
 23 16  1  0
 24 25  2  0
 24 26  1  0
M  END
$$$$
