ELL.pdb
     RDKit          3D

 26 25  0  0  1  0  0  0  0  0999 V2000
   23.7311  -19.5645  -15.9729 N   0  0  0  0  0  0  0  0  0  0  0  0
   23.4605  -19.7255  -14.5583 C   0  0  1  0  0  0  0  0  0  0  0  0
   22.1152  -20.3991  -14.4511 C   0  0  0  0  0  0  0  0  0  0  0  0
   21.1098  -19.5151  -15.1897 C   0  0  0  0  0  0  0  0  0  0  0  0
   20.9292  -18.2876  -14.4076 C   0  0  0  0  0  0  0  0  0  0  0  0
   20.8460  -18.3162  -13.1639 O   0  0  0  0  0  0  0  0  0  0  0  0
   24.4913  -20.6153  -13.9568 C   0  0  0  0  0  0  0  0  0  0  0  0
   24.3596  -21.8601  -14.0780 O   0  0  0  0  0  0  0  0  0  0  0  0
   20.8501  -17.0722  -15.0712 O   0  0  0  0  0  0  0  0  0  0  0  0
   29.7217  -19.3744  -14.1536 C   0  0  0  0  0  0  0  0  0  0  0  0
   28.3707  -20.1461  -14.2814 C   0  0  1  0  0  0  0  0  0  0  0  0
   28.7298  -21.3969  -15.0612 C   0  0  0  0  0  0  0  0  0  0  0  0
   27.8940  -20.4504  -12.9246 C   0  0  0  0  0  0  0  0  0  0  0  0
   26.5716  -21.1010  -12.6939 C   0  0  2  0  0  0  0  0  0  0  0  0
   25.6080  -20.1223  -13.2604 N   0  0  0  0  0  0  0  0  0  0  0  0
   26.1931  -21.4262  -11.3138 C   0  0  0  0  0  0  0  0  0  0  0  0
   26.1961  -22.5669  -10.8131 O   0  0  0  0  0  0  0  0  0  0  0  0
   27.5897  -18.8626   -6.6877 C   0  0  0  0  0  0  0  0  0  0  0  0
   27.2870  -19.9338   -7.7601 C   0  0  1  0  0  0  0  0  0  0  0  0
   27.8001  -21.2283   -7.1780 C   0  0  0  0  0  0  0  0  0  0  0  0
   25.8412  -19.8664   -8.0087 C   0  0  0  0  0  0  0  0  0  0  0  0
   25.2531  -20.6975   -9.1056 C   0  0  2  0  0  0  0  0  0  0  0  0
   25.7700  -20.4031  -10.3918 N   0  0  0  0  0  0  0  0  0  0  0  0
   23.7981  -20.8356   -9.0363 C   0  0  0  0  0  0  0  0  0  0  0  0
   23.0953  -20.5387  -10.0090 O   0  0  0  0  0  0  0  0  0  0  0  0
   23.1896  -21.2924   -7.9022 O   0  0  0  0  0  0  0  0  0  0  0  0
  2  1  1  6
  2  3  1  0
  2  7  1  0
  4  5  1  0
  4  3  1  0
  5  6  2  0
  7  8  2  0
  9  5  1  0
 11 10  1  1
 11 12  1  0
 13 11  1  0
 14 13  1  1
 15 14  1  0
 15  7  1  0
 16 14  1  0
 16 17  2  0
 19 21  1  0
 19 18  1  1
 20 19  1  0
 22 21  1  1
 22 23  1  0
 22 24  1  0
 23 16  1  0
 24 25  2  0
 24 26  1  0
M  END
$$$$
