ELL.pdb
     RDKit          3D

 26 25  0  0  1  0  0  0  0  0999 V2000
   24.5439  -18.9253  -12.7667 N   0  0  0  0  0  0  0  0  0  0  0  0
   24.5020  -20.2846  -13.2673 C   0  0  1  0  0  0  0  0  0  0  0  0
   24.2793  -20.1886  -14.7560 C   0  0  0  0  0  0  0  0  0  0  0  0
   23.4753  -18.9128  -15.0088 C   0  0  0  0  0  0  0  0  0  0  0  0
   23.1392  -18.8670  -16.4356 C   0  0  0  0  0  0  0  0  0  0  0  0
   22.4447  -19.7550  -16.9681 O   0  0  0  0  0  0  0  0  0  0  0  0
   25.8146  -20.9421  -13.0206 C   0  0  0  0  0  0  0  0  0  0  0  0
   26.0498  -22.0472  -13.5729 O   0  0  0  0  0  0  0  0  0  0  0  0
   23.6065  -17.8109  -17.2037 O   0  0  0  0  0  0  0  0  0  0  0  0
   30.6651  -22.4572  -11.7439 C   0  0  0  0  0  0  0  0  0  0  0  0
   30.1969  -21.2522  -10.8687 C   0  0  1  0  0  0  0  0  0  0  0  0
   31.3882  -20.3128  -10.8626 C   0  0  0  0  0  0  0  0  0  0  0  0
   29.0181  -20.6563  -11.5136 C   0  0  0  0  0  0  0  0  0  0  0  0
   27.6733  -21.2942  -11.4144 C   0  0  2  0  0  0  0  0  0  0  0  0
   26.8042  -20.3783  -12.1972 N   0  0  0  0  0  0  0  0  0  0  0  0
   27.1018  -21.4972  -10.0780 C   0  0  0  0  0  0  0  0  0  0  0  0
   27.1721  -22.5487   -9.4137 O   0  0  0  0  0  0  0  0  0  0  0  0
   28.8257  -19.5463   -6.6695 C   0  0  0  0  0  0  0  0  0  0  0  0
   27.4801  -20.1142   -6.1632 C   0  0  1  0  0  0  0  0  0  0  0  0
   27.3590  -19.6270   -4.7399 C   0  0  0  0  0  0  0  0  0  0  0  0
   26.4555  -19.6339   -7.0992 C   0  0  0  0  0  0  0  0  0  0  0  0
   25.8704  -20.5911   -8.0896 C   0  0  2  0  0  0  0  0  0  0  0  0
   26.3833  -20.4466   -9.4027 N   0  0  0  0  0  0  0  0  0  0  0  0
   24.4163  -20.7283   -8.0011 C   0  0  0  0  0  0  0  0  0  0  0  0
   23.8692  -20.8846   -6.9035 O   0  0  0  0  0  0  0  0  0  0  0  0
   23.6377  -20.6870   -9.1223 O   0  0  0  0  0  0  0  0  0  0  0  0
  2  1  1  6
  2  3  1  0
  2  7  1  0
  4  5  1  0
  4  3  1  0
  5  6  2  0
  7  8  2  0
  9  5  1  0
 11 10  1  6
 11 12  1  0
 13 11  1  0
 14 13  1  1
 15 14  1  0
 15  7  1  0
 16 14  1  0
 16 17  2  0
 19 21  1  0
 19 18  1  6
 20 19  1  0
 22 21  1  1
 22 23  1  0
 22 24  1  0
 23 16  1  0
 24 25  2  0
 24 26  1  0
M  END
$$$$
