ETI.pdb
     RDKit          3D

 25 24  0  0  1  0  0  0  0  0999 V2000
   10.4794  -13.6432   18.5748 N   0  0  0  0  0  0  0  0  0  0  0  0
    9.0977  -13.2873   18.5452 C   0  0  1  0  0  0  0  0  0  0  0  0
    8.5599  -13.7233   17.2064 C   0  0  0  0  0  0  0  0  0  0  0  0
    8.7793  -15.1672   16.8955 C   0  0  0  0  0  0  0  0  0  0  0  0
    8.1954  -15.4977   15.5833 C   0  0  0  0  0  0  0  0  0  0  0  0
    8.1335  -16.7291   15.2455 O   0  0  0  0  0  0  0  0  0  0  0  0
    8.2791  -13.9438   19.5873 C   0  0  0  0  0  0  0  0  0  0  0  0
    7.0475  -13.6892   19.6019 O   0  0  0  0  0  0  0  0  0  0  0  0
    7.7130  -14.5411   14.7079 O   0  0  0  0  0  0  0  0  0  0  0  0
    7.3406  -17.5191   20.4335 C   0  0  0  0  0  0  0  0  0  0  0  0
    8.0959  -16.9232   21.6053 C   0  0  1  0  0  0  0  0  0  0  0  0
    9.4410  -17.3462   21.5628 O   0  0  0  0  0  0  0  0  0  0  0  0
    8.0123  -15.4131   21.6163 C   0  0  2  0  0  0  0  0  0  0  0  0
    8.8099  -14.8320   20.5545 N   0  0  0  0  0  0  0  0  0  0  0  0
    8.5241  -14.9542   22.9554 C   0  0  0  0  0  0  0  0  0  0  0  0
    9.7421  -14.6813   22.9943 O   0  0  0  0  0  0  0  0  0  0  0  0
    6.8432  -11.3825   27.4339 C   0  0  0  0  0  0  0  0  0  0  0  0
    7.7272  -12.5681   27.0429 C   0  0  0  0  0  0  0  0  0  0  0  0
    7.1985  -13.2323   25.8059 C   0  0  2  0  0  0  0  0  0  0  0  0
    5.7572  -13.6508   25.9982 C   0  0  0  0  0  0  0  0  0  0  0  0
    8.0982  -14.3038   25.3244 C   0  0  2  0  0  0  0  0  0  0  0  0
    7.6878  -14.8442   24.0705 N   0  0  0  0  0  0  0  0  0  0  0  0
    8.5138  -15.3162   26.3156 C   0  0  0  0  0  0  0  0  0  0  0  0
    9.3434  -15.0093   27.4108 O   0  0  0  0  0  0  0  0  0  0  0  0
    8.1666  -16.5319   26.2770 O   0  0  0  0  0  0  0  0  0  0  0  0
  2  1  1  1
  2  7  1  0
  3  2  1  0
  4  3  1  0
  5  4  1  0
  5  6  2  0
  7  8  2  0
  9  5  1  0
 11 10  1  6
 12 11  1  0
 13 11  1  0
 14  7  1  0
 13 14  1  6
 15 13  1  0
 15 22  1  0
 16 15  2  0
 18 19  1  0
 18 17  1  0
 19 20  1  1
 21 23  1  0
 21 22  1  6
 21 19  1  0
 23 24  1  0
 25 23  2  0
M  END
$$$$
