ETI.pdb
     RDKit          3D

 25 24  0  0  1  0  0  0  0  0999 V2000
   11.4548  -17.2404   18.5873 N   0  0  0  0  0  0  0  0  0  0  0  0
   11.0521  -17.4772   19.9358 C   0  0  1  0  0  0  0  0  0  0  0  0
   12.3105  -17.5819   20.7588 C   0  0  0  0  0  0  0  0  0  0  0  0
   13.1595  -18.7674   20.4369 C   0  0  0  0  0  0  0  0  0  0  0  0
   14.3408  -18.7991   21.3175 C   0  0  0  0  0  0  0  0  0  0  0  0
   15.3478  -18.0787   20.9992 O   0  0  0  0  0  0  0  0  0  0  0  0
   10.2274  -16.3983   20.5216 C   0  0  0  0  0  0  0  0  0  0  0  0
   10.3433  -15.2476   20.0272 O   0  0  0  0  0  0  0  0  0  0  0  0
   14.4069  -19.5671   22.4664 O   0  0  0  0  0  0  0  0  0  0  0  0
    6.6449  -15.5592   20.5553 C   0  0  0  0  0  0  0  0  0  0  0  0
    7.0657  -15.7551   21.9987 C   0  0  1  0  0  0  0  0  0  0  0  0
    6.7054  -17.0515   22.4225 O   0  0  0  0  0  0  0  0  0  0  0  0
    8.5491  -15.5264   22.1858 C   0  0  2  0  0  0  0  0  0  0  0  0
    9.3274  -16.5981   21.5968 N   0  0  0  0  0  0  0  0  0  0  0  0
    8.8003  -15.4618   23.6685 C   0  0  0  0  0  0  0  0  0  0  0  0
    9.5990  -16.3141   24.1104 O   0  0  0  0  0  0  0  0  0  0  0  0
    6.2353  -11.2814   26.0374 C   0  0  0  0  0  0  0  0  0  0  0  0
    7.3588  -12.1792   25.5163 C   0  0  0  0  0  0  0  0  0  0  0  0
    7.6517  -13.2768   26.4963 C   0  0  2  0  0  0  0  0  0  0  0  0
    8.2447  -12.7129   27.7691 C   0  0  0  0  0  0  0  0  0  0  0  0
    8.4291  -14.3756   25.8819 C   0  0  2  0  0  0  0  0  0  0  0  0
    8.1793  -14.5116   24.4848 N   0  0  0  0  0  0  0  0  0  0  0  0
    8.4675  -15.6542   26.6195 C   0  0  0  0  0  0  0  0  0  0  0  0
    7.5530  -16.6969   26.3775 O   0  0  0  0  0  0  0  0  0  0  0  0
    9.3129  -15.9298   27.5189 O   0  0  0  0  0  0  0  0  0  0  0  0
  2  1  1  6
  2  7  1  0
  3  2  1  0
  4  3  1  0
  5  4  1  0
  5  6  2  0
  7  8  2  0
  9  5  1  0
 11 10  1  6
 12 11  1  0
 13 11  1  0
 14  7  1  0
 13 14  1  1
 15 13  1  0
 15 22  1  0
 16 15  2  0
 18 19  1  0
 18 17  1  0
 19 20  1  1
 21 23  1  0
 21 22  1  6
 21 19  1  0
 23 24  1  0
 25 23  2  0
M  END
$$$$
