ETI.pdb
     RDKit          3D

 25 24  0  0  1  0  0  0  0  0999 V2000
   11.6529  -16.6955   18.6580 N   0  0  0  0  0  0  0  0  0  0  0  0
   11.1850  -17.6023   19.6558 C   0  0  1  0  0  0  0  0  0  0  0  0
   12.3909  -18.3370   20.1827 C   0  0  0  0  0  0  0  0  0  0  0  0
   13.3915  -17.4659   20.8680 C   0  0  0  0  0  0  0  0  0  0  0  0
   14.5164  -18.2788   21.3636 C   0  0  0  0  0  0  0  0  0  0  0  0
   14.4977  -18.6493   22.5869 O   0  0  0  0  0  0  0  0  0  0  0  0
   10.5246  -16.9502   20.8072 C   0  0  0  0  0  0  0  0  0  0  0  0
   10.8050  -15.7443   21.0287 O   0  0  0  0  0  0  0  0  0  0  0  0
   15.5835  -18.6576   20.5685 O   0  0  0  0  0  0  0  0  0  0  0  0
    6.6539  -16.9395   23.9427 C   0  0  0  0  0  0  0  0  0  0  0  0
    7.4942  -17.6431   22.8950 C   0  0  1  0  0  0  0  0  0  0  0  0
    6.7515  -17.7689   21.7023 O   0  0  0  0  0  0  0  0  0  0  0  0
    8.7949  -16.9151   22.6385 C   0  0  2  0  0  0  0  0  0  0  0  0
    9.6055  -17.6108   21.6587 N   0  0  0  0  0  0  0  0  0  0  0  0
    9.5246  -16.8424   23.9529 C   0  0  0  0  0  0  0  0  0  0  0  0
   10.4282  -17.6905   24.1074 O   0  0  0  0  0  0  0  0  0  0  0  0
    9.9167  -13.1417   28.9300 C   0  0  0  0  0  0  0  0  0  0  0  0
   10.3293  -14.4077   28.1770 C   0  0  0  0  0  0  0  0  0  0  0  0
    9.5572  -14.5327   26.8967 C   0  0  2  0  0  0  0  0  0  0  0  0
    8.0881  -14.2554   27.1291 C   0  0  0  0  0  0  0  0  0  0  0  0
    9.8469  -15.8037   26.1966 C   0  0  2  0  0  0  0  0  0  0  0  0
    9.2066  -15.8897   24.9256 N   0  0  0  0  0  0  0  0  0  0  0  0
    9.7660  -17.0383   27.0024 C   0  0  0  0  0  0  0  0  0  0  0  0
   10.8310  -17.4920   27.8036 O   0  0  0  0  0  0  0  0  0  0  0  0
    8.7491  -17.7889   27.0512 O   0  0  0  0  0  0  0  0  0  0  0  0
  2  1  1  6
  2  7  1  0
  3  2  1  0
  4  3  1  0
  5  4  1  0
  5  6  2  0
  7  8  2  0
  9  5  1  0
 11 10  1  1
 12 11  1  0
 13 11  1  0
 14  7  1  0
 13 14  1  6
 15 13  1  0
 15 22  1  0
 16 15  2  0
 18 19  1  0
 18 17  1  0
 19 20  1  1
 21 23  1  0
 21 22  1  6
 21 19  1  0
 23 24  1  0
 25 23  2  0
M  END
$$$$
