ETI.pdb
     RDKit          3D

 25 24  0  0  1  0  0  0  0  0999 V2000
   12.6375  -16.8532   19.4570 N   0  0  0  0  0  0  0  0  0  0  0  0
   12.2255  -16.9473   20.8202 C   0  0  1  0  0  0  0  0  0  0  0  0
   13.3831  -16.4768   21.6630 C   0  0  0  0  0  0  0  0  0  0  0  0
   14.4718  -17.4849   21.8311 C   0  0  0  0  0  0  0  0  0  0  0  0
   15.5368  -16.9420   22.6930 C   0  0  0  0  0  0  0  0  0  0  0  0
   15.4386  -15.7267   23.0772 O   0  0  0  0  0  0  0  0  0  0  0  0
   11.0578  -16.1061   21.1610 C   0  0  0  0  0  0  0  0  0  0  0  0
   10.9355  -15.0117   20.5533 O   0  0  0  0  0  0  0  0  0  0  0  0
   16.6295  -17.6848   23.1035 O   0  0  0  0  0  0  0  0  0  0  0  0
    7.5377  -16.2254   20.4526 C   0  0  0  0  0  0  0  0  0  0  0  0
    7.6531  -16.2700   21.9637 C   0  0  1  0  0  0  0  0  0  0  0  0
    7.5569  -17.6067   22.4042 O   0  0  0  0  0  0  0  0  0  0  0  0
    8.9414  -15.6414   22.4461 C   0  0  2  0  0  0  0  0  0  0  0  0
   10.0863  -16.4704   22.1252 N   0  0  0  0  0  0  0  0  0  0  0  0
    8.8217  -15.4833   23.9382 C   0  0  0  0  0  0  0  0  0  0  0  0
    9.5833  -16.2076   24.6127 O   0  0  0  0  0  0  0  0  0  0  0  0
    6.6627  -10.7954   26.0053 C   0  0  0  0  0  0  0  0  0  0  0  0
    7.5955  -11.9928   25.8158 C   0  0  0  0  0  0  0  0  0  0  0  0
    6.9305  -13.2555   26.2790 C   0  0  2  0  0  0  0  0  0  0  0  0
    6.5488  -13.1538   27.7396 C   0  0  0  0  0  0  0  0  0  0  0  0
    7.7159  -14.4581   25.9238 C   0  0  2  0  0  0  0  0  0  0  0  0
    7.9193  -14.5868   24.5186 N   0  0  0  0  0  0  0  0  0  0  0  0
    7.3456  -15.7164   26.6018 C   0  0  0  0  0  0  0  0  0  0  0  0
    6.3431  -16.5750   26.1121 O   0  0  0  0  0  0  0  0  0  0  0  0
    7.8873  -16.1360   27.6650 O   0  0  0  0  0  0  0  0  0  0  0  0
  2  1  1  6
  2  7  1  0
  3  2  1  0
  4  3  1  0
  5  4  1  0
  5  6  2  0
  7  8  2  0
  9  5  1  0
 11 10  1  6
 12 11  1  0
 13 11  1  0
 14  7  1  0
 13 14  1  1
 15 13  1  0
 15 22  1  0
 16 15  2  0
 18 19  1  0
 18 17  1  0
 19 20  1  1
 21 23  1  0
 21 22  1  6
 21 19  1  0
 23 24  1  0
 25 23  2  0
M  END
$$$$
