ETI.pdb
     RDKit          3D

 25 24  0  0  1  0  0  0  0  0999 V2000
   10.4396  -17.3357   19.1354 N   0  0  0  0  0  0  0  0  0  0  0  0
   10.4053  -17.9913   20.4025 C   0  0  1  0  0  0  0  0  0  0  0  0
   11.8030  -17.9367   20.9640 C   0  0  0  0  0  0  0  0  0  0  0  0
   12.2618  -16.5666   21.3410 C   0  0  0  0  0  0  0  0  0  0  0  0
   13.6626  -16.6085   21.7968 C   0  0  0  0  0  0  0  0  0  0  0  0
   13.9231  -16.1969   22.9788 O   0  0  0  0  0  0  0  0  0  0  0  0
    9.5054  -17.3572   21.3901 C   0  0  0  0  0  0  0  0  0  0  0  0
    8.9880  -16.2543   21.0775 O   0  0  0  0  0  0  0  0  0  0  0  0
   14.7007  -17.0721   21.0084 O   0  0  0  0  0  0  0  0  0  0  0  0
    6.2262  -18.1249   24.9899 C   0  0  0  0  0  0  0  0  0  0  0  0
    7.3131  -18.6049   24.0482 C   0  0  1  0  0  0  0  0  0  0  0  0
    6.7335  -19.3539   23.0027 O   0  0  0  0  0  0  0  0  0  0  0  0
    8.1227  -17.4540   23.4938 C   0  0  2  0  0  0  0  0  0  0  0  0
    9.2042  -17.9259   22.6518 N   0  0  0  0  0  0  0  0  0  0  0  0
    8.6783  -16.6997   24.6719 C   0  0  0  0  0  0  0  0  0  0  0  0
    9.8447  -17.0052   24.9971 O   0  0  0  0  0  0  0  0  0  0  0  0
    5.8567  -12.1967   26.1126 C   0  0  0  0  0  0  0  0  0  0  0  0
    6.8933  -13.2326   25.6740 C   0  0  0  0  0  0  0  0  0  0  0  0
    7.5114  -13.8961   26.8693 C   0  0  2  0  0  0  0  0  0  0  0  0
    8.1332  -12.8682   27.7892 C   0  0  0  0  0  0  0  0  0  0  0  0
    8.4077  -15.0086   26.4840 C   0  0  2  0  0  0  0  0  0  0  0  0
    7.9342  -15.7278   25.3476 N   0  0  0  0  0  0  0  0  0  0  0  0
    8.9117  -15.8635   27.5773 C   0  0  0  0  0  0  0  0  0  0  0  0
   10.0797  -15.5584   28.3015 O   0  0  0  0  0  0  0  0  0  0  0  0
    8.3493  -16.9291   27.9620 O   0  0  0  0  0  0  0  0  0  0  0  0
  2  1  1  6
  2  7  1  0
  3  2  1  0
  4  3  1  0
  5  4  1  0
  5  6  2  0
  7  8  2  0
  9  5  1  0
 11 10  1  1
 12 11  1  0
 13 11  1  0
 14  7  1  0
 13 14  1  6
 15 13  1  0
 15 22  1  0
 16 15  2  0
 18 19  1  0
 18 17  1  0
 19 20  1  6
 21 23  1  0
 21 22  1  6
 21 19  1  0
 23 24  1  0
 25 23  2  0
M  END
$$$$
