ETI.pdb
     RDKit          3D

 25 24  0  0  1  0  0  0  0  0999 V2000
   11.9460  -17.3638   18.8622 N   0  0  0  0  0  0  0  0  0  0  0  0
   11.4627  -17.5898   20.1858 C   0  0  1  0  0  0  0  0  0  0  0  0
   12.6497  -17.4946   21.1097 C   0  0  0  0  0  0  0  0  0  0  0  0
   13.4718  -18.7388   21.1858 C   0  0  0  0  0  0  0  0  0  0  0  0
   14.6227  -18.5320   22.0828 C   0  0  0  0  0  0  0  0  0  0  0  0
   15.3803  -19.5317   22.3294 O   0  0  0  0  0  0  0  0  0  0  0  0
   10.4631  -16.6009   20.6443 C   0  0  0  0  0  0  0  0  0  0  0  0
   10.5706  -15.4252   20.2105 O   0  0  0  0  0  0  0  0  0  0  0  0
   14.9185  -17.3119   22.6642 O   0  0  0  0  0  0  0  0  0  0  0  0
    6.0296  -15.2905   22.1163 C   0  0  0  0  0  0  0  0  0  0  0  0
    7.0314  -16.3502   21.7013 C   0  0  1  0  0  0  0  0  0  0  0  0
    6.8781  -16.6308   20.3273 O   0  0  0  0  0  0  0  0  0  0  0  0
    8.4518  -15.9274   22.0035 C   0  0  2  0  0  0  0  0  0  0  0  0
    9.4071  -16.9120   21.5355 N   0  0  0  0  0  0  0  0  0  0  0  0
    8.5571  -15.7767   23.4974 C   0  0  0  0  0  0  0  0  0  0  0  0
    9.1886  -16.6828   24.0803 O   0  0  0  0  0  0  0  0  0  0  0  0
    5.5355  -11.9698   26.8917 C   0  0  0  0  0  0  0  0  0  0  0  0
    6.0204  -13.2337   26.1793 C   0  0  0  0  0  0  0  0  0  0  0  0
    7.5125  -13.2099   26.0243 C   0  0  2  0  0  0  0  0  0  0  0  0
    7.9430  -12.0344   25.1745 C   0  0  0  0  0  0  0  0  0  0  0  0
    8.0455  -14.5199   25.5892 C   0  0  2  0  0  0  0  0  0  0  0  0
    7.9856  -14.6958   24.1756 N   0  0  0  0  0  0  0  0  0  0  0  0
    7.6201  -15.7007   26.3669 C   0  0  0  0  0  0  0  0  0  0  0  0
    8.2094  -16.0513   27.5965 O   0  0  0  0  0  0  0  0  0  0  0  0
    6.6999  -16.4918   26.0103 O   0  0  0  0  0  0  0  0  0  0  0  0
  2  1  1  6
  2  7  1  0
  3  2  1  0
  4  3  1  0
  5  4  1  0
  5  6  2  0
  7  8  2  0
  9  5  1  0
 11 10  1  6
 12 11  1  0
 13 11  1  0
 14  7  1  0
 13 14  1  1
 15 13  1  0
 15 22  1  0
 16 15  2  0
 18 19  1  0
 18 17  1  0
 19 20  1  6
 21 23  1  0
 21 22  1  6
 21 19  1  0
 23 24  1  0
 25 23  2  0
M  END
$$$$
