ETI.pdb
     RDKit          3D

 25 24  0  0  1  0  0  0  0  0999 V2000
   10.1144  -16.2518   18.6684 N   0  0  0  0  0  0  0  0  0  0  0  0
    8.7444  -15.8541   18.6293 C   0  0  1  0  0  0  0  0  0  0  0  0
    8.0699  -16.7017   17.5812 C   0  0  0  0  0  0  0  0  0  0  0  0
    8.4949  -18.1332   17.5804 C   0  0  0  0  0  0  0  0  0  0  0  0
    7.8035  -18.8666   16.5052 C   0  0  0  0  0  0  0  0  0  0  0  0
    8.3799  -18.9504   15.3673 O   0  0  0  0  0  0  0  0  0  0  0  0
    8.0164  -16.0577   19.9005 C   0  0  0  0  0  0  0  0  0  0  0  0
    6.7769  -15.8445   19.8984 O   0  0  0  0  0  0  0  0  0  0  0  0
    6.5676  -19.4658   16.6723 O   0  0  0  0  0  0  0  0  0  0  0  0
    7.3400  -18.3058   24.1562 C   0  0  0  0  0  0  0  0  0  0  0  0
    8.0547  -18.0987   22.8352 C   0  0  1  0  0  0  0  0  0  0  0  0
    7.5525  -19.0077   21.8805 O   0  0  0  0  0  0  0  0  0  0  0  0
    7.9169  -16.6761   22.3406 C   0  0  2  0  0  0  0  0  0  0  0  0
    8.6411  -16.4751   21.1011 N   0  0  0  0  0  0  0  0  0  0  0  0
    8.4751  -15.7813   23.4145 C   0  0  0  0  0  0  0  0  0  0  0  0
    9.7152  -15.6347   23.3935 O   0  0  0  0  0  0  0  0  0  0  0  0
    6.8039  -11.1015   26.9841 C   0  0  0  0  0  0  0  0  0  0  0  0
    7.8160  -12.1959   26.6408 C   0  0  0  0  0  0  0  0  0  0  0  0
    7.2171  -13.1839   25.6836 C   0  0  2  0  0  0  0  0  0  0  0  0
    5.8345  -13.5979   26.1380 C   0  0  0  0  0  0  0  0  0  0  0  0
    8.1386  -14.3052   25.3956 C   0  0  2  0  0  0  0  0  0  0  0  0
    7.6559  -15.1624   24.3636 N   0  0  0  0  0  0  0  0  0  0  0  0
    8.7040  -15.0152   26.5603 C   0  0  0  0  0  0  0  0  0  0  0  0
    9.7780  -14.5028   27.3125 O   0  0  0  0  0  0  0  0  0  0  0  0
    8.2814  -16.1284   26.9868 O   0  0  0  0  0  0  0  0  0  0  0  0
  2  1  1  1
  2  7  1  0
  3  2  1  0
  4  3  1  0
  5  4  1  0
  5  6  2  0
  7  8  2  0
  9  5  1  0
 11 10  1  1
 12 11  1  0
 13 11  1  0
 14  7  1  0
 13 14  1  6
 15 13  1  0
 15 22  1  0
 16 15  2  0
 18 19  1  0
 18 17  1  0
 19 20  1  1
 21 23  1  0
 21 22  1  6
 21 19  1  0
 23 24  1  0
 25 23  2  0
M  END
$$$$
