ETI.pdb
     RDKit          3D

 25 24  0  0  1  0  0  0  0  0999 V2000
   10.7225  -17.4198   18.3913 N   0  0  0  0  0  0  0  0  0  0  0  0
   11.1046  -17.7939   19.7144 C   0  0  1  0  0  0  0  0  0  0  0  0
   12.5795  -17.5114   19.8429 C   0  0  0  0  0  0  0  0  0  0  0  0
   13.3359  -17.5923   18.5579 C   0  0  0  0  0  0  0  0  0  0  0  0
   14.7632  -17.3092   18.7911 C   0  0  0  0  0  0  0  0  0  0  0  0
   15.1663  -16.1030   18.6606 O   0  0  0  0  0  0  0  0  0  0  0  0
   10.4136  -17.0393   20.7823 C   0  0  0  0  0  0  0  0  0  0  0  0
   10.0665  -15.8581   20.5247 O   0  0  0  0  0  0  0  0  0  0  0  0
   15.6795  -18.2837   19.1444 O   0  0  0  0  0  0  0  0  0  0  0  0
    7.0736  -17.6267   22.0901 C   0  0  0  0  0  0  0  0  0  0  0  0
    8.0107  -17.6849   23.2806 C   0  0  1  0  0  0  0  0  0  0  0  0
    8.3020  -19.0311   23.5853 O   0  0  0  0  0  0  0  0  0  0  0  0
    9.2838  -16.9078   23.0301 C   0  0  2  0  0  0  0  0  0  0  0  0
   10.1294  -17.5769   22.0614 N   0  0  0  0  0  0  0  0  0  0  0  0
    9.9990  -16.7984   24.3500 C   0  0  0  0  0  0  0  0  0  0  0  0
   11.0847  -17.4117   24.4192 O   0  0  0  0  0  0  0  0  0  0  0  0
   10.1035  -13.0579   29.2466 C   0  0  0  0  0  0  0  0  0  0  0  0
   10.5766  -14.3397   28.5588 C   0  0  0  0  0  0  0  0  0  0  0  0
    9.8331  -14.5511   27.2729 C   0  0  2  0  0  0  0  0  0  0  0  0
    8.3550  -14.2880   27.4605 C   0  0  0  0  0  0  0  0  0  0  0  0
   10.1588  -15.8541   26.6521 C   0  0  2  0  0  0  0  0  0  0  0  0
    9.4774  -16.0604   25.4168 N   0  0  0  0  0  0  0  0  0  0  0  0
   10.1681  -17.0304   27.5446 C   0  0  0  0  0  0  0  0  0  0  0  0
    9.2222  -18.0680   27.4414 O   0  0  0  0  0  0  0  0  0  0  0  0
   11.0140  -17.2153   28.4665 O   0  0  0  0  0  0  0  0  0  0  0  0
  2  1  1  6
  2  7  1  0
  3  2  1  0
  4  3  1  0
  5  4  1  0
  5  6  2  0
  7  8  2  0
  9  5  1  0
 11 10  1  6
 12 11  1  0
 13 11  1  0
 14  7  1  0
 13 14  1  6
 15 13  1  0
 15 22  1  0
 16 15  2  0
 18 19  1  0
 18 17  1  0
 19 20  1  1
 21 23  1  0
 21 22  1  6
 21 19  1  0
 23 24  1  0
 25 23  2  0
M  END
$$$$
