ETI.pdb
     RDKit          3D

 25 24  0  0  1  0  0  0  0  0999 V2000
   12.4498  -17.2785   19.3784 N   0  0  0  0  0  0  0  0  0  0  0  0
   11.6261  -17.5613   20.5090 C   0  0  1  0  0  0  0  0  0  0  0  0
   12.5457  -17.9606   21.6344 C   0  0  0  0  0  0  0  0  0  0  0  0
   13.9991  -17.8492   21.3106 C   0  0  0  0  0  0  0  0  0  0  0  0
   14.8099  -18.2206   22.4839 C   0  0  0  0  0  0  0  0  0  0  0  0
   15.2984  -17.2805   23.1994 O   0  0  0  0  0  0  0  0  0  0  0  0
   10.8237  -16.4111   20.9785 C   0  0  0  0  0  0  0  0  0  0  0  0
   11.3334  -15.2665   20.8691 O   0  0  0  0  0  0  0  0  0  0  0  0
   15.0624  -19.5324   22.8439 O   0  0  0  0  0  0  0  0  0  0  0  0
    7.2237  -15.2270   19.9490 C   0  0  0  0  0  0  0  0  0  0  0  0
    7.3099  -15.5097   21.4360 C   0  0  1  0  0  0  0  0  0  0  0  0
    6.7845  -16.7913   21.7030 O   0  0  0  0  0  0  0  0  0  0  0  0
    8.7295  -15.3989   21.9461 C   0  0  2  0  0  0  0  0  0  0  0  0
    9.5282  -16.5372   21.5369 N   0  0  0  0  0  0  0  0  0  0  0  0
    8.6533  -15.3360   23.4480 C   0  0  0  0  0  0  0  0  0  0  0  0
    9.2511  -16.2525   24.0499 O   0  0  0  0  0  0  0  0  0  0  0  0
    6.8618  -11.3427   27.8106 C   0  0  0  0  0  0  0  0  0  0  0  0
    7.2984  -12.7627   27.4459 C   0  0  0  0  0  0  0  0  0  0  0  0
    7.1608  -12.9918   25.9696 C   0  0  2  0  0  0  0  0  0  0  0  0
    5.7108  -12.9006   25.5473 C   0  0  0  0  0  0  0  0  0  0  0  0
    7.8598  -14.2204   25.5319 C   0  0  2  0  0  0  0  0  0  0  0  0
    7.9604  -14.3199   24.1132 N   0  0  0  0  0  0  0  0  0  0  0  0
    7.4746  -15.4778   26.2034 C   0  0  0  0  0  0  0  0  0  0  0  0
    8.0724  -15.9112   27.4020 O   0  0  0  0  0  0  0  0  0  0  0  0
    6.5845  -16.2676   25.7748 O   0  0  0  0  0  0  0  0  0  0  0  0
  2  1  1  6
  2  7  1  0
  3  2  1  0
  4  3  1  0
  5  4  1  0
  5  6  2  0
  7  8  2  0
  9  5  1  0
 11 10  1  6
 12 11  1  0
 13 11  1  0
 14  7  1  0
 13 14  1  1
 15 13  1  0
 15 22  1  0
 16 15  2  0
 18 19  1  0
 18 17  1  0
 19 20  1  1
 21 23  1  0
 21 22  1  6
 21 19  1  0
 23 24  1  0
 25 23  2  0
M  END
$$$$
