ETI.pdb
     RDKit          3D

 25 24  0  0  1  0  0  0  0  0999 V2000
   11.0664  -16.5090   18.5693 N   0  0  0  0  0  0  0  0  0  0  0  0
   11.3914  -16.9392   19.8906 C   0  0  1  0  0  0  0  0  0  0  0  0
   12.8693  -16.7093   20.0770 C   0  0  0  0  0  0  0  0  0  0  0  0
   13.3977  -17.1465   21.4034 C   0  0  0  0  0  0  0  0  0  0  0  0
   14.8503  -16.9080   21.4740 C   0  0  0  0  0  0  0  0  0  0  0  0
   15.2884  -16.1303   22.3892 O   0  0  0  0  0  0  0  0  0  0  0  0
   10.6887  -16.1984   20.9605 C   0  0  0  0  0  0  0  0  0  0  0  0
   10.6567  -14.9442   20.8713 O   0  0  0  0  0  0  0  0  0  0  0  0
   15.7547  -17.4860   20.6010 O   0  0  0  0  0  0  0  0  0  0  0  0
    7.0861  -16.2170   21.9693 C   0  0  0  0  0  0  0  0  0  0  0  0
    7.9034  -16.5821   23.1931 C   0  0  1  0  0  0  0  0  0  0  0  0
    7.8695  -17.9796   23.3822 O   0  0  0  0  0  0  0  0  0  0  0  0
    9.3305  -16.0942   23.0797 C   0  0  2  0  0  0  0  0  0  0  0  0
   10.0601  -16.8264   22.0634 N   0  0  0  0  0  0  0  0  0  0  0  0
    9.9736  -16.3001   24.4249 C   0  0  0  0  0  0  0  0  0  0  0  0
   10.9043  -17.1326   24.4477 O   0  0  0  0  0  0  0  0  0  0  0  0
   10.4775  -13.4048   29.8313 C   0  0  0  0  0  0  0  0  0  0  0  0
   10.0048  -14.6369   29.0576 C   0  0  0  0  0  0  0  0  0  0  0  0
   10.1730  -14.4270   27.5816 C   0  0  2  0  0  0  0  0  0  0  0  0
    9.1844  -13.4015   27.0714 C   0  0  0  0  0  0  0  0  0  0  0  0
   10.1821  -15.7058   26.8373 C   0  0  2  0  0  0  0  0  0  0  0  0
    9.5525  -15.6044   25.5622 N   0  0  0  0  0  0  0  0  0  0  0  0
    9.8216  -16.9188   27.5982 C   0  0  0  0  0  0  0  0  0  0  0  0
    8.7283  -17.7348   27.2507 O   0  0  0  0  0  0  0  0  0  0  0  0
   10.4522  -17.3338   28.6130 O   0  0  0  0  0  0  0  0  0  0  0  0
  2  1  1  6
  2  7  1  0
  3  2  1  0
  4  3  1  0
  5  4  1  0
  5  6  2  0
  7  8  2  0
  9  5  1  0
 11 10  1  6
 12 11  1  0
 13 11  1  0
 14  7  1  0
 13 14  1  6
 15 13  1  0
 15 22  1  0
 16 15  2  0
 18 19  1  0
 18 17  1  0
 19 20  1  6
 21 23  1  0
 21 22  1  6
 21 19  1  0
 23 24  1  0
 25 23  2  0
M  END
$$$$
