ETI.pdb
     RDKit          3D

 25 24  0  0  1  0  0  0  0  0999 V2000
   10.3645  -17.9658   18.0505 N   0  0  0  0  0  0  0  0  0  0  0  0
   10.1690  -18.0532   19.4614 C   0  0  1  0  0  0  0  0  0  0  0  0
   11.5042  -17.7869   20.1079 C   0  0  0  0  0  0  0  0  0  0  0  0
   12.5536  -18.8017   19.7935 C   0  0  0  0  0  0  0  0  0  0  0  0
   13.8118  -18.4592   20.4801 C   0  0  0  0  0  0  0  0  0  0  0  0
   14.8661  -18.3212   19.7703 O   0  0  0  0  0  0  0  0  0  0  0  0
    9.2090  -17.0675   20.0037 C   0  0  0  0  0  0  0  0  0  0  0  0
    8.3965  -16.5465   19.1972 O   0  0  0  0  0  0  0  0  0  0  0  0
   13.9016  -18.2800   21.8490 O   0  0  0  0  0  0  0  0  0  0  0  0
    6.5681  -17.7715   20.5417 C   0  0  0  0  0  0  0  0  0  0  0  0
    6.9018  -17.4004   21.9733 C   0  0  1  0  0  0  0  0  0  0  0  0
    7.3466  -18.5463   22.6654 O   0  0  0  0  0  0  0  0  0  0  0  0
    7.9390  -16.3015   22.0401 C   0  0  2  0  0  0  0  0  0  0  0  0
    9.1633  -16.6891   21.3678 N   0  0  0  0  0  0  0  0  0  0  0  0
    8.2113  -16.0421   23.4975 C   0  0  0  0  0  0  0  0  0  0  0  0
    9.1449  -16.7087   23.9912 O   0  0  0  0  0  0  0  0  0  0  0  0
    6.8681  -11.1773   27.0974 C   0  0  0  0  0  0  0  0  0  0  0  0
    7.7467  -12.3913   26.7904 C   0  0  0  0  0  0  0  0  0  0  0  0
    7.1374  -13.2178   25.6965 C   0  0  2  0  0  0  0  0  0  0  0  0
    5.6998  -13.5594   26.0222 C   0  0  0  0  0  0  0  0  0  0  0  0
    7.9858  -14.3760   25.3388 C   0  0  2  0  0  0  0  0  0  0  0  0
    7.4670  -15.1185   24.2377 N   0  0  0  0  0  0  0  0  0  0  0  0
    8.4775  -15.2082   26.4550 C   0  0  0  0  0  0  0  0  0  0  0  0
    8.1106  -16.5581   26.6133 O   0  0  0  0  0  0  0  0  0  0  0  0
    9.2639  -14.7953   27.3555 O   0  0  0  0  0  0  0  0  0  0  0  0
  2  1  1  6
  2  7  1  0
  3  2  1  0
  4  3  1  0
  5  4  1  0
  5  6  2  0
  7  8  2  0
  9  5  1  0
 11 10  1  6
 12 11  1  0
 13 11  1  0
 14  7  1  0
 13 14  1  6
 15 13  1  0
 15 22  1  0
 16 15  2  0
 18 19  1  0
 18 17  1  0
 19 20  1  1
 21 23  1  0
 21 22  1  6
 21 19  1  0
 23 24  1  0
 25 23  2  0
M  END
$$$$
