HDG.pdb
     RDKit          3D

 23 23  0  0  1  0  0  0  0  0999 V2000
   19.0072  -12.9329  -16.6497 N   0  0  0  0  0  0  0  0  0  0  0  0
   18.6204  -11.5986  -16.2192 C   0  0  1  0  0  0  0  0  0  0  0  0
   18.0154  -11.7475  -14.8418 C   0  0  0  0  0  0  0  0  0  0  0  0
   16.6994  -12.4199  -14.9740 C   0  0  0  0  0  0  0  0  0  0  0  0
   15.4480  -11.8397  -15.1387 C   0  0  0  0  0  0  0  0  0  0  0  0
   14.5217  -12.8116  -15.2113 N   0  0  0  0  0  0  0  0  0  0  0  0
   15.1354  -13.9896  -15.0983 C   0  0  0  0  0  0  0  0  0  0  0  0
   16.4647  -13.7419  -14.9551 N   0  0  0  0  0  0  0  0  0  0  0  0
   19.7903  -10.6837  -16.2227 C   0  0  0  0  0  0  0  0  0  0  0  0
   20.8531  -11.0771  -15.7365 O   0  0  0  0  0  0  0  0  0  0  0  0
   19.7091   -9.4045  -16.7593 N   0  0  0  0  0  0  0  0  0  0  0  0
   20.6300   -8.3608  -16.8886 C   0  0  1  0  0  0  0  0  0  0  0  0
   20.7336   -7.5991  -18.1186 C   0  0  0  0  0  0  0  0  0  0  0  0
   21.9479   -6.7033  -18.0500 C   0  0  0  0  0  0  0  0  0  0  0  0
   23.1254   -7.1546  -18.2676 O   0  0  0  0  0  0  0  0  0  0  0  0
   20.6649   -7.5363  -15.6474 C   0  0  0  0  0  0  0  0  0  0  0  0
   19.6188   -6.9730  -15.2637 O   0  0  0  0  0  0  0  0  0  0  0  0
   21.8718   -5.3495  -17.7508 O   0  0  0  0  0  0  0  0  0  0  0  0
   21.8396   -7.3420  -14.8517 N   0  0  0  0  0  0  0  0  0  0  0  0
   21.7781   -6.5960  -13.5945 C   0  0  0  0  0  0  0  0  0  0  0  0
   21.9286   -5.1486  -13.8292 C   0  0  0  0  0  0  0  0  0  0  0  0
   20.7976   -4.3565  -13.6241 O   0  0  0  0  0  0  0  0  0  0  0  0
   22.9891   -4.5753  -14.1976 O   0  0  0  0  0  0  0  0  0  0  0  0
  2  1  1  1
  2  3  1  0
  3  4  1  0
  4  5  2  0
  5  6  1  0
  7  6  1  0
  8  4  1  0
  8  7  2  0
  9  2  1  0
  9 11  1  0
 10  9  2  0
 12 11  1  0
 12 16  1  0
 12 13  1  6
 14 13  1  0
 14 18  1  0
 15 14  2  0
 16 17  2  0
 16 19  1  0
 19 20  1  0
 20 21  1  0
 21 22  1  0
 23 21  2  0
M  END
$$$$
