HDG.pdb
     RDKit          3D

 23 23  0  0  1  0  0  0  0  0999 V2000
   24.4712  -17.5000  -17.8451 N   0  0  0  0  0  0  0  0  0  0  0  0
   24.9404  -17.2186  -16.4975 C   0  0  1  0  0  0  0  0  0  0  0  0
   25.8962  -16.0524  -16.6075 C   0  0  0  0  0  0  0  0  0  0  0  0
   27.0719  -16.4788  -17.4058 C   0  0  0  0  0  0  0  0  0  0  0  0
   27.4108  -17.7594  -17.8242 C   0  0  0  0  0  0  0  0  0  0  0  0
   28.5590  -17.7019  -18.5215 N   0  0  0  0  0  0  0  0  0  0  0  0
   28.9653  -16.4329  -18.5627 C   0  0  0  0  0  0  0  0  0  0  0  0
   28.0514  -15.6925  -17.8806 N   0  0  0  0  0  0  0  0  0  0  0  0
   23.7998  -16.9262  -15.5925 C   0  0  0  0  0  0  0  0  0  0  0  0
   24.0338  -16.6339  -14.4175 O   0  0  0  0  0  0  0  0  0  0  0  0
   22.4859  -16.9755  -16.0423 N   0  0  0  0  0  0  0  0  0  0  0  0
   21.2519  -16.7798  -15.4155 C   0  0  1  0  0  0  0  0  0  0  0  0
   20.2571  -15.8869  -15.9784 C   0  0  0  0  0  0  0  0  0  0  0  0
   19.1842  -15.6223  -14.9486 C   0  0  0  0  0  0  0  0  0  0  0  0
   17.9939  -15.2999  -15.2902 O   0  0  0  0  0  0  0  0  0  0  0  0
   20.7071  -18.0741  -14.9159 C   0  0  0  0  0  0  0  0  0  0  0  0
   20.6043  -19.0347  -15.7068 O   0  0  0  0  0  0  0  0  0  0  0  0
   19.4116  -15.7093  -13.5815 O   0  0  0  0  0  0  0  0  0  0  0  0
   20.2845  -18.2933  -13.5652 N   0  0  0  0  0  0  0  0  0  0  0  0
   19.7121  -19.5769  -13.1583 C   0  0  0  0  0  0  0  0  0  0  0  0
   18.3307  -19.7214  -13.6518 C   0  0  0  0  0  0  0  0  0  0  0  0
   17.6205  -20.8416  -13.2167 O   0  0  0  0  0  0  0  0  0  0  0  0
   17.7458  -18.9199  -14.4293 O   0  0  0  0  0  0  0  0  0  0  0  0
  2  1  1  6
  2  3  1  0
  3  4  1  0
  4  5  2  0
  5  6  1  0
  7  6  1  0
  8  4  1  0
  8  7  2  0
  9  2  1  0
  9 11  1  0
 10  9  2  0
 12 11  1  0
 12 16  1  0
 12 13  1  6
 14 13  1  0
 14 18  1  0
 15 14  2  0
 16 17  2  0
 16 19  1  0
 19 20  1  0
 20 21  1  0
 21 22  1  0
 23 21  2  0
M  END
$$$$
