HDG.pdb
     RDKit          3D

 23 23  0  0  1  0  0  0  0  0999 V2000
   19.8167   -9.6034  -15.5488 N   0  0  0  0  0  0  0  0  0  0  0  0
   18.7392   -8.7963  -14.9985 C   0  0  1  0  0  0  0  0  0  0  0  0
   18.0441   -9.6514  -13.9635 C   0  0  0  0  0  0  0  0  0  0  0  0
   17.4510  -10.8287  -14.6444 C   0  0  0  0  0  0  0  0  0  0  0  0
   16.5636  -10.8496  -15.7130 C   0  0  0  0  0  0  0  0  0  0  0  0
   16.2753  -12.1273  -16.0168 N   0  0  0  0  0  0  0  0  0  0  0  0
   16.9448  -12.9217  -15.1815 C   0  0  0  0  0  0  0  0  0  0  0  0
   17.6612  -12.1214  -14.3478 N   0  0  0  0  0  0  0  0  0  0  0  0
   19.2678   -7.5343  -14.4209 C   0  0  0  0  0  0  0  0  0  0  0  0
   19.3257   -7.4212  -13.1943 O   0  0  0  0  0  0  0  0  0  0  0  0
   19.6946   -6.4889  -15.2309 N   0  0  0  0  0  0  0  0  0  0  0  0
   20.2237   -5.2235  -14.9606 C   0  0  1  0  0  0  0  0  0  0  0  0
   21.6537   -4.9840  -14.9984 C   0  0  0  0  0  0  0  0  0  0  0  0
   22.3352   -5.8704  -13.9828 C   0  0  0  0  0  0  0  0  0  0  0  0
   22.3691   -5.5620  -12.7413 O   0  0  0  0  0  0  0  0  0  0  0  0
   19.4030   -4.1629  -15.6108 C   0  0  0  0  0  0  0  0  0  0  0  0
   19.2343   -4.1989  -16.8474 O   0  0  0  0  0  0  0  0  0  0  0  0
   22.9622   -7.0625  -14.3206 O   0  0  0  0  0  0  0  0  0  0  0  0
   18.7848   -3.0844  -14.8996 N   0  0  0  0  0  0  0  0  0  0  0  0
   18.0076   -2.0674  -15.6085 C   0  0  0  0  0  0  0  0  0  0  0  0
   18.8784   -0.9892  -16.1102 C   0  0  0  0  0  0  0  0  0  0  0  0
   18.2520    0.0743  -16.7623 O   0  0  0  0  0  0  0  0  0  0  0  0
   20.1335   -0.9527  -15.9978 O   0  0  0  0  0  0  0  0  0  0  0  0
  2  1  1  1
  2  3  1  0
  3  4  1  0
  4  5  2  0
  5  6  1  0
  7  6  1  0
  8  4  1  0
  8  7  2  0
  9  2  1  0
  9 11  1  0
 10  9  2  0
 12 11  1  0
 12 16  1  0
 12 13  1  6
 14 13  1  0
 14 18  1  0
 15 14  2  0
 16 17  2  0
 16 19  1  0
 19 20  1  0
 20 21  1  0
 21 22  1  0
 23 21  2  0
M  END
$$$$
