HDG.pdb
     RDKit          3D

 23 23  0  0  1  0  0  0  0  0999 V2000
   18.7522   -9.1785  -14.4758 N   0  0  0  0  0  0  0  0  0  0  0  0
   19.7564   -8.6995  -15.4125 C   0  0  1  0  0  0  0  0  0  0  0  0
   19.4053   -9.2873  -16.7604 C   0  0  0  0  0  0  0  0  0  0  0  0
   19.5100  -10.7648  -16.6733 C   0  0  0  0  0  0  0  0  0  0  0  0
   20.6568  -11.5435  -16.5834 C   0  0  0  0  0  0  0  0  0  0  0  0
   20.3022  -12.8393  -16.5295 N   0  0  0  0  0  0  0  0  0  0  0  0
   18.9724  -12.9161  -16.5827 C   0  0  0  0  0  0  0  0  0  0  0  0
   18.4963  -11.6454  -16.6689 N   0  0  0  0  0  0  0  0  0  0  0  0
   19.7878   -7.2150  -15.4384 C   0  0  0  0  0  0  0  0  0  0  0  0
   18.7197   -6.5986  -15.4458 O   0  0  0  0  0  0  0  0  0  0  0  0
   20.9881   -6.5150  -15.4539 N   0  0  0  0  0  0  0  0  0  0  0  0
   21.3016   -5.1544  -15.5206 C   0  0  1  0  0  0  0  0  0  0  0  0
   22.4134   -4.6024  -14.7702 C   0  0  0  0  0  0  0  0  0  0  0  0
   22.1528   -4.7752  -13.2925 C   0  0  0  0  0  0  0  0  0  0  0  0
   22.8121   -5.6182  -12.5909 O   0  0  0  0  0  0  0  0  0  0  0  0
   21.1987   -4.6614  -16.9234 C   0  0  0  0  0  0  0  0  0  0  0  0
   21.8601   -5.2305  -17.8165 O   0  0  0  0  0  0  0  0  0  0  0  0
   21.1948   -4.0429  -12.6038 O   0  0  0  0  0  0  0  0  0  0  0  0
   20.3783   -3.5576  -17.3228 N   0  0  0  0  0  0  0  0  0  0  0  0
   20.3511   -3.1095  -18.7154 C   0  0  0  0  0  0  0  0  0  0  0  0
   19.6257   -1.8333  -18.8474 C   0  0  0  0  0  0  0  0  0  0  0  0
   19.5910   -1.2570  -20.1184 O   0  0  0  0  0  0  0  0  0  0  0  0
   19.0395   -1.2266  -17.9106 O   0  0  0  0  0  0  0  0  0  0  0  0
  2  1  1  1
  2  3  1  0
  3  4  1  0
  4  5  2  0
  5  6  1  0
  7  6  1  0
  8  4  1  0
  8  7  2  0
  9  2  1  0
  9 11  1  0
 10  9  2  0
 12 11  1  0
 12 16  1  0
 12 13  1  6
 14 13  1  0
 14 18  1  0
 15 14  2  0
 16 17  2  0
 16 19  1  0
 19 20  1  0
 20 21  1  0
 21 22  1  0
 23 21  2  0
M  END
$$$$
