HDG.pdb
     RDKit          3D

 23 23  0  0  1  0  0  0  0  0999 V2000
   22.7008  -11.9969  -17.1868 N   0  0  0  0  0  0  0  0  0  0  0  0
   23.2994  -11.0032  -16.3096 C   0  0  1  0  0  0  0  0  0  0  0  0
   24.7657  -10.9346  -16.6716 C   0  0  0  0  0  0  0  0  0  0  0  0
   25.3779  -12.2618  -16.4161 C   0  0  0  0  0  0  0  0  0  0  0  0
   26.0609  -12.6924  -15.2857 C   0  0  0  0  0  0  0  0  0  0  0  0
   26.4543  -13.9648  -15.4709 N   0  0  0  0  0  0  0  0  0  0  0  0
   26.0485  -14.3612  -16.6772 C   0  0  0  0  0  0  0  0  0  0  0  0
   25.3910  -13.3164  -17.2473 N   0  0  0  0  0  0  0  0  0  0  0  0
   22.6219   -9.6903  -16.4605 C   0  0  0  0  0  0  0  0  0  0  0  0
   22.7160   -9.0936  -17.5356 O   0  0  0  0  0  0  0  0  0  0  0  0
   21.8905   -9.1279  -15.4214 N   0  0  0  0  0  0  0  0  0  0  0  0
   21.1198   -7.9667  -15.3126 C   0  0  1  0  0  0  0  0  0  0  0  0
   19.8139   -7.9887  -14.6817 C   0  0  0  0  0  0  0  0  0  0  0  0
   19.0227   -9.1605  -15.2133 C   0  0  0  0  0  0  0  0  0  0  0  0
   18.7845   -9.2950  -16.4634 O   0  0  0  0  0  0  0  0  0  0  0  0
   21.9722   -6.8066  -14.9265 C   0  0  0  0  0  0  0  0  0  0  0  0
   22.6144   -6.8551  -13.8569 O   0  0  0  0  0  0  0  0  0  0  0  0
   18.5071  -10.1570  -14.3952 O   0  0  0  0  0  0  0  0  0  0  0  0
   22.1052   -5.6176  -15.7136 N   0  0  0  0  0  0  0  0  0  0  0  0
   22.9528   -4.5127  -15.2645 C   0  0  0  0  0  0  0  0  0  0  0  0
   22.9502   -3.4110  -16.2437 C   0  0  0  0  0  0  0  0  0  0  0  0
   23.6858   -2.2719  -15.9120 O   0  0  0  0  0  0  0  0  0  0  0  0
   22.3410   -3.4168  -17.3473 O   0  0  0  0  0  0  0  0  0  0  0  0
  2  1  1  6
  2  3  1  0
  3  4  1  0
  4  5  2  0
  5  6  1  0
  7  6  1  0
  8  4  1  0
  8  7  2  0
  9  2  1  0
  9 11  1  0
 10  9  2  0
 12 11  1  0
 12 16  1  0
 12 13  1  1
 14 13  1  0
 14 18  1  0
 15 14  2  0
 16 17  2  0
 16 19  1  0
 19 20  1  0
 20 21  1  0
 21 22  1  0
 23 21  2  0
M  END
$$$$
