HDG.pdb
     RDKit          3D

 23 23  0  0  1  0  0  0  0  0999 V2000
   25.7925  -22.5011  -13.1374 N   0  0  0  0  0  0  0  0  0  0  0  0
   25.1907  -21.2474  -12.7114 C   0  0  1  0  0  0  0  0  0  0  0  0
   26.2330  -20.1733  -12.9249 C   0  0  0  0  0  0  0  0  0  0  0  0
   27.4185  -20.4932  -12.0922 C   0  0  0  0  0  0  0  0  0  0  0  0
   27.6286  -21.6018  -11.2818 C   0  0  0  0  0  0  0  0  0  0  0  0
   28.8361  -21.4956  -10.7001 N   0  0  0  0  0  0  0  0  0  0  0  0
   29.4035  -20.3605  -11.1084 C   0  0  0  0  0  0  0  0  0  0  0  0
   28.5324  -19.7551  -11.9590 N   0  0  0  0  0  0  0  0  0  0  0  0
   23.9427  -20.9773  -13.4698 C   0  0  0  0  0  0  0  0  0  0  0  0
   23.9553  -21.0994  -14.6968 O   0  0  0  0  0  0  0  0  0  0  0  0
   22.7721  -20.5934  -12.8268 N   0  0  0  0  0  0  0  0  0  0  0  0
   21.4936  -20.2615  -13.2845 C   0  0  1  0  0  0  0  0  0  0  0  0
   20.3286  -20.4144  -12.4341 C   0  0  0  0  0  0  0  0  0  0  0  0
   20.2336  -21.8491  -11.9712 C   0  0  0  0  0  0  0  0  0  0  0  0
   20.5448  -22.8226  -12.7413 O   0  0  0  0  0  0  0  0  0  0  0  0
   21.5288  -18.9891  -14.0600 C   0  0  0  0  0  0  0  0  0  0  0  0
   21.9269  -17.9474  -13.4986 O   0  0  0  0  0  0  0  0  0  0  0  0
   19.8086  -22.2054  -10.6982 O   0  0  0  0  0  0  0  0  0  0  0  0
   21.1278  -18.8789  -15.4304 N   0  0  0  0  0  0  0  0  0  0  0  0
   21.1423  -17.5851  -16.1136 C   0  0  0  0  0  0  0  0  0  0  0  0
   22.4490  -17.3354  -16.7482 C   0  0  0  0  0  0  0  0  0  0  0  0
   22.4699  -16.4329  -17.8129 O   0  0  0  0  0  0  0  0  0  0  0  0
   23.5394  -17.8687  -16.4079 O   0  0  0  0  0  0  0  0  0  0  0  0
  2  1  1  6
  2  3  1  0
  3  4  1  0
  4  5  2  0
  5  6  1  0
  7  6  1  0
  8  4  1  0
  8  7  2  0
  9  2  1  0
  9 11  1  0
 10  9  2  0
 12 11  1  0
 12 16  1  0
 12 13  1  1
 14 13  1  0
 14 18  1  0
 15 14  2  0
 16 17  2  0
 16 19  1  0
 19 20  1  0
 20 21  1  0
 21 22  1  0
 23 21  2  0
M  END
$$$$
