HDG.pdb
     RDKit          3D

 23 23  0  0  1  0  0  0  0  0999 V2000
   23.3643  -13.4097  -17.6494 N   0  0  0  0  0  0  0  0  0  0  0  0
   23.4677  -12.2906  -16.7261 C   0  0  1  0  0  0  0  0  0  0  0  0
   24.8836  -11.7717  -16.8331 C   0  0  0  0  0  0  0  0  0  0  0  0
   25.8170  -12.8684  -16.4762 C   0  0  0  0  0  0  0  0  0  0  0  0
   26.6680  -13.5816  -17.3110 C   0  0  0  0  0  0  0  0  0  0  0  0
   27.3363  -14.4910  -16.5802 N   0  0  0  0  0  0  0  0  0  0  0  0
   26.9428  -14.3851  -15.3109 C   0  0  0  0  0  0  0  0  0  0  0  0
   26.0163  -13.3914  -15.2555 N   0  0  0  0  0  0  0  0  0  0  0  0
   22.4614  -11.2469  -17.0480 C   0  0  0  0  0  0  0  0  0  0  0  0
   22.2041  -11.0151  -18.2315 O   0  0  0  0  0  0  0  0  0  0  0  0
   21.8107  -10.5340  -16.0483 N   0  0  0  0  0  0  0  0  0  0  0  0
   20.7516   -9.6217  -16.0581 C   0  0  1  0  0  0  0  0  0  0  0  0
   19.5390   -9.8710  -15.3023 C   0  0  0  0  0  0  0  0  0  0  0  0
   18.9514  -11.1967  -15.7249 C   0  0  0  0  0  0  0  0  0  0  0  0
   18.7415  -12.1351  -14.8804 O   0  0  0  0  0  0  0  0  0  0  0  0
   21.2627   -8.2249  -15.9617 C   0  0  0  0  0  0  0  0  0  0  0  0
   20.4979   -7.2785  -16.2414 O   0  0  0  0  0  0  0  0  0  0  0  0
   18.6036  -11.4846  -17.0380 O   0  0  0  0  0  0  0  0  0  0  0  0
   22.5970   -7.8895  -15.5641 N   0  0  0  0  0  0  0  0  0  0  0  0
   23.0031   -6.4926  -15.4067 C   0  0  0  0  0  0  0  0  0  0  0  0
   22.5005   -5.9343  -14.1385 C   0  0  0  0  0  0  0  0  0  0  0  0
   22.8650   -4.6201  -13.8406 O   0  0  0  0  0  0  0  0  0  0  0  0
   21.7740   -6.5453  -13.3092 O   0  0  0  0  0  0  0  0  0  0  0  0
  2  1  1  6
  2  3  1  0
  3  4  1  0
  4  5  2  0
  5  6  1  0
  7  6  1  0
  8  4  1  0
  8  7  2  0
  9  2  1  0
  9 11  1  0
 10  9  2  0
 12 11  1  0
 12 16  1  0
 12 13  1  1
 14 13  1  0
 14 18  1  0
 15 14  2  0
 16 17  2  0
 16 19  1  0
 19 20  1  0
 20 21  1  0
 21 22  1  0
 23 21  2  0
M  END
$$$$
