HDG.pdb
     RDKit          3D

 23 23  0  0  1  0  0  0  0  0999 V2000
   26.9550  -20.9146  -17.0990 N   0  0  0  0  0  0  0  0  0  0  0  0
   26.5753  -20.2428  -15.8662 C   0  0  1  0  0  0  0  0  0  0  0  0
   26.0395  -18.8854  -16.2612 C   0  0  0  0  0  0  0  0  0  0  0  0
   27.1461  -18.0953  -16.8550 C   0  0  0  0  0  0  0  0  0  0  0  0
   28.4758  -18.4623  -17.0185 C   0  0  0  0  0  0  0  0  0  0  0  0
   29.1417  -17.4472  -17.5964 N   0  0  0  0  0  0  0  0  0  0  0  0
   28.2866  -16.4464  -17.8067 C   0  0  0  0  0  0  0  0  0  0  0  0
   27.0703  -16.8504  -17.3527 N   0  0  0  0  0  0  0  0  0  0  0  0
   25.5754  -21.0443  -15.1156 C   0  0  0  0  0  0  0  0  0  0  0  0
   24.9149  -21.8899  -15.7235 O   0  0  0  0  0  0  0  0  0  0  0  0
   25.3732  -20.8600  -13.7532 N   0  0  0  0  0  0  0  0  0  0  0  0
   24.4910  -21.4304  -12.8309 C   0  0  1  0  0  0  0  0  0  0  0  0
   24.9673  -21.9720  -11.5724 C   0  0  0  0  0  0  0  0  0  0  0  0
   25.6725  -20.8848  -10.7963 C   0  0  0  0  0  0  0  0  0  0  0  0
   26.1049  -19.8260  -11.3704 O   0  0  0  0  0  0  0  0  0  0  0  0
   23.2486  -20.6146  -12.7208 C   0  0  0  0  0  0  0  0  0  0  0  0
   23.0988  -19.8677  -11.7316 O   0  0  0  0  0  0  0  0  0  0  0  0
   25.8969  -20.9578   -9.4280 O   0  0  0  0  0  0  0  0  0  0  0  0
   22.1949  -20.6313  -13.6906 N   0  0  0  0  0  0  0  0  0  0  0  0
   21.0128  -19.7845  -13.5274 C   0  0  0  0  0  0  0  0  0  0  0  0
   19.8199  -20.5935  -13.2189 C   0  0  0  0  0  0  0  0  0  0  0  0
   18.6161  -19.9051  -13.0596 O   0  0  0  0  0  0  0  0  0  0  0  0
   19.8020  -21.8473  -13.0887 O   0  0  0  0  0  0  0  0  0  0  0  0
  2  1  1  6
  2  3  1  0
  3  4  1  0
  4  5  2  0
  5  6  1  0
  7  6  1  0
  8  4  1  0
  8  7  2  0
  9  2  1  0
  9 11  1  0
 10  9  2  0
 12 11  1  0
 12 16  1  0
 12 13  1  1
 14 13  1  0
 14 18  1  0
 15 14  2  0
 16 17  2  0
 16 19  1  0
 19 20  1  0
 20 21  1  0
 21 22  1  0
 23 21  2  0
M  END
$$$$
