HDG.pdb
     RDKit          3D

 23 23  0  0  1  0  0  0  0  0999 V2000
   26.4784  -20.7062  -17.1704 N   0  0  0  0  0  0  0  0  0  0  0  0
   25.7135  -19.6308  -16.5591 C   0  0  1  0  0  0  0  0  0  0  0  0
   25.5255  -18.5747  -17.6244 C   0  0  0  0  0  0  0  0  0  0  0  0
   26.8619  -18.0982  -18.0583 C   0  0  0  0  0  0  0  0  0  0  0  0
   27.5868  -18.4721  -19.1829 C   0  0  0  0  0  0  0  0  0  0  0  0
   28.7523  -17.8018  -19.1945 N   0  0  0  0  0  0  0  0  0  0  0  0
   28.7982  -17.0153  -18.1192 C   0  0  0  0  0  0  0  0  0  0  0  0
   27.6400  -17.2009  -17.4315 N   0  0  0  0  0  0  0  0  0  0  0  0
   24.4191  -20.1363  -16.0351 C   0  0  0  0  0  0  0  0  0  0  0  0
   24.2760  -21.3510  -15.8774 O   0  0  0  0  0  0  0  0  0  0  0  0
   23.3764  -19.2727  -15.7220 N   0  0  0  0  0  0  0  0  0  0  0  0
   22.1309  -19.4569  -15.1146 C   0  0  1  0  0  0  0  0  0  0  0  0
   21.9973  -20.2317  -13.8958 C   0  0  0  0  0  0  0  0  0  0  0  0
   20.5319  -20.4089  -13.5752 C   0  0  0  0  0  0  0  0  0  0  0  0
   19.8826  -19.5324  -12.9060 O   0  0  0  0  0  0  0  0  0  0  0  0
   21.3488  -18.1882  -15.1282 C   0  0  0  0  0  0  0  0  0  0  0  0
   21.8397  -17.1672  -14.6034 O   0  0  0  0  0  0  0  0  0  0  0  0
   19.7993  -21.5175  -13.9782 O   0  0  0  0  0  0  0  0  0  0  0  0
   20.0475  -18.0597  -15.7123 N   0  0  0  0  0  0  0  0  0  0  0  0
   19.6187  -16.7979  -16.3164 C   0  0  0  0  0  0  0  0  0  0  0  0
   18.9393  -15.9410  -15.3282 C   0  0  0  0  0  0  0  0  0  0  0  0
   18.5332  -14.6782  -15.7630 O   0  0  0  0  0  0  0  0  0  0  0  0
   18.6986  -16.2564  -14.1316 O   0  0  0  0  0  0  0  0  0  0  0  0
  2  1  1  6
  2  3  1  0
  3  4  1  0
  4  5  2  0
  5  6  1  0
  7  6  1  0
  8  4  1  0
  8  7  2  0
  9  2  1  0
  9 11  1  0
 10  9  2  0
 12 11  1  0
 12 16  1  0
 12 13  1  1
 14 13  1  0
 14 18  1  0
 15 14  2  0
 16 17  2  0
 16 19  1  0
 19 20  1  0
 20 21  1  0
 21 22  1  0
 23 21  2  0
M  END
$$$$
