HDG.pdb
     RDKit          3D

 23 23  0  0  1  0  0  0  0  0999 V2000
   20.9125  -10.2273  -15.8347 N   0  0  0  0  0  0  0  0  0  0  0  0
   21.8466   -9.1853  -16.2308 C   0  0  1  0  0  0  0  0  0  0  0  0
   22.1349   -9.3989  -17.6994 C   0  0  0  0  0  0  0  0  0  0  0  0
   22.7134  -10.7539  -17.8751 C   0  0  0  0  0  0  0  0  0  0  0  0
   22.1097  -11.8863  -18.4069 C   0  0  0  0  0  0  0  0  0  0  0  0
   22.9873  -12.9045  -18.3771 N   0  0  0  0  0  0  0  0  0  0  0  0
   24.1276  -12.4640  -17.8454 C   0  0  0  0  0  0  0  0  0  0  0  0
   23.9528  -11.1500  -17.5429 N   0  0  0  0  0  0  0  0  0  0  0  0
   21.2807   -7.8392  -15.9598 C   0  0  0  0  0  0  0  0  0  0  0  0
   20.0791   -7.6486  -16.1617 O   0  0  0  0  0  0  0  0  0  0  0  0
   22.0738   -6.8007  -15.4870 N   0  0  0  0  0  0  0  0  0  0  0  0
   21.8039   -5.4761  -15.1313 C   0  0  1  0  0  0  0  0  0  0  0  0
   21.8457   -5.0473  -13.7463 C   0  0  0  0  0  0  0  0  0  0  0  0
   20.9992   -5.9779  -12.9101 C   0  0  0  0  0  0  0  0  0  0  0  0
   21.5276   -6.8316  -12.1167 O   0  0  0  0  0  0  0  0  0  0  0  0
   22.4509   -4.5345  -16.0885 C   0  0  0  0  0  0  0  0  0  0  0  0
   23.6963   -4.4481  -16.1064 O   0  0  0  0  0  0  0  0  0  0  0  0
   19.6111   -5.9715  -12.9439 O   0  0  0  0  0  0  0  0  0  0  0  0
   21.7266   -3.7058  -17.0048 N   0  0  0  0  0  0  0  0  0  0  0  0
   22.4318   -2.8470  -17.9567 C   0  0  0  0  0  0  0  0  0  0  0  0
   22.9054   -1.6120  -17.3062 C   0  0  0  0  0  0  0  0  0  0  0  0
   23.5836   -0.6960  -18.1121 O   0  0  0  0  0  0  0  0  0  0  0  0
   22.7475   -1.3210  -16.0899 O   0  0  0  0  0  0  0  0  0  0  0  0
  2  1  1  6
  2  3  1  0
  3  4  1  0
  4  5  2  0
  5  6  1  0
  7  6  1  0
  8  4  1  0
  8  7  2  0
  9  2  1  0
  9 11  1  0
 10  9  2  0
 12 11  1  0
 12 16  1  0
 12 13  1  1
 14 13  1  0
 14 18  1  0
 15 14  2  0
 16 17  2  0
 16 19  1  0
 19 20  1  0
 20 21  1  0
 21 22  1  0
 23 21  2  0
M  END
$$$$
