EGM.pdb
     RDKit          3D

 22 21  0  0  1  0  0  0  0  0999 V2000
   24.7288  -20.1908  -15.8455 N   0  0  0  0  0  0  0  0  0  0  0  0
   25.1768  -18.9821  -15.1817 C   0  0  1  0  0  0  0  0  0  0  0  0
   24.0646  -18.5603  -14.2569 C   0  0  0  0  0  0  0  0  0  0  0  0
   22.7083  -19.0336  -14.6237 C   0  0  0  0  0  0  0  0  0  0  0  0
   22.6587  -20.4932  -14.7594 C   0  0  0  0  0  0  0  0  0  0  0  0
   22.6158  -21.2686  -13.8002 O   0  0  0  0  0  0  0  0  0  0  0  0
   26.3410  -19.2794  -14.2754 C   0  0  0  0  0  0  0  0  0  0  0  0
   26.8269  -18.3202  -13.6372 O   0  0  0  0  0  0  0  0  0  0  0  0
   22.6628  -20.9793  -16.0875 O   0  0  0  0  0  0  0  0  0  0  0  0
   26.8993  -20.5634  -14.1147 N   0  0  0  0  0  0  0  0  0  0  0  0
   27.9337  -20.9212  -13.2130 C   0  0  0  0  0  0  0  0  0  0  0  0
   27.5713  -21.0110  -11.7950 C   0  0  0  0  0  0  0  0  0  0  0  0
   28.4102  -21.6363  -11.0590 O   0  0  0  0  0  0  0  0  0  0  0  0
   28.9422  -20.1539   -5.8856 C   0  0  0  0  0  0  0  0  0  0  0  0
   27.4071  -19.2765   -6.2583 S   0  0  0  0  0  0  0  0  0  0  0  0
   26.4185  -20.3020   -7.4131 C   0  0  0  0  0  0  0  0  0  0  0  0
   26.8043  -19.9848   -8.8299 C   0  0  0  0  0  0  0  0  0  0  0  0
   26.1209  -20.8908   -9.7972 C   0  0  2  0  0  0  0  0  0  0  0  0
   26.4294  -20.4963  -11.1826 N   0  0  0  0  0  0  0  0  0  0  0  0
   24.6593  -20.9438   -9.6758 C   0  0  0  0  0  0  0  0  0  0  0  0
   23.9475  -20.4731  -10.6183 O   0  0  0  0  0  0  0  0  0  0  0  0
   24.0437  -21.5033   -8.5467 O   0  0  0  0  0  0  0  0  0  0  0  0
  2  1  1  1
  2  3  1  0
  3  4  1  0
  4  5  1  0
  5  6  2  0
  7  2  1  0
  7  8  2  0
  9  5  1  0
 10  7  1  0
 11 10  1  0
 11 12  1  0
 12 19  1  0
 13 12  2  0
 14 15  1  0
 15 16  1  0
 17 16  1  0
 18 17  1  1
 19 18  1  0
 20 18  1  0
 20 22  1  0
 21 20  2  0
M  END
$$$$
