EGM.pdb
     RDKit          3D

 22 21  0  0  1  0  0  0  0  0999 V2000
   23.8896  -21.5858  -15.1280 N   0  0  0  0  0  0  0  0  0  0  0  0
   23.6197  -20.4086  -14.3256 C   0  0  1  0  0  0  0  0  0  0  0  0
   22.4211  -20.7336  -13.4724 C   0  0  0  0  0  0  0  0  0  0  0  0
   21.2394  -21.2601  -14.1967 C   0  0  0  0  0  0  0  0  0  0  0  0
   20.7312  -20.2993  -15.1815 C   0  0  0  0  0  0  0  0  0  0  0  0
   20.3311  -19.1685  -14.8910 O   0  0  0  0  0  0  0  0  0  0  0  0
   24.7377  -20.1708  -13.3465 C   0  0  0  0  0  0  0  0  0  0  0  0
   24.6166  -19.2011  -12.5665 O   0  0  0  0  0  0  0  0  0  0  0  0
   20.7237  -20.7511  -16.5216 O   0  0  0  0  0  0  0  0  0  0  0  0
   25.8932  -20.9739  -13.2683 N   0  0  0  0  0  0  0  0  0  0  0  0
   26.9685  -20.8098  -12.3585 C   0  0  0  0  0  0  0  0  0  0  0  0
   26.6723  -21.0317  -10.9397 C   0  0  0  0  0  0  0  0  0  0  0  0
   26.2539  -22.2053  -10.6497 O   0  0  0  0  0  0  0  0  0  0  0  0
   29.9571  -19.8420   -5.3002 C   0  0  0  0  0  0  0  0  0  0  0  0
   28.2770  -19.2356   -5.0273 S   0  0  0  0  0  0  0  0  0  0  0  0
   27.1421  -20.1505   -6.1399 C   0  0  0  0  0  0  0  0  0  0  0  0
   27.4089  -19.7625   -7.5664 C   0  0  0  0  0  0  0  0  0  0  0  0
   26.5847  -20.5668   -8.5136 C   0  0  2  0  0  0  0  0  0  0  0  0
   26.7967  -20.1125   -9.8988 N   0  0  0  0  0  0  0  0  0  0  0  0
   25.1390  -20.5363   -8.2628 C   0  0  0  0  0  0  0  0  0  0  0  0
   24.4029  -19.8095   -9.0020 O   0  0  0  0  0  0  0  0  0  0  0  0
   24.5643  -21.2924   -7.2308 O   0  0  0  0  0  0  0  0  0  0  0  0
  2  1  1  6
  2  3  1  0
  3  4  1  0
  4  5  1  0
  5  6  2  0
  7  2  1  0
  7  8  2  0
  9  5  1  0
 10  7  1  0
 11 10  1  0
 11 12  1  0
 12 19  1  0
 13 12  2  0
 14 15  1  0
 15 16  1  0
 17 16  1  0
 18 17  1  1
 19 18  1  0
 20 18  1  0
 20 22  1  0
 21 20  2  0
M  END
$$$$
