EGM.pdb
     RDKit          3D

 22 21  0  0  1  0  0  0  0  0999 V2000
   18.6311  -25.5778  -11.3618 N   0  0  0  0  0  0  0  0  0  0  0  0
   18.5337  -24.1376  -11.4992 C   0  0  1  0  0  0  0  0  0  0  0  0
   18.0525  -23.8697  -12.9017 C   0  0  0  0  0  0  0  0  0  0  0  0
   18.0569  -22.4483  -13.3231 C   0  0  0  0  0  0  0  0  0  0  0  0
   16.6994  -21.8983  -13.3992 C   0  0  0  0  0  0  0  0  0  0  0  0
   15.6910  -22.5127  -13.0403 O   0  0  0  0  0  0  0  0  0  0  0  0
   17.4483  -23.5958  -10.6084 C   0  0  0  0  0  0  0  0  0  0  0  0
   17.6321  -22.4646  -10.1084 O   0  0  0  0  0  0  0  0  0  0  0  0
   16.6045  -20.5875  -13.9215 O   0  0  0  0  0  0  0  0  0  0  0  0
   16.2569  -24.2896  -10.3161 N   0  0  0  0  0  0  0  0  0  0  0  0
   15.2031  -23.8331   -9.4842 C   0  0  0  0  0  0  0  0  0  0  0  0
   15.1160  -24.4242   -8.1452 C   0  0  0  0  0  0  0  0  0  0  0  0
   14.0328  -25.0600   -7.9021 O   0  0  0  0  0  0  0  0  0  0  0  0
   18.2157  -27.6084   -1.7074 C   0  0  0  0  0  0  0  0  0  0  0  0
   18.5223  -26.5826   -3.1630 S   0  0  0  0  0  0  0  0  0  0  0  0
   16.9071  -26.1225   -3.8992 C   0  0  0  0  0  0  0  0  0  0  0  0
   17.1267  -25.4608   -5.2299 C   0  0  0  0  0  0  0  0  0  0  0  0
   15.8340  -25.0959   -5.8774 C   0  0  2  0  0  0  0  0  0  0  0  0
   16.0726  -24.3631   -7.1329 N   0  0  0  0  0  0  0  0  0  0  0  0
   14.9366  -24.2731   -5.0579 C   0  0  0  0  0  0  0  0  0  0  0  0
   14.8729  -23.0234   -5.2829 O   0  0  0  0  0  0  0  0  0  0  0  0
   14.1546  -24.8417   -4.0420 O   0  0  0  0  0  0  0  0  0  0  0  0
  2  1  1  6
  2  3  1  0
  3  4  1  0
  4  5  1  0
  5  6  2  0
  7  2  1  0
  7  8  2  0
  9  5  1  0
 10  7  1  0
 11 10  1  0
 11 12  1  0
 12 19  1  0
 13 12  2  0
 14 15  1  0
 15 16  1  0
 17 16  1  0
 18 17  1  1
 19 18  1  0
 20 18  1  0
 20 22  1  0
 21 20  2  0
M  END
$$$$
