EGM.pdb
     RDKit          3D

 22 21  0  0  1  0  0  0  0  0999 V2000
   21.1897  -16.1507  -17.3735 N   0  0  0  0  0  0  0  0  0  0  0  0
   20.6315  -15.8910  -18.6863 C   0  0  1  0  0  0  0  0  0  0  0  0
   19.1827  -16.3003  -18.6277 C   0  0  0  0  0  0  0  0  0  0  0  0
   18.9298  -17.7345  -18.3499 C   0  0  0  0  0  0  0  0  0  0  0  0
   19.2943  -18.5828  -19.4895 C   0  0  0  0  0  0  0  0  0  0  0  0
   18.5160  -18.8749  -20.4017 O   0  0  0  0  0  0  0  0  0  0  0  0
   20.6042  -14.4119  -18.9637 C   0  0  0  0  0  0  0  0  0  0  0  0
   20.1655  -14.0482  -20.0767 O   0  0  0  0  0  0  0  0  0  0  0  0
   20.6246  -19.0628  -19.4873 O   0  0  0  0  0  0  0  0  0  0  0  0
   21.0415  -13.4356  -18.0463 N   0  0  0  0  0  0  0  0  0  0  0  0
   20.9875  -12.0302  -18.2279 C   0  0  0  0  0  0  0  0  0  0  0  0
   21.5055  -11.2029  -17.1337 C   0  0  0  0  0  0  0  0  0  0  0  0
   21.1434  -11.5650  -15.9614 O   0  0  0  0  0  0  0  0  0  0  0  0
   27.6081  -11.9284  -14.6716 C   0  0  0  0  0  0  0  0  0  0  0  0
   27.2417  -10.4797  -15.6874 S   0  0  0  0  0  0  0  0  0  0  0  0
   25.5521   -9.8962  -15.2778 C   0  0  0  0  0  0  0  0  0  0  0  0
   24.6333  -10.1486  -16.4392 C   0  0  0  0  0  0  0  0  0  0  0  0
   23.2315   -9.7515  -16.1218 C   0  0  2  0  0  0  0  0  0  0  0  0
   22.3330  -10.0859  -17.2404 N   0  0  0  0  0  0  0  0  0  0  0  0
   23.0396   -8.3280  -15.8211 C   0  0  0  0  0  0  0  0  0  0  0  0
   22.7990   -7.5254  -16.7775 O   0  0  0  0  0  0  0  0  0  0  0  0
   23.1150   -7.8464  -14.5061 O   0  0  0  0  0  0  0  0  0  0  0  0
  2  1  1  1
  2  3  1  0
  3  4  1  0
  4  5  1  0
  5  6  2  0
  7  2  1  0
  7  8  2  0
  9  5  1  0
 10  7  1  0
 11 10  1  0
 11 12  1  0
 12 19  1  0
 13 12  2  0
 14 15  1  0
 15 16  1  0
 17 16  1  0
 18 17  1  6
 19 18  1  0
 20 18  1  0
 20 22  1  0
 21 20  2  0
M  END
$$$$
