EGM.pdb
     RDKit          3D

 22 21  0  0  1  0  0  0  0  0999 V2000
   21.4734  -20.4157  -14.7034 N   0  0  0  0  0  0  0  0  0  0  0  0
   21.2011  -19.8860  -13.3814 C   0  0  1  0  0  0  0  0  0  0  0  0
   19.8819  -20.4696  -12.9462 C   0  0  0  0  0  0  0  0  0  0  0  0
   18.7440  -20.2482  -13.8704 C   0  0  0  0  0  0  0  0  0  0  0  0
   18.2346  -21.5092  -14.4194 C   0  0  0  0  0  0  0  0  0  0  0  0
   18.6730  -22.6192  -14.1049 O   0  0  0  0  0  0  0  0  0  0  0  0
   22.2022  -20.4103  -12.3874 C   0  0  0  0  0  0  0  0  0  0  0  0
   22.0756  -20.0392  -11.2001 O   0  0  0  0  0  0  0  0  0  0  0  0
   17.1830  -21.3818  -15.3565 O   0  0  0  0  0  0  0  0  0  0  0  0
   23.2560  -21.2832  -12.7246 N   0  0  0  0  0  0  0  0  0  0  0  0
   24.2483  -21.7802  -11.8418 C   0  0  0  0  0  0  0  0  0  0  0  0
   25.5506  -21.1068  -11.8663 C   0  0  0  0  0  0  0  0  0  0  0  0
   25.6327  -20.1131  -12.6677 O   0  0  0  0  0  0  0  0  0  0  0  0
   28.1556  -19.6703   -6.6591 C   0  0  0  0  0  0  0  0  0  0  0  0
   28.0450  -20.8644   -8.0107 S   0  0  0  0  0  0  0  0  0  0  0  0
   29.1543  -20.3142   -9.3633 C   0  0  0  0  0  0  0  0  0  0  0  0
   29.0394  -21.2561  -10.5279 C   0  0  0  0  0  0  0  0  0  0  0  0
   27.9749  -20.8220  -11.4775 C   0  0  2  0  0  0  0  0  0  0  0  0
   26.6830  -21.4344  -11.1220 N   0  0  0  0  0  0  0  0  0  0  0  0
   28.2314  -21.1367  -12.8878 C   0  0  0  0  0  0  0  0  0  0  0  0
   27.8734  -22.2702  -13.3388 O   0  0  0  0  0  0  0  0  0  0  0  0
   28.8574  -20.2121  -13.7364 O   0  0  0  0  0  0  0  0  0  0  0  0
  2  1  1  6
  2  3  1  0
  3  4  1  0
  4  5  1  0
  5  6  2  0
  7  2  1  0
  7  8  2  0
  9  5  1  0
 10  7  1  0
 11 10  1  0
 11 12  1  0
 12 19  1  0
 13 12  2  0
 14 15  1  0
 15 16  1  0
 17 16  1  0
 18 17  1  1
 19 18  1  0
 20 18  1  0
 20 22  1  0
 21 20  2  0
M  END
$$$$
