EGM.pdb
     RDKit          3D

 22 21  0  0  1  0  0  0  0  0999 V2000
   18.2853  -13.5786  -19.4388 N   0  0  0  0  0  0  0  0  0  0  0  0
   19.6527  -13.5533  -18.9573 C   0  0  1  0  0  0  0  0  0  0  0  0
   20.5150  -14.0690  -20.0801 C   0  0  0  0  0  0  0  0  0  0  0  0
   20.3145  -15.4922  -20.4441 C   0  0  0  0  0  0  0  0  0  0  0  0
   21.0640  -15.8568  -21.6509 C   0  0  0  0  0  0  0  0  0  0  0  0
   21.8209  -15.0846  -22.2458 O   0  0  0  0  0  0  0  0  0  0  0  0
   20.1085  -12.1354  -18.7401 C   0  0  0  0  0  0  0  0  0  0  0  0
   21.2899  -11.9666  -18.3669 O   0  0  0  0  0  0  0  0  0  0  0  0
   20.8672  -17.1798  -22.1104 O   0  0  0  0  0  0  0  0  0  0  0  0
   19.2827  -11.0099  -18.9335 N   0  0  0  0  0  0  0  0  0  0  0  0
   19.6651   -9.6529  -18.7802 C   0  0  0  0  0  0  0  0  0  0  0  0
   20.2188   -9.2663  -17.4787 C   0  0  0  0  0  0  0  0  0  0  0  0
   19.5824   -9.7144  -16.4634 O   0  0  0  0  0  0  0  0  0  0  0  0
   26.1976   -9.8922  -15.6523 C   0  0  0  0  0  0  0  0  0  0  0  0
   25.1522  -10.1811  -14.2070 S   0  0  0  0  0  0  0  0  0  0  0  0
   23.6697   -9.1099  -14.3399 C   0  0  0  0  0  0  0  0  0  0  0  0
   23.0289   -9.2960  -15.6858 C   0  0  0  0  0  0  0  0  0  0  0  0
   21.8707   -8.3752  -15.8704 C   0  0  2  0  0  0  0  0  0  0  0  0
   21.3427   -8.4760  -17.2420 N   0  0  0  0  0  0  0  0  0  0  0  0
   22.1546   -6.9578  -15.6173 C   0  0  0  0  0  0  0  0  0  0  0  0
   22.3670   -6.1880  -16.6066 O   0  0  0  0  0  0  0  0  0  0  0  0
   22.1919   -6.4459  -14.3121 O   0  0  0  0  0  0  0  0  0  0  0  0
  2  1  1  6
  2  3  1  0
  3  4  1  0
  4  5  1  0
  5  6  2  0
  7  2  1  0
  7  8  2  0
  9  5  1  0
 10  7  1  0
 11 10  1  0
 11 12  1  0
 12 19  1  0
 13 12  2  0
 14 15  1  0
 15 16  1  0
 17 16  1  0
 18 17  1  6
 19 18  1  0
 20 18  1  0
 20 22  1  0
 21 20  2  0
M  END
$$$$
