EGM.pdb
     RDKit          3D

 22 21  0  0  1  0  0  0  0  0999 V2000
   24.2916  -22.3737  -17.2995 N   0  0  0  0  0  0  0  0  0  0  0  0
   23.9728  -21.7249  -16.0426 C   0  0  1  0  0  0  0  0  0  0  0  0
   22.9262  -22.5759  -15.3712 C   0  0  0  0  0  0  0  0  0  0  0  0
   21.5582  -22.0054  -15.3363 C   0  0  0  0  0  0  0  0  0  0  0  0
   20.6021  -22.9205  -14.7043 C   0  0  0  0  0  0  0  0  0  0  0  0
   20.0204  -23.8263  -15.3079 O   0  0  0  0  0  0  0  0  0  0  0  0
   25.1567  -21.7644  -15.1142 C   0  0  0  0  0  0  0  0  0  0  0  0
   25.9925  -22.6769  -15.2939 O   0  0  0  0  0  0  0  0  0  0  0  0
   20.3752  -22.7032  -13.3254 O   0  0  0  0  0  0  0  0  0  0  0  0
   25.3644  -20.8395  -14.0714 N   0  0  0  0  0  0  0  0  0  0  0  0
   26.5252  -20.7329  -13.2638 C   0  0  0  0  0  0  0  0  0  0  0  0
   26.3647  -21.0239  -11.8357 C   0  0  0  0  0  0  0  0  0  0  0  0
   25.4911  -21.9164  -11.5586 O   0  0  0  0  0  0  0  0  0  0  0  0
   27.6433  -19.7421   -4.1581 C   0  0  0  0  0  0  0  0  0  0  0  0
   28.1631  -19.3739   -5.8490 S   0  0  0  0  0  0  0  0  0  0  0  0
   27.0967  -20.3196   -7.0027 C   0  0  0  0  0  0  0  0  0  0  0  0
   27.5647  -20.1080   -8.4144 C   0  0  0  0  0  0  0  0  0  0  0  0
   26.6637  -20.7799   -9.3943 C   0  0  2  0  0  0  0  0  0  0  0  0
   27.0519  -20.4379  -10.7736 N   0  0  0  0  0  0  0  0  0  0  0  0
   25.2385  -20.4596   -9.2520 C   0  0  0  0  0  0  0  0  0  0  0  0
   24.7598  -19.4838   -9.9116 O   0  0  0  0  0  0  0  0  0  0  0  0
   24.4058  -21.2096   -8.4088 O   0  0  0  0  0  0  0  0  0  0  0  0
  2  1  1  6
  2  3  1  0
  3  4  1  0
  4  5  1  0
  5  6  2  0
  7  2  1  0
  7  8  2  0
  9  5  1  0
 10  7  1  0
 11 10  1  0
 11 12  1  0
 12 19  1  0
 13 12  2  0
 14 15  1  0
 15 16  1  0
 17 16  1  0
 18 17  1  1
 19 18  1  0
 20 18  1  0
 20 22  1  0
 21 20  2  0
M  END
$$$$
