EGM.pdb
     RDKit          3D

 22 21  0  0  1  0  0  0  0  0999 V2000
   17.0463  -11.2166  -16.3707 N   0  0  0  0  0  0  0  0  0  0  0  0
   17.2136   -9.8377  -15.9546 C   0  0  1  0  0  0  0  0  0  0  0  0
   15.8542   -9.3480  -15.5278 C   0  0  0  0  0  0  0  0  0  0  0  0
   14.8796   -9.1200  -16.6216 C   0  0  0  0  0  0  0  0  0  0  0  0
   13.5799   -8.6734  -16.1092 C   0  0  0  0  0  0  0  0  0  0  0  0
   13.3527   -7.5207  -15.7313 O   0  0  0  0  0  0  0  0  0  0  0  0
   18.0594   -9.7614  -14.7121 C   0  0  0  0  0  0  0  0  0  0  0  0
   17.6898  -10.4382  -13.7278 O   0  0  0  0  0  0  0  0  0  0  0  0
   12.5709   -9.6636  -16.0697 O   0  0  0  0  0  0  0  0  0  0  0  0
   19.2263   -8.9782  -14.6068 N   0  0  0  0  0  0  0  0  0  0  0  0
   20.0483   -8.8482  -13.4586 C   0  0  0  0  0  0  0  0  0  0  0  0
   21.3001   -8.1028  -13.6240 C   0  0  0  0  0  0  0  0  0  0  0  0
   21.9665   -7.9157  -12.5482 O   0  0  0  0  0  0  0  0  0  0  0  0
   26.4192  -11.0157  -15.0730 C   0  0  0  0  0  0  0  0  0  0  0  0
   25.9366   -9.4644  -15.8638 S   0  0  0  0  0  0  0  0  0  0  0  0
   24.5857   -8.7080  -14.8811 C   0  0  0  0  0  0  0  0  0  0  0  0
   24.1471   -7.4242  -15.5263 C   0  0  0  0  0  0  0  0  0  0  0  0
   23.0502   -6.7728  -14.7544 C   0  0  2  0  0  0  0  0  0  0  0  0
   21.8242   -7.5878  -14.8089 N   0  0  0  0  0  0  0  0  0  0  0  0
   22.6930   -5.4205  -15.1989 C   0  0  0  0  0  0  0  0  0  0  0  0
   21.5869   -5.2442  -15.8006 O   0  0  0  0  0  0  0  0  0  0  0  0
   23.5456   -4.3310  -14.9689 O   0  0  0  0  0  0  0  0  0  0  0  0
  2  1  1  1
  2  3  1  0
  3  4  1  0
  4  5  1  0
  5  6  2  0
  7  2  1  0
  7  8  2  0
  9  5  1  0
 10  7  1  0
 11 10  1  0
 11 12  1  0
 12 19  1  0
 13 12  2  0
 14 15  1  0
 15 16  1  0
 17 16  1  0
 18 17  1  6
 19 18  1  0
 20 18  1  0
 20 22  1  0
 21 20  2  0
M  END
$$$$
