EGM.pdb
     RDKit          3D

 22 21  0  0  1  0  0  0  0  0999 V2000
   22.5615  -21.5612  -14.0421 N   0  0  0  0  0  0  0  0  0  0  0  0
   23.6164  -21.4339  -15.0287 C   0  0  1  0  0  0  0  0  0  0  0  0
   23.3012  -20.2047  -15.8410 C   0  0  0  0  0  0  0  0  0  0  0  0
   22.0029  -20.2217  -16.5567 C   0  0  0  0  0  0  0  0  0  0  0  0
   21.9337  -21.3131  -17.5341 C   0  0  0  0  0  0  0  0  0  0  0  0
   22.5580  -21.3189  -18.5987 O   0  0  0  0  0  0  0  0  0  0  0  0
   24.9294  -21.1285  -14.3594 C   0  0  0  0  0  0  0  0  0  0  0  0
   25.9701  -21.3539  -15.0150 O   0  0  0  0  0  0  0  0  0  0  0  0
   21.0882  -22.3905  -17.1813 O   0  0  0  0  0  0  0  0  0  0  0  0
   25.0401  -20.6103  -13.0535 N   0  0  0  0  0  0  0  0  0  0  0  0
   26.2458  -20.3534  -12.3526 C   0  0  0  0  0  0  0  0  0  0  0  0
   26.3427  -20.8848  -10.9894 C   0  0  0  0  0  0  0  0  0  0  0  0
   25.5308  -21.8355  -10.7186 O   0  0  0  0  0  0  0  0  0  0  0  0
   28.3234  -19.8380   -3.4315 C   0  0  0  0  0  0  0  0  0  0  0  0
   28.6442  -19.3579   -5.1437 S   0  0  0  0  0  0  0  0  0  0  0  0
   27.4209  -20.1981   -6.2208 C   0  0  0  0  0  0  0  0  0  0  0  0
   27.7831  -19.9830   -7.6628 C   0  0  0  0  0  0  0  0  0  0  0  0
   26.8235  -20.6697   -8.5744 C   0  0  2  0  0  0  0  0  0  0  0  0
   27.2102  -20.4664   -9.9813 N   0  0  0  0  0  0  0  0  0  0  0  0
   25.4251  -20.2444   -8.4424 C   0  0  0  0  0  0  0  0  0  0  0  0
   25.0423  -19.1957   -9.0508 O   0  0  0  0  0  0  0  0  0  0  0  0
   24.5142  -20.9735   -7.6642 O   0  0  0  0  0  0  0  0  0  0  0  0
  2  1  1  1
  2  3  1  0
  3  4  1  0
  4  5  1  0
  5  6  2  0
  7  2  1  0
  7  8  2  0
  9  5  1  0
 10  7  1  0
 11 10  1  0
 11 12  1  0
 12 19  1  0
 13 12  2  0
 14 15  1  0
 15 16  1  0
 17 16  1  0
 18 17  1  1
 19 18  1  0
 20 18  1  0
 20 22  1  0
 21 20  2  0
M  END
$$$$
