EGM.pdb
     RDKit          3D

 22 21  0  0  1  0  0  0  0  0999 V2000
   21.8474  -17.5494  -16.6515 N   0  0  0  0  0  0  0  0  0  0  0  0
   21.8186  -18.6158  -15.6695 C   0  0  1  0  0  0  0  0  0  0  0  0
   20.6118  -19.4608  -15.9856 C   0  0  0  0  0  0  0  0  0  0  0  0
   19.3016  -18.8778  -15.6095 C   0  0  0  0  0  0  0  0  0  0  0  0
   18.4138  -18.7395  -16.7687 C   0  0  0  0  0  0  0  0  0  0  0  0
   18.6867  -19.1654  -17.8944 O   0  0  0  0  0  0  0  0  0  0  0  0
   22.9945  -19.5363  -15.8569 C   0  0  0  0  0  0  0  0  0  0  0  0
   23.2913  -19.8513  -17.0300 O   0  0  0  0  0  0  0  0  0  0  0  0
   17.1919  -18.0720  -16.5206 O   0  0  0  0  0  0  0  0  0  0  0  0
   23.7628  -20.0505  -14.7932 N   0  0  0  0  0  0  0  0  0  0  0  0
   24.8695  -20.9300  -14.9066 C   0  0  0  0  0  0  0  0  0  0  0  0
   25.4567  -21.4168  -13.6544 C   0  0  0  0  0  0  0  0  0  0  0  0
   26.3981  -22.2719  -13.7928 O   0  0  0  0  0  0  0  0  0  0  0  0
   30.8268  -21.5340   -8.9559 C   0  0  0  0  0  0  0  0  0  0  0  0
   29.8723  -20.9981  -10.3935 S   0  0  0  0  0  0  0  0  0  0  0  0
   28.1501  -21.5983  -10.2030 C   0  0  0  0  0  0  0  0  0  0  0  0
   27.3323  -21.1775  -11.3908 C   0  0  0  0  0  0  0  0  0  0  0  0
   25.8985  -21.5524  -11.2262 C   0  0  2  0  0  0  0  0  0  0  0  0
   25.0992  -21.0508  -12.3575 N   0  0  0  0  0  0  0  0  0  0  0  0
   25.2639  -21.0651   -9.9959 C   0  0  0  0  0  0  0  0  0  0  0  0
   24.5850  -19.9910  -10.0393 O   0  0  0  0  0  0  0  0  0  0  0  0
   25.3931  -21.7626   -8.7861 O   0  0  0  0  0  0  0  0  0  0  0  0
  2  1  1  6
  2  3  1  0
  3  4  1  0
  4  5  1  0
  5  6  2  0
  7  2  1  0
  7  8  2  0
  9  5  1  0
 10  7  1  0
 11 10  1  0
 11 12  1  0
 12 19  1  0
 13 12  2  0
 14 15  1  0
 15 16  1  0
 17 16  1  0
 18 17  1  6
 19 18  1  0
 20 18  1  0
 20 22  1  0
 21 20  2  0
M  END
$$$$
