EGM.pdb
     RDKit          3D

 22 21  0  0  1  0  0  0  0  0999 V2000
   15.0116  -12.7938  -16.6504 N   0  0  0  0  0  0  0  0  0  0  0  0
   16.4249  -12.6204  -16.3768 C   0  0  1  0  0  0  0  0  0  0  0  0
   17.1673  -13.3880  -17.4398 C   0  0  0  0  0  0  0  0  0  0  0  0
   17.8873  -14.5980  -16.9754 C   0  0  0  0  0  0  0  0  0  0  0  0
   18.5989  -15.2631  -18.0719 C   0  0  0  0  0  0  0  0  0  0  0  0
   19.6873  -14.8823  -18.5119 O   0  0  0  0  0  0  0  0  0  0  0  0
   16.8292  -11.1854  -16.5830 C   0  0  0  0  0  0  0  0  0  0  0  0
   16.1703  -10.5205  -17.4120 O   0  0  0  0  0  0  0  0  0  0  0  0
   17.9522  -16.3977  -18.6146 O   0  0  0  0  0  0  0  0  0  0  0  0
   17.8950  -10.5669  -15.8993 N   0  0  0  0  0  0  0  0  0  0  0  0
   18.2893   -9.2095  -16.0133 C   0  0  0  0  0  0  0  0  0  0  0  0
   19.3718   -8.7604  -15.1322 C   0  0  0  0  0  0  0  0  0  0  0  0
   19.5423   -9.4661  -14.0789 O   0  0  0  0  0  0  0  0  0  0  0  0
   26.3408  -10.2445  -14.6567 C   0  0  0  0  0  0  0  0  0  0  0  0
   24.6631  -10.2889  -15.3263 S   0  0  0  0  0  0  0  0  0  0  0  0
   23.7259   -8.8711  -14.6377 C   0  0  0  0  0  0  0  0  0  0  0  0
   22.3367   -8.8562  -15.2093 C   0  0  0  0  0  0  0  0  0  0  0  0
   21.5577   -7.6832  -14.7188 C   0  0  2  0  0  0  0  0  0  0  0  0
   20.2138   -7.6655  -15.3220 N   0  0  0  0  0  0  0  0  0  0  0  0
   22.1690   -6.3750  -14.9813 C   0  0  0  0  0  0  0  0  0  0  0  0
   21.9544   -5.8105  -16.1002 O   0  0  0  0  0  0  0  0  0  0  0  0
   22.9764   -5.7448  -14.0233 O   0  0  0  0  0  0  0  0  0  0  0  0
  2  1  1  6
  2  3  1  0
  3  4  1  0
  4  5  1  0
  5  6  2  0
  7  2  1  0
  7  8  2  0
  9  5  1  0
 10  7  1  0
 11 10  1  0
 11 12  1  0
 12 19  1  0
 13 12  2  0
 14 15  1  0
 15 16  1  0
 17 16  1  0
 18 17  1  6
 19 18  1  0
 20 18  1  0
 20 22  1  0
 21 20  2  0
M  END
$$$$
