NLN.pdb
     RDKit          3D

 25 24  0  0  1  0  0  0  0  0999 V2000
   28.5847  -19.3566  -17.6560 N   0  0  0  0  0  0  0  0  0  0  0  0
   27.1844  -19.4512  -17.5183 C   0  0  0  0  0  0  0  0  0  0  0  0
   26.4370  -18.7652  -18.2448 O   0  0  0  0  0  0  0  0  0  0  0  0
   26.6013  -20.3623  -16.5145 C   0  0  0  0  0  0  0  0  0  0  0  0
   25.2577  -19.8073  -16.0966 C   0  0  2  0  0  0  0  0  0  0  0  0
   25.3859  -18.4769  -15.5300 N   0  0  0  0  0  0  0  0  0  0  0  0
   24.5337  -20.6964  -15.1476 C   0  0  0  0  0  0  0  0  0  0  0  0
   24.3118  -21.9149  -15.3800 O   0  0  0  0  0  0  0  0  0  0  0  0
   25.8998  -22.2914  -11.2621 C   0  0  0  0  0  0  0  0  0  0  0  0
   25.4477  -20.8775  -11.3698 C   0  0  2  0  0  0  0  0  0  0  0  0
   25.7445  -20.2155  -10.0040 C   0  0  0  0  0  0  0  0  0  0  0  0
   24.0312  -20.6128  -11.6383 C   0  0  0  0  0  0  0  0  0  0  0  0
   23.3776  -21.0249  -12.8977 C   0  0  2  0  0  0  0  0  0  0  0  0
   24.0671  -20.1769  -13.9269 N   0  0  0  0  0  0  0  0  0  0  0  0
   21.9651  -20.7711  -13.1014 C   0  0  0  0  0  0  0  0  0  0  0  0
   21.1423  -20.7646  -12.1186 O   0  0  0  0  0  0  0  0  0  0  0  0
   17.3840  -18.2306  -14.1586 N   0  0  0  0  0  0  0  0  0  0  0  0
   18.3326  -18.5123  -15.1700 C   0  0  0  0  0  0  0  0  0  0  0  0
   17.9619  -18.5034  -16.3715 O   0  0  0  0  0  0  0  0  0  0  0  0
   19.7316  -18.8103  -14.8507 C   0  0  0  0  0  0  0  0  0  0  0  0
   19.9230  -20.2932  -14.4825 C   0  0  2  0  0  0  0  0  0  0  0  0
   21.3721  -20.5040  -14.3585 N   0  0  0  0  0  0  0  0  0  0  0  0
   19.2832  -21.1946  -15.4301 C   0  0  0  0  0  0  0  0  0  0  0  0
   17.9742  -21.5889  -15.2258 O   0  0  0  0  0  0  0  0  0  0  0  0
   19.8915  -21.6213  -16.4305 O   0  0  0  0  0  0  0  0  0  0  0  0
  2  1  1  0
  2  3  2  0
  4  2  1  0
  5  4  1  0
  5  6  1  1
  7  8  2  0
  7  5  1  0
 10  9  1  1
 10 11  1  0
 10 12  1  0
 13 12  1  1
 13 14  1  0
 14  7  1  0
 15 13  1  0
 15 16  2  0
 18 17  1  0
 18 20  1  0
 19 18  2  0
 21 22  1  0
 21 20  1  6
 22 15  1  0
 23 21  1  0
 24 23  1  0
 25 23  2  0
M  END
$$$$
