NLN.pdb
     RDKit          3D

 25 24  0  0  1  0  0  0  0  0999 V2000
   25.2641  -20.8195   -8.7806 N   0  0  0  0  0  0  0  0  0  0  0  0
   24.1900  -20.8199   -9.6944 C   0  0  0  0  0  0  0  0  0  0  0  0
   23.3091  -21.7008   -9.6235 O   0  0  0  0  0  0  0  0  0  0  0  0
   24.1066  -19.7777  -10.7358 C   0  0  0  0  0  0  0  0  0  0  0  0
   24.2396  -20.4469  -12.0858 C   0  0  2  0  0  0  0  0  0  0  0  0
   25.3923  -21.3283  -12.1301 N   0  0  0  0  0  0  0  0  0  0  0  0
   24.2996  -19.4745  -13.2109 C   0  0  0  0  0  0  0  0  0  0  0  0
   23.5018  -18.5058  -13.3259 O   0  0  0  0  0  0  0  0  0  0  0  0
   28.9116  -18.3715  -17.1605 C   0  0  0  0  0  0  0  0  0  0  0  0
   27.5253  -18.0226  -16.7466 C   0  0  2  0  0  0  0  0  0  0  0  0
   27.5838  -16.5844  -16.1810 C   0  0  0  0  0  0  0  0  0  0  0  0
   26.8795  -18.8303  -15.7077 C   0  0  0  0  0  0  0  0  0  0  0  0
   25.4713  -18.6239  -15.3109 C   0  0  2  0  0  0  0  0  0  0  0  0
   25.2848  -19.6204  -14.2038 N   0  0  0  0  0  0  0  0  0  0  0  0
   24.4021  -18.9120  -16.2463 C   0  0  0  0  0  0  0  0  0  0  0  0
   23.9985  -20.1122  -16.4456 O   0  0  0  0  0  0  0  0  0  0  0  0
   19.0307  -17.9922  -17.7778 N   0  0  0  0  0  0  0  0  0  0  0  0
   20.1854  -18.8085  -17.8281 C   0  0  0  0  0  0  0  0  0  0  0  0
   20.1884  -19.8124  -18.5853 O   0  0  0  0  0  0  0  0  0  0  0  0
   21.3734  -18.5106  -17.0232 C   0  0  0  0  0  0  0  0  0  0  0  0
   22.6179  -18.3086  -17.9073 C   0  0  2  0  0  0  0  0  0  0  0  0
   23.7118  -17.9333  -17.0005 N   0  0  0  0  0  0  0  0  0  0  0  0
   22.3960  -17.3488  -18.9793 C   0  0  0  0  0  0  0  0  0  0  0  0
   21.5939  -17.6911  -20.0518 O   0  0  0  0  0  0  0  0  0  0  0  0
   22.9142  -16.2158  -18.9523 O   0  0  0  0  0  0  0  0  0  0  0  0
  2  1  1  0
  2  3  2  0
  4  2  1  0
  5  4  1  0
  5  6  1  1
  7  8  2  0
  7  5  1  0
 10  9  1  1
 10 11  1  0
 10 12  1  0
 13 12  1  6
 13 14  1  0
 14  7  1  0
 15 13  1  0
 15 16  2  0
 18 17  1  0
 18 20  1  0
 19 18  2  0
 21 22  1  0
 21 20  1  1
 22 15  1  0
 23 21  1  0
 24 23  1  0
 25 23  2  0
M  END
$$$$
