NLN.pdb
     RDKit          3D

 25 24  0  0  1  0  0  0  0  0999 V2000
   30.0374  -28.8120  -22.8356 N   0  0  0  0  0  0  0  0  0  0  0  0
   30.4893  -27.5392  -22.4302 C   0  0  0  0  0  0  0  0  0  0  0  0
   31.3039  -26.9108  -23.1363 O   0  0  0  0  0  0  0  0  0  0  0  0
   29.9987  -26.9487  -21.1699 C   0  0  0  0  0  0  0  0  0  0  0  0
   29.1167  -27.9674  -20.4827 C   0  0  2  0  0  0  0  0  0  0  0  0
   27.7250  -27.8080  -20.8641 N   0  0  0  0  0  0  0  0  0  0  0  0
   29.2441  -27.9374  -19.0002 C   0  0  0  0  0  0  0  0  0  0  0  0
   30.3528  -27.9950  -18.4039 O   0  0  0  0  0  0  0  0  0  0  0  0
   28.7565  -24.4774  -16.8641 C   0  0  0  0  0  0  0  0  0  0  0  0
   27.5190  -25.2539  -17.1482 C   0  0  2  0  0  0  0  0  0  0  0  0
   26.3305  -24.3520  -16.7408 C   0  0  0  0  0  0  0  0  0  0  0  0
   27.3111  -26.5236  -16.4457 C   0  0  0  0  0  0  0  0  0  0  0  0
   28.1430  -27.7156  -16.7100 C   0  0  2  0  0  0  0  0  0  0  0  0
   28.0883  -27.8385  -18.2051 N   0  0  0  0  0  0  0  0  0  0  0  0
   27.7282  -29.0155  -16.2207 C   0  0  0  0  0  0  0  0  0  0  0  0
   27.6760  -29.2676  -14.9650 O   0  0  0  0  0  0  0  0  0  0  0  0
   24.5566  -30.2203  -15.7971 N   0  0  0  0  0  0  0  0  0  0  0  0
   24.5372  -31.1785  -16.8381 C   0  0  0  0  0  0  0  0  0  0  0  0
   23.4509  -31.4182  -17.4243 O   0  0  0  0  0  0  0  0  0  0  0  0
   25.7494  -31.8929  -17.2483 C   0  0  0  0  0  0  0  0  0  0  0  0
   26.9846  -31.4009  -16.4715 C   0  0  2  0  0  0  0  0  0  0  0  0
   27.3424  -30.0973  -17.0478 N   0  0  0  0  0  0  0  0  0  0  0  0
   28.0774  -32.3628  -16.4860 C   0  0  0  0  0  0  0  0  0  0  0  0
   29.3014  -32.0029  -17.0183 O   0  0  0  0  0  0  0  0  0  0  0  0
   27.9358  -33.5117  -16.0246 O   0  0  0  0  0  0  0  0  0  0  0  0
  2  1  1  0
  2  3  2  0
  4  2  1  0
  5  4  1  0
  5  6  1  1
  7  8  2  0
  7  5  1  0
 10  9  1  1
 10 11  1  0
 10 12  1  0
 13 12  1  1
 13 14  1  0
 14  7  1  0
 15 13  1  0
 15 16  2  0
 18 17  1  0
 18 20  1  0
 19 18  2  0
 21 22  1  0
 21 20  1  6
 22 15  1  0
 23 21  1  0
 24 23  1  0
 25 23  2  0
M  END
$$$$
