NLN.pdb
     RDKit          3D

 25 24  0  0  1  0  0  0  0  0999 V2000
   18.4136  -23.5128  -11.1120 N   0  0  0  0  0  0  0  0  0  0  0  0
   18.6957  -22.3215  -11.8120 C   0  0  0  0  0  0  0  0  0  0  0  0
   18.1533  -22.1003  -12.9137 O   0  0  0  0  0  0  0  0  0  0  0  0
   19.6331  -21.3347  -11.2417 C   0  0  0  0  0  0  0  0  0  0  0  0
   20.8513  -21.2686  -12.1359 C   0  0  2  0  0  0  0  0  0  0  0  0
   21.3698  -22.5933  -12.4255 N   0  0  0  0  0  0  0  0  0  0  0  0
   21.9322  -20.4101  -11.5793 C   0  0  0  0  0  0  0  0  0  0  0  0
   21.7570  -19.2032  -11.2617 O   0  0  0  0  0  0  0  0  0  0  0  0
   26.4934  -21.4253   -7.8638 C   0  0  0  0  0  0  0  0  0  0  0  0
   26.0212  -20.5154   -8.9428 C   0  0  2  0  0  0  0  0  0  0  0  0
   25.6856  -19.1664   -8.2651 C   0  0  0  0  0  0  0  0  0  0  0  0
   24.8216  -20.8875   -9.6988 C   0  0  0  0  0  0  0  0  0  0  0  0
   24.3700  -20.1287  -10.8833 C   0  0  2  0  0  0  0  0  0  0  0  0
   23.2175  -20.9478  -11.3875 N   0  0  0  0  0  0  0  0  0  0  0  0
   25.2441  -19.9822  -12.0303 C   0  0  0  0  0  0  0  0  0  0  0  0
   26.5183  -19.9473  -11.8951 O   0  0  0  0  0  0  0  0  0  0  0  0
   26.6354  -23.6299  -15.6351 N   0  0  0  0  0  0  0  0  0  0  0  0
   26.9752  -22.3755  -15.0754 C   0  0  0  0  0  0  0  0  0  0  0  0
   28.0047  -21.7835  -15.4888 O   0  0  0  0  0  0  0  0  0  0  0  0
   26.1570  -21.7523  -14.0313 C   0  0  0  0  0  0  0  0  0  0  0  0
   25.6146  -20.3832  -14.4815 C   0  0  2  0  0  0  0  0  0  0  0  0
   24.7980  -19.8769  -13.3695 N   0  0  0  0  0  0  0  0  0  0  0  0
   24.8964  -20.4515  -15.7461 C   0  0  0  0  0  0  0  0  0  0  0  0
   23.5825  -20.0273  -15.8130 O   0  0  0  0  0  0  0  0  0  0  0  0
   25.4426  -20.8849  -16.7790 O   0  0  0  0  0  0  0  0  0  0  0  0
  2  1  1  0
  2  3  2  0
  4  2  1  0
  5  4  1  0
  5  6  1  1
  7  8  2  0
  7  5  1  0
 10  9  1  1
 10 11  1  0
 10 12  1  0
 13 12  1  1
 13 14  1  0
 14  7  1  0
 15 13  1  0
 15 16  2  0
 18 17  1  0
 18 20  1  0
 19 18  2  0
 21 22  1  0
 21 20  1  1
 22 15  1  0
 23 21  1  0
 24 23  1  0
 25 23  2  0
M  END
$$$$
