NLN.pdb
     RDKit          3D

 25 24  0  0  1  0  0  0  0  0999 V2000
   28.0432  -21.7423  -17.8160 N   0  0  0  0  0  0  0  0  0  0  0  0
   28.6451  -21.9606  -16.5595 C   0  0  0  0  0  0  0  0  0  0  0  0
   29.8608  -22.2322  -16.4874 O   0  0  0  0  0  0  0  0  0  0  0  0
   27.8373  -21.8676  -15.3280 C   0  0  0  0  0  0  0  0  0  0  0  0
   26.3925  -21.6612  -15.7251 C   0  0  2  0  0  0  0  0  0  0  0  0
   26.1630  -20.3127  -16.2114 N   0  0  0  0  0  0  0  0  0  0  0  0
   25.4393  -21.9742  -14.6257 C   0  0  0  0  0  0  0  0  0  0  0  0
   24.9528  -23.1223  -14.4435 O   0  0  0  0  0  0  0  0  0  0  0  0
   25.6203  -22.1839   -9.8808 C   0  0  0  0  0  0  0  0  0  0  0  0
   25.8491  -20.9352  -10.6576 C   0  0  2  0  0  0  0  0  0  0  0  0
   26.1541  -19.8246   -9.6255 C   0  0  0  0  0  0  0  0  0  0  0  0
   24.7579  -20.4156  -11.4871 C   0  0  0  0  0  0  0  0  0  0  0  0
   24.1403  -21.2132  -12.5667 C   0  0  2  0  0  0  0  0  0  0  0  0
   25.0493  -20.9591  -13.7339 N   0  0  0  0  0  0  0  0  0  0  0  0
   22.8170  -20.8773  -13.0537 C   0  0  0  0  0  0  0  0  0  0  0  0
   21.8261  -20.7480  -12.2509 O   0  0  0  0  0  0  0  0  0  0  0  0
   22.9479  -17.8634  -16.9178 N   0  0  0  0  0  0  0  0  0  0  0  0
   21.9449  -18.2817  -16.0116 C   0  0  0  0  0  0  0  0  0  0  0  0
   21.6397  -17.5290  -15.0517 O   0  0  0  0  0  0  0  0  0  0  0  0
   21.2549  -19.5654  -16.1672 C   0  0  0  0  0  0  0  0  0  0  0  0
   21.1287  -20.3049  -14.8224 C   0  0  2  0  0  0  0  0  0  0  0  0
   22.4963  -20.6555  -14.4143 N   0  0  0  0  0  0  0  0  0  0  0  0
   20.2314  -21.4493  -14.8924 C   0  0  0  0  0  0  0  0  0  0  0  0
   18.9034  -21.3028  -14.5380 O   0  0  0  0  0  0  0  0  0  0  0  0
   20.6344  -22.5667  -15.2691 O   0  0  0  0  0  0  0  0  0  0  0  0
  2  1  1  0
  2  3  2  0
  4  2  1  0
  5  4  1  0
  5  6  1  1
  7  8  2  0
  7  5  1  0
 10  9  1  1
 10 11  1  0
 10 12  1  0
 13 12  1  1
 13 14  1  0
 14  7  1  0
 15 13  1  0
 15 16  2  0
 18 17  1  0
 18 20  1  0
 19 18  2  0
 21 22  1  0
 21 20  1  6
 22 15  1  0
 23 21  1  0
 24 23  1  0
 25 23  2  0
M  END
$$$$
