NLN.pdb
     RDKit          3D

 25 24  0  0  1  0  0  0  0  0999 V2000
   19.0775  -13.8969  -18.3345 N   0  0  0  0  0  0  0  0  0  0  0  0
   19.2639  -14.1042  -16.9521 C   0  0  0  0  0  0  0  0  0  0  0  0
   18.7056  -15.0641  -16.3830 O   0  0  0  0  0  0  0  0  0  0  0  0
   20.1202  -13.1858  -16.1769 C   0  0  0  0  0  0  0  0  0  0  0  0
   20.7213  -12.1798  -17.1333 C   0  0  2  0  0  0  0  0  0  0  0  0
   21.7437  -12.7853  -17.9673 N   0  0  0  0  0  0  0  0  0  0  0  0
   21.2721  -10.9819  -16.4429 C   0  0  0  0  0  0  0  0  0  0  0  0
   20.6154  -10.3091  -15.6037 O   0  0  0  0  0  0  0  0  0  0  0  0
   24.9353  -10.2182  -13.5442 C   0  0  0  0  0  0  0  0  0  0  0  0
   25.1061  -10.5867  -14.9760 C   0  0  2  0  0  0  0  0  0  0  0  0
   26.6285  -10.7053  -15.2210 C   0  0  0  0  0  0  0  0  0  0  0  0
   24.6110   -9.6637  -16.0015 C   0  0  0  0  0  0  0  0  0  0  0  0
   23.1798   -9.3185  -16.1260 C   0  0  2  0  0  0  0  0  0  0  0  0
   22.5851  -10.5617  -16.7211 N   0  0  0  0  0  0  0  0  0  0  0  0
   22.7632   -8.2521  -17.0150 C   0  0  0  0  0  0  0  0  0  0  0  0
   22.9339   -8.3382  -18.2824 O   0  0  0  0  0  0  0  0  0  0  0  0
   20.3781   -4.5302  -19.5073 N   0  0  0  0  0  0  0  0  0  0  0  0
   19.9857   -5.8853  -19.3978 C   0  0  0  0  0  0  0  0  0  0  0  0
   19.0499   -6.3084  -20.1233 O   0  0  0  0  0  0  0  0  0  0  0  0
   20.6439   -6.8034  -18.4640 C   0  0  0  0  0  0  0  0  0  0  0  0
   21.6563   -6.0668  -17.5675 C   0  0  2  0  0  0  0  0  0  0  0  0
   22.1387   -7.0544  -16.5920 N   0  0  0  0  0  0  0  0  0  0  0  0
   21.0978   -4.8697  -16.9553 C   0  0  0  0  0  0  0  0  0  0  0  0
   20.7750   -4.8730  -15.6113 O   0  0  0  0  0  0  0  0  0  0  0  0
   20.9041   -3.8327  -17.6186 O   0  0  0  0  0  0  0  0  0  0  0  0
  2  1  1  0
  2  3  2  0
  4  2  1  0
  5  4  1  0
  5  6  1  1
  7  8  2  0
  7  5  1  0
 10  9  1  1
 10 11  1  0
 10 12  1  0
 13 12  1  6
 13 14  1  0
 14  7  1  0
 15 13  1  0
 15 16  2  0
 18 17  1  0
 18 20  1  0
 19 18  2  0
 21 22  1  0
 21 20  1  1
 22 15  1  0
 23 21  1  0
 24 23  1  0
 25 23  2  0
M  END
$$$$
