NLN.pdb
     RDKit          3D

 25 24  0  0  1  0  0  0  0  0999 V2000
   17.6352  -23.6297  -12.7027 N   0  0  0  0  0  0  0  0  0  0  0  0
   17.8757  -22.8483  -11.5537 C   0  0  0  0  0  0  0  0  0  0  0  0
   17.0707  -22.8737  -10.6006 O   0  0  0  0  0  0  0  0  0  0  0  0
   19.0805  -21.9995  -11.4772 C   0  0  0  0  0  0  0  0  0  0  0  0
   19.8343  -22.1304  -12.7820 C   0  0  2  0  0  0  0  0  0  0  0  0
   20.4001  -23.4584  -12.9373 N   0  0  0  0  0  0  0  0  0  0  0  0
   20.8987  -21.1025  -12.9416 C   0  0  0  0  0  0  0  0  0  0  0  0
   20.6675  -19.8639  -12.9188 O   0  0  0  0  0  0  0  0  0  0  0  0
   24.3632  -20.0021  -10.2321 C   0  0  0  0  0  0  0  0  0  0  0  0
   24.4391  -21.2671  -11.0125 C   0  0  2  0  0  0  0  0  0  0  0  0
   25.7734  -21.9450  -10.6228 C   0  0  0  0  0  0  0  0  0  0  0  0
   24.4480  -21.1884  -12.4763 C   0  0  0  0  0  0  0  0  0  0  0  0
   23.3665  -20.5285  -13.2364 C   0  0  2  0  0  0  0  0  0  0  0  0
   22.2331  -21.5066  -13.1256 N   0  0  0  0  0  0  0  0  0  0  0  0
   23.5134  -20.2985  -14.6600 C   0  0  0  0  0  0  0  0  0  0  0  0
   23.4641  -21.2667  -15.4985 O   0  0  0  0  0  0  0  0  0  0  0  0
   22.4327  -17.0247  -19.3266 N   0  0  0  0  0  0  0  0  0  0  0  0
   23.5430  -17.1358  -18.4564 C   0  0  0  0  0  0  0  0  0  0  0  0
   24.6992  -16.9652  -18.9204 O   0  0  0  0  0  0  0  0  0  0  0  0
   23.3766  -17.4412  -17.0327 C   0  0  0  0  0  0  0  0  0  0  0  0
   23.8236  -18.8786  -16.7079 C   0  0  2  0  0  0  0  0  0  0  0  0
   23.7088  -19.0270  -15.2503 N   0  0  0  0  0  0  0  0  0  0  0  0
   25.1517  -19.1834  -17.2206 C   0  0  0  0  0  0  0  0  0  0  0  0
   25.2919  -19.7220  -18.4859 O   0  0  0  0  0  0  0  0  0  0  0  0
   26.1739  -18.9669  -16.5416 O   0  0  0  0  0  0  0  0  0  0  0  0
  2  1  1  0
  2  3  2  0
  4  2  1  0
  5  4  1  0
  5  6  1  1
  7  8  2  0
  7  5  1  0
 10  9  1  1
 10 11  1  0
 10 12  1  0
 13 12  1  6
 13 14  1  0
 14  7  1  0
 15 13  1  0
 15 16  2  0
 18 17  1  0
 18 20  1  0
 19 18  2  0
 21 22  1  0
 21 20  1  1
 22 15  1  0
 23 21  1  0
 24 23  1  0
 25 23  2  0
M  END
$$$$
