NLN.pdb
     RDKit          3D

 25 24  0  0  1  0  0  0  0  0999 V2000
   20.0154  -19.9576   -9.8159 N   0  0  0  0  0  0  0  0  0  0  0  0
   20.1284  -19.8461  -11.2172 C   0  0  0  0  0  0  0  0  0  0  0  0
   19.2276  -20.2950  -11.9547 O   0  0  0  0  0  0  0  0  0  0  0  0
   21.3127  -19.1979  -11.8129 C   0  0  0  0  0  0  0  0  0  0  0  0
   21.6067  -19.8734  -13.1340 C   0  0  2  0  0  0  0  0  0  0  0  0
   21.7153  -21.3130  -12.9815 N   0  0  0  0  0  0  0  0  0  0  0  0
   22.8265  -19.3392  -13.7987 C   0  0  0  0  0  0  0  0  0  0  0  0
   23.0219  -18.1092  -13.9914 O   0  0  0  0  0  0  0  0  0  0  0  0
   27.7873  -18.6220  -13.9460 C   0  0  0  0  0  0  0  0  0  0  0  0
   27.2131  -19.8895  -13.4182 C   0  0  2  0  0  0  0  0  0  0  0  0
   28.3693  -20.9161  -13.3853 C   0  0  0  0  0  0  0  0  0  0  0  0
   26.1318  -20.5353  -14.1682 C   0  0  0  0  0  0  0  0  0  0  0  0
   25.0966  -19.7603  -14.8829 C   0  0  2  0  0  0  0  0  0  0  0  0
   23.8233  -20.2278  -14.2398 N   0  0  0  0  0  0  0  0  0  0  0  0
   24.8856  -19.9641  -16.3025 C   0  0  0  0  0  0  0  0  0  0  0  0
   25.8092  -19.7123  -17.1549 O   0  0  0  0  0  0  0  0  0  0  0  0
   22.1909  -22.8988  -20.7313 N   0  0  0  0  0  0  0  0  0  0  0  0
   22.0434  -21.7237  -19.9569 C   0  0  0  0  0  0  0  0  0  0  0  0
   21.5372  -20.7034  -20.4896 O   0  0  0  0  0  0  0  0  0  0  0  0
   22.4630  -21.6699  -18.5536 C   0  0  0  0  0  0  0  0  0  0  0  0
   23.5410  -20.5937  -18.3278 C   0  0  2  0  0  0  0  0  0  0  0  0
   23.6860  -20.4538  -16.8721 N   0  0  0  0  0  0  0  0  0  0  0  0
   23.2354  -19.3414  -19.0047 C   0  0  0  0  0  0  0  0  0  0  0  0
   22.4008  -18.4203  -18.3999 O   0  0  0  0  0  0  0  0  0  0  0  0
   23.7135  -19.0766  -20.1246 O   0  0  0  0  0  0  0  0  0  0  0  0
  2  1  1  0
  2  3  2  0
  4  2  1  0
  5  4  1  0
  5  6  1  1
  7  8  2  0
  7  5  1  0
 10  9  1  6
 10 11  1  0
 10 12  1  0
 13 12  1  1
 13 14  1  0
 14  7  1  0
 15 13  1  0
 15 16  2  0
 18 17  1  0
 18 20  1  0
 19 18  2  0
 21 22  1  0
 21 20  1  1
 22 15  1  0
 23 21  1  0
 24 23  1  0
 25 23  2  0
M  END
$$$$
