NLN.pdb
     RDKit          3D

 25 24  0  0  1  0  0  0  0  0999 V2000
   17.0837  -14.2993  -17.3471 N   0  0  0  0  0  0  0  0  0  0  0  0
   17.7311  -13.0949  -17.6920 C   0  0  0  0  0  0  0  0  0  0  0  0
   17.5376  -12.5796  -18.8119 O   0  0  0  0  0  0  0  0  0  0  0  0
   18.6384  -12.4424  -16.7284 C   0  0  0  0  0  0  0  0  0  0  0  0
   19.6345  -11.6108  -17.5058 C   0  0  2  0  0  0  0  0  0  0  0  0
   20.5021  -12.4442  -18.3184 N   0  0  0  0  0  0  0  0  0  0  0  0
   20.4522  -10.7230  -16.6351 C   0  0  0  0  0  0  0  0  0  0  0  0
   19.9556  -10.0011  -15.7293 O   0  0  0  0  0  0  0  0  0  0  0  0
   26.5305  -10.7125  -15.6393 C   0  0  0  0  0  0  0  0  0  0  0  0
   25.2578   -9.9646  -15.4496 C   0  0  2  0  0  0  0  0  0  0  0  0
   25.0445   -9.8394  -13.9229 C   0  0  0  0  0  0  0  0  0  0  0  0
   24.0186  -10.5445  -15.9759 C   0  0  0  0  0  0  0  0  0  0  0  0
   22.7366   -9.8101  -15.9610 C   0  0  2  0  0  0  0  0  0  0  0  0
   21.8467  -10.6708  -16.8098 N   0  0  0  0  0  0  0  0  0  0  0  0
   22.6465   -8.4916  -16.5565 C   0  0  0  0  0  0  0  0  0  0  0  0
   22.6833   -8.3323  -17.8278 O   0  0  0  0  0  0  0  0  0  0  0  0
   21.4315   -4.3851  -19.2221 N   0  0  0  0  0  0  0  0  0  0  0  0
   20.8354   -4.7657  -17.9965 C   0  0  0  0  0  0  0  0  0  0  0  0
   20.0355   -3.9731  -17.4369 O   0  0  0  0  0  0  0  0  0  0  0  0
   21.1258   -6.0577  -17.3686 C   0  0  0  0  0  0  0  0  0  0  0  0
   22.4010   -5.9929  -16.5077 C   0  0  2  0  0  0  0  0  0  0  0  0
   22.5033   -7.2894  -15.8233 N   0  0  0  0  0  0  0  0  0  0  0  0
   22.4093   -4.8542  -15.6005 C   0  0  0  0  0  0  0  0  0  0  0  0
   22.8825   -3.6314  -16.0382 O   0  0  0  0  0  0  0  0  0  0  0  0
   21.9948   -4.9555  -14.4297 O   0  0  0  0  0  0  0  0  0  0  0  0
  2  1  1  0
  2  3  2  0
  4  2  1  0
  5  4  1  0
  5  6  1  1
  7  8  2  0
  7  5  1  0
 10  9  1  1
 10 11  1  0
 10 12  1  0
 13 12  1  6
 13 14  1  0
 14  7  1  0
 15 13  1  0
 15 16  2  0
 18 17  1  0
 18 20  1  0
 19 18  2  0
 21 22  1  0
 21 20  1  1
 22 15  1  0
 23 21  1  0
 24 23  1  0
 25 23  2  0
M  END
$$$$
