NLN.pdb
     RDKit          3D

 25 24  0  0  1  0  0  0  0  0999 V2000
   16.7370  -12.0056  -16.6376 N   0  0  0  0  0  0  0  0  0  0  0  0
   17.4358  -12.8197  -15.7224 C   0  0  0  0  0  0  0  0  0  0  0  0
   16.9974  -13.9509  -15.4305 O   0  0  0  0  0  0  0  0  0  0  0  0
   18.6871  -12.3344  -15.1088 C   0  0  0  0  0  0  0  0  0  0  0  0
   19.3814  -11.4306  -16.1033 C   0  0  2  0  0  0  0  0  0  0  0  0
   19.8918  -12.1811  -17.2364 N   0  0  0  0  0  0  0  0  0  0  0  0
   20.4750  -10.6279  -15.4911 C   0  0  0  0  0  0  0  0  0  0  0  0
   20.3165   -9.9257  -14.4567 O   0  0  0  0  0  0  0  0  0  0  0  0
   26.5609  -10.8097  -16.4971 C   0  0  0  0  0  0  0  0  0  0  0  0
   25.4409  -10.0418  -15.8882 C   0  0  2  0  0  0  0  0  0  0  0  0
   25.7422   -9.9502  -14.3741 C   0  0  0  0  0  0  0  0  0  0  0  0
   24.0827  -10.5838  -15.9892 C   0  0  0  0  0  0  0  0  0  0  0  0
   22.8974   -9.8298  -15.5314 C   0  0  2  0  0  0  0  0  0  0  0  0
   21.7549  -10.6384  -16.0739 N   0  0  0  0  0  0  0  0  0  0  0  0
   22.6576   -8.4856  -16.0178 C   0  0  0  0  0  0  0  0  0  0  0  0
   22.3596   -8.2658  -17.2450 O   0  0  0  0  0  0  0  0  0  0  0  0
   21.9350   -3.3531  -16.4843 N   0  0  0  0  0  0  0  0  0  0  0  0
   21.4552   -3.8139  -15.2354 C   0  0  0  0  0  0  0  0  0  0  0  0
   20.8368   -3.0136  -14.4883 O   0  0  0  0  0  0  0  0  0  0  0  0
   21.6593   -5.1971  -14.7960 C   0  0  0  0  0  0  0  0  0  0  0  0
   22.5173   -5.9877  -15.8011 C   0  0  2  0  0  0  0  0  0  0  0  0
   22.7154   -7.3209  -15.2156 N   0  0  0  0  0  0  0  0  0  0  0  0
   23.7611   -5.3084  -16.1346 C   0  0  0  0  0  0  0  0  0  0  0  0
   23.8813   -4.6518  -17.3451 O   0  0  0  0  0  0  0  0  0  0  0  0
   24.7275   -5.3027  -15.3479 O   0  0  0  0  0  0  0  0  0  0  0  0
  2  1  1  0
  2  3  2  0
  4  2  1  0
  5  4  1  0
  5  6  1  6
  7  8  2  0
  7  5  1  0
 10  9  1  6
 10 11  1  0
 10 12  1  0
 13 12  1  6
 13 14  1  0
 14  7  1  0
 15 13  1  0
 15 16  2  0
 18 17  1  0
 18 20  1  0
 19 18  2  0
 21 22  1  0
 21 20  1  1
 22 15  1  0
 23 21  1  0
 24 23  1  0
 25 23  2  0
M  END
$$$$
