NLN.pdb
     RDKit          3D

 25 24  0  0  1  0  0  0  0  0999 V2000
   22.7107  -22.9290  -17.7105 N   0  0  0  0  0  0  0  0  0  0  0  0
   23.7650  -23.8073  -17.3857 C   0  0  0  0  0  0  0  0  0  0  0  0
   23.5747  -24.7423  -16.5815 O   0  0  0  0  0  0  0  0  0  0  0  0
   25.0952  -23.6217  -17.9971 C   0  0  0  0  0  0  0  0  0  0  0  0
   26.1323  -23.6748  -16.8973 C   0  0  2  0  0  0  0  0  0  0  0  0
   26.2139  -24.9990  -16.3080 N   0  0  0  0  0  0  0  0  0  0  0  0
   25.9018  -22.6588  -15.8344 C   0  0  0  0  0  0  0  0  0  0  0  0
   25.7900  -22.9533  -14.6142 O   0  0  0  0  0  0  0  0  0  0  0  0
   27.5205  -16.8295  -15.5601 C   0  0  0  0  0  0  0  0  0  0  0  0
   27.0722  -18.1000  -14.9277 C   0  0  2  0  0  0  0  0  0  0  0  0
   28.3493  -18.8234  -14.4404 C   0  0  0  0  0  0  0  0  0  0  0  0
   26.3535  -19.0773  -15.7505 C   0  0  0  0  0  0  0  0  0  0  0  0
   25.6183  -20.2150  -15.1606 C   0  0  2  0  0  0  0  0  0  0  0  0
   25.8024  -21.2997  -16.1819 N   0  0  0  0  0  0  0  0  0  0  0  0
   24.1839  -20.1333  -14.9683 C   0  0  0  0  0  0  0  0  0  0  0  0
   23.6828  -19.5543  -13.9403 O   0  0  0  0  0  0  0  0  0  0  0  0
   19.0462  -19.9559  -15.7659 N   0  0  0  0  0  0  0  0  0  0  0  0
   19.7317  -20.0148  -17.0024 C   0  0  0  0  0  0  0  0  0  0  0  0
   19.0827  -19.8480  -18.0665 O   0  0  0  0  0  0  0  0  0  0  0  0
   21.1747  -20.2621  -17.0707 C   0  0  0  0  0  0  0  0  0  0  0  0
   21.7882  -20.4145  -15.6665 C   0  0  2  0  0  0  0  0  0  0  0  0
   23.2238  -20.6559  -15.8674 N   0  0  0  0  0  0  0  0  0  0  0  0
   21.1306  -21.4443  -14.8748 C   0  0  0  0  0  0  0  0  0  0  0  0
   19.9119  -21.1785  -14.2792 O   0  0  0  0  0  0  0  0  0  0  0  0
   21.6431  -22.5698  -14.7214 O   0  0  0  0  0  0  0  0  0  0  0  0
  2  1  1  0
  2  3  2  0
  4  2  1  0
  5  4  1  0
  5  6  1  1
  7  8  2  0
  7  5  1  0
 10  9  1  6
 10 11  1  0
 10 12  1  0
 13 12  1  6
 13 14  1  0
 14  7  1  0
 15 13  1  0
 15 16  2  0
 18 17  1  0
 18 20  1  0
 19 18  2  0
 21 22  1  0
 21 20  1  6
 22 15  1  0
 23 21  1  0
 24 23  1  0
 25 23  2  0
M  END
$$$$
