NLN.pdb
     RDKit          3D

 25 24  0  0  1  0  0  0  0  0999 V2000
   28.9347  -19.2202  -17.6822 N   0  0  0  0  0  0  0  0  0  0  0  0
   29.0657  -20.6214  -17.5925 C   0  0  0  0  0  0  0  0  0  0  0  0
   29.8164  -21.2309  -18.3812 O   0  0  0  0  0  0  0  0  0  0  0  0
   28.3150  -21.3687  -16.5651 C   0  0  0  0  0  0  0  0  0  0  0  0
   27.4417  -20.3894  -15.8124 C   0  0  2  0  0  0  0  0  0  0  0  0
   28.2320  -19.3410  -15.1928 N   0  0  0  0  0  0  0  0  0  0  0  0
   26.5806  -21.0471  -14.7921 C   0  0  0  0  0  0  0  0  0  0  0  0
   25.9240  -22.0982  -15.0207 O   0  0  0  0  0  0  0  0  0  0  0  0
   25.9485  -19.7006   -8.7963 C   0  0  0  0  0  0  0  0  0  0  0  0
   25.3774  -20.4467   -9.9505 C   0  0  2  0  0  0  0  0  0  0  0  0
   25.2230  -21.9156   -9.4919 C   0  0  0  0  0  0  0  0  0  0  0  0
   26.1438  -20.5006  -11.1990 C   0  0  0  0  0  0  0  0  0  0  0  0
   25.5809  -21.0596  -12.4455 C   0  0  2  0  0  0  0  0  0  0  0  0
   26.4796  -20.4904  -13.5046 N   0  0  0  0  0  0  0  0  0  0  0  0
   24.2426  -20.6954  -12.8669 C   0  0  0  0  0  0  0  0  0  0  0  0
   23.9557  -19.4922  -13.2029 O   0  0  0  0  0  0  0  0  0  0  0  0
   19.1366  -22.3716  -15.2870 N   0  0  0  0  0  0  0  0  0  0  0  0
   20.1705  -21.4116  -15.1794 C   0  0  0  0  0  0  0  0  0  0  0  0
   19.9292  -20.2192  -15.4972 O   0  0  0  0  0  0  0  0  0  0  0  0
   21.5095  -21.7733  -14.7057 C   0  0  0  0  0  0  0  0  0  0  0  0
   21.8156  -21.1357  -13.3379 C   0  0  2  0  0  0  0  0  0  0  0  0
   23.1572  -21.5993  -12.9574 N   0  0  0  0  0  0  0  0  0  0  0  0
   20.7952  -21.4272  -12.3410 C   0  0  0  0  0  0  0  0  0  0  0  0
   19.6628  -20.6380  -12.2672 O   0  0  0  0  0  0  0  0  0  0  0  0
   20.9181  -22.3801  -11.5474 O   0  0  0  0  0  0  0  0  0  0  0  0
  2  1  1  0
  2  3  2  0
  4  2  1  0
  5  4  1  0
  5  6  1  1
  7  8  2  0
  7  5  1  0
 10  9  1  1
 10 11  1  0
 10 12  1  0
 13 12  1  1
 13 14  1  0
 14  7  1  0
 15 13  1  0
 15 16  2  0
 18 17  1  0
 18 20  1  0
 19 18  2  0
 21 22  1  0
 21 20  1  6
 22 15  1  0
 23 21  1  0
 24 23  1  0
 25 23  2  0
M  END
$$$$
