NLN.pdb
     RDKit          3D

 25 24  0  0  1  0  0  0  0  0999 V2000
   23.2680  -19.3209  -20.0733 N   0  0  0  0  0  0  0  0  0  0  0  0
   22.1139  -18.6120  -19.6807 C   0  0  0  0  0  0  0  0  0  0  0  0
   20.9857  -19.1255  -19.8242 O   0  0  0  0  0  0  0  0  0  0  0  0
   22.2393  -17.2615  -19.0991 C   0  0  0  0  0  0  0  0  0  0  0  0
   23.7097  -16.9147  -19.0229 C   0  0  2  0  0  0  0  0  0  0  0  0
   24.4492  -17.9025  -18.2580 N   0  0  0  0  0  0  0  0  0  0  0  0
   23.9560  -15.5551  -18.4700 C   0  0  0  0  0  0  0  0  0  0  0  0
   23.1645  -14.9827  -17.6737 O   0  0  0  0  0  0  0  0  0  0  0  0
   26.9213  -12.7705  -15.5352 C   0  0  0  0  0  0  0  0  0  0  0  0
   27.3109  -13.7979  -16.5389 C   0  0  2  0  0  0  0  0  0  0  0  0
   28.8568  -13.8048  -16.5841 C   0  0  0  0  0  0  0  0  0  0  0  0
   26.8753  -13.6223  -17.9275 C   0  0  0  0  0  0  0  0  0  0  0  0
   25.4502  -13.4951  -18.2960 C   0  0  2  0  0  0  0  0  0  0  0  0
   25.1203  -14.8563  -18.8361 N   0  0  0  0  0  0  0  0  0  0  0  0
   25.0488  -12.5784  -19.3447 C   0  0  0  0  0  0  0  0  0  0  0  0
   25.4283  -12.7479  -20.5572 O   0  0  0  0  0  0  0  0  0  0  0  0
   20.5213  -12.1124  -19.5419 N   0  0  0  0  0  0  0  0  0  0  0  0
   21.5758  -11.6880  -20.3847 C   0  0  0  0  0  0  0  0  0  0  0  0
   21.9083  -12.4141  -21.3560 O   0  0  0  0  0  0  0  0  0  0  0  0
   22.2843  -10.4260  -20.1539 C   0  0  0  0  0  0  0  0  0  0  0  0
   23.8089  -10.6039  -20.2776 C   0  0  2  0  0  0  0  0  0  0  0  0
   24.2188  -11.4490  -19.1473 N   0  0  0  0  0  0  0  0  0  0  0  0
   24.5193   -9.3347  -20.3423 C   0  0  0  0  0  0  0  0  0  0  0  0
   24.2492   -8.4486  -21.3682 O   0  0  0  0  0  0  0  0  0  0  0  0
   25.3708   -9.0243  -19.4869 O   0  0  0  0  0  0  0  0  0  0  0  0
  2  1  1  0
  2  3  2  0
  4  2  1  0
  5  4  1  0
  5  6  1  1
  7  8  2  0
  7  5  1  0
 10  9  1  1
 10 11  1  0
 10 12  1  0
 13 12  1  6
 13 14  1  0
 14  7  1  0
 15 13  1  0
 15 16  2  0
 18 17  1  0
 18 20  1  0
 19 18  2  0
 21 22  1  0
 21 20  1  1
 22 15  1  0
 23 21  1  0
 24 23  1  0
 25 23  2  0
M  END
$$$$
