NLN.pdb
     RDKit          3D

 25 24  0  0  1  0  0  0  0  0999 V2000
   28.6453  -21.9710  -17.7225 N   0  0  0  0  0  0  0  0  0  0  0  0
   29.1942  -22.2855  -16.4621 C   0  0  0  0  0  0  0  0  0  0  0  0
   30.3276  -22.8017  -16.3850 O   0  0  0  0  0  0  0  0  0  0  0  0
   28.4283  -22.0040  -15.2325 C   0  0  0  0  0  0  0  0  0  0  0  0
   27.0587  -21.5026  -15.6333 C   0  0  2  0  0  0  0  0  0  0  0  0
   27.0597  -20.0661  -15.8432 N   0  0  0  0  0  0  0  0  0  0  0  0
   25.9979  -21.8729  -14.6573 C   0  0  0  0  0  0  0  0  0  0  0  0
   25.4808  -23.0211  -14.6063 O   0  0  0  0  0  0  0  0  0  0  0  0
   25.8383  -21.9604   -9.8176 C   0  0  0  0  0  0  0  0  0  0  0  0
   25.9891  -20.7118  -10.6133 C   0  0  2  0  0  0  0  0  0  0  0  0
   26.0558  -19.5479   -9.5971 C   0  0  0  0  0  0  0  0  0  0  0  0
   24.9290  -20.3508  -11.5593 C   0  0  0  0  0  0  0  0  0  0  0  0
   24.5291  -21.2384  -12.6707 C   0  0  2  0  0  0  0  0  0  0  0  0
   25.5353  -20.9155  -13.7369 N   0  0  0  0  0  0  0  0  0  0  0  0
   23.2431  -21.0622  -13.3159 C   0  0  0  0  0  0  0  0  0  0  0  0
   22.9864  -20.0175  -14.0128 O   0  0  0  0  0  0  0  0  0  0  0  0
   18.4388  -21.6069  -15.2021 N   0  0  0  0  0  0  0  0  0  0  0  0
   19.0764  -22.8677  -15.1230 C   0  0  0  0  0  0  0  0  0  0  0  0
   18.5257  -23.8628  -15.6594 O   0  0  0  0  0  0  0  0  0  0  0  0
   20.3594  -23.0387  -14.4356 C   0  0  0  0  0  0  0  0  0  0  0  0
   20.8796  -21.7038  -13.8710 C   0  0  2  0  0  0  0  0  0  0  0  0
   22.1810  -21.9958  -13.2540 N   0  0  0  0  0  0  0  0  0  0  0  0
   19.9340  -21.0716  -12.9622 C   0  0  0  0  0  0  0  0  0  0  0  0
   18.8875  -20.3253  -13.4707 O   0  0  0  0  0  0  0  0  0  0  0  0
   20.0449  -21.1896  -11.7266 O   0  0  0  0  0  0  0  0  0  0  0  0
  2  1  1  0
  2  3  2  0
  4  2  1  0
  5  4  1  0
  5  6  1  1
  7  8  2  0
  7  5  1  0
 10  9  1  1
 10 11  1  0
 10 12  1  0
 13 12  1  1
 13 14  1  0
 14  7  1  0
 15 13  1  0
 15 16  2  0
 18 17  1  0
 18 20  1  0
 19 18  2  0
 21 22  1  0
 21 20  1  1
 22 15  1  0
 23 21  1  0
 24 23  1  0
 25 23  2  0
M  END
$$$$
