DTY.pdb
     RDKit          3D

 28 28  0  0  1  0  0  0  0  0999 V2000
   22.2867  -13.1787  -17.6236 N   0  0  0  0  0  0  0  0  0  0  0  0
   22.3527  -11.9176  -18.3381 C   0  0  1  0  0  0  0  0  0  0  0  0
   21.9081  -12.1381  -19.7631 C   0  0  0  0  0  0  0  0  0  0  0  0
   22.9349  -12.9832  -20.4301 C   0  0  0  0  0  0  0  0  0  0  0  0
   24.1687  -12.6620  -20.4158 O   0  0  0  0  0  0  0  0  0  0  0  0
   21.4875  -10.9411  -17.6302 C   0  0  0  0  0  0  0  0  0  0  0  0
   20.2354  -11.1337  -17.5069 O   0  0  0  0  0  0  0  0  0  0  0  0
   22.6042  -14.1571  -21.0976 O   0  0  0  0  0  0  0  0  0  0  0  0
   21.1294  -10.0339  -14.2156 C   0  0  0  0  0  0  0  0  0  0  0  0
   21.5220   -8.7695  -14.9410 C   0  0  1  0  0  0  0  0  0  0  0  0
   22.8697   -8.5762  -14.7638 O   0  0  0  0  0  0  0  0  0  0  0  0
   21.0894   -8.8026  -16.3960 C   0  0  2  0  0  0  0  0  0  0  0  0
   21.9879   -9.7428  -17.0502 N   0  0  0  0  0  0  0  0  0  0  0  0
   21.2345   -7.4337  -16.9621 C   0  0  0  0  0  0  0  0  0  0  0  0
   22.3298   -7.0406  -17.4431 O   0  0  0  0  0  0  0  0  0  0  0  0
   19.7591    0.6825  -19.8986 O   0  0  0  0  0  0  0  0  0  0  0  0
   19.7025   -0.6855  -19.5911 C   0  0  0  0  0  0  0  0  0  0  0  0
   18.5629   -1.1733  -18.9914 C   0  0  0  0  0  0  0  0  0  0  0  0
   18.4927   -2.5123  -18.6842 C   0  0  0  0  0  0  0  0  0  0  0  0
   19.5322   -3.4097  -18.9541 C   0  0  0  0  0  0  0  0  0  0  0  0
   19.4213   -4.8337  -18.5818 C   0  0  0  0  0  0  0  0  0  0  0  0
   20.2691   -5.1331  -17.3964 C   0  0  2  0  0  0  0  0  0  0  0  0
   20.1479   -6.5232  -16.9811 N   0  0  0  0  0  0  0  0  0  0  0  0
   19.8897   -4.2825  -16.2586 C   0  0  0  0  0  0  0  0  0  0  0  0
   18.9698   -4.6755  -15.4856 O   0  0  0  0  0  0  0  0  0  0  0  0
   20.6454   -2.8617  -19.5543 C   0  0  0  0  0  0  0  0  0  0  0  0
   20.7477   -1.5199  -19.8763 C   0  0  0  0  0  0  0  0  0  0  0  0
   20.4584   -3.0596  -15.9393 O   0  0  0  0  0  0  0  0  0  0  0  0
  2  1  1  1
  2  3  1  0
  3  4  1  0
  4  8  1  0
  5  4  2  0
  6  2  1  0
  7  6  2  0
 10  9  1  6
 10 11  1  0
 10 12  1  0
 12 14  1  0
 12 13  1  6
 13  6  1  0
 14 15  2  0
 16 17  1  0
 17 18  2  0
 18 19  1  0
 20 19  2  0
 20 21  1  0
 22 21  1  6
 22 24  1  0
 23 22  1  0
 23 14  1  0
 24 25  2  0
 24 28  1  0
 26 20  1  0
 27 17  1  0
 27 26  2  0
M  END
$$$$
