DTY.pdb
     RDKit          3D

 28 28  0  0  1  0  0  0  0  0999 V2000
   18.4402  -13.2521  -15.9569 N   0  0  0  0  0  0  0  0  0  0  0  0
   18.4392  -11.9024  -16.4895 C   0  0  1  0  0  0  0  0  0  0  0  0
   17.0208  -11.3884  -16.5187 C   0  0  0  0  0  0  0  0  0  0  0  0
   16.2540  -12.2353  -17.4716 C   0  0  0  0  0  0  0  0  0  0  0  0
   16.5634  -12.2892  -18.7074 O   0  0  0  0  0  0  0  0  0  0  0  0
   19.3158  -11.0675  -15.6305 C   0  0  0  0  0  0  0  0  0  0  0  0
   19.0712  -10.9084  -14.3916 O   0  0  0  0  0  0  0  0  0  0  0  0
   15.1694  -13.0053  -17.0666 O   0  0  0  0  0  0  0  0  0  0  0  0
   22.8642  -11.5427  -14.8265 C   0  0  0  0  0  0  0  0  0  0  0  0
   22.7193  -10.1608  -15.4168 C   0  0  1  0  0  0  0  0  0  0  0  0
   23.1284  -10.2105  -16.7263 O   0  0  0  0  0  0  0  0  0  0  0  0
   21.3138   -9.6177  -15.2295 C   0  0  2  0  0  0  0  0  0  0  0  0
   20.4703  -10.3984  -16.1228 N   0  0  0  0  0  0  0  0  0  0  0  0
   21.3112   -8.1775  -15.6054 C   0  0  0  0  0  0  0  0  0  0  0  0
   21.1707   -7.8175  -16.8039 O   0  0  0  0  0  0  0  0  0  0  0  0
   20.5971    0.4251  -16.1706 O   0  0  0  0  0  0  0  0  0  0  0  0
   20.5039   -0.9374  -15.8478 C   0  0  0  0  0  0  0  0  0  0  0  0
   20.3237   -1.2847  -14.5276 C   0  0  0  0  0  0  0  0  0  0  0  0
   20.2304   -2.6164  -14.1958 C   0  0  0  0  0  0  0  0  0  0  0  0
   20.3104   -3.6433  -15.1433 C   0  0  0  0  0  0  0  0  0  0  0  0
   20.2313   -5.0598  -14.7357 C   0  0  0  0  0  0  0  0  0  0  0  0
   21.5361   -5.7411  -14.9521 C   0  0  2  0  0  0  0  0  0  0  0  0
   21.4662   -7.1594  -14.6309 N   0  0  0  0  0  0  0  0  0  0  0  0
   22.5830   -5.1353  -14.1160 C   0  0  0  0  0  0  0  0  0  0  0  0
   22.7109   -5.5289  -12.9215 O   0  0  0  0  0  0  0  0  0  0  0  0
   20.4912   -3.2325  -16.4465 C   0  0  0  0  0  0  0  0  0  0  0  0
   20.5888   -1.9019  -16.8134 C   0  0  0  0  0  0  0  0  0  0  0  0
   23.4699   -4.1498  -14.5200 O   0  0  0  0  0  0  0  0  0  0  0  0
  2  1  1  1
  2  3  1  0
  3  4  1  0
  4  8  1  0
  5  4  2  0
  6  2  1  0
  7  6  2  0
 10  9  1  6
 10 11  1  0
 10 12  1  0
 12 14  1  0
 12 13  1  6
 13  6  1  0
 14 15  2  0
 16 17  1  0
 17 18  2  0
 18 19  1  0
 20 19  2  0
 20 21  1  0
 22 21  1  1
 22 24  1  0
 23 22  1  0
 23 14  1  0
 24 25  2  0
 24 28  1  0
 26 20  1  0
 27 17  1  0
 27 26  2  0
M  END
$$$$
