DTY.pdb
     RDKit          3D

 28 28  0  0  1  0  0  0  0  0999 V2000
   18.8730  -13.4594  -16.9545 N   0  0  0  0  0  0  0  0  0  0  0  0
   18.2106  -12.3004  -16.3860 C   0  0  1  0  0  0  0  0  0  0  0  0
   17.8203  -12.6090  -14.9614 C   0  0  0  0  0  0  0  0  0  0  0  0
   16.4748  -13.2431  -14.9900 C   0  0  0  0  0  0  0  0  0  0  0  0
   16.3299  -14.4777  -15.2738 O   0  0  0  0  0  0  0  0  0  0  0  0
   19.1436  -11.1490  -16.4701 C   0  0  0  0  0  0  0  0  0  0  0  0
   20.4024  -11.3082  -16.3699 O   0  0  0  0  0  0  0  0  0  0  0  0
   15.3157  -12.5277  -14.7108 O   0  0  0  0  0  0  0  0  0  0  0  0
   19.4114   -8.6977  -19.3148 C   0  0  0  0  0  0  0  0  0  0  0  0
   19.1935   -7.9362  -18.0295 C   0  0  1  0  0  0  0  0  0  0  0  0
   17.8730   -7.5653  -17.9714 O   0  0  0  0  0  0  0  0  0  0  0  0
   19.6655   -8.7287  -16.8235 C   0  0  2  0  0  0  0  0  0  0  0  0
   18.7042   -9.8104  -16.6653 N   0  0  0  0  0  0  0  0  0  0  0  0
   19.6653   -7.8282  -15.6384 C   0  0  0  0  0  0  0  0  0  0  0  0
   18.6911   -7.8013  -14.8410 O   0  0  0  0  0  0  0  0  0  0  0  0
   26.2020   -5.3151  -17.4780 O   0  0  0  0  0  0  0  0  0  0  0  0
   25.2165   -5.5064  -16.4974 C   0  0  0  0  0  0  0  0  0  0  0  0
   24.8114   -6.7932  -16.2213 C   0  0  0  0  0  0  0  0  0  0  0  0
   23.8463   -6.9965  -15.2625 C   0  0  0  0  0  0  0  0  0  0  0  0
   23.2517   -5.9499  -14.5484 C   0  0  0  0  0  0  0  0  0  0  0  0
   22.2004   -6.2155  -13.5469 C   0  0  0  0  0  0  0  0  0  0  0  0
   20.8516   -6.1398  -14.1702 C   0  0  2  0  0  0  0  0  0  0  0  0
   20.7591   -6.9690  -15.3633 N   0  0  0  0  0  0  0  0  0  0  0  0
   20.5326   -4.7559  -14.5509 C   0  0  0  0  0  0  0  0  0  0  0  0
   20.4442   -4.4679  -15.7787 O   0  0  0  0  0  0  0  0  0  0  0  0
   23.6985   -4.6862  -14.8698 C   0  0  0  0  0  0  0  0  0  0  0  0
   24.6673   -4.4477  -15.8285 C   0  0  0  0  0  0  0  0  0  0  0  0
   20.3103   -3.7072  -13.6724 O   0  0  0  0  0  0  0  0  0  0  0  0
  2  1  1  1
  2  3  1  0
  3  4  1  0
  4  8  1  0
  5  4  2  0
  6  2  1  0
  7  6  2  0
 10  9  1  6
 10 11  1  0
 10 12  1  0
 12 14  1  0
 12 13  1  1
 13  6  1  0
 14 15  2  0
 16 17  1  0
 17 18  2  0
 18 19  1  0
 20 19  2  0
 20 21  1  0
 22 21  1  6
 22 24  1  0
 23 22  1  0
 23 14  1  0
 24 25  2  0
 24 28  1  0
 26 20  1  0
 27 17  1  0
 27 26  2  0
M  END
$$$$
