DTY.pdb
     RDKit          3D

 28 28  0  0  1  0  0  0  0  0999 V2000
   19.0019  -13.2111  -15.4121 N   0  0  0  0  0  0  0  0  0  0  0  0
   19.2176  -12.1244  -16.3491 C   0  0  1  0  0  0  0  0  0  0  0  0
   17.9053  -11.4206  -16.5933 C   0  0  0  0  0  0  0  0  0  0  0  0
   16.9928  -12.3872  -17.2614 C   0  0  0  0  0  0  0  0  0  0  0  0
   17.4143  -13.1783  -18.1681 O   0  0  0  0  0  0  0  0  0  0  0  0
   20.2381  -11.2141  -15.7720 C   0  0  0  0  0  0  0  0  0  0  0  0
   20.1001  -10.7178  -14.6081 O   0  0  0  0  0  0  0  0  0  0  0  0
   15.6446  -12.4766  -16.9337 O   0  0  0  0  0  0  0  0  0  0  0  0
   24.8339   -9.3964  -16.0043 C   0  0  0  0  0  0  0  0  0  0  0  0
   23.7292  -10.3050  -16.4874 C   0  0  1  0  0  0  0  0  0  0  0  0
   24.1232  -11.6038  -16.2810 O   0  0  0  0  0  0  0  0  0  0  0  0
   22.3976   -9.9549  -15.8473 C   0  0  2  0  0  0  0  0  0  0  0  0
   21.4211  -10.8391  -16.4668 N   0  0  0  0  0  0  0  0  0  0  0  0
   22.0953   -8.5271  -16.1392 C   0  0  0  0  0  0  0  0  0  0  0  0
   21.7741   -8.1531  -17.2979 O   0  0  0  0  0  0  0  0  0  0  0  0
   19.8555   -0.1130  -15.5277 O   0  0  0  0  0  0  0  0  0  0  0  0
   20.0932   -1.4706  -15.2636 C   0  0  0  0  0  0  0  0  0  0  0  0
   20.9542   -1.7954  -14.2392 C   0  0  0  0  0  0  0  0  0  0  0  0
   21.1969   -3.1221  -13.9684 C   0  0  0  0  0  0  0  0  0  0  0  0
   20.6060   -4.1657  -14.6898 C   0  0  0  0  0  0  0  0  0  0  0  0
   20.9179   -5.5746  -14.3793 C   0  0  0  0  0  0  0  0  0  0  0  0
   21.8892   -6.1254  -15.3625 C   0  0  2  0  0  0  0  0  0  0  0  0
   22.1573   -7.5368  -15.1264 N   0  0  0  0  0  0  0  0  0  0  0  0
   23.1665   -5.4006  -15.2923 C   0  0  0  0  0  0  0  0  0  0  0  0
   24.0538   -5.8084  -14.4893 O   0  0  0  0  0  0  0  0  0  0  0  0
   19.7550   -3.7771  -15.7019 C   0  0  0  0  0  0  0  0  0  0  0  0
   19.4894   -2.4522  -15.9998 C   0  0  0  0  0  0  0  0  0  0  0  0
   23.5047   -4.2851  -16.0421 O   0  0  0  0  0  0  0  0  0  0  0  0
  2  1  1  1
  2  3  1  0
  3  4  1  0
  4  8  1  0
  5  4  2  0
  6  2  1  0
  7  6  2  0
 10  9  1  1
 10 11  1  0
 10 12  1  0
 12 14  1  0
 12 13  1  6
 13  6  1  0
 14 15  2  0
 16 17  1  0
 17 18  2  0
 18 19  1  0
 20 19  2  0
 20 21  1  0
 22 21  1  1
 22 24  1  0
 23 22  1  0
 23 14  1  0
 24 25  2  0
 24 28  1  0
 26 20  1  0
 27 17  1  0
 27 26  2  0
M  END
$$$$
