DTY.pdb
     RDKit          3D

 28 28  0  0  1  0  0  0  0  0999 V2000
   26.6188  -22.0212  -18.9646 N   0  0  0  0  0  0  0  0  0  0  0  0
   28.0480  -22.0114  -18.7145 C   0  0  1  0  0  0  0  0  0  0  0  0
   28.7537  -21.4568  -19.9276 C   0  0  0  0  0  0  0  0  0  0  0  0
   28.4461  -22.3510  -21.0761 C   0  0  0  0  0  0  0  0  0  0  0  0
   27.8082  -21.9256  -22.0948 O   0  0  0  0  0  0  0  0  0  0  0  0
   28.2982  -21.1920  -17.5024 C   0  0  0  0  0  0  0  0  0  0  0  0
   29.4776  -20.8537  -17.1639 O   0  0  0  0  0  0  0  0  0  0  0  0
   28.8355  -23.6855  -21.0971 O   0  0  0  0  0  0  0  0  0  0  0  0
   27.6966  -17.7725  -16.6517 C   0  0  0  0  0  0  0  0  0  0  0  0
   26.9171  -18.6073  -15.6644 C   0  0  1  0  0  0  0  0  0  0  0  0
   25.6136  -18.6675  -16.0911 O   0  0  0  0  0  0  0  0  0  0  0  0
   27.5601  -19.9661  -15.4513 C   0  0  2  0  0  0  0  0  0  0  0  0
   27.2560  -20.7353  -16.6491 N   0  0  0  0  0  0  0  0  0  0  0  0
   26.9562  -20.5887  -14.2417 C   0  0  0  0  0  0  0  0  0  0  0  0
   25.9438  -21.3324  -14.3286 O   0  0  0  0  0  0  0  0  0  0  0  0
   24.4119  -20.9940   -5.8316 O   0  0  0  0  0  0  0  0  0  0  0  0
   25.1797  -20.7669   -6.9841 C   0  0  0  0  0  0  0  0  0  0  0  0
   25.4005  -21.8229   -7.8400 C   0  0  0  0  0  0  0  0  0  0  0  0
   26.1511  -21.6156   -8.9739 C   0  0  0  0  0  0  0  0  0  0  0  0
   26.7056  -20.3732   -9.3019 C   0  0  0  0  0  0  0  0  0  0  0  0
   27.5267  -20.2056  -10.5170 C   0  0  0  0  0  0  0  0  0  0  0  0
   26.7933  -20.6922  -11.7165 C   0  0  2  0  0  0  0  0  0  0  0  0
   27.4966  -20.3686  -12.9495 N   0  0  0  0  0  0  0  0  0  0  0  0
   25.4531  -20.0912  -11.7848 C   0  0  0  0  0  0  0  0  0  0  0  0
   25.3326  -18.9261  -12.2603 O   0  0  0  0  0  0  0  0  0  0  0  0
   26.4501  -19.3568   -8.4067 C   0  0  0  0  0  0  0  0  0  0  0  0
   25.6992  -19.5320   -7.2577 C   0  0  0  0  0  0  0  0  0  0  0  0
   24.2757  -20.6935  -11.3704 O   0  0  0  0  0  0  0  0  0  0  0  0
  2  1  1  6
  2  3  1  0
  3  4  1  0
  4  8  1  0
  5  4  2  0
  6  2  1  0
  7  6  2  0
 10  9  1  6
 10 11  1  0
 10 12  1  0
 12 14  1  0
 12 13  1  6
 13  6  1  0
 14 15  2  0
 16 17  1  0
 17 18  2  0
 18 19  1  0
 20 19  2  0
 20 21  1  0
 22 21  1  1
 22 24  1  0
 23 22  1  0
 23 14  1  0
 24 25  2  0
 24 28  1  0
 26 20  1  0
 27 17  1  0
 27 26  2  0
M  END
$$$$
