DTY.pdb
     RDKit          3D

 28 28  0  0  1  0  0  0  0  0999 V2000
   19.5078  -14.9487  -17.9284 N   0  0  0  0  0  0  0  0  0  0  0  0
   18.8322  -13.6902  -17.6731 C   0  0  1  0  0  0  0  0  0  0  0  0
   17.7979  -13.8996  -16.5944 C   0  0  0  0  0  0  0  0  0  0  0  0
   16.7196  -14.7521  -17.1632 C   0  0  0  0  0  0  0  0  0  0  0  0
   16.7320  -16.0192  -17.0209 O   0  0  0  0  0  0  0  0  0  0  0  0
   19.8550  -12.6903  -17.2765 C   0  0  0  0  0  0  0  0  0  0  0  0
   20.8796  -13.0242  -16.5992 O   0  0  0  0  0  0  0  0  0  0  0  0
   15.6517  -14.2152  -17.8733 O   0  0  0  0  0  0  0  0  0  0  0  0
   21.7744  -10.4919  -19.5257 C   0  0  0  0  0  0  0  0  0  0  0  0
   21.1588   -9.5999  -18.4748 C   0  0  1  0  0  0  0  0  0  0  0  0
   20.0959   -8.9418  -19.0421 O   0  0  0  0  0  0  0  0  0  0  0  0
   20.8046  -10.3774  -17.2196 C   0  0  2  0  0  0  0  0  0  0  0  0
   19.7636  -11.3130  -17.6194 N   0  0  0  0  0  0  0  0  0  0  0  0
   20.3052   -9.4185  -16.1966 C   0  0  0  0  0  0  0  0  0  0  0  0
   19.0757   -9.1740  -16.0785 O   0  0  0  0  0  0  0  0  0  0  0  0
   19.5715   -4.4888   -8.9890 O   0  0  0  0  0  0  0  0  0  0  0  0
   20.0965   -5.2691  -10.0306 C   0  0  0  0  0  0  0  0  0  0  0  0
   19.8082   -6.6155  -10.0468 C   0  0  0  0  0  0  0  0  0  0  0  0
   20.3156   -7.3932  -11.0617 C   0  0  0  0  0  0  0  0  0  0  0  0
   21.1172   -6.8775  -12.0865 C   0  0  0  0  0  0  0  0  0  0  0  0
   21.6609   -7.7568  -13.1401 C   0  0  0  0  0  0  0  0  0  0  0  0
   20.7598   -7.7753  -14.3239 C   0  0  2  0  0  0  0  0  0  0  0  0
   21.1927   -8.7462  -15.3187 N   0  0  0  0  0  0  0  0  0  0  0  0
   20.7180   -6.4529  -14.9652 C   0  0  0  0  0  0  0  0  0  0  0  0
   21.6273   -6.1473  -15.7886 O   0  0  0  0  0  0  0  0  0  0  0  0
   21.3705   -5.5246  -12.0150 C   0  0  0  0  0  0  0  0  0  0  0  0
   20.8754   -4.7147  -11.0082 C   0  0  0  0  0  0  0  0  0  0  0  0
   19.7520   -5.4821  -14.7525 O   0  0  0  0  0  0  0  0  0  0  0  0
  2  1  1  1
  2  3  1  0
  3  4  1  0
  4  8  1  0
  5  4  2  0
  6  2  1  0
  7  6  2  0
 10  9  1  6
 10 11  1  0
 10 12  1  0
 12 14  1  0
 12 13  1  6
 13  6  1  0
 14 15  2  0
 16 17  1  0
 17 18  2  0
 18 19  1  0
 20 19  2  0
 20 21  1  0
 22 21  1  1
 22 24  1  0
 23 22  1  0
 23 14  1  0
 24 25  2  0
 24 28  1  0
 26 20  1  0
 27 17  1  0
 27 26  2  0
M  END
$$$$
