DTY.pdb
     RDKit          3D

 28 28  0  0  1  0  0  0  0  0999 V2000
   20.2102  -12.2572  -19.6709 N   0  0  0  0  0  0  0  0  0  0  0  0
   21.3695  -11.6406  -19.0535 C   0  0  1  0  0  0  0  0  0  0  0  0
   22.3954  -11.3481  -20.1208 C   0  0  0  0  0  0  0  0  0  0  0  0
   22.9161  -12.6512  -20.6148 C   0  0  0  0  0  0  0  0  0  0  0  0
   22.5298  -13.1405  -21.7271 O   0  0  0  0  0  0  0  0  0  0  0  0
   20.9210  -10.4072  -18.3601 C   0  0  0  0  0  0  0  0  0  0  0  0
   20.5151   -9.3919  -19.0116 O   0  0  0  0  0  0  0  0  0  0  0  0
   23.8431  -13.3962  -19.8946 O   0  0  0  0  0  0  0  0  0  0  0  0
   18.1831  -10.0867  -15.8441 C   0  0  0  0  0  0  0  0  0  0  0  0
   19.4473   -9.5225  -15.2421 C   0  0  1  0  0  0  0  0  0  0  0  0
   19.9675  -10.4599  -14.3844 O   0  0  0  0  0  0  0  0  0  0  0  0
   20.4186   -9.0602  -16.3137 C   0  0  2  0  0  0  0  0  0  0  0  0
   20.9135  -10.2755  -16.9440 N   0  0  0  0  0  0  0  0  0  0  0  0
   21.5204   -8.3051  -15.6569 C   0  0  0  0  0  0  0  0  0  0  0  0
   22.5329   -8.8973  -15.1988 O   0  0  0  0  0  0  0  0  0  0  0  0
   19.3912   -1.5687  -18.1546 O   0  0  0  0  0  0  0  0  0  0  0  0
   20.3141   -2.4952  -17.6456 C   0  0  0  0  0  0  0  0  0  0  0  0
   21.0536   -2.1399  -16.5397 C   0  0  0  0  0  0  0  0  0  0  0  0
   21.9622   -3.0378  -16.0292 C   0  0  0  0  0  0  0  0  0  0  0  0
   22.1726   -4.3051  -16.5843 C   0  0  0  0  0  0  0  0  0  0  0  0
   23.1782   -5.2248  -16.0171 C   0  0  0  0  0  0  0  0  0  0  0  0
   22.5642   -6.0988  -14.9815 C   0  0  2  0  0  0  0  0  0  0  0  0
   21.4718   -6.8945  -15.5228 N   0  0  0  0  0  0  0  0  0  0  0  0
   22.0351   -5.2942  -13.8703 C   0  0  0  0  0  0  0  0  0  0  0  0
   20.7859   -5.2704  -13.6775 O   0  0  0  0  0  0  0  0  0  0  0  0
   21.4034   -4.6019  -17.6889 C   0  0  0  0  0  0  0  0  0  0  0  0
   20.4811   -3.7217  -18.2268 C   0  0  0  0  0  0  0  0  0  0  0  0
   22.7917   -4.5402  -12.9871 O   0  0  0  0  0  0  0  0  0  0  0  0
  2  1  1  6
  2  3  1  0
  3  4  1  0
  4  8  1  0
  5  4  2  0
  6  2  1  0
  7  6  2  0
 10  9  1  6
 10 11  1  0
 10 12  1  0
 12 14  1  0
 12 13  1  1
 13  6  1  0
 14 15  2  0
 16 17  1  0
 17 18  2  0
 18 19  1  0
 20 19  2  0
 20 21  1  0
 22 21  1  6
 22 24  1  0
 23 22  1  0
 23 14  1  0
 24 25  2  0
 24 28  1  0
 26 20  1  0
 27 17  1  0
 27 26  2  0
M  END
$$$$
