DTY.pdb
     RDKit          3D

 28 28  0  0  1  0  0  0  0  0999 V2000
   18.9717  -13.2120  -16.9080 N   0  0  0  0  0  0  0  0  0  0  0  0
   18.2059  -12.0408  -16.5243 C   0  0  1  0  0  0  0  0  0  0  0  0
   17.7699  -12.1898  -15.0873 C   0  0  0  0  0  0  0  0  0  0  0  0
   16.5913  -13.0974  -15.0656 C   0  0  0  0  0  0  0  0  0  0  0  0
   15.4658  -12.7335  -15.5417 O   0  0  0  0  0  0  0  0  0  0  0  0
   19.0616  -10.8447  -16.7247 C   0  0  0  0  0  0  0  0  0  0  0  0
   20.3313  -10.9334  -16.7361 O   0  0  0  0  0  0  0  0  0  0  0  0
   16.6563  -14.3786  -14.5295 O   0  0  0  0  0  0  0  0  0  0  0  0
   17.3736   -7.1218  -17.7947 C   0  0  0  0  0  0  0  0  0  0  0  0
   18.7614   -7.5592  -18.1969 C   0  0  1  0  0  0  0  0  0  0  0  0
   19.4777   -6.4410  -18.5453 O   0  0  0  0  0  0  0  0  0  0  0  0
   19.4174   -8.4003  -17.1163 C   0  0  2  0  0  0  0  0  0  0  0  0
   18.5323   -9.5383  -16.9148 N   0  0  0  0  0  0  0  0  0  0  0  0
   19.5287   -7.5773  -15.8811 C   0  0  0  0  0  0  0  0  0  0  0  0
   18.5845   -7.5190  -15.0501 O   0  0  0  0  0  0  0  0  0  0  0  0
   26.1565   -5.9418  -17.9238 O   0  0  0  0  0  0  0  0  0  0  0  0
   25.2119   -6.0444  -16.8911 C   0  0  0  0  0  0  0  0  0  0  0  0
   24.6218   -7.2680  -16.6654 C   0  0  0  0  0  0  0  0  0  0  0  0
   23.6941   -7.3842  -15.6564 C   0  0  0  0  0  0  0  0  0  0  0  0
   23.3184   -6.3099  -14.8418 C   0  0  0  0  0  0  0  0  0  0  0  0
   22.2982   -6.4770  -13.7881 C   0  0  0  0  0  0  0  0  0  0  0  0
   20.9420   -6.1720  -14.3186 C   0  0  2  0  0  0  0  0  0  0  0  0
   20.6990   -6.8300  -15.5944 N   0  0  0  0  0  0  0  0  0  0  0  0
   20.7740   -4.7243  -14.5128 C   0  0  0  0  0  0  0  0  0  0  0  0
   20.7530   -3.9727  -13.4965 O   0  0  0  0  0  0  0  0  0  0  0  0
   23.9431   -5.1125  -15.1168 C   0  0  0  0  0  0  0  0  0  0  0  0
   24.8802   -4.9622  -16.1238 C   0  0  0  0  0  0  0  0  0  0  0  0
   20.6351   -4.0839  -15.7341 O   0  0  0  0  0  0  0  0  0  0  0  0
  2  1  1  1
  2  3  1  0
  3  4  1  0
  4  8  1  0
  5  4  2  0
  6  2  1  0
  7  6  2  0
 10  9  1  1
 10 11  1  0
 10 12  1  0
 12 14  1  0
 12 13  1  1
 13  6  1  0
 14 15  2  0
 16 17  1  0
 17 18  2  0
 18 19  1  0
 20 19  2  0
 20 21  1  0
 22 21  1  6
 22 24  1  0
 23 22  1  0
 23 14  1  0
 24 25  2  0
 24 28  1  0
 26 20  1  0
 27 17  1  0
 27 26  2  0
M  END
$$$$
