DTY.pdb
     RDKit          3D

 28 28  0  0  1  0  0  0  0  0999 V2000
   19.8603  -11.1728  -17.9656 N   0  0  0  0  0  0  0  0  0  0  0  0
   19.2175   -9.8822  -18.1286 C   0  0  1  0  0  0  0  0  0  0  0  0
   18.1754   -9.7144  -17.0502 C   0  0  0  0  0  0  0  0  0  0  0  0
   16.8449   -9.9673  -17.6659 C   0  0  0  0  0  0  0  0  0  0  0  0
   16.7117  -10.7649  -18.6518 O   0  0  0  0  0  0  0  0  0  0  0  0
   20.2653   -8.8333  -18.0575 C   0  0  0  0  0  0  0  0  0  0  0  0
   21.2770   -8.9587  -17.2955 O   0  0  0  0  0  0  0  0  0  0  0  0
   15.6879   -9.3519  -17.2015 O   0  0  0  0  0  0  0  0  0  0  0  0
   22.2343   -4.7340  -20.0234 C   0  0  0  0  0  0  0  0  0  0  0  0
   21.2336   -5.8643  -20.0207 C   0  0  1  0  0  0  0  0  0  0  0  0
   21.4572   -6.6357  -21.1341 O   0  0  0  0  0  0  0  0  0  0  0  0
   21.2695   -6.6394  -18.7155 C   0  0  2  0  0  0  0  0  0  0  0  0
   20.2134   -7.6354  -18.8226 N   0  0  0  0  0  0  0  0  0  0  0  0
   21.0076   -5.6922  -17.5977 C   0  0  0  0  0  0  0  0  0  0  0  0
   19.8725   -5.1709  -17.4383 O   0  0  0  0  0  0  0  0  0  0  0  0
   18.6484   -8.9993  -12.4340 O   0  0  0  0  0  0  0  0  0  0  0  0
   19.5143   -7.9937  -12.8901 C   0  0  0  0  0  0  0  0  0  0  0  0
   20.8045   -8.3436  -13.2208 C   0  0  0  0  0  0  0  0  0  0  0  0
   21.6649   -7.3687  -13.6696 C   0  0  0  0  0  0  0  0  0  0  0  0
   21.2889   -6.0276  -13.8073 C   0  0  0  0  0  0  0  0  0  0  0  0
   22.2557   -5.0118  -14.2680 C   0  0  0  0  0  0  0  0  0  0  0  0
   21.8197   -4.4223  -15.5626 C   0  0  2  0  0  0  0  0  0  0  0  0
   22.0233   -5.3423  -16.6724 N   0  0  0  0  0  0  0  0  0  0  0  0
   22.5672   -3.1892  -15.8495 C   0  0  0  0  0  0  0  0  0  0  0  0
   22.3934   -2.1846  -15.1019 O   0  0  0  0  0  0  0  0  0  0  0  0
   19.9863   -5.7402  -13.4605 C   0  0  0  0  0  0  0  0  0  0  0  0
   19.0960   -6.6970  -13.0061 C   0  0  0  0  0  0  0  0  0  0  0  0
   23.4709   -3.0149  -16.8858 O   0  0  0  0  0  0  0  0  0  0  0  0
  2  1  1  1
  2  3  1  0
  3  4  1  0
  4  8  1  0
  5  4  2  0
  6  2  1  0
  7  6  2  0
 10  9  1  1
 10 11  1  0
 10 12  1  0
 12 14  1  0
 12 13  1  6
 13  6  1  0
 14 15  2  0
 16 17  1  0
 17 18  2  0
 18 19  1  0
 20 19  2  0
 20 21  1  0
 22 21  1  1
 22 24  1  0
 23 22  1  0
 23 14  1  0
 24 25  2  0
 24 28  1  0
 26 20  1  0
 27 17  1  0
 27 26  2  0
M  END
$$$$
