DTY.pdb
     RDKit          3D

 28 28  0  0  1  0  0  0  0  0999 V2000
   16.9539  -12.2502  -17.4923 N   0  0  0  0  0  0  0  0  0  0  0  0
   18.1249  -12.0651  -18.3289 C   0  0  1  0  0  0  0  0  0  0  0  0
   17.9390  -12.8404  -19.6101 C   0  0  0  0  0  0  0  0  0  0  0  0
   18.0034  -14.2882  -19.2741 C   0  0  0  0  0  0  0  0  0  0  0  0
   17.0873  -14.8508  -18.5886 O   0  0  0  0  0  0  0  0  0  0  0  0
   18.2884  -10.6109  -18.5774 C   0  0  0  0  0  0  0  0  0  0  0  0
   19.1838  -10.1710  -19.3679 O   0  0  0  0  0  0  0  0  0  0  0  0
   19.0573  -15.0954  -19.6872 O   0  0  0  0  0  0  0  0  0  0  0  0
   15.3901   -8.3124  -19.5231 C   0  0  0  0  0  0  0  0  0  0  0  0
   16.1696   -7.6911  -18.3893 C   0  0  1  0  0  0  0  0  0  0  0  0
   15.4578   -7.8753  -17.2300 O   0  0  0  0  0  0  0  0  0  0  0  0
   17.5910   -8.2217  -18.3317 C   0  0  2  0  0  0  0  0  0  0  0  0
   17.4706   -9.6242  -17.9607 N   0  0  0  0  0  0  0  0  0  0  0  0
   18.3397   -7.4525  -17.3006 C   0  0  0  0  0  0  0  0  0  0  0  0
   18.3838   -7.8402  -16.1034 O   0  0  0  0  0  0  0  0  0  0  0  0
   22.8287   -0.8308  -13.5688 O   0  0  0  0  0  0  0  0  0  0  0  0
   22.3521   -1.7905  -14.4749 C   0  0  0  0  0  0  0  0  0  0  0  0
   21.4865   -1.3809  -15.4645 C   0  0  0  0  0  0  0  0  0  0  0  0
   21.0110   -2.3103  -16.3603 C   0  0  0  0  0  0  0  0  0  0  0  0
   21.3676   -3.6628  -16.3137 C   0  0  0  0  0  0  0  0  0  0  0  0
   20.8104   -4.6283  -17.2812 C   0  0  0  0  0  0  0  0  0  0  0  0
   19.7396   -5.4451  -16.6490 C   0  0  2  0  0  0  0  0  0  0  0  0
   19.0298   -6.2577  -17.6266 N   0  0  0  0  0  0  0  0  0  0  0  0
   18.7584   -4.5824  -15.9746 C   0  0  0  0  0  0  0  0  0  0  0  0
   17.7808   -4.1368  -16.6410 O   0  0  0  0  0  0  0  0  0  0  0  0
   22.2358   -4.0109  -15.3013 C   0  0  0  0  0  0  0  0  0  0  0  0
   22.7323   -3.1009  -14.3847 C   0  0  0  0  0  0  0  0  0  0  0  0
   18.7988   -4.2009  -14.6428 O   0  0  0  0  0  0  0  0  0  0  0  0
  2  1  1  1
  2  3  1  0
  3  4  1  0
  4  8  1  0
  5  4  2  0
  6  2  1  0
  7  6  2  0
 10  9  1  6
 10 11  1  0
 10 12  1  0
 12 14  1  0
 12 13  1  1
 13  6  1  0
 14 15  2  0
 16 17  1  0
 17 18  2  0
 18 19  1  0
 20 19  2  0
 20 21  1  0
 22 21  1  6
 22 24  1  0
 23 22  1  0
 23 14  1  0
 24 25  2  0
 24 28  1  0
 26 20  1  0
 27 17  1  0
 27 26  2  0
M  END
$$$$
