DTY.pdb
     RDKit          3D

 28 28  0  0  1  0  0  0  0  0999 V2000
   17.4496  -11.4387  -14.9434 N   0  0  0  0  0  0  0  0  0  0  0  0
   18.7076  -11.4095  -15.6659 C   0  0  1  0  0  0  0  0  0  0  0  0
   18.5470  -12.1688  -16.9600 C   0  0  0  0  0  0  0  0  0  0  0  0
   18.2959  -13.5947  -16.6178 C   0  0  0  0  0  0  0  0  0  0  0  0
   17.2007  -13.9641  -16.0796 O   0  0  0  0  0  0  0  0  0  0  0  0
   19.0741   -9.9896  -15.8959 C   0  0  0  0  0  0  0  0  0  0  0  0
   20.1374   -9.6731  -16.5199 O   0  0  0  0  0  0  0  0  0  0  0  0
   19.2352  -14.5894  -16.8655 O   0  0  0  0  0  0  0  0  0  0  0  0
   16.6683   -7.2306  -17.2364 C   0  0  0  0  0  0  0  0  0  0  0  0
   17.3510   -6.7849  -15.9658 C   0  0  1  0  0  0  0  0  0  0  0  0
   16.4546   -6.9077  -14.9333 O   0  0  0  0  0  0  0  0  0  0  0  0
   18.6557   -7.5287  -15.7420 C   0  0  2  0  0  0  0  0  0  0  0  0
   18.2770   -8.9022  -15.4432 N   0  0  0  0  0  0  0  0  0  0  0  0
   19.3645   -6.9017  -14.5931 C   0  0  0  0  0  0  0  0  0  0  0  0
   19.1417   -7.2713  -13.4102 O   0  0  0  0  0  0  0  0  0  0  0  0
   25.4054   -7.0946  -18.0657 O   0  0  0  0  0  0  0  0  0  0  0  0
   24.6244   -6.8902  -16.9178 C   0  0  0  0  0  0  0  0  0  0  0  0
   24.6038   -5.6323  -16.3578 C   0  0  0  0  0  0  0  0  0  0  0  0
   23.8427   -5.4166  -15.2325 C   0  0  0  0  0  0  0  0  0  0  0  0
   23.0823   -6.4221  -14.6247 C   0  0  0  0  0  0  0  0  0  0  0  0
   22.3017   -6.1492  -13.4020 C   0  0  0  0  0  0  0  0  0  0  0  0
   21.1193   -5.3015  -13.7134 C   0  0  2  0  0  0  0  0  0  0  0  0
   20.3148   -5.8675  -14.7868 N   0  0  0  0  0  0  0  0  0  0  0  0
   21.5402   -3.9531  -14.1214 C   0  0  0  0  0  0  0  0  0  0  0  0
   22.1998   -3.2487  -13.3047 O   0  0  0  0  0  0  0  0  0  0  0  0
   23.1442   -7.6584  -15.2311 C   0  0  0  0  0  0  0  0  0  0  0  0
   23.8995   -7.9084  -16.3632 C   0  0  0  0  0  0  0  0  0  0  0  0
   21.2803   -3.3622  -15.3479 O   0  0  0  0  0  0  0  0  0  0  0  0
  2  1  1  6
  2  3  1  0
  3  4  1  0
  4  8  1  0
  5  4  2  0
  6  2  1  0
  7  6  2  0
 10  9  1  6
 10 11  1  0
 10 12  1  0
 12 14  1  0
 12 13  1  1
 13  6  1  0
 14 15  2  0
 16 17  1  0
 17 18  2  0
 18 19  1  0
 20 19  2  0
 20 21  1  0
 22 21  1  6
 22 24  1  0
 23 22  1  0
 23 14  1  0
 24 25  2  0
 24 28  1  0
 26 20  1  0
 27 17  1  0
 27 26  2  0
M  END
$$$$
