DTY.pdb
     RDKit          3D

 28 28  0  0  1  0  0  0  0  0999 V2000
   18.7093  -16.4678  -16.3313 N   0  0  0  0  0  0  0  0  0  0  0  0
   18.0781  -15.1652  -16.2303 C   0  0  1  0  0  0  0  0  0  0  0  0
   17.5853  -14.9679  -14.8177 C   0  0  0  0  0  0  0  0  0  0  0  0
   16.4248  -15.8763  -14.6142 C   0  0  0  0  0  0  0  0  0  0  0  0
   15.4636  -15.9213  -15.4507 O   0  0  0  0  0  0  0  0  0  0  0  0
   19.0762  -14.1380  -16.6198 C   0  0  0  0  0  0  0  0  0  0  0  0
   20.3044  -14.2563  -16.3073 O   0  0  0  0  0  0  0  0  0  0  0  0
   16.3298  -16.7161  -13.5101 O   0  0  0  0  0  0  0  0  0  0  0  0
   19.3414  -12.4042  -20.1588 C   0  0  0  0  0  0  0  0  0  0  0  0
   19.2948  -11.3954  -19.0366 C   0  0  1  0  0  0  0  0  0  0  0  0
   18.0296  -10.8645  -18.9916 O   0  0  0  0  0  0  0  0  0  0  0  0
   19.7577  -11.9993  -17.7227 C   0  0  2  0  0  0  0  0  0  0  0  0
   18.7364  -12.9699  -17.3566 N   0  0  0  0  0  0  0  0  0  0  0  0
   19.8554  -10.9108  -16.7123 C   0  0  0  0  0  0  0  0  0  0  0  0
   18.8662  -10.5910  -16.0017 O   0  0  0  0  0  0  0  0  0  0  0  0
   22.7658   -3.2726  -13.4474 O   0  0  0  0  0  0  0  0  0  0  0  0
   22.7196   -4.5635  -13.9958 C   0  0  0  0  0  0  0  0  0  0  0  0
   22.4681   -5.6225  -13.1523 C   0  0  0  0  0  0  0  0  0  0  0  0
   22.4195   -6.8938  -13.6753 C   0  0  0  0  0  0  0  0  0  0  0  0
   22.6149   -7.1647  -15.0344 C   0  0  0  0  0  0  0  0  0  0  0  0
   22.5797   -8.5492  -15.5450 C   0  0  0  0  0  0  0  0  0  0  0  0
   21.1778   -9.0396  -15.6335 C   0  0  2  0  0  0  0  0  0  0  0  0
   21.0627  -10.1948  -16.5121 N   0  0  0  0  0  0  0  0  0  0  0  0
   20.2905   -7.9858  -16.1473 C   0  0  0  0  0  0  0  0  0  0  0  0
   20.2162   -7.8091  -17.3969 O   0  0  0  0  0  0  0  0  0  0  0  0
   22.8627   -6.0645  -15.8269 C   0  0  0  0  0  0  0  0  0  0  0  0
   22.9179   -4.7733  -15.3324 C   0  0  0  0  0  0  0  0  0  0  0  0
   19.5036   -7.1452  -15.3759 O   0  0  0  0  0  0  0  0  0  0  0  0
  2  1  1  1
  2  3  1  0
  3  4  1  0
  4  8  1  0
  5  4  2  0
  6  2  1  0
  7  6  2  0
 10  9  1  6
 10 11  1  0
 10 12  1  0
 12 14  1  0
 12 13  1  1
 13  6  1  0
 14 15  2  0
 16 17  1  0
 17 18  2  0
 18 19  1  0
 20 19  2  0
 20 21  1  0
 22 21  1  6
 22 24  1  0
 23 22  1  0
 23 14  1  0
 24 25  2  0
 24 28  1  0
 26 20  1  0
 27 17  1  0
 27 26  2  0
M  END
$$$$
