DTY.pdb
     RDKit          3D

 28 28  0  0  1  0  0  0  0  0999 V2000
   15.2743   -9.3544  -17.8567 N   0  0  0  0  0  0  0  0  0  0  0  0
   15.5343   -8.0568  -17.2618 C   0  0  1  0  0  0  0  0  0  0  0  0
   14.9495   -8.0294  -15.8710 C   0  0  0  0  0  0  0  0  0  0  0  0
   13.4715   -7.9255  -16.0054 C   0  0  0  0  0  0  0  0  0  0  0  0
   12.6916   -8.7102  -15.3717 O   0  0  0  0  0  0  0  0  0  0  0  0
   17.0027   -7.8402  -17.2520 C   0  0  0  0  0  0  0  0  0  0  0  0
   17.8093   -8.7849  -16.9746 O   0  0  0  0  0  0  0  0  0  0  0  0
   12.8699   -6.9749  -16.8225 O   0  0  0  0  0  0  0  0  0  0  0  0
   19.2199   -6.4825  -20.0337 C   0  0  0  0  0  0  0  0  0  0  0  0
   19.3849   -5.6429  -18.7899 C   0  0  1  0  0  0  0  0  0  0  0  0
   18.6436   -4.4980  -18.9458 O   0  0  0  0  0  0  0  0  0  0  0  0
   19.0485   -6.4299  -17.5358 C   0  0  2  0  0  0  0  0  0  0  0  0
   17.6011   -6.5841  -17.5468 N   0  0  0  0  0  0  0  0  0  0  0  0
   19.4994   -5.6469  -16.3530 C   0  0  0  0  0  0  0  0  0  0  0  0
   18.7437   -4.8018  -15.8049 O   0  0  0  0  0  0  0  0  0  0  0  0
   24.6816  -10.2512  -16.0390 O   0  0  0  0  0  0  0  0  0  0  0  0
   24.0228   -9.1610  -15.4500 C   0  0  0  0  0  0  0  0  0  0  0  0
   22.8463   -9.3968  -14.7743 C   0  0  0  0  0  0  0  0  0  0  0  0
   22.1891   -8.3381  -14.1915 C   0  0  0  0  0  0  0  0  0  0  0  0
   22.6628   -7.0226  -14.2528 C   0  0  0  0  0  0  0  0  0  0  0  0
   21.9086   -5.9148  -13.6341 C   0  0  0  0  0  0  0  0  0  0  0  0
   21.3019   -5.0461  -14.6786 C   0  0  2  0  0  0  0  0  0  0  0  0
   20.7931   -5.8225  -15.8002 N   0  0  0  0  0  0  0  0  0  0  0  0
   22.2911   -4.0900  -15.1974 C   0  0  0  0  0  0  0  0  0  0  0  0
   22.6751   -4.2026  -16.3966 O   0  0  0  0  0  0  0  0  0  0  0  0
   23.8437   -6.8509  -14.9426 C   0  0  0  0  0  0  0  0  0  0  0  0
   24.5291   -7.8940  -15.5398 C   0  0  0  0  0  0  0  0  0  0  0  0
   22.8581   -3.0466  -14.4827 O   0  0  0  0  0  0  0  0  0  0  0  0
  2  1  1  1
  2  3  1  0
  3  4  1  0
  4  8  1  0
  5  4  2  0
  6  2  1  0
  7  6  2  0
 10  9  1  6
 10 11  1  0
 10 12  1  0
 12 14  1  0
 12 13  1  1
 13  6  1  0
 14 15  2  0
 16 17  1  0
 17 18  2  0
 18 19  1  0
 20 19  2  0
 20 21  1  0
 22 21  1  1
 22 24  1  0
 23 22  1  0
 23 14  1  0
 24 25  2  0
 24 28  1  0
 26 20  1  0
 27 17  1  0
 27 26  2  0
M  END
$$$$
