DTY.pdb
     RDKit          3D

 28 28  0  0  1  0  0  0  0  0999 V2000
   18.1081  -12.8557  -16.8646 N   0  0  0  0  0  0  0  0  0  0  0  0
   17.6069  -11.6024  -16.3323 C   0  0  1  0  0  0  0  0  0  0  0  0
   17.0973  -11.8342  -14.9310 C   0  0  0  0  0  0  0  0  0  0  0  0
   15.8528  -12.6430  -15.0320 C   0  0  0  0  0  0  0  0  0  0  0  0
   15.6182  -13.6019  -14.2251 O   0  0  0  0  0  0  0  0  0  0  0  0
   18.7127  -10.6127  -16.3654 C   0  0  0  0  0  0  0  0  0  0  0  0
   19.9101  -10.9487  -16.0948 O   0  0  0  0  0  0  0  0  0  0  0  0
   14.8894  -12.3965  -16.0038 O   0  0  0  0  0  0  0  0  0  0  0  0
   19.8020   -8.6938  -19.3103 C   0  0  0  0  0  0  0  0  0  0  0  0
   19.5013   -7.7081  -18.2071 C   0  0  1  0  0  0  0  0  0  0  0  0
   18.2603   -7.1698  -18.4416 O   0  0  0  0  0  0  0  0  0  0  0  0
   19.6497   -8.3421  -16.8354 C   0  0  2  0  0  0  0  0  0  0  0  0
   18.5153   -9.2435  -16.6960 N   0  0  0  0  0  0  0  0  0  0  0  0
   19.6114   -7.2630  -15.8109 C   0  0  0  0  0  0  0  0  0  0  0  0
   18.5285   -6.9175  -15.2692 O   0  0  0  0  0  0  0  0  0  0  0  0
   26.5282   -5.5935  -17.2315 O   0  0  0  0  0  0  0  0  0  0  0  0
   25.4295   -5.5943  -16.3585 C   0  0  0  0  0  0  0  0  0  0  0  0
   24.9050   -4.3824  -15.9680 C   0  0  0  0  0  0  0  0  0  0  0  0
   23.8278   -4.3672  -15.1127 C   0  0  0  0  0  0  0  0  0  0  0  0
   23.2347   -5.5337  -14.6164 C   0  0  0  0  0  0  0  0  0  0  0  0
   22.0962   -5.4667  -13.6793 C   0  0  0  0  0  0  0  0  0  0  0  0
   20.8057   -5.5174  -14.4180 C   0  0  2  0  0  0  0  0  0  0  0  0
   20.7896   -6.5854  -15.4073 N   0  0  0  0  0  0  0  0  0  0  0  0
   20.5558   -4.2469  -15.1145 C   0  0  0  0  0  0  0  0  0  0  0  0
   20.3411   -3.2082  -14.4266 O   0  0  0  0  0  0  0  0  0  0  0  0
   23.8042   -6.7142  -15.0429 C   0  0  0  0  0  0  0  0  0  0  0  0
   24.8874   -6.7639  -15.9025 C   0  0  0  0  0  0  0  0  0  0  0  0
   20.5345   -4.0697  -16.4889 O   0  0  0  0  0  0  0  0  0  0  0  0
  2  1  1  1
  2  3  1  0
  3  4  1  0
  4  8  1  0
  5  4  2  0
  6  2  1  0
  7  6  2  0
 10  9  1  6
 10 11  1  0
 10 12  1  0
 12 14  1  0
 12 13  1  1
 13  6  1  0
 14 15  2  0
 16 17  1  0
 17 18  2  0
 18 19  1  0
 20 19  2  0
 20 21  1  0
 22 21  1  6
 22 24  1  0
 23 22  1  0
 23 14  1  0
 24 25  2  0
 24 28  1  0
 26 20  1  0
 27 17  1  0
 27 26  2  0
M  END
$$$$
