DQP.pdb
     RDKit          3D

 25 25  0  0  1  0  0  0  0  0999 V2000
   18.6327  -10.9591  -15.9938 N   0  0  0  0  0  0  0  0  0  0  0  0
   17.3411  -10.3041  -15.9475 C   0  0  1  0  0  0  0  0  0  0  0  0
   16.5245  -11.0178  -14.8910 C   0  0  0  0  0  0  0  0  0  0  0  0
   16.0832  -12.3128  -15.4687 C   0  0  0  0  0  0  0  0  0  0  0  0
   16.8605  -13.0856  -16.0428 O   0  0  0  0  0  0  0  0  0  0  0  0
   17.5062   -8.8674  -15.6399 C   0  0  0  0  0  0  0  0  0  0  0  0
   16.5382   -8.0838  -15.4958 O   0  0  0  0  0  0  0  0  0  0  0  0
   14.7488  -12.6870  -15.3696 O   0  0  0  0  0  0  0  0  0  0  0  0
   22.2468   -6.5717  -12.5001 N   0  0  0  0  0  0  0  0  0  0  0  0
   21.1285   -7.2771  -12.0035 C   0  0  0  0  0  0  0  0  0  0  0  0
   21.1849   -7.8051  -10.8780 O   0  0  0  0  0  0  0  0  0  0  0  0
   19.8908   -7.3932  -12.8101 C   0  0  0  0  0  0  0  0  0  0  0  0
   20.1137   -6.7634  -14.1370 C   0  0  0  0  0  0  0  0  0  0  0  0
   19.0305   -6.8974  -15.1414 C   0  0  2  0  0  0  0  0  0  0  0  0
   18.8164   -8.2747  -15.4852 N   0  0  0  0  0  0  0  0  0  0  0  0
   19.0030   -5.9226  -16.2177 C   0  0  0  0  0  0  0  0  0  0  0  0
   19.4891   -6.3270  -17.3429 O   0  0  0  0  0  0  0  0  0  0  0  0
   18.5316   -4.6188  -16.1963 N   0  0  0  0  0  0  0  0  0  0  0  0
   17.9592   -3.8533  -15.1214 C   0  0  0  0  0  0  0  0  0  0  0  0
   16.7967   -3.1515  -15.7891 C   0  0  0  0  0  0  0  0  0  0  0  0
   17.3884   -2.7689  -17.1289 C   0  0  0  0  0  0  0  0  0  0  0  0
   18.5996   -3.6255  -17.3016 C   0  0  1  0  0  0  0  0  0  0  0  0
   19.8343   -2.8069  -17.1476 C   0  0  0  0  0  0  0  0  0  0  0  0
   20.6742   -2.9398  -16.0539 O   0  0  0  0  0  0  0  0  0  0  0  0
   20.1690   -1.9520  -18.0137 O   0  0  0  0  0  0  0  0  0  0  0  0
  2  1  1  1
  2  3  1  0
  4  8  1  0
  4  3  1  0
  5  4  2  0
  6  2  1  0
  6 15  1  0
  7  6  2  0
  9 10  1  0
 10 11  2  0
 12 13  1  0
 12 10  1  0
 14 16  1  0
 14 13  1  6
 14 15  1  0
 16 18  1  0
 17 16  2  0
 18 22  1  0
 18 19  1  0
 19 20  1  0
 20 21  1  0
 22 21  1  0
 22 23  1  1
 24 23  1  0
 25 23  2  0
M  END
$$$$
