DQP.pdb
     RDKit          3D

 25 25  0  0  1  0  0  0  0  0999 V2000
   18.6443  -11.9526  -15.4448 N   0  0  0  0  0  0  0  0  0  0  0  0
   18.6245  -10.7994  -16.3218 C   0  0  1  0  0  0  0  0  0  0  0  0
   17.5010  -11.0204  -17.3124 C   0  0  0  0  0  0  0  0  0  0  0  0
   17.8813  -12.1739  -18.1671 C   0  0  0  0  0  0  0  0  0  0  0  0
   19.0522  -12.4023  -18.4953 O   0  0  0  0  0  0  0  0  0  0  0  0
   18.4318   -9.5618  -15.5362 C   0  0  0  0  0  0  0  0  0  0  0  0
   17.4430   -9.3740  -14.7886 O   0  0  0  0  0  0  0  0  0  0  0  0
   16.8965  -13.0405  -18.6249 O   0  0  0  0  0  0  0  0  0  0  0  0
   21.5701   -5.6209  -11.9774 N   0  0  0  0  0  0  0  0  0  0  0  0
   22.1708   -5.6590  -13.2551 C   0  0  0  0  0  0  0  0  0  0  0  0
   23.2033   -4.9981  -13.4689 O   0  0  0  0  0  0  0  0  0  0  0  0
   21.5827   -6.4780  -14.3410 C   0  0  0  0  0  0  0  0  0  0  0  0
   20.2992   -7.0600  -13.8713 C   0  0  0  0  0  0  0  0  0  0  0  0
   19.2271   -7.2401  -14.8804 C   0  0  2  0  0  0  0  0  0  0  0  0
   19.3896   -8.4793  -15.5868 N   0  0  0  0  0  0  0  0  0  0  0  0
   18.8419   -6.0710  -15.6513 C   0  0  0  0  0  0  0  0  0  0  0  0
   19.2218   -6.0721  -16.8848 O   0  0  0  0  0  0  0  0  0  0  0  0
   18.1286   -4.9557  -15.2392 N   0  0  0  0  0  0  0  0  0  0  0  0
   17.6180   -4.6045  -13.9411 C   0  0  0  0  0  0  0  0  0  0  0  0
   16.2362   -4.0734  -14.2548 C   0  0  0  0  0  0  0  0  0  0  0  0
   16.4854   -3.2761  -15.5172 C   0  0  0  0  0  0  0  0  0  0  0  0
   17.7928   -3.7579  -16.0548 C   0  0  1  0  0  0  0  0  0  0  0  0
   18.8437   -2.7212  -15.8561 C   0  0  0  0  0  0  0  0  0  0  0  0
   19.9116   -2.9110  -14.9943 O   0  0  0  0  0  0  0  0  0  0  0  0
   18.8043   -1.6187  -16.4694 O   0  0  0  0  0  0  0  0  0  0  0  0
  2  1  1  1
  2  3  1  0
  4  8  1  0
  4  3  1  0
  5  4  2  0
  6  2  1  0
  6 15  1  0
  7  6  2  0
  9 10  1  0
 10 11  2  0
 12 13  1  0
 12 10  1  0
 14 16  1  0
 14 13  1  6
 14 15  1  0
 16 18  1  0
 17 16  2  0
 18 22  1  0
 18 19  1  0
 19 20  1  0
 20 21  1  0
 22 21  1  0
 22 23  1  1
 24 23  1  0
 25 23  2  0
M  END
$$$$
