DQP.pdb
     RDKit          3D

 25 25  0  0  1  0  0  0  0  0999 V2000
   15.6364  -11.4660  -15.6500 N   0  0  0  0  0  0  0  0  0  0  0  0
   16.8664  -11.2769  -14.9080 C   0  0  1  0  0  0  0  0  0  0  0  0
   17.9945  -11.7502  -15.8001 C   0  0  0  0  0  0  0  0  0  0  0  0
   17.9974  -13.2350  -15.7644 C   0  0  0  0  0  0  0  0  0  0  0  0
   17.0544  -13.9134  -16.1903 O   0  0  0  0  0  0  0  0  0  0  0  0
   17.0222   -9.8564  -14.5284 C   0  0  0  0  0  0  0  0  0  0  0  0
   16.9991   -8.9200  -15.3616 O   0  0  0  0  0  0  0  0  0  0  0  0
   19.0938  -13.9046  -15.2355 O   0  0  0  0  0  0  0  0  0  0  0  0
   15.8558   -7.4916   -8.9594 N   0  0  0  0  0  0  0  0  0  0  0  0
   16.6469   -6.4302   -9.4517 C   0  0  0  0  0  0  0  0  0  0  0  0
   16.8038   -5.4081   -8.7593 O   0  0  0  0  0  0  0  0  0  0  0  0
   17.2905   -6.5236  -10.7832 C   0  0  0  0  0  0  0  0  0  0  0  0
   16.9803   -7.8472  -11.3821 C   0  0  0  0  0  0  0  0  0  0  0  0
   17.5055   -8.1152  -12.7431 C   0  0  2  0  0  0  0  0  0  0  0  0
   17.2135   -9.4605  -13.1506 N   0  0  0  0  0  0  0  0  0  0  0  0
   18.8204   -7.5860  -13.0601 C   0  0  0  0  0  0  0  0  0  0  0  0
   19.8020   -8.4076  -12.8949 O   0  0  0  0  0  0  0  0  0  0  0  0
   19.1612   -6.3192  -13.5091 N   0  0  0  0  0  0  0  0  0  0  0  0
   18.3597   -5.1325  -13.6444 C   0  0  0  0  0  0  0  0  0  0  0  0
   18.7969   -4.5814  -14.9842 C   0  0  0  0  0  0  0  0  0  0  0  0
   20.2913   -4.8202  -14.9494 C   0  0  0  0  0  0  0  0  0  0  0  0
   20.5189   -5.8377  -13.8801 C   0  0  1  0  0  0  0  0  0  0  0  0
   21.1534   -5.2017  -12.6921 C   0  0  0  0  0  0  0  0  0  0  0  0
   22.5045   -4.8978  -12.6533 O   0  0  0  0  0  0  0  0  0  0  0  0
   20.4813   -4.9111  -11.6641 O   0  0  0  0  0  0  0  0  0  0  0  0
  2  1  1  6
  2  3  1  0
  4  8  1  0
  4  3  1  0
  5  4  2  0
  6  2  1  0
  6 15  1  0
  7  6  2  0
  9 10  1  0
 10 11  2  0
 12 13  1  0
 12 10  1  0
 14 16  1  0
 14 13  1  1
 14 15  1  0
 16 18  1  0
 17 16  2  0
 18 22  1  0
 18 19  1  0
 19 20  1  0
 20 21  1  0
 22 21  1  0
 22 23  1  1
 24 23  1  0
 25 23  2  0
M  END
$$$$
