DQP.pdb
     RDKit          3D

 25 25  0  0  1  0  0  0  0  0999 V2000
   14.3853  -12.7327  -14.4105 N   0  0  0  0  0  0  0  0  0  0  0  0
   15.6962  -12.3210  -13.9509 C   0  0  1  0  0  0  0  0  0  0  0  0
   16.6705  -12.6318  -15.0674 C   0  0  0  0  0  0  0  0  0  0  0  0
   16.8190  -14.1082  -15.1308 C   0  0  0  0  0  0  0  0  0  0  0  0
   16.7073  -14.7442  -16.1862 O   0  0  0  0  0  0  0  0  0  0  0  0
   15.6905  -10.8828  -13.6082 C   0  0  0  0  0  0  0  0  0  0  0  0
   15.2096  -10.0029  -14.3607 O   0  0  0  0  0  0  0  0  0  0  0  0
   17.0942  -14.8187  -13.9690 O   0  0  0  0  0  0  0  0  0  0  0  0
   14.5035   -7.9427   -8.9139 N   0  0  0  0  0  0  0  0  0  0  0  0
   15.5785   -7.0589   -9.1552 C   0  0  0  0  0  0  0  0  0  0  0  0
   15.5930   -5.9435   -8.6035 O   0  0  0  0  0  0  0  0  0  0  0  0
   16.6870   -7.4482  -10.0583 C   0  0  0  0  0  0  0  0  0  0  0  0
   16.4475   -8.8270  -10.5567 C   0  0  0  0  0  0  0  0  0  0  0  0
   16.3560   -9.0104  -12.0257 C   0  0  2  0  0  0  0  0  0  0  0  0
   16.2490  -10.4015  -12.3639 N   0  0  0  0  0  0  0  0  0  0  0  0
   17.2176   -8.1813  -12.8502 C   0  0  0  0  0  0  0  0  0  0  0  0
   18.3458   -8.7138  -13.1811 O   0  0  0  0  0  0  0  0  0  0  0  0
   16.9934   -6.8971  -13.3224 N   0  0  0  0  0  0  0  0  0  0  0  0
   15.9037   -5.9913  -13.0752 C   0  0  0  0  0  0  0  0  0  0  0  0
   15.6255   -5.4162  -14.4470 C   0  0  0  0  0  0  0  0  0  0  0  0
   17.0230   -5.2254  -14.9968 C   0  0  0  0  0  0  0  0  0  0  0  0
   17.9147   -6.0770  -14.1539 C   0  0  1  0  0  0  0  0  0  0  0  0
   18.7483   -5.2232  -13.2625 C   0  0  0  0  0  0  0  0  0  0  0  0
   18.5745   -5.2041  -11.8881 O   0  0  0  0  0  0  0  0  0  0  0  0
   19.6541   -4.4763  -13.7257 O   0  0  0  0  0  0  0  0  0  0  0  0
  2  1  1  6
  2  3  1  0
  4  8  1  0
  4  3  1  0
  5  4  2  0
  6  2  1  0
  6 15  1  0
  7  6  2  0
  9 10  1  0
 10 11  2  0
 12 13  1  0
 12 10  1  0
 14 16  1  0
 14 13  1  1
 14 15  1  0
 16 18  1  0
 17 16  2  0
 18 22  1  0
 18 19  1  0
 19 20  1  0
 20 21  1  0
 22 21  1  0
 22 23  1  1
 24 23  1  0
 25 23  2  0
M  END
$$$$
