DQP.pdb
     RDKit          3D

 25 25  0  0  1  0  0  0  0  0999 V2000
   14.5896   -9.9077  -15.7119 N   0  0  0  0  0  0  0  0  0  0  0  0
   15.3393   -8.8115  -16.2911 C   0  0  1  0  0  0  0  0  0  0  0  0
   14.5223   -7.5559  -16.0706 C   0  0  0  0  0  0  0  0  0  0  0  0
   13.3989   -7.5794  -17.0417 C   0  0  0  0  0  0  0  0  0  0  0  0
   13.4965   -8.0980  -18.1609 O   0  0  0  0  0  0  0  0  0  0  0  0
   16.6753   -8.7173  -15.6648 C   0  0  0  0  0  0  0  0  0  0  0  0
   16.8632   -8.8507  -14.4325 O   0  0  0  0  0  0  0  0  0  0  0  0
   12.1837   -7.0011  -16.6964 O   0  0  0  0  0  0  0  0  0  0  0  0
   22.1084  -10.6768  -17.6117 N   0  0  0  0  0  0  0  0  0  0  0  0
   20.9435  -10.4980  -18.3900 C   0  0  0  0  0  0  0  0  0  0  0  0
   20.8775  -11.0068  -19.5238 O   0  0  0  0  0  0  0  0  0  0  0  0
   19.8013   -9.7109  -17.8686 C   0  0  0  0  0  0  0  0  0  0  0  0
   20.1669   -9.1393  -16.5471 C   0  0  0  0  0  0  0  0  0  0  0  0
   19.1657   -8.2679  -15.8850 C   0  0  2  0  0  0  0  0  0  0  0  0
   17.8612   -8.4617  -16.4522 N   0  0  0  0  0  0  0  0  0  0  0  0
   19.5723   -6.9072  -15.5805 C   0  0  0  0  0  0  0  0  0  0  0  0
   18.8883   -5.9816  -16.1647 O   0  0  0  0  0  0  0  0  0  0  0  0
   20.5968   -6.4717  -14.7539 N   0  0  0  0  0  0  0  0  0  0  0  0
   21.5862   -7.2190  -14.0248 C   0  0  0  0  0  0  0  0  0  0  0  0
   21.6206   -6.5155  -12.6854 C   0  0  0  0  0  0  0  0  0  0  0  0
   21.5170   -5.0610  -13.0920 C   0  0  0  0  0  0  0  0  0  0  0  0
   20.9960   -5.0628  -14.4917 C   0  0  1  0  0  0  0  0  0  0  0  0
   22.0753   -4.6758  -15.4424 C   0  0  0  0  0  0  0  0  0  0  0  0
   22.6668   -5.5915  -16.2973 O   0  0  0  0  0  0  0  0  0  0  0  0
   22.4987   -3.4887  -15.5089 O   0  0  0  0  0  0  0  0  0  0  0  0
  2  1  1  1
  2  3  1  0
  4  8  1  0
  4  3  1  0
  5  4  2  0
  6  2  1  0
  6 15  1  0
  7  6  2  0
  9 10  1  0
 10 11  2  0
 12 13  1  0
 12 10  1  0
 14 16  1  0
 14 13  1  6
 14 15  1  0
 16 18  1  0
 17 16  2  0
 18 22  1  0
 18 19  1  0
 19 20  1  0
 20 21  1  0
 22 21  1  0
 22 23  1  6
 24 23  1  0
 25 23  2  0
M  END
$$$$
