DQP.pdb
     RDKit          3D

 25 25  0  0  1  0  0  0  0  0999 V2000
   20.1263  -18.4579  -15.4706 N   0  0  0  0  0  0  0  0  0  0  0  0
   20.9571  -19.5886  -15.8320 C   0  0  1  0  0  0  0  0  0  0  0  0
   20.8178  -19.7753  -17.3281 C   0  0  0  0  0  0  0  0  0  0  0  0
   19.6889  -20.7128  -17.5567 C   0  0  0  0  0  0  0  0  0  0  0  0
   19.5178  -21.7291  -16.8719 O   0  0  0  0  0  0  0  0  0  0  0  0
   22.3597  -19.3411  -15.4352 C   0  0  0  0  0  0  0  0  0  0  0  0
   22.9786  -18.2919  -15.7314 O   0  0  0  0  0  0  0  0  0  0  0  0
   18.7799  -20.4539  -18.5750 O   0  0  0  0  0  0  0  0  0  0  0  0
   25.4236  -22.0454  -10.7064 N   0  0  0  0  0  0  0  0  0  0  0  0
   24.3987  -21.0766  -10.6295 C   0  0  0  0  0  0  0  0  0  0  0  0
   23.8096  -20.8893   -9.5495 O   0  0  0  0  0  0  0  0  0  0  0  0
   24.0200  -20.2828  -11.8222 C   0  0  0  0  0  0  0  0  0  0  0  0
   24.7752  -20.7830  -12.9996 C   0  0  0  0  0  0  0  0  0  0  0  0
   24.4891  -20.1466  -14.3086 C   0  0  2  0  0  0  0  0  0  0  0  0
   23.1096  -20.3124  -14.6697 N   0  0  0  0  0  0  0  0  0  0  0  0
   25.4834  -20.3107  -15.3545 C   0  0  0  0  0  0  0  0  0  0  0  0
   25.1136  -21.0282  -16.3616 O   0  0  0  0  0  0  0  0  0  0  0  0
   26.7737  -19.8063  -15.4127 N   0  0  0  0  0  0  0  0  0  0  0  0
   27.5659  -19.1572  -14.4027 C   0  0  0  0  0  0  0  0  0  0  0  0
   28.2083  -18.0156  -15.1602 C   0  0  0  0  0  0  0  0  0  0  0  0
   28.5527  -18.6697  -16.4813 C   0  0  0  0  0  0  0  0  0  0  0  0
   27.7231  -19.9096  -16.5532 C   0  0  1  0  0  0  0  0  0  0  0  0
   28.5806  -21.1132  -16.3677 C   0  0  0  0  0  0  0  0  0  0  0  0
   29.4215  -21.5791  -17.3653 O   0  0  0  0  0  0  0  0  0  0  0  0
   28.5766  -21.7633  -15.2859 O   0  0  0  0  0  0  0  0  0  0  0  0
  2  1  1  6
  2  3  1  0
  4  8  1  0
  4  3  1  0
  5  4  2  0
  6  2  1  0
  6 15  1  0
  7  6  2  0
  9 10  1  0
 10 11  2  0
 12 13  1  0
 12 10  1  0
 14 16  1  0
 14 13  1  1
 14 15  1  0
 16 18  1  0
 17 16  2  0
 18 22  1  0
 18 19  1  0
 19 20  1  0
 20 21  1  0
 22 21  1  0
 22 23  1  1
 24 23  1  0
 25 23  2  0
M  END
$$$$
