DQP.pdb
     RDKit          3D

 25 25  0  0  1  0  0  0  0  0999 V2000
   22.9324  -13.2421  -18.0909 N   0  0  0  0  0  0  0  0  0  0  0  0
   23.3659  -12.4829  -16.9355 C   0  0  1  0  0  0  0  0  0  0  0  0
   24.8748  -12.3854  -17.0151 C   0  0  0  0  0  0  0  0  0  0  0  0
   25.4244  -13.7323  -16.7164 C   0  0  0  0  0  0  0  0  0  0  0  0
   25.3341  -14.6791  -17.5078 O   0  0  0  0  0  0  0  0  0  0  0  0
   22.7265  -11.1497  -16.9294 C   0  0  0  0  0  0  0  0  0  0  0  0
   22.9382  -10.2863  -17.8134 O   0  0  0  0  0  0  0  0  0  0  0  0
   26.0683  -13.9556  -15.5056 O   0  0  0  0  0  0  0  0  0  0  0  0
   17.1613  -12.3358  -15.7058 N   0  0  0  0  0  0  0  0  0  0  0  0
   17.9588  -11.2582  -15.2614 C   0  0  0  0  0  0  0  0  0  0  0  0
   17.8733  -10.8764  -14.0800 O   0  0  0  0  0  0  0  0  0  0  0  0
   18.8946  -10.5796  -16.1886 C   0  0  0  0  0  0  0  0  0  0  0  0
   19.7354   -9.6261  -15.4201 C   0  0  0  0  0  0  0  0  0  0  0  0
   21.1515   -9.4825  -15.8374 C   0  0  2  0  0  0  0  0  0  0  0  0
   21.8050  -10.7599  -15.8851 N   0  0  0  0  0  0  0  0  0  0  0  0
   21.8949   -8.3662  -15.2798 C   0  0  0  0  0  0  0  0  0  0  0  0
   22.8319   -8.6845  -14.4512 O   0  0  0  0  0  0  0  0  0  0  0  0
   21.7291   -7.0096  -15.5133 N   0  0  0  0  0  0  0  0  0  0  0  0
   20.7064   -6.3085  -16.2425 C   0  0  0  0  0  0  0  0  0  0  0  0
   21.4944   -5.2786  -17.0224 C   0  0  0  0  0  0  0  0  0  0  0  0
   22.5258   -4.8368  -16.0062 C   0  0  0  0  0  0  0  0  0  0  0  0
   22.5499   -5.9002  -14.9578 C   0  0  1  0  0  0  0  0  0  0  0  0
   21.9151   -5.4022  -13.7058 C   0  0  0  0  0  0  0  0  0  0  0  0
   20.6491   -5.8041  -13.3119 O   0  0  0  0  0  0  0  0  0  0  0  0
   22.5087   -4.5874  -12.9465 O   0  0  0  0  0  0  0  0  0  0  0  0
  2  1  1  6
  2  3  1  0
  4  8  1  0
  4  3  1  0
  5  4  2  0
  6  2  1  0
  6 15  1  0
  7  6  2  0
  9 10  1  0
 10 11  2  0
 12 13  1  0
 12 10  1  0
 14 16  1  0
 14 13  1  1
 14 15  1  0
 16 18  1  0
 17 16  2  0
 18 22  1  0
 18 19  1  0
 19 20  1  0
 20 21  1  0
 22 21  1  0
 22 23  1  1
 24 23  1  0
 25 23  2  0
M  END
$$$$
