DQP.pdb
     RDKit          3D

 25 25  0  0  1  0  0  0  0  0999 V2000
   22.5292  -12.5345  -17.6461 N   0  0  0  0  0  0  0  0  0  0  0  0
   22.8237  -11.1971  -18.1194 C   0  0  1  0  0  0  0  0  0  0  0  0
   22.8123  -11.2543  -19.6324 C   0  0  0  0  0  0  0  0  0  0  0  0
   23.9608  -12.0958  -20.0549 C   0  0  0  0  0  0  0  0  0  0  0  0
   24.7748  -12.5648  -19.2497 O   0  0  0  0  0  0  0  0  0  0  0  0
   21.8278  -10.2377  -17.5961 C   0  0  0  0  0  0  0  0  0  0  0  0
   20.6688  -10.5733  -17.2560 O   0  0  0  0  0  0  0  0  0  0  0  0
   24.1433  -12.3774  -21.4031 O   0  0  0  0  0  0  0  0  0  0  0  0
   19.3146   -8.2603  -13.2761 N   0  0  0  0  0  0  0  0  0  0  0  0
   20.7208   -8.3680  -13.1997 C   0  0  0  0  0  0  0  0  0  0  0  0
   21.2760   -8.3906  -12.0862 O   0  0  0  0  0  0  0  0  0  0  0  0
   21.5389   -8.4541  -14.4323 C   0  0  0  0  0  0  0  0  0  0  0  0
   20.6447   -8.3799  -15.6162 C   0  0  0  0  0  0  0  0  0  0  0  0
   21.2339   -7.8740  -16.8800 C   0  0  2  0  0  0  0  0  0  0  0  0
   22.1402   -8.8337  -17.4444 N   0  0  0  0  0  0  0  0  0  0  0  0
   21.6269   -6.4762  -16.9129 C   0  0  0  0  0  0  0  0  0  0  0  0
   22.8984   -6.2579  -16.8720 O   0  0  0  0  0  0  0  0  0  0  0  0
   20.8216   -5.3492  -16.9762 N   0  0  0  0  0  0  0  0  0  0  0  0
   19.3965   -5.2142  -16.8352 C   0  0  0  0  0  0  0  0  0  0  0  0
   19.0384   -4.2468  -17.9423 C   0  0  0  0  0  0  0  0  0  0  0  0
   20.1815   -3.2565  -17.8761 C   0  0  0  0  0  0  0  0  0  0  0  0
   21.2694   -3.9372  -17.1121 C   0  0  1  0  0  0  0  0  0  0  0  0
   21.4009   -3.3336  -15.7568 C   0  0  0  0  0  0  0  0  0  0  0  0
   22.0239   -2.1134  -15.5514 O   0  0  0  0  0  0  0  0  0  0  0  0
   20.9466   -3.9133  -14.7318 O   0  0  0  0  0  0  0  0  0  0  0  0
  2  1  1  1
  2  3  1  0
  4  8  1  0
  4  3  1  0
  5  4  2  0
  6  2  1  0
  6 15  1  0
  7  6  2  0
  9 10  1  0
 10 11  2  0
 12 13  1  0
 12 10  1  0
 14 16  1  0
 14 13  1  1
 14 15  1  0
 16 18  1  0
 17 16  2  0
 18 22  1  0
 18 19  1  0
 19 20  1  0
 20 21  1  0
 22 21  1  0
 22 23  1  1
 24 23  1  0
 25 23  2  0
M  END
$$$$
