DQP.pdb
     RDKit          3D

 25 25  0  0  1  0  0  0  0  0999 V2000
   15.8100  -17.5351    4.6123 N   0  0  0  0  0  0  0  0  0  0  0  0
   16.8401  -18.5487    4.7150 C   0  0  1  0  0  0  0  0  0  0  0  0
   17.1071  -19.0473    3.3104 C   0  0  0  0  0  0  0  0  0  0  0  0
   16.1983  -20.1961    3.0654 C   0  0  0  0  0  0  0  0  0  0  0  0
   15.9930  -21.0753    3.9114 O   0  0  0  0  0  0  0  0  0  0  0  0
   18.0549  -17.9831    5.3398 C   0  0  0  0  0  0  0  0  0  0  0  0
   19.1327  -18.6164    5.4344 O   0  0  0  0  0  0  0  0  0  0  0  0
   15.5450  -20.3034    1.8440 O   0  0  0  0  0  0  0  0  0  0  0  0
   19.6264  -11.9492    5.9024 N   0  0  0  0  0  0  0  0  0  0  0  0
   18.3438  -12.3670    6.3210 C   0  0  0  0  0  0  0  0  0  0  0  0
   17.4499  -11.5202    6.5012 O   0  0  0  0  0  0  0  0  0  0  0  0
   18.0545  -13.8027    6.5468 C   0  0  0  0  0  0  0  0  0  0  0  0
   19.2756  -14.5970    6.2558 C   0  0  0  0  0  0  0  0  0  0  0  0
   19.2144  -16.0554    6.5196 C   0  0  2  0  0  0  0  0  0  0  0  0
   18.0684  -16.6442    5.8864 N   0  0  0  0  0  0  0  0  0  0  0  0
   19.5433  -16.4983    7.8631 C   0  0  0  0  0  0  0  0  0  0  0  0
   18.5713  -17.0330    8.5228 O   0  0  0  0  0  0  0  0  0  0  0  0
   20.7557  -16.4184    8.5312 N   0  0  0  0  0  0  0  0  0  0  0  0
   21.9900  -15.7870    8.1479 C   0  0  0  0  0  0  0  0  0  0  0  0
   23.0306  -16.8094    8.5502 C   0  0  0  0  0  0  0  0  0  0  0  0
   22.4905  -17.3024    9.8757 C   0  0  0  0  0  0  0  0  0  0  0  0
   21.0520  -16.9021    9.9064 C   0  0  1  0  0  0  0  0  0  0  0  0
   20.8497  -15.7855   10.8712 C   0  0  0  0  0  0  0  0  0  0  0  0
   20.7826  -15.9972   12.2387 O   0  0  0  0  0  0  0  0  0  0  0  0
   20.7302  -14.5916   10.4799 O   0  0  0  0  0  0  0  0  0  0  0  0
  2  1  1  6
  2  3  1  0
  4  8  1  0
  4  3  1  0
  5  4  2  0
  6  2  1  0
  6 15  1  0
  7  6  2  0
  9 10  1  0
 10 11  2  0
 12 13  1  0
 12 10  1  0
 14 16  1  0
 14 13  1  1
 14 15  1  0
 16 18  1  0
 17 16  2  0
 18 22  1  0
 18 19  1  0
 19 20  1  0
 20 21  1  0
 22 21  1  0
 22 23  1  1
 24 23  1  0
 25 23  2  0
M  END
$$$$
