DQP.pdb
     RDKit          3D

 25 25  0  0  1  0  0  0  0  0999 V2000
   21.2874  -33.0006    0.5117 N   0  0  0  0  0  0  0  0  0  0  0  0
   21.7866  -34.2729    0.9926 C   0  0  1  0  0  0  0  0  0  0  0  0
   21.0093  -35.3517    0.2683 C   0  0  0  0  0  0  0  0  0  0  0  0
   19.6870  -35.4709    0.9338 C   0  0  0  0  0  0  0  0  0  0  0  0
   18.6620  -35.8011    0.3245 O   0  0  0  0  0  0  0  0  0  0  0  0
   23.2403  -34.3795    0.7446 C   0  0  0  0  0  0  0  0  0  0  0  0
   23.9099  -35.3990    1.0345 O   0  0  0  0  0  0  0  0  0  0  0  0
   19.5786  -35.2048    2.2931 O   0  0  0  0  0  0  0  0  0  0  0  0
   27.4598  -32.7636   -2.9814 N   0  0  0  0  0  0  0  0  0  0  0  0
   26.1425  -32.3607   -3.2930 C   0  0  0  0  0  0  0  0  0  0  0  0
   25.7927  -32.2700   -4.4838 O   0  0  0  0  0  0  0  0  0  0  0  0
   25.1752  -32.0456   -2.2154 C   0  0  0  0  0  0  0  0  0  0  0  0
   25.8488  -32.1895   -0.8993 C   0  0  0  0  0  0  0  0  0  0  0  0
   25.4093  -33.3095   -0.0317 C   0  0  2  0  0  0  0  0  0  0  0  0
   23.9845  -33.2950    0.1432 N   0  0  0  0  0  0  0  0  0  0  0  0
   26.2277  -33.6050    1.1312 C   0  0  0  0  0  0  0  0  0  0  0  0
   25.7149  -33.2712    2.2677 O   0  0  0  0  0  0  0  0  0  0  0  0
   27.4836  -34.1902    1.1830 N   0  0  0  0  0  0  0  0  0  0  0  0
   28.4001  -34.5226    0.1253 C   0  0  0  0  0  0  0  0  0  0  0  0
   28.8984  -35.8931    0.5294 C   0  0  0  0  0  0  0  0  0  0  0  0
   29.0606  -35.7394    2.0266 C   0  0  0  0  0  0  0  0  0  0  0  0
   28.2580  -34.5379    2.4045 C   0  0  1  0  0  0  0  0  0  0  0  0
   29.1608  -33.4046    2.7499 C   0  0  0  0  0  0  0  0  0  0  0  0
   29.8729  -33.3661    3.9376 O   0  0  0  0  0  0  0  0  0  0  0  0
   29.3154  -32.4253    1.9688 O   0  0  0  0  0  0  0  0  0  0  0  0
  2  1  1  6
  2  3  1  0
  4  8  1  0
  4  3  1  0
  5  4  2  0
  6  2  1  0
  6 15  1  0
  7  6  2  0
  9 10  1  0
 10 11  2  0
 12 13  1  0
 12 10  1  0
 14 16  1  0
 14 13  1  1
 14 15  1  0
 16 18  1  0
 17 16  2  0
 18 22  1  0
 18 19  1  0
 19 20  1  0
 20 21  1  0
 22 21  1  0
 22 23  1  6
 24 23  1  0
 25 23  2  0
M  END
$$$$
