DQP.pdb
     RDKit          3D

 25 25  0  0  1  0  0  0  0  0999 V2000
   24.9040  -10.8987  -17.7328 N   0  0  0  0  0  0  0  0  0  0  0  0
   24.5559  -10.0593  -16.6044 C   0  0  1  0  0  0  0  0  0  0  0  0
   25.7772   -9.2230  -16.2859 C   0  0  0  0  0  0  0  0  0  0  0  0
   26.8313  -10.1446  -15.7907 C   0  0  0  0  0  0  0  0  0  0  0  0
   26.6613  -11.3673  -15.7067 O   0  0  0  0  0  0  0  0  0  0  0  0
   23.3832   -9.2207  -16.9324 C   0  0  0  0  0  0  0  0  0  0  0  0
   23.2686   -8.6001  -18.0156 O   0  0  0  0  0  0  0  0  0  0  0  0
   28.0622   -9.6306  -15.4023 O   0  0  0  0  0  0  0  0  0  0  0  0
   18.5415   -9.8986  -13.5238 N   0  0  0  0  0  0  0  0  0  0  0  0
   18.9053  -10.7779  -14.5674 C   0  0  0  0  0  0  0  0  0  0  0  0
   18.6135  -11.9848  -14.4842 O   0  0  0  0  0  0  0  0  0  0  0  0
   19.6303  -10.2761  -15.7584 C   0  0  0  0  0  0  0  0  0  0  0  0
   19.9288   -8.8326  -15.5741 C   0  0  0  0  0  0  0  0  0  0  0  0
   21.1101   -8.2883  -16.2873 C   0  0  2  0  0  0  0  0  0  0  0  0
   22.2833   -9.0665  -16.0061 N   0  0  0  0  0  0  0  0  0  0  0  0
   21.2528   -6.8434  -16.3226 C   0  0  0  0  0  0  0  0  0  0  0  0
   22.1826   -6.3608  -15.5685 O   0  0  0  0  0  0  0  0  0  0  0  0
   20.5228   -5.9164  -17.0507 N   0  0  0  0  0  0  0  0  0  0  0  0
   19.3504   -6.0878  -17.8663 C   0  0  0  0  0  0  0  0  0  0  0  0
   19.6565   -5.2370  -19.0797 C   0  0  0  0  0  0  0  0  0  0  0  0
   20.3121   -4.0238  -18.4552 C   0  0  0  0  0  0  0  0  0  0  0  0
   20.7283   -4.4434  -17.0836 C   0  0  1  0  0  0  0  0  0  0  0  0
   19.8518   -3.8049  -16.0626 C   0  0  0  0  0  0  0  0  0  0  0  0
   20.0764   -2.5184  -15.6003 O   0  0  0  0  0  0  0  0  0  0  0  0
   18.8607   -4.4139  -15.5729 O   0  0  0  0  0  0  0  0  0  0  0  0
  2  1  1  6
  2  3  1  0
  4  8  1  0
  4  3  1  0
  5  4  2  0
  6  2  1  0
  6 15  1  0
  7  6  2  0
  9 10  1  0
 10 11  2  0
 12 13  1  0
 12 10  1  0
 14 16  1  0
 14 13  1  1
 14 15  1  0
 16 18  1  0
 17 16  2  0
 18 22  1  0
 18 19  1  0
 19 20  1  0
 20 21  1  0
 22 21  1  0
 22 23  1  1
 24 23  1  0
 25 23  2  0
M  END
$$$$
