DQP.pdb
     RDKit          3D

 25 25  0  0  1  0  0  0  0  0999 V2000
   16.7538  -20.4348    1.9435 N   0  0  0  0  0  0  0  0  0  0  0  0
   16.7518  -19.9141    3.2955 C   0  0  1  0  0  0  0  0  0  0  0  0
   17.9390  -20.5302    4.0051 C   0  0  0  0  0  0  0  0  0  0  0  0
   17.6410  -21.9717    4.2024 C   0  0  0  0  0  0  0  0  0  0  0  0
   16.5964  -22.3694    4.7330 O   0  0  0  0  0  0  0  0  0  0  0  0
   16.8262  -18.4376    3.2758 C   0  0  0  0  0  0  0  0  0  0  0  0
   17.5824  -17.8018    2.5040 O   0  0  0  0  0  0  0  0  0  0  0  0
   18.5601  -22.9244    3.7806 O   0  0  0  0  0  0  0  0  0  0  0  0
   12.4689  -14.2836    5.0831 N   0  0  0  0  0  0  0  0  0  0  0  0
   12.3943  -15.2571    4.0624 C   0  0  0  0  0  0  0  0  0  0  0  0
   11.3086  -15.4675    3.4918 O   0  0  0  0  0  0  0  0  0  0  0  0
   13.5960  -16.0284    3.6663 C   0  0  0  0  0  0  0  0  0  0  0  0
   14.7384  -15.6253    4.5259 C   0  0  0  0  0  0  0  0  0  0  0  0
   16.0679  -16.1953    4.1977 C   0  0  2  0  0  0  0  0  0  0  0  0
   16.0169  -17.6296    4.1611 N   0  0  0  0  0  0  0  0  0  0  0  0
   17.2243  -15.5783    4.8236 C   0  0  0  0  0  0  0  0  0  0  0  0
   17.9172  -16.3521    5.5898 O   0  0  0  0  0  0  0  0  0  0  0  0
   17.6781  -14.2728    4.7129 N   0  0  0  0  0  0  0  0  0  0  0  0
   17.1697  -13.1731    3.9374 C   0  0  0  0  0  0  0  0  0  0  0  0
   18.4275  -12.5484    3.3737 C   0  0  0  0  0  0  0  0  0  0  0  0
   19.3744  -12.6311    4.5518 C   0  0  0  0  0  0  0  0  0  0  0  0
   18.7874  -13.6442    5.4790 C   0  0  1  0  0  0  0  0  0  0  0  0
   18.2289  -12.9735    6.6861 C   0  0  0  0  0  0  0  0  0  0  0  0
   16.8656  -12.8195    6.8783 O   0  0  0  0  0  0  0  0  0  0  0  0
   18.9803  -12.5145    7.5903 O   0  0  0  0  0  0  0  0  0  0  0  0
  2  1  1  6
  2  3  1  0
  4  8  1  0
  4  3  1  0
  5  4  2  0
  6  2  1  0
  6 15  1  0
  7  6  2  0
  9 10  1  0
 10 11  2  0
 12 13  1  0
 12 10  1  0
 14 16  1  0
 14 13  1  1
 14 15  1  0
 16 18  1  0
 17 16  2  0
 18 22  1  0
 18 19  1  0
 19 20  1  0
 20 21  1  0
 22 21  1  0
 22 23  1  1
 24 23  1  0
 25 23  2  0
M  END
$$$$
