WHT.pdb
     RDKit          3D

 32 34  0  0  1  0  0  0  0  0999 V2000
   21.8922  -11.8633  -17.3918 N   0  0  0  0  0  0  0  0  0  0  0  0
   22.6619  -11.0661  -16.4920 C   0  0  1  0  0  0  0  0  0  0  0  0
   23.9145  -10.5011  -17.1122 C   0  0  0  0  0  0  0  0  0  0  0  0
   24.8934  -11.5228  -17.4881 C   0  0  0  0  0  0  0  0  0  0  0  0
   24.9883  -12.1088  -18.7266 C   0  0  0  0  0  0  0  0  0  0  0  0
   25.9920  -12.9882  -18.6959 N   0  0  0  0  0  0  0  0  0  0  0  0
   26.5812  -13.0221  -17.4879 C   0  0  0  0  0  0  0  0  0  0  0  0
   27.6392  -13.7398  -16.9405 C   0  0  0  0  0  0  0  0  0  0  0  0
   28.0255  -13.5548  -15.6378 C   0  0  0  0  0  0  0  0  0  0  0  0
   27.3373  -12.6312  -14.8671 C   0  0  0  0  0  0  0  0  0  0  0  0
   26.2896  -11.9190  -15.4055 C   0  0  0  0  0  0  0  0  0  0  0  0
   25.8847  -12.0914  -16.7178 C   0  0  0  0  0  0  0  0  0  0  0  0
   21.8660   -9.9462  -15.9272 C   0  0  0  0  0  0  0  0  0  0  0  0
   20.9523   -9.4417  -16.6237 O   0  0  0  0  0  0  0  0  0  0  0  0
   22.1095   -9.4365  -14.6322 N   0  0  0  0  0  0  0  0  0  0  0  0
   21.2246   -8.3954  -14.0604 C   0  0  1  0  0  0  0  0  0  0  0  0
   20.9428   -8.7799  -12.6509 C   0  0  0  0  0  0  0  0  0  0  0  0
   20.0204   -7.8731  -11.9476 C   0  0  0  0  0  0  0  0  0  0  0  0
   19.4417   -6.7459  -12.5390 C   0  0  0  0  0  0  0  0  0  0  0  0
   18.6507   -6.1176  -11.6583 N   0  0  0  0  0  0  0  0  0  0  0  0
   18.7179   -6.8243  -10.5238 C   0  0  0  0  0  0  0  0  0  0  0  0
   19.5358   -7.8704  -10.7005 N   0  0  0  0  0  0  0  0  0  0  0  0
   21.8641   -7.0747  -14.2402 C   0  0  0  0  0  0  0  0  0  0  0  0
   23.0614   -6.8596  -13.9875 O   0  0  0  0  0  0  0  0  0  0  0  0
   22.5427   -5.0733  -17.1589 C   0  0  0  0  0  0  0  0  0  0  0  0
   21.5632   -4.2601  -16.3512 C   0  0  1  0  0  0  0  0  0  0  0  0
   20.2766   -4.5149  -16.7732 O   0  0  0  0  0  0  0  0  0  0  0  0
   21.7048   -4.6834  -14.9030 C   0  0  2  0  0  0  0  0  0  0  0  0
   21.1067   -5.9688  -14.7242 N   0  0  0  0  0  0  0  0  0  0  0  0
   21.0056   -3.6894  -14.0766 C   0  0  0  0  0  0  0  0  0  0  0  0
   21.5594   -2.4358  -13.8913 O   0  0  0  0  0  0  0  0  0  0  0  0
   19.9027   -3.9126  -13.5103 O   0  0  0  0  0  0  0  0  0  0  0  0
  2  1  1  6
  3  2  1  0
  3  4  1  0
  4  5  2  0
  5  6  1  0
  7  6  1  0
  8  7  2  0
  9  8  1  0
 10 11  1  0
 10  9  2  0
 11 12  2  0
 12  4  1  0
 12  7  1  0
 13 14  2  0
 13  2  1  0
 15 13  1  0
 16 15  1  0
 16 17  1  1
 18 22  1  0
 18 17  1  0
 19 18  2  0
 20 19  1  0
 20 21  1  0
 21 22  2  0
 23 16  1  0
 24 23  2  0
 26 25  1  6
 27 26  1  0
 28 26  1  0
 28 29  1  6
 29 23  1  0
 30 28  1  0
 31 30  1  0
 32 30  2  0
M  END
$$$$
