WHT.pdb
     RDKit          3D

 32 34  0  0  1  0  0  0  0  0999 V2000
   27.3547  -21.7442  -15.1720 N   0  0  0  0  0  0  0  0  0  0  0  0
   26.4937  -21.4161  -14.0818 C   0  0  1  0  0  0  0  0  0  0  0  0
   26.8454  -20.1128  -13.4108 C   0  0  0  0  0  0  0  0  0  0  0  0
   27.6735  -20.2753  -12.2145 C   0  0  0  0  0  0  0  0  0  0  0  0
   29.0461  -20.2338  -12.1919 C   0  0  0  0  0  0  0  0  0  0  0  0
   29.4481  -20.4205  -10.9328 N   0  0  0  0  0  0  0  0  0  0  0  0
   28.4047  -20.5867  -10.1014 C   0  0  0  0  0  0  0  0  0  0  0  0
   28.2744  -20.8077   -8.7346 C   0  0  0  0  0  0  0  0  0  0  0  0
   27.0411  -20.9407   -8.1500 C   0  0  0  0  0  0  0  0  0  0  0  0
   25.9143  -20.8504   -8.9518 C   0  0  0  0  0  0  0  0  0  0  0  0
   26.0394  -20.6317  -10.3051 C   0  0  0  0  0  0  0  0  0  0  0  0
   27.2749  -20.4949  -10.9136 C   0  0  0  0  0  0  0  0  0  0  0  0
   25.0690  -21.3652  -14.4992 C   0  0  0  0  0  0  0  0  0  0  0  0
   24.7925  -20.9848  -15.6625 O   0  0  0  0  0  0  0  0  0  0  0  0
   24.0217  -21.7320  -13.6247 N   0  0  0  0  0  0  0  0  0  0  0  0
   22.6323  -21.8396  -14.1266 C   0  0  1  0  0  0  0  0  0  0  0  0
   22.1083  -23.1644  -13.6972 C   0  0  0  0  0  0  0  0  0  0  0  0
   22.6276  -24.3027  -14.4734 C   0  0  0  0  0  0  0  0  0  0  0  0
   22.0848  -24.7204  -15.6926 C   0  0  0  0  0  0  0  0  0  0  0  0
   22.7632  -25.7766  -16.1617 N   0  0  0  0  0  0  0  0  0  0  0  0
   23.7224  -26.0343  -15.2648 C   0  0  0  0  0  0  0  0  0  0  0  0
   23.6381  -25.1530  -14.2595 N   0  0  0  0  0  0  0  0  0  0  0  0
   21.8620  -20.6704  -13.6521 C   0  0  0  0  0  0  0  0  0  0  0  0
   21.8108  -20.3297  -12.4584 O   0  0  0  0  0  0  0  0  0  0  0  0
   20.2874  -18.0299  -16.4926 C   0  0  0  0  0  0  0  0  0  0  0  0
   20.7292  -17.5650  -15.1282 C   0  0  1  0  0  0  0  0  0  0  0  0
   20.0132  -16.4488  -14.7547 O   0  0  0  0  0  0  0  0  0  0  0  0
   20.4463  -18.6879  -14.1506 C   0  0  2  0  0  0  0  0  0  0  0  0
   21.1292  -19.8692  -14.5751 N   0  0  0  0  0  0  0  0  0  0  0  0
   18.9958  -18.9244  -14.1496 C   0  0  0  0  0  0  0  0  0  0  0  0
   18.1408  -17.9566  -13.6549 O   0  0  0  0  0  0  0  0  0  0  0  0
   18.4666  -19.9822  -14.5829 O   0  0  0  0  0  0  0  0  0  0  0  0
  2  1  1  6
  3  2  1  0
  3  4  1  0
  4  5  2  0
  5  6  1  0
  7  6  1  0
  8  7  2  0
  9  8  1  0
 10 11  1  0
 10  9  2  0
 11 12  2  0
 12  4  1  0
 12  7  1  0
 13 14  2  0
 13  2  1  0
 15 13  1  0
 16 15  1  0
 16 17  1  1
 18 22  1  0
 18 17  1  0
 19 18  2  0
 20 19  1  0
 20 21  1  0
 21 22  2  0
 23 16  1  0
 24 23  2  0
 26 25  1  6
 27 26  1  0
 28 26  1  0
 28 29  1  6
 29 23  1  0
 30 28  1  0
 31 30  1  0
 32 30  2  0
M  END
$$$$
