WHT.pdb
     RDKit          3D

 32 34  0  0  1  0  0  0  0  0999 V2000
   24.6748  -18.9167  -19.2061 N   0  0  0  0  0  0  0  0  0  0  0  0
   24.8236  -18.7057  -17.8022 C   0  0  1  0  0  0  0  0  0  0  0  0
   24.3034  -17.3690  -17.3380 C   0  0  0  0  0  0  0  0  0  0  0  0
   24.9285  -16.2310  -18.0145 C   0  0  0  0  0  0  0  0  0  0  0  0
   24.2545  -15.1535  -18.5352 C   0  0  0  0  0  0  0  0  0  0  0  0
   25.1498  -14.3214  -19.0716 N   0  0  0  0  0  0  0  0  0  0  0  0
   26.4025  -14.7903  -18.9357 C   0  0  0  0  0  0  0  0  0  0  0  0
   27.6607  -14.3277  -19.3055 C   0  0  0  0  0  0  0  0  0  0  0  0
   28.7940  -15.0461  -19.0228 C   0  0  0  0  0  0  0  0  0  0  0  0
   28.6640  -16.2537  -18.3552 C   0  0  0  0  0  0  0  0  0  0  0  0
   27.4202  -16.7148  -17.9876 C   0  0  0  0  0  0  0  0  0  0  0  0
   26.2649  -16.0045  -18.2639 C   0  0  0  0  0  0  0  0  0  0  0  0
   24.1610  -19.7733  -17.0099 C   0  0  0  0  0  0  0  0  0  0  0  0
   23.1475  -20.3396  -17.4860 O   0  0  0  0  0  0  0  0  0  0  0  0
   24.6396  -20.1661  -15.7400 N   0  0  0  0  0  0  0  0  0  0  0  0
   23.9339  -21.2141  -14.9669 C   0  0  1  0  0  0  0  0  0  0  0  0
   24.9714  -22.0390  -14.2907 C   0  0  0  0  0  0  0  0  0  0  0  0
   25.8060  -22.8343  -15.2065 C   0  0  0  0  0  0  0  0  0  0  0  0
   25.6163  -22.8720  -16.5914 C   0  0  0  0  0  0  0  0  0  0  0  0
   26.5235  -23.6784  -17.1595 N   0  0  0  0  0  0  0  0  0  0  0  0
   27.2816  -24.1504  -16.1627 C   0  0  0  0  0  0  0  0  0  0  0  0
   26.8503  -23.6446  -14.9996 N   0  0  0  0  0  0  0  0  0  0  0  0
   22.9556  -20.5661  -14.0678 C   0  0  0  0  0  0  0  0  0  0  0  0
   23.0747  -19.3972  -13.6638 O   0  0  0  0  0  0  0  0  0  0  0  0
   21.2909  -18.5720  -14.0488 C   0  0  0  0  0  0  0  0  0  0  0  0
   20.1769  -19.5164  -13.6742 C   0  0  1  0  0  0  0  0  0  0  0  0
   19.6044  -20.0456  -14.8102 O   0  0  0  0  0  0  0  0  0  0  0  0
   20.7857  -20.6369  -12.8555 C   0  0  2  0  0  0  0  0  0  0  0  0
   21.8073  -21.2810  -13.6194 N   0  0  0  0  0  0  0  0  0  0  0  0
   19.7160  -21.5959  -12.5457 C   0  0  0  0  0  0  0  0  0  0  0  0
   18.7329  -21.2596  -11.6330 O   0  0  0  0  0  0  0  0  0  0  0  0
   19.6351  -22.7369  -13.0733 O   0  0  0  0  0  0  0  0  0  0  0  0
  2  1  1  6
  3  2  1  0
  3  4  1  0
  4  5  2  0
  5  6  1  0
  7  6  1  0
  8  7  2  0
  9  8  1  0
 10 11  1  0
 10  9  2  0
 11 12  2  0
 12  4  1  0
 12  7  1  0
 13 14  2  0
 13  2  1  0
 15 13  1  0
 16 15  1  0
 16 17  1  1
 18 22  1  0
 18 17  1  0
 19 18  2  0
 20 19  1  0
 20 21  1  0
 21 22  2  0
 23 16  1  0
 24 23  2  0
 26 25  1  6
 27 26  1  0
 28 26  1  0
 28 29  1  6
 29 23  1  0
 30 28  1  0
 31 30  1  0
 32 30  2  0
M  END
$$$$
