WHT.pdb
     RDKit          3D

 32 34  0  0  1  0  0  0  0  0999 V2000
   21.4964  -14.3643  -18.1051 N   0  0  0  0  0  0  0  0  0  0  0  0
   20.5971  -13.3009  -18.4185 C   0  0  1  0  0  0  0  0  0  0  0  0
   19.2352  -13.4630  -17.7928 C   0  0  0  0  0  0  0  0  0  0  0  0
   18.5379  -14.6787  -18.2159 C   0  0  0  0  0  0  0  0  0  0  0  0
   18.7547  -15.3436  -19.3979 C   0  0  0  0  0  0  0  0  0  0  0  0
   17.9410  -16.4010  -19.4369 N   0  0  0  0  0  0  0  0  0  0  0  0
   17.1817  -16.4800  -18.3302 C   0  0  0  0  0  0  0  0  0  0  0  0
   16.2025  -17.3599  -17.8821 C   0  0  0  0  0  0  0  0  0  0  0  0
   15.5840  -17.1793  -16.6715 C   0  0  0  0  0  0  0  0  0  0  0  0
   15.9546  -16.0941  -15.8933 C   0  0  0  0  0  0  0  0  0  0  0  0
   16.9235  -15.2211  -16.3335 C   0  0  0  0  0  0  0  0  0  0  0  0
   17.5590  -15.3862  -17.5519 C   0  0  0  0  0  0  0  0  0  0  0  0
   21.1462  -11.9786  -18.0230 C   0  0  0  0  0  0  0  0  0  0  0  0
   21.7016  -11.8643  -16.9036 O   0  0  0  0  0  0  0  0  0  0  0  0
   21.0601  -10.8512  -18.8702 N   0  0  0  0  0  0  0  0  0  0  0  0
   21.7188   -9.5798  -18.4914 C   0  0  1  0  0  0  0  0  0  0  0  0
   22.0681   -8.8701  -19.7516 C   0  0  0  0  0  0  0  0  0  0  0  0
   22.7323   -7.5713  -19.5523 C   0  0  0  0  0  0  0  0  0  0  0  0
   24.0861   -7.4354  -19.2298 C   0  0  0  0  0  0  0  0  0  0  0  0
   24.4043   -6.1389  -19.1115 N   0  0  0  0  0  0  0  0  0  0  0  0
   23.2801   -5.4539  -19.3526 C   0  0  0  0  0  0  0  0  0  0  0  0
   22.2854   -6.3118  -19.6150 N   0  0  0  0  0  0  0  0  0  0  0  0
   20.8299   -8.8375  -17.5726 C   0  0  0  0  0  0  0  0  0  0  0  0
   19.6099   -8.7051  -17.7669 O   0  0  0  0  0  0  0  0  0  0  0  0
   20.1400   -9.4838  -13.9993 C   0  0  0  0  0  0  0  0  0  0  0  0
   20.7641   -8.1132  -14.0706 C   0  0  1  0  0  0  0  0  0  0  0  0
   22.1237   -8.2020  -13.8655 O   0  0  0  0  0  0  0  0  0  0  0  0
   20.5052   -7.5666  -15.4601 C   0  0  2  0  0  0  0  0  0  0  0  0
   21.3571   -8.2294  -16.3965 N   0  0  0  0  0  0  0  0  0  0  0  0
   20.8112   -6.1293  -15.4389 C   0  0  0  0  0  0  0  0  0  0  0  0
   21.9183   -5.6511  -16.1157 O   0  0  0  0  0  0  0  0  0  0  0  0
   20.1096   -5.2812  -14.8264 O   0  0  0  0  0  0  0  0  0  0  0  0
  2  1  1  1
  3  2  1  0
  3  4  1  0
  4  5  2  0
  5  6  1  0
  7  6  1  0
  8  7  2  0
  9  8  1  0
 10 11  1  0
 10  9  2  0
 11 12  2  0
 12  4  1  0
 12  7  1  0
 13 14  2  0
 13  2  1  0
 15 13  1  0
 16 15  1  0
 16 17  1  6
 18 22  1  0
 18 17  1  0
 19 18  2  0
 20 19  1  0
 20 21  1  0
 21 22  2  0
 23 16  1  0
 24 23  2  0
 26 25  1  6
 27 26  1  0
 28 26  1  0
 28 29  1  6
 29 23  1  0
 30 28  1  0
 31 30  1  0
 32 30  2  0
M  END
$$$$
