WHT.pdb
     RDKit          3D

 32 34  0  0  1  0  0  0  0  0999 V2000
   14.0046  -15.2850    6.9852 N   0  0  0  0  0  0  0  0  0  0  0  0
   15.3691  -15.4519    6.6006 C   0  0  1  0  0  0  0  0  0  0  0  0
   15.9795  -14.2106    6.0011 C   0  0  0  0  0  0  0  0  0  0  0  0
   16.7818  -14.4723    4.8047 C   0  0  0  0  0  0  0  0  0  0  0  0
   16.6800  -15.5906    4.0139 C   0  0  0  0  0  0  0  0  0  0  0  0
   17.5650  -15.4808    3.0207 N   0  0  0  0  0  0  0  0  0  0  0  0
   18.2622  -14.3343    3.1058 C   0  0  0  0  0  0  0  0  0  0  0  0
   19.2715  -13.7500    2.3483 C   0  0  0  0  0  0  0  0  0  0  0  0
   19.8045  -12.5339    2.6909 C   0  0  0  0  0  0  0  0  0  0  0  0
   19.3160  -11.8894    3.8163 C   0  0  0  0  0  0  0  0  0  0  0  0
   18.3170  -12.4646    4.5686 C   0  0  0  0  0  0  0  0  0  0  0  0
   17.7663  -13.6910    4.2393 C   0  0  0  0  0  0  0  0  0  0  0  0
   16.2140  -15.8929    7.7399 C   0  0  0  0  0  0  0  0  0  0  0  0
   16.2898  -15.1607    8.7561 O   0  0  0  0  0  0  0  0  0  0  0  0
   16.9315  -17.1097    7.7097 N   0  0  0  0  0  0  0  0  0  0  0  0
   17.7844  -17.5028    8.8551 C   0  0  1  0  0  0  0  0  0  0  0  0
   17.3804  -18.8776    9.2559 C   0  0  0  0  0  0  0  0  0  0  0  0
   18.0111  -19.3578   10.4966 C   0  0  0  0  0  0  0  0  0  0  0  0
   18.9115  -18.5994   11.2512 C   0  0  0  0  0  0  0  0  0  0  0  0
   19.3173  -19.2958   12.3219 N   0  0  0  0  0  0  0  0  0  0  0  0
   18.6920  -20.4774   12.2591 C   0  0  0  0  0  0  0  0  0  0  0  0
   17.9140  -20.5103   11.1691 N   0  0  0  0  0  0  0  0  0  0  0  0
   19.2029  -17.3474    8.4688 C   0  0  0  0  0  0  0  0  0  0  0  0
   19.6278  -17.5980    7.3285 O   0  0  0  0  0  0  0  0  0  0  0  0
   21.3418  -14.2470    8.9069 C   0  0  0  0  0  0  0  0  0  0  0  0
   22.0082  -15.3719    9.6575 C   0  0  1  0  0  0  0  0  0  0  0  0
   21.6483  -15.3312   10.9869 O   0  0  0  0  0  0  0  0  0  0  0  0
   21.5247  -16.6737    9.0507 C   0  0  2  0  0  0  0  0  0  0  0  0
   20.1614  -16.8910    9.4197 N   0  0  0  0  0  0  0  0  0  0  0  0
   22.3639  -17.7550    9.5860 C   0  0  0  0  0  0  0  0  0  0  0  0
   21.8294  -18.6614   10.4832 O   0  0  0  0  0  0  0  0  0  0  0  0
   23.5731  -17.9133    9.2707 O   0  0  0  0  0  0  0  0  0  0  0  0
  2  1  1  1
  3  2  1  0
  3  4  1  0
  4  5  2  0
  5  6  1  0
  7  6  1  0
  8  7  2  0
  9  8  1  0
 10 11  1  0
 10  9  2  0
 11 12  2  0
 12  4  1  0
 12  7  1  0
 13 14  2  0
 13  2  1  0
 15 13  1  0
 16 15  1  0
 16 17  1  6
 18 22  1  0
 18 17  1  0
 19 18  2  0
 20 19  1  0
 20 21  1  0
 21 22  2  0
 23 16  1  0
 24 23  2  0
 26 25  1  6
 27 26  1  0
 28 26  1  0
 28 29  1  1
 29 23  1  0
 30 28  1  0
 31 30  1  0
 32 30  2  0
M  END
$$$$
