WHT.pdb
     RDKit          3D

 32 34  0  0  1  0  0  0  0  0999 V2000
   27.6826  -23.0209   -9.9418 N   0  0  0  0  0  0  0  0  0  0  0  0
   26.9861  -21.7771   -9.8666 C   0  0  1  0  0  0  0  0  0  0  0  0
   27.8712  -20.6157   -9.4918 C   0  0  0  0  0  0  0  0  0  0  0  0
   27.5840  -20.0653   -8.1659 C   0  0  0  0  0  0  0  0  0  0  0  0
   26.4472  -19.3733   -7.8267 C   0  0  0  0  0  0  0  0  0  0  0  0
   26.5367  -19.0297   -6.5400 N   0  0  0  0  0  0  0  0  0  0  0  0
   27.6870  -19.4603   -5.9933 C   0  0  0  0  0  0  0  0  0  0  0  0
   28.2564  -19.3722   -4.7276 C   0  0  0  0  0  0  0  0  0  0  0  0
   29.4817  -19.9261   -4.4588 C   0  0  0  0  0  0  0  0  0  0  0  0
   30.1508  -20.5823   -5.4798 C   0  0  0  0  0  0  0  0  0  0  0  0
   29.5903  -20.6716   -6.7339 C   0  0  0  0  0  0  0  0  0  0  0  0
   28.3551  -20.1192   -7.0248 C   0  0  0  0  0  0  0  0  0  0  0  0
   26.2940  -21.4538  -11.1405 C   0  0  0  0  0  0  0  0  0  0  0  0
   26.8753  -21.7009  -12.2247 O   0  0  0  0  0  0  0  0  0  0  0  0
   25.0040  -20.8779  -11.1636 N   0  0  0  0  0  0  0  0  0  0  0  0
   24.2813  -20.7149  -12.4462 C   0  0  1  0  0  0  0  0  0  0  0  0
   22.8370  -20.5606  -12.1235 C   0  0  0  0  0  0  0  0  0  0  0  0
   21.9658  -20.4047  -13.3001 C   0  0  0  0  0  0  0  0  0  0  0  0
   22.4444  -20.3078  -14.6105 C   0  0  0  0  0  0  0  0  0  0  0  0
   21.4219  -20.1736  -15.4663 N   0  0  0  0  0  0  0  0  0  0  0  0
   20.3083  -20.1837  -14.7240 C   0  0  0  0  0  0  0  0  0  0  0  0
   20.6371  -20.3217  -13.4327 N   0  0  0  0  0  0  0  0  0  0  0  0
   24.8859  -19.5926  -13.1949 C   0  0  0  0  0  0  0  0  0  0  0  0
   24.9479  -18.4343  -12.7498 O   0  0  0  0  0  0  0  0  0  0  0  0
   28.2140  -19.0513  -14.0404 C   0  0  0  0  0  0  0  0  0  0  0  0
   27.5514  -19.1108  -15.3933 C   0  0  1  0  0  0  0  0  0  0  0  0
   27.6417  -20.3857  -15.9079 O   0  0  0  0  0  0  0  0  0  0  0  0
   26.0912  -18.7537  -15.2015 C   0  0  2  0  0  0  0  0  0  0  0  0
   25.4351  -19.8067  -14.4924 N   0  0  0  0  0  0  0  0  0  0  0  0
   25.4900  -18.6005  -16.5338 C   0  0  0  0  0  0  0  0  0  0  0  0
   25.9459  -17.6105  -17.3851 O   0  0  0  0  0  0  0  0  0  0  0  0
   24.5598  -19.3340  -16.9620 O   0  0  0  0  0  0  0  0  0  0  0  0
  2  1  1  6
  3  2  1  0
  3  4  1  0
  4  5  2  0
  5  6  1  0
  7  6  1  0
  8  7  2  0
  9  8  1  0
 10 11  1  0
 10  9  2  0
 11 12  2  0
 12  4  1  0
 12  7  1  0
 13 14  2  0
 13  2  1  0
 15 13  1  0
 16 15  1  0
 16 17  1  1
 18 22  1  0
 18 17  1  0
 19 18  2  0
 20 19  1  0
 20 21  1  0
 21 22  2  0
 23 16  1  0
 24 23  2  0
 26 25  1  1
 27 26  1  0
 28 26  1  0
 28 29  1  6
 29 23  1  0
 30 28  1  0
 31 30  1  0
 32 30  2  0
M  END
$$$$
