WHT.pdb
     RDKit          3D

 32 34  0  0  1  0  0  0  0  0999 V2000
   27.3025  -20.2915  -10.8183 N   0  0  0  0  0  0  0  0  0  0  0  0
   26.2668  -21.1994  -10.4432 C   0  0  1  0  0  0  0  0  0  0  0  0
   26.0870  -21.3211   -8.9514 C   0  0  0  0  0  0  0  0  0  0  0  0
   26.8030  -20.2959   -8.1902 C   0  0  0  0  0  0  0  0  0  0  0  0
   27.0761  -19.0262   -8.6370 C   0  0  0  0  0  0  0  0  0  0  0  0
   27.7402  -18.3799   -7.6762 N   0  0  0  0  0  0  0  0  0  0  0  0
   27.9282  -19.1592   -6.5968 C   0  0  0  0  0  0  0  0  0  0  0  0
   28.5403  -18.9796   -5.3611 C   0  0  0  0  0  0  0  0  0  0  0  0
   28.5768  -19.9877   -4.4322 C   0  0  0  0  0  0  0  0  0  0  0  0
   27.9873  -21.2016   -4.7481 C   0  0  0  0  0  0  0  0  0  0  0  0
   27.3805  -21.3830   -5.9702 C   0  0  0  0  0  0  0  0  0  0  0  0
   27.3334  -20.3780   -6.9207 C   0  0  0  0  0  0  0  0  0  0  0  0
   24.9620  -20.8296  -11.0493 C   0  0  0  0  0  0  0  0  0  0  0  0
   24.5431  -19.6546  -10.9139 O   0  0  0  0  0  0  0  0  0  0  0  0
   24.1835  -21.7621  -11.7710 N   0  0  0  0  0  0  0  0  0  0  0  0
   23.0058  -21.3101  -12.5472 C   0  0  1  0  0  0  0  0  0  0  0  0
   23.4100  -21.2655  -13.9785 C   0  0  0  0  0  0  0  0  0  0  0  0
   24.2905  -20.1376  -14.3252 C   0  0  0  0  0  0  0  0  0  0  0  0
   25.6525  -20.2775  -14.6094 C   0  0  0  0  0  0  0  0  0  0  0  0
   26.1906  -19.0823  -14.8887 N   0  0  0  0  0  0  0  0  0  0  0  0
   25.1973  -18.1913  -14.7869 C   0  0  0  0  0  0  0  0  0  0  0  0
   24.0658  -18.8247  -14.4507 N   0  0  0  0  0  0  0  0  0  0  0  0
   21.8633  -22.1966  -12.2397 C   0  0  0  0  0  0  0  0  0  0  0  0
   21.9523  -23.4356  -12.2150 O   0  0  0  0  0  0  0  0  0  0  0  0
   19.3841  -22.0340   -9.3139 C   0  0  0  0  0  0  0  0  0  0  0  0
   18.6102  -21.8857  -10.5991 C   0  0  1  0  0  0  0  0  0  0  0  0
   18.3902  -20.5522  -10.8669 O   0  0  0  0  0  0  0  0  0  0  0  0
   19.4511  -22.4839  -11.7089 C   0  0  2  0  0  0  0  0  0  0  0  0
   20.5814  -21.6442  -11.9522 N   0  0  0  0  0  0  0  0  0  0  0  0
   18.6143  -22.5545  -12.9150 C   0  0  0  0  0  0  0  0  0  0  0  0
   18.9193  -21.7690  -14.0115 O   0  0  0  0  0  0  0  0  0  0  0  0
   17.6086  -23.3062  -13.0167 O   0  0  0  0  0  0  0  0  0  0  0  0
  2  1  1  1
  3  2  1  0
  3  4  1  0
  4  5  2  0
  5  6  1  0
  7  6  1  0
  8  7  2  0
  9  8  1  0
 10 11  1  0
 10  9  2  0
 11 12  2  0
 12  4  1  0
 12  7  1  0
 13 14  2  0
 13  2  1  0
 15 13  1  0
 16 15  1  0
 16 17  1  6
 18 22  1  0
 18 17  1  0
 19 18  2  0
 20 19  1  0
 20 21  1  0
 21 22  2  0
 23 16  1  0
 24 23  2  0
 26 25  1  1
 27 26  1  0
 28 26  1  0
 28 29  1  6
 29 23  1  0
 30 28  1  0
 31 30  1  0
 32 30  2  0
M  END
$$$$
