WHT.pdb
     RDKit          3D

 32 34  0  0  1  0  0  0  0  0999 V2000
   28.5163  -20.2585   -9.7671 N   0  0  0  0  0  0  0  0  0  0  0  0
   27.2390  -20.8370   -9.4993 C   0  0  1  0  0  0  0  0  0  0  0  0
   26.5132  -20.1831   -8.3511 C   0  0  0  0  0  0  0  0  0  0  0  0
   27.4077  -19.6023   -7.3482 C   0  0  0  0  0  0  0  0  0  0  0  0
   27.9135  -18.3259   -7.3848 C   0  0  0  0  0  0  0  0  0  0  0  0
   28.6860  -18.1526   -6.3100 N   0  0  0  0  0  0  0  0  0  0  0  0
   28.7244  -19.2588   -5.5467 C   0  0  0  0  0  0  0  0  0  0  0  0
   29.3585  -19.5989   -4.3567 C   0  0  0  0  0  0  0  0  0  0  0  0
   29.2053  -20.8425   -3.7994 C   0  0  0  0  0  0  0  0  0  0  0  0
   28.3997  -21.7649   -4.4482 C   0  0  0  0  0  0  0  0  0  0  0  0
   27.7704  -21.4317   -5.6262 C   0  0  0  0  0  0  0  0  0  0  0  0
   27.9125  -20.1822   -6.2044 C   0  0  0  0  0  0  0  0  0  0  0  0
   26.3581  -20.8082  -10.6949 C   0  0  0  0  0  0  0  0  0  0  0  0
   26.2787  -19.7489  -11.3628 O   0  0  0  0  0  0  0  0  0  0  0  0
   25.6104  -21.9372  -11.0982 N   0  0  0  0  0  0  0  0  0  0  0  0
   24.9837  -21.9781  -12.4396 C   0  0  1  0  0  0  0  0  0  0  0  0
   25.0622  -23.3835  -12.9217 C   0  0  0  0  0  0  0  0  0  0  0  0
   24.4819  -23.5999  -14.2575 C   0  0  0  0  0  0  0  0  0  0  0  0
   23.8336  -22.6015  -14.9911 C   0  0  0  0  0  0  0  0  0  0  0  0
   23.4118  -23.0916  -16.1649 N   0  0  0  0  0  0  0  0  0  0  0  0
   23.7801  -24.3781  -16.1877 C   0  0  0  0  0  0  0  0  0  0  0  0
   24.4180  -24.6772  -15.0483 N   0  0  0  0  0  0  0  0  0  0  0  0
   23.6193  -21.4166  -12.3458 C   0  0  0  0  0  0  0  0  0  0  0  0
   22.9141  -21.5117  -11.3274 O   0  0  0  0  0  0  0  0  0  0  0  0
   22.2765  -17.8653  -13.8549 C   0  0  0  0  0  0  0  0  0  0  0  0
   21.5799  -19.0814  -14.4105 C   0  0  1  0  0  0  0  0  0  0  0  0
   22.1760  -19.4693  -15.5906 O   0  0  0  0  0  0  0  0  0  0  0  0
   21.7233  -20.1938  -13.3914 C   0  0  2  0  0  0  0  0  0  0  0  0
   23.0481  -20.7258  -13.4537 N   0  0  0  0  0  0  0  0  0  0  0  0
   20.7498  -21.2405  -13.7326 C   0  0  0  0  0  0  0  0  0  0  0  0
   19.3969  -20.9991  -13.5784 O   0  0  0  0  0  0  0  0  0  0  0  0
   21.0782  -22.3757  -14.1689 O   0  0  0  0  0  0  0  0  0  0  0  0
  2  1  1  6
  3  2  1  0
  3  4  1  0
  4  5  2  0
  5  6  1  0
  7  6  1  0
  8  7  2  0
  9  8  1  0
 10 11  1  0
 10  9  2  0
 11 12  2  0
 12  4  1  0
 12  7  1  0
 13 14  2  0
 13  2  1  0
 15 13  1  0
 16 15  1  0
 16 17  1  1
 18 22  1  0
 18 17  1  0
 19 18  2  0
 20 19  1  0
 20 21  1  0
 21 22  2  0
 23 16  1  0
 24 23  2  0
 26 25  1  1
 27 26  1  0
 28 26  1  0
 28 29  1  6
 29 23  1  0
 30 28  1  0
 31 30  1  0
 32 30  2  0
M  END
$$$$
