WHT.pdb
     RDKit          3D

 32 34  0  0  1  0  0  0  0  0999 V2000
   20.1463  -11.9973  -17.0165 N   0  0  0  0  0  0  0  0  0  0  0  0
   20.4528  -10.6142  -17.1917 C   0  0  1  0  0  0  0  0  0  0  0  0
   20.0088  -10.0654  -18.5238 C   0  0  0  0  0  0  0  0  0  0  0  0
   20.6207  -10.7421  -19.6687 C   0  0  0  0  0  0  0  0  0  0  0  0
   20.2850  -11.9959  -20.1177 C   0  0  0  0  0  0  0  0  0  0  0  0
   21.0495  -12.2787  -21.1747 N   0  0  0  0  0  0  0  0  0  0  0  0
   21.8891  -11.2684  -21.4606 C   0  0  0  0  0  0  0  0  0  0  0  0
   22.8637  -11.0570  -22.4299 C   0  0  0  0  0  0  0  0  0  0  0  0
   23.5818   -9.8896  -22.4737 C   0  0  0  0  0  0  0  0  0  0  0  0
   23.3179   -8.9131  -21.5263 C   0  0  0  0  0  0  0  0  0  0  0  0
   22.3539   -9.1187  -20.5655 C   0  0  0  0  0  0  0  0  0  0  0  0
   21.6188  -10.2899  -20.5046 C   0  0  0  0  0  0  0  0  0  0  0  0
   19.8646   -9.7775  -16.1144 C   0  0  0  0  0  0  0  0  0  0  0  0
   18.7488  -10.0995  -15.6391 O   0  0  0  0  0  0  0  0  0  0  0  0
   20.5254   -8.6337  -15.6131 N   0  0  0  0  0  0  0  0  0  0  0  0
   19.8968   -7.8122  -14.5531 C   0  0  1  0  0  0  0  0  0  0  0  0
   20.4240   -8.2953  -13.2482 C   0  0  0  0  0  0  0  0  0  0  0  0
   19.9284   -7.5488  -12.0799 C   0  0  0  0  0  0  0  0  0  0  0  0
   20.6909   -6.6065  -11.3827 C   0  0  0  0  0  0  0  0  0  0  0  0
   19.9777   -6.0936  -10.3707 N   0  0  0  0  0  0  0  0  0  0  0  0
   18.7814   -6.6920  -10.4144 C   0  0  0  0  0  0  0  0  0  0  0  0
   18.7561   -7.5591  -11.4351 N   0  0  0  0  0  0  0  0  0  0  0  0
   20.1446   -6.3845  -14.8462 C   0  0  0  0  0  0  0  0  0  0  0  0
   21.2834   -5.9063  -14.9800 O   0  0  0  0  0  0  0  0  0  0  0  0
   19.3784   -4.3883  -17.6800 C   0  0  0  0  0  0  0  0  0  0  0  0
   18.5997   -3.7277  -16.5708 C   0  0  1  0  0  0  0  0  0  0  0  0
   17.3034   -4.1945  -16.5607 O   0  0  0  0  0  0  0  0  0  0  0  0
   19.2707   -4.0940  -15.2624 C   0  0  2  0  0  0  0  0  0  0  0  0
   19.0529   -5.4798  -14.9898 N   0  0  0  0  0  0  0  0  0  0  0  0
   18.6618   -3.2765  -14.2038 C   0  0  0  0  0  0  0  0  0  0  0  0
   18.9630   -1.9297  -14.1148 O   0  0  0  0  0  0  0  0  0  0  0  0
   17.8603   -3.7371  -13.3481 O   0  0  0  0  0  0  0  0  0  0  0  0
  2  1  1  1
  3  2  1  0
  3  4  1  0
  4  5  2  0
  5  6  1  0
  7  6  1  0
  8  7  2  0
  9  8  1  0
 10 11  1  0
 10  9  2  0
 11 12  2  0
 12  4  1  0
 12  7  1  0
 13 14  2  0
 13  2  1  0
 15 13  1  0
 16 15  1  0
 16 17  1  1
 18 22  1  0
 18 17  1  0
 19 18  2  0
 20 19  1  0
 20 21  1  0
 21 22  2  0
 23 16  1  0
 24 23  2  0
 26 25  1  6
 27 26  1  0
 28 26  1  0
 28 29  1  1
 29 23  1  0
 30 28  1  0
 31 30  1  0
 32 30  2  0
M  END
$$$$
