WHT.pdb
     RDKit          3D

 32 34  0  0  1  0  0  0  0  0999 V2000
   22.2804  -18.2615  -18.9947 N   0  0  0  0  0  0  0  0  0  0  0  0
   21.9558  -17.7599  -17.6983 C   0  0  1  0  0  0  0  0  0  0  0  0
   20.5476  -17.2319  -17.5946 C   0  0  0  0  0  0  0  0  0  0  0  0
   20.3016  -16.0538  -18.4282 C   0  0  0  0  0  0  0  0  0  0  0  0
   19.5512  -16.0422  -19.5784 C   0  0  0  0  0  0  0  0  0  0  0  0
   19.5505  -14.7986  -20.0633 N   0  0  0  0  0  0  0  0  0  0  0  0
   20.2694  -13.9671  -19.2891 C   0  0  0  0  0  0  0  0  0  0  0  0
   20.5798  -12.6125  -19.3415 C   0  0  0  0  0  0  0  0  0  0  0  0
   21.3597  -12.0238  -18.3794 C   0  0  0  0  0  0  0  0  0  0  0  0
   21.8387  -12.8089  -17.3426 C   0  0  0  0  0  0  0  0  0  0  0  0
   21.5334  -14.1500  -17.2874 C   0  0  0  0  0  0  0  0  0  0  0  0
   20.7482  -14.7624  -18.2486 C   0  0  0  0  0  0  0  0  0  0  0  0
   22.1562  -18.7860  -16.6431 C   0  0  0  0  0  0  0  0  0  0  0  0
   21.7254  -19.9480  -16.8393 O   0  0  0  0  0  0  0  0  0  0  0  0
   22.8163  -18.4893  -15.4296 N   0  0  0  0  0  0  0  0  0  0  0  0
   22.9641  -19.5296  -14.3857 C   0  0  1  0  0  0  0  0  0  0  0  0
   24.0658  -19.0977  -13.4837 C   0  0  0  0  0  0  0  0  0  0  0  0
   24.2782  -19.9764  -12.3216 C   0  0  0  0  0  0  0  0  0  0  0  0
   23.4645  -21.0733  -12.0213 C   0  0  0  0  0  0  0  0  0  0  0  0
   23.9007  -21.6806  -10.9091 N   0  0  0  0  0  0  0  0  0  0  0  0
   24.9722  -20.9903  -10.5012 C   0  0  0  0  0  0  0  0  0  0  0  0
   25.1940  -19.9749  -11.3462 N   0  0  0  0  0  0  0  0  0  0  0  0
   21.6550  -19.7375  -13.7310 C   0  0  0  0  0  0  0  0  0  0  0  0
   20.9922  -18.8142  -13.2292 O   0  0  0  0  0  0  0  0  0  0  0  0
   19.2121  -22.8283  -14.7224 C   0  0  0  0  0  0  0  0  0  0  0  0
   18.7743  -21.6037  -13.9596 C   0  0  1  0  0  0  0  0  0  0  0  0
   17.6008  -21.8617  -13.2853 O   0  0  0  0  0  0  0  0  0  0  0  0
   19.8631  -21.2782  -12.9571 C   0  0  2  0  0  0  0  0  0  0  0  0
   21.0906  -21.0437  -13.6501 N   0  0  0  0  0  0  0  0  0  0  0  0
   20.0088  -22.4361  -12.0639 C   0  0  0  0  0  0  0  0  0  0  0  0
   18.9916  -22.7597  -11.1847 O   0  0  0  0  0  0  0  0  0  0  0  0
   21.0298  -23.1736  -12.0477 O   0  0  0  0  0  0  0  0  0  0  0  0
  2  1  1  6
  3  2  1  0
  3  4  1  0
  4  5  2  0
  5  6  1  0
  7  6  1  0
  8  7  2  0
  9  8  1  0
 10 11  1  0
 10  9  2  0
 11 12  2  0
 12  4  1  0
 12  7  1  0
 13 14  2  0
 13  2  1  0
 15 13  1  0
 16 15  1  0
 16 17  1  1
 18 22  1  0
 18 17  1  0
 19 18  2  0
 20 19  1  0
 20 21  1  0
 21 22  2  0
 23 16  1  0
 24 23  2  0
 26 25  1  1
 27 26  1  0
 28 26  1  0
 28 29  1  6
 29 23  1  0
 30 28  1  0
 31 30  1  0
 32 30  2  0
M  END
$$$$
