WHT.pdb
     RDKit          3D

 32 34  0  0  1  0  0  0  0  0999 V2000
   35.5018  -26.1896    4.3852 N   0  0  0  0  0  0  0  0  0  0  0  0
   35.8195  -24.9720    5.0591 C   0  0  1  0  0  0  0  0  0  0  0  0
   34.6301  -24.3255    5.7225 C   0  0  0  0  0  0  0  0  0  0  0  0
   33.7710  -23.5888    4.7938 C   0  0  0  0  0  0  0  0  0  0  0  0
   33.4240  -24.0111    3.5338 C   0  0  0  0  0  0  0  0  0  0  0  0
   32.6344  -23.0846    2.9863 N   0  0  0  0  0  0  0  0  0  0  0  0
   32.4319  -22.0521    3.8232 C   0  0  0  0  0  0  0  0  0  0  0  0
   31.7125  -20.8643    3.7478 C   0  0  0  0  0  0  0  0  0  0  0  0
   31.6917  -19.9778    4.7938 C   0  0  0  0  0  0  0  0  0  0  0  0
   32.4067  -20.2878    5.9397 C   0  0  0  0  0  0  0  0  0  0  0  0
   33.1199  -21.4626    6.0180 C   0  0  0  0  0  0  0  0  0  0  0  0
   33.1534  -22.3699    4.9733 C   0  0  0  0  0  0  0  0  0  0  0  0
   36.8831  -25.1660    6.0778 C   0  0  0  0  0  0  0  0  0  0  0  0
   36.8772  -26.2147    6.7667 O   0  0  0  0  0  0  0  0  0  0  0  0
   37.8966  -24.2049    6.2906 N   0  0  0  0  0  0  0  0  0  0  0  0
   38.9986  -24.4792    7.2416 C   0  0  1  0  0  0  0  0  0  0  0  0
   40.2701  -24.1069    6.5644 C   0  0  0  0  0  0  0  0  0  0  0  0
   40.7713  -25.1166    5.6173 C   0  0  0  0  0  0  0  0  0  0  0  0
   40.1616  -26.3587    5.4153 C   0  0  0  0  0  0  0  0  0  0  0  0
   40.8399  -27.0617    4.4977 N   0  0  0  0  0  0  0  0  0  0  0  0
   41.8644  -26.2897    4.1165 C   0  0  0  0  0  0  0  0  0  0  0  0
   41.8199  -25.1306    4.7865 N   0  0  0  0  0  0  0  0  0  0  0  0
   38.7240  -23.7674    8.5078 C   0  0  0  0  0  0  0  0  0  0  0  0
   38.4797  -22.5505    8.5638 O   0  0  0  0  0  0  0  0  0  0  0  0
   36.1176  -24.3173   11.0774 C   0  0  0  0  0  0  0  0  0  0  0  0
   37.4374  -24.5431   11.7703 C   0  0  1  0  0  0  0  0  0  0  0  0
   37.7416  -25.8868   11.7808 O   0  0  0  0  0  0  0  0  0  0  0  0
   38.4977  -23.7989   10.9839 C   0  0  2  0  0  0  0  0  0  0  0  0
   38.7302  -24.4734    9.7458 N   0  0  0  0  0  0  0  0  0  0  0  0
   39.7285  -23.7940   11.7872 C   0  0  0  0  0  0  0  0  0  0  0  0
   39.7972  -23.0285   12.9368 O   0  0  0  0  0  0  0  0  0  0  0  0
   40.7537  -24.4615   11.4869 O   0  0  0  0  0  0  0  0  0  0  0  0
  2  1  1  1
  3  2  1  0
  3  4  1  0
  4  5  2  0
  5  6  1  0
  7  6  1  0
  8  7  2  0
  9  8  1  0
 10 11  1  0
 10  9  2  0
 11 12  2  0
 12  4  1  0
 12  7  1  0
 13 14  2  0
 13  2  1  0
 15 13  1  0
 16 15  1  0
 16 17  1  6
 18 22  1  0
 18 17  1  0
 19 18  2  0
 20 19  1  0
 20 21  1  0
 21 22  2  0
 23 16  1  0
 24 23  2  0
 26 25  1  6
 27 26  1  0
 28 26  1  0
 28 29  1  6
 29 23  1  0
 30 28  1  0
 31 30  1  0
 32 30  2  0
M  END
$$$$
