WHT.pdb
     RDKit          3D

 32 34  0  0  1  0  0  0  0  0999 V2000
   24.2565  -19.9998  -13.1203 N   0  0  0  0  0  0  0  0  0  0  0  0
   24.0989  -20.5016  -11.7932 C   0  0  1  0  0  0  0  0  0  0  0  0
   23.3266  -21.7947  -11.7286 C   0  0  0  0  0  0  0  0  0  0  0  0
   21.9067  -21.6449  -12.0524 C   0  0  0  0  0  0  0  0  0  0  0  0
   21.2654  -22.2612  -13.0989 C   0  0  0  0  0  0  0  0  0  0  0  0
   19.9836  -21.8891  -13.0797 N   0  0  0  0  0  0  0  0  0  0  0  0
   19.7299  -21.0463  -12.0634 C   0  0  0  0  0  0  0  0  0  0  0  0
   18.5950  -20.3841  -11.6079 C   0  0  0  0  0  0  0  0  0  0  0  0
   18.6428  -19.5637  -10.5100 C   0  0  0  0  0  0  0  0  0  0  0  0
   19.8533  -19.4034   -9.8546 C   0  0  0  0  0  0  0  0  0  0  0  0
   20.9788  -20.0573  -10.3026 C   0  0  0  0  0  0  0  0  0  0  0  0
   20.9509  -20.8892  -11.4084 C   0  0  0  0  0  0  0  0  0  0  0  0
   25.4073  -20.6967  -11.1176 C   0  0  0  0  0  0  0  0  0  0  0  0
   26.2667  -21.4303  -11.6632 O   0  0  0  0  0  0  0  0  0  0  0  0
   25.7083  -20.0807   -9.8822 N   0  0  0  0  0  0  0  0  0  0  0  0
   27.1087  -20.0079   -9.4052 C   0  0  1  0  0  0  0  0  0  0  0  0
   27.6874  -18.7392   -9.9244 C   0  0  0  0  0  0  0  0  0  0  0  0
   28.9205  -18.9118  -10.7101 C   0  0  0  0  0  0  0  0  0  0  0  0
   29.5134  -20.1538  -10.9577 C   0  0  0  0  0  0  0  0  0  0  0  0
   30.6199  -19.9974  -11.6974 N   0  0  0  0  0  0  0  0  0  0  0  0
   30.7380  -18.6834  -11.9218 C   0  0  0  0  0  0  0  0  0  0  0  0
   29.7225  -18.0395  -11.3313 N   0  0  0  0  0  0  0  0  0  0  0  0
   27.1194  -20.1529   -7.9340 C   0  0  0  0  0  0  0  0  0  0  0  0
   26.1422  -19.8794   -7.2173 O   0  0  0  0  0  0  0  0  0  0  0  0
   29.6641  -21.4183   -3.9196 C   0  0  0  0  0  0  0  0  0  0  0  0
   29.6545  -21.3422   -5.4252 C   0  0  1  0  0  0  0  0  0  0  0  0
   29.7437  -22.6076   -5.9628 O   0  0  0  0  0  0  0  0  0  0  0  0
   28.3385  -20.7164   -5.8412 C   0  0  2  0  0  0  0  0  0  0  0  0
   28.2864  -20.6257   -7.2664 N   0  0  0  0  0  0  0  0  0  0  0  0
   28.2784  -19.3705   -5.2540 C   0  0  0  0  0  0  0  0  0  0  0  0
   27.7621  -19.1963   -3.9830 O   0  0  0  0  0  0  0  0  0  0  0  0
   28.6786  -18.3361   -5.8513 O   0  0  0  0  0  0  0  0  0  0  0  0
  2  1  1  6
  3  2  1  0
  3  4  1  0
  4  5  2  0
  5  6  1  0
  7  6  1  0
  8  7  2  0
  9  8  1  0
 10 11  1  0
 10  9  2  0
 11 12  2  0
 12  4  1  0
 12  7  1  0
 13 14  2  0
 13  2  1  0
 15 13  1  0
 16 15  1  0
 16 17  1  1
 18 22  1  0
 18 17  1  0
 19 18  2  0
 20 19  1  0
 20 21  1  0
 21 22  2  0
 23 16  1  0
 24 23  2  0
 26 25  1  1
 27 26  1  0
 28 26  1  0
 28 29  1  6
 29 23  1  0
 30 28  1  0
 31 30  1  0
 32 30  2  0
M  END
$$$$
