WHT.pdb
     RDKit          3D

 32 34  0  0  1  0  0  0  0  0999 V2000
   27.4427  -20.6617  -15.4115 N   0  0  0  0  0  0  0  0  0  0  0  0
   26.2816  -19.8446  -15.2638 C   0  0  1  0  0  0  0  0  0  0  0  0
   25.8050  -19.2395  -16.5597 C   0  0  0  0  0  0  0  0  0  0  0  0
   26.5937  -18.0838  -16.9907 C   0  0  0  0  0  0  0  0  0  0  0  0
   27.3053  -18.0054  -18.1628 C   0  0  0  0  0  0  0  0  0  0  0  0
   27.8945  -16.8087  -18.2135 N   0  0  0  0  0  0  0  0  0  0  0  0
   27.6114  -16.0731  -17.1243 C   0  0  0  0  0  0  0  0  0  0  0  0
   27.9598  -14.7975  -16.6934 C   0  0  0  0  0  0  0  0  0  0  0  0
   27.5041  -14.3010  -15.4991 C   0  0  0  0  0  0  0  0  0  0  0  0
   26.6819  -15.0994  -14.7199 C   0  0  0  0  0  0  0  0  0  0  0  0
   26.3349  -16.3625  -15.1432 C   0  0  0  0  0  0  0  0  0  0  0  0
   26.7845  -16.8813  -16.3449 C   0  0  0  0  0  0  0  0  0  0  0  0
   25.1554  -20.5915  -14.6470 C   0  0  0  0  0  0  0  0  0  0  0  0
   25.1294  -21.8417  -14.7511 O   0  0  0  0  0  0  0  0  0  0  0  0
   24.1174  -19.9343  -13.9492 N   0  0  0  0  0  0  0  0  0  0  0  0
   23.1218  -20.7166  -13.1807 C   0  0  1  0  0  0  0  0  0  0  0  0
   23.2181  -20.2817  -11.7609 C   0  0  0  0  0  0  0  0  0  0  0  0
   24.3904  -20.8091  -11.0431 C   0  0  0  0  0  0  0  0  0  0  0  0
   25.3387  -21.6557  -11.6257 C   0  0  0  0  0  0  0  0  0  0  0  0
   26.2871  -21.9700  -10.7326 N   0  0  0  0  0  0  0  0  0  0  0  0
   25.9576  -21.3398   -9.5989 C   0  0  0  0  0  0  0  0  0  0  0  0
   24.8259  -20.6486   -9.7883 N   0  0  0  0  0  0  0  0  0  0  0  0
   21.7937  -20.5440  -13.8066 C   0  0  0  0  0  0  0  0  0  0  0  0
   21.3966  -19.4618  -14.2701 O   0  0  0  0  0  0  0  0  0  0  0  0
   20.2326  -22.6150  -16.5940 C   0  0  0  0  0  0  0  0  0  0  0  0
   19.3342  -22.7115  -15.3872 C   0  0  1  0  0  0  0  0  0  0  0  0
   19.6186  -23.8574  -14.6770 O   0  0  0  0  0  0  0  0  0  0  0  0
   19.6118  -21.5037  -14.5150 C   0  0  2  0  0  0  0  0  0  0  0  0
   20.8953  -21.6461  -13.9030 N   0  0  0  0  0  0  0  0  0  0  0  0
   18.5697  -21.4510  -13.4801 C   0  0  0  0  0  0  0  0  0  0  0  0
   17.2608  -21.1795  -13.8343 O   0  0  0  0  0  0  0  0  0  0  0  0
   18.7990  -21.6428  -12.2564 O   0  0  0  0  0  0  0  0  0  0  0  0
  2  1  1  6
  3  2  1  0
  3  4  1  0
  4  5  2  0
  5  6  1  0
  7  6  1  0
  8  7  2  0
  9  8  1  0
 10 11  1  0
 10  9  2  0
 11 12  2  0
 12  4  1  0
 12  7  1  0
 13 14  2  0
 13  2  1  0
 15 13  1  0
 16 15  1  0
 16 17  1  1
 18 22  1  0
 18 17  1  0
 19 18  2  0
 20 19  1  0
 20 21  1  0
 21 22  2  0
 23 16  1  0
 24 23  2  0
 26 25  1  6
 27 26  1  0
 28 26  1  0
 28 29  1  1
 29 23  1  0
 30 28  1  0
 31 30  1  0
 32 30  2  0
M  END
$$$$
