WHT.pdb
     RDKit          3D

 32 34  0  0  1  0  0  0  0  0999 V2000
   27.9979  -22.0456  -13.5739 N   0  0  0  0  0  0  0  0  0  0  0  0
   26.8163  -21.8197  -12.8056 C   0  0  1  0  0  0  0  0  0  0  0  0
   26.9030  -20.6070  -11.9143 C   0  0  0  0  0  0  0  0  0  0  0  0
   27.8754  -20.7469  -10.8288 C   0  0  0  0  0  0  0  0  0  0  0  0
   29.2169  -20.9891  -10.9958 C   0  0  0  0  0  0  0  0  0  0  0  0
   29.7824  -21.0536   -9.7884 N   0  0  0  0  0  0  0  0  0  0  0  0
   28.8795  -20.8651   -8.8103 C   0  0  0  0  0  0  0  0  0  0  0  0
   28.9408  -20.8348   -7.4213 C   0  0  0  0  0  0  0  0  0  0  0  0
   27.8188  -20.6138   -6.6644 C   0  0  0  0  0  0  0  0  0  0  0  0
   26.6097  -20.4190   -7.3130 C   0  0  0  0  0  0  0  0  0  0  0  0
   26.5451  -20.4482   -8.6877 C   0  0  0  0  0  0  0  0  0  0  0  0
   27.6659  -20.6698   -9.4688 C   0  0  0  0  0  0  0  0  0  0  0  0
   25.6135  -21.6896  -13.6675 C   0  0  0  0  0  0  0  0  0  0  0  0
   25.7415  -21.1976  -14.8147 O   0  0  0  0  0  0  0  0  0  0  0  0
   24.3348  -22.1034  -13.2316 N   0  0  0  0  0  0  0  0  0  0  0  0
   23.2057  -22.1724  -14.1877 C   0  0  1  0  0  0  0  0  0  0  0  0
   22.8552  -23.6088  -14.3552 C   0  0  0  0  0  0  0  0  0  0  0  0
   23.7774  -24.3611  -15.2219 C   0  0  0  0  0  0  0  0  0  0  0  0
   23.7400  -24.3128  -16.6189 C   0  0  0  0  0  0  0  0  0  0  0  0
   24.6963  -25.0982  -17.1334 N   0  0  0  0  0  0  0  0  0  0  0  0
   25.3364  -25.6410  -16.0909 C   0  0  0  0  0  0  0  0  0  0  0  0
   24.7853  -25.1989  -14.9528 N   0  0  0  0  0  0  0  0  0  0  0  0
   22.1119  -21.3072  -13.6972 C   0  0  0  0  0  0  0  0  0  0  0  0
   21.7975  -21.2238  -12.4981 O   0  0  0  0  0  0  0  0  0  0  0  0
   18.6413  -18.0003  -14.7793 C   0  0  0  0  0  0  0  0  0  0  0  0
   19.8079  -18.8078  -15.2890 C   0  0  1  0  0  0  0  0  0  0  0  0
   20.8478  -17.9714  -15.6315 O   0  0  0  0  0  0  0  0  0  0  0  0
   20.2540  -19.7224  -14.1660 C   0  0  2  0  0  0  0  0  0  0  0  0
   21.3572  -20.5148  -14.6101 N   0  0  0  0  0  0  0  0  0  0  0  0
   19.1213  -20.5936  -13.8227 C   0  0  0  0  0  0  0  0  0  0  0  0
   18.3127  -20.2793  -12.7457 O   0  0  0  0  0  0  0  0  0  0  0  0
   18.8316  -21.6378  -14.4650 O   0  0  0  0  0  0  0  0  0  0  0  0
  2  1  1  6
  3  2  1  0
  3  4  1  0
  4  5  2  0
  5  6  1  0
  7  6  1  0
  8  7  2  0
  9  8  1  0
 10 11  1  0
 10  9  2  0
 11 12  2  0
 12  4  1  0
 12  7  1  0
 13 14  2  0
 13  2  1  0
 15 13  1  0
 16 15  1  0
 16 17  1  1
 18 22  1  0
 18 17  1  0
 19 18  2  0
 20 19  1  0
 20 21  1  0
 21 22  2  0
 23 16  1  0
 24 23  2  0
 26 25  1  1
 27 26  1  0
 28 26  1  0
 28 29  1  6
 29 23  1  0
 30 28  1  0
 31 30  1  0
 32 30  2  0
M  END
$$$$
