ADV.pdb
     RDKit          3D

 21 20  0  0  1  0  0  0  0  0999 V2000
   16.1471  -13.4242  -14.5416 C   0  0  0  0  0  0  0  0  0  0  0  0
   15.2371  -12.3876  -13.9240 C   0  0  2  0  0  0  0  0  0  0  0  0
   14.4806  -11.7726  -14.9985 N   0  0  0  0  0  0  0  0  0  0  0  0
   15.9841  -11.3338  -13.2153 C   0  0  0  0  0  0  0  0  0  0  0  0
   16.5426  -11.5583  -12.0916 O   0  0  0  0  0  0  0  0  0  0  0  0
   16.1387  -10.0091  -13.7175 N   0  0  0  0  0  0  0  0  0  0  0  0
   16.7701   -8.9522  -12.9693 C   0  0  1  0  0  0  0  0  0  0  0  0
   17.5245   -8.0690  -13.9146 C   0  0  0  0  0  0  0  0  0  0  0  0
   18.1406   -6.8931  -13.2967 C   0  0  0  0  0  0  0  0  0  0  0  0
   18.7644   -6.8448  -12.2256 O   0  0  0  0  0  0  0  0  0  0  0  0
   15.7960   -8.1496  -12.1898 C   0  0  0  0  0  0  0  0  0  0  0  0
   14.7760   -7.7333  -12.7916 O   0  0  0  0  0  0  0  0  0  0  0  0
   18.0104   -5.6818  -13.9967 O   0  0  0  0  0  0  0  0  0  0  0  0
   16.3819   -7.1658   -8.0368 C   0  0  0  0  0  0  0  0  0  0  0  0
   14.9943   -7.3932   -8.5961 C   0  0  1  0  0  0  0  0  0  0  0  0
   14.0590   -6.4709   -7.8426 C   0  0  0  0  0  0  0  0  0  0  0  0
   14.9645   -7.0318  -10.0871 C   0  0  2  0  0  0  0  0  0  0  0  0
   15.9354   -7.8205  -10.8173 N   0  0  0  0  0  0  0  0  0  0  0  0
   15.3068   -5.6083  -10.2923 C   0  0  0  0  0  0  0  0  0  0  0  0
   16.5657   -5.1893  -10.6710 O   0  0  0  0  0  0  0  0  0  0  0  0
   14.4221   -4.7407  -10.1170 O   0  0  0  0  0  0  0  0  0  0  0  0
  2  1  1  6
  2  3  1  0
  4  2  1  0
  5  4  2  0
  6  4  1  0
  7 11  1  0
  7  6  1  0
  7  8  1  6
  9  8  1  0
 10  9  2  0
 11 18  1  0
 12 11  2  0
 13  9  1  0
 15 16  1  1
 15 14  1  0
 17 19  1  0
 17 18  1  6
 17 15  1  0
 19 20  1  0
 21 19  2  0
M  END
$$$$
