ADV.pdb
     RDKit          3D

 21 20  0  0  1  0  0  0  0  0999 V2000
   17.5970  -10.9282  -17.8381 C   0  0  0  0  0  0  0  0  0  0  0  0
   18.2400  -10.6322  -16.5028 C   0  0  2  0  0  0  0  0  0  0  0  0
   17.3698  -11.1631  -15.4702 N   0  0  0  0  0  0  0  0  0  0  0  0
   18.4145   -9.1879  -16.2702 C   0  0  0  0  0  0  0  0  0  0  0  0
   19.1817   -8.4855  -17.0072 O   0  0  0  0  0  0  0  0  0  0  0  0
   17.7549   -8.4761  -15.2265 N   0  0  0  0  0  0  0  0  0  0  0  0
   17.9819   -7.0785  -14.9611 C   0  0  1  0  0  0  0  0  0  0  0  0
   16.7852   -6.5147  -14.2590 C   0  0  0  0  0  0  0  0  0  0  0  0
   15.6207   -6.2874  -15.1171 C   0  0  0  0  0  0  0  0  0  0  0  0
   14.4562   -6.6683  -14.9230 O   0  0  0  0  0  0  0  0  0  0  0  0
   19.2034   -6.8465  -14.1518 C   0  0  0  0  0  0  0  0  0  0  0  0
   19.2167   -7.2992  -12.9811 O   0  0  0  0  0  0  0  0  0  0  0  0
   15.8482   -5.5544  -16.2940 O   0  0  0  0  0  0  0  0  0  0  0  0
   22.7659   -7.8321  -14.9320 C   0  0  0  0  0  0  0  0  0  0  0  0
   22.7947   -6.3554  -14.6020 C   0  0  1  0  0  0  0  0  0  0  0  0
   22.7875   -5.6094  -15.9197 C   0  0  0  0  0  0  0  0  0  0  0  0
   21.5435   -5.9732  -13.8002 C   0  0  2  0  0  0  0  0  0  0  0  0
   20.3533   -6.1515  -14.6061 N   0  0  0  0  0  0  0  0  0  0  0  0
   21.5919   -4.5534  -13.3910 C   0  0  0  0  0  0  0  0  0  0  0  0
   22.3974   -4.0975  -12.3678 O   0  0  0  0  0  0  0  0  0  0  0  0
   20.8745   -3.7239  -13.9939 O   0  0  0  0  0  0  0  0  0  0  0  0
  2  1  1  6
  2  3  1  0
  4  2  1  0
  5  4  2  0
  6  4  1  0
  7 11  1  0
  7  6  1  0
  7  8  1  1
  9  8  1  0
 10  9  2  0
 11 18  1  0
 12 11  2  0
 13  9  1  0
 15 16  1  6
 15 14  1  0
 17 19  1  0
 17 18  1  6
 17 15  1  0
 19 20  1  0
 21 19  2  0
M  END
$$$$
