ADV.pdb
     RDKit          3D

 21 20  0  0  1  0  0  0  0  0999 V2000
   21.7768  -32.3429  -12.3505 C   0  0  0  0  0  0  0  0  0  0  0  0
   20.8154  -31.5807  -11.4680 C   0  0  2  0  0  0  0  0  0  0  0  0
   19.7907  -32.5103  -11.0310 N   0  0  0  0  0  0  0  0  0  0  0  0
   20.1636  -30.4659  -12.1773 C   0  0  0  0  0  0  0  0  0  0  0  0
   20.8385  -29.4855  -12.6338 O   0  0  0  0  0  0  0  0  0  0  0  0
   18.7586  -30.3955  -12.4049 N   0  0  0  0  0  0  0  0  0  0  0  0
   18.1314  -29.3206  -13.1306 C   0  0  1  0  0  0  0  0  0  0  0  0
   16.9756  -29.8677  -13.9101 C   0  0  0  0  0  0  0  0  0  0  0  0
   16.2277  -28.8714  -14.6797 C   0  0  0  0  0  0  0  0  0  0  0  0
   15.0119  -28.8672  -14.9260 O   0  0  0  0  0  0  0  0  0  0  0  0
   17.6726  -28.2270  -12.2393 C   0  0  0  0  0  0  0  0  0  0  0  0
   16.7926  -28.5046  -11.3883 O   0  0  0  0  0  0  0  0  0  0  0  0
   16.9718  -27.7981  -15.1980 O   0  0  0  0  0  0  0  0  0  0  0  0
   20.0554  -26.0767  -10.2710 C   0  0  0  0  0  0  0  0  0  0  0  0
   19.0357  -25.1160  -10.8433 C   0  0  1  0  0  0  0  0  0  0  0  0
   19.6814  -24.4493  -12.0397 C   0  0  0  0  0  0  0  0  0  0  0  0
   17.7922  -25.8865  -11.3067 C   0  0  2  0  0  0  0  0  0  0  0  0
   18.1567  -26.8945  -12.2808 N   0  0  0  0  0  0  0  0  0  0  0  0
   16.8190  -24.9796  -11.9516 C   0  0  0  0  0  0  0  0  0  0  0  0
   16.0467  -24.0841  -11.2406 O   0  0  0  0  0  0  0  0  0  0  0  0
   16.6846  -25.0201  -13.1952 O   0  0  0  0  0  0  0  0  0  0  0  0
  2  1  1  6
  2  3  1  0
  4  2  1  0
  5  4  2  0
  6  4  1  0
  7 11  1  0
  7  6  1  0
  7  8  1  1
  9  8  1  0
 10  9  2  0
 11 18  1  0
 12 11  2  0
 13  9  1  0
 15 16  1  6
 15 14  1  0
 17 19  1  0
 17 18  1  6
 17 15  1  0
 19 20  1  0
 21 19  2  0
M  END
$$$$
