ADV.pdb
     RDKit          3D

 21 20  0  0  1  0  0  0  0  0999 V2000
   26.1316  -18.4463  -18.9597 C   0  0  0  0  0  0  0  0  0  0  0  0
   26.5478  -19.6177  -18.1003 C   0  0  2  0  0  0  0  0  0  0  0  0
   26.3492  -20.8253  -18.8797 N   0  0  0  0  0  0  0  0  0  0  0  0
   25.7503  -19.7215  -16.8659 C   0  0  0  0  0  0  0  0  0  0  0  0
   25.8411  -18.8475  -15.9424 O   0  0  0  0  0  0  0  0  0  0  0  0
   24.8341  -20.7829  -16.6108 N   0  0  0  0  0  0  0  0  0  0  0  0
   24.0572  -20.8787  -15.4014 C   0  0  1  0  0  0  0  0  0  0  0  0
   22.8356  -21.7021  -15.6706 C   0  0  0  0  0  0  0  0  0  0  0  0
   21.8913  -21.7825  -14.5544 C   0  0  0  0  0  0  0  0  0  0  0  0
   20.9582  -22.5877  -14.4135 O   0  0  0  0  0  0  0  0  0  0  0  0
   24.8284  -21.4641  -14.2774 C   0  0  0  0  0  0  0  0  0  0  0  0
   25.1464  -22.6754  -14.3625 O   0  0  0  0  0  0  0  0  0  0  0  0
   22.0614  -20.8403  -13.5259 O   0  0  0  0  0  0  0  0  0  0  0  0
   28.0949  -20.5806  -13.1192 C   0  0  0  0  0  0  0  0  0  0  0  0
   27.3079  -20.6118  -11.8270 C   0  0  1  0  0  0  0  0  0  0  0  0
   27.0144  -19.1736  -11.4551 C   0  0  0  0  0  0  0  0  0  0  0  0
   25.9836  -21.3578  -12.0377 C   0  0  2  0  0  0  0  0  0  0  0  0
   25.2303  -20.7539  -13.1173 N   0  0  0  0  0  0  0  0  0  0  0  0
   25.1434  -21.2952  -10.8230 C   0  0  0  0  0  0  0  0  0  0  0  0
   25.4269  -22.0144   -9.6801 O   0  0  0  0  0  0  0  0  0  0  0  0
   24.1300  -20.5608  -10.8239 O   0  0  0  0  0  0  0  0  0  0  0  0
  2  1  1  6
  2  3  1  0
  4  2  1  0
  5  4  2  0
  6  4  1  0
  7 11  1  0
  7  6  1  0
  7  8  1  6
  9  8  1  0
 10  9  2  0
 11 18  1  0
 12 11  2  0
 13  9  1  0
 15 16  1  6
 15 14  1  0
 17 19  1  0
 17 18  1  6
 17 15  1  0
 19 20  1  0
 21 19  2  0
M  END
$$$$
