ADV.pdb
     RDKit          3D

 21 20  0  0  1  0  0  0  0  0999 V2000
   18.9051  -14.8372  -19.0105 C   0  0  0  0  0  0  0  0  0  0  0  0
   18.5998  -14.0095  -17.7834 C   0  0  2  0  0  0  0  0  0  0  0  0
   17.1772  -13.7243  -17.7900 N   0  0  0  0  0  0  0  0  0  0  0  0
   19.3328  -12.7316  -17.7700 C   0  0  0  0  0  0  0  0  0  0  0  0
   20.6019  -12.6962  -17.6546 O   0  0  0  0  0  0  0  0  0  0  0  0
   18.6968  -11.4612  -17.8825 N   0  0  0  0  0  0  0  0  0  0  0  0
   19.4198  -10.2152  -17.8742 C   0  0  1  0  0  0  0  0  0  0  0  0
   18.6023   -9.1724  -18.5720 C   0  0  0  0  0  0  0  0  0  0  0  0
   18.5810   -9.2845  -20.0318 C   0  0  0  0  0  0  0  0  0  0  0  0
   17.5889   -9.4331  -20.7615 O   0  0  0  0  0  0  0  0  0  0  0  0
   19.7561   -9.7644  -16.5014 C   0  0  0  0  0  0  0  0  0  0  0  0
   18.8146   -9.6687  -15.6767 O   0  0  0  0  0  0  0  0  0  0  0  0
   19.8259   -9.2158  -20.6798 O   0  0  0  0  0  0  0  0  0  0  0  0
   22.3725  -11.2652  -14.1708 C   0  0  0  0  0  0  0  0  0  0  0  0
   22.6160   -9.7717  -14.1930 C   0  0  1  0  0  0  0  0  0  0  0  0
   23.7543   -9.5253  -15.1608 C   0  0  0  0  0  0  0  0  0  0  0  0
   21.3619   -9.0437  -14.6948 C   0  0  2  0  0  0  0  0  0  0  0  0
   21.0620   -9.4349  -16.0567 N   0  0  0  0  0  0  0  0  0  0  0  0
   21.5641   -7.5792  -14.6897 C   0  0  0  0  0  0  0  0  0  0  0  0
   21.5182   -6.8223  -13.5370 O   0  0  0  0  0  0  0  0  0  0  0  0
   21.7869   -6.9942  -15.7734 O   0  0  0  0  0  0  0  0  0  0  0  0
  2  1  1  6
  2  3  1  0
  4  2  1  0
  5  4  2  0
  6  4  1  0
  7 11  1  0
  7  6  1  0
  7  8  1  1
  9  8  1  0
 10  9  2  0
 11 18  1  0
 12 11  2  0
 13  9  1  0
 15 16  1  6
 15 14  1  0
 17 19  1  0
 17 18  1  6
 17 15  1  0
 19 20  1  0
 21 19  2  0
M  END
$$$$
