ADV.pdb
     RDKit          3D

 21 20  0  0  1  0  0  0  0  0999 V2000
   29.3299  -19.0984  -17.3748 C   0  0  0  0  0  0  0  0  0  0  0  0
   27.9682  -19.4814  -17.9069 C   0  0  2  0  0  0  0  0  0  0  0  0
   27.7603  -18.7525  -19.1441 N   0  0  0  0  0  0  0  0  0  0  0  0
   26.8819  -19.1370  -16.9731 C   0  0  0  0  0  0  0  0  0  0  0  0
   26.8613  -18.0175  -16.3638 O   0  0  0  0  0  0  0  0  0  0  0  0
   25.7918  -20.0077  -16.6825 N   0  0  0  0  0  0  0  0  0  0  0  0
   24.7251  -19.6593  -15.7791 C   0  0  1  0  0  0  0  0  0  0  0  0
   23.4721  -19.4339  -16.5679 C   0  0  0  0  0  0  0  0  0  0  0  0
   22.2815  -19.1553  -15.7625 C   0  0  0  0  0  0  0  0  0  0  0  0
   22.1665  -18.3211  -14.8516 O   0  0  0  0  0  0  0  0  0  0  0  0
   24.4960  -20.6982  -14.7451 C   0  0  0  0  0  0  0  0  0  0  0  0
   24.2187  -21.8568  -15.1404 O   0  0  0  0  0  0  0  0  0  0  0  0
   21.1393  -19.9198  -16.0545 O   0  0  0  0  0  0  0  0  0  0  0  0
   26.6178  -21.4380  -11.5916 C   0  0  0  0  0  0  0  0  0  0  0  0
   25.1728  -21.3693  -11.1471 C   0  0  1  0  0  0  0  0  0  0  0  0
   24.9746  -20.0142  -10.5011 C   0  0  0  0  0  0  0  0  0  0  0  0
   24.2443  -21.4881  -12.3630 C   0  0  2  0  0  0  0  0  0  0  0  0
   24.5679  -20.4751  -13.3463 N   0  0  0  0  0  0  0  0  0  0  0  0
   22.8329  -21.2888  -11.9709 C   0  0  0  0  0  0  0  0  0  0  0  0
   22.0824  -22.2696  -11.3555 O   0  0  0  0  0  0  0  0  0  0  0  0
   22.2888  -20.1861  -12.2038 O   0  0  0  0  0  0  0  0  0  0  0  0
  2  1  1  1
  2  3  1  0
  4  2  1  0
  5  4  2  0
  6  4  1  0
  7 11  1  0
  7  6  1  0
  7  8  1  6
  9  8  1  0
 10  9  2  0
 11 18  1  0
 12 11  2  0
 13  9  1  0
 15 16  1  6
 15 14  1  0
 17 19  1  0
 17 18  1  6
 17 15  1  0
 19 20  1  0
 21 19  2  0
M  END
$$$$
