ADV.pdb
     RDKit          3D

 21 20  0  0  1  0  0  0  0  0999 V2000
   15.7276  -11.3649  -16.3178 C   0  0  0  0  0  0  0  0  0  0  0  0
   16.6213  -10.9376  -15.1764 C   0  0  2  0  0  0  0  0  0  0  0  0
   15.8355  -10.9987  -13.9582 N   0  0  0  0  0  0  0  0  0  0  0  0
   17.1243   -9.5626  -15.3399 C   0  0  0  0  0  0  0  0  0  0  0  0
   17.8822   -9.2453  -16.3147 O   0  0  0  0  0  0  0  0  0  0  0  0
   16.8114   -8.5008  -14.4422 N   0  0  0  0  0  0  0  0  0  0  0  0
   17.2230   -7.1377  -14.6611 C   0  0  1  0  0  0  0  0  0  0  0  0
   16.0781   -6.2258  -14.3438 C   0  0  0  0  0  0  0  0  0  0  0  0
   16.3559   -4.8014  -14.5381 C   0  0  0  0  0  0  0  0  0  0  0  0
   17.0871   -4.2869  -15.3981 O   0  0  0  0  0  0  0  0  0  0  0  0
   18.4092   -6.7669  -13.8510 C   0  0  0  0  0  0  0  0  0  0  0  0
   18.3320   -6.9207  -12.6076 O   0  0  0  0  0  0  0  0  0  0  0  0
   15.7223   -3.9165  -13.6493 O   0  0  0  0  0  0  0  0  0  0  0  0
   21.5452   -7.7955  -15.0556 C   0  0  0  0  0  0  0  0  0  0  0  0
   21.9652   -6.8296  -13.9689 C   0  0  1  0  0  0  0  0  0  0  0  0
   23.0568   -5.9574  -14.5524 C   0  0  0  0  0  0  0  0  0  0  0  0
   20.7771   -5.9465  -13.5649 C   0  0  2  0  0  0  0  0  0  0  0  0
   19.6202   -6.2525  -14.3807 N   0  0  0  0  0  0  0  0  0  0  0  0
   21.0917   -4.5156  -13.7625 C   0  0  0  0  0  0  0  0  0  0  0  0
   21.9196   -3.8083  -12.9150 O   0  0  0  0  0  0  0  0  0  0  0  0
   20.5892   -3.9135  -14.7378 O   0  0  0  0  0  0  0  0  0  0  0  0
  2  1  1  6
  2  3  1  0
  4  2  1  0
  5  4  2  0
  6  4  1  0
  7 11  1  0
  7  6  1  0
  7  8  1  1
  9  8  1  0
 10  9  2  0
 11 18  1  0
 12 11  2  0
 13  9  1  0
 15 16  1  6
 15 14  1  0
 17 19  1  0
 17 18  1  6
 17 15  1  0
 19 20  1  0
 21 19  2  0
M  END
$$$$
