TCD.pdb
     RDKit          3D

 22 21  0  0  1  0  0  0  0  0999 V2000
   19.3713   -9.8672  -18.8818 C   0  0  0  0  0  0  0  0  0  0  0  0
   18.6906  -10.8959  -18.0159 C   0  0  1  0  0  0  0  0  0  0  0  0
   17.9312  -11.7235  -18.8159 O   0  0  0  0  0  0  0  0  0  0  0  0
   19.7304  -11.7126  -17.2384 C   0  0  2  0  0  0  0  0  0  0  0  0
   19.1079  -12.8102  -16.5512 N   0  0  0  0  0  0  0  0  0  0  0  0
   20.4623  -10.8380  -16.2978 C   0  0  0  0  0  0  0  0  0  0  0  0
   19.8359  -10.2885  -15.3389 O   0  0  0  0  0  0  0  0  0  0  0  0
   21.8481  -10.5572  -16.3852 N   0  0  0  0  0  0  0  0  0  0  0  0
   22.5275   -9.6625  -15.4500 C   0  0  1  0  0  0  0  0  0  0  0  0
   24.0168   -9.9780  -15.4154 C   0  0  0  0  0  0  0  0  0  0  0  0
   24.3541  -11.5770  -14.6514 S   0  0  0  0  0  0  0  0  0  0  0  0
   22.3101   -8.2516  -15.7820 C   0  0  0  0  0  0  0  0  0  0  0  0
   22.3917   -7.7911  -16.9527 O   0  0  0  0  0  0  0  0  0  0  0  0
   21.9921   -7.3507  -14.7418 N   0  0  0  0  0  0  0  0  0  0  0  0
   21.7567   -5.9374  -15.0319 C   0  0  1  0  0  0  0  0  0  0  0  0
   20.3128   -5.6564  -15.2812 C   0  0  0  0  0  0  0  0  0  0  0  0
   20.1224   -4.2146  -15.5413 C   0  0  0  0  0  0  0  0  0  0  0  0
   20.8688   -3.5585  -16.3349 O   0  0  0  0  0  0  0  0  0  0  0  0
   22.2183   -5.1762  -13.8647 C   0  0  0  0  0  0  0  0  0  0  0  0
   22.3224   -3.8059  -13.9069 O   0  0  0  0  0  0  0  0  0  0  0  0
   19.1129   -3.4613  -14.9404 O   0  0  0  0  0  0  0  0  0  0  0  0
   22.5226   -5.7711  -12.8171 O   0  0  0  0  0  0  0  0  0  0  0  0
  2  1  1  6
  2  4  1  0
  3  2  1  0
  4  5  1  1
  6  8  1  0
  6  4  1  0
  7  6  2  0
  9  8  1  0
  9 12  1  0
  9 10  1  6
 11 10  1  0
 12 14  1  0
 12 13  2  0
 14 15  1  0
 15 19  1  0
 15 16  1  1
 16 17  1  0
 17 21  1  0
 18 17  2  0
 19 20  1  0
 22 19  2  0
M  END
$$$$
