TCD.pdb
     RDKit          3D

 22 21  0  0  1  0  0  0  0  0999 V2000
   16.1973  -10.6108  -16.4157 C   0  0  0  0  0  0  0  0  0  0  0  0
   17.2004  -10.7399  -17.5330 C   0  0  1  0  0  0  0  0  0  0  0  0
   17.4846   -9.4844  -18.0275 O   0  0  0  0  0  0  0  0  0  0  0  0
   18.4805  -11.4163  -17.0266 C   0  0  2  0  0  0  0  0  0  0  0  0
   18.2216  -12.7758  -16.6407 N   0  0  0  0  0  0  0  0  0  0  0  0
   19.0543  -10.6416  -15.9060 C   0  0  0  0  0  0  0  0  0  0  0  0
   18.5569  -10.7623  -14.7433 O   0  0  0  0  0  0  0  0  0  0  0  0
   20.1478   -9.7496  -16.0316 N   0  0  0  0  0  0  0  0  0  0  0  0
   20.6361   -8.9453  -14.9130 C   0  0  1  0  0  0  0  0  0  0  0  0
   21.9374   -9.5296  -14.3801 C   0  0  0  0  0  0  0  0  0  0  0  0
   22.5512   -8.6231  -12.9463 S   0  0  0  0  0  0  0  0  0  0  0  0
   20.8200   -7.5397  -15.2852 C   0  0  0  0  0  0  0  0  0  0  0  0
   21.3676   -7.1693  -16.3587 O   0  0  0  0  0  0  0  0  0  0  0  0
   20.3633   -6.5378  -14.4005 N   0  0  0  0  0  0  0  0  0  0  0  0
   20.5391   -5.1241  -14.7279 C   0  0  1  0  0  0  0  0  0  0  0  0
   19.4200   -4.2903  -14.2003 C   0  0  0  0  0  0  0  0  0  0  0  0
   19.0212   -3.2912  -15.2129 C   0  0  0  0  0  0  0  0  0  0  0  0
   19.7732   -2.9657  -16.1855 O   0  0  0  0  0  0  0  0  0  0  0  0
   21.8067   -4.6972  -14.1233 C   0  0  0  0  0  0  0  0  0  0  0  0
   22.5851   -3.7304  -14.7146 O   0  0  0  0  0  0  0  0  0  0  0  0
   17.7934   -2.6286  -15.1837 O   0  0  0  0  0  0  0  0  0  0  0  0
   22.1913   -5.2123  -13.0599 O   0  0  0  0  0  0  0  0  0  0  0  0
  2  1  1  1
  2  4  1  0
  3  2  1  0
  4  5  1  1
  6  8  1  0
  6  4  1  0
  7  6  2  0
  9  8  1  0
  9 12  1  0
  9 10  1  6
 11 10  1  0
 12 14  1  0
 12 13  2  0
 14 15  1  0
 15 19  1  0
 15 16  1  1
 16 17  1  0
 17 21  1  0
 18 17  2  0
 19 20  1  0
 22 19  2  0
M  END
$$$$
