TCD.pdb
     RDKit          3D

 22 21  0  0  1  0  0  0  0  0999 V2000
   16.6811   -9.7610  -20.1195 C   0  0  0  0  0  0  0  0  0  0  0  0
   17.4563   -9.6996  -18.8285 C   0  0  1  0  0  0  0  0  0  0  0  0
   17.6404  -10.9815  -18.3548 O   0  0  0  0  0  0  0  0  0  0  0  0
   18.8099   -9.0131  -19.0499 C   0  0  2  0  0  0  0  0  0  0  0  0
   19.6133   -9.7560  -19.9810 N   0  0  0  0  0  0  0  0  0  0  0  0
   19.5085   -8.8407  -17.7585 C   0  0  0  0  0  0  0  0  0  0  0  0
   18.9090   -8.2696  -16.7950 O   0  0  0  0  0  0  0  0  0  0  0  0
   20.8326   -9.2758  -17.5046 N   0  0  0  0  0  0  0  0  0  0  0  0
   21.5105   -9.0248  -16.2342 C   0  0  1  0  0  0  0  0  0  0  0  0
   22.6561  -10.0111  -16.0510 C   0  0  0  0  0  0  0  0  0  0  0  0
   23.6515   -9.6321  -14.5951 S   0  0  0  0  0  0  0  0  0  0  0  0
   21.9998   -7.6468  -16.1347 C   0  0  0  0  0  0  0  0  0  0  0  0
   22.6267   -7.0619  -17.0590 O   0  0  0  0  0  0  0  0  0  0  0  0
   21.7622   -6.9264  -14.9433 N   0  0  0  0  0  0  0  0  0  0  0  0
   22.2100   -5.5410  -14.8134 C   0  0  1  0  0  0  0  0  0  0  0  0
   21.4911   -4.6360  -15.7570 C   0  0  0  0  0  0  0  0  0  0  0  0
   21.9550   -3.2463  -15.5671 C   0  0  0  0  0  0  0  0  0  0  0  0
   23.1095   -2.9669  -15.1128 O   0  0  0  0  0  0  0  0  0  0  0  0
   21.9436   -5.1310  -13.4293 C   0  0  0  0  0  0  0  0  0  0  0  0
   22.2633   -3.8683  -12.9890 O   0  0  0  0  0  0  0  0  0  0  0  0
   21.1676   -2.1346  -15.8701 O   0  0  0  0  0  0  0  0  0  0  0  0
   21.4214   -5.9312  -12.6350 O   0  0  0  0  0  0  0  0  0  0  0  0
  2  1  1  6
  2  4  1  0
  3  2  1  0
  4  5  1  6
  6  8  1  0
  6  4  1  0
  7  6  2  0
  9  8  1  0
  9 12  1  0
  9 10  1  6
 11 10  1  0
 12 14  1  0
 12 13  2  0
 14 15  1  0
 15 19  1  0
 15 16  1  6
 16 17  1  0
 17 21  1  0
 18 17  2  0
 19 20  1  0
 22 19  2  0
M  END
$$$$
