TCD.pdb
     RDKit          3D

 22 21  0  0  1  0  0  0  0  0999 V2000
   17.4805  -10.4352  -18.7484 C   0  0  0  0  0  0  0  0  0  0  0  0
   17.1640  -10.7861  -17.3173 C   0  0  1  0  0  0  0  0  0  0  0  0
   15.9107  -11.3589  -17.2628 O   0  0  0  0  0  0  0  0  0  0  0  0
   18.2166  -11.7514  -16.7581 C   0  0  2  0  0  0  0  0  0  0  0  0
   17.5982  -12.7798  -15.9680 N   0  0  0  0  0  0  0  0  0  0  0  0
   19.2229  -11.0054  -15.9732 C   0  0  0  0  0  0  0  0  0  0  0  0
   19.0063  -10.7678  -14.7442 O   0  0  0  0  0  0  0  0  0  0  0  0
   20.4455  -10.5212  -16.5004 N   0  0  0  0  0  0  0  0  0  0  0  0
   21.3476   -9.6667  -15.7306 C   0  0  1  0  0  0  0  0  0  0  0  0
   22.7947  -10.0405  -16.0221 C   0  0  0  0  0  0  0  0  0  0  0  0
   23.9598   -8.9715  -15.1537 S   0  0  0  0  0  0  0  0  0  0  0  0
   21.1215   -8.2439  -16.0003 C   0  0  0  0  0  0  0  0  0  0  0  0
   20.9735   -7.7697  -17.1590 O   0  0  0  0  0  0  0  0  0  0  0  0
   21.0652   -7.3470  -14.9108 N   0  0  0  0  0  0  0  0  0  0  0  0
   20.8597   -5.9176  -15.1377 C   0  0  1  0  0  0  0  0  0  0  0  0
   20.0373   -5.2982  -14.0579 C   0  0  0  0  0  0  0  0  0  0  0  0
   19.8262   -3.8656  -14.3505 C   0  0  0  0  0  0  0  0  0  0  0  0
   20.4386   -2.9426  -13.7258 O   0  0  0  0  0  0  0  0  0  0  0  0
   22.1875   -5.2927  -15.1735 C   0  0  0  0  0  0  0  0  0  0  0  0
   22.5229   -4.3948  -16.1592 O   0  0  0  0  0  0  0  0  0  0  0  0
   18.9427   -3.4129  -15.3314 O   0  0  0  0  0  0  0  0  0  0  0  0
   23.0289   -5.5736  -14.3034 O   0  0  0  0  0  0  0  0  0  0  0  0
  2  1  1  6
  2  4  1  0
  3  2  1  0
  4  5  1  1
  6  8  1  0
  6  4  1  0
  7  6  2  0
  9  8  1  0
  9 12  1  0
  9 10  1  6
 11 10  1  0
 12 14  1  0
 12 13  2  0
 14 15  1  0
 15 19  1  0
 15 16  1  1
 16 17  1  0
 17 21  1  0
 18 17  2  0
 19 20  1  0
 22 19  2  0
M  END
$$$$
