TCD.pdb
     RDKit          3D

 22 21  0  0  1  0  0  0  0  0999 V2000
   19.9673  -11.7600  -15.7622 C   0  0  0  0  0  0  0  0  0  0  0  0
   21.3500  -11.7727  -16.3616 C   0  0  1  0  0  0  0  0  0  0  0  0
   21.4224  -12.7803  -17.3003 O   0  0  0  0  0  0  0  0  0  0  0  0
   21.6649  -10.4178  -17.0079 C   0  0  2  0  0  0  0  0  0  0  0  0
   22.9119  -10.4690  -17.7199 N   0  0  0  0  0  0  0  0  0  0  0  0
   21.6789   -9.3561  -15.9793 C   0  0  0  0  0  0  0  0  0  0  0  0
   22.2637   -9.5669  -14.8714 O   0  0  0  0  0  0  0  0  0  0  0  0
   21.0735   -8.0851  -16.1380 N   0  0  0  0  0  0  0  0  0  0  0  0
   21.1907   -7.0298  -15.1334 C   0  0  1  0  0  0  0  0  0  0  0  0
   22.6575   -6.6962  -14.8968 C   0  0  0  0  0  0  0  0  0  0  0  0
   22.8621   -5.2227  -13.8764 S   0  0  0  0  0  0  0  0  0  0  0  0
   20.4457   -5.8255  -15.5112 C   0  0  0  0  0  0  0  0  0  0  0  0
   20.6719   -5.1679  -16.5628 O   0  0  0  0  0  0  0  0  0  0  0  0
   19.4171   -5.3681  -14.6583 N   0  0  0  0  0  0  0  0  0  0  0  0
   18.4645   -4.3604  -15.1207 C   0  0  1  0  0  0  0  0  0  0  0  0
   17.0846   -4.6334  -14.6232 C   0  0  0  0  0  0  0  0  0  0  0  0
   16.1483   -3.6315  -15.1728 C   0  0  0  0  0  0  0  0  0  0  0  0
   16.5305   -2.4878  -15.5769 O   0  0  0  0  0  0  0  0  0  0  0  0
   18.9298   -3.0639  -14.6133 C   0  0  0  0  0  0  0  0  0  0  0  0
   18.2521   -1.9034  -14.9036 O   0  0  0  0  0  0  0  0  0  0  0  0
   14.7766   -3.8590  -15.2925 O   0  0  0  0  0  0  0  0  0  0  0  0
   19.9520   -3.0040  -13.9094 O   0  0  0  0  0  0  0  0  0  0  0  0
  2  1  1  6
  2  4  1  0
  3  2  1  0
  4  5  1  1
  6  8  1  0
  6  4  1  0
  7  6  2  0
  9  8  1  0
  9 12  1  0
  9 10  1  6
 11 10  1  0
 12 14  1  0
 12 13  2  0
 14 15  1  0
 15 19  1  0
 15 16  1  1
 16 17  1  0
 17 21  1  0
 18 17  2  0
 19 20  1  0
 22 19  2  0
M  END
$$$$
