TCD.pdb
     RDKit          3D

 22 21  0  0  1  0  0  0  0  0999 V2000
   22.0479  -12.7959  -18.7589 C   0  0  0  0  0  0  0  0  0  0  0  0
   22.5895  -11.5592  -18.0891 C   0  0  1  0  0  0  0  0  0  0  0  0
   22.4640  -11.6978  -16.7229 O   0  0  0  0  0  0  0  0  0  0  0  0
   24.0596  -11.3449  -18.4708 C   0  0  2  0  0  0  0  0  0  0  0  0
   24.8396  -12.5150  -18.1765 N   0  0  0  0  0  0  0  0  0  0  0  0
   24.5958  -10.1552  -17.7761 C   0  0  0  0  0  0  0  0  0  0  0  0
   25.7974  -10.1607  -17.3641 O   0  0  0  0  0  0  0  0  0  0  0  0
   23.8521   -8.9754  -17.5273 N   0  0  0  0  0  0  0  0  0  0  0  0
   24.4818   -7.7264  -17.1030 C   0  0  1  0  0  0  0  0  0  0  0  0
   25.5545   -7.3174  -18.1034 C   0  0  0  0  0  0  0  0  0  0  0  0
   26.2399   -5.6897  -17.7359 S   0  0  0  0  0  0  0  0  0  0  0  0
   23.5040   -6.6482  -16.9307 C   0  0  0  0  0  0  0  0  0  0  0  0
   22.6803   -6.3060  -17.8217 O   0  0  0  0  0  0  0  0  0  0  0  0
   23.4747   -5.9479  -15.7045 N   0  0  0  0  0  0  0  0  0  0  0  0
   22.4155   -4.9786  -15.4301 C   0  0  1  0  0  0  0  0  0  0  0  0
   22.2745   -4.7113  -13.9690 C   0  0  0  0  0  0  0  0  0  0  0  0
   21.1527   -3.7781  -13.7380 C   0  0  0  0  0  0  0  0  0  0  0  0
   19.9360   -4.1291  -13.8555 O   0  0  0  0  0  0  0  0  0  0  0  0
   22.7743   -3.7397  -16.1310 C   0  0  0  0  0  0  0  0  0  0  0  0
   21.8199   -2.8031  -16.4506 O   0  0  0  0  0  0  0  0  0  0  0  0
   21.3375   -2.4436  -13.3738 O   0  0  0  0  0  0  0  0  0  0  0  0
   23.9572   -3.5251  -16.4451 O   0  0  0  0  0  0  0  0  0  0  0  0
  2  1  1  6
  2  4  1  0
  3  2  1  0
  4  5  1  1
  6  8  1  0
  6  4  1  0
  7  6  2  0
  9  8  1  0
  9 12  1  0
  9 10  1  6
 11 10  1  0
 12 14  1  0
 12 13  2  0
 14 15  1  0
 15 19  1  0
 15 16  1  1
 16 17  1  0
 17 21  1  0
 18 17  2  0
 19 20  1  0
 22 19  2  0
M  END
$$$$
