TCD.pdb
     RDKit          3D

 22 21  0  0  1  0  0  0  0  0999 V2000
   18.7884  -10.4089  -18.2686 C   0  0  0  0  0  0  0  0  0  0  0  0
   18.3085  -11.5192  -17.3696 C   0  0  1  0  0  0  0  0  0  0  0  0
   17.5131  -12.3760  -18.1009 O   0  0  0  0  0  0  0  0  0  0  0  0
   19.5009  -12.2770  -16.7726 C   0  0  2  0  0  0  0  0  0  0  0  0
   19.0572  -13.4234  -16.0289 N   0  0  0  0  0  0  0  0  0  0  0  0
   20.3070  -11.3701  -15.9282 C   0  0  0  0  0  0  0  0  0  0  0  0
   19.8022  -10.8932  -14.8644 O   0  0  0  0  0  0  0  0  0  0  0  0
   21.6371  -10.9806  -16.2215 N   0  0  0  0  0  0  0  0  0  0  0  0
   22.3460   -9.9649  -15.4453 C   0  0  1  0  0  0  0  0  0  0  0  0
   23.8483  -10.1068  -15.6503 C   0  0  0  0  0  0  0  0  0  0  0  0
   24.4981  -11.6078  -14.8895 S   0  0  0  0  0  0  0  0  0  0  0  0
   21.9084   -8.6080  -15.7852 C   0  0  0  0  0  0  0  0  0  0  0  0
   21.6610   -8.2304  -16.9623 O   0  0  0  0  0  0  0  0  0  0  0  0
   21.7526   -7.6646  -14.7457 N   0  0  0  0  0  0  0  0  0  0  0  0
   21.2990   -6.3065  -15.0397 C   0  0  1  0  0  0  0  0  0  0  0  0
   19.8166   -6.1811  -14.9261 C   0  0  0  0  0  0  0  0  0  0  0  0
   19.4139   -4.7805  -15.1687 C   0  0  0  0  0  0  0  0  0  0  0  0
   20.2210   -3.9043  -15.6138 O   0  0  0  0  0  0  0  0  0  0  0  0
   21.9500   -5.4165  -14.0707 C   0  0  0  0  0  0  0  0  0  0  0  0
   22.6602   -5.9226  -13.0077 O   0  0  0  0  0  0  0  0  0  0  0  0
   18.1220   -4.3096  -14.9307 O   0  0  0  0  0  0  0  0  0  0  0  0
   21.8633   -4.1842  -14.2046 O   0  0  0  0  0  0  0  0  0  0  0  0
  2  1  1  6
  2  4  1  0
  3  2  1  0
  4  5  1  1
  6  8  1  0
  6  4  1  0
  7  6  2  0
  9  8  1  0
  9 12  1  0
  9 10  1  6
 11 10  1  0
 12 14  1  0
 12 13  2  0
 14 15  1  0
 15 19  1  0
 15 16  1  1
 16 17  1  0
 17 21  1  0
 18 17  2  0
 19 20  1  0
 22 19  2  0
M  END
$$$$
