TCD.pdb
     RDKit          3D

 22 21  0  0  1  0  0  0  0  0999 V2000
   17.6452  -12.4778  -18.6283 C   0  0  0  0  0  0  0  0  0  0  0  0
   18.0747  -11.5387  -17.5306 C   0  0  1  0  0  0  0  0  0  0  0  0
   16.9776  -11.2205  -16.7580 O   0  0  0  0  0  0  0  0  0  0  0  0
   19.1646  -12.1874  -16.6680 C   0  0  2  0  0  0  0  0  0  0  0  0
   18.6817  -13.3952  -16.0578 N   0  0  0  0  0  0  0  0  0  0  0  0
   19.6442  -11.2281  -15.6506 C   0  0  0  0  0  0  0  0  0  0  0  0
   19.0652  -11.1733  -14.5212 O   0  0  0  0  0  0  0  0  0  0  0  0
   20.7310  -10.3399  -15.8428 N   0  0  0  0  0  0  0  0  0  0  0  0
   21.1846   -9.4189  -14.8023 C   0  0  1  0  0  0  0  0  0  0  0  0
   22.5674   -9.8267  -14.3120 C   0  0  0  0  0  0  0  0  0  0  0  0
   23.7915   -9.8022  -15.6368 S   0  0  0  0  0  0  0  0  0  0  0  0
   21.1943   -8.0282  -15.2648 C   0  0  0  0  0  0  0  0  0  0  0  0
   21.3105   -7.6978  -16.4759 O   0  0  0  0  0  0  0  0  0  0  0  0
   21.0679   -6.9946  -14.3106 N   0  0  0  0  0  0  0  0  0  0  0  0
   21.1539   -5.5939  -14.7199 C   0  0  1  0  0  0  0  0  0  0  0  0
   19.8153   -4.9349  -14.7232 C   0  0  0  0  0  0  0  0  0  0  0  0
   19.9577   -3.5170  -15.1131 C   0  0  0  0  0  0  0  0  0  0  0  0
   19.8346   -2.5634  -14.2808 O   0  0  0  0  0  0  0  0  0  0  0  0
   22.0389   -4.9197  -13.7622 C   0  0  0  0  0  0  0  0  0  0  0  0
   22.4809   -5.5626  -12.6301 O   0  0  0  0  0  0  0  0  0  0  0  0
   20.2379   -3.1129  -16.4191 O   0  0  0  0  0  0  0  0  0  0  0  0
   22.3996   -3.7488  -13.9692 O   0  0  0  0  0  0  0  0  0  0  0  0
  2  1  1  6
  2  4  1  0
  3  2  1  0
  4  5  1  1
  6  8  1  0
  6  4  1  0
  7  6  2  0
  9  8  1  0
  9 12  1  0
  9 10  1  6
 11 10  1  0
 12 14  1  0
 12 13  2  0
 14 15  1  0
 15 19  1  0
 15 16  1  1
 16 17  1  0
 17 21  1  0
 18 17  2  0
 19 20  1  0
 22 19  2  0
M  END
$$$$
