TCD.pdb
     RDKit          3D

 22 21  0  0  1  0  0  0  0  0999 V2000
   20.9427  -10.1124  -17.4890 C   0  0  0  0  0  0  0  0  0  0  0  0
   19.5111  -10.3601  -17.0886 C   0  0  1  0  0  0  0  0  0  0  0  0
   19.1284  -11.6056  -17.5401 O   0  0  0  0  0  0  0  0  0  0  0  0
   19.3598  -10.2753  -15.5646 C   0  0  2  0  0  0  0  0  0  0  0  0
   18.0667  -10.7472  -15.1526 N   0  0  0  0  0  0  0  0  0  0  0  0
   19.5944   -8.8891  -15.1079 C   0  0  0  0  0  0  0  0  0  0  0  0
   18.8009   -7.9674  -15.4749 O   0  0  0  0  0  0  0  0  0  0  0  0
   20.6662   -8.4975  -14.2682 N   0  0  0  0  0  0  0  0  0  0  0  0
   20.9545   -7.0967  -13.9665 C   0  0  1  0  0  0  0  0  0  0  0  0
   21.9286   -7.0047  -12.7997 C   0  0  0  0  0  0  0  0  0  0  0  0
   22.4209   -5.3030  -12.4592 S   0  0  0  0  0  0  0  0  0  0  0  0
   21.4813   -6.3801  -15.1315 C   0  0  0  0  0  0  0  0  0  0  0  0
   22.2634   -6.8991  -15.9731 O   0  0  0  0  0  0  0  0  0  0  0  0
   21.0989   -5.0352  -15.3313 N   0  0  0  0  0  0  0  0  0  0  0  0
   21.5729   -4.2961  -16.4999 C   0  0  1  0  0  0  0  0  0  0  0  0
   21.1623   -4.9536  -17.7748 C   0  0  0  0  0  0  0  0  0  0  0  0
   21.6153   -4.1424  -18.9234 C   0  0  0  0  0  0  0  0  0  0  0  0
   22.7504   -3.5695  -18.9506 O   0  0  0  0  0  0  0  0  0  0  0  0
   20.9905   -2.9508  -16.4230 C   0  0  0  0  0  0  0  0  0  0  0  0
   21.5426   -1.8978  -17.1135 O   0  0  0  0  0  0  0  0  0  0  0  0
   20.8381   -3.9414  -20.0650 O   0  0  0  0  0  0  0  0  0  0  0  0
   19.9824   -2.7503  -15.7248 O   0  0  0  0  0  0  0  0  0  0  0  0
  2  1  1  1
  2  4  1  0
  3  2  1  0
  4  5  1  6
  6  8  1  0
  6  4  1  0
  7  6  2  0
  9  8  1  0
  9 12  1  0
  9 10  1  1
 11 10  1  0
 12 14  1  0
 12 13  2  0
 14 15  1  0
 15 19  1  0
 15 16  1  6
 16 17  1  0
 17 21  1  0
 18 17  2  0
 19 20  1  0
 22 19  2  0
M  END
$$$$
