TCD.pdb
     RDKit          3D

 22 21  0  0  1  0  0  0  0  0999 V2000
   20.2054  -12.0359  -20.0534 C   0  0  0  0  0  0  0  0  0  0  0  0
   20.7032  -11.1013  -18.9811 C   0  0  1  0  0  0  0  0  0  0  0  0
   19.6250  -10.6257  -18.2649 O   0  0  0  0  0  0  0  0  0  0  0  0
   21.6827  -11.8281  -18.0510 C   0  0  2  0  0  0  0  0  0  0  0  0
   21.0585  -12.9712  -17.4444 N   0  0  0  0  0  0  0  0  0  0  0  0
   22.1988  -10.8940  -17.0280 C   0  0  0  0  0  0  0  0  0  0  0  0
   21.4808  -10.6144  -16.0179 O   0  0  0  0  0  0  0  0  0  0  0  0
   23.4685  -10.2687  -17.0882 N   0  0  0  0  0  0  0  0  0  0  0  0
   23.8930   -9.2607  -16.1185 C   0  0  1  0  0  0  0  0  0  0  0  0
   25.4120   -9.1534  -16.1094 C   0  0  0  0  0  0  0  0  0  0  0  0
   26.1807  -10.4874  -15.1693 S   0  0  0  0  0  0  0  0  0  0  0  0
   23.2885   -7.9523  -16.3848 C   0  0  0  0  0  0  0  0  0  0  0  0
   22.9758   -7.5514  -17.5384 O   0  0  0  0  0  0  0  0  0  0  0  0
   23.0390   -7.0858  -15.2976 N   0  0  0  0  0  0  0  0  0  0  0  0
   22.3630   -5.8072  -15.5093 C   0  0  1  0  0  0  0  0  0  0  0  0
   21.0080   -5.9895  -16.1066 C   0  0  0  0  0  0  0  0  0  0  0  0
   20.3525   -4.6753  -16.2677 C   0  0  0  0  0  0  0  0  0  0  0  0
   20.9004   -3.7093  -16.8873 O   0  0  0  0  0  0  0  0  0  0  0  0
   22.2463   -5.1601  -14.1969 C   0  0  0  0  0  0  0  0  0  0  0  0
   21.8472   -3.8492  -14.0849 O   0  0  0  0  0  0  0  0  0  0  0  0
   19.0857   -4.3906  -15.7560 O   0  0  0  0  0  0  0  0  0  0  0  0
   22.5106   -5.7992  -13.1646 O   0  0  0  0  0  0  0  0  0  0  0  0
  2  1  1  6
  2  4  1  0
  3  2  1  0
  4  5  1  1
  6  8  1  0
  6  4  1  0
  7  6  2  0
  9  8  1  0
  9 12  1  0
  9 10  1  6
 11 10  1  0
 12 14  1  0
 12 13  2  0
 14 15  1  0
 15 19  1  0
 15 16  1  1
 16 17  1  0
 17 21  1  0
 18 17  2  0
 19 20  1  0
 22 19  2  0
M  END
$$$$
