TCD.pdb
     RDKit          3D

 22 21  0  0  1  0  0  0  0  0999 V2000
   14.8454  -13.7307  -11.5452 C   0  0  0  0  0  0  0  0  0  0  0  0
   15.8829  -12.7403  -11.0829 C   0  0  1  0  0  0  0  0  0  0  0  0
   17.1346  -13.2997  -11.2320 O   0  0  0  0  0  0  0  0  0  0  0  0
   15.7795  -11.4410  -11.8916 C   0  0  2  0  0  0  0  0  0  0  0  0
   16.1431  -11.6630  -13.2637 N   0  0  0  0  0  0  0  0  0  0  0  0
   16.6217  -10.3928  -11.2773 C   0  0  0  0  0  0  0  0  0  0  0  0
   16.4055  -10.0417  -10.0758 O   0  0  0  0  0  0  0  0  0  0  0  0
   17.6821   -9.7306  -11.9439 N   0  0  0  0  0  0  0  0  0  0  0  0
   18.4216   -8.6257  -11.3365 C   0  0  1  0  0  0  0  0  0  0  0  0
   19.7312   -8.4036  -12.0809 C   0  0  0  0  0  0  0  0  0  0  0  0
   20.6673   -7.0161  -11.4080 S   0  0  0  0  0  0  0  0  0  0  0  0
   17.6348   -7.3896  -11.3034 C   0  0  0  0  0  0  0  0  0  0  0  0
   16.9761   -6.9568  -12.2874 O   0  0  0  0  0  0  0  0  0  0  0  0
   17.6066   -6.6345  -10.1102 N   0  0  0  0  0  0  0  0  0  0  0  0
   16.6909   -5.5036   -9.9705 C   0  0  1  0  0  0  0  0  0  0  0  0
   16.3732   -5.2218   -8.5402 C   0  0  0  0  0  0  0  0  0  0  0  0
   15.3766   -4.1346   -8.4549 C   0  0  0  0  0  0  0  0  0  0  0  0
   14.8408   -3.6158   -9.4850 O   0  0  0  0  0  0  0  0  0  0  0  0
   17.3508   -4.3391  -10.5732 C   0  0  0  0  0  0  0  0  0  0  0  0
   18.7004   -4.3451  -10.8358 O   0  0  0  0  0  0  0  0  0  0  0  0
   14.9451   -3.5931   -7.2432 O   0  0  0  0  0  0  0  0  0  0  0  0
   16.6874   -3.3266  -10.8539 O   0  0  0  0  0  0  0  0  0  0  0  0
  2  1  1  6
  2  4  1  0
  3  2  1  0
  4  5  1  6
  6  8  1  0
  6  4  1  0
  7  6  2  0
  9  8  1  0
  9 12  1  0
  9 10  1  6
 11 10  1  0
 12 14  1  0
 12 13  2  0
 14 15  1  0
 15 19  1  0
 15 16  1  1
 16 17  1  0
 17 21  1  0
 18 17  2  0
 19 20  1  0
 22 19  2  0
M  END
$$$$
