TCD.pdb
     RDKit          3D

 22 21  0  0  1  0  0  0  0  0999 V2000
   18.3730  -12.6690  -18.7833 C   0  0  0  0  0  0  0  0  0  0  0  0
   18.4385  -11.4425  -17.9101 C   0  0  1  0  0  0  0  0  0  0  0  0
   17.1573  -10.9878  -17.6788 O   0  0  0  0  0  0  0  0  0  0  0  0
   19.1369  -11.7672  -16.5836 C   0  0  2  0  0  0  0  0  0  0  0  0
   18.4094  -12.7694  -15.8552 N   0  0  0  0  0  0  0  0  0  0  0  0
   19.3010  -10.5360  -15.7820 C   0  0  0  0  0  0  0  0  0  0  0  0
   18.4649  -10.2729  -14.8624 O   0  0  0  0  0  0  0  0  0  0  0  0
   20.3486   -9.6001  -15.9648 N   0  0  0  0  0  0  0  0  0  0  0  0
   20.4745   -8.3945  -15.1478 C   0  0  1  0  0  0  0  0  0  0  0  0
   21.8602   -8.3333  -14.5193 C   0  0  0  0  0  0  0  0  0  0  0  0
   22.0786   -6.8609  -13.5003 S   0  0  0  0  0  0  0  0  0  0  0  0
   20.2073   -7.1771  -15.9188 C   0  0  0  0  0  0  0  0  0  0  0  0
   20.6891   -6.9576  -17.0630 O   0  0  0  0  0  0  0  0  0  0  0  0
   19.3666   -6.1898  -15.3591 N   0  0  0  0  0  0  0  0  0  0  0  0
   19.1175   -4.9380  -16.0717 C   0  0  1  0  0  0  0  0  0  0  0  0
   17.8297   -4.3104  -15.6547 C   0  0  0  0  0  0  0  0  0  0  0  0
   16.6976   -5.1404  -16.1152 C   0  0  0  0  0  0  0  0  0  0  0  0
   16.7117   -5.7609  -17.2252 O   0  0  0  0  0  0  0  0  0  0  0  0
   20.2343   -4.0372  -15.7616 C   0  0  0  0  0  0  0  0  0  0  0  0
   20.4197   -2.8692  -16.4628 O   0  0  0  0  0  0  0  0  0  0  0  0
   15.5283   -5.3096  -15.3724 O   0  0  0  0  0  0  0  0  0  0  0  0
   21.0306   -4.3266  -14.8528 O   0  0  0  0  0  0  0  0  0  0  0  0
  2  1  1  6
  2  4  1  0
  3  2  1  0
  4  5  1  1
  6  8  1  0
  6  4  1  0
  7  6  2  0
  9  8  1  0
  9 12  1  0
  9 10  1  6
 11 10  1  0
 12 14  1  0
 12 13  2  0
 14 15  1  0
 15 19  1  0
 15 16  1  1
 16 17  1  0
 17 21  1  0
 18 17  2  0
 19 20  1  0
 22 19  2  0
M  END
$$$$
