TCD.pdb
     RDKit          3D

 22 21  0  0  1  0  0  0  0  0999 V2000
   18.7294   -8.5753  -18.5249 C   0  0  0  0  0  0  0  0  0  0  0  0
   18.5319   -9.9347  -17.9049 C   0  0  1  0  0  0  0  0  0  0  0  0
   18.3375  -10.8609  -18.9079 O   0  0  0  0  0  0  0  0  0  0  0  0
   19.7500  -10.3166  -17.0547 C   0  0  2  0  0  0  0  0  0  0  0  0
   19.6032  -11.6412  -16.5178 N   0  0  0  0  0  0  0  0  0  0  0  0
   19.9500   -9.3221  -15.9793 C   0  0  0  0  0  0  0  0  0  0  0  0
   19.1248   -9.2699  -15.0149 O   0  0  0  0  0  0  0  0  0  0  0  0
   21.0216   -8.3964  -15.9396 N   0  0  0  0  0  0  0  0  0  0  0  0
   21.1702   -7.4144  -14.8671 C   0  0  1  0  0  0  0  0  0  0  0  0
   22.2366   -7.8753  -13.8826 C   0  0  0  0  0  0  0  0  0  0  0  0
   22.9355   -9.4745  -14.3388 S   0  0  0  0  0  0  0  0  0  0  0  0
   21.4912   -6.0806  -15.3830 C   0  0  0  0  0  0  0  0  0  0  0  0
   22.2107   -5.8815  -16.3990 O   0  0  0  0  0  0  0  0  0  0  0  0
   20.9722   -4.9506  -14.7133 N   0  0  0  0  0  0  0  0  0  0  0  0
   21.0630   -3.6236  -15.3196 C   0  0  1  0  0  0  0  0  0  0  0  0
   20.4532   -3.5940  -16.6809 C   0  0  0  0  0  0  0  0  0  0  0  0
   20.5007   -2.2191  -17.2195 C   0  0  0  0  0  0  0  0  0  0  0  0
   21.5078   -1.4582  -17.0640 O   0  0  0  0  0  0  0  0  0  0  0  0
   20.3490   -2.6963  -14.4335 C   0  0  0  0  0  0  0  0  0  0  0  0
   19.5536   -3.1607  -13.4127 O   0  0  0  0  0  0  0  0  0  0  0  0
   19.4498   -1.6484  -17.9389 O   0  0  0  0  0  0  0  0  0  0  0  0
   20.4587   -1.4700  -14.6009 O   0  0  0  0  0  0  0  0  0  0  0  0
  2  1  1  6
  2  4  1  0
  3  2  1  0
  4  5  1  1
  6  8  1  0
  6  4  1  0
  7  6  2  0
  9  8  1  0
  9 12  1  0
  9 10  1  1
 11 10  1  0
 12 14  1  0
 12 13  2  0
 14 15  1  0
 15 19  1  0
 15 16  1  6
 16 17  1  0
 17 21  1  0
 18 17  2  0
 19 20  1  0
 22 19  2  0
M  END
$$$$
