TCD.pdb
     RDKit          3D

 22 21  0  0  1  0  0  0  0  0999 V2000
   14.6746  -13.6311  -10.6679 C   0  0  0  0  0  0  0  0  0  0  0  0
   14.9265  -12.1819  -10.9957 C   0  0  1  0  0  0  0  0  0  0  0  0
   14.5228  -11.9386  -12.2916 O   0  0  0  0  0  0  0  0  0  0  0  0
   14.1669  -11.2734  -10.0209 C   0  0  2  0  0  0  0  0  0  0  0  0
   12.7569  -11.5462  -10.0615 N   0  0  0  0  0  0  0  0  0  0  0  0
   14.4468   -9.8545  -10.3270 C   0  0  0  0  0  0  0  0  0  0  0  0
   13.4806   -9.0621  -10.5558 O   0  0  0  0  0  0  0  0  0  0  0  0
   15.7464   -9.2936  -10.3864 N   0  0  0  0  0  0  0  0  0  0  0  0
   15.9771   -7.8764  -10.6603 C   0  0  1  0  0  0  0  0  0  0  0  0
   15.3603   -7.0255   -9.5583 C   0  0  0  0  0  0  0  0  0  0  0  0
   15.9625   -7.4923   -7.9233 S   0  0  0  0  0  0  0  0  0  0  0  0
   17.4027   -7.5695  -10.8076 C   0  0  0  0  0  0  0  0  0  0  0  0
   18.3074   -8.1172  -10.1213 O   0  0  0  0  0  0  0  0  0  0  0  0
   17.7950   -6.6098  -11.7666 N   0  0  0  0  0  0  0  0  0  0  0  0
   19.1590   -6.6022  -12.2921 C   0  0  1  0  0  0  0  0  0  0  0  0
   19.5577   -7.9409  -12.8165 C   0  0  0  0  0  0  0  0  0  0  0  0
   20.9238   -7.8718  -13.3748 C   0  0  0  0  0  0  0  0  0  0  0  0
   21.8890   -7.3234  -12.7545 O   0  0  0  0  0  0  0  0  0  0  0  0
   19.1972   -5.6114  -13.3745 C   0  0  0  0  0  0  0  0  0  0  0  0
   18.0399   -5.0709  -13.8832 O   0  0  0  0  0  0  0  0  0  0  0  0
   21.2626   -8.4006  -14.6211 O   0  0  0  0  0  0  0  0  0  0  0  0
   20.2885   -5.2492  -13.8456 O   0  0  0  0  0  0  0  0  0  0  0  0
  2  1  1  1
  2  4  1  0
  3  2  1  0
  4  5  1  6
  6  8  1  0
  6  4  1  0
  7  6  2  0
  9  8  1  0
  9 12  1  0
  9 10  1  1
 11 10  1  0
 12 14  1  0
 12 13  2  0
 14 15  1  0
 15 19  1  0
 15 16  1  6
 16 17  1  0
 17 21  1  0
 18 17  2  0
 19 20  1  0
 22 19  2  0
M  END
$$$$
