FLL.pdb
     RDKit          3D

 28 28  0  0  1  0  0  0  0  0999 V2000
    5.4258  -18.5857   23.1195 N   0  0  0  0  0  0  0  0  0  0  0  0
    5.9492  -17.3409   23.6787 C   0  0  1  0  0  0  0  0  0  0  0  0
    5.9572  -17.5232   25.1837 C   0  0  0  0  0  0  0  0  0  0  0  0
    6.4967  -16.2462   25.7694 C   0  0  0  0  0  0  0  0  0  0  0  0
    6.0945  -15.0192   25.2917 C   0  0  0  0  0  0  0  0  0  0  0  0
    6.5890  -13.8587   25.8288 C   0  0  0  0  0  0  0  0  0  0  0  0
    7.4984  -13.8836   26.8572 C   0  0  0  0  0  0  0  0  0  0  0  0
    7.9137  -15.0952   27.3495 C   0  0  0  0  0  0  0  0  0  0  0  0
    7.4081  -16.2531   26.7998 C   0  0  0  0  0  0  0  0  0  0  0  0
    7.2911  -17.0948   23.1353 C   0  0  0  0  0  0  0  0  0  0  0  0
    8.0774  -18.0420   22.8881 O   0  0  0  0  0  0  0  0  0  0  0  0
    8.2680  -14.6269   19.5896 C   0  0  0  0  0  0  0  0  0  0  0  0
    8.0881  -13.7794   20.8704 C   0  0  2  0  0  0  0  0  0  0  0  0
    8.1457  -12.3508   20.3957 C   0  0  0  0  0  0  0  0  0  0  0  0
    9.1778  -14.1983   21.7826 C   0  0  0  0  0  0  0  0  0  0  0  0
    9.0777  -15.5648   22.3832 C   0  0  2  0  0  0  0  0  0  0  0  0
    7.7389  -15.7762   22.8732 N   0  0  0  0  0  0  0  0  0  0  0  0
    9.9686  -15.5633   23.6030 C   0  0  0  0  0  0  0  0  0  0  0  0
   11.1933  -15.2852   23.5472 O   0  0  0  0  0  0  0  0  0  0  0  0
   10.0579  -13.0994   27.1884 C   0  0  0  0  0  0  0  0  0  0  0  0
    9.0370  -14.2139   27.3917 C   0  0  2  0  0  0  0  0  0  0  0  0
    8.1626  -13.9446   28.5720 C   0  0  0  0  0  0  0  0  0  0  0  0
    9.6094  -15.5766   27.3205 C   0  0  0  0  0  0  0  0  0  0  0  0
   10.2902  -15.9906   26.0764 C   0  0  2  0  0  0  0  0  0  0  0  0
    9.4508  -15.8825   24.8911 N   0  0  0  0  0  0  0  0  0  0  0  0
   10.9829  -17.2977   26.1199 C   0  0  0  0  0  0  0  0  0  0  0  0
   11.8445  -17.6040   26.9773 O   0  0  0  0  0  0  0  0  0  0  0  0
   10.6855  -18.2645   25.1703 O   0  0  0  0  0  0  0  0  0  0  0  0
  2  1  1  6
  2  3  1  0
  4  3  1  0
  4  9  2  0
  5  4  1  0
  6  5  2  0
  6  7  1  0
  7  8  2  0
  8  9  1  0
 10  2  1  0
 10 17  1  0
 11 10  2  0
 13 14  1  6
 13 12  1  0
 15 13  1  0
 16 15  1  1
 17 16  1  0
 18 16  1  0
 19 18  2  0
 21 20  1  1
 21 23  1  0
 22 21  1  0
 24 23  1  1
 24 26  1  0
 24 25  1  0
 25 18  1  0
 26 28  1  0
 27 26  2  0
M  END
$$$$
