FLL.pdb
     RDKit          3D

 28 28  0  0  1  0  0  0  0  0999 V2000
    6.9171  -16.5212   25.8134 N   0  0  0  0  0  0  0  0  0  0  0  0
    6.3267  -16.7304   24.4929 C   0  0  1  0  0  0  0  0  0  0  0  0
    5.2961  -15.6335   24.3112 C   0  0  0  0  0  0  0  0  0  0  0  0
    5.8201  -14.4253   25.0394 C   0  0  0  0  0  0  0  0  0  0  0  0
    5.6922  -14.3072   26.4051 C   0  0  0  0  0  0  0  0  0  0  0  0
    6.1714  -13.2043   27.0638 C   0  0  0  0  0  0  0  0  0  0  0  0
    6.7921  -12.1857   26.3840 C   0  0  0  0  0  0  0  0  0  0  0  0
    6.9309  -12.2816   25.0223 C   0  0  0  0  0  0  0  0  0  0  0  0
    6.4445  -13.3958   24.3739 C   0  0  0  0  0  0  0  0  0  0  0  0
    7.3863  -16.6799   23.4774 C   0  0  0  0  0  0  0  0  0  0  0  0
    7.5573  -17.6238   22.6673 O   0  0  0  0  0  0  0  0  0  0  0  0
    8.0309  -14.7773   19.8948 C   0  0  0  0  0  0  0  0  0  0  0  0
    8.2737  -13.8097   21.0762 C   0  0  2  0  0  0  0  0  0  0  0  0
    8.3917  -12.4496   20.4393 C   0  0  0  0  0  0  0  0  0  0  0  0
    9.4913  -14.3087   21.7571 C   0  0  0  0  0  0  0  0  0  0  0  0
    9.3798  -15.6084   22.4893 C   0  0  2  0  0  0  0  0  0  0  0  0
    8.2494  -15.5602   23.3822 N   0  0  0  0  0  0  0  0  0  0  0  0
   10.6004  -15.7087   23.3733 C   0  0  0  0  0  0  0  0  0  0  0  0
   11.7689  -15.7566   22.9122 O   0  0  0  0  0  0  0  0  0  0  0  0
   10.6252  -14.4811   29.1056 C   0  0  0  0  0  0  0  0  0  0  0  0
   11.0353  -14.5124   27.6370 C   0  0  2  0  0  0  0  0  0  0  0  0
   10.1469  -13.6485   26.8037 C   0  0  0  0  0  0  0  0  0  0  0  0
   11.2800  -15.8725   27.1079 C   0  0  0  0  0  0  0  0  0  0  0  0
   11.6051  -16.0229   25.6746 C   0  0  2  0  0  0  0  0  0  0  0  0
   10.4782  -15.7540   24.7919 N   0  0  0  0  0  0  0  0  0  0  0  0
   12.2918  -17.2772   25.2931 C   0  0  0  0  0  0  0  0  0  0  0  0
   13.5362  -17.4260   25.3106 O   0  0  0  0  0  0  0  0  0  0  0  0
   11.5443  -18.3731   24.8869 O   0  0  0  0  0  0  0  0  0  0  0  0
  2  1  1  1
  2  3  1  0
  4  3  1  0
  4  9  2  0
  5  4  1  0
  6  5  2  0
  6  7  1  0
  7  8  2  0
  8  9  1  0
 10  2  1  0
 10 17  1  0
 11 10  2  0
 13 14  1  6
 13 12  1  0
 15 13  1  0
 16 15  1  1
 17 16  1  0
 18 16  1  0
 19 18  2  0
 21 20  1  1
 21 23  1  0
 22 21  1  0
 24 23  1  1
 24 26  1  0
 24 25  1  0
 25 18  1  0
 26 28  1  0
 27 26  2  0
M  END
$$$$
