FLL.pdb
     RDKit          3D

 28 28  0  0  1  0  0  0  0  0999 V2000
    5.2605  -18.1309   23.7765 N   0  0  0  0  0  0  0  0  0  0  0  0
    5.8126  -16.7954   23.9947 C   0  0  1  0  0  0  0  0  0  0  0  0
    6.0770  -16.6844   25.4833 C   0  0  0  0  0  0  0  0  0  0  0  0
    6.1741  -15.2154   25.7952 C   0  0  0  0  0  0  0  0  0  0  0  0
    5.2046  -14.3334   25.3737 C   0  0  0  0  0  0  0  0  0  0  0  0
    5.2977  -12.9959   25.6605 C   0  0  0  0  0  0  0  0  0  0  0  0
    6.3578  -12.4954   26.3752 C   0  0  0  0  0  0  0  0  0  0  0  0
    7.3361  -13.3558   26.8057 C   0  0  0  0  0  0  0  0  0  0  0  0
    7.2292  -14.6973   26.5100 C   0  0  0  0  0  0  0  0  0  0  0  0
    7.0340  -16.6418   23.1939 C   0  0  0  0  0  0  0  0  0  0  0  0
    7.0290  -16.8395   21.9540 O   0  0  0  0  0  0  0  0  0  0  0  0
    8.5985  -14.7367   20.3127 C   0  0  0  0  0  0  0  0  0  0  0  0
    7.9838  -14.0627   21.5612 C   0  0  2  0  0  0  0  0  0  0  0  0
    7.7653  -12.6289   21.1541 C   0  0  0  0  0  0  0  0  0  0  0  0
    8.9611  -14.2793   22.6535 C   0  0  0  0  0  0  0  0  0  0  0  0
    9.3059  -15.6955   22.9902 C   0  0  2  0  0  0  0  0  0  0  0  0
    8.2581  -16.2645   23.7999 N   0  0  0  0  0  0  0  0  0  0  0  0
   10.5283  -15.6403   23.8757 C   0  0  0  0  0  0  0  0  0  0  0  0
   11.6317  -15.1862   23.4800 O   0  0  0  0  0  0  0  0  0  0  0  0
   11.3471  -13.2663   27.1673 C   0  0  0  0  0  0  0  0  0  0  0  0
   10.6857  -14.5547   27.6453 C   0  0  2  0  0  0  0  0  0  0  0  0
   10.1182  -14.4003   29.0179 C   0  0  0  0  0  0  0  0  0  0  0  0
   11.5025  -15.7691   27.4264 C   0  0  0  0  0  0  0  0  0  0  0  0
   11.6738  -16.2631   26.0445 C   0  0  2  0  0  0  0  0  0  0  0  0
   10.4830  -16.1084   25.2204 N   0  0  0  0  0  0  0  0  0  0  0  0
   12.2424  -17.6227   25.9074 C   0  0  0  0  0  0  0  0  0  0  0  0
   13.2987  -17.9983   26.4679 O   0  0  0  0  0  0  0  0  0  0  0  0
   11.5937  -18.5621   25.1190 O   0  0  0  0  0  0  0  0  0  0  0  0
  2  1  1  1
  2  3  1  0
  4  3  1  0
  4  9  2  0
  5  4  1  0
  6  5  2  0
  6  7  1  0
  7  8  2  0
  8  9  1  0
 10  2  1  0
 10 17  1  0
 11 10  2  0
 13 14  1  6
 13 12  1  0
 15 13  1  0
 16 15  1  1
 17 16  1  0
 18 16  1  0
 19 18  2  0
 21 20  1  1
 21 23  1  0
 22 21  1  0
 24 23  1  1
 24 26  1  0
 24 25  1  0
 25 18  1  0
 26 28  1  0
 27 26  2  0
M  END
$$$$
