FLL.pdb
     RDKit          3D

 28 28  0  0  1  0  0  0  0  0999 V2000
    5.7476  -18.2405   24.5001 N   0  0  0  0  0  0  0  0  0  0  0  0
    6.1800  -16.8470   24.5860 C   0  0  1  0  0  0  0  0  0  0  0  0
    6.2729  -16.5228   26.0640 C   0  0  0  0  0  0  0  0  0  0  0  0
    6.2250  -15.0232   26.1798 C   0  0  0  0  0  0  0  0  0  0  0  0
    7.3236  -14.3068   26.5984 C   0  0  0  0  0  0  0  0  0  0  0  0
    7.2748  -12.9405   26.7023 C   0  0  0  0  0  0  0  0  0  0  0  0
    6.1317  -12.2456   26.3929 C   0  0  0  0  0  0  0  0  0  0  0  0
    5.0242  -12.9386   25.9735 C   0  0  0  0  0  0  0  0  0  0  0  0
    5.0881  -14.3114   25.8739 C   0  0  0  0  0  0  0  0  0  0  0  0
    7.4677  -16.6983   23.8959 C   0  0  0  0  0  0  0  0  0  0  0  0
    8.2442  -17.6739   23.7488 O   0  0  0  0  0  0  0  0  0  0  0  0
    7.5904  -14.3549   19.9190 C   0  0  0  0  0  0  0  0  0  0  0  0
    7.7851  -13.5135   21.2016 C   0  0  2  0  0  0  0  0  0  0  0  0
    7.8319  -12.0868   20.7205 C   0  0  0  0  0  0  0  0  0  0  0  0
    9.0279  -14.0221   21.8278 C   0  0  0  0  0  0  0  0  0  0  0  0
    8.9732  -15.3834   22.4457 C   0  0  2  0  0  0  0  0  0  0  0  0
    7.8725  -15.4446   23.3742 N   0  0  0  0  0  0  0  0  0  0  0  0
   10.2249  -15.5265   23.2790 C   0  0  0  0  0  0  0  0  0  0  0  0
   11.3791  -15.4434   22.7878 O   0  0  0  0  0  0  0  0  0  0  0  0
   10.2112  -13.3932   27.9384 C   0  0  0  0  0  0  0  0  0  0  0  0
   10.5255  -14.8475   27.6039 C   0  0  2  0  0  0  0  0  0  0  0  0
   10.7333  -15.6594   28.8399 C   0  0  0  0  0  0  0  0  0  0  0  0
   11.5515  -15.0161   26.5509 C   0  0  0  0  0  0  0  0  0  0  0  0
   11.3240  -16.0313   25.5018 C   0  0  2  0  0  0  0  0  0  0  0  0
   10.1503  -15.7660   24.6813 N   0  0  0  0  0  0  0  0  0  0  0  0
   11.3535  -17.4424   25.9473 C   0  0  0  0  0  0  0  0  0  0  0  0
   10.3889  -18.2337   25.8268 O   0  0  0  0  0  0  0  0  0  0  0  0
   12.5007  -17.9522   26.5379 O   0  0  0  0  0  0  0  0  0  0  0  0
  2  1  1  1
  2  3  1  0
  4  3  1  0
  4  9  2  0
  5  4  1  0
  6  5  2  0
  6  7  1  0
  7  8  2  0
  8  9  1  0
 10  2  1  0
 10 17  1  0
 11 10  2  0
 13 14  1  6
 13 12  1  0
 15 13  1  0
 16 15  1  1
 17 16  1  0
 18 16  1  0
 19 18  2  0
 21 20  1  1
 21 23  1  0
 22 21  1  0
 24 23  1  1
 24 26  1  0
 24 25  1  0
 25 18  1  0
 26 28  1  0
 27 26  2  0
M  END
$$$$
