FLL.pdb
     RDKit          3D

 28 28  0  0  1  0  0  0  0  0999 V2000
    6.8138  -16.6048   25.9093 N   0  0  0  0  0  0  0  0  0  0  0  0
    6.3325  -16.9421   24.5712 C   0  0  1  0  0  0  0  0  0  0  0  0
    5.2124  -15.9673   24.2658 C   0  0  0  0  0  0  0  0  0  0  0  0
    5.5852  -14.6642   24.9198 C   0  0  0  0  0  0  0  0  0  0  0  0
    6.0549  -13.6046   24.1769 C   0  0  0  0  0  0  0  0  0  0  0  0
    6.3932  -12.4194   24.7775 C   0  0  0  0  0  0  0  0  0  0  0  0
    6.2744  -12.2525   26.1352 C   0  0  0  0  0  0  0  0  0  0  0  0
    5.8084  -13.2950   26.8959 C   0  0  0  0  0  0  0  0  0  0  0  0
    5.4723  -14.4800   26.2785 C   0  0  0  0  0  0  0  0  0  0  0  0
    7.4446  -16.8368   23.6179 C   0  0  0  0  0  0  0  0  0  0  0  0
    7.7147  -17.7733   22.8263 O   0  0  0  0  0  0  0  0  0  0  0  0
    7.8523  -14.4872   20.3416 C   0  0  0  0  0  0  0  0  0  0  0  0
    8.2765  -13.6707   21.5843 C   0  0  2  0  0  0  0  0  0  0  0  0
    8.4082  -12.2552   21.0859 C   0  0  0  0  0  0  0  0  0  0  0  0
    9.5271  -14.3010   22.0681 C   0  0  0  0  0  0  0  0  0  0  0  0
    9.4090  -15.6471   22.7100 C   0  0  2  0  0  0  0  0  0  0  0  0
    8.2480  -15.6709   23.5638 N   0  0  0  0  0  0  0  0  0  0  0  0
   10.5998  -15.7902   23.6282 C   0  0  0  0  0  0  0  0  0  0  0  0
   11.7827  -15.6326   23.2331 O   0  0  0  0  0  0  0  0  0  0  0  0
   11.0061  -13.3279   26.9211 C   0  0  0  0  0  0  0  0  0  0  0  0
   10.4102  -14.6295   27.4472 C   0  0  2  0  0  0  0  0  0  0  0  0
    9.8252  -14.4507   28.8095 C   0  0  0  0  0  0  0  0  0  0  0  0
   11.2917  -15.8066   27.2817 C   0  0  0  0  0  0  0  0  0  0  0  0
   11.5515  -16.3056   25.9156 C   0  0  2  0  0  0  0  0  0  0  0  0
   10.4310  -16.1155   25.0047 N   0  0  0  0  0  0  0  0  0  0  0  0
   12.0881  -17.6815   25.8186 C   0  0  0  0  0  0  0  0  0  0  0  0
   13.1210  -18.0723   26.4113 O   0  0  0  0  0  0  0  0  0  0  0  0
   11.4341  -18.6199   25.0334 O   0  0  0  0  0  0  0  0  0  0  0  0
  2  1  1  1
  2  3  1  0
  4  3  1  0
  4  9  2  0
  5  4  1  0
  6  5  2  0
  6  7  1  0
  7  8  2  0
  8  9  1  0
 10  2  1  0
 10 17  1  0
 11 10  2  0
 13 14  1  6
 13 12  1  0
 15 13  1  0
 16 15  1  1
 17 16  1  0
 18 16  1  0
 19 18  2  0
 21 20  1  1
 21 23  1  0
 22 21  1  0
 24 23  1  1
 24 26  1  0
 24 25  1  0
 25 18  1  0
 26 28  1  0
 27 26  2  0
M  END
$$$$
