FLL.pdb
     RDKit          3D

 28 28  0  0  1  0  0  0  0  0999 V2000
    5.4130  -18.8582   23.5852 N   0  0  0  0  0  0  0  0  0  0  0  0
    5.9216  -17.5399   23.9588 C   0  0  1  0  0  0  0  0  0  0  0  0
    5.8680  -17.4788   25.4726 C   0  0  0  0  0  0  0  0  0  0  0  0
    6.2035  -16.0636   25.8587 C   0  0  0  0  0  0  0  0  0  0  0  0
    5.3306  -15.0304   25.6018 C   0  0  0  0  0  0  0  0  0  0  0  0
    5.6410  -13.7427   25.9556 C   0  0  0  0  0  0  0  0  0  0  0  0
    6.8290  -13.4437   26.5756 C   0  0  0  0  0  0  0  0  0  0  0  0
    7.7146  -14.4574   26.8417 C   0  0  0  0  0  0  0  0  0  0  0  0
    7.3891  -15.7465   26.4804 C   0  0  0  0  0  0  0  0  0  0  0  0
    7.2857  -17.3839   23.4379 C   0  0  0  0  0  0  0  0  0  0  0  0
    8.1308  -18.3070   23.5389 O   0  0  0  0  0  0  0  0  0  0  0  0
    6.7671  -14.0378   21.2631 C   0  0  0  0  0  0  0  0  0  0  0  0
    8.2338  -13.7408   21.6519 C   0  0  2  0  0  0  0  0  0  0  0  0
    8.5697  -12.4614   20.9309 C   0  0  0  0  0  0  0  0  0  0  0  0
    9.0065  -14.9348   21.2365 C   0  0  0  0  0  0  0  0  0  0  0  0
    8.9701  -16.1218   22.1462 C   0  0  2  0  0  0  0  0  0  0  0  0
    7.6890  -16.1826   22.8039 N   0  0  0  0  0  0  0  0  0  0  0  0
    9.9819  -15.8579   23.2362 C   0  0  0  0  0  0  0  0  0  0  0  0
   11.1938  -15.6274   22.9943 O   0  0  0  0  0  0  0  0  0  0  0  0
   10.0532  -13.8192   29.0875 C   0  0  0  0  0  0  0  0  0  0  0  0
   10.8364  -14.3210   27.8790 C   0  0  2  0  0  0  0  0  0  0  0  0
   12.0174  -13.4523   27.5948 C   0  0  0  0  0  0  0  0  0  0  0  0
    9.9931  -14.6526   26.7090 C   0  0  0  0  0  0  0  0  0  0  0  0
   10.5342  -15.5749   25.6895 C   0  0  2  0  0  0  0  0  0  0  0  0
    9.6002  -15.8588   24.6087 N   0  0  0  0  0  0  0  0  0  0  0  0
   11.1487  -16.8200   26.2019 C   0  0  0  0  0  0  0  0  0  0  0  0
   12.1693  -16.8479   26.9291 O   0  0  0  0  0  0  0  0  0  0  0  0
   10.5880  -18.0467   25.8770 O   0  0  0  0  0  0  0  0  0  0  0  0
  2  1  1  1
  2  3  1  0
  4  3  1  0
  4  9  2  0
  5  4  1  0
  6  5  2  0
  6  7  1  0
  7  8  2  0
  8  9  1  0
 10  2  1  0
 10 17  1  0
 11 10  2  0
 13 14  1  6
 13 12  1  0
 15 13  1  0
 16 15  1  6
 17 16  1  0
 18 16  1  0
 19 18  2  0
 21 20  1  1
 21 23  1  0
 22 21  1  0
 24 23  1  1
 24 26  1  0
 24 25  1  0
 25 18  1  0
 26 28  1  0
 27 26  2  0
M  END
$$$$
