FLL.pdb
     RDKit          3D

 28 28  0  0  1  0  0  0  0  0999 V2000
   11.1016  -19.6803   20.3687 N   0  0  0  0  0  0  0  0  0  0  0  0
   10.2175  -19.1741   21.4166 C   0  0  1  0  0  0  0  0  0  0  0  0
   10.7094  -19.7813   22.7157 C   0  0  0  0  0  0  0  0  0  0  0  0
   10.3650  -21.2453   22.6645 C   0  0  0  0  0  0  0  0  0  0  0  0
   11.3494  -22.2078   22.6645 C   0  0  0  0  0  0  0  0  0  0  0  0
   11.0304  -23.5404   22.6178 C   0  0  0  0  0  0  0  0  0  0  0  0
    9.7226  -23.9559   22.5695 C   0  0  0  0  0  0  0  0  0  0  0  0
    8.7245  -23.0143   22.5685 C   0  0  0  0  0  0  0  0  0  0  0  0
    9.0603  -21.6788   22.6158 C   0  0  0  0  0  0  0  0  0  0  0  0
   10.2717  -17.7066   21.4261 C   0  0  0  0  0  0  0  0  0  0  0  0
   11.3621  -17.0946   21.3119 O   0  0  0  0  0  0  0  0  0  0  0  0
    6.3129  -13.1291   20.7131 C   0  0  0  0  0  0  0  0  0  0  0  0
    7.7757  -13.4374   21.1083 C   0  0  2  0  0  0  0  0  0  0  0  0
    8.6045  -12.8562   19.9926 C   0  0  0  0  0  0  0  0  0  0  0  0
    7.8458  -14.9093   21.2619 C   0  0  0  0  0  0  0  0  0  0  0  0
    9.1801  -15.4980   21.5954 C   0  0  2  0  0  0  0  0  0  0  0  0
    9.0907  -16.9362   21.5649 N   0  0  0  0  0  0  0  0  0  0  0  0
    9.4629  -15.1321   23.0333 C   0  0  0  0  0  0  0  0  0  0  0  0
   10.4587  -14.4448   23.3743 O   0  0  0  0  0  0  0  0  0  0  0  0
    7.8697  -12.2213   26.2333 C   0  0  0  0  0  0  0  0  0  0  0  0
    6.9820  -13.3803   25.7922 C   0  0  2  0  0  0  0  0  0  0  0  0
    5.5567  -13.1530   26.1760 C   0  0  0  0  0  0  0  0  0  0  0  0
    7.5256  -14.7162   26.1231 C   0  0  0  0  0  0  0  0  0  0  0  0
    8.7781  -15.1487   25.4694 C   0  0  2  0  0  0  0  0  0  0  0  0
    8.5988  -15.5573   24.0830 N   0  0  0  0  0  0  0  0  0  0  0  0
    9.5910  -16.1362   26.2139 C   0  0  0  0  0  0  0  0  0  0  0  0
    9.8893  -16.0243   27.4262 O   0  0  0  0  0  0  0  0  0  0  0  0
   10.0677  -17.2644   25.5621 O   0  0  0  0  0  0  0  0  0  0  0  0
  2  1  1  6
  2  3  1  0
  4  3  1  0
  4  9  2  0
  5  4  1  0
  6  5  2  0
  6  7  1  0
  7  8  2  0
  8  9  1  0
 10  2  1  0
 10 17  1  0
 11 10  2  0
 13 14  1  6
 13 12  1  0
 15 13  1  0
 16 15  1  1
 17 16  1  0
 18 16  1  0
 19 18  2  0
 21 20  1  1
 21 23  1  0
 22 21  1  0
 24 23  1  1
 24 26  1  0
 24 25  1  0
 25 18  1  0
 26 28  1  0
 27 26  2  0
M  END
$$$$
