FLL.pdb
     RDKit          3D

 28 28  0  0  1  0  0  0  0  0999 V2000
    5.4266  -18.9595   24.0326 N   0  0  0  0  0  0  0  0  0  0  0  0
    5.9114  -17.6484   24.4593 C   0  0  1  0  0  0  0  0  0  0  0  0
    6.3544  -17.8091   25.9002 C   0  0  0  0  0  0  0  0  0  0  0  0
    6.8325  -16.4573   26.3571 C   0  0  0  0  0  0  0  0  0  0  0  0
    8.0262  -16.3147   27.0281 C   0  0  0  0  0  0  0  0  0  0  0  0
    8.4574  -15.0809   27.4423 C   0  0  0  0  0  0  0  0  0  0  0  0
    7.7143  -13.9517   27.2016 C   0  0  0  0  0  0  0  0  0  0  0  0
    6.5211  -14.0696   26.5344 C   0  0  0  0  0  0  0  0  0  0  0  0
    6.1006  -15.3159   26.1242 C   0  0  0  0  0  0  0  0  0  0  0  0
    7.0083  -17.2293   23.5775 C   0  0  0  0  0  0  0  0  0  0  0  0
    7.8763  -18.0470   23.1842 O   0  0  0  0  0  0  0  0  0  0  0  0
    8.3740  -12.1833   20.3715 C   0  0  0  0  0  0  0  0  0  0  0  0
    8.8314  -13.6330   20.6542 C   0  0  2  0  0  0  0  0  0  0  0  0
    8.8155  -14.3091   19.3081 C   0  0  0  0  0  0  0  0  0  0  0  0
    7.8751  -14.1657   21.6527 C   0  0  0  0  0  0  0  0  0  0  0  0
    8.1612  -15.5217   22.2161 C   0  0  2  0  0  0  0  0  0  0  0  0
    7.1193  -15.8851   23.1433 N   0  0  0  0  0  0  0  0  0  0  0  0
    9.4194  -15.3866   23.0408 C   0  0  0  0  0  0  0  0  0  0  0  0
   10.5417  -15.1429   22.5295 O   0  0  0  0  0  0  0  0  0  0  0  0
    8.7747  -12.8723   27.4587 C   0  0  0  0  0  0  0  0  0  0  0  0
    9.5005  -14.2017   27.2808 C   0  0  2  0  0  0  0  0  0  0  0  0
    9.9734  -14.7448   28.5890 C   0  0  0  0  0  0  0  0  0  0  0  0
   10.5024  -14.2008   26.1917 C   0  0  0  0  0  0  0  0  0  0  0  0
   10.5691  -15.3732   25.2950 C   0  0  2  0  0  0  0  0  0  0  0  0
    9.3882  -15.5320   24.4575 N   0  0  0  0  0  0  0  0  0  0  0  0
   10.9466  -16.6554   25.9306 C   0  0  0  0  0  0  0  0  0  0  0  0
   12.0032  -16.8281   26.5824 O   0  0  0  0  0  0  0  0  0  0  0  0
   10.1042  -17.7520   25.8177 O   0  0  0  0  0  0  0  0  0  0  0  0
  2  1  1  6
  2  3  1  0
  4  3  1  0
  4  9  2  0
  5  4  1  0
  6  5  2  0
  6  7  1  0
  7  8  2  0
  8  9  1  0
 10  2  1  0
 10 17  1  0
 11 10  2  0
 13 14  1  6
 13 12  1  0
 15 13  1  0
 16 15  1  1
 17 16  1  0
 18 16  1  0
 19 18  2  0
 21 20  1  1
 21 23  1  0
 22 21  1  0
 24 23  1  1
 24 26  1  0
 24 25  1  0
 25 18  1  0
 26 28  1  0
 27 26  2  0
M  END
$$$$
