FLL.pdb
     RDKit          3D

 28 28  0  0  1  0  0  0  0  0999 V2000
    8.8012  -19.6675   21.8733 N   0  0  0  0  0  0  0  0  0  0  0  0
   10.1987  -19.2496   21.7798 C   0  0  1  0  0  0  0  0  0  0  0  0
   10.7644  -19.9351   20.5517 C   0  0  0  0  0  0  0  0  0  0  0  0
   10.7873  -21.4093   20.8534 C   0  0  0  0  0  0  0  0  0  0  0  0
   11.7092  -21.9423   21.7260 C   0  0  0  0  0  0  0  0  0  0  0  0
   11.7258  -23.2861   21.9975 C   0  0  0  0  0  0  0  0  0  0  0  0
   10.8261  -24.1403   21.4093 C   0  0  0  0  0  0  0  0  0  0  0  0
    9.8979  -23.6314   20.5361 C   0  0  0  0  0  0  0  0  0  0  0  0
    9.8932  -22.2790   20.2729 C   0  0  0  0  0  0  0  0  0  0  0  0
   10.2588  -17.7855   21.6840 C   0  0  0  0  0  0  0  0  0  0  0  0
   11.3518  -17.1875   21.5280 O   0  0  0  0  0  0  0  0  0  0  0  0
    6.2714  -13.2698   20.6988 C   0  0  0  0  0  0  0  0  0  0  0  0
    7.7596  -13.5563   21.0051 C   0  0  2  0  0  0  0  0  0  0  0  0
    8.5072  -13.0121   19.8159 C   0  0  0  0  0  0  0  0  0  0  0  0
    7.8508  -15.0213   21.2065 C   0  0  0  0  0  0  0  0  0  0  0  0
    9.1710  -15.5688   21.6484 C   0  0  2  0  0  0  0  0  0  0  0  0
    9.0807  -17.0025   21.7652 N   0  0  0  0  0  0  0  0  0  0  0  0
    9.4014  -15.0539   23.0496 C   0  0  0  0  0  0  0  0  0  0  0  0
   10.3040  -14.2239   23.3266 O   0  0  0  0  0  0  0  0  0  0  0  0
    8.5605  -11.9594   26.0045 C   0  0  0  0  0  0  0  0  0  0  0  0
    7.4220  -12.9026   25.6303 C   0  0  2  0  0  0  0  0  0  0  0  0
    6.0925  -12.3191   25.9797 C   0  0  0  0  0  0  0  0  0  0  0  0
    7.6348  -14.3037   26.0565 C   0  0  0  0  0  0  0  0  0  0  0  0
    8.7914  -15.0397   25.5055 C   0  0  2  0  0  0  0  0  0  0  0  0
    8.5921  -15.4941   24.1362 N   0  0  0  0  0  0  0  0  0  0  0  0
    9.3326  -16.1258   26.3527 C   0  0  0  0  0  0  0  0  0  0  0  0
    9.4822  -17.3077   25.9631 O   0  0  0  0  0  0  0  0  0  0  0  0
    9.7062  -15.8548   27.6611 O   0  0  0  0  0  0  0  0  0  0  0  0
  2  1  1  6
  2  3  1  0
  4  3  1  0
  4  9  2  0
  5  4  1  0
  6  5  2  0
  6  7  1  0
  7  8  2  0
  8  9  1  0
 10  2  1  0
 10 17  1  0
 11 10  2  0
 13 14  1  6
 13 12  1  0
 15 13  1  0
 16 15  1  1
 17 16  1  0
 18 16  1  0
 19 18  2  0
 21 20  1  1
 21 23  1  0
 22 21  1  0
 24 23  1  1
 24 26  1  0
 24 25  1  0
 25 18  1  0
 26 28  1  0
 27 26  2  0
M  END
$$$$
