FLL.pdb
     RDKit          3D

 28 28  0  0  1  0  0  0  0  0999 V2000
    5.9724  -19.4471   22.1167 N   0  0  0  0  0  0  0  0  0  0  0  0
    6.7711  -18.8451   23.1825 C   0  0  1  0  0  0  0  0  0  0  0  0
    7.3806  -19.9969   23.9570 C   0  0  0  0  0  0  0  0  0  0  0  0
    6.8719  -19.8837   25.3688 C   0  0  0  0  0  0  0  0  0  0  0  0
    7.1648  -18.7844   26.1442 C   0  0  0  0  0  0  0  0  0  0  0  0
    6.6988  -18.6861   27.4299 C   0  0  0  0  0  0  0  0  0  0  0  0
    5.9275  -19.6782   27.9831 C   0  0  0  0  0  0  0  0  0  0  0  0
    5.6228  -20.7832   27.2290 C   0  0  0  0  0  0  0  0  0  0  0  0
    6.0981  -20.8682   25.9385 C   0  0  0  0  0  0  0  0  0  0  0  0
    7.7874  -17.9681   22.5869 C   0  0  0  0  0  0  0  0  0  0  0  0
    8.7906  -18.4404   21.9978 O   0  0  0  0  0  0  0  0  0  0  0  0
    7.4630  -15.1688   19.4145 C   0  0  0  0  0  0  0  0  0  0  0  0
    6.9589  -14.5784   20.7517 C   0  0  2  0  0  0  0  0  0  0  0  0
    6.2950  -13.2807   20.3715 C   0  0  0  0  0  0  0  0  0  0  0  0
    8.1587  -14.4588   21.6127 C   0  0  0  0  0  0  0  0  0  0  0  0
    8.7316  -15.7256   22.1650 C   0  0  2  0  0  0  0  0  0  0  0  0
    7.6645  -16.5584   22.6602 N   0  0  0  0  0  0  0  0  0  0  0  0
    9.5468  -15.3357   23.3753 C   0  0  0  0  0  0  0  0  0  0  0  0
   10.5484  -14.5795   23.3026 O   0  0  0  0  0  0  0  0  0  0  0  0
    7.2189  -13.3267   26.0722 C   0  0  0  0  0  0  0  0  0  0  0  0
    8.3164  -13.8270   27.0055 C   0  0  2  0  0  0  0  0  0  0  0  0
    8.3737  -13.0219   28.2619 C   0  0  0  0  0  0  0  0  0  0  0  0
    9.6165  -14.0593   26.3378 C   0  0  0  0  0  0  0  0  0  0  0  0
    9.9361  -15.4252   25.8741 C   0  0  2  0  0  0  0  0  0  0  0  0
    9.2102  -15.8160   24.6735 N   0  0  0  0  0  0  0  0  0  0  0  0
    9.8772  -16.4893   26.9010 C   0  0  0  0  0  0  0  0  0  0  0  0
    9.1877  -17.5303   26.7903 O   0  0  0  0  0  0  0  0  0  0  0  0
   10.6161  -16.3591   28.0681 O   0  0  0  0  0  0  0  0  0  0  0  0
  2  1  1  6
  2  3  1  0
  4  3  1  0
  4  9  2  0
  5  4  1  0
  6  5  2  0
  6  7  1  0
  7  8  2  0
  8  9  1  0
 10  2  1  0
 10 17  1  0
 11 10  2  0
 13 14  1  6
 13 12  1  0
 15 13  1  0
 16 15  1  1
 17 16  1  0
 18 16  1  0
 19 18  2  0
 21 20  1  6
 21 23  1  0
 22 21  1  0
 24 23  1  1
 24 26  1  0
 24 25  1  0
 25 18  1  0
 26 28  1  0
 27 26  2  0
M  END
$$$$
