FLL.pdb
     RDKit          3D

 28 28  0  0  1  0  0  0  0  0999 V2000
    6.2149  -19.1334   22.8321 N   0  0  0  0  0  0  0  0  0  0  0  0
    6.8110  -18.5544   24.0344 C   0  0  1  0  0  0  0  0  0  0  0  0
    7.6719  -19.6421   24.6461 C   0  0  0  0  0  0  0  0  0  0  0  0
    7.2445  -19.7727   26.0830 C   0  0  0  0  0  0  0  0  0  0  0  0
    7.2527  -18.6865   26.9289 C   0  0  0  0  0  0  0  0  0  0  0  0
    6.8622  -18.8108   28.2373 C   0  0  0  0  0  0  0  0  0  0  0  0
    6.4518  -20.0193   28.7438 C   0  0  0  0  0  0  0  0  0  0  0  0
    6.4354  -21.1158   27.9191 C   0  0  0  0  0  0  0  0  0  0  0  0
    6.8305  -20.9757   26.6066 C   0  0  0  0  0  0  0  0  0  0  0  0
    7.5881  -17.3651   23.6627 C   0  0  0  0  0  0  0  0  0  0  0  0
    8.3005  -17.3496   22.6288 O   0  0  0  0  0  0  0  0  0  0  0  0
    5.9831  -13.2043   23.1863 C   0  0  0  0  0  0  0  0  0  0  0  0
    6.2936  -13.6677   24.6284 C   0  0  2  0  0  0  0  0  0  0  0  0
    5.7083  -12.5954   25.5098 C   0  0  0  0  0  0  0  0  0  0  0  0
    7.7662  -13.8185   24.6908 C   0  0  0  0  0  0  0  0  0  0  0  0
    8.3520  -15.0552   24.0862 C   0  0  2  0  0  0  0  0  0  0  0  0
    7.5561  -16.1962   24.4630 N   0  0  0  0  0  0  0  0  0  0  0  0
    9.6982  -15.2563   24.7409 C   0  0  0  0  0  0  0  0  0  0  0  0
   10.7229  -14.6161   24.3937 O   0  0  0  0  0  0  0  0  0  0  0  0
   10.9460  -13.6812   27.7121 C   0  0  0  0  0  0  0  0  0  0  0  0
   10.4929  -14.9859   28.3590 C   0  0  2  0  0  0  0  0  0  0  0  0
   10.4136  -14.8597   29.8449 C   0  0  0  0  0  0  0  0  0  0  0  0
   11.2007  -16.1851   27.8582 C   0  0  0  0  0  0  0  0  0  0  0  0
   11.1602  -16.4733   26.4097 C   0  0  2  0  0  0  0  0  0  0  0  0
    9.8679  -16.1959   25.7980 N   0  0  0  0  0  0  0  0  0  0  0  0
   11.6696  -17.8005   25.9979 C   0  0  0  0  0  0  0  0  0  0  0  0
   12.7641  -18.2781   26.3787 O   0  0  0  0  0  0  0  0  0  0  0  0
   10.9166  -18.5890   25.1399 O   0  0  0  0  0  0  0  0  0  0  0  0
  2  1  1  6
  2  3  1  0
  4  3  1  0
  4  9  2  0
  5  4  1  0
  6  5  2  0
  6  7  1  0
  7  8  2  0
  8  9  1  0
 10  2  1  0
 10 17  1  0
 11 10  2  0
 13 14  1  1
 13 12  1  0
 15 13  1  0
 16 15  1  1
 17 16  1  0
 18 16  1  0
 19 18  2  0
 21 20  1  1
 21 23  1  0
 22 21  1  0
 24 23  1  1
 24 26  1  0
 24 25  1  0
 25 18  1  0
 26 28  1  0
 27 26  2  0
M  END
$$$$
