FLL.pdb
     RDKit          3D

 28 28  0  0  1  0  0  0  0  0999 V2000
    9.0695  -17.6764   20.7884 N   0  0  0  0  0  0  0  0  0  0  0  0
    8.5445  -17.5756   22.1486 C   0  0  1  0  0  0  0  0  0  0  0  0
    8.9244  -18.8670   22.8459 C   0  0  0  0  0  0  0  0  0  0  0  0
    8.0957  -19.9552   22.2184 C   0  0  0  0  0  0  0  0  0  0  0  0
    7.2831  -19.6965   21.1376 C   0  0  0  0  0  0  0  0  0  0  0  0
    6.5301  -20.6915   20.5694 C   0  0  0  0  0  0  0  0  0  0  0  0
    6.5626  -21.9738   21.0593 C   0  0  0  0  0  0  0  0  0  0  0  0
    7.3653  -22.2550   22.1360 C   0  0  0  0  0  0  0  0  0  0  0  0
    8.1164  -21.2450   22.6965 C   0  0  0  0  0  0  0  0  0  0  0  0
    9.1213  -16.3935   22.8018 C   0  0  0  0  0  0  0  0  0  0  0  0
   10.1751  -15.8620   22.3733 O   0  0  0  0  0  0  0  0  0  0  0  0
    7.1305  -12.3358   23.5649 C   0  0  0  0  0  0  0  0  0  0  0  0
    6.7258  -13.5203   24.4725 C   0  0  2  0  0  0  0  0  0  0  0  0
    5.5741  -12.9990   25.2919 C   0  0  0  0  0  0  0  0  0  0  0  0
    7.9468  -13.8760   25.2327 C   0  0  0  0  0  0  0  0  0  0  0  0
    9.0290  -14.5930   24.4893 C   0  0  2  0  0  0  0  0  0  0  0  0
    8.5029  -15.8165   23.9386 N   0  0  0  0  0  0  0  0  0  0  0  0
   10.0526  -15.0100   25.5188 C   0  0  0  0  0  0  0  0  0  0  0  0
   10.7397  -14.1797   26.1661 O   0  0  0  0  0  0  0  0  0  0  0  0
   10.9482  -14.8665   30.2382 C   0  0  0  0  0  0  0  0  0  0  0  0
   11.0942  -15.0492   28.7312 C   0  0  2  0  0  0  0  0  0  0  0  0
   10.5796  -13.8624   27.9851 C   0  0  0  0  0  0  0  0  0  0  0  0
   10.6301  -16.3640   28.2353 C   0  0  0  0  0  0  0  0  0  0  0  0
   11.1133  -16.8311   26.9196 C   0  0  2  0  0  0  0  0  0  0  0  0
   10.2876  -16.3854   25.8057 N   0  0  0  0  0  0  0  0  0  0  0  0
   11.4129  -18.2766   26.8143 C   0  0  0  0  0  0  0  0  0  0  0  0
   12.2153  -18.8806   27.5643 O   0  0  0  0  0  0  0  0  0  0  0  0
   10.7864  -19.0385   25.8387 O   0  0  0  0  0  0  0  0  0  0  0  0
  2  1  1  6
  2  3  1  0
  4  3  1  0
  4  9  2  0
  5  4  1  0
  6  5  2  0
  6  7  1  0
  7  8  2  0
  8  9  1  0
 10  2  1  0
 10 17  1  0
 11 10  2  0
 13 14  1  1
 13 12  1  0
 15 13  1  0
 16 15  1  1
 17 16  1  0
 18 16  1  0
 19 18  2  0
 21 20  1  1
 21 23  1  0
 22 21  1  0
 24 23  1  1
 24 26  1  0
 24 25  1  0
 25 18  1  0
 26 28  1  0
 27 26  2  0
M  END
$$$$
