FLL.pdb
     RDKit          3D

 28 28  0  0  1  0  0  0  0  0999 V2000
    6.4587  -17.1175   25.8190 N   0  0  0  0  0  0  0  0  0  0  0  0
    6.0541  -17.0190   24.4181 C   0  0  1  0  0  0  0  0  0  0  0  0
    5.2536  -15.7372   24.2977 C   0  0  0  0  0  0  0  0  0  0  0  0
    5.9471  -14.7141   25.1561 C   0  0  0  0  0  0  0  0  0  0  0  0
    7.1261  -15.0097   25.8026 C   0  0  0  0  0  0  0  0  0  0  0  0
    7.7540  -14.0739   26.5836 C   0  0  0  0  0  0  0  0  0  0  0  0
    7.2282  -12.8159   26.7451 C   0  0  0  0  0  0  0  0  0  0  0  0
    6.0539  -12.4987   26.1102 C   0  0  0  0  0  0  0  0  0  0  0  0
    5.4342  -13.4492   25.3286 C   0  0  0  0  0  0  0  0  0  0  0  0
    7.2524  -17.0151   23.5691 C   0  0  0  0  0  0  0  0  0  0  0  0
    7.8585  -18.0796   23.2933 O   0  0  0  0  0  0  0  0  0  0  0  0
    7.4224  -14.7701   19.9716 C   0  0  0  0  0  0  0  0  0  0  0  0
    7.9578  -13.8539   21.0963 C   0  0  2  0  0  0  0  0  0  0  0  0
    8.1609  -12.5153   20.4358 C   0  0  0  0  0  0  0  0  0  0  0  0
    9.1843  -14.5151   21.5998 C   0  0  0  0  0  0  0  0  0  0  0  0
    9.0124  -15.8152   22.3198 C   0  0  2  0  0  0  0  0  0  0  0  0
    7.7610  -15.8053   23.0348 N   0  0  0  0  0  0  0  0  0  0  0  0
   10.0911  -15.8664   23.3758 C   0  0  0  0  0  0  0  0  0  0  0  0
   11.3158  -15.8174   23.0963 O   0  0  0  0  0  0  0  0  0  0  0  0
   10.5163  -15.5431   29.5887 C   0  0  0  0  0  0  0  0  0  0  0  0
   10.9887  -15.0062   28.2417 C   0  0  2  0  0  0  0  0  0  0  0  0
   11.3728  -13.5660   28.3324 C   0  0  0  0  0  0  0  0  0  0  0  0
   10.1057  -15.3600   27.1082 C   0  0  0  0  0  0  0  0  0  0  0  0
   10.7273  -15.7358   25.8216 C   0  0  2  0  0  0  0  0  0  0  0  0
    9.7619  -15.9743   24.7576 N   0  0  0  0  0  0  0  0  0  0  0  0
   11.7335  -16.8196   25.8794 C   0  0  0  0  0  0  0  0  0  0  0  0
   12.9715  -16.6240   25.8953 O   0  0  0  0  0  0  0  0  0  0  0  0
   11.3166  -18.1423   25.9190 O   0  0  0  0  0  0  0  0  0  0  0  0
  2  1  1  1
  2  3  1  0
  4  3  1  0
  4  9  2  0
  5  4  1  0
  6  5  2  0
  6  7  1  0
  7  8  2  0
  8  9  1  0
 10  2  1  0
 10 17  1  0
 11 10  2  0
 13 14  1  6
 13 12  1  0
 15 13  1  0
 16 15  1  1
 17 16  1  0
 18 16  1  0
 19 18  2  0
 21 20  1  1
 21 23  1  0
 22 21  1  0
 24 23  1  1
 24 26  1  0
 24 25  1  0
 25 18  1  0
 26 28  1  0
 27 26  2  0
M  END
$$$$
