SHI.pdb
     RDKit          3D

 25 25  0  0  1  0  0  0  0  0999 V2000
   18.8439  -29.4297  -11.2797 O   0  0  0  0  0  0  0  0  0  0  0  0
   18.7031  -28.4141  -12.2537 C   0  0  0  0  0  0  0  0  0  0  0  0
   19.7334  -27.3593  -11.9086 C   0  0  2  0  0  0  0  0  0  0  0  0
   21.0502  -27.9406  -11.7324 N   0  0  0  0  0  0  0  0  0  0  0  0
   19.3310  -26.5409  -10.7398 C   0  0  0  0  0  0  0  0  0  0  0  0
   19.9830  -26.6254   -9.6682 O   0  0  0  0  0  0  0  0  0  0  0  0
   18.2295  -25.6438  -10.7486 N   0  0  0  0  0  0  0  0  0  0  0  0
   17.9028  -24.7497   -9.6853 C   0  0  1  0  0  0  0  0  0  0  0  0
   17.1438  -23.5255  -10.1185 C   0  0  0  0  0  0  0  0  0  0  0  0
   17.9691  -22.5932  -10.9174 C   0  0  0  0  0  0  0  0  0  0  0  0
   19.3183  -22.6995  -11.1566 C   0  0  0  0  0  0  0  0  0  0  0  0
   19.7022  -21.6472  -11.9319 N   0  0  0  0  0  0  0  0  0  0  0  0
   18.6245  -20.9019  -12.1722 C   0  0  0  0  0  0  0  0  0  0  0  0
   17.5879  -21.4711  -11.5632 N   0  0  0  0  0  0  0  0  0  0  0  0
   17.1897  -25.4356   -8.5638 C   0  0  0  0  0  0  0  0  0  0  0  0
   16.3762  -26.3484   -8.8475 O   0  0  0  0  0  0  0  0  0  0  0  0
   18.3377  -27.4137   -3.0331 C   0  0  0  0  0  0  0  0  0  0  0  0
   17.2378  -27.1694   -4.0527 C   0  0  0  0  0  0  0  0  0  0  0  0
   17.8302  -26.3766   -5.1855 C   0  0  2  0  0  0  0  0  0  0  0  0
   18.6119  -25.2242   -4.5800 C   0  0  0  0  0  0  0  0  0  0  0  0
   16.7898  -25.9218   -6.1503 C   0  0  2  0  0  0  0  0  0  0  0  0
   17.3853  -25.1092   -7.2160 N   0  0  0  0  0  0  0  0  0  0  0  0
   15.6594  -25.1821   -5.5793 C   0  0  0  0  0  0  0  0  0  0  0  0
   14.7131  -25.8558   -4.8280 O   0  0  0  0  0  0  0  0  0  0  0  0
   15.5176  -23.9574   -5.7471 O   0  0  0  0  0  0  0  0  0  0  0  0
  1  2  1  0
  3  2  1  0
  3  4  1  1
  5  6  2  0
  5  3  1  0
  7  5  1  0
  8  7  1  0
  8  9  1  6
 10  9  1  0
 11 10  2  0
 12 11  1  0
 12 13  1  0
 13 14  2  0
 14 10  1  0
 15  8  1  0
 16 15  2  0
 18 19  1  0
 18 17  1  0
 19 21  1  0
 19 20  1  1
 21 22  1  6
 22 15  1  0
 23 24  1  0
 23 21  1  0
 25 23  2  0
M  END
$$$$
