SHI.pdb
     RDKit          3D

 25 25  0  0  1  0  0  0  0  0999 V2000
   29.1646  -22.1841  -14.8523 O   0  0  0  0  0  0  0  0  0  0  0  0
   28.2578  -22.1499  -15.9369 C   0  0  0  0  0  0  0  0  0  0  0  0
   27.8472  -20.7006  -16.0920 C   0  0  2  0  0  0  0  0  0  0  0  0
   28.9984  -19.8187  -16.0848 N   0  0  0  0  0  0  0  0  0  0  0  0
   26.8337  -20.2926  -15.0900 C   0  0  0  0  0  0  0  0  0  0  0  0
   26.8988  -19.1496  -14.5705 O   0  0  0  0  0  0  0  0  0  0  0  0
   25.7655  -21.1276  -14.6657 N   0  0  0  0  0  0  0  0  0  0  0  0
   24.6217  -20.6764  -13.9411 C   0  0  1  0  0  0  0  0  0  0  0  0
   23.3087  -20.9723  -14.6125 C   0  0  0  0  0  0  0  0  0  0  0  0
   22.1505  -20.4302  -13.8686 C   0  0  0  0  0  0  0  0  0  0  0  0
   22.1973  -19.7177  -12.6943 C   0  0  0  0  0  0  0  0  0  0  0  0
   20.9230  -19.4005  -12.3321 N   0  0  0  0  0  0  0  0  0  0  0  0
   20.1001  -19.8998  -13.2531 C   0  0  0  0  0  0  0  0  0  0  0  0
   20.8383  -20.5160  -14.1721 N   0  0  0  0  0  0  0  0  0  0  0  0
   24.6095  -21.1729  -12.5304 C   0  0  0  0  0  0  0  0  0  0  0  0
   24.7532  -22.4041  -12.3329 O   0  0  0  0  0  0  0  0  0  0  0  0
   27.7958  -19.4463   -8.9017 C   0  0  0  0  0  0  0  0  0  0  0  0
   26.8762  -20.3080   -9.7508 C   0  0  0  0  0  0  0  0  0  0  0  0
   25.4768  -20.1418   -9.2248 C   0  0  2  0  0  0  0  0  0  0  0  0
   25.4738  -20.5960   -7.7759 C   0  0  0  0  0  0  0  0  0  0  0  0
   24.4790  -20.8700  -10.0580 C   0  0  2  0  0  0  0  0  0  0  0  0
   24.4458  -20.3325  -11.4221 N   0  0  0  0  0  0  0  0  0  0  0  0
   23.1075  -20.9046   -9.5394 C   0  0  0  0  0  0  0  0  0  0  0  0
   22.1415  -20.0961  -10.1112 O   0  0  0  0  0  0  0  0  0  0  0  0
   22.7761  -21.6422   -8.5937 O   0  0  0  0  0  0  0  0  0  0  0  0
  1  2  1  0
  3  2  1  0
  3  4  1  1
  5  6  2  0
  5  3  1  0
  7  5  1  0
  8  7  1  0
  8  9  1  6
 10  9  1  0
 11 10  2  0
 12 11  1  0
 12 13  1  0
 13 14  2  0
 14 10  1  0
 15  8  1  0
 16 15  2  0
 18 19  1  0
 18 17  1  0
 19 21  1  0
 19 20  1  1
 21 22  1  6
 22 15  1  0
 23 24  1  0
 23 21  1  0
 25 23  2  0
M  END
$$$$
