SHI.pdb
     RDKit          3D

 25 25  0  0  1  0  0  0  0  0999 V2000
   22.7001  -10.4909  -19.8428 O   0  0  0  0  0  0  0  0  0  0  0  0
   22.9115  -11.5010  -18.8759 C   0  0  0  0  0  0  0  0  0  0  0  0
   21.5356  -11.9169  -18.3994 C   0  0  2  0  0  0  0  0  0  0  0  0
   20.7457  -12.4753  -19.4797 N   0  0  0  0  0  0  0  0  0  0  0  0
   20.8234  -10.8163  -17.7072 C   0  0  0  0  0  0  0  0  0  0  0  0
   19.9559  -10.1507  -18.3278 O   0  0  0  0  0  0  0  0  0  0  0  0
   21.0608  -10.4529  -16.3545 N   0  0  0  0  0  0  0  0  0  0  0  0
   20.3626   -9.4220  -15.6569 C   0  0  1  0  0  0  0  0  0  0  0  0
   19.5783   -9.9030  -14.4670 C   0  0  0  0  0  0  0  0  0  0  0  0
   18.3690  -10.6650  -14.8485 C   0  0  0  0  0  0  0  0  0  0  0  0
   17.3667  -10.2371  -15.6859 C   0  0  0  0  0  0  0  0  0  0  0  0
   16.4344  -11.2257  -15.7815 N   0  0  0  0  0  0  0  0  0  0  0  0
   16.8402  -12.2448  -15.0256 C   0  0  0  0  0  0  0  0  0  0  0  0
   17.9994  -11.9060  -14.4680 N   0  0  0  0  0  0  0  0  0  0  0  0
   21.2594   -8.2903  -15.2673 C   0  0  0  0  0  0  0  0  0  0  0  0
   22.3495   -8.5622  -14.7075 O   0  0  0  0  0  0  0  0  0  0  0  0
   22.5049   -4.4073  -18.5472 C   0  0  0  0  0  0  0  0  0  0  0  0
   22.5743   -5.4641  -17.4574 C   0  0  0  0  0  0  0  0  0  0  0  0
   21.9969   -4.8680  -16.2029 C   0  0  2  0  0  0  0  0  0  0  0  0
   22.8693   -3.6885  -15.8112 C   0  0  0  0  0  0  0  0  0  0  0  0
   21.8713   -5.8772  -15.1139 C   0  0  2  0  0  0  0  0  0  0  0  0
   20.9424   -6.9456  -15.4965 N   0  0  0  0  0  0  0  0  0  0  0  0
   21.4707   -5.3626  -13.8001 C   0  0  0  0  0  0  0  0  0  0  0  0
   22.4374   -5.1071  -12.8441 O   0  0  0  0  0  0  0  0  0  0  0  0
   20.2807   -5.1446  -13.5097 O   0  0  0  0  0  0  0  0  0  0  0  0
  1  2  1  0
  3  2  1  0
  3  4  1  6
  5  6  2  0
  5  3  1  0
  7  5  1  0
  8  7  1  0
  8  9  1  1
 10  9  1  0
 11 10  2  0
 12 11  1  0
 12 13  1  0
 13 14  2  0
 14 10  1  0
 15  8  1  0
 16 15  2  0
 18 19  1  0
 18 17  1  0
 19 21  1  0
 19 20  1  1
 21 22  1  6
 22 15  1  0
 23 24  1  0
 23 21  1  0
 25 23  2  0
M  END
$$$$
