SHI.pdb
     RDKit          3D

 25 25  0  0  1  0  0  0  0  0999 V2000
   20.8054  -15.8725  -14.8981 O   0  0  0  0  0  0  0  0  0  0  0  0
   19.5918  -15.5778  -15.5617 C   0  0  0  0  0  0  0  0  0  0  0  0
   19.9336  -15.4829  -17.0338 C   0  0  2  0  0  0  0  0  0  0  0  0
   20.6837  -16.6406  -17.4807 N   0  0  0  0  0  0  0  0  0  0  0  0
   20.6239  -14.2149  -17.3706 C   0  0  0  0  0  0  0  0  0  0  0  0
   21.8584  -14.2238  -17.6082 O   0  0  0  0  0  0  0  0  0  0  0  0
   19.9678  -12.9570  -17.4451 N   0  0  0  0  0  0  0  0  0  0  0  0
   20.6160  -11.7200  -17.7392 C   0  0  1  0  0  0  0  0  0  0  0  0
   19.7033  -10.6603  -18.2925 C   0  0  0  0  0  0  0  0  0  0  0  0
   20.4383   -9.4873  -18.8145 C   0  0  0  0  0  0  0  0  0  0  0  0
   21.3247   -9.4825  -19.8648 C   0  0  0  0  0  0  0  0  0  0  0  0
   21.7867   -8.2120  -20.0324 N   0  0  0  0  0  0  0  0  0  0  0  0
   21.2065   -7.4417  -19.1134 C   0  0  0  0  0  0  0  0  0  0  0  0
   20.3994   -8.2084  -18.3854 N   0  0  0  0  0  0  0  0  0  0  0  0
   21.3844  -11.1884  -16.5713 C   0  0  0  0  0  0  0  0  0  0  0  0
   20.9525  -11.4285  -15.4175 O   0  0  0  0  0  0  0  0  0  0  0  0
   26.5593  -11.7099  -15.9561 C   0  0  0  0  0  0  0  0  0  0  0  0
   25.0587  -11.5965  -15.7449 C   0  0  0  0  0  0  0  0  0  0  0  0
   24.7214  -10.1355  -15.6250 C   0  0  2  0  0  0  0  0  0  0  0  0
   25.4832   -9.5847  -14.4326 C   0  0  0  0  0  0  0  0  0  0  0  0
   23.2520   -9.9102  -15.5229 C   0  0  2  0  0  0  0  0  0  0  0  0
   22.5594  -10.4378  -16.7029 N   0  0  0  0  0  0  0  0  0  0  0  0
   22.8248   -8.5225  -15.3159 C   0  0  0  0  0  0  0  0  0  0  0  0
   22.7652   -7.6590  -16.3951 O   0  0  0  0  0  0  0  0  0  0  0  0
   22.5102   -8.0875  -14.1934 O   0  0  0  0  0  0  0  0  0  0  0  0
  1  2  1  0
  3  2  1  0
  3  4  1  1
  5  6  2  0
  5  3  1  0
  7  5  1  0
  8  7  1  0
  8  9  1  1
 10  9  1  0
 11 10  2  0
 12 11  1  0
 12 13  1  0
 13 14  2  0
 14 10  1  0
 15  8  1  0
 16 15  2  0
 18 19  1  0
 18 17  1  0
 19 21  1  0
 19 20  1  1
 21 22  1  6
 22 15  1  0
 23 24  1  0
 23 21  1  0
 25 23  2  0
M  END
$$$$
