SHI.pdb
     RDKit          3D

 25 25  0  0  1  0  0  0  0  0999 V2000
   28.6005  -21.7664  -13.9930 O   0  0  0  0  0  0  0  0  0  0  0  0
   28.4557  -20.7821  -14.9980 C   0  0  0  0  0  0  0  0  0  0  0  0
   26.9678  -20.6608  -15.2519 C   0  0  2  0  0  0  0  0  0  0  0  0
   26.6934  -19.8631  -16.4314 N   0  0  0  0  0  0  0  0  0  0  0  0
   26.2334  -20.1608  -14.0651 C   0  0  0  0  0  0  0  0  0  0  0  0
   26.2734  -18.9370  -13.7799 O   0  0  0  0  0  0  0  0  0  0  0  0
   25.4672  -20.9927  -13.2053 N   0  0  0  0  0  0  0  0  0  0  0  0
   24.6511  -20.5196  -12.1343 C   0  0  1  0  0  0  0  0  0  0  0  0
   23.1803  -20.7745  -12.3190 C   0  0  0  0  0  0  0  0  0  0  0  0
   22.6198  -20.0683  -13.4918 C   0  0  0  0  0  0  0  0  0  0  0  0
   21.9080  -18.8927  -13.4716 C   0  0  0  0  0  0  0  0  0  0  0  0
   21.5690  -18.5727  -14.7516 N   0  0  0  0  0  0  0  0  0  0  0  0
   22.0543  -19.5205  -15.5521 C   0  0  0  0  0  0  0  0  0  0  0  0
   22.6832  -20.4149  -14.7946 N   0  0  0  0  0  0  0  0  0  0  0  0
   25.1057  -21.0300  -10.8041 C   0  0  0  0  0  0  0  0  0  0  0  0
   25.4262  -22.2400  -10.7103 O   0  0  0  0  0  0  0  0  0  0  0  0
   27.9655  -18.1008   -7.2333 C   0  0  0  0  0  0  0  0  0  0  0  0
   27.4878  -19.2614   -8.0901 C   0  0  0  0  0  0  0  0  0  0  0  0
   26.2052  -19.7739   -7.4944 C   0  0  2  0  0  0  0  0  0  0  0  0
   26.5214  -20.2982   -6.1049 C   0  0  0  0  0  0  0  0  0  0  0  0
   25.5587  -20.7981   -8.3623 C   0  0  2  0  0  0  0  0  0  0  0  0
   25.1907  -20.2251   -9.6611 N   0  0  0  0  0  0  0  0  0  0  0  0
   24.3816  -21.4695   -7.8012 C   0  0  0  0  0  0  0  0  0  0  0  0
   24.5516  -22.5546   -6.9602 O   0  0  0  0  0  0  0  0  0  0  0  0
   23.2225  -21.0955   -8.0559 O   0  0  0  0  0  0  0  0  0  0  0  0
  1  2  1  0
  3  2  1  0
  3  4  1  6
  5  6  2  0
  5  3  1  0
  7  5  1  0
  8  7  1  0
  8  9  1  6
 10  9  1  0
 11 10  2  0
 12 11  1  0
 12 13  1  0
 13 14  2  0
 14 10  1  0
 15  8  1  0
 16 15  2  0
 18 19  1  0
 18 17  1  0
 19 21  1  0
 19 20  1  1
 21 22  1  6
 22 15  1  0
 23 24  1  0
 23 21  1  0
 25 23  2  0
M  END
$$$$
