SHI.pdb
     RDKit          3D

 25 25  0  0  1  0  0  0  0  0999 V2000
   18.0721  -13.3062  -16.6036 O   0  0  0  0  0  0  0  0  0  0  0  0
   18.7012  -12.5351  -15.5988 C   0  0  0  0  0  0  0  0  0  0  0  0
   18.7585  -11.1196  -16.1339 C   0  0  2  0  0  0  0  0  0  0  0  0
   18.7231  -11.0978  -17.5834 N   0  0  0  0  0  0  0  0  0  0  0  0
   19.9153  -10.3623  -15.5991 C   0  0  0  0  0  0  0  0  0  0  0  0
   20.0368  -10.2091  -14.3571 O   0  0  0  0  0  0  0  0  0  0  0  0
   20.9226   -9.7827  -16.4161 N   0  0  0  0  0  0  0  0  0  0  0  0
   22.0815   -9.1120  -15.9223 C   0  0  1  0  0  0  0  0  0  0  0  0
   23.3391   -9.4013  -16.6950 C   0  0  0  0  0  0  0  0  0  0  0  0
   23.7568  -10.8172  -16.5994 C   0  0  0  0  0  0  0  0  0  0  0  0
   23.7203  -11.6033  -15.4726 C   0  0  0  0  0  0  0  0  0  0  0  0
   24.1881  -12.8411  -15.7960 N   0  0  0  0  0  0  0  0  0  0  0  0
   24.5090  -12.8319  -17.0889 C   0  0  0  0  0  0  0  0  0  0  0  0
   24.2496  -11.6183  -17.5674 N   0  0  0  0  0  0  0  0  0  0  0  0
   21.8747   -7.6362  -15.7965 C   0  0  0  0  0  0  0  0  0  0  0  0
   21.4798   -7.0037  -16.8062 O   0  0  0  0  0  0  0  0  0  0  0  0
   18.5475   -3.6000  -14.8936 C   0  0  0  0  0  0  0  0  0  0  0  0
   20.0326   -3.7654  -14.6176 C   0  0  0  0  0  0  0  0  0  0  0  0
   20.3598   -5.2293  -14.7301 C   0  0  2  0  0  0  0  0  0  0  0  0
   19.4820   -5.9735  -13.7395 C   0  0  0  0  0  0  0  0  0  0  0  0
   21.8117   -5.4925  -14.5230 C   0  0  2  0  0  0  0  0  0  0  0  0
   22.0999   -6.9278  -14.6095 N   0  0  0  0  0  0  0  0  0  0  0  0
   22.3897   -4.9775  -13.2772 C   0  0  0  0  0  0  0  0  0  0  0  0
   22.5962   -3.6173  -13.1324 O   0  0  0  0  0  0  0  0  0  0  0  0
   22.7049   -5.7264  -12.3349 O   0  0  0  0  0  0  0  0  0  0  0  0
  1  2  1  0
  3  2  1  0
  3  4  1  6
  5  6  2  0
  5  3  1  0
  7  5  1  0
  8  7  1  0
  8  9  1  6
 10  9  1  0
 11 10  2  0
 12 11  1  0
 12 13  1  0
 13 14  2  0
 14 10  1  0
 15  8  1  0
 16 15  2  0
 18 19  1  0
 18 17  1  0
 19 21  1  0
 19 20  1  1
 21 22  1  1
 22 15  1  0
 23 24  1  0
 23 21  1  0
 25 23  2  0
M  END
$$$$
