SHI.pdb
     RDKit          3D

 25 25  0  0  1  0  0  0  0  0999 V2000
   27.3660  -25.9348  -16.7201 O   0  0  0  0  0  0  0  0  0  0  0  0
   27.4414  -24.8271  -17.5961 C   0  0  0  0  0  0  0  0  0  0  0  0
   28.6836  -24.0605  -17.1934 C   0  0  2  0  0  0  0  0  0  0  0  0
   29.6349  -24.9132  -16.5073 N   0  0  0  0  0  0  0  0  0  0  0  0
   28.3646  -22.8454  -16.4063 C   0  0  0  0  0  0  0  0  0  0  0  0
   28.7525  -22.7582  -15.2136 O   0  0  0  0  0  0  0  0  0  0  0  0
   27.6310  -21.7435  -16.9219 N   0  0  0  0  0  0  0  0  0  0  0  0
   27.2692  -20.5862  -16.1692 C   0  0  1  0  0  0  0  0  0  0  0  0
   26.8028  -19.4261  -17.0054 C   0  0  0  0  0  0  0  0  0  0  0  0
   26.5868  -18.1976  -16.2101 C   0  0  0  0  0  0  0  0  0  0  0  0
   26.7598  -18.0642  -14.8532 C   0  0  0  0  0  0  0  0  0  0  0  0
   26.4590  -16.7822  -14.5048 N   0  0  0  0  0  0  0  0  0  0  0  0
   26.1071  -16.1297  -15.6116 C   0  0  0  0  0  0  0  0  0  0  0  0
   26.1846  -16.9801  -16.6315 N   0  0  0  0  0  0  0  0  0  0  0  0
   26.2701  -20.8926  -15.0993 C   0  0  0  0  0  0  0  0  0  0  0  0
   25.3142  -21.6559  -15.3804 O   0  0  0  0  0  0  0  0  0  0  0  0
   27.5939  -21.1601   -9.7893 C   0  0  0  0  0  0  0  0  0  0  0  0
   26.9714  -21.5333  -11.1244 C   0  0  0  0  0  0  0  0  0  0  0  0
   25.8842  -20.5362  -11.4184 C   0  0  2  0  0  0  0  0  0  0  0  0
   24.8221  -20.6845  -10.3433 C   0  0  0  0  0  0  0  0  0  0  0  0
   25.3365  -20.6995  -12.7944 C   0  0  2  0  0  0  0  0  0  0  0  0
   26.3496  -20.3702  -13.8023 N   0  0  0  0  0  0  0  0  0  0  0  0
   24.1172  -19.9429  -13.0978 C   0  0  0  0  0  0  0  0  0  0  0  0
   22.8865  -20.5684  -13.0085 O   0  0  0  0  0  0  0  0  0  0  0  0
   24.1483  -18.7460  -13.4362 O   0  0  0  0  0  0  0  0  0  0  0  0
  1  2  1  0
  3  2  1  0
  3  4  1  1
  5  6  2  0
  5  3  1  0
  7  5  1  0
  8  7  1  0
  8  9  1  6
 10  9  1  0
 11 10  2  0
 12 11  1  0
 12 13  1  0
 13 14  2  0
 14 10  1  0
 15  8  1  0
 16 15  2  0
 18 19  1  0
 18 17  1  0
 19 21  1  0
 19 20  1  1
 21 22  1  6
 22 15  1  0
 23 24  1  0
 23 21  1  0
 25 23  2  0
M  END
$$$$
