SHI.pdb
     RDKit          3D

 25 25  0  0  1  0  0  0  0  0999 V2000
   38.1185   -8.7367  -14.6792 O   0  0  0  0  0  0  0  0  0  0  0  0
   37.2264   -8.7659  -15.7762 C   0  0  0  0  0  0  0  0  0  0  0  0
   35.8598   -8.4401  -15.2113 C   0  0  2  0  0  0  0  0  0  0  0  0
   35.4557   -9.4059  -14.2078 N   0  0  0  0  0  0  0  0  0  0  0  0
   34.8352   -8.2848  -16.2713 C   0  0  0  0  0  0  0  0  0  0  0  0
   35.0473   -7.4998  -17.2302 O   0  0  0  0  0  0  0  0  0  0  0  0
   33.5970   -8.9814  -16.2776 N   0  0  0  0  0  0  0  0  0  0  0  0
   32.6418   -8.9285  -17.3367 C   0  0  1  0  0  0  0  0  0  0  0  0
   31.7909  -10.1624  -17.4634 C   0  0  0  0  0  0  0  0  0  0  0  0
   32.5278  -11.3094  -18.0376 C   0  0  0  0  0  0  0  0  0  0  0  0
   33.8500  -11.3233  -18.4125 C   0  0  0  0  0  0  0  0  0  0  0  0
   34.1479  -12.5622  -18.8941 N   0  0  0  0  0  0  0  0  0  0  0  0
   33.0441  -13.3046  -18.8234 C   0  0  0  0  0  0  0  0  0  0  0  0
   32.0753  -12.5514  -18.3100 N   0  0  0  0  0  0  0  0  0  0  0  0
   31.7817   -7.7070  -17.2670 C   0  0  0  0  0  0  0  0  0  0  0  0
   31.2023   -7.4498  -16.1836 O   0  0  0  0  0  0  0  0  0  0  0  0
   33.3638   -2.9591  -18.5445 C   0  0  0  0  0  0  0  0  0  0  0  0
   32.6846   -4.1700  -17.9266 C   0  0  0  0  0  0  0  0  0  0  0  0
   31.4248   -4.4359  -18.7043 C   0  0  2  0  0  0  0  0  0  0  0  0
   30.5574   -3.1930  -18.6125 C   0  0  0  0  0  0  0  0  0  0  0  0
   30.7251   -5.6622  -18.2280 C   0  0  2  0  0  0  0  0  0  0  0  0
   31.5922   -6.8387  -18.3493 N   0  0  0  0  0  0  0  0  0  0  0  0
   29.4416   -5.9635  -18.8705 C   0  0  0  0  0  0  0  0  0  0  0  0
   28.2738   -5.4497  -18.3356 O   0  0  0  0  0  0  0  0  0  0  0  0
   29.3623   -6.6721  -19.8903 O   0  0  0  0  0  0  0  0  0  0  0  0
  1  2  1  0
  3  2  1  0
  3  4  1  1
  5  6  2  0
  5  3  1  0
  7  5  1  0
  8  7  1  0
  8  9  1  1
 10  9  1  0
 11 10  2  0
 12 11  1  0
 12 13  1  0
 13 14  2  0
 14 10  1  0
 15  8  1  0
 16 15  2  0
 18 19  1  0
 18 17  1  0
 19 21  1  0
 19 20  1  1
 21 22  1  6
 22 15  1  0
 23 24  1  0
 23 21  1  0
 25 23  2  0
M  END
$$$$
