SHI.pdb
     RDKit          3D

 25 25  0  0  1  0  0  0  0  0999 V2000
   28.1460  -22.1102  -16.7705 O   0  0  0  0  0  0  0  0  0  0  0  0
   27.5173  -21.9793  -18.0305 C   0  0  0  0  0  0  0  0  0  0  0  0
   27.1519  -20.5158  -18.1643 C   0  0  2  0  0  0  0  0  0  0  0  0
   28.3332  -19.6789  -18.2482 N   0  0  0  0  0  0  0  0  0  0  0  0
   26.2319  -20.0653  -17.0928 C   0  0  0  0  0  0  0  0  0  0  0  0
   26.6809  -19.3913  -16.1312 O   0  0  0  0  0  0  0  0  0  0  0  0
   24.8403  -20.3509  -17.0783 N   0  0  0  0  0  0  0  0  0  0  0  0
   23.9447  -19.9700  -16.0345 C   0  0  1  0  0  0  0  0  0  0  0  0
   22.4899  -20.0533  -16.4075 C   0  0  0  0  0  0  0  0  0  0  0  0
   21.5971  -19.5294  -15.3506 C   0  0  0  0  0  0  0  0  0  0  0  0
   21.9850  -19.0243  -14.1326 C   0  0  0  0  0  0  0  0  0  0  0  0
   20.8693  -18.6483  -13.4475 N   0  0  0  0  0  0  0  0  0  0  0  0
   19.8115  -18.9099  -14.2138 C   0  0  0  0  0  0  0  0  0  0  0  0
   20.2506  -19.4377  -15.3531 N   0  0  0  0  0  0  0  0  0  0  0  0
   24.2008  -20.7167  -14.7642 C   0  0  0  0  0  0  0  0  0  0  0  0
   24.1782  -21.9712  -14.7979 O   0  0  0  0  0  0  0  0  0  0  0  0
   28.4496  -20.4281  -12.0202 C   0  0  0  0  0  0  0  0  0  0  0  0
   27.1595  -20.9412  -12.6381 C   0  0  0  0  0  0  0  0  0  0  0  0
   26.0267  -20.5424  -11.7323 C   0  0  2  0  0  0  0  0  0  0  0  0
   26.2517  -21.2174  -10.3910 C   0  0  0  0  0  0  0  0  0  0  0  0
   24.6991  -20.8686  -12.3250 C   0  0  2  0  0  0  0  0  0  0  0  0
   24.4638  -20.0852  -13.5421 N   0  0  0  0  0  0  0  0  0  0  0  0
   23.5406  -20.7097  -11.4397 C   0  0  0  0  0  0  0  0  0  0  0  0
   23.1014  -21.7870  -10.6912 O   0  0  0  0  0  0  0  0  0  0  0  0
   22.9308  -19.6302  -11.3352 O   0  0  0  0  0  0  0  0  0  0  0  0
  1  2  1  0
  3  2  1  0
  3  4  1  1
  5  6  2  0
  5  3  1  0
  7  5  1  0
  8  7  1  0
  8  9  1  6
 10  9  1  0
 11 10  2  0
 12 11  1  0
 12 13  1  0
 13 14  2  0
 14 10  1  0
 15  8  1  0
 16 15  2  0
 18 19  1  0
 18 17  1  0
 19 21  1  0
 19 20  1  1
 21 22  1  6
 22 15  1  0
 23 24  1  0
 23 21  1  0
 25 23  2  0
M  END
$$$$
