SHI.pdb
     RDKit          3D

 25 25  0  0  1  0  0  0  0  0999 V2000
   22.7861  -17.7408  -17.0546 O   0  0  0  0  0  0  0  0  0  0  0  0
   24.1143  -17.3638  -17.3606 C   0  0  0  0  0  0  0  0  0  0  0  0
   24.8074  -18.6243  -17.8335 C   0  0  2  0  0  0  0  0  0  0  0  0
   24.1060  -19.2295  -18.9492 N   0  0  0  0  0  0  0  0  0  0  0  0
   25.0299  -19.5912  -16.7320 C   0  0  0  0  0  0  0  0  0  0  0  0
   24.0578  -20.2412  -16.2702 O   0  0  0  0  0  0  0  0  0  0  0  0
   26.3005  -19.8400  -16.1473 N   0  0  0  0  0  0  0  0  0  0  0  0
   26.5350  -20.7490  -15.0725 C   0  0  1  0  0  0  0  0  0  0  0  0
   27.9779  -21.1333  -14.8918 C   0  0  0  0  0  0  0  0  0  0  0  0
   28.4227  -22.1590  -15.8607 C   0  0  0  0  0  0  0  0  0  0  0  0
   27.6397  -22.7873  -16.7993 C   0  0  0  0  0  0  0  0  0  0  0  0
   28.4190  -23.6625  -17.4939 N   0  0  0  0  0  0  0  0  0  0  0  0
   29.6558  -23.5854  -17.0050 C   0  0  0  0  0  0  0  0  0  0  0  0
   29.6549  -22.6840  -16.0268 N   0  0  0  0  0  0  0  0  0  0  0  0
   25.9592  -20.2634  -13.7804 C   0  0  0  0  0  0  0  0  0  0  0  0
   26.1556  -19.0671  -13.4552 O   0  0  0  0  0  0  0  0  0  0  0  0
   21.1497  -19.3723  -11.0338 C   0  0  0  0  0  0  0  0  0  0  0  0
   22.4174  -20.0780  -10.5817 C   0  0  0  0  0  0  0  0  0  0  0  0
   23.0942  -20.6334  -11.8048 C   0  0  2  0  0  0  0  0  0  0  0  0
   22.6247  -22.0670  -11.9784 C   0  0  0  0  0  0  0  0  0  0  0  0
   24.5775  -20.5203  -11.7198 C   0  0  2  0  0  0  0  0  0  0  0  0
   25.2133  -21.0770  -12.9183 N   0  0  0  0  0  0  0  0  0  0  0  0
   25.2042  -21.1240  -10.5392 C   0  0  0  0  0  0  0  0  0  0  0  0
   25.8869  -22.3204  -10.6661 O   0  0  0  0  0  0  0  0  0  0  0  0
   25.1442  -20.5947   -9.4147 O   0  0  0  0  0  0  0  0  0  0  0  0
  1  2  1  0
  3  2  1  0
  3  4  1  6
  5  6  2  0
  5  3  1  0
  7  5  1  0
  8  7  1  0
  8  9  1  1
 10  9  1  0
 11 10  2  0
 12 11  1  0
 12 13  1  0
 13 14  2  0
 14 10  1  0
 15  8  1  0
 16 15  2  0
 18 19  1  0
 18 17  1  0
 19 21  1  0
 19 20  1  1
 21 22  1  6
 22 15  1  0
 23 24  1  0
 23 21  1  0
 25 23  2  0
M  END
$$$$
