CFG.pdb
     RDKit          3D

 22 22  0  0  1  0  0  0  0  0999 V2000
    7.6694  -13.4150   19.8136 N   0  0  0  0  0  0  0  0  0  0  0  0
    7.3007  -14.4260   20.7593 C   0  0  1  0  0  0  0  0  0  0  0  0
    7.5077  -15.7824   20.0714 C   0  0  0  0  0  0  0  0  0  0  0  0
    6.7308  -17.1119   21.0211 S   0  0  0  0  0  0  0  0  0  0  0  0
    8.1863  -14.4337   21.9572 C   0  0  0  0  0  0  0  0  0  0  0  0
    9.3227  -13.8992   21.9172 O   0  0  0  0  0  0  0  0  0  0  0  0
    7.7682  -15.0388   23.1546 N   0  0  0  0  0  0  0  0  0  0  0  0
    8.4808  -14.8780   24.4058 C   0  0  1  0  0  0  0  0  0  0  0  0
    7.4238  -14.8712   25.4865 C   0  0  0  0  0  0  0  0  0  0  0  0
    7.0672  -13.5368   25.9746 C   0  0  0  0  0  0  0  0  0  0  0  0
    5.7987  -13.1793   26.3383 C   0  0  0  0  0  0  0  0  0  0  0  0
    5.4913  -11.9032   26.8014 C   0  0  0  0  0  0  0  0  0  0  0  0
    6.4759  -10.9611   26.9037 C   0  0  0  0  0  0  0  0  0  0  0  0
    7.7742  -11.2948   26.5416 C   0  0  0  0  0  0  0  0  0  0  0  0
    8.0568  -12.5835   26.0794 C   0  0  0  0  0  0  0  0  0  0  0  0
    9.4472  -15.9839   24.5272 C   0  0  0  0  0  0  0  0  0  0  0  0
   10.3581  -15.9975   25.3886 O   0  0  0  0  0  0  0  0  0  0  0  0
    9.3531  -17.0813   23.6399 N   0  0  0  0  0  0  0  0  0  0  0  0
   10.5177  -17.6138   22.9751 C   0  0  0  0  0  0  0  0  0  0  0  0
   11.4891  -18.2257   23.8957 C   0  0  0  0  0  0  0  0  0  0  0  0
   11.3676  -19.3647   24.4113 O   0  0  0  0  0  0  0  0  0  0  0  0
   12.6202  -17.5036   24.2233 O   0  0  0  0  0  0  0  0  0  0  0  0
  2  1  1  6
  2  3  1  0
  2  5  1  0
  4  3  1  0
  5  6  2  0
  7  8  1  0
  7  5  1  0
  9 10  1  0
  8  9  1  1
 10 15  2  0
 11 12  2  0
 11 10  1  0
 12 13  1  0
 13 14  2  0
 15 14  1  0
 16  8  1  0
 16 17  2  0
 18 16  1  0
 19 18  1  0
 19 20  1  0
 20 21  2  0
 20 22  1  0
M  END
$$$$
