CFG.pdb
     RDKit          3D

 22 22  0  0  1  0  0  0  0  0999 V2000
    8.9153  -28.8461   32.2346 N   0  0  0  0  0  0  0  0  0  0  0  0
    9.7611  -27.7152   32.4751 C   0  0  1  0  0  0  0  0  0  0  0  0
   10.8025  -27.6845   31.3479 C   0  0  0  0  0  0  0  0  0  0  0  0
   12.1885  -26.6051   31.7801 S   0  0  0  0  0  0  0  0  0  0  0  0
    9.0227  -26.4243   32.3872 C   0  0  0  0  0  0  0  0  0  0  0  0
    8.0464  -26.2967   31.6067 O   0  0  0  0  0  0  0  0  0  0  0  0
    9.4036  -25.3249   33.1752 N   0  0  0  0  0  0  0  0  0  0  0  0
    8.6401  -24.0946   33.2275 C   0  0  1  0  0  0  0  0  0  0  0  0
    8.2552  -23.9074   34.6773 C   0  0  0  0  0  0  0  0  0  0  0  0
    7.2758  -24.8777   35.1726 C   0  0  0  0  0  0  0  0  0  0  0  0
    5.9443  -24.8311   34.8657 C   0  0  0  0  0  0  0  0  0  0  0  0
    5.0379  -25.7699   35.3498 C   0  0  0  0  0  0  0  0  0  0  0  0
    5.4727  -26.7804   36.1606 C   0  0  0  0  0  0  0  0  0  0  0  0
    6.8197  -26.8538   36.4897 C   0  0  0  0  0  0  0  0  0  0  0  0
    7.7097  -25.8984   35.9904 C   0  0  0  0  0  0  0  0  0  0  0  0
    9.4822  -23.0105   32.6917 C   0  0  0  0  0  0  0  0  0  0  0  0
    9.1406  -21.8047   32.7284 O   0  0  0  0  0  0  0  0  0  0  0  0
   10.7303  -23.3317   32.1090 N   0  0  0  0  0  0  0  0  0  0  0  0
   11.6255  -22.3050   31.6335 C   0  0  0  0  0  0  0  0  0  0  0  0
   11.4116  -21.9493   30.2217 C   0  0  0  0  0  0  0  0  0  0  0  0
   10.5296  -22.4526   29.4822 O   0  0  0  0  0  0  0  0  0  0  0  0
   12.2350  -20.9936   29.6588 O   0  0  0  0  0  0  0  0  0  0  0  0
  2  1  1  6
  2  3  1  0
  2  5  1  0
  4  3  1  0
  5  6  2  0
  7  8  1  0
  7  5  1  0
  9 10  1  0
  8  9  1  1
 10 15  2  0
 11 12  2  0
 11 10  1  0
 12 13  1  0
 13 14  2  0
 15 14  1  0
 16  8  1  0
 16 17  2  0
 18 16  1  0
 19 18  1  0
 19 20  1  0
 20 21  2  0
 20 22  1  0
M  END
$$$$
