CFG.pdb
     RDKit          3D

 22 22  0  0  1  0  0  0  0  0999 V2000
    9.1790  -16.7200   19.3765 N   0  0  0  0  0  0  0  0  0  0  0  0
    8.9118  -17.1875   20.7040 C   0  0  1  0  0  0  0  0  0  0  0  0
    9.9153  -18.3116   20.9956 C   0  0  0  0  0  0  0  0  0  0  0  0
    9.0888  -19.9206   21.0296 S   0  0  0  0  0  0  0  0  0  0  0  0
    9.1569  -16.1406   21.7353 C   0  0  0  0  0  0  0  0  0  0  0  0
   10.1051  -15.3260   21.6083 O   0  0  0  0  0  0  0  0  0  0  0  0
    8.3329  -16.0440   22.8695 N   0  0  0  0  0  0  0  0  0  0  0  0
    8.4685  -14.9863   23.8503 C   0  0  1  0  0  0  0  0  0  0  0  0
    7.1009  -14.8212   24.4729 C   0  0  0  0  0  0  0  0  0  0  0  0
    6.9946  -13.6992   25.4088 C   0  0  0  0  0  0  0  0  0  0  0  0
    6.5680  -12.4515   25.0472 C   0  0  0  0  0  0  0  0  0  0  0  0
    6.4748  -11.4054   25.9607 C   0  0  0  0  0  0  0  0  0  0  0  0
    6.8163  -11.6112   27.2678 C   0  0  0  0  0  0  0  0  0  0  0  0
    7.2532  -12.8680   27.6649 C   0  0  0  0  0  0  0  0  0  0  0  0
    7.3378  -13.9019   26.7278 C   0  0  0  0  0  0  0  0  0  0  0  0
    9.5139  -15.3837   24.8100 C   0  0  0  0  0  0  0  0  0  0  0  0
    9.9878  -14.5954   25.6621 O   0  0  0  0  0  0  0  0  0  0  0  0
   10.0113  -16.7073   24.7777 N   0  0  0  0  0  0  0  0  0  0  0  0
   11.0171  -17.1563   25.7096 C   0  0  0  0  0  0  0  0  0  0  0  0
   10.4577  -17.7724   26.9233 C   0  0  0  0  0  0  0  0  0  0  0  0
    9.2395  -18.0203   27.1041 O   0  0  0  0  0  0  0  0  0  0  0  0
   11.3265  -18.1062   27.9441 O   0  0  0  0  0  0  0  0  0  0  0  0
  2  1  1  6
  2  3  1  0
  2  5  1  0
  4  3  1  0
  5  6  2  0
  7  8  1  0
  7  5  1  0
  9 10  1  0
  8  9  1  1
 10 15  2  0
 11 12  2  0
 11 10  1  0
 12 13  1  0
 13 14  2  0
 15 14  1  0
 16  8  1  0
 16 17  2  0
 18 16  1  0
 19 18  1  0
 19 20  1  0
 20 21  2  0
 20 22  1  0
M  END
$$$$
