CFG.pdb
     RDKit          3D

 22 22  0  0  1  0  0  0  0  0999 V2000
    7.5213  -13.4486   20.1170 N   0  0  0  0  0  0  0  0  0  0  0  0
    7.4068  -14.5540   21.0210 C   0  0  1  0  0  0  0  0  0  0  0  0
    7.7691  -15.8197   20.2320 C   0  0  0  0  0  0  0  0  0  0  0  0
    7.5630  -17.2978   21.2547 S   0  0  0  0  0  0  0  0  0  0  0  0
    8.3848  -14.4750   22.1420 C   0  0  0  0  0  0  0  0  0  0  0  0
    9.4706  -13.8583   22.0026 O   0  0  0  0  0  0  0  0  0  0  0  0
    8.1120  -15.0884   23.3766 N   0  0  0  0  0  0  0  0  0  0  0  0
    8.9100  -14.8537   24.5629 C   0  0  1  0  0  0  0  0  0  0  0  0
    7.9378  -14.8428   25.7204 C   0  0  0  0  0  0  0  0  0  0  0  0
    7.3930  -13.5209   26.0395 C   0  0  0  0  0  0  0  0  0  0  0  0
    6.0639  -13.2835   26.2553 C   0  0  0  0  0  0  0  0  0  0  0  0
    5.5765  -12.0158   26.5597 C   0  0  0  0  0  0  0  0  0  0  0  0
    6.4384  -10.9592   26.6507 C   0  0  0  0  0  0  0  0  0  0  0  0
    7.7941  -11.1696   26.4367 C   0  0  0  0  0  0  0  0  0  0  0  0
    8.2583  -12.4526   26.1324 C   0  0  0  0  0  0  0  0  0  0  0  0
    9.9249  -15.9187   24.6496 C   0  0  0  0  0  0  0  0  0  0  0  0
   10.7981  -15.9524   25.5487 O   0  0  0  0  0  0  0  0  0  0  0  0
    9.9237  -16.9514   23.6833 N   0  0  0  0  0  0  0  0  0  0  0  0
   10.9004  -18.0129   23.7149 C   0  0  0  0  0  0  0  0  0  0  0  0
   10.7378  -18.9246   24.8586 C   0  0  0  0  0  0  0  0  0  0  0  0
    9.8580  -18.8081   25.7476 O   0  0  0  0  0  0  0  0  0  0  0  0
   11.6108  -19.9891   24.9722 O   0  0  0  0  0  0  0  0  0  0  0  0
  2  1  1  6
  2  3  1  0
  2  5  1  0
  4  3  1  0
  5  6  2  0
  7  8  1  0
  7  5  1  0
  9 10  1  0
  8  9  1  1
 10 15  2  0
 11 12  2  0
 11 10  1  0
 12 13  1  0
 13 14  2  0
 15 14  1  0
 16  8  1  0
 16 17  2  0
 18 16  1  0
 19 18  1  0
 19 20  1  0
 20 21  2  0
 20 22  1  0
M  END
$$$$
