CFG.pdb
     RDKit          3D

 22 22  0  0  1  0  0  0  0  0999 V2000
    7.8744  -13.1938   18.2458 N   0  0  0  0  0  0  0  0  0  0  0  0
    7.7717  -14.2550   19.2027 C   0  0  1  0  0  0  0  0  0  0  0  0
    8.6967  -15.3827   18.7248 C   0  0  0  0  0  0  0  0  0  0  0  0
    7.7384  -16.7546   18.0371 S   0  0  0  0  0  0  0  0  0  0  0  0
    8.2711  -13.8569   20.5486 C   0  0  0  0  0  0  0  0  0  0  0  0
    9.2506  -13.0784   20.6640 O   0  0  0  0  0  0  0  0  0  0  0  0
    7.6568  -14.3442   21.7148 N   0  0  0  0  0  0  0  0  0  0  0  0
    7.9874  -13.8567   23.0385 C   0  0  1  0  0  0  0  0  0  0  0  0
    6.6915  -13.8604   23.8168 C   0  0  0  0  0  0  0  0  0  0  0  0
    6.7749  -13.2212   25.1322 C   0  0  0  0  0  0  0  0  0  0  0  0
    7.0892  -11.9029   25.3131 C   0  0  0  0  0  0  0  0  0  0  0  0
    7.1579  -11.3231   26.5766 C   0  0  0  0  0  0  0  0  0  0  0  0
    6.9063  -12.0792   27.6868 C   0  0  0  0  0  0  0  0  0  0  0  0
    6.5844  -13.4213   27.5346 C   0  0  0  0  0  0  0  0  0  0  0  0
    6.5219  -13.9797   26.2546 C   0  0  0  0  0  0  0  0  0  0  0  0
    9.0232  -14.7385   23.6053 C   0  0  0  0  0  0  0  0  0  0  0  0
    9.7591  -14.3944   24.5603 O   0  0  0  0  0  0  0  0  0  0  0  0
    9.2040  -16.0297   23.0568 N   0  0  0  0  0  0  0  0  0  0  0  0
   10.2074  -16.9312   23.5688 C   0  0  0  0  0  0  0  0  0  0  0  0
    9.8104  -17.6013   24.8174 C   0  0  0  0  0  0  0  0  0  0  0  0
    9.4706  -17.0084   25.8715 O   0  0  0  0  0  0  0  0  0  0  0  0
    9.8077  -18.9824   24.8430 O   0  0  0  0  0  0  0  0  0  0  0  0
  2  1  1  6
  2  3  1  0
  2  5  1  0
  4  3  1  0
  5  6  2  0
  7  8  1  0
  7  5  1  0
  9 10  1  0
  8  9  1  1
 10 15  2  0
 11 12  2  0
 11 10  1  0
 12 13  1  0
 13 14  2  0
 15 14  1  0
 16  8  1  0
 16 17  2  0
 18 16  1  0
 19 18  1  0
 19 20  1  0
 20 21  2  0
 20 22  1  0
M  END
$$$$
