CFG.pdb
     RDKit          3D

 22 22  0  0  1  0  0  0  0  0999 V2000
   10.8892  -17.1596   20.4580 N   0  0  0  0  0  0  0  0  0  0  0  0
    9.6486  -17.1555   21.1743 C   0  0  1  0  0  0  0  0  0  0  0  0
    9.4090  -18.5890   21.6675 C   0  0  0  0  0  0  0  0  0  0  0  0
    9.2680  -19.7348   20.2745 S   0  0  0  0  0  0  0  0  0  0  0  0
    9.7004  -16.3043   22.3959 C   0  0  0  0  0  0  0  0  0  0  0  0
   10.8022  -15.9943   22.9143 O   0  0  0  0  0  0  0  0  0  0  0  0
    8.5187  -15.8318   22.9917 N   0  0  0  0  0  0  0  0  0  0  0  0
    8.5158  -14.8613   24.0676 C   0  0  1  0  0  0  0  0  0  0  0  0
    7.1797  -14.1587   23.9878 C   0  0  0  0  0  0  0  0  0  0  0  0
    6.9354  -13.2008   25.0689 C   0  0  0  0  0  0  0  0  0  0  0  0
    5.8562  -13.2654   25.9060 C   0  0  0  0  0  0  0  0  0  0  0  0
    5.6527  -12.3413   26.9268 C   0  0  0  0  0  0  0  0  0  0  0  0
    6.5495  -11.3277   27.1159 C   0  0  0  0  0  0  0  0  0  0  0  0
    7.6555  -11.2363   26.2813 C   0  0  0  0  0  0  0  0  0  0  0  0
    7.8371  -12.1771   25.2634 C   0  0  0  0  0  0  0  0  0  0  0  0
    8.7333  -15.5821   25.3344 C   0  0  0  0  0  0  0  0  0  0  0  0
    8.9812  -14.9960   26.4147 O   0  0  0  0  0  0  0  0  0  0  0  0
    8.6619  -16.9946   25.3442 N   0  0  0  0  0  0  0  0  0  0  0  0
    8.7633  -17.7449   26.5724 C   0  0  0  0  0  0  0  0  0  0  0  0
   10.1378  -18.1627   26.8917 C   0  0  0  0  0  0  0  0  0  0  0  0
   11.1449  -17.9123   26.1839 O   0  0  0  0  0  0  0  0  0  0  0  0
   10.3467  -18.8829   28.0518 O   0  0  0  0  0  0  0  0  0  0  0  0
  2  1  1  1
  2  3  1  0
  2  5  1  0
  4  3  1  0
  5  6  2  0
  7  8  1  0
  7  5  1  0
  9 10  1  0
  8  9  1  1
 10 15  2  0
 11 12  2  0
 11 10  1  0
 12 13  1  0
 13 14  2  0
 15 14  1  0
 16  8  1  0
 16 17  2  0
 18 16  1  0
 19 18  1  0
 19 20  1  0
 20 21  2  0
 20 22  1  0
M  END
$$$$
