CFG.pdb
     RDKit          3D

 22 22  0  0  1  0  0  0  0  0999 V2000
    9.4988  -17.8795   28.3315 N   0  0  0  0  0  0  0  0  0  0  0  0
    9.4685  -16.5525   27.7927 C   0  0  1  0  0  0  0  0  0  0  0  0
   10.8976  -15.9994   27.8781 C   0  0  0  0  0  0  0  0  0  0  0  0
   10.8816  -14.2053   28.1106 S   0  0  0  0  0  0  0  0  0  0  0  0
    9.1068  -16.5340   26.3476 C   0  0  0  0  0  0  0  0  0  0  0  0
    8.8275  -17.5998   25.7435 O   0  0  0  0  0  0  0  0  0  0  0  0
    9.0710  -15.3249   25.6323 N   0  0  0  0  0  0  0  0  0  0  0  0
    8.5079  -15.2164   24.3018 C   0  0  1  0  0  0  0  0  0  0  0  0
    8.0546  -13.7813   24.1599 C   0  0  0  0  0  0  0  0  0  0  0  0
    7.3078  -13.2669   25.3104 C   0  0  0  0  0  0  0  0  0  0  0  0
    7.7053  -12.1859   26.0471 C   0  0  0  0  0  0  0  0  0  0  0  0
    6.9722  -11.7186   27.1342 C   0  0  0  0  0  0  0  0  0  0  0  0
    5.8133  -12.3471   27.4939 C   0  0  0  0  0  0  0  0  0  0  0  0
    5.3841  -13.4479   26.7644 C   0  0  0  0  0  0  0  0  0  0  0  0
    6.1386  -13.8974   25.6768 C   0  0  0  0  0  0  0  0  0  0  0  0
    9.5455  -15.6103   23.3324 C   0  0  0  0  0  0  0  0  0  0  0  0
    9.3155  -15.7372   22.1064 O   0  0  0  0  0  0  0  0  0  0  0  0
   10.8596  -15.8584   23.7927 N   0  0  0  0  0  0  0  0  0  0  0  0
   11.9358  -16.1488   22.8766 C   0  0  0  0  0  0  0  0  0  0  0  0
   12.2730  -17.5793   22.8036 C   0  0  0  0  0  0  0  0  0  0  0  0
   11.4383  -18.5044   22.6439 O   0  0  0  0  0  0  0  0  0  0  0  0
   13.6009  -17.9422   22.9179 O   0  0  0  0  0  0  0  0  0  0  0  0
  2  1  1  6
  2  3  1  0
  2  5  1  0
  4  3  1  0
  5  6  2  0
  7  8  1  0
  7  5  1  0
  9 10  1  0
  8  9  1  6
 10 15  2  0
 11 12  2  0
 11 10  1  0
 12 13  1  0
 13 14  2  0
 15 14  1  0
 16  8  1  0
 16 17  2  0
 18 16  1  0
 19 18  1  0
 19 20  1  0
 20 21  2  0
 20 22  1  0
M  END
$$$$
