CFG.pdb
     RDKit          3D

 22 22  0  0  1  0  0  0  0  0999 V2000
    7.8394  -18.2120   21.3464 N   0  0  0  0  0  0  0  0  0  0  0  0
    8.5533  -17.1600   20.6862 C   0  0  1  0  0  0  0  0  0  0  0  0
    7.6684  -16.6720   19.5309 C   0  0  0  0  0  0  0  0  0  0  0  0
    5.9626  -16.4302   20.0831 S   0  0  0  0  0  0  0  0  0  0  0  0
    8.7668  -15.9779   21.5674 C   0  0  0  0  0  0  0  0  0  0  0  0
    9.4133  -14.9817   21.1572 O   0  0  0  0  0  0  0  0  0  0  0  0
    8.2496  -15.9542   22.8738 N   0  0  0  0  0  0  0  0  0  0  0  0
    8.3228  -14.7847   23.7259 C   0  0  1  0  0  0  0  0  0  0  0  0
    6.9244  -14.5729   24.2594 C   0  0  0  0  0  0  0  0  0  0  0  0
    6.7881  -13.4240   25.1580 C   0  0  0  0  0  0  0  0  0  0  0  0
    7.3926  -12.2174   24.9388 C   0  0  0  0  0  0  0  0  0  0  0  0
    7.2417  -11.1426   25.8102 C   0  0  0  0  0  0  0  0  0  0  0  0
    6.4676  -11.2768   26.9283 C   0  0  0  0  0  0  0  0  0  0  0  0
    5.8409  -12.4905   27.1777 C   0  0  0  0  0  0  0  0  0  0  0  0
    6.0085  -13.5546   26.2867 C   0  0  0  0  0  0  0  0  0  0  0  0
    9.3256  -15.0444   24.7741 C   0  0  0  0  0  0  0  0  0  0  0  0
    9.8108  -14.1358   25.4890 O   0  0  0  0  0  0  0  0  0  0  0  0
    9.7668  -16.3704   24.9917 N   0  0  0  0  0  0  0  0  0  0  0  0
   10.6437  -16.7014   26.0887 C   0  0  0  0  0  0  0  0  0  0  0  0
   11.0000  -18.1281   26.1437 C   0  0  0  0  0  0  0  0  0  0  0  0
   10.6922  -18.9772   25.2705 O   0  0  0  0  0  0  0  0  0  0  0  0
   11.7254  -18.5769   27.2303 O   0  0  0  0  0  0  0  0  0  0  0  0
  2  1  1  1
  2  3  1  0
  2  5  1  0
  4  3  1  0
  5  6  2  0
  7  8  1  0
  7  5  1  0
  9 10  1  0
  8  9  1  1
 10 15  2  0
 11 12  2  0
 11 10  1  0
 12 13  1  0
 13 14  2  0
 15 14  1  0
 16  8  1  0
 16 17  2  0
 18 16  1  0
 19 18  1  0
 19 20  1  0
 20 21  2  0
 20 22  1  0
M  END
$$$$
