CFG.pdb
     RDKit          3D

 22 22  0  0  1  0  0  0  0  0999 V2000
    5.6230  -20.4762   23.1621 N   0  0  0  0  0  0  0  0  0  0  0  0
    5.9716  -19.8068   24.3798 C   0  0  1  0  0  0  0  0  0  0  0  0
    7.1277  -20.5946   25.0112 C   0  0  0  0  0  0  0  0  0  0  0  0
    8.7194  -20.0444   24.3502 S   0  0  0  0  0  0  0  0  0  0  0  0
    6.4930  -18.4315   24.1431 C   0  0  0  0  0  0  0  0  0  0  0  0
    6.8936  -18.0856   23.0035 O   0  0  0  0  0  0  0  0  0  0  0  0
    6.5468  -17.4947   25.1892 N   0  0  0  0  0  0  0  0  0  0  0  0
    7.0221  -16.1385   25.0047 C   0  0  1  0  0  0  0  0  0  0  0  0
    6.1715  -15.2751   25.9081 C   0  0  0  0  0  0  0  0  0  0  0  0
    6.5437  -13.8583   25.9155 C   0  0  0  0  0  0  0  0  0  0  0  0
    6.9060  -13.1664   24.7933 C   0  0  0  0  0  0  0  0  0  0  0  0
    7.2520  -11.8187   24.8318 C   0  0  0  0  0  0  0  0  0  0  0  0
    7.2355  -11.1458   26.0210 C   0  0  0  0  0  0  0  0  0  0  0  0
    6.8716  -11.8220   27.1779 C   0  0  0  0  0  0  0  0  0  0  0  0
    6.5284  -13.1756   27.1124 C   0  0  0  0  0  0  0  0  0  0  0  0
    8.4582  -16.1083   25.3340 C   0  0  0  0  0  0  0  0  0  0  0  0
    8.8873  -16.2047   26.5081 O   0  0  0  0  0  0  0  0  0  0  0  0
    9.4013  -15.9647   24.2899 N   0  0  0  0  0  0  0  0  0  0  0  0
   10.7949  -15.7106   24.5640 C   0  0  0  0  0  0  0  0  0  0  0  0
   11.6238  -15.6222   23.3513 C   0  0  0  0  0  0  0  0  0  0  0  0
   11.2004  -15.7916   22.1808 O   0  0  0  0  0  0  0  0  0  0  0  0
   12.9663  -15.3324   23.4996 O   0  0  0  0  0  0  0  0  0  0  0  0
  2  1  1  6
  2  3  1  0
  2  5  1  0
  4  3  1  0
  5  6  2  0
  7  8  1  0
  7  5  1  0
  9 10  1  0
  8  9  1  1
 10 15  2  0
 11 12  2  0
 11 10  1  0
 12 13  1  0
 13 14  2  0
 15 14  1  0
 16  8  1  0
 16 17  2  0
 18 16  1  0
 19 18  1  0
 19 20  1  0
 20 21  2  0
 20 22  1  0
M  END
$$$$
