CFG.pdb
     RDKit          3D

 22 22  0  0  1  0  0  0  0  0999 V2000
    8.2743  -15.8043   19.4258 N   0  0  0  0  0  0  0  0  0  0  0  0
    7.4984  -16.4030   20.4708 C   0  0  1  0  0  0  0  0  0  0  0  0
    7.7816  -17.9110   20.4339 C   0  0  0  0  0  0  0  0  0  0  0  0
    6.7330  -18.7341   19.2108 S   0  0  0  0  0  0  0  0  0  0  0  0
    7.9146  -15.9400   21.8242 C   0  0  0  0  0  0  0  0  0  0  0  0
    9.0984  -15.5796   22.0420 O   0  0  0  0  0  0  0  0  0  0  0  0
    6.9917  -15.8973   22.8831 N   0  0  0  0  0  0  0  0  0  0  0  0
    7.3326  -15.4040   24.2021 C   0  0  1  0  0  0  0  0  0  0  0  0
    6.2076  -14.4765   24.6009 C   0  0  0  0  0  0  0  0  0  0  0  0
    6.5637  -13.5063   25.6391 C   0  0  0  0  0  0  0  0  0  0  0  0
    7.0662  -13.8576   26.8611 C   0  0  0  0  0  0  0  0  0  0  0  0
    7.3982  -12.9117   27.8268 C   0  0  0  0  0  0  0  0  0  0  0  0
    7.2236  -11.5819   27.5649 C   0  0  0  0  0  0  0  0  0  0  0  0
    6.7150  -11.1945   26.3323 C   0  0  0  0  0  0  0  0  0  0  0  0
    6.3895  -12.1642   25.3794 C   0  0  0  0  0  0  0  0  0  0  0  0
    7.4919  -16.5638   25.0971 C   0  0  0  0  0  0  0  0  0  0  0  0
    6.5489  -17.3429   25.3726 O   0  0  0  0  0  0  0  0  0  0  0  0
    8.7570  -16.8187   25.6758 N   0  0  0  0  0  0  0  0  0  0  0  0
    8.9491  -17.8887   26.6243 C   0  0  0  0  0  0  0  0  0  0  0  0
   10.3134  -17.9474   27.1728 C   0  0  0  0  0  0  0  0  0  0  0  0
   10.6980  -18.7599   28.0502 O   0  0  0  0  0  0  0  0  0  0  0  0
   11.2467  -17.0481   26.6951 O   0  0  0  0  0  0  0  0  0  0  0  0
  2  1  1  6
  2  3  1  0
  2  5  1  0
  4  3  1  0
  5  6  2  0
  7  8  1  0
  7  5  1  0
  9 10  1  0
  8  9  1  1
 10 15  2  0
 11 12  2  0
 11 10  1  0
 12 13  1  0
 13 14  2  0
 15 14  1  0
 16  8  1  0
 16 17  2  0
 18 16  1  0
 19 18  1  0
 19 20  1  0
 20 21  2  0
 20 22  1  0
M  END
$$$$
