CFG.pdb
     RDKit          3D

 22 22  0  0  1  0  0  0  0  0999 V2000
    8.3055  -12.7885   18.1321 N   0  0  0  0  0  0  0  0  0  0  0  0
    7.4693  -13.5402   19.0197 C   0  0  1  0  0  0  0  0  0  0  0  0
    7.4245  -14.9784   18.4855 C   0  0  0  0  0  0  0  0  0  0  0  0
    9.0283  -15.7911   18.6868 S   0  0  0  0  0  0  0  0  0  0  0  0
    8.0361  -13.6304   20.3945 C   0  0  0  0  0  0  0  0  0  0  0  0
    9.2312  -13.3123   20.6168 O   0  0  0  0  0  0  0  0  0  0  0  0
    7.2455  -14.0726   21.4689 N   0  0  0  0  0  0  0  0  0  0  0  0
    7.6918  -14.0184   22.8462 C   0  0  1  0  0  0  0  0  0  0  0  0
    6.7977  -13.0106   23.5318 C   0  0  0  0  0  0  0  0  0  0  0  0
    7.0541  -12.8521   24.9654 C   0  0  0  0  0  0  0  0  0  0  0  0
    6.0849  -12.9643   25.9233 C   0  0  0  0  0  0  0  0  0  0  0  0
    6.3602  -12.8111   27.2790 C   0  0  0  0  0  0  0  0  0  0  0  0
    7.6355  -12.5390   27.6878 C   0  0  0  0  0  0  0  0  0  0  0  0
    8.6412  -12.4194   26.7378 C   0  0  0  0  0  0  0  0  0  0  0  0
    8.3386  -12.5778   25.3823 C   0  0  0  0  0  0  0  0  0  0  0  0
    7.5987  -15.3763   23.4111 C   0  0  0  0  0  0  0  0  0  0  0  0
    6.5487  -16.0598   23.3651 O   0  0  0  0  0  0  0  0  0  0  0  0
    8.7354  -15.9426   24.0338 N   0  0  0  0  0  0  0  0  0  0  0  0
    8.7038  -17.2733   24.5907 C   0  0  0  0  0  0  0  0  0  0  0  0
    9.9938  -17.7034   25.1534 C   0  0  0  0  0  0  0  0  0  0  0  0
   10.3648  -17.4942   26.3352 O   0  0  0  0  0  0  0  0  0  0  0  0
   10.8675  -18.3876   24.3308 O   0  0  0  0  0  0  0  0  0  0  0  0
  2  1  1  6
  2  3  1  0
  2  5  1  0
  4  3  1  0
  5  6  2  0
  7  8  1  0
  7  5  1  0
  9 10  1  0
  8  9  1  1
 10 15  2  0
 11 12  2  0
 11 10  1  0
 12 13  1  0
 13 14  2  0
 15 14  1  0
 16  8  1  0
 16 17  2  0
 18 16  1  0
 19 18  1  0
 19 20  1  0
 20 21  2  0
 20 22  1  0
M  END
$$$$
