CFG.pdb
     RDKit          3D

 22 22  0  0  1  0  0  0  0  0999 V2000
    7.9539  -14.1570   20.1634 N   0  0  0  0  0  0  0  0  0  0  0  0
    7.6610  -15.1230   21.1799 C   0  0  1  0  0  0  0  0  0  0  0  0
    8.1294  -16.4864   20.6533 C   0  0  0  0  0  0  0  0  0  0  0  0
    6.8491  -17.2585   19.6345 S   0  0  0  0  0  0  0  0  0  0  0  0
    8.4297  -14.8805   22.4328 C   0  0  0  0  0  0  0  0  0  0  0  0
    9.4622  -14.1646   22.4224 O   0  0  0  0  0  0  0  0  0  0  0  0
    8.0153  -15.4476   23.6499 N   0  0  0  0  0  0  0  0  0  0  0  0
    8.5919  -15.0754   24.9259 C   0  0  1  0  0  0  0  0  0  0  0  0
    7.4313  -14.9643   25.8881 C   0  0  0  0  0  0  0  0  0  0  0  0
    7.0418  -13.5890   26.2087 C   0  0  0  0  0  0  0  0  0  0  0  0
    5.7425  -13.1769   26.3146 C   0  0  0  0  0  0  0  0  0  0  0  0
    5.4036  -11.8627   26.6236 C   0  0  0  0  0  0  0  0  0  0  0  0
    6.3875  -10.9375   26.8320 C   0  0  0  0  0  0  0  0  0  0  0  0
    7.7166  -11.3265   26.7314 C   0  0  0  0  0  0  0  0  0  0  0  0
    8.0305  -12.6526   26.4198 C   0  0  0  0  0  0  0  0  0  0  0  0
    9.5775  -16.1051   25.3003 C   0  0  0  0  0  0  0  0  0  0  0  0
    9.9216  -16.3152   26.4875 O   0  0  0  0  0  0  0  0  0  0  0  0
   10.1667  -16.8955   24.2862 N   0  0  0  0  0  0  0  0  0  0  0  0
   11.1304  -17.9232   24.5974 C   0  0  0  0  0  0  0  0  0  0  0  0
   11.6286  -18.6376   23.4112 C   0  0  0  0  0  0  0  0  0  0  0  0
   11.3176  -18.3613   22.2259 O   0  0  0  0  0  0  0  0  0  0  0  0
   12.5022  -19.6901   23.6040 O   0  0  0  0  0  0  0  0  0  0  0  0
  2  1  1  6
  2  3  1  0
  2  5  1  0
  4  3  1  0
  5  6  2  0
  7  8  1  0
  7  5  1  0
  9 10  1  0
  8  9  1  1
 10 15  2  0
 11 12  2  0
 11 10  1  0
 12 13  1  0
 13 14  2  0
 15 14  1  0
 16  8  1  0
 16 17  2  0
 18 16  1  0
 19 18  1  0
 19 20  1  0
 20 21  2  0
 20 22  1  0
M  END
$$$$
