DVS.pdb
     RDKit          3D

 22 21  0  0  1  0  0  0  0  0999 V2000
    8.3180  -15.0471   20.6036 N   0  0  0  0  0  0  0  0  0  0  0  0
    7.6867  -15.6071   21.7678 C   0  0  1  0  0  0  0  0  0  0  0  0
    7.8596  -17.1205   21.7372 C   0  0  0  0  0  0  0  0  0  0  0  0
    7.1886  -17.7101   20.5513 C   0  0  0  0  0  0  0  0  0  0  0  0
    5.9268  -17.8001   20.4880 O   0  0  0  0  0  0  0  0  0  0  0  0
    8.2868  -15.0364   23.0048 C   0  0  0  0  0  0  0  0  0  0  0  0
    9.5278  -15.0051   23.1221 O   0  0  0  0  0  0  0  0  0  0  0  0
    7.9711  -18.1639   19.5057 O   0  0  0  0  0  0  0  0  0  0  0  0
    6.7914  -11.9236   25.2164 C   0  0  0  0  0  0  0  0  0  0  0  0
    7.0493  -13.1516   26.0851 C   0  0  2  0  0  0  0  0  0  0  0  0
    7.6077  -12.6751   27.3975 C   0  0  0  0  0  0  0  0  0  0  0  0
    7.9370  -14.1363   25.3590 C   0  0  2  0  0  0  0  0  0  0  0  0
    7.4863  -14.5240   24.0621 N   0  0  0  0  0  0  0  0  0  0  0  0
    8.4023  -15.2440   26.2289 C   0  0  0  0  0  0  0  0  0  0  0  0
    7.5581  -16.1060   26.6492 O   0  0  0  0  0  0  0  0  0  0  0  0
   11.4100  -17.2346   25.5280 O   0  0  0  0  0  0  0  0  0  0  0  0
   11.3394  -17.2934   26.8982 C   0  0  0  0  0  0  0  0  0  0  0  0
   10.1368  -16.5831   27.4857 C   0  0  2  0  0  0  0  0  0  0  0  0
    9.7310  -15.4555   26.6626 N   0  0  0  0  0  0  0  0  0  0  0  0
   10.2932  -16.2418   28.9006 C   0  0  0  0  0  0  0  0  0  0  0  0
   10.1663  -15.0675   29.2930 O   0  0  0  0  0  0  0  0  0  0  0  0
   10.5847  -17.2326   29.8122 O   0  0  0  0  0  0  0  0  0  0  0  0
  2  1  1  6
  2  6  1  0
  2  3  1  0
  3  4  1  0
  4  5  2  0
  4  8  1  0
  6  7  2  0
  6 13  1  0
 10  9  1  6
 10 12  1  0
 11 10  1  0
 12 14  1  0
 12 13  1  6
 14 15  2  0
 14 19  1  0
 16 17  1  0
 18 20  1  0
 18 17  1  6
 19 18  1  0
 20 22  1  0
 21 20  2  0
M  END
$$$$
