DVS.pdb
     RDKit          3D

 22 21  0  0  1  0  0  0  0  0999 V2000
    8.7599  -15.0126   20.6996 N   0  0  0  0  0  0  0  0  0  0  0  0
    7.7757  -15.3018   21.7071 C   0  0  1  0  0  0  0  0  0  0  0  0
    7.4308  -16.7845   21.6422 C   0  0  0  0  0  0  0  0  0  0  0  0
    6.9285  -17.1568   20.2957 C   0  0  0  0  0  0  0  0  0  0  0  0
    7.0205  -16.3583   19.3167 O   0  0  0  0  0  0  0  0  0  0  0  0
    8.2966  -14.9439   23.0548 C   0  0  0  0  0  0  0  0  0  0  0  0
    9.5089  -15.0999   23.3012 O   0  0  0  0  0  0  0  0  0  0  0  0
    6.3528  -18.4021   20.1251 O   0  0  0  0  0  0  0  0  0  0  0  0
    6.9321  -11.8230   25.3291 C   0  0  0  0  0  0  0  0  0  0  0  0
    6.9705  -13.1208   26.1313 C   0  0  2  0  0  0  0  0  0  0  0  0
    7.4394  -12.7867   27.5204 C   0  0  0  0  0  0  0  0  0  0  0  0
    7.8196  -14.1537   25.4262 C   0  0  2  0  0  0  0  0  0  0  0  0
    7.4517  -14.4279   24.0753 N   0  0  0  0  0  0  0  0  0  0  0  0
    8.0943  -15.3453   26.2656 C   0  0  0  0  0  0  0  0  0  0  0  0
    7.1681  -16.2052   26.4531 O   0  0  0  0  0  0  0  0  0  0  0  0
   11.3863  -17.6905   26.1398 O   0  0  0  0  0  0  0  0  0  0  0  0
   10.1141  -17.9415   26.5919 C   0  0  0  0  0  0  0  0  0  0  0  0
    9.5907  -16.9085   27.5689 C   0  0  2  0  0  0  0  0  0  0  0  0
    9.3178  -15.6425   26.9084 N   0  0  0  0  0  0  0  0  0  0  0  0
   10.4152  -16.7699   28.7705 C   0  0  0  0  0  0  0  0  0  0  0  0
   10.8841  -15.6652   29.1003 O   0  0  0  0  0  0  0  0  0  0  0  0
   10.6768  -17.8762   29.5486 O   0  0  0  0  0  0  0  0  0  0  0  0
  2  1  1  6
  2  6  1  0
  2  3  1  0
  3  4  1  0
  4  5  2  0
  4  8  1  0
  6  7  2  0
  6 13  1  0
 10  9  1  6
 10 12  1  0
 11 10  1  0
 12 14  1  0
 12 13  1  6
 14 15  2  0
 14 19  1  0
 16 17  1  0
 18 20  1  0
 18 17  1  6
 19 18  1  0
 20 22  1  0
 21 20  2  0
M  END
$$$$
