DVS.pdb
     RDKit          3D

 22 21  0  0  1  0  0  0  0  0999 V2000
    8.3071  -16.9032   21.5375 N   0  0  0  0  0  0  0  0  0  0  0  0
    9.6966  -16.6791   21.8318 C   0  0  1  0  0  0  0  0  0  0  0  0
   10.3521  -16.0211   20.6240 C   0  0  0  0  0  0  0  0  0  0  0  0
   10.5304  -16.9948   19.5176 C   0  0  0  0  0  0  0  0  0  0  0  0
    9.5472  -17.3829   18.8197 O   0  0  0  0  0  0  0  0  0  0  0  0
    9.8361  -15.8174   23.0375 C   0  0  0  0  0  0  0  0  0  0  0  0
   10.9648  -15.3958   23.3585 O   0  0  0  0  0  0  0  0  0  0  0  0
   11.8001  -17.4762   19.2578 O   0  0  0  0  0  0  0  0  0  0  0  0
    7.2347  -12.9096   24.2596 C   0  0  0  0  0  0  0  0  0  0  0  0
    7.5036  -13.9237   25.3679 C   0  0  2  0  0  0  0  0  0  0  0  0
    7.5615  -13.1742   26.6702 C   0  0  0  0  0  0  0  0  0  0  0  0
    8.7489  -14.7241   25.0619 C   0  0  2  0  0  0  0  0  0  0  0  0
    8.7180  -15.4583   23.8391 N   0  0  0  0  0  0  0  0  0  0  0  0
    9.2602  -15.4684   26.2387 C   0  0  0  0  0  0  0  0  0  0  0  0
    8.5740  -16.4363   26.7128 O   0  0  0  0  0  0  0  0  0  0  0  0
   12.8428  -16.6870   26.6844 O   0  0  0  0  0  0  0  0  0  0  0  0
   12.4364  -16.2773   27.9305 C   0  0  0  0  0  0  0  0  0  0  0  0
   10.9490  -16.0089   28.0378 C   0  0  2  0  0  0  0  0  0  0  0  0
   10.4710  -15.2103   26.9209 N   0  0  0  0  0  0  0  0  0  0  0  0
   10.5424  -15.4837   29.3423 C   0  0  0  0  0  0  0  0  0  0  0  0
   10.0006  -14.3677   29.4417 O   0  0  0  0  0  0  0  0  0  0  0  0
   10.7616  -16.2335   30.4770 O   0  0  0  0  0  0  0  0  0  0  0  0
  2  1  1  6
  2  6  1  0
  2  3  1  0
  3  4  1  0
  4  5  2  0
  4  8  1  0
  6  7  2  0
  6 13  1  0
 10  9  1  6
 10 12  1  0
 11 10  1  0
 12 14  1  0
 12 13  1  6
 14 15  2  0
 14 19  1  0
 16 17  1  0
 18 20  1  0
 18 17  1  1
 19 18  1  0
 20 22  1  0
 21 20  2  0
M  END
$$$$
