DVS.pdb
     RDKit          3D

 22 21  0  0  1  0  0  0  0  0999 V2000
    8.2249  -16.0809   21.2718 N   0  0  0  0  0  0  0  0  0  0  0  0
    9.4402  -16.5160   21.9053 C   0  0  1  0  0  0  0  0  0  0  0  0
   10.6007  -16.2882   20.9447 C   0  0  0  0  0  0  0  0  0  0  0  0
   10.3688  -16.9836   19.6537 C   0  0  0  0  0  0  0  0  0  0  0  0
    9.7414  -18.0828   19.6034 O   0  0  0  0  0  0  0  0  0  0  0  0
    9.6565  -15.7687   23.1743 C   0  0  0  0  0  0  0  0  0  0  0  0
   10.8211  -15.5607   23.5686 O   0  0  0  0  0  0  0  0  0  0  0  0
   10.8533  -16.4063   18.4946 O   0  0  0  0  0  0  0  0  0  0  0  0
    7.2846  -12.7340   24.5245 C   0  0  0  0  0  0  0  0  0  0  0  0
    7.5099  -13.7746   25.6179 C   0  0  2  0  0  0  0  0  0  0  0  0
    7.7039  -13.0406   26.9158 C   0  0  0  0  0  0  0  0  0  0  0  0
    8.6560  -14.6891   25.2500 C   0  0  2  0  0  0  0  0  0  0  0  0
    8.5725  -15.2826   23.9553 N   0  0  0  0  0  0  0  0  0  0  0  0
    9.0353  -15.6098   26.3493 C   0  0  0  0  0  0  0  0  0  0  0  0
    8.1692  -16.4325   26.8028 O   0  0  0  0  0  0  0  0  0  0  0  0
   13.0207  -16.4703   27.7123 O   0  0  0  0  0  0  0  0  0  0  0  0
   11.9406  -17.3161   27.7763 C   0  0  0  0  0  0  0  0  0  0  0  0
   10.6225  -16.6160   28.0373 C   0  0  2  0  0  0  0  0  0  0  0  0
   10.3006  -15.6760   26.9760 N   0  0  0  0  0  0  0  0  0  0  0  0
   10.5250  -16.0339   29.3769 C   0  0  0  0  0  0  0  0  0  0  0  0
   10.2934  -14.8209   29.5318 O   0  0  0  0  0  0  0  0  0  0  0  0
   10.6914  -16.8382   30.4829 O   0  0  0  0  0  0  0  0  0  0  0  0
  2  1  1  6
  2  6  1  0
  2  3  1  0
  3  4  1  0
  4  5  2  0
  4  8  1  0
  6  7  2  0
  6 13  1  0
 10  9  1  6
 10 12  1  0
 11 10  1  0
 12 14  1  0
 12 13  1  6
 14 15  2  0
 14 19  1  0
 16 17  1  0
 18 20  1  0
 18 17  1  6
 19 18  1  0
 20 22  1  0
 21 20  2  0
M  END
$$$$
