DVS.pdb
     RDKit          3D

 22 21  0  0  1  0  0  0  0  0999 V2000
    8.9053  -15.4045   20.7511 N   0  0  0  0  0  0  0  0  0  0  0  0
    8.0770  -15.8336   21.8454 C   0  0  1  0  0  0  0  0  0  0  0  0
    8.0630  -17.3568   21.8797 C   0  0  0  0  0  0  0  0  0  0  0  0
    7.4157  -17.9117   20.6644 C   0  0  0  0  0  0  0  0  0  0  0  0
    8.0810  -18.1354   19.6101 O   0  0  0  0  0  0  0  0  0  0  0  0
    8.5937  -15.2856   23.1292 C   0  0  0  0  0  0  0  0  0  0  0  0
    9.8248  -15.2451   23.3235 O   0  0  0  0  0  0  0  0  0  0  0  0
    6.0607  -18.1839   20.7020 O   0  0  0  0  0  0  0  0  0  0  0  0
    6.9887  -12.1702   25.2308 C   0  0  0  0  0  0  0  0  0  0  0  0
    7.1675  -13.3999   26.1168 C   0  0  2  0  0  0  0  0  0  0  0  0
    7.6293  -12.9278   27.4678 C   0  0  0  0  0  0  0  0  0  0  0  0
    8.0979  -14.3942   25.4605 C   0  0  2  0  0  0  0  0  0  0  0  0
    7.7243  -14.8050   24.1464 N   0  0  0  0  0  0  0  0  0  0  0  0
    8.5138  -15.4857   26.3747 C   0  0  0  0  0  0  0  0  0  0  0  0
    7.6481  -16.3427   26.7600 O   0  0  0  0  0  0  0  0  0  0  0  0
   11.1481  -17.8160   25.8314 O   0  0  0  0  0  0  0  0  0  0  0  0
   11.2402  -17.6605   27.1927 C   0  0  0  0  0  0  0  0  0  0  0  0
   10.1649  -16.7740   27.7873 C   0  0  2  0  0  0  0  0  0  0  0  0
    9.8155  -15.6862   26.8882 N   0  0  0  0  0  0  0  0  0  0  0  0
   10.4623  -16.3278   29.1494 C   0  0  0  0  0  0  0  0  0  0  0  0
   10.5068  -15.1161   29.4300 O   0  0  0  0  0  0  0  0  0  0  0  0
   10.6963  -17.2605   30.1359 O   0  0  0  0  0  0  0  0  0  0  0  0
  2  1  1  6
  2  6  1  0
  2  3  1  0
  3  4  1  0
  4  5  2  0
  4  8  1  0
  6  7  2  0
  6 13  1  0
 10  9  1  6
 10 12  1  0
 11 10  1  0
 12 14  1  0
 12 13  1  6
 14 15  2  0
 14 19  1  0
 16 17  1  0
 18 20  1  0
 18 17  1  6
 19 18  1  0
 20 22  1  0
 21 20  2  0
M  END
$$$$
