DVS.pdb
     RDKit          3D

 22 21  0  0  1  0  0  0  0  0999 V2000
    9.4342  -17.4607   16.5461 N   0  0  0  0  0  0  0  0  0  0  0  0
    8.4464  -17.3196   17.5815 C   0  0  1  0  0  0  0  0  0  0  0  0
    7.9472  -18.7049   17.9728 C   0  0  0  0  0  0  0  0  0  0  0  0
    7.1492  -19.3130   16.8785 C   0  0  0  0  0  0  0  0  0  0  0  0
    7.7058  -19.7768   15.8396 O   0  0  0  0  0  0  0  0  0  0  0  0
    9.0300  -16.6212   18.7594 C   0  0  0  0  0  0  0  0  0  0  0  0
   10.1882  -16.9046   19.1241 O   0  0  0  0  0  0  0  0  0  0  0  0
    5.7742  -19.3660   17.0128 O   0  0  0  0  0  0  0  0  0  0  0  0
    6.6133  -13.9119   21.4136 C   0  0  0  0  0  0  0  0  0  0  0  0
    8.0300  -13.6294   20.9213 C   0  0  2  0  0  0  0  0  0  0  0  0
    7.9283  -12.7079   19.7374 C   0  0  0  0  0  0  0  0  0  0  0  0
    8.7582  -14.9227   20.6346 C   0  0  2  0  0  0  0  0  0  0  0  0
    8.3052  -15.6371   19.4857 N   0  0  0  0  0  0  0  0  0  0  0  0
    8.9756  -15.7443   21.8503 C   0  0  0  0  0  0  0  0  0  0  0  0
    8.1629  -16.6934   22.1173 O   0  0  0  0  0  0  0  0  0  0  0  0
   11.8052  -18.0133   22.2346 O   0  0  0  0  0  0  0  0  0  0  0  0
   10.6512  -17.9466   22.9761 C   0  0  0  0  0  0  0  0  0  0  0  0
   10.4554  -16.6284   23.6969 C   0  0  2  0  0  0  0  0  0  0  0  0
   10.0247  -15.5822   22.7838 N   0  0  0  0  0  0  0  0  0  0  0  0
   11.5975  -16.2403   24.5262 C   0  0  0  0  0  0  0  0  0  0  0  0
   12.0231  -16.9932   25.4212 O   0  0  0  0  0  0  0  0  0  0  0  0
   12.2114  -15.0253   24.3148 O   0  0  0  0  0  0  0  0  0  0  0  0
  2  1  1  6
  2  6  1  0
  2  3  1  0
  3  4  1  0
  4  5  2  0
  4  8  1  0
  6  7  2  0
  6 13  1  0
 10  9  1  6
 10 12  1  0
 11 10  1  0
 12 14  1  0
 12 13  1  6
 14 15  2  0
 14 19  1  0
 16 17  1  0
 18 20  1  0
 18 17  1  6
 19 18  1  0
 20 22  1  0
 21 20  2  0
M  END
$$$$
