DVS.pdb
     RDKit          3D

 22 21  0  0  1  0  0  0  0  0999 V2000
    9.3865  -17.5782   16.2803 N   0  0  0  0  0  0  0  0  0  0  0  0
    8.4892  -17.5626   17.4038 C   0  0  1  0  0  0  0  0  0  0  0  0
    8.3405  -18.9845   17.9303 C   0  0  0  0  0  0  0  0  0  0  0  0
    7.6946  -19.8619   16.9219 C   0  0  0  0  0  0  0  0  0  0  0  0
    7.3079  -19.4051   15.8055 O   0  0  0  0  0  0  0  0  0  0  0  0
    9.0108  -16.6620   18.4680 C   0  0  0  0  0  0  0  0  0  0  0  0
   10.2422  -16.5036   18.5834 O   0  0  0  0  0  0  0  0  0  0  0  0
    7.5201  -21.1999   17.2234 O   0  0  0  0  0  0  0  0  0  0  0  0
    7.2159  -13.1940   19.6012 C   0  0  0  0  0  0  0  0  0  0  0  0
    7.5490  -14.0526   20.8182 C   0  0  2  0  0  0  0  0  0  0  0  0
    8.0263  -13.1347   21.9095 C   0  0  0  0  0  0  0  0  0  0  0  0
    8.5369  -15.1350   20.4477 C   0  0  2  0  0  0  0  0  0  0  0  0
    8.1456  -15.9736   19.3618 N   0  0  0  0  0  0  0  0  0  0  0  0
    9.0903  -15.8403   21.6294 C   0  0  0  0  0  0  0  0  0  0  0  0
    8.3910  -16.7425   22.2034 O   0  0  0  0  0  0  0  0  0  0  0  0
   13.1014  -16.2444   22.2487 O   0  0  0  0  0  0  0  0  0  0  0  0
   12.4025  -16.2074   23.4302 C   0  0  0  0  0  0  0  0  0  0  0  0
   10.9128  -16.4358   23.2741 C   0  0  2  0  0  0  0  0  0  0  0  0
   10.3568  -15.6109   22.2139 N   0  0  0  0  0  0  0  0  0  0  0  0
   10.1717  -16.3398   24.5329 C   0  0  0  0  0  0  0  0  0  0  0  0
    9.2619  -15.5029   24.6770 O   0  0  0  0  0  0  0  0  0  0  0  0
   10.4839  -17.1867   25.5735 O   0  0  0  0  0  0  0  0  0  0  0  0
  2  1  1  6
  2  6  1  0
  2  3  1  0
  3  4  1  0
  4  5  2  0
  4  8  1  0
  6  7  2  0
  6 13  1  0
 10  9  1  6
 10 12  1  0
 11 10  1  0
 12 14  1  0
 12 13  1  6
 14 15  2  0
 14 19  1  0
 16 17  1  0
 18 20  1  0
 18 17  1  1
 19 18  1  0
 20 22  1  0
 21 20  2  0
M  END
$$$$
