DVS.pdb
     RDKit          3D

 22 21  0  0  1  0  0  0  0  0999 V2000
    8.8082  -15.5558   20.8015 N   0  0  0  0  0  0  0  0  0  0  0  0
    7.8539  -15.6027   21.8760 C   0  0  1  0  0  0  0  0  0  0  0  0
    7.4094  -17.0468   22.0722 C   0  0  0  0  0  0  0  0  0  0  0  0
    6.9100  -17.6286   20.8009 C   0  0  0  0  0  0  0  0  0  0  0  0
    6.1184  -16.9847   20.0505 O   0  0  0  0  0  0  0  0  0  0  0  0
    8.4580  -15.0663   23.1262 C   0  0  0  0  0  0  0  0  0  0  0  0
    9.6162  -15.4067   23.4386 O   0  0  0  0  0  0  0  0  0  0  0  0
    7.3272  -18.8977   20.4450 O   0  0  0  0  0  0  0  0  0  0  0  0
    8.0002  -12.0713   27.1233 C   0  0  0  0  0  0  0  0  0  0  0  0
    7.3123  -12.6492   25.8896 C   0  0  2  0  0  0  0  0  0  0  0  0
    5.9325  -13.0864   26.2973 C   0  0  0  0  0  0  0  0  0  0  0  0
    8.1526  -13.7490   25.2818 C   0  0  2  0  0  0  0  0  0  0  0  0
    7.7530  -14.1744   23.9800 N   0  0  0  0  0  0  0  0  0  0  0  0
    8.4595  -14.8378   26.2411 C   0  0  0  0  0  0  0  0  0  0  0  0
    7.5441  -15.6726   26.5534 O   0  0  0  0  0  0  0  0  0  0  0  0
   12.0969  -16.8528   26.9500 O   0  0  0  0  0  0  0  0  0  0  0  0
   10.7995  -17.2304   27.1952 C   0  0  0  0  0  0  0  0  0  0  0  0
    9.9457  -16.1419   27.8134 C   0  0  2  0  0  0  0  0  0  0  0  0
    9.7039  -15.0585   26.8745 N   0  0  0  0  0  0  0  0  0  0  0  0
   10.4351  -15.6833   29.1146 C   0  0  0  0  0  0  0  0  0  0  0  0
   10.6502  -16.4902   30.0374 O   0  0  0  0  0  0  0  0  0  0  0  0
   10.6614  -14.3405   29.3226 O   0  0  0  0  0  0  0  0  0  0  0  0
  2  1  1  6
  2  6  1  0
  2  3  1  0
  3  4  1  0
  4  5  2  0
  4  8  1  0
  6  7  2  0
  6 13  1  0
 10  9  1  1
 10 12  1  0
 11 10  1  0
 12 14  1  0
 12 13  1  6
 14 15  2  0
 14 19  1  0
 16 17  1  0
 18 20  1  0
 18 17  1  6
 19 18  1  0
 20 22  1  0
 21 20  2  0
M  END
$$$$
