DVS.pdb
     RDKit          3D

 22 21  0  0  1  0  0  0  0  0999 V2000
    8.7411  -15.0148   20.8311 N   0  0  0  0  0  0  0  0  0  0  0  0
    7.8475  -15.3508   21.9063 C   0  0  1  0  0  0  0  0  0  0  0  0
    7.6955  -16.8658   21.9602 C   0  0  0  0  0  0  0  0  0  0  0  0
    7.0935  -17.3863   20.7069 C   0  0  0  0  0  0  0  0  0  0  0  0
    7.7625  -17.4473   19.6331 O   0  0  0  0  0  0  0  0  0  0  0  0
    8.3756  -14.8312   23.1974 C   0  0  0  0  0  0  0  0  0  0  0  0
    9.5988  -14.9023   23.4287 O   0  0  0  0  0  0  0  0  0  0  0  0
    5.7772  -17.8084   20.7305 O   0  0  0  0  0  0  0  0  0  0  0  0
    6.6578  -11.7280   25.3600 C   0  0  0  0  0  0  0  0  0  0  0  0
    6.9268  -12.9630   26.2153 C   0  0  2  0  0  0  0  0  0  0  0  0
    7.4032  -12.4927   27.5618 C   0  0  0  0  0  0  0  0  0  0  0  0
    7.8879  -13.8942   25.5124 C   0  0  2  0  0  0  0  0  0  0  0  0
    7.5257  -14.2542   24.1803 N   0  0  0  0  0  0  0  0  0  0  0  0
    8.3405  -15.0138   26.3737 C   0  0  0  0  0  0  0  0  0  0  0  0
    7.5015  -15.9107   26.7258 O   0  0  0  0  0  0  0  0  0  0  0  0
   12.1662  -16.6804   26.6716 O   0  0  0  0  0  0  0  0  0  0  0  0
   10.9813  -17.2540   27.0627 C   0  0  0  0  0  0  0  0  0  0  0  0
   10.0280  -16.2963   27.7481 C   0  0  2  0  0  0  0  0  0  0  0  0
    9.6512  -15.2013   26.8691 N   0  0  0  0  0  0  0  0  0  0  0  0
   10.4920  -15.8509   29.0631 C   0  0  0  0  0  0  0  0  0  0  0  0
   10.5972  -14.6393   29.3275 O   0  0  0  0  0  0  0  0  0  0  0  0
   10.8171  -16.7842   30.0228 O   0  0  0  0  0  0  0  0  0  0  0  0
  2  1  1  6
  2  6  1  0
  2  3  1  0
  3  4  1  0
  4  5  2  0
  4  8  1  0
  6  7  2  0
  6 13  1  0
 10  9  1  6
 10 12  1  0
 11 10  1  0
 12 14  1  0
 12 13  1  6
 14 15  2  0
 14 19  1  0
 16 17  1  0
 18 20  1  0
 18 17  1  6
 19 18  1  0
 20 22  1  0
 21 20  2  0
M  END
$$$$
