DVS.pdb
     RDKit          3D

 22 21  0  0  1  0  0  0  0  0999 V2000
    8.9925  -17.4851   16.0575 N   0  0  0  0  0  0  0  0  0  0  0  0
    8.0107  -17.2371   17.0784 C   0  0  1  0  0  0  0  0  0  0  0  0
    7.4400  -18.5716   17.5421 C   0  0  0  0  0  0  0  0  0  0  0  0
    6.6470  -19.2156   16.4649 C   0  0  0  0  0  0  0  0  0  0  0  0
    6.6745  -18.7765   15.2772 O   0  0  0  0  0  0  0  0  0  0  0  0
    8.6265  -16.5061   18.2195 C   0  0  0  0  0  0  0  0  0  0  0  0
    9.8558  -16.5948   18.4084 O   0  0  0  0  0  0  0  0  0  0  0  0
    5.8698  -20.3143   16.7819 O   0  0  0  0  0  0  0  0  0  0  0  0
    7.2182  -12.8794   19.7038 C   0  0  0  0  0  0  0  0  0  0  0  0
    7.4350  -13.9299   20.7895 C   0  0  2  0  0  0  0  0  0  0  0  0
    7.9724  -13.2275   22.0056 C   0  0  0  0  0  0  0  0  0  0  0  0
    8.3211  -15.0431   20.2791 C   0  0  2  0  0  0  0  0  0  0  0  0
    7.8538  -15.7065   19.1057 N   0  0  0  0  0  0  0  0  0  0  0  0
    8.8114  -15.9321   21.3605 C   0  0  0  0  0  0  0  0  0  0  0  0
    7.9865  -16.7027   21.9589 O   0  0  0  0  0  0  0  0  0  0  0  0
   11.2718  -18.4605   21.0608 O   0  0  0  0  0  0  0  0  0  0  0  0
   11.6024  -17.9382   22.2871 C   0  0  0  0  0  0  0  0  0  0  0  0
   10.5828  -16.9620   22.8379 C   0  0  2  0  0  0  0  0  0  0  0  0
   10.1452  -16.0201   21.8206 N   0  0  0  0  0  0  0  0  0  0  0  0
   11.0041  -16.3171   24.0827 C   0  0  0  0  0  0  0  0  0  0  0  0
   11.2915  -16.9928   25.0875 O   0  0  0  0  0  0  0  0  0  0  0  0
   11.0843  -14.9433   24.1449 O   0  0  0  0  0  0  0  0  0  0  0  0
  2  1  1  6
  2  6  1  0
  2  3  1  0
  3  4  1  0
  4  5  2  0
  4  8  1  0
  6  7  2  0
  6 13  1  0
 10  9  1  6
 10 12  1  0
 11 10  1  0
 12 14  1  0
 12 13  1  6
 14 15  2  0
 14 19  1  0
 16 17  1  0
 18 20  1  0
 18 17  1  6
 19 18  1  0
 20 22  1  0
 21 20  2  0
M  END
$$$$
