DVS.pdb
     RDKit          3D

 22 21  0  0  1  0  0  0  0  0999 V2000
    8.8844  -16.8667   16.4896 N   0  0  0  0  0  0  0  0  0  0  0  0
    8.9364  -17.5195   17.7697 C   0  0  1  0  0  0  0  0  0  0  0  0
    9.8532  -18.7318   17.6632 C   0  0  0  0  0  0  0  0  0  0  0  0
    9.4521  -19.6061   16.5325 C   0  0  0  0  0  0  0  0  0  0  0  0
    8.2319  -19.8035   16.2559 O   0  0  0  0  0  0  0  0  0  0  0  0
    9.4329  -16.5772   18.8095 C   0  0  0  0  0  0  0  0  0  0  0  0
   10.6067  -16.6822   19.2171 O   0  0  0  0  0  0  0  0  0  0  0  0
   10.4420  -20.2078   15.7777 O   0  0  0  0  0  0  0  0  0  0  0  0
    6.6222  -14.0267   21.1372 C   0  0  0  0  0  0  0  0  0  0  0  0
    7.9857  -13.5359   20.6586 C   0  0  2  0  0  0  0  0  0  0  0  0
    7.7658  -12.7015   19.4272 C   0  0  0  0  0  0  0  0  0  0  0  0
    8.9254  -14.7020   20.4530 C   0  0  2  0  0  0  0  0  0  0  0  0
    8.6074  -15.5567   19.3559 N   0  0  0  0  0  0  0  0  0  0  0  0
    9.2729  -15.3931   21.7186 C   0  0  0  0  0  0  0  0  0  0  0  0
    8.3555  -15.9910   22.3770 O   0  0  0  0  0  0  0  0  0  0  0  0
   10.9196  -18.8127   23.7916 O   0  0  0  0  0  0  0  0  0  0  0  0
   10.5220  -17.8380   22.9097 C   0  0  0  0  0  0  0  0  0  0  0  0
   10.9324  -16.4362   23.3122 C   0  0  2  0  0  0  0  0  0  0  0  0
   10.5599  -15.4619   22.2995 N   0  0  0  0  0  0  0  0  0  0  0  0
   12.3321  -16.3337   23.7284 C   0  0  0  0  0  0  0  0  0  0  0  0
   12.7744  -17.0290   24.6611 O   0  0  0  0  0  0  0  0  0  0  0  0
   13.1732  -15.4562   23.0801 O   0  0  0  0  0  0  0  0  0  0  0  0
  2  1  1  6
  2  6  1  0
  2  3  1  0
  3  4  1  0
  4  5  2  0
  4  8  1  0
  6  7  2  0
  6 13  1  0
 10  9  1  6
 10 12  1  0
 11 10  1  0
 12 14  1  0
 12 13  1  6
 14 15  2  0
 14 19  1  0
 16 17  1  0
 18 20  1  0
 18 17  1  6
 19 18  1  0
 20 22  1  0
 21 20  2  0
M  END
$$$$
