DVS.pdb
     RDKit          3D

 22 21  0  0  1  0  0  0  0  0999 V2000
    9.5569  -17.2887   16.0306 N   0  0  0  0  0  0  0  0  0  0  0  0
    8.4651  -17.0430   16.9335 C   0  0  1  0  0  0  0  0  0  0  0  0
    7.8037  -18.3727   17.2740 C   0  0  0  0  0  0  0  0  0  0  0  0
    6.9199  -18.8268   16.1710 C   0  0  0  0  0  0  0  0  0  0  0  0
    6.0978  -19.7759   16.3367 O   0  0  0  0  0  0  0  0  0  0  0  0
    8.9573  -16.3718   18.1675 C   0  0  0  0  0  0  0  0  0  0  0  0
   10.1164  -16.6016   18.5657 O   0  0  0  0  0  0  0  0  0  0  0  0
    7.0091  -18.1903   14.9468 O   0  0  0  0  0  0  0  0  0  0  0  0
    7.4989  -12.6682   19.5090 C   0  0  0  0  0  0  0  0  0  0  0  0
    7.5595  -13.7416   20.5922 C   0  0  2  0  0  0  0  0  0  0  0  0
    7.9748  -13.0752   21.8746 C   0  0  0  0  0  0  0  0  0  0  0  0
    8.4653  -14.8739   20.1648 C   0  0  2  0  0  0  0  0  0  0  0  0
    8.1439  -15.4731   18.9107 N   0  0  0  0  0  0  0  0  0  0  0  0
    8.7624  -15.8221   21.2661 C   0  0  0  0  0  0  0  0  0  0  0  0
    7.8100  -16.5006   21.7811 O   0  0  0  0  0  0  0  0  0  0  0  0
   12.0909  -18.1562   21.7619 O   0  0  0  0  0  0  0  0  0  0  0  0
   10.8644  -18.3116   22.3596 C   0  0  0  0  0  0  0  0  0  0  0  0
   10.2712  -17.0249   22.8964 C   0  0  2  0  0  0  0  0  0  0  0  0
   10.0352  -16.0636   21.8316 N   0  0  0  0  0  0  0  0  0  0  0  0
   11.0135  -16.4665   24.0278 C   0  0  0  0  0  0  0  0  0  0  0  0
   11.2347  -17.1471   25.0460 O   0  0  0  0  0  0  0  0  0  0  0  0
   11.4746  -15.1698   23.9668 O   0  0  0  0  0  0  0  0  0  0  0  0
  2  1  1  6
  2  6  1  0
  2  3  1  0
  3  4  1  0
  4  5  2  0
  4  8  1  0
  6  7  2  0
  6 13  1  0
 10  9  1  6
 10 12  1  0
 11 10  1  0
 12 14  1  0
 12 13  1  6
 14 15  2  0
 14 19  1  0
 16 17  1  0
 18 20  1  0
 18 17  1  6
 19 18  1  0
 20 22  1  0
 21 20  2  0
M  END
$$$$
