DVS.pdb
     RDKit          3D

 22 21  0  0  1  0  0  0  0  0999 V2000
    8.8198  -17.7993   16.5054 N   0  0  0  0  0  0  0  0  0  0  0  0
    7.8755  -17.4877   17.5440 C   0  0  1  0  0  0  0  0  0  0  0  0
    7.3282  -18.7904   18.1139 C   0  0  0  0  0  0  0  0  0  0  0  0
    6.6292  -19.5783   17.0676 C   0  0  0  0  0  0  0  0  0  0  0  0
    5.7889  -19.0369   16.2897 O   0  0  0  0  0  0  0  0  0  0  0  0
    8.5298  -16.6830   18.6117 C   0  0  0  0  0  0  0  0  0  0  0  0
    9.7369  -16.8695   18.8626 O   0  0  0  0  0  0  0  0  0  0  0  0
    6.9130  -20.9266   16.9543 O   0  0  0  0  0  0  0  0  0  0  0  0
    7.4569  -12.7668   19.5634 C   0  0  0  0  0  0  0  0  0  0  0  0
    7.5356  -13.6866   20.7786 C   0  0  2  0  0  0  0  0  0  0  0  0
    8.1014  -12.8890   21.9209 C   0  0  0  0  0  0  0  0  0  0  0  0
    8.3234  -14.9337   20.4481 C   0  0  2  0  0  0  0  0  0  0  0  0
    7.8188  -15.7042   19.3586 N   0  0  0  0  0  0  0  0  0  0  0  0
    8.7079  -15.7095   21.6525 C   0  0  0  0  0  0  0  0  0  0  0  0
    7.7954  -16.1416   22.4355 O   0  0  0  0  0  0  0  0  0  0  0  0
   11.7292  -18.4049   22.1553 O   0  0  0  0  0  0  0  0  0  0  0  0
   10.6553  -18.2085   22.9883 C   0  0  0  0  0  0  0  0  0  0  0  0
   10.3480  -16.7512   23.2669 C   0  0  2  0  0  0  0  0  0  0  0  0
   10.0270  -16.0326   22.0444 N   0  0  0  0  0  0  0  0  0  0  0  0
   11.3653  -16.0846   24.0814 C   0  0  0  0  0  0  0  0  0  0  0  0
   11.6476  -16.5018   25.2195 O   0  0  0  0  0  0  0  0  0  0  0  0
   12.0207  -14.9801   23.5832 O   0  0  0  0  0  0  0  0  0  0  0  0
  2  1  1  6
  2  6  1  0
  2  3  1  0
  3  4  1  0
  4  5  2  0
  4  8  1  0
  6  7  2  0
  6 13  1  0
 10  9  1  6
 10 12  1  0
 11 10  1  0
 12 14  1  0
 12 13  1  6
 14 15  2  0
 14 19  1  0
 16 17  1  0
 18 20  1  0
 18 17  1  6
 19 18  1  0
 20 22  1  0
 21 20  2  0
M  END
$$$$
