DVS.pdb
     RDKit          3D

 22 21  0  0  1  0  0  0  0  0999 V2000
    8.6512  -17.4970   16.0744 N   0  0  0  0  0  0  0  0  0  0  0  0
    7.8703  -17.4634   17.2813 C   0  0  1  0  0  0  0  0  0  0  0  0
    7.6665  -18.8916   17.7714 C   0  0  0  0  0  0  0  0  0  0  0  0
    6.8029  -19.6577   16.8379 C   0  0  0  0  0  0  0  0  0  0  0  0
    5.5952  -19.3300   16.6421 O   0  0  0  0  0  0  0  0  0  0  0  0
    8.5584  -16.6471   18.3184 C   0  0  0  0  0  0  0  0  0  0  0  0
    9.7706  -16.8382   18.5397 O   0  0  0  0  0  0  0  0  0  0  0  0
    7.3435  -20.7460   16.1784 O   0  0  0  0  0  0  0  0  0  0  0  0
    7.4218  -12.7490   19.4118 C   0  0  0  0  0  0  0  0  0  0  0  0
    7.5811  -13.7090   20.5875 C   0  0  2  0  0  0  0  0  0  0  0  0
    8.1718  -12.9354   21.7336 C   0  0  0  0  0  0  0  0  0  0  0  0
    8.3911  -14.9177   20.1775 C   0  0  2  0  0  0  0  0  0  0  0  0
    7.8743  -15.6519   19.0688 N   0  0  0  0  0  0  0  0  0  0  0  0
    8.8317  -15.7361   21.3335 C   0  0  0  0  0  0  0  0  0  0  0  0
    7.9646  -16.4012   21.9955 O   0  0  0  0  0  0  0  0  0  0  0  0
   12.9254  -16.6550   22.4198 O   0  0  0  0  0  0  0  0  0  0  0  0
   11.8379  -17.4809   22.5656 C   0  0  0  0  0  0  0  0  0  0  0  0
   10.5477  -16.7529   22.8836 C   0  0  2  0  0  0  0  0  0  0  0  0
   10.1594  -15.8623   21.8020 N   0  0  0  0  0  0  0  0  0  0  0  0
   10.5505  -16.1045   24.1960 C   0  0  0  0  0  0  0  0  0  0  0  0
   10.3906  -14.8748   24.3022 O   0  0  0  0  0  0  0  0  0  0  0  0
   10.7325  -16.8642   25.3307 O   0  0  0  0  0  0  0  0  0  0  0  0
  2  1  1  6
  2  6  1  0
  2  3  1  0
  3  4  1  0
  4  5  2  0
  4  8  1  0
  6  7  2  0
  6 13  1  0
 10  9  1  6
 10 12  1  0
 11 10  1  0
 12 14  1  0
 12 13  1  6
 14 15  2  0
 14 19  1  0
 16 17  1  0
 18 20  1  0
 18 17  1  6
 19 18  1  0
 20 22  1  0
 21 20  2  0
M  END
$$$$
