DVS.pdb
     RDKit          3D

 22 21  0  0  1  0  0  0  0  0999 V2000
    8.3367  -14.7139   20.4776 N   0  0  0  0  0  0  0  0  0  0  0  0
    7.5769  -15.2353   21.5813 C   0  0  1  0  0  0  0  0  0  0  0  0
    7.5839  -16.7570   21.5039 C   0  0  0  0  0  0  0  0  0  0  0  0
    6.8999  -17.2316   20.2747 C   0  0  0  0  0  0  0  0  0  0  0  0
    7.5572  -17.6796   19.2889 O   0  0  0  0  0  0  0  0  0  0  0  0
    8.1584  -14.7740   22.8716 C   0  0  0  0  0  0  0  0  0  0  0  0
    9.3927  -14.8319   23.0395 O   0  0  0  0  0  0  0  0  0  0  0  0
    5.5194  -17.1766   20.2223 O   0  0  0  0  0  0  0  0  0  0  0  0
    6.6104  -11.7833   25.2162 C   0  0  0  0  0  0  0  0  0  0  0  0
    6.8775  -13.0443   26.0334 C   0  0  2  0  0  0  0  0  0  0  0  0
    7.4448  -12.6190   27.3594 C   0  0  0  0  0  0  0  0  0  0  0  0
    7.7619  -13.9971   25.2620 C   0  0  2  0  0  0  0  0  0  0  0  0
    7.3476  -14.2676   23.9239 N   0  0  0  0  0  0  0  0  0  0  0  0
    8.1626  -15.1838   26.0566 C   0  0  0  0  0  0  0  0  0  0  0  0
    7.2660  -16.0046   26.4503 O   0  0  0  0  0  0  0  0  0  0  0  0
   11.9770  -16.9571   26.0928 O   0  0  0  0  0  0  0  0  0  0  0  0
   10.7970  -17.5867   26.4042 C   0  0  0  0  0  0  0  0  0  0  0  0
    9.8218  -16.7233   27.1783 C   0  0  2  0  0  0  0  0  0  0  0  0
    9.4810  -15.5162   26.4431 N   0  0  0  0  0  0  0  0  0  0  0  0
   10.2379  -16.4642   28.5577 C   0  0  0  0  0  0  0  0  0  0  0  0
   10.3627  -15.3002   28.9800 O   0  0  0  0  0  0  0  0  0  0  0  0
   10.4953  -17.5221   29.4017 O   0  0  0  0  0  0  0  0  0  0  0  0
  2  1  1  6
  2  6  1  0
  2  3  1  0
  3  4  1  0
  4  5  2  0
  4  8  1  0
  6  7  2  0
  6 13  1  0
 10  9  1  6
 10 12  1  0
 11 10  1  0
 12 14  1  0
 12 13  1  6
 14 15  2  0
 14 19  1  0
 16 17  1  0
 18 20  1  0
 18 17  1  6
 19 18  1  0
 20 22  1  0
 21 20  2  0
M  END
$$$$
