ESK.pdb
     RDKit          3D

 25 24  0  0  1  0  0  0  0  0999 V2000
   16.5909  -11.3740  -18.2121 N   0  0  0  0  0  0  0  0  0  0  0  0
   16.8371  -11.1234  -16.7789 C   0  0  1  0  0  0  0  0  0  0  0  0
   17.5641  -12.3203  -16.2764 C   0  0  0  0  0  0  0  0  0  0  0  0
   16.7623  -13.5473  -16.0508 C   0  0  0  0  0  0  0  0  0  0  0  0
   15.8709  -13.4125  -14.8996 C   0  0  0  0  0  0  0  0  0  0  0  0
   16.3621  -13.2958  -13.7494 O   0  0  0  0  0  0  0  0  0  0  0  0
   17.6849   -9.9060  -16.7023 C   0  0  0  0  0  0  0  0  0  0  0  0
   18.6817   -9.8448  -17.4513 O   0  0  0  0  0  0  0  0  0  0  0  0
   14.4806  -13.4055  -15.0036 O   0  0  0  0  0  0  0  0  0  0  0  0
   16.9877   -6.8723  -13.9430 O   0  0  0  0  0  0  0  0  0  0  0  0
   17.4048   -6.4723  -15.1925 C   0  0  0  0  0  0  0  0  0  0  0  0
   18.1775   -7.6116  -15.8201 C   0  0  2  0  0  0  0  0  0  0  0  0
   17.4102   -8.8422  -15.8342 N   0  0  0  0  0  0  0  0  0  0  0  0
   19.4331   -7.7871  -15.0472 C   0  0  0  0  0  0  0  0  0  0  0  0
   19.6615   -8.9153  -14.5199 O   0  0  0  0  0  0  0  0  0  0  0  0
   20.3552   -6.7210  -14.9010 N   0  0  0  0  0  0  0  0  0  0  0  0
   21.6632   -7.0015  -14.3581 C   0  0  1  0  0  0  0  0  0  0  0  0
   22.3781   -7.9227  -15.3217 C   0  0  0  0  0  0  0  0  0  0  0  0
   23.7921   -8.1842  -14.9328 C   0  0  0  0  0  0  0  0  0  0  0  0
   24.5112   -8.9887  -15.9836 C   0  0  0  0  0  0  0  0  0  0  0  0
   25.9283   -9.2582  -15.5424 C   0  0  0  0  0  0  0  0  0  0  0  0
   26.6316  -10.0923  -16.5155 N   0  0  0  0  0  0  0  0  0  0  0  0
   22.4058   -5.7552  -14.1105 C   0  0  0  0  0  0  0  0  0  0  0  0
   22.3106   -4.7098  -14.7993 O   0  0  0  0  0  0  0  0  0  0  0  0
   23.2819   -5.7244  -13.0337 O   0  0  0  0  0  0  0  0  0  0  0  0
  2  1  1  6
  2  7  1  0
  3  2  1  0
  4  3  1  0
  5  6  2  0
  5  4  1  0
  7  8  2  0
  9  5  1  0
 10 11  1  0
 12 11  1  1
 12 14  1  0
 13 12  1  0
 13  7  1  0
 14 15  2  0
 14 16  1  0
 16 17  1  0
 17 23  1  0
 18 19  1  0
 17 18  1  6
 20 21  1  0
 20 19  1  0
 21 22  1  0
 23 24  2  0
 23 25  1  0
M  END
$$$$
