ESK.pdb
     RDKit          3D

 25 24  0  0  1  0  0  0  0  0999 V2000
   13.9549   -9.2394  -16.2707 N   0  0  0  0  0  0  0  0  0  0  0  0
   15.0284   -9.2595  -15.2585 C   0  0  1  0  0  0  0  0  0  0  0  0
   15.5683  -10.6460  -15.2668 C   0  0  0  0  0  0  0  0  0  0  0  0
   14.6407  -11.7301  -14.8624 C   0  0  0  0  0  0  0  0  0  0  0  0
   15.2900  -13.0400  -14.8837 C   0  0  0  0  0  0  0  0  0  0  0  0
   14.7652  -13.9782  -15.5336 O   0  0  0  0  0  0  0  0  0  0  0  0
   16.0510   -8.2801  -15.7074 C   0  0  0  0  0  0  0  0  0  0  0  0
   16.2566   -8.1768  -16.9344 O   0  0  0  0  0  0  0  0  0  0  0  0
   16.4806  -13.3162  -14.2129 O   0  0  0  0  0  0  0  0  0  0  0  0
   16.9544   -5.0683  -13.6184 O   0  0  0  0  0  0  0  0  0  0  0  0
   17.3917   -5.1061  -14.9233 C   0  0  0  0  0  0  0  0  0  0  0  0
   17.7864   -6.5299  -15.2486 C   0  0  2  0  0  0  0  0  0  0  0  0
   16.7804   -7.4816  -14.8179 N   0  0  0  0  0  0  0  0  0  0  0  0
   19.0847   -6.8034  -14.5820 C   0  0  0  0  0  0  0  0  0  0  0  0
   19.0695   -7.2488  -13.3969 O   0  0  0  0  0  0  0  0  0  0  0  0
   20.3119   -6.5730  -15.2520 N   0  0  0  0  0  0  0  0  0  0  0  0
   21.5422   -6.9615  -14.6041 C   0  0  1  0  0  0  0  0  0  0  0  0
   22.3764   -7.7231  -15.6102 C   0  0  0  0  0  0  0  0  0  0  0  0
   23.6863   -8.1688  -15.0584 C   0  0  0  0  0  0  0  0  0  0  0  0
   24.5361   -8.8198  -16.1180 C   0  0  0  0  0  0  0  0  0  0  0  0
   25.8412   -9.2798  -15.5177 C   0  0  0  0  0  0  0  0  0  0  0  0
   26.7420   -9.7921  -16.5488 N   0  0  0  0  0  0  0  0  0  0  0  0
   22.2428   -5.7860  -14.0625 C   0  0  0  0  0  0  0  0  0  0  0  0
   22.2312   -4.6399  -14.5750 O   0  0  0  0  0  0  0  0  0  0  0  0
   22.9759   -5.9482  -12.8945 O   0  0  0  0  0  0  0  0  0  0  0  0
  2  1  1  6
  2  7  1  0
  3  2  1  0
  4  3  1  0
  5  6  2  0
  5  4  1  0
  7  8  2  0
  9  5  1  0
 10 11  1  0
 12 11  1  1
 12 14  1  0
 13 12  1  0
 13  7  1  0
 14 15  2  0
 14 16  1  0
 16 17  1  0
 17 23  1  0
 18 19  1  0
 17 18  1  6
 20 21  1  0
 20 19  1  0
 21 22  1  0
 23 24  2  0
 23 25  1  0
M  END
$$$$
