ESK.pdb
     RDKit          3D

 25 24  0  0  1  0  0  0  0  0999 V2000
   21.6918  -13.4840  -16.8465 N   0  0  0  0  0  0  0  0  0  0  0  0
   22.0248  -12.6903  -15.6479 C   0  0  1  0  0  0  0  0  0  0  0  0
   23.5099  -12.6049  -15.6172 C   0  0  0  0  0  0  0  0  0  0  0  0
   24.2114  -12.6374  -16.9234 C   0  0  0  0  0  0  0  0  0  0  0  0
   25.6462  -12.3959  -16.7782 C   0  0  0  0  0  0  0  0  0  0  0  0
   26.1282  -12.2129  -15.6328 O   0  0  0  0  0  0  0  0  0  0  0  0
   21.4117  -11.3515  -15.8438 C   0  0  0  0  0  0  0  0  0  0  0  0
   21.4438  -10.8606  -16.9911 O   0  0  0  0  0  0  0  0  0  0  0  0
   26.5295  -12.3558  -17.8562 O   0  0  0  0  0  0  0  0  0  0  0  0
   18.0541  -10.2551  -14.2748 O   0  0  0  0  0  0  0  0  0  0  0  0
   18.9422   -9.2276  -14.0495 C   0  0  0  0  0  0  0  0  0  0  0  0
   20.1000   -9.3841  -15.0106 C   0  0  2  0  0  0  0  0  0  0  0  0
   20.8088  -10.6325  -14.8044 N   0  0  0  0  0  0  0  0  0  0  0  0
   21.0103   -8.2275  -14.8151 C   0  0  0  0  0  0  0  0  0  0  0  0
   22.0017   -8.3673  -14.0401 O   0  0  0  0  0  0  0  0  0  0  0  0
   20.7786   -6.9963  -15.4775 N   0  0  0  0  0  0  0  0  0  0  0  0
   21.7591   -5.9439  -15.3534 C   0  0  1  0  0  0  0  0  0  0  0  0
   21.4077   -4.8620  -16.3505 C   0  0  0  0  0  0  0  0  0  0  0  0
   22.3555   -3.7132  -16.3176 C   0  0  0  0  0  0  0  0  0  0  0  0
   21.9699   -2.6539  -17.3164 C   0  0  0  0  0  0  0  0  0  0  0  0
   22.9834   -1.5369  -17.2963 C   0  0  0  0  0  0  0  0  0  0  0  0
   22.6224   -0.4831  -18.2430 N   0  0  0  0  0  0  0  0  0  0  0  0
   21.8167   -5.4421  -13.9711 C   0  0  0  0  0  0  0  0  0  0  0  0
   22.8422   -4.9792  -13.4138 O   0  0  0  0  0  0  0  0  0  0  0  0
   20.6511   -5.4800  -13.2174 O   0  0  0  0  0  0  0  0  0  0  0  0
  2  1  1  6
  2  7  1  0
  3  2  1  0
  4  3  1  0
  5  6  2  0
  5  4  1  0
  7  8  2  0
  9  5  1  0
 10 11  1  0
 12 11  1  1
 12 14  1  0
 13 12  1  0
 13  7  1  0
 14 15  2  0
 14 16  1  0
 16 17  1  0
 17 23  1  0
 18 19  1  0
 17 18  1  6
 20 21  1  0
 20 19  1  0
 21 22  1  0
 23 24  2  0
 23 25  1  0
M  END
$$$$
