ESK.pdb
     RDKit          3D

 25 24  0  0  1  0  0  0  0  0999 V2000
   16.1230   -7.2163   -9.3500 N   0  0  0  0  0  0  0  0  0  0  0  0
   16.6921   -8.0639  -10.4156 C   0  0  1  0  0  0  0  0  0  0  0  0
   15.6265   -8.1904  -11.4462 C   0  0  0  0  0  0  0  0  0  0  0  0
   14.5076   -9.1160  -11.1451 C   0  0  0  0  0  0  0  0  0  0  0  0
   14.8184  -10.4916  -11.5311 C   0  0  0  0  0  0  0  0  0  0  0  0
   15.8372  -10.7212  -12.2291 O   0  0  0  0  0  0  0  0  0  0  0  0
   17.8734   -7.3374  -10.9478 C   0  0  0  0  0  0  0  0  0  0  0  0
   17.8966   -6.0957  -10.8216 O   0  0  0  0  0  0  0  0  0  0  0  0
   14.0365  -11.5859  -11.1639 O   0  0  0  0  0  0  0  0  0  0  0  0
   20.6950   -9.2973  -13.1426 O   0  0  0  0  0  0  0  0  0  0  0  0
   21.2222   -8.2243  -12.4600 C   0  0  0  0  0  0  0  0  0  0  0  0
   20.0908   -7.2806  -12.1162 C   0  0  2  0  0  0  0  0  0  0  0  0
   18.9444   -7.9854  -11.5756 N   0  0  0  0  0  0  0  0  0  0  0  0
   19.7193   -6.5492  -13.3537 C   0  0  0  0  0  0  0  0  0  0  0  0
   18.6803   -6.9143  -13.9785 O   0  0  0  0  0  0  0  0  0  0  0  0
   20.5052   -5.4692  -13.8270 N   0  0  0  0  0  0  0  0  0  0  0  0
   20.0843   -4.7721  -15.0192 C   0  0  1  0  0  0  0  0  0  0  0  0
   18.7069   -4.2022  -14.7620 C   0  0  0  0  0  0  0  0  0  0  0  0
   18.2209   -3.3367  -15.8727 C   0  0  0  0  0  0  0  0  0  0  0  0
   16.8854   -2.7216  -15.5461 C   0  0  0  0  0  0  0  0  0  0  0  0
   15.8467   -3.8041  -15.3896 C   0  0  0  0  0  0  0  0  0  0  0  0
   14.5290   -3.2323  -15.1178 N   0  0  0  0  0  0  0  0  0  0  0  0
   21.0629   -3.7389  -15.3948 C   0  0  0  0  0  0  0  0  0  0  0  0
   22.0322   -3.3719  -14.6862 O   0  0  0  0  0  0  0  0  0  0  0  0
   20.9097   -3.1167  -16.6266 O   0  0  0  0  0  0  0  0  0  0  0  0
  2  1  1  1
  2  7  1  0
  3  2  1  0
  4  3  1  0
  5  6  2  0
  5  4  1  0
  7  8  2  0
  9  5  1  0
 10 11  1  0
 12 11  1  6
 12 14  1  0
 13 12  1  0
 13  7  1  0
 14 15  2  0
 14 16  1  0
 16 17  1  0
 17 23  1  0
 18 19  1  0
 17 18  1  1
 20 21  1  0
 20 19  1  0
 21 22  1  0
 23 24  2  0
 23 25  1  0
M  END
$$$$
