ESK.pdb
     RDKit          3D

 25 24  0  0  1  0  0  0  0  0999 V2000
   13.9460   -8.6356  -13.8260 N   0  0  0  0  0  0  0  0  0  0  0  0
   15.2947   -9.0069  -13.3562 C   0  0  1  0  0  0  0  0  0  0  0  0
   15.9132   -9.7794  -14.4672 C   0  0  0  0  0  0  0  0  0  0  0  0
   15.5074  -11.1991  -14.6051 C   0  0  0  0  0  0  0  0  0  0  0  0
   15.9149  -11.9977  -13.4500 C   0  0  0  0  0  0  0  0  0  0  0  0
   17.0430  -11.8033  -12.9327 O   0  0  0  0  0  0  0  0  0  0  0  0
   16.0226   -7.7349  -13.1133 C   0  0  0  0  0  0  0  0  0  0  0  0
   16.2237   -6.9854  -14.0911 O   0  0  0  0  0  0  0  0  0  0  0  0
   15.1109  -12.9818  -12.8766 O   0  0  0  0  0  0  0  0  0  0  0  0
   17.8217   -6.8242   -9.4423 O   0  0  0  0  0  0  0  0  0  0  0  0
   17.2923   -5.7708  -10.1533 C   0  0  0  0  0  0  0  0  0  0  0  0
   17.2658   -6.1539  -11.6166 C   0  0  2  0  0  0  0  0  0  0  0  0
   16.4836   -7.3532  -11.8474 N   0  0  0  0  0  0  0  0  0  0  0  0
   18.6695   -6.3519  -12.0583 C   0  0  0  0  0  0  0  0  0  0  0  0
   19.1194   -7.5339  -12.1188 O   0  0  0  0  0  0  0  0  0  0  0  0
   19.4882   -5.2483  -12.4044 N   0  0  0  0  0  0  0  0  0  0  0  0
   20.8019   -5.4996  -12.9479 C   0  0  1  0  0  0  0  0  0  0  0  0
   20.6297   -6.2424  -14.2543 C   0  0  0  0  0  0  0  0  0  0  0  0
   21.9233   -6.5174  -14.9398 C   0  0  0  0  0  0  0  0  0  0  0  0
   21.7197   -7.3268  -16.1936 C   0  0  0  0  0  0  0  0  0  0  0  0
   23.0488   -7.5868  -16.8577 C   0  0  0  0  0  0  0  0  0  0  0  0
   22.8856   -8.4086  -18.0556 N   0  0  0  0  0  0  0  0  0  0  0  0
   21.5524   -4.2435  -13.1060 C   0  0  0  0  0  0  0  0  0  0  0  0
   21.0368   -3.1128  -13.2850 O   0  0  0  0  0  0  0  0  0  0  0  0
   22.9387   -4.3045  -13.0545 O   0  0  0  0  0  0  0  0  0  0  0  0
  2  1  1  6
  2  7  1  0
  3  2  1  0
  4  3  1  0
  5  6  2  0
  5  4  1  0
  7  8  2  0
  9  5  1  0
 10 11  1  0
 12 11  1  1
 12 14  1  0
 13 12  1  0
 13  7  1  0
 14 15  2  0
 14 16  1  0
 16 17  1  0
 17 23  1  0
 18 19  1  0
 17 18  1  6
 20 21  1  0
 20 19  1  0
 21 22  1  0
 23 24  2  0
 23 25  1  0
M  END
$$$$
