ESK.pdb
     RDKit          3D

 25 24  0  0  1  0  0  0  0  0999 V2000
   15.1507   -9.4291   -9.1937 N   0  0  0  0  0  0  0  0  0  0  0  0
   14.5698   -8.8092  -10.4002 C   0  0  1  0  0  0  0  0  0  0  0  0
   13.1762   -8.4375  -10.0349 C   0  0  0  0  0  0  0  0  0  0  0  0
   13.0018   -7.5822   -8.8360 C   0  0  0  0  0  0  0  0  0  0  0  0
   11.8538   -7.9980   -8.0315 C   0  0  0  0  0  0  0  0  0  0  0  0
   11.6957   -9.2153   -7.7649 O   0  0  0  0  0  0  0  0  0  0  0  0
   15.3896   -7.6056  -10.6934 C   0  0  0  0  0  0  0  0  0  0  0  0
   15.0886   -6.9289  -11.6983 O   0  0  0  0  0  0  0  0  0  0  0  0
   10.9048   -7.1069   -7.5324 O   0  0  0  0  0  0  0  0  0  0  0  0
   18.2488   -4.1055   -9.2559 O   0  0  0  0  0  0  0  0  0  0  0  0
   17.5238   -5.2234   -8.9096 C   0  0  0  0  0  0  0  0  0  0  0  0
   17.2633   -6.0258  -10.1654 C   0  0  2  0  0  0  0  0  0  0  0  0
   16.4703   -7.2097   -9.8957 N   0  0  0  0  0  0  0  0  0  0  0  0
   18.5783   -6.3981  -10.7459 C   0  0  0  0  0  0  0  0  0  0  0  0
   19.0758   -7.5204  -10.4360 O   0  0  0  0  0  0  0  0  0  0  0  0
   19.2624   -5.5221  -11.6249 N   0  0  0  0  0  0  0  0  0  0  0  0
   20.4516   -5.9951  -12.2929 C   0  0  1  0  0  0  0  0  0  0  0  0
   20.0398   -7.0854  -13.2574 C   0  0  0  0  0  0  0  0  0  0  0  0
   21.1874   -7.6432  -14.0261 C   0  0  0  0  0  0  0  0  0  0  0  0
   20.7519   -8.7739  -14.9206 C   0  0  0  0  0  0  0  0  0  0  0  0
   21.9598   -9.4354  -15.5360 C   0  0  0  0  0  0  0  0  0  0  0  0
   21.5751  -10.6116  -16.3143 N   0  0  0  0  0  0  0  0  0  0  0  0
   21.1544   -4.8866  -12.9587 C   0  0  0  0  0  0  0  0  0  0  0  0
   20.6082   -3.8414  -13.3894 O   0  0  0  0  0  0  0  0  0  0  0  0
   22.5281   -4.9971  -13.1279 O   0  0  0  0  0  0  0  0  0  0  0  0
  2  1  1  1
  2  7  1  0
  3  2  1  0
  4  3  1  0
  5  6  2  0
  5  4  1  0
  7  8  2  0
  9  5  1  0
 10 11  1  0
 12 11  1  1
 12 14  1  0
 13 12  1  0
 13  7  1  0
 14 15  2  0
 14 16  1  0
 16 17  1  0
 17 23  1  0
 18 19  1  0
 17 18  1  6
 20 21  1  0
 20 19  1  0
 21 22  1  0
 23 24  2  0
 23 25  1  0
M  END
$$$$
