ESK.pdb
     RDKit          3D

 25 24  0  0  1  0  0  0  0  0999 V2000
   19.0777  -11.9431  -17.5577 N   0  0  0  0  0  0  0  0  0  0  0  0
   20.1658  -11.5263  -16.6520 C   0  0  1  0  0  0  0  0  0  0  0  0
   21.4053  -11.5364  -17.4750 C   0  0  0  0  0  0  0  0  0  0  0  0
   21.3845  -10.7464  -18.7299 C   0  0  0  0  0  0  0  0  0  0  0  0
   22.6157  -10.9141  -19.5006 C   0  0  0  0  0  0  0  0  0  0  0  0
   23.2591   -9.8983  -19.8641 O   0  0  0  0  0  0  0  0  0  0  0  0
   19.8328  -10.1525  -16.1956 C   0  0  0  0  0  0  0  0  0  0  0  0
   19.3039   -9.3790  -17.0204 O   0  0  0  0  0  0  0  0  0  0  0  0
   23.1289  -12.1584  -19.8638 O   0  0  0  0  0  0  0  0  0  0  0  0
   18.6233   -8.9680  -12.4692 O   0  0  0  0  0  0  0  0  0  0  0  0
   19.7248   -8.2800  -12.9258 C   0  0  0  0  0  0  0  0  0  0  0  0
   19.7453   -8.3689  -14.4359 C   0  0  2  0  0  0  0  0  0  0  0  0
   20.0870   -9.7017  -14.8944 N   0  0  0  0  0  0  0  0  0  0  0  0
   20.7300   -7.3758  -14.9347 C   0  0  0  0  0  0  0  0  0  0  0  0
   21.9119   -7.7660  -15.1671 O   0  0  0  0  0  0  0  0  0  0  0  0
   20.3602   -6.0244  -15.1465 N   0  0  0  0  0  0  0  0  0  0  0  0
   21.3274   -5.1201  -15.7218 C   0  0  1  0  0  0  0  0  0  0  0  0
   20.6035   -4.2338  -16.7111 C   0  0  0  0  0  0  0  0  0  0  0  0
   21.4933   -3.2167  -17.3376 C   0  0  0  0  0  0  0  0  0  0  0  0
   20.7720   -2.4399  -18.4076 C   0  0  0  0  0  0  0  0  0  0  0  0
   21.7212   -1.4689  -19.0644 C   0  0  0  0  0  0  0  0  0  0  0  0
   21.0552   -0.7237  -20.1313 N   0  0  0  0  0  0  0  0  0  0  0  0
   22.0154   -4.3517  -14.6719 C   0  0  0  0  0  0  0  0  0  0  0  0
   21.5380   -4.0878  -13.5411 O   0  0  0  0  0  0  0  0  0  0  0  0
   23.2919   -3.8781  -14.9447 O   0  0  0  0  0  0  0  0  0  0  0  0
  2  1  1  6
  2  7  1  0
  3  2  1  0
  4  3  1  0
  5  6  2  0
  5  4  1  0
  7  8  2  0
  9  5  1  0
 10 11  1  0
 12 11  1  1
 12 14  1  0
 13 12  1  0
 13  7  1  0
 14 15  2  0
 14 16  1  0
 16 17  1  0
 17 23  1  0
 18 19  1  0
 17 18  1  6
 20 21  1  0
 20 19  1  0
 21 22  1  0
 23 24  2  0
 23 25  1  0
M  END
$$$$
