ESK.pdb
     RDKit          3D

 25 24  0  0  1  0  0  0  0  0999 V2000
   16.5468  -11.1289  -15.1247 N   0  0  0  0  0  0  0  0  0  0  0  0
   17.6352  -10.5275  -15.9192 C   0  0  1  0  0  0  0  0  0  0  0  0
   16.9721   -9.8309  -17.0544 C   0  0  0  0  0  0  0  0  0  0  0  0
   16.3121  -10.6839  -18.0723 C   0  0  0  0  0  0  0  0  0  0  0  0
   16.4142  -10.1109  -19.4137 C   0  0  0  0  0  0  0  0  0  0  0  0
   17.0219   -9.0235  -19.5753 O   0  0  0  0  0  0  0  0  0  0  0  0
   18.3278   -9.5638  -15.0258 C   0  0  0  0  0  0  0  0  0  0  0  0
   17.6485   -8.9976  -14.1447 O   0  0  0  0  0  0  0  0  0  0  0  0
   15.8668  -10.7107  -20.5469 O   0  0  0  0  0  0  0  0  0  0  0  0
   22.3844   -9.1234  -15.1765 O   0  0  0  0  0  0  0  0  0  0  0  0
   21.8004   -8.7604  -13.9838 C   0  0  0  0  0  0  0  0  0  0  0  0
   20.3762   -8.3346  -14.2650 C   0  0  2  0  0  0  0  0  0  0  0  0
   19.6932   -9.2727  -15.1350 N   0  0  0  0  0  0  0  0  0  0  0  0
   20.4206   -6.9853  -14.8831 C   0  0  0  0  0  0  0  0  0  0  0  0
   20.5252   -6.9043  -16.1423 O   0  0  0  0  0  0  0  0  0  0  0  0
   20.3482   -5.8152  -14.0870 N   0  0  0  0  0  0  0  0  0  0  0  0
   20.3345   -4.5281  -14.7410 C   0  0  1  0  0  0  0  0  0  0  0  0
   19.1831   -3.7297  -14.1708 C   0  0  0  0  0  0  0  0  0  0  0  0
   19.1795   -2.3114  -14.6260 C   0  0  0  0  0  0  0  0  0  0  0  0
   18.1030   -1.5155  -13.9360 C   0  0  0  0  0  0  0  0  0  0  0  0
   18.0996   -0.0994  -14.4553 C   0  0  0  0  0  0  0  0  0  0  0  0
   17.1581    0.7321  -13.7073 N   0  0  0  0  0  0  0  0  0  0  0  0
   21.6291   -3.8463  -14.5824 C   0  0  0  0  0  0  0  0  0  0  0  0
   22.0818   -2.9686  -15.3577 O   0  0  0  0  0  0  0  0  0  0  0  0
   22.4173   -4.1946  -13.4937 O   0  0  0  0  0  0  0  0  0  0  0  0
  2  1  1  1
  2  7  1  0
  3  2  1  0
  4  3  1  0
  5  6  2  0
  5  4  1  0
  7  8  2  0
  9  5  1  0
 10 11  1  0
 12 11  1  6
 12 14  1  0
 13 12  1  0
 13  7  1  0
 14 15  2  0
 14 16  1  0
 16 17  1  0
 17 23  1  0
 18 19  1  0
 17 18  1  1
 20 21  1  0
 20 19  1  0
 21 22  1  0
 23 24  2  0
 23 25  1  0
M  END
$$$$
