ESK.pdb
     RDKit          3D

 25 24  0  0  1  0  0  0  0  0999 V2000
   18.1836  -13.0892  -15.5052 N   0  0  0  0  0  0  0  0  0  0  0  0
   18.3623  -11.8249  -16.2448 C   0  0  1  0  0  0  0  0  0  0  0  0
   17.0201  -11.1840  -16.2837 C   0  0  0  0  0  0  0  0  0  0  0  0
   16.0000  -11.8146  -17.1561 C   0  0  0  0  0  0  0  0  0  0  0  0
   15.6813  -10.9804  -18.3139 C   0  0  0  0  0  0  0  0  0  0  0  0
   14.5656  -10.4061  -18.3721 O   0  0  0  0  0  0  0  0  0  0  0  0
   19.3264  -11.0099  -15.4620 C   0  0  0  0  0  0  0  0  0  0  0  0
   19.1314  -10.9009  -14.2338 O   0  0  0  0  0  0  0  0  0  0  0  0
   16.5586  -10.7800  -19.3787 O   0  0  0  0  0  0  0  0  0  0  0  0
   22.9175   -9.7545  -17.0219 O   0  0  0  0  0  0  0  0  0  0  0  0
   22.7929   -9.8373  -15.6534 C   0  0  0  0  0  0  0  0  0  0  0  0
   21.3535   -9.5446  -15.2911 C   0  0  2  0  0  0  0  0  0  0  0  0
   20.4282  -10.3701  -16.0431 N   0  0  0  0  0  0  0  0  0  0  0  0
   21.1037   -8.1050  -15.5555 C   0  0  0  0  0  0  0  0  0  0  0  0
   20.7147   -7.7650  -16.7114 O   0  0  0  0  0  0  0  0  0  0  0  0
   21.2948   -7.1330  -14.5422 N   0  0  0  0  0  0  0  0  0  0  0  0
   21.1193   -5.7388  -14.8731 C   0  0  1  0  0  0  0  0  0  0  0  0
   19.6572   -5.3980  -14.6880 C   0  0  0  0  0  0  0  0  0  0  0  0
   19.3520   -3.9710  -14.9874 C   0  0  0  0  0  0  0  0  0  0  0  0
   17.8773   -3.6882  -14.8704 C   0  0  0  0  0  0  0  0  0  0  0  0
   17.5975   -2.2569  -15.2554 C   0  0  0  0  0  0  0  0  0  0  0  0
   16.1605   -1.9886  -15.2712 N   0  0  0  0  0  0  0  0  0  0  0  0
   22.0052   -4.8916  -14.0585 C   0  0  0  0  0  0  0  0  0  0  0  0
   22.1913   -3.6626  -14.2358 O   0  0  0  0  0  0  0  0  0  0  0  0
   22.6922   -5.4897  -13.0104 O   0  0  0  0  0  0  0  0  0  0  0  0
  2  1  1  1
  2  7  1  0
  3  2  1  0
  4  3  1  0
  5  6  2  0
  5  4  1  0
  7  8  2  0
  9  5  1  0
 10 11  1  0
 12 11  1  6
 12 14  1  0
 13 12  1  0
 13  7  1  0
 14 15  2  0
 14 16  1  0
 16 17  1  0
 17 23  1  0
 18 19  1  0
 17 18  1  1
 20 21  1  0
 20 19  1  0
 21 22  1  0
 23 24  2  0
 23 25  1  0
M  END
$$$$
