ESK.pdb
     RDKit          3D

 25 24  0  0  1  0  0  0  0  0999 V2000
   13.0877   -9.1794   -9.9461 N   0  0  0  0  0  0  0  0  0  0  0  0
   14.5436   -9.4027   -9.8566 C   0  0  1  0  0  0  0  0  0  0  0  0
   14.8307  -10.5671  -10.7372 C   0  0  0  0  0  0  0  0  0  0  0  0
   14.3766  -11.8964  -10.2620 C   0  0  0  0  0  0  0  0  0  0  0  0
   14.8300  -12.9740  -11.1402 C   0  0  0  0  0  0  0  0  0  0  0  0
   14.4412  -14.1491  -10.9261 O   0  0  0  0  0  0  0  0  0  0  0  0
   15.1926   -8.1678  -10.3668 C   0  0  0  0  0  0  0  0  0  0  0  0
   14.6757   -7.6058  -11.3544 O   0  0  0  0  0  0  0  0  0  0  0  0
   15.6850  -12.7718  -12.2227 O   0  0  0  0  0  0  0  0  0  0  0  0
   17.2425   -5.7343   -8.0939 O   0  0  0  0  0  0  0  0  0  0  0  0
   16.9361   -5.2774   -9.3559 C   0  0  0  0  0  0  0  0  0  0  0  0
   17.0141   -6.4459  -10.3137 C   0  0  2  0  0  0  0  0  0  0  0  0
   16.3448   -7.6206   -9.7888 N   0  0  0  0  0  0  0  0  0  0  0  0
   18.4496   -6.7304  -10.5650 C   0  0  0  0  0  0  0  0  0  0  0  0
   19.0633   -7.4856   -9.7550 O   0  0  0  0  0  0  0  0  0  0  0  0
   19.1194   -6.1725  -11.6823 N   0  0  0  0  0  0  0  0  0  0  0  0
   20.5049   -6.5123  -11.9041 C   0  0  1  0  0  0  0  0  0  0  0  0
   20.5458   -7.7926  -12.7088 C   0  0  0  0  0  0  0  0  0  0  0  0
   20.1820   -7.5903  -14.1391 C   0  0  0  0  0  0  0  0  0  0  0  0
   20.1664   -8.8948  -14.8919 C   0  0  0  0  0  0  0  0  0  0  0  0
   19.7172   -8.6614  -16.3128 C   0  0  0  0  0  0  0  0  0  0  0  0
   19.7335   -9.9059  -17.0798 N   0  0  0  0  0  0  0  0  0  0  0  0
   21.2162   -5.4061  -12.5646 C   0  0  0  0  0  0  0  0  0  0  0  0
   20.6666   -4.4090  -13.0938 O   0  0  0  0  0  0  0  0  0  0  0  0
   22.6029   -5.4613  -12.6106 O   0  0  0  0  0  0  0  0  0  0  0  0
  2  1  1  6
  2  7  1  0
  3  2  1  0
  4  3  1  0
  5  6  2  0
  5  4  1  0
  7  8  2  0
  9  5  1  0
 10 11  1  0
 12 11  1  1
 12 14  1  0
 13 12  1  0
 13  7  1  0
 14 15  2  0
 14 16  1  0
 16 17  1  0
 17 23  1  0
 18 19  1  0
 17 18  1  6
 20 21  1  0
 20 19  1  0
 21 22  1  0
 23 24  2  0
 23 25  1  0
M  END
$$$$
