ESK.pdb
     RDKit          3D

 25 24  0  0  1  0  0  0  0  0999 V2000
   17.1661   -9.7151  -16.0428 N   0  0  0  0  0  0  0  0  0  0  0  0
   16.0845  -10.2234  -15.1772 C   0  0  1  0  0  0  0  0  0  0  0  0
   15.9692  -11.6752  -15.4816 C   0  0  0  0  0  0  0  0  0  0  0  0
   17.0619  -12.5521  -14.9954 C   0  0  0  0  0  0  0  0  0  0  0  0
   16.7663  -13.9667  -15.2178 C   0  0  0  0  0  0  0  0  0  0  0  0
   16.7268  -14.7503  -14.2368 O   0  0  0  0  0  0  0  0  0  0  0  0
   16.5242   -9.9996  -13.7760 C   0  0  0  0  0  0  0  0  0  0  0  0
   15.8137  -10.4682  -12.8628 O   0  0  0  0  0  0  0  0  0  0  0  0
   16.5204  -14.5092  -16.4783 O   0  0  0  0  0  0  0  0  0  0  0  0
   19.7070   -7.5280  -12.9379 O   0  0  0  0  0  0  0  0  0  0  0  0
   19.4898   -8.4961  -11.9835 C   0  0  0  0  0  0  0  0  0  0  0  0
   18.0495   -8.9476  -12.0872 C   0  0  2  0  0  0  0  0  0  0  0  0
   17.6881   -9.2931  -13.4486 N   0  0  0  0  0  0  0  0  0  0  0  0
   17.1921   -7.8457  -11.5821 C   0  0  0  0  0  0  0  0  0  0  0  0
   16.8749   -6.9163  -12.3813 O   0  0  0  0  0  0  0  0  0  0  0  0
   16.7381   -7.8310  -10.2398 N   0  0  0  0  0  0  0  0  0  0  0  0
   15.9933   -6.6871   -9.7694 C   0  0  1  0  0  0  0  0  0  0  0  0
   14.8549   -7.1947   -8.9123 C   0  0  0  0  0  0  0  0  0  0  0  0
   13.8592   -7.9908   -9.6829 C   0  0  0  0  0  0  0  0  0  0  0  0
   12.8411   -8.6265   -8.7730 C   0  0  0  0  0  0  0  0  0  0  0  0
   11.8962   -9.4822   -9.5793 C   0  0  0  0  0  0  0  0  0  0  0  0
   11.0330  -10.2767   -8.7071 N   0  0  0  0  0  0  0  0  0  0  0  0
   16.8708   -5.7513   -9.0482 C   0  0  0  0  0  0  0  0  0  0  0  0
   18.0665   -5.9767   -8.7384 O   0  0  0  0  0  0  0  0  0  0  0  0
   16.3436   -4.5213   -8.6776 O   0  0  0  0  0  0  0  0  0  0  0  0
  2  1  1  6
  2  7  1  0
  3  2  1  0
  4  3  1  0
  5  6  2  0
  5  4  1  0
  7  8  2  0
  9  5  1  0
 10 11  1  0
 12 11  1  6
 12 14  1  0
 13 12  1  0
 13  7  1  0
 14 15  2  0
 14 16  1  0
 16 17  1  0
 17 23  1  0
 18 19  1  0
 17 18  1  1
 20 21  1  0
 20 19  1  0
 21 22  1  0
 23 24  2  0
 23 25  1  0
M  END
$$$$
