ESK.pdb
     RDKit          3D

 25 24  0  0  1  0  0  0  0  0999 V2000
   18.5107  -11.3648  -15.1882 N   0  0  0  0  0  0  0  0  0  0  0  0
   17.1575  -11.3109  -15.7742 C   0  0  1  0  0  0  0  0  0  0  0  0
   17.2791  -11.9063  -17.1322 C   0  0  0  0  0  0  0  0  0  0  0  0
   17.6814  -13.3318  -17.2068 C   0  0  0  0  0  0  0  0  0  0  0  0
   17.6707  -13.8306  -18.5812 C   0  0  0  0  0  0  0  0  0  0  0  0
   17.0611  -14.8965  -18.8460 O   0  0  0  0  0  0  0  0  0  0  0  0
   16.2851  -12.1362  -14.8998 C   0  0  0  0  0  0  0  0  0  0  0  0
   16.8353  -12.9735  -14.1551 O   0  0  0  0  0  0  0  0  0  0  0  0
   18.3092  -13.1814  -19.6370 O   0  0  0  0  0  0  0  0  0  0  0  0
   12.9649  -10.8115  -12.9538 O   0  0  0  0  0  0  0  0  0  0  0  0
   12.7332  -11.9371  -13.7118 C   0  0  0  0  0  0  0  0  0  0  0  0
   14.0484  -12.6616  -13.8967 C   0  0  2  0  0  0  0  0  0  0  0  0
   14.8906  -12.0102  -14.8814 N   0  0  0  0  0  0  0  0  0  0  0  0
   13.7437  -14.0551  -14.3087 C   0  0  0  0  0  0  0  0  0  0  0  0
   13.6619  -14.3117  -15.5459 O   0  0  0  0  0  0  0  0  0  0  0  0
   13.5485  -15.0752  -13.3446 N   0  0  0  0  0  0  0  0  0  0  0  0
   13.3165  -16.4261  -13.7978 C   0  0  1  0  0  0  0  0  0  0  0  0
   14.6399  -17.1584  -13.7719 C   0  0  0  0  0  0  0  0  0  0  0  0
   14.5192  -18.5883  -14.1715 C   0  0  0  0  0  0  0  0  0  0  0  0
   15.8204  -19.3232  -13.9834 C   0  0  0  0  0  0  0  0  0  0  0  0
   15.6951  -20.7310  -14.5102 C   0  0  0  0  0  0  0  0  0  0  0  0
   16.9652  -21.4469  -14.4030 N   0  0  0  0  0  0  0  0  0  0  0  0
   12.2891  -17.0852  -12.9757 C   0  0  0  0  0  0  0  0  0  0  0  0
   11.8240  -16.6310  -11.9015 O   0  0  0  0  0  0  0  0  0  0  0  0
   11.7898  -18.3043  -13.4145 O   0  0  0  0  0  0  0  0  0  0  0  0
  2  1  1  1
  2  7  1  0
  3  2  1  0
  4  3  1  0
  5  6  2  0
  5  4  1  0
  7  8  2  0
  9  5  1  0
 10 11  1  0
 12 11  1  6
 12 14  1  0
 13 12  1  0
 13  7  1  0
 14 15  2  0
 14 16  1  0
 16 17  1  0
 17 23  1  0
 18 19  1  0
 17 18  1  1
 20 21  1  0
 20 19  1  0
 21 22  1  0
 23 24  2  0
 23 25  1  0
M  END
$$$$
