ESK.pdb
     RDKit          3D

 25 24  0  0  1  0  0  0  0  0999 V2000
   21.4619  -21.1071  -12.1444 N   0  0  0  0  0  0  0  0  0  0  0  0
   21.7892  -21.3486  -13.5629 C   0  0  1  0  0  0  0  0  0  0  0  0
   20.5847  -20.9371  -14.3333 C   0  0  0  0  0  0  0  0  0  0  0  0
   19.4439  -21.8845  -14.3525 C   0  0  0  0  0  0  0  0  0  0  0  0
   18.8372  -22.0349  -13.0307 C   0  0  0  0  0  0  0  0  0  0  0  0
   18.9216  -23.1377  -12.4351 O   0  0  0  0  0  0  0  0  0  0  0  0
   22.9542  -20.4837  -13.8810 C   0  0  0  0  0  0  0  0  0  0  0  0
   22.8464  -19.2600  -13.6592 O   0  0  0  0  0  0  0  0  0  0  0  0
   18.1570  -21.0076  -12.3783 O   0  0  0  0  0  0  0  0  0  0  0  0
   26.4929  -22.1172  -15.1490 O   0  0  0  0  0  0  0  0  0  0  0  0
   26.6020  -20.9097  -14.4968 C   0  0  0  0  0  0  0  0  0  0  0  0
   25.3058  -20.1523  -14.6843 C   0  0  2  0  0  0  0  0  0  0  0  0
   24.1495  -20.9841  -14.4119 N   0  0  0  0  0  0  0  0  0  0  0  0
   25.2722  -19.6511  -16.0815 C   0  0  0  0  0  0  0  0  0  0  0  0
   24.5466  -20.2605  -16.9212 O   0  0  0  0  0  0  0  0  0  0  0  0
   26.0318  -18.5194  -16.4693 N   0  0  0  0  0  0  0  0  0  0  0  0
   26.0566  -18.1420  -17.8626 C   0  0  1  0  0  0  0  0  0  0  0  0
   25.5082  -16.7365  -17.9729 C   0  0  0  0  0  0  0  0  0  0  0  0
   25.4924  -16.2286  -19.3732 C   0  0  0  0  0  0  0  0  0  0  0  0
   25.0280  -14.7970  -19.4332 C   0  0  0  0  0  0  0  0  0  0  0  0
   25.0301  -14.3168  -20.8631 C   0  0  0  0  0  0  0  0  0  0  0  0
   24.5628  -12.9345  -20.9536 N   0  0  0  0  0  0  0  0  0  0  0  0
   27.4157  -18.2638  -18.4141 C   0  0  0  0  0  0  0  0  0  0  0  0
   28.4640  -17.8782  -17.8409 O   0  0  0  0  0  0  0  0  0  0  0  0
   27.5588  -18.8494  -19.6650 O   0  0  0  0  0  0  0  0  0  0  0  0
  2  1  1  1
  2  7  1  0
  3  2  1  0
  4  3  1  0
  5  6  2  0
  5  4  1  0
  7  8  2  0
  9  5  1  0
 10 11  1  0
 12 11  1  6
 12 14  1  0
 13 12  1  0
 13  7  1  0
 14 15  2  0
 14 16  1  0
 16 17  1  0
 17 23  1  0
 18 19  1  0
 17 18  1  1
 20 21  1  0
 20 19  1  0
 21 22  1  0
 23 24  2  0
 23 25  1  0
M  END
$$$$
