QRV.pdb
     RDKit          3D

 28 27  0  0  1  0  0  0  0  0999 V2000
   16.3969  -16.4861   24.3350 N   0  0  0  0  0  0  0  0  0  0  0  0
   16.3423  -17.8919   24.4994 C   0  0  0  0  0  0  0  0  0  0  0  0
   17.3970  -18.5534   24.5485 O   0  0  0  0  0  0  0  0  0  0  0  0
   15.0298  -18.5515   24.6108 C   0  0  0  0  0  0  0  0  0  0  0  0
   13.9511  -17.5045   24.5878 C   0  0  0  0  0  0  0  0  0  0  0  0
   12.7439  -17.8669   23.7886 C   0  0  2  0  0  0  0  0  0  0  0  0
   13.1946  -18.3124   22.4679 N   0  0  0  0  0  0  0  0  0  0  0  0
   11.7019  -16.8408   23.6940 C   0  0  0  0  0  0  0  0  0  0  0  0
   11.9733  -15.6499   23.9216 O   0  0  0  0  0  0  0  0  0  0  0  0
    8.9051  -13.3526   18.2751 N   0  0  0  0  0  0  0  0  0  0  0  0
    7.8942  -12.7742   19.0995 C   0  0  0  0  0  0  0  0  0  0  0  0
    7.4117  -11.6213   18.7691 N   0  0  0  0  0  0  0  0  0  0  0  0
    7.4302  -13.4579   20.2572 N   0  0  0  0  0  0  0  0  0  0  0  0
    8.1262  -14.5879   20.7835 C   0  0  0  0  0  0  0  0  0  0  0  0
    7.4162  -15.2513   21.9596 C   0  0  0  0  0  0  0  0  0  0  0  0
    8.2262  -16.4738   22.3077 C   0  0  0  0  0  0  0  0  0  0  0  0
    9.3211  -16.1985   23.2830 C   0  0  2  0  0  0  0  0  0  0  0  0
   10.3562  -17.1809   23.3420 N   0  0  0  0  0  0  0  0  0  0  0  0
    8.7335  -15.9463   24.6496 C   0  0  0  0  0  0  0  0  0  0  0  0
    8.5321  -16.8798   25.4621 O   0  0  0  0  0  0  0  0  0  0  0  0
    6.7217  -11.1377   19.3607 C   0  0  0  0  0  0  0  0  0  0  0  0
    6.1949  -12.4855   27.2336 C   0  0  1  0  0  0  0  0  0  0  0  0
    7.0395  -12.8867   26.0718 C   0  0  0  0  0  0  0  0  0  0  0  0
    8.2297  -11.9928   25.9401 C   0  0  1  0  0  0  0  0  0  0  0  0
    7.5223  -14.3200   26.1736 N   0  0  0  0  0  0  0  0  0  0  0  0
    8.3888  -14.6339   25.0575 C   0  0  0  0  0  0  0  0  0  0  0  0
    6.4206  -15.3008   26.1962 O   0  0  0  0  0  0  0  0  0  0  0  0
    5.7595  -15.6151   25.1655 O   0  0  0  0  0  0  0  0  0  0  0  0
  2  3  2  0
  2  1  1  0
  4  2  1  0
  5  4  1  0
  6  8  1  0
  6  5  1  0
  6  7  1  6
  8 18  1  0
  9  8  2  0
 11 10  1  0
 11 12  2  0
 13 11  1  0
 14 13  1  0
 14 15  1  0
 16 15  1  0
 17 16  1  6
 17 19  1  0
 18 17  1  0
 19 20  2  0
 19 25  1  0
 22 21  1  6
 22 23  1  0
 24 26  1  0
 24 22  1  0
 24 25  1  6
 26 28  1  0
 27 26  2  0
M  END
$$$$
