QRV.pdb
     RDKit          3D

 28 27  0  0  1  0  0  0  0  0999 V2000
    8.2562  -12.6098   16.9330 N   0  0  0  0  0  0  0  0  0  0  0  0
    7.9077  -13.9357   16.5770 C   0  0  0  0  0  0  0  0  0  0  0  0
    7.7802  -14.2438   15.3766 O   0  0  0  0  0  0  0  0  0  0  0  0
    7.7016  -14.9342   17.6403 C   0  0  0  0  0  0  0  0  0  0  0  0
    7.7926  -14.2528   18.9775 C   0  0  0  0  0  0  0  0  0  0  0  0
    8.6269  -14.9665   19.9883 C   0  0  2  0  0  0  0  0  0  0  0  0
    9.0522  -16.2404   19.4035 N   0  0  0  0  0  0  0  0  0  0  0  0
    8.0229  -15.1460   21.3114 C   0  0  0  0  0  0  0  0  0  0  0  0
    7.3844  -14.2200   21.8392 O   0  0  0  0  0  0  0  0  0  0  0  0
    9.3069  -20.0107   28.8436 N   0  0  0  0  0  0  0  0  0  0  0  0
    8.9854  -19.8347   27.4645 C   0  0  0  0  0  0  0  0  0  0  0  0
    9.9464  -19.8421   26.5998 N   0  0  0  0  0  0  0  0  0  0  0  0
    7.6344  -19.6578   27.0566 N   0  0  0  0  0  0  0  0  0  0  0  0
    7.2841  -19.5230   25.6791 C   0  0  0  0  0  0  0  0  0  0  0  0
    7.0550  -18.0787   25.2440 C   0  0  0  0  0  0  0  0  0  0  0  0
    7.7114  -17.9344   23.8948 C   0  0  0  0  0  0  0  0  0  0  0  0
    7.6160  -16.5542   23.3365 C   0  0  2  0  0  0  0  0  0  0  0  0
    8.1532  -16.3810   22.0245 N   0  0  0  0  0  0  0  0  0  0  0  0
    8.2232  -15.5703   24.3059 C   0  0  0  0  0  0  0  0  0  0  0  0
    9.4606  -15.3746   24.3569 O   0  0  0  0  0  0  0  0  0  0  0  0
    9.7696  -19.6820   25.5983 C   0  0  0  0  0  0  0  0  0  0  0  0
    7.1686  -11.8504   27.4765 C   0  0  2  0  0  0  0  0  0  0  0  0
    6.7708  -12.8410   26.4350 C   0  0  0  0  0  0  0  0  0  0  0  0
    6.3504  -12.1553   25.1756 C   0  0  1  0  0  0  0  0  0  0  0  0
    7.8850  -13.8142   26.1049 N   0  0  0  0  0  0  0  0  0  0  0  0
    7.4037  -14.8322   25.1955 C   0  0  0  0  0  0  0  0  0  0  0  0
    8.4414  -14.4819   27.2970 O   0  0  0  0  0  0  0  0  0  0  0  0
    8.0545  -15.6194   27.6903 O   0  0  0  0  0  0  0  0  0  0  0  0
  2  3  2  0
  2  1  1  0
  4  2  1  0
  5  4  1  0
  6  8  1  0
  6  5  1  0
  6  7  1  6
  8 18  1  0
  9  8  2  0
 11 10  1  0
 11 12  2  0
 13 11  1  0
 14 13  1  0
 14 15  1  0
 16 15  1  0
 17 16  1  1
 17 19  1  0
 18 17  1  0
 19 20  2  0
 19 25  1  0
 22 21  1  1
 22 23  1  0
 24 26  1  0
 24 22  1  0
 24 25  1  1
 26 28  1  0
 27 26  2  0
M  END
$$$$
