QRV.pdb
     RDKit          3D

 28 27  0  0  1  0  0  0  0  0999 V2000
    9.1627  -11.9937   18.9897 N   0  0  0  0  0  0  0  0  0  0  0  0
   10.2892  -12.8520   19.0141 C   0  0  0  0  0  0  0  0  0  0  0  0
   11.4292  -12.3868   18.8235 O   0  0  0  0  0  0  0  0  0  0  0  0
   10.0915  -14.2897   19.2669 C   0  0  0  0  0  0  0  0  0  0  0  0
    8.6471  -14.5341   19.6055 C   0  0  0  0  0  0  0  0  0  0  0  0
    8.3369  -15.9212   20.0606 C   0  0  2  0  0  0  0  0  0  0  0  0
    7.6212  -16.6012   18.9783 N   0  0  0  0  0  0  0  0  0  0  0  0
    7.6321  -16.0370   21.3403 C   0  0  0  0  0  0  0  0  0  0  0  0
    6.4663  -15.6223   21.4529 O   0  0  0  0  0  0  0  0  0  0  0  0
    6.3707  -22.8261   25.7230 N   0  0  0  0  0  0  0  0  0  0  0  0
    5.6089  -22.5045   24.5601 C   0  0  0  0  0  0  0  0  0  0  0  0
    4.8258  -23.4062   24.0652 N   0  0  0  0  0  0  0  0  0  0  0  0
    5.7118  -21.2169   23.9648 N   0  0  0  0  0  0  0  0  0  0  0  0
    6.5867  -20.2201   24.4932 C   0  0  0  0  0  0  0  0  0  0  0  0
    6.5564  -18.9058   23.7191 C   0  0  0  0  0  0  0  0  0  0  0  0
    7.5285  -17.9849   24.4110 C   0  0  0  0  0  0  0  0  0  0  0  0
    7.6331  -16.6440   23.7654 C   0  0  2  0  0  0  0  0  0  0  0  0
    8.2634  -16.6238   22.4839 N   0  0  0  0  0  0  0  0  0  0  0  0
    8.2963  -15.6741   24.7119 C   0  0  0  0  0  0  0  0  0  0  0  0
    9.5394  -15.6592   24.8750 O   0  0  0  0  0  0  0  0  0  0  0  0
    4.3186  -23.2519   23.1827 C   0  0  0  0  0  0  0  0  0  0  0  0
    7.5326  -11.6864   27.6475 C   0  0  1  0  0  0  0  0  0  0  0  0
    7.0276  -12.7161   26.6943 C   0  0  0  0  0  0  0  0  0  0  0  0
    6.5697  -12.0872   25.4184 C   0  0  1  0  0  0  0  0  0  0  0  0
    8.0721  -13.7648   26.3668 N   0  0  0  0  0  0  0  0  0  0  0  0
    7.5251  -14.7431   25.4510 C   0  0  0  0  0  0  0  0  0  0  0  0
    8.5728  -14.4741   27.5595 O   0  0  0  0  0  0  0  0  0  0  0  0
    8.0955  -15.5763   27.9538 O   0  0  0  0  0  0  0  0  0  0  0  0
  2  3  2  0
  2  1  1  0
  4  2  1  0
  5  4  1  0
  6  8  1  0
  6  5  1  0
  6  7  1  6
  8 18  1  0
  9  8  2  0
 11 10  1  0
 11 12  2  0
 13 11  1  0
 14 13  1  0
 14 15  1  0
 16 15  1  0
 17 16  1  1
 17 19  1  0
 18 17  1  0
 19 20  2  0
 19 25  1  0
 22 21  1  1
 22 23  1  0
 24 26  1  0
 24 22  1  0
 24 25  1  1
 26 28  1  0
 27 26  2  0
M  END
$$$$
