QRV.pdb
     RDKit          3D

 28 27  0  0  1  0  0  0  0  0999 V2000
   13.7067  -16.3753   18.0003 N   0  0  0  0  0  0  0  0  0  0  0  0
   13.1077  -17.4109   17.2420 C   0  0  0  0  0  0  0  0  0  0  0  0
   13.8042  -18.3524   16.8167 O   0  0  0  0  0  0  0  0  0  0  0  0
   11.6613  -17.3564   16.9685 C   0  0  0  0  0  0  0  0  0  0  0  0
   10.9448  -16.8954   18.2073 C   0  0  0  0  0  0  0  0  0  0  0  0
    9.4567  -16.8691   18.0966 C   0  0  2  0  0  0  0  0  0  0  0  0
    9.0951  -15.8341   17.1252 N   0  0  0  0  0  0  0  0  0  0  0  0
    8.7196  -16.7207   19.3545 C   0  0  0  0  0  0  0  0  0  0  0  0
    8.6277  -15.6076   19.8989 O   0  0  0  0  0  0  0  0  0  0  0  0
    7.0017  -21.8775   24.3756 N   0  0  0  0  0  0  0  0  0  0  0  0
    6.0094  -21.2310   25.1715 C   0  0  0  0  0  0  0  0  0  0  0  0
    5.9800  -21.4743   26.4408 N   0  0  0  0  0  0  0  0  0  0  0  0
    5.0772  -20.3374   24.5752 N   0  0  0  0  0  0  0  0  0  0  0  0
    5.1099  -20.0516   23.1768 C   0  0  0  0  0  0  0  0  0  0  0  0
    5.7416  -18.7039   22.8418 C   0  0  0  0  0  0  0  0  0  0  0  0
    6.6356  -18.9400   21.6514 C   0  0  0  0  0  0  0  0  0  0  0  0
    7.3478  -17.7112   21.1949 C   0  0  2  0  0  0  0  0  0  0  0  0
    8.0935  -17.8443   19.9840 N   0  0  0  0  0  0  0  0  0  0  0  0
    8.2143  -17.1814   22.3106 C   0  0  0  0  0  0  0  0  0  0  0  0
    9.3953  -17.5717   22.4690 O   0  0  0  0  0  0  0  0  0  0  0  0
    5.2582  -21.0647   27.0501 C   0  0  0  0  0  0  0  0  0  0  0  0
    7.8747  -13.3451   23.6507 C   0  0  2  0  0  0  0  0  0  0  0  0
    7.8697  -14.3437   24.7583 C   0  0  0  0  0  0  0  0  0  0  0  0
    6.4836  -14.5728   25.2675 C   0  0  2  0  0  0  0  0  0  0  0  0
    8.4555  -15.6774   24.3390 N   0  0  0  0  0  0  0  0  0  0  0  0
    7.7128  -16.2178   23.2204 C   0  0  0  0  0  0  0  0  0  0  0  0
    8.4529  -16.6767   25.4242 O   0  0  0  0  0  0  0  0  0  0  0  0
    9.1922  -16.5834   26.4455 O   0  0  0  0  0  0  0  0  0  0  0  0
  2  3  2  0
  2  1  1  0
  4  2  1  0
  5  4  1  0
  6  8  1  0
  6  5  1  0
  6  7  1  6
  8 18  1  0
  9  8  2  0
 11 10  1  0
 11 12  2  0
 13 11  1  0
 14 13  1  0
 14 15  1  0
 16 15  1  0
 17 16  1  1
 17 19  1  0
 18 17  1  0
 19 20  2  0
 19 25  1  0
 22 21  1  1
 22 23  1  0
 24 26  1  0
 24 22  1  0
 24 25  1  1
 26 28  1  0
 27 26  2  0
M  END
$$$$
