QRV.pdb
     RDKit          3D

 28 27  0  0  1  0  0  0  0  0999 V2000
    8.4108  -12.5207   18.1586 N   0  0  0  0  0  0  0  0  0  0  0  0
    8.1617  -13.6350   17.3203 C   0  0  0  0  0  0  0  0  0  0  0  0
    8.1364  -13.4887   16.0832 O   0  0  0  0  0  0  0  0  0  0  0  0
    7.9360  -14.9566   17.9305 C   0  0  0  0  0  0  0  0  0  0  0  0
    7.9820  -14.8202   19.4271 C   0  0  0  0  0  0  0  0  0  0  0  0
    8.1041  -16.1090   20.1697 C   0  0  2  0  0  0  0  0  0  0  0  0
    7.4725  -17.1558   19.3628 N   0  0  0  0  0  0  0  0  0  0  0  0
    7.6087  -16.1073   21.5490 C   0  0  0  0  0  0  0  0  0  0  0  0
    6.6210  -15.4201   21.8588 O   0  0  0  0  0  0  0  0  0  0  0  0
    5.2042  -22.6482   25.8974 N   0  0  0  0  0  0  0  0  0  0  0  0
    5.8097  -22.2558   24.6663 C   0  0  0  0  0  0  0  0  0  0  0  0
    5.3454  -22.7475   23.5646 N   0  0  0  0  0  0  0  0  0  0  0  0
    6.8988  -21.3411   24.6585 N   0  0  0  0  0  0  0  0  0  0  0  0
    6.9406  -20.2257   25.5487 C   0  0  0  0  0  0  0  0  0  0  0  0
    6.6023  -18.8962   24.8811 C   0  0  0  0  0  0  0  0  0  0  0  0
    7.9165  -18.2003   24.6346 C   0  0  0  0  0  0  0  0  0  0  0  0
    7.7711  -16.9024   23.9135 C   0  0  2  0  0  0  0  0  0  0  0  0
    8.2452  -16.8887   22.5663 N   0  0  0  0  0  0  0  0  0  0  0  0
    8.4035  -15.7973   24.7229 C   0  0  0  0  0  0  0  0  0  0  0  0
    9.6472  -15.6443   24.7694 O   0  0  0  0  0  0  0  0  0  0  0  0
    5.7748  -22.5282   22.6549 C   0  0  0  0  0  0  0  0  0  0  0  0
    7.5240  -11.7148   27.4781 C   0  0  2  0  0  0  0  0  0  0  0  0
    7.0551  -12.8000   26.5690 C   0  0  0  0  0  0  0  0  0  0  0  0
    6.6268  -12.2460   25.2490 C   0  0  1  0  0  0  0  0  0  0  0  0
    8.1178  -13.8536   26.3275 N   0  0  0  0  0  0  0  0  0  0  0  0
    7.6017  -14.8918   25.4611 C   0  0  0  0  0  0  0  0  0  0  0  0
    8.6002  -14.4838   27.5711 O   0  0  0  0  0  0  0  0  0  0  0  0
    8.0512  -15.5009   28.0833 O   0  0  0  0  0  0  0  0  0  0  0  0
  2  3  2  0
  2  1  1  0
  4  2  1  0
  5  4  1  0
  6  8  1  0
  6  5  1  0
  6  7  1  6
  8 18  1  0
  9  8  2  0
 11 10  1  0
 11 12  2  0
 13 11  1  0
 14 13  1  0
 14 15  1  0
 16 15  1  0
 17 16  1  1
 17 19  1  0
 18 17  1  0
 19 20  2  0
 19 25  1  0
 22 21  1  1
 22 23  1  0
 24 26  1  0
 24 22  1  0
 24 25  1  1
 26 28  1  0
 27 26  2  0
M  END
$$$$
