QRV.pdb
     RDKit          3D

 28 27  0  0  1  0  0  0  0  0999 V2000
    9.2946  -11.1167   19.2978 N   0  0  0  0  0  0  0  0  0  0  0  0
    9.5896  -12.4027   18.7827 C   0  0  0  0  0  0  0  0  0  0  0  0
   10.7696  -12.8009   18.7436 O   0  0  0  0  0  0  0  0  0  0  0  0
    8.4880  -13.2530   18.2995 C   0  0  0  0  0  0  0  0  0  0  0  0
    7.7311  -13.7935   19.4809 C   0  0  0  0  0  0  0  0  0  0  0  0
    7.9586  -15.2417   19.7607 C   0  0  2  0  0  0  0  0  0  0  0  0
    7.1483  -16.0159   18.8175 N   0  0  0  0  0  0  0  0  0  0  0  0
    7.7465  -15.6713   21.1457 C   0  0  0  0  0  0  0  0  0  0  0  0
    6.6160  -15.6025   21.6565 O   0  0  0  0  0  0  0  0  0  0  0  0
   11.5098  -20.0069   20.9324 N   0  0  0  0  0  0  0  0  0  0  0  0
   10.9405  -21.0796   21.6818 C   0  0  0  0  0  0  0  0  0  0  0  0
   10.6103  -22.1626   21.0579 N   0  0  0  0  0  0  0  0  0  0  0  0
   10.7457  -20.9541   23.0851 N   0  0  0  0  0  0  0  0  0  0  0  0
   10.6440  -19.6751   23.7112 C   0  0  0  0  0  0  0  0  0  0  0  0
    9.6771  -18.7254   23.0108 C   0  0  0  0  0  0  0  0  0  0  0  0
    9.5801  -17.5007   23.8841 C   0  0  0  0  0  0  0  0  0  0  0  0
    8.6735  -16.4523   23.3321 C   0  0  2  0  0  0  0  0  0  0  0  0
    8.8267  -16.1752   21.9393 N   0  0  0  0  0  0  0  0  0  0  0  0
    8.7943  -15.1920   24.1528 C   0  0  0  0  0  0  0  0  0  0  0  0
    8.8812  -14.0624   23.6155 O   0  0  0  0  0  0  0  0  0  0  0  0
   10.1118  -22.9269   21.5347 C   0  0  0  0  0  0  0  0  0  0  0  0
    6.7843  -12.4735   27.0981 C   0  0  2  0  0  0  0  0  0  0  0  0
    7.1438  -13.5960   26.1843 C   0  0  0  0  0  0  0  0  0  0  0  0
    7.0528  -13.1733   24.7540 C   0  0  1  0  0  0  0  0  0  0  0  0
    8.5396  -14.1285   26.4415 N   0  0  0  0  0  0  0  0  0  0  0  0
    8.8133  -15.2499   25.5684 C   0  0  0  0  0  0  0  0  0  0  0  0
    8.7440  -14.5648   27.8359 O   0  0  0  0  0  0  0  0  0  0  0  0
    8.3042  -15.6622   28.2835 O   0  0  0  0  0  0  0  0  0  0  0  0
  2  3  2  0
  2  1  1  0
  4  2  1  0
  5  4  1  0
  6  8  1  0
  6  5  1  0
  6  7  1  6
  8 18  1  0
  9  8  2  0
 11 10  1  0
 11 12  2  0
 13 11  1  0
 14 13  1  0
 14 15  1  0
 16 15  1  0
 17 16  1  1
 17 19  1  0
 18 17  1  0
 19 20  2  0
 19 25  1  0
 22 21  1  6
 22 23  1  0
 24 26  1  0
 24 22  1  0
 24 25  1  1
 26 28  1  0
 27 26  2  0
M  END
$$$$
