QRV.pdb
     RDKit          3D

 28 27  0  0  1  0  0  0  0  0999 V2000
   14.3152  -16.6049   18.3162 N   0  0  0  0  0  0  0  0  0  0  0  0
   14.6620  -17.9553   18.5660 C   0  0  0  0  0  0  0  0  0  0  0  0
   15.1649  -18.6458   17.6590 O   0  0  0  0  0  0  0  0  0  0  0  0
   14.4207  -18.5231   19.9036 C   0  0  0  0  0  0  0  0  0  0  0  0
   13.8653  -17.4505   20.7990 C   0  0  0  0  0  0  0  0  0  0  0  0
   13.0007  -17.9475   21.9093 C   0  0  2  0  0  0  0  0  0  0  0  0
   12.1680  -19.0311   21.3818 N   0  0  0  0  0  0  0  0  0  0  0  0
   12.2039  -16.9354   22.6080 C   0  0  0  0  0  0  0  0  0  0  0  0
   12.7615  -15.9781   23.1705 O   0  0  0  0  0  0  0  0  0  0  0  0
    7.8566  -12.2070   20.2303 N   0  0  0  0  0  0  0  0  0  0  0  0
    7.6530  -13.2884   19.3218 C   0  0  0  0  0  0  0  0  0  0  0  0
    8.1143  -13.1805   18.1190 N   0  0  0  0  0  0  0  0  0  0  0  0
    6.9588  -14.4579   19.7379 N   0  0  0  0  0  0  0  0  0  0  0  0
    7.1405  -15.0067   21.0433 C   0  0  0  0  0  0  0  0  0  0  0  0
    8.6017  -15.0932   21.4734 C   0  0  0  0  0  0  0  0  0  0  0  0
    8.6131  -15.8341   22.7860 C   0  0  0  0  0  0  0  0  0  0  0  0
    9.9847  -16.0425   23.3344 C   0  0  2  0  0  0  0  0  0  0  0  0
   10.7756  -17.0233   22.6617 N   0  0  0  0  0  0  0  0  0  0  0  0
    9.9028  -16.3321   24.8129 C   0  0  0  0  0  0  0  0  0  0  0  0
    9.9108  -17.5053   25.2554 O   0  0  0  0  0  0  0  0  0  0  0  0
    8.0099  -13.9410   17.4329 C   0  0  0  0  0  0  0  0  0  0  0  0
   10.2520  -14.2849   29.3561 C   0  0  1  0  0  0  0  0  0  0  0  0
   10.3334  -14.2022   27.8693 C   0  0  0  0  0  0  0  0  0  0  0  0
   11.7406  -13.9745   27.4210 C   0  0  1  0  0  0  0  0  0  0  0  0
    9.8073  -15.4508   27.1896 N   0  0  0  0  0  0  0  0  0  0  0  0
    9.8133  -15.2756   25.7528 C   0  0  0  0  0  0  0  0  0  0  0  0
    8.4375  -15.8036   27.6086 O   0  0  0  0  0  0  0  0  0  0  0  0
    7.4125  -15.4933   26.9369 O   0  0  0  0  0  0  0  0  0  0  0  0
  2  3  2  0
  2  1  1  0
  4  2  1  0
  5  4  1  0
  6  8  1  0
  6  5  1  0
  6  7  1  6
  8 18  1  0
  9  8  2  0
 11 10  1  0
 11 12  2  0
 13 11  1  0
 14 13  1  0
 14 15  1  0
 16 15  1  0
 17 16  1  6
 17 19  1  0
 18 17  1  0
 19 20  2  0
 19 25  1  0
 22 21  1  1
 22 23  1  0
 24 26  1  0
 24 22  1  0
 24 25  1  6
 26 28  1  0
 27 26  2  0
M  END
$$$$
