QRV.pdb
     RDKit          3D

 28 27  0  0  1  0  0  0  0  0999 V2000
    8.3510  -12.3032   18.6979 N   0  0  0  0  0  0  0  0  0  0  0  0
    8.7458  -13.3610   17.8427 C   0  0  0  0  0  0  0  0  0  0  0  0
    9.2900  -13.1074   16.7509 O   0  0  0  0  0  0  0  0  0  0  0  0
    8.5049  -14.7522   18.2627 C   0  0  0  0  0  0  0  0  0  0  0  0
    7.8472  -14.7496   19.6148 C   0  0  0  0  0  0  0  0  0  0  0  0
    7.5056  -16.1012   20.1474 C   0  0  2  0  0  0  0  0  0  0  0  0
    6.5089  -16.6985   19.2556 N   0  0  0  0  0  0  0  0  0  0  0  0
    7.0861  -16.1537   21.5506 C   0  0  0  0  0  0  0  0  0  0  0  0
    5.8890  -16.0123   21.8519 O   0  0  0  0  0  0  0  0  0  0  0  0
    7.7680  -21.1500   24.3303 N   0  0  0  0  0  0  0  0  0  0  0  0
    6.6742  -21.1092   25.2458 C   0  0  0  0  0  0  0  0  0  0  0  0
    5.6671  -21.8933   25.0412 N   0  0  0  0  0  0  0  0  0  0  0  0
    6.6991  -20.2240   26.3589 N   0  0  0  0  0  0  0  0  0  0  0  0
    7.7494  -19.2721   26.5298 C   0  0  0  0  0  0  0  0  0  0  0  0
    7.3956  -17.8739   26.0324 C   0  0  0  0  0  0  0  0  0  0  0  0
    7.8149  -17.8211   24.5856 C   0  0  0  0  0  0  0  0  0  0  0  0
    7.6363  -16.4749   23.9680 C   0  0  2  0  0  0  0  0  0  0  0  0
    8.0359  -16.3653   22.6011 N   0  0  0  0  0  0  0  0  0  0  0  0
    8.3175  -15.4309   24.8180 C   0  0  0  0  0  0  0  0  0  0  0  0
    9.5669  -15.3428   24.8772 O   0  0  0  0  0  0  0  0  0  0  0  0
    4.8844  -21.9482   25.7078 C   0  0  0  0  0  0  0  0  0  0  0  0
    6.6072  -11.7500   25.3637 C   0  0  2  0  0  0  0  0  0  0  0  0
    7.0833  -12.3725   26.6325 C   0  0  0  0  0  0  0  0  0  0  0  0
    5.9455  -12.9647   27.3991 C   0  0  2  0  0  0  0  0  0  0  0  0
    8.1187  -13.4539   26.3948 N   0  0  0  0  0  0  0  0  0  0  0  0
    7.5567  -14.5110   25.5814 C   0  0  0  0  0  0  0  0  0  0  0  0
    8.6287  -14.0504   27.6440 O   0  0  0  0  0  0  0  0  0  0  0  0
    8.2970  -15.2044   28.0394 O   0  0  0  0  0  0  0  0  0  0  0  0
  2  3  2  0
  2  1  1  0
  4  2  1  0
  5  4  1  0
  6  8  1  0
  6  5  1  0
  6  7  1  6
  8 18  1  0
  9  8  2  0
 11 10  1  0
 11 12  2  0
 13 11  1  0
 14 13  1  0
 14 15  1  0
 16 15  1  0
 17 16  1  1
 17 19  1  0
 18 17  1  0
 19 20  2  0
 19 25  1  0
 22 21  1  1
 22 23  1  0
 24 26  1  0
 24 22  1  0
 24 25  1  1
 26 28  1  0
 27 26  2  0
M  END
$$$$
