QRV.pdb
     RDKit          3D

 28 27  0  0  1  0  0  0  0  0999 V2000
    8.2542  -13.1044   15.6784 N   0  0  0  0  0  0  0  0  0  0  0  0
    7.7011  -13.9626   16.6601 C   0  0  0  0  0  0  0  0  0  0  0  0
    6.4829  -14.2237   16.6423 O   0  0  0  0  0  0  0  0  0  0  0  0
    8.5825  -14.5361   17.6917 C   0  0  0  0  0  0  0  0  0  0  0  0
    8.8009  -13.5149   18.7734 C   0  0  0  0  0  0  0  0  0  0  0  0
    9.5803  -14.0043   19.9482 C   0  0  2  0  0  0  0  0  0  0  0  0
   10.4649  -15.0770   19.4872 N   0  0  0  0  0  0  0  0  0  0  0  0
    8.7963  -14.4066   21.1192 C   0  0  0  0  0  0  0  0  0  0  0  0
    7.9181  -13.6541   21.5734 O   0  0  0  0  0  0  0  0  0  0  0  0
    7.6244  -20.1870   19.0134 N   0  0  0  0  0  0  0  0  0  0  0  0
    6.3956  -20.1762   19.7387 C   0  0  0  0  0  0  0  0  0  0  0  0
    5.3672  -20.7646   19.2217 N   0  0  0  0  0  0  0  0  0  0  0  0
    6.3116  -19.5320   21.0040 N   0  0  0  0  0  0  0  0  0  0  0  0
    7.4203  -18.8178   21.5509 C   0  0  0  0  0  0  0  0  0  0  0  0
    7.1527  -18.2398   22.9373 C   0  0  0  0  0  0  0  0  0  0  0  0
    8.3937  -17.4766   23.3240 C   0  0  0  0  0  0  0  0  0  0  0  0
    8.3339  -16.0304   22.9629 C   0  0  2  0  0  0  0  0  0  0  0  0
    9.0211  -15.6645   21.7655 N   0  0  0  0  0  0  0  0  0  0  0  0
    8.7963  -15.1949   24.1310 C   0  0  0  0  0  0  0  0  0  0  0  0
   10.0019  -14.8858   24.2830 O   0  0  0  0  0  0  0  0  0  0  0  0
    4.4401  -20.7162   19.6665 C   0  0  0  0  0  0  0  0  0  0  0  0
    6.7631  -12.0438   25.3454 C   0  0  2  0  0  0  0  0  0  0  0  0
    7.0773  -12.9202   26.5105 C   0  0  0  0  0  0  0  0  0  0  0  0
    5.8785  -13.7092   26.9266 C   0  0  2  0  0  0  0  0  0  0  0  0
    8.2117  -13.8833   26.2221 N   0  0  0  0  0  0  0  0  0  0  0  0
    7.8717  -14.7313   25.0995 C   0  0  0  0  0  0  0  0  0  0  0  0
    8.5439  -14.7460   27.3718 O   0  0  0  0  0  0  0  0  0  0  0  0
    8.2596  -15.9772   27.4114 O   0  0  0  0  0  0  0  0  0  0  0  0
  2  3  2  0
  2  1  1  0
  4  2  1  0
  5  4  1  0
  6  8  1  0
  6  5  1  0
  6  7  1  6
  8 18  1  0
  9  8  2  0
 11 10  1  0
 11 12  2  0
 13 11  1  0
 14 13  1  0
 14 15  1  0
 16 15  1  0
 17 16  1  1
 17 19  1  0
 18 17  1  0
 19 20  2  0
 19 25  1  0
 22 21  1  1
 22 23  1  0
 24 26  1  0
 24 22  1  0
 24 25  1  1
 26 28  1  0
 27 26  2  0
M  END
$$$$
