QRV.pdb
     RDKit          3D

 28 27  0  0  1  0  0  0  0  0999 V2000
   10.3720  -12.2974   20.0735 N   0  0  0  0  0  0  0  0  0  0  0  0
    9.4070  -12.6478   19.0978 C   0  0  0  0  0  0  0  0  0  0  0  0
    9.7048  -12.6127   17.8884 O   0  0  0  0  0  0  0  0  0  0  0  0
    8.0588  -13.0510   19.5334 C   0  0  0  0  0  0  0  0  0  0  0  0
    7.7045  -14.3600   18.8842 C   0  0  0  0  0  0  0  0  0  0  0  0
    8.2245  -15.5689   19.5881 C   0  0  2  0  0  0  0  0  0  0  0  0
    7.8400  -16.7463   18.8060 N   0  0  0  0  0  0  0  0  0  0  0  0
    7.8516  -15.7033   20.9989 C   0  0  0  0  0  0  0  0  0  0  0  0
    6.6747  -15.9451   21.3153 O   0  0  0  0  0  0  0  0  0  0  0  0
   11.0698  -21.9614   24.3028 N   0  0  0  0  0  0  0  0  0  0  0  0
   10.2520  -21.9338   23.1338 C   0  0  0  0  0  0  0  0  0  0  0  0
   10.1325  -23.0163   22.4372 N   0  0  0  0  0  0  0  0  0  0  0  0
    9.5836  -20.7384   22.7502 N   0  0  0  0  0  0  0  0  0  0  0  0
    9.7265  -19.5320   23.5003 C   0  0  0  0  0  0  0  0  0  0  0  0
    8.9520  -18.3535   22.9182 C   0  0  0  0  0  0  0  0  0  0  0  0
    9.1741  -17.1960   23.8576 C   0  0  0  0  0  0  0  0  0  0  0  0
    8.5430  -15.9273   23.3909 C   0  0  2  0  0  0  0  0  0  0  0  0
    8.8242  -15.5589   22.0400 N   0  0  0  0  0  0  0  0  0  0  0  0
    8.8877  -14.8078   24.3419 C   0  0  0  0  0  0  0  0  0  0  0  0
   10.0335  -14.2995   24.3726 O   0  0  0  0  0  0  0  0  0  0  0  0
    9.5558  -23.0461   21.5849 C   0  0  0  0  0  0  0  0  0  0  0  0
    6.4210  -11.7793   25.3713 C   0  0  2  0  0  0  0  0  0  0  0  0
    6.9279  -12.5162   26.5647 C   0  0  0  0  0  0  0  0  0  0  0  0
    5.8906  -13.4499   27.0988 C   0  0  2  0  0  0  0  0  0  0  0  0
    8.1833  -13.3112   26.2650 N   0  0  0  0  0  0  0  0  0  0  0  0
    7.9164  -14.2941   25.2365 C   0  0  0  0  0  0  0  0  0  0  0  0
    8.7206  -14.0106   27.4476 O   0  0  0  0  0  0  0  0  0  0  0  0
    8.6040  -15.2576   27.6198 O   0  0  0  0  0  0  0  0  0  0  0  0
  2  3  2  0
  2  1  1  0
  4  2  1  0
  5  4  1  0
  6  8  1  0
  6  5  1  0
  6  7  1  6
  8 18  1  0
  9  8  2  0
 11 10  1  0
 11 12  2  0
 13 11  1  0
 14 13  1  0
 14 15  1  0
 16 15  1  0
 17 16  1  1
 17 19  1  0
 18 17  1  0
 19 20  2  0
 19 25  1  0
 22 21  1  1
 22 23  1  0
 24 26  1  0
 24 22  1  0
 24 25  1  1
 26 28  1  0
 27 26  2  0
M  END
$$$$
