QRV.pdb
     RDKit          3D

 28 27  0  0  1  0  0  0  0  0999 V2000
   14.0242  -13.9954   17.5042 N   0  0  0  0  0  0  0  0  0  0  0  0
   14.7543  -14.2952   18.6804 C   0  0  0  0  0  0  0  0  0  0  0  0
   15.9523  -14.6279   18.6005 O   0  0  0  0  0  0  0  0  0  0  0  0
   14.0793  -14.2069   19.9868 C   0  0  0  0  0  0  0  0  0  0  0  0
   12.7090  -14.8152   19.8731 C   0  0  0  0  0  0  0  0  0  0  0  0
   12.2070  -15.4647   21.1195 C   0  0  2  0  0  0  0  0  0  0  0  0
   11.8107  -16.8348   20.7857 N   0  0  0  0  0  0  0  0  0  0  0  0
   11.1494  -14.7486   21.8381 C   0  0  0  0  0  0  0  0  0  0  0  0
   11.4160  -13.7206   22.4830 O   0  0  0  0  0  0  0  0  0  0  0  0
    7.8571  -12.2297   17.7786 N   0  0  0  0  0  0  0  0  0  0  0  0
    8.1683  -13.6100   17.5940 C   0  0  0  0  0  0  0  0  0  0  0  0
    9.2540  -13.9202   16.9645 N   0  0  0  0  0  0  0  0  0  0  0  0
    7.2996  -14.6179   18.0964 N   0  0  0  0  0  0  0  0  0  0  0  0
    7.3865  -15.0696   19.4480 C   0  0  0  0  0  0  0  0  0  0  0  0
    7.3317  -13.9428   20.4751 C   0  0  0  0  0  0  0  0  0  0  0  0
    7.4001  -14.6012   21.8293 C   0  0  0  0  0  0  0  0  0  0  0  0
    8.7436  -14.4970   22.4693 C   0  0  2  0  0  0  0  0  0  0  0  0
    9.7945  -15.2117   21.8177 N   0  0  0  0  0  0  0  0  0  0  0  0
    8.6452  -14.8835   23.9244 C   0  0  0  0  0  0  0  0  0  0  0  0
    9.0822  -15.9809   24.3450 O   0  0  0  0  0  0  0  0  0  0  0  0
    9.4915  -14.8992   16.7525 C   0  0  0  0  0  0  0  0  0  0  0  0
    7.8996  -11.8957   26.8125 C   0  0  2  0  0  0  0  0  0  0  0  0
    7.1393  -13.1706   26.9571 C   0  0  0  0  0  0  0  0  0  0  0  0
    5.7536  -13.0330   26.4152 C   0  0  2  0  0  0  0  0  0  0  0  0
    7.8171  -14.3322   26.2578 N   0  0  0  0  0  0  0  0  0  0  0  0
    8.0499  -14.0083   24.8665 C   0  0  0  0  0  0  0  0  0  0  0  0
    7.0334  -15.5806   26.3191 O   0  0  0  0  0  0  0  0  0  0  0  0
    6.2472  -15.9439   25.3983 O   0  0  0  0  0  0  0  0  0  0  0  0
  2  3  2  0
  2  1  1  0
  4  2  1  0
  5  4  1  0
  6  8  1  0
  6  5  1  0
  6  7  1  6
  8 18  1  0
  9  8  2  0
 11 10  1  0
 11 12  2  0
 13 11  1  0
 14 13  1  0
 14 15  1  0
 16 15  1  0
 17 16  1  6
 17 19  1  0
 18 17  1  0
 19 20  2  0
 19 25  1  0
 22 21  1  1
 22 23  1  0
 24 26  1  0
 24 22  1  0
 24 25  1  1
 26 28  1  0
 27 26  2  0
M  END
$$$$
