YFS.pdb
     RDKit          3D

 30 31  0  0  1  0  0  0  0  0999 V2000
   21.8211  -13.5460  -24.8288 O   0  0  0  0  0  0  0  0  0  0  0  0
   21.7579  -12.8365  -23.6263 C   0  0  0  0  0  0  0  0  0  0  0  0
   22.1601  -11.5194  -23.5508 C   0  0  0  0  0  0  0  0  0  0  0  0
   22.0955  -10.8241  -22.3608 C   0  0  0  0  0  0  0  0  0  0  0  0
   21.6291  -11.4050  -21.1943 C   0  0  0  0  0  0  0  0  0  0  0  0
   21.5711  -10.6293  -19.9253 C   0  0  0  0  0  0  0  0  0  0  0  0
   22.9252  -10.5176  -19.2623 C   0  0  2  0  0  0  0  0  0  0  0  0
   23.4874  -11.7844  -18.9051 N   0  0  0  0  0  0  0  0  0  0  0  0
   22.7718   -9.6068  -18.0987 C   0  0  0  0  0  0  0  0  0  0  0  0
   22.2176  -10.0651  -17.0688 O   0  0  0  0  0  0  0  0  0  0  0  0
   21.2287  -12.7233  -21.2792 C   0  0  0  0  0  0  0  0  0  0  0  0
   21.2918  -13.4227  -22.4680 C   0  0  0  0  0  0  0  0  0  0  0  0
   23.2114   -8.2624  -18.0854 N   0  0  0  0  0  0  0  0  0  0  0  0
   23.0577   -7.4701  -16.9106 C   0  0  1  0  0  0  0  0  0  0  0  0
   24.3846   -7.0463  -16.3179 C   0  0  0  0  0  0  0  0  0  0  0  0
   25.2787   -8.1766  -16.0238 C   0  0  0  0  0  0  0  0  0  0  0  0
   26.3815   -8.4734  -16.7903 C   0  0  0  0  0  0  0  0  0  0  0  0
   27.2127   -9.5502  -16.4909 C   0  0  0  0  0  0  0  0  0  0  0  0
   26.9569  -10.3625  -15.4068 C   0  0  0  0  0  0  0  0  0  0  0  0
   25.8581  -10.0733  -14.6364 C   0  0  0  0  0  0  0  0  0  0  0  0
   25.0515   -9.0086  -14.9474 C   0  0  0  0  0  0  0  0  0  0  0  0
   22.1188   -6.3742  -17.1480 C   0  0  0  0  0  0  0  0  0  0  0  0
   22.1388   -5.6340  -18.1840 O   0  0  0  0  0  0  0  0  0  0  0  0
   17.9904   -4.3479  -15.7799 O   0  0  0  0  0  0  0  0  0  0  0  0
   18.9392   -5.3215  -15.4980 C   0  0  0  0  0  0  0  0  0  0  0  0
   20.1481   -5.0376  -16.3863 C   0  0  2  0  0  0  0  0  0  0  0  0
   21.1126   -6.0910  -16.1927 N   0  0  0  0  0  0  0  0  0  0  0  0
   20.7273   -3.7702  -15.8971 C   0  0  0  0  0  0  0  0  0  0  0  0
   20.5621   -2.6765  -16.4876 O   0  0  0  0  0  0  0  0  0  0  0  0
   21.4868   -3.7801  -14.7376 O   0  0  0  0  0  0  0  0  0  0  0  0
  2  3  2  0
  2  1  1  0
  4  3  1  0
  5  4  2  0
  6  5  1  0
  7  6  1  0
  7  8  1  1
  9  7  1  0
  9 10  2  0
 11  5  1  0
 11 12  2  0
 12  2  1  0
 13  9  1  0
 14 13  1  0
 14 15  1  6
 16 15  1  0
 16 17  2  0
 18 17  1  0
 19 18  2  0
 20 21  2  0
 20 19  1  0
 21 16  1  0
 22 14  1  0
 23 22  2  0
 25 24  1  0
 26 25  1  1
 26 27  1  0
 27 22  1  0
 28 26  1  0
 28 30  1  0
 29 28  2  0
M  END
$$$$
