YFS.pdb
     RDKit          3D

 30 31  0  0  1  0  0  0  0  0999 V2000
   25.4844  -21.0480   -7.6253 O   0  0  0  0  0  0  0  0  0  0  0  0
   25.3520  -20.8140   -8.9968 C   0  0  0  0  0  0  0  0  0  0  0  0
   26.4136  -20.9934   -9.8588 C   0  0  0  0  0  0  0  0  0  0  0  0
   26.2771  -20.7609  -11.2119 C   0  0  0  0  0  0  0  0  0  0  0  0
   25.0817  -20.3404  -11.7686 C   0  0  0  0  0  0  0  0  0  0  0  0
   24.9648  -20.0976  -13.2325 C   0  0  0  0  0  0  0  0  0  0  0  0
   24.0405  -21.0883  -13.9032 C   0  0  2  0  0  0  0  0  0  0  0  0
   24.5561  -22.4234  -13.9189 N   0  0  0  0  0  0  0  0  0  0  0  0
   23.7495  -20.5674  -15.2637 C   0  0  0  0  0  0  0  0  0  0  0  0
   24.3694  -21.0792  -16.2289 O   0  0  0  0  0  0  0  0  0  0  0  0
   24.0247  -20.1635  -10.8986 C   0  0  0  0  0  0  0  0  0  0  0  0
   24.1572  -20.3951   -9.5439 C   0  0  0  0  0  0  0  0  0  0  0  0
   22.8203  -19.5349  -15.5314 N   0  0  0  0  0  0  0  0  0  0  0  0
   22.5001  -19.1905  -16.8769 C   0  0  1  0  0  0  0  0  0  0  0  0
   21.1021  -18.6268  -17.0154 C   0  0  0  0  0  0  0  0  0  0  0  0
   20.0463  -19.6269  -16.7943 C   0  0  0  0  0  0  0  0  0  0  0  0
   19.3165  -19.6950  -15.6304 C   0  0  0  0  0  0  0  0  0  0  0  0
   18.3218  -20.6522  -15.4453 C   0  0  0  0  0  0  0  0  0  0  0  0
   18.0317  -21.5721  -16.4303 C   0  0  0  0  0  0  0  0  0  0  0  0
   18.7555  -21.5109  -17.5952 C   0  0  0  0  0  0  0  0  0  0  0  0
   19.7311  -20.5611  -17.7587 C   0  0  0  0  0  0  0  0  0  0  0  0
   23.5527  -18.3591  -17.4598 C   0  0  0  0  0  0  0  0  0  0  0  0
   24.0520  -17.3388  -16.8843 O   0  0  0  0  0  0  0  0  0  0  0  0
   27.2555  -18.2143  -20.3570 O   0  0  0  0  0  0  0  0  0  0  0  0
   26.1768  -18.9466  -19.8795 C   0  0  0  0  0  0  0  0  0  0  0  0
   25.1684  -17.9447  -19.3222 C   0  0  2  0  0  0  0  0  0  0  0  0
   24.0741  -18.6780  -18.7373 N   0  0  0  0  0  0  0  0  0  0  0  0
   24.6619  -17.1846  -20.4826 C   0  0  0  0  0  0  0  0  0  0  0  0
   23.4660  -17.2344  -20.8563 O   0  0  0  0  0  0  0  0  0  0  0  0
   25.5373  -16.3798  -21.1947 O   0  0  0  0  0  0  0  0  0  0  0  0
  2  3  2  0
  2  1  1  0
  4  3  1  0
  5  4  2  0
  6  5  1  0
  7  6  1  0
  7  8  1  6
  9  7  1  0
  9 10  2  0
 11  5  1  0
 11 12  2  0
 12  2  1  0
 13  9  1  0
 14 13  1  0
 14 15  1  1
 16 15  1  0
 16 17  2  0
 18 17  1  0
 19 18  2  0
 20 21  2  0
 20 19  1  0
 21 16  1  0
 22 14  1  0
 23 22  2  0
 25 24  1  0
 26 25  1  6
 26 27  1  0
 27 22  1  0
 28 26  1  0
 28 30  1  0
 29 28  2  0
M  END
$$$$
