YFS.pdb
     RDKit          3D

 30 31  0  0  1  0  0  0  0  0999 V2000
   16.2024  -20.2657  -14.5281 O   0  0  0  0  0  0  0  0  0  0  0  0
   17.5902  -20.4302  -14.5459 C   0  0  0  0  0  0  0  0  0  0  0  0
   18.2491  -21.0606  -13.5112 C   0  0  0  0  0  0  0  0  0  0  0  0
   19.6195  -21.2201  -13.5342 C   0  0  0  0  0  0  0  0  0  0  0  0
   20.3954  -20.7612  -14.5844 C   0  0  0  0  0  0  0  0  0  0  0  0
   21.8721  -20.9479  -14.5812 C   0  0  0  0  0  0  0  0  0  0  0  0
   22.5880  -19.8224  -13.8696 C   0  0  2  0  0  0  0  0  0  0  0  0
   22.3566  -18.5399  -14.4613 N   0  0  0  0  0  0  0  0  0  0  0  0
   24.0288  -20.1809  -13.8170 C   0  0  0  0  0  0  0  0  0  0  0  0
   24.8228  -19.5088  -14.5210 O   0  0  0  0  0  0  0  0  0  0  0  0
   19.7276  -20.1316  -15.6155 C   0  0  0  0  0  0  0  0  0  0  0  0
   18.3565  -19.9700  -15.5963 C   0  0  0  0  0  0  0  0  0  0  0  0
   24.5529  -21.2288  -13.0246 N   0  0  0  0  0  0  0  0  0  0  0  0
   25.9497  -21.5122  -13.0445 C   0  0  1  0  0  0  0  0  0  0  0  0
   26.4389  -22.1145  -11.7448 C   0  0  0  0  0  0  0  0  0  0  0  0
   26.1943  -21.2554  -10.5762 C   0  0  0  0  0  0  0  0  0  0  0  0
   27.1725  -20.4717  -10.0097 C   0  0  0  0  0  0  0  0  0  0  0  0
   26.9154  -19.6667   -8.9026 C   0  0  0  0  0  0  0  0  0  0  0  0
   25.6614  -19.6270   -8.3313 C   0  0  0  0  0  0  0  0  0  0  0  0
   24.6792  -20.4062   -8.8907 C   0  0  0  0  0  0  0  0  0  0  0  0
   24.9517  -21.1924   -9.9809 C   0  0  0  0  0  0  0  0  0  0  0  0
   26.3029  -22.2758  -14.2408 C   0  0  0  0  0  0  0  0  0  0  0  0
   25.7125  -23.3452  -14.6005 O   0  0  0  0  0  0  0  0  0  0  0  0
   26.5255  -22.4592  -18.5209 O   0  0  0  0  0  0  0  0  0  0  0  0
   26.3177  -21.9587  -17.2426 C   0  0  0  0  0  0  0  0  0  0  0  0
   27.5421  -22.3343  -16.4114 C   0  0  2  0  0  0  0  0  0  0  0  0
   27.3570  -21.8291  -15.0743 N   0  0  0  0  0  0  0  0  0  0  0  0
   28.6865  -21.6332  -17.0277 C   0  0  0  0  0  0  0  0  0  0  0  0
   29.0739  -20.5028  -16.6477 O   0  0  0  0  0  0  0  0  0  0  0  0
   29.3672  -22.2420  -18.0705 O   0  0  0  0  0  0  0  0  0  0  0  0
  2  3  2  0
  2  1  1  0
  4  3  1  0
  5  4  2  0
  6  5  1  0
  7  6  1  0
  7  8  1  6
  9  7  1  0
  9 10  2  0
 11  5  1  0
 11 12  2  0
 12  2  1  0
 13  9  1  0
 14 13  1  0
 14 15  1  1
 16 15  1  0
 16 17  2  0
 18 17  1  0
 19 18  2  0
 20 21  2  0
 20 19  1  0
 21 16  1  0
 22 14  1  0
 23 22  2  0
 25 24  1  0
 26 25  1  6
 26 27  1  0
 27 22  1  0
 28 26  1  0
 28 30  1  0
 29 28  2  0
M  END
$$$$
