YFS.pdb
     RDKit          3D

 30 31  0  0  1  0  0  0  0  0999 V2000
   22.2349  -12.2974  -17.2289 O   0  0  0  0  0  0  0  0  0  0  0  0
   22.2526  -13.6430  -16.8518 C   0  0  0  0  0  0  0  0  0  0  0  0
   22.7021  -14.0312  -15.6071 C   0  0  0  0  0  0  0  0  0  0  0  0
   22.7173  -15.3612  -15.2403 C   0  0  0  0  0  0  0  0  0  0  0  0
   22.2872  -16.3637  -16.0922 C   0  0  0  0  0  0  0  0  0  0  0  0
   22.3153  -17.7902  -15.6683 C   0  0  0  0  0  0  0  0  0  0  0  0
   23.7177  -18.3551  -15.6586 C   0  0  2  0  0  0  0  0  0  0  0  0
   24.4224  -18.1432  -16.8862 N   0  0  0  0  0  0  0  0  0  0  0  0
   23.6109  -19.7919  -15.2965 C   0  0  0  0  0  0  0  0  0  0  0  0
   23.4358  -20.6164  -16.2278 O   0  0  0  0  0  0  0  0  0  0  0  0
   21.8390  -15.9661  -17.3358 C   0  0  0  0  0  0  0  0  0  0  0  0
   21.8223  -14.6362  -17.7067 C   0  0  0  0  0  0  0  0  0  0  0  0
   23.6947  -20.2802  -13.9715 N   0  0  0  0  0  0  0  0  0  0  0  0
   23.6007  -21.6794  -13.7165 C   0  0  1  0  0  0  0  0  0  0  0  0
   24.5112  -22.1277  -12.5934 C   0  0  0  0  0  0  0  0  0  0  0  0
   25.6357  -21.2102  -12.3538 C   0  0  0  0  0  0  0  0  0  0  0  0
   26.7157  -21.1183  -13.2005 C   0  0  0  0  0  0  0  0  0  0  0  0
   27.7687  -20.2414  -12.9511 C   0  0  0  0  0  0  0  0  0  0  0  0
   27.7650  -19.4284  -11.8377 C   0  0  0  0  0  0  0  0  0  0  0  0
   26.6906  -19.5139  -10.9874 C   0  0  0  0  0  0  0  0  0  0  0  0
   25.6633  -20.3836  -11.2500 C   0  0  0  0  0  0  0  0  0  0  0  0
   22.2029  -22.0822  -13.5651 C   0  0  0  0  0  0  0  0  0  0  0  0
   21.3471  -21.4332  -12.8810 O   0  0  0  0  0  0  0  0  0  0  0  0
   19.7778  -22.9201  -16.2382 O   0  0  0  0  0  0  0  0  0  0  0  0
   19.4928  -22.7194  -14.8943 C   0  0  0  0  0  0  0  0  0  0  0  0
   20.3657  -23.6904  -14.1027 C   0  0  2  0  0  0  0  0  0  0  0  0
   21.7364  -23.2565  -14.2043 N   0  0  0  0  0  0  0  0  0  0  0  0
   20.2332  -24.9999  -14.7725 C   0  0  0  0  0  0  0  0  0  0  0  0
   21.1747  -25.5382  -15.4018 O   0  0  0  0  0  0  0  0  0  0  0  0
   19.0212  -25.6695  -14.7086 O   0  0  0  0  0  0  0  0  0  0  0  0
  2  3  2  0
  2  1  1  0
  4  3  1  0
  5  4  2  0
  6  5  1  0
  7  6  1  0
  7  8  1  6
  9  7  1  0
  9 10  2  0
 11  5  1  0
 11 12  2  0
 12  2  1  0
 13  9  1  0
 14 13  1  0
 14 15  1  1
 16 15  1  0
 16 17  2  0
 18 17  1  0
 19 18  2  0
 20 21  2  0
 20 19  1  0
 21 16  1  0
 22 14  1  0
 23 22  2  0
 25 24  1  0
 26 25  1  6
 26 27  1  0
 27 22  1  0
 28 26  1  0
 28 30  1  0
 29 28  2  0
M  END
$$$$
