YFS.pdb
     RDKit          3D

 30 31  0  0  1  0  0  0  0  0999 V2000
   26.3128  -33.5644  -15.0928 O   0  0  0  0  0  0  0  0  0  0  0  0
   26.7020  -32.3733  -15.7119 C   0  0  0  0  0  0  0  0  0  0  0  0
   25.9486  -31.8128  -16.7221 C   0  0  0  0  0  0  0  0  0  0  0  0
   26.3378  -30.6368  -17.3297 C   0  0  0  0  0  0  0  0  0  0  0  0
   27.4910  -29.9658  -16.9615 C   0  0  0  0  0  0  0  0  0  0  0  0
   27.8852  -28.6985  -17.6355 C   0  0  0  0  0  0  0  0  0  0  0  0
   27.4021  -27.4786  -16.8845 C   0  0  2  0  0  0  0  0  0  0  0  0
   25.9965  -27.2475  -17.0234 N   0  0  0  0  0  0  0  0  0  0  0  0
   28.2228  -26.3273  -17.3407 C   0  0  0  0  0  0  0  0  0  0  0  0
   27.7233  -25.5595  -18.2002 O   0  0  0  0  0  0  0  0  0  0  0  0
   28.2388  -30.5339  -15.9498 C   0  0  0  0  0  0  0  0  0  0  0  0
   27.8528  -31.7106  -15.3393 C   0  0  0  0  0  0  0  0  0  0  0  0
   29.5256  -26.0492  -16.8652 N   0  0  0  0  0  0  0  0  0  0  0  0
   30.2080  -24.8727  -17.2917 C   0  0  1  0  0  0  0  0  0  0  0  0
   30.5557  -23.9533  -16.1406 C   0  0  0  0  0  0  0  0  0  0  0  0
   29.6961  -22.7619  -16.0665 C   0  0  0  0  0  0  0  0  0  0  0  0
   28.5649  -22.7067  -15.2861 C   0  0  0  0  0  0  0  0  0  0  0  0
   27.7670  -21.5663  -15.2335 C   0  0  0  0  0  0  0  0  0  0  0  0
   28.0860  -20.4440  -15.9679 C   0  0  0  0  0  0  0  0  0  0  0  0
   29.2136  -20.4908  -16.7496 C   0  0  0  0  0  0  0  0  0  0  0  0
   29.9866  -21.6230  -16.7881 C   0  0  0  0  0  0  0  0  0  0  0  0
   31.3346  -25.2168  -18.1584 C   0  0  0  0  0  0  0  0  0  0  0  0
   31.9844  -26.3090  -18.0781 O   0  0  0  0  0  0  0  0  0  0  0  0
   33.8981  -23.8567  -22.0167 O   0  0  0  0  0  0  0  0  0  0  0  0
   32.9234  -23.4885  -21.0989 C   0  0  0  0  0  0  0  0  0  0  0  0
   32.8186  -24.6208  -20.0802 C   0  0  2  0  0  0  0  0  0  0  0  0
   31.7552  -24.3074  -19.1592 N   0  0  0  0  0  0  0  0  0  0  0  0
   34.0975  -24.6271  -19.3416 C   0  0  0  0  0  0  0  0  0  0  0  0
   34.3713  -23.7866  -18.4523 O   0  0  0  0  0  0  0  0  0  0  0  0
   35.0408  -25.5989  -19.6366 O   0  0  0  0  0  0  0  0  0  0  0  0
  2  3  2  0
  2  1  1  0
  4  3  1  0
  5  4  2  0
  6  5  1  0
  7  6  1  0
  7  8  1  6
  9  7  1  0
  9 10  2  0
 11  5  1  0
 11 12  2  0
 12  2  1  0
 13  9  1  0
 14 13  1  0
 14 15  1  1
 16 15  1  0
 16 17  2  0
 18 17  1  0
 19 18  2  0
 20 21  2  0
 20 19  1  0
 21 16  1  0
 22 14  1  0
 23 22  2  0
 25 24  1  0
 26 25  1  6
 26 27  1  0
 27 22  1  0
 28 26  1  0
 28 30  1  0
 29 28  2  0
M  END
$$$$
