YFS.pdb
     RDKit          3D

 30 31  0  0  1  0  0  0  0  0999 V2000
   24.6573   -8.9843  -26.7254 O   0  0  0  0  0  0  0  0  0  0  0  0
   24.2573   -8.9589  -25.3864 C   0  0  0  0  0  0  0  0  0  0  0  0
   24.5540   -7.8866  -24.5714 C   0  0  0  0  0  0  0  0  0  0  0  0
   24.1565   -7.8671  -23.2503 C   0  0  0  0  0  0  0  0  0  0  0  0
   23.4476   -8.9103  -22.6805 C   0  0  0  0  0  0  0  0  0  0  0  0
   23.0323   -8.8608  -21.2520 C   0  0  0  0  0  0  0  0  0  0  0  0
   24.1681   -9.2046  -20.3153 C   0  0  2  0  0  0  0  0  0  0  0  0
   24.6367  -10.5489  -20.4623 N   0  0  0  0  0  0  0  0  0  0  0  0
   23.7073   -8.9030  -18.9355 C   0  0  0  0  0  0  0  0  0  0  0  0
   22.8786   -9.6890  -18.4128 O   0  0  0  0  0  0  0  0  0  0  0  0
   23.1550   -9.9792  -23.5035 C   0  0  0  0  0  0  0  0  0  0  0  0
   23.5510  -10.0026  -24.8260 C   0  0  0  0  0  0  0  0  0  0  0  0
   24.1460   -7.7886  -18.1828 N   0  0  0  0  0  0  0  0  0  0  0  0
   23.6964   -7.6077  -16.8424 C   0  0  1  0  0  0  0  0  0  0  0  0
   24.8394   -7.4496  -15.8626 C   0  0  0  0  0  0  0  0  0  0  0  0
   25.7042   -8.6365  -15.7801 C   0  0  0  0  0  0  0  0  0  0  0  0
   25.4577   -9.6796  -14.9181 C   0  0  0  0  0  0  0  0  0  0  0  0
   26.2926  -10.7929  -14.8587 C   0  0  0  0  0  0  0  0  0  0  0  0
   27.4042  -10.8888  -15.6685 C   0  0  0  0  0  0  0  0  0  0  0  0
   27.6575   -9.8519  -16.5319 C   0  0  0  0  0  0  0  0  0  0  0  0
   26.8236   -8.7640  -16.5758 C   0  0  0  0  0  0  0  0  0  0  0  0
   22.6868   -6.5516  -16.7763 C   0  0  0  0  0  0  0  0  0  0  0  0
   22.7578   -5.4597  -17.4277 O   0  0  0  0  0  0  0  0  0  0  0  0
   19.0345   -6.8573  -17.4115 O   0  0  0  0  0  0  0  0  0  0  0  0
   19.8242   -5.7203  -17.3050 C   0  0  0  0  0  0  0  0  0  0  0  0
   20.4750   -5.7562  -15.9243 C   0  0  2  0  0  0  0  0  0  0  0  0
   21.5478   -6.7184  -15.9516 N   0  0  0  0  0  0  0  0  0  0  0  0
   19.4338   -6.2350  -14.9929 C   0  0  0  0  0  0  0  0  0  0  0  0
   18.4142   -5.5617  -14.7111 O   0  0  0  0  0  0  0  0  0  0  0  0
   19.5808   -7.4795  -14.4004 O   0  0  0  0  0  0  0  0  0  0  0  0
  2  3  2  0
  2  1  1  0
  4  3  1  0
  5  4  2  0
  6  5  1  0
  7  6  1  0
  7  8  1  1
  9  7  1  0
  9 10  2  0
 11  5  1  0
 11 12  2  0
 12  2  1  0
 13  9  1  0
 14 13  1  0
 14 15  1  1
 16 15  1  0
 16 17  2  0
 18 17  1  0
 19 18  2  0
 20 21  2  0
 20 19  1  0
 21 16  1  0
 22 14  1  0
 23 22  2  0
 25 24  1  0
 26 25  1  6
 26 27  1  0
 27 22  1  0
 28 26  1  0
 28 30  1  0
 29 28  2  0
M  END
$$$$
