YFS.pdb
     RDKit          3D

 30 31  0  0  1  0  0  0  0  0999 V2000
   14.1927  -22.4492    0.2609 O   0  0  0  0  0  0  0  0  0  0  0  0
   15.0320  -21.7385    1.1233 C   0  0  0  0  0  0  0  0  0  0  0  0
   14.6619  -21.4751    2.4256 C   0  0  0  0  0  0  0  0  0  0  0  0
   15.4946  -20.7730    3.2725 C   0  0  0  0  0  0  0  0  0  0  0  0
   16.7304  -20.3018    2.8645 C   0  0  0  0  0  0  0  0  0  0  0  0
   17.6071  -19.5472    3.8012 C   0  0  0  0  0  0  0  0  0  0  0  0
   17.4142  -18.0523    3.6842 C   0  0  2  0  0  0  0  0  0  0  0  0
   17.6518  -17.5518    2.3645 N   0  0  0  0  0  0  0  0  0  0  0  0
   18.2831  -17.4150    4.7069 C   0  0  0  0  0  0  0  0  0  0  0  0
   19.5064  -17.3030    4.4446 O   0  0  0  0  0  0  0  0  0  0  0  0
   17.0925  -20.5700    1.5598 C   0  0  0  0  0  0  0  0  0  0  0  0
   16.2621  -21.2722    0.7090 C   0  0  0  0  0  0  0  0  0  0  0  0
   17.8138  -16.9308    5.9504 N   0  0  0  0  0  0  0  0  0  0  0  0
   18.7004  -16.2498    6.8346 C   0  0  1  0  0  0  0  0  0  0  0  0
   18.1833  -14.8857    7.2389 C   0  0  0  0  0  0  0  0  0  0  0  0
   18.8121  -13.7814    6.4980 C   0  0  0  0  0  0  0  0  0  0  0  0
   18.2854  -13.2691    5.3353 C   0  0  0  0  0  0  0  0  0  0  0  0
   18.9005  -12.2229    4.6519 C   0  0  0  0  0  0  0  0  0  0  0  0
   20.0681  -11.6598    5.1211 C   0  0  0  0  0  0  0  0  0  0  0  0
   20.6005  -12.1652    6.2811 C   0  0  0  0  0  0  0  0  0  0  0  0
   19.9801  -13.1959    6.9398 C   0  0  0  0  0  0  0  0  0  0  0  0
   19.0770  -17.1143    7.9525 C   0  0  0  0  0  0  0  0  0  0  0  0
   18.3198  -18.0143    8.4404 O   0  0  0  0  0  0  0  0  0  0  0  0
   22.3503  -19.1080    8.4321 O   0  0  0  0  0  0  0  0  0  0  0  0
   22.2722  -18.1374    9.4218 C   0  0  0  0  0  0  0  0  0  0  0  0
   20.7914  -17.8268    9.6269 C   0  0  2  0  0  0  0  0  0  0  0  0
   20.3522  -16.9731    8.5519 N   0  0  0  0  0  0  0  0  0  0  0  0
   20.7024  -17.0746   10.8947 C   0  0  0  0  0  0  0  0  0  0  0  0
   20.3407  -15.8751   10.9477 O   0  0  0  0  0  0  0  0  0  0  0  0
   21.0302  -17.7125   12.0808 O   0  0  0  0  0  0  0  0  0  0  0  0
  2  3  2  0
  2  1  1  0
  4  3  1  0
  5  4  2  0
  6  5  1  0
  7  6  1  0
  7  8  1  6
  9  7  1  0
  9 10  2  0
 11  5  1  0
 11 12  2  0
 12  2  1  0
 13  9  1  0
 14 13  1  0
 14 15  1  1
 16 15  1  0
 16 17  2  0
 18 17  1  0
 19 18  2  0
 20 21  2  0
 20 19  1  0
 21 16  1  0
 22 14  1  0
 23 22  2  0
 25 24  1  0
 26 25  1  6
 26 27  1  0
 27 22  1  0
 28 26  1  0
 28 30  1  0
 29 28  2  0
M  END
$$$$
