YFS.pdb
     RDKit          3D

 30 31  0  0  1  0  0  0  0  0999 V2000
   18.8329   -9.0740  -26.8629 O   0  0  0  0  0  0  0  0  0  0  0  0
   18.8772   -8.8783  -25.4798 C   0  0  0  0  0  0  0  0  0  0  0  0
   17.8207   -9.2429  -24.6716 C   0  0  0  0  0  0  0  0  0  0  0  0
   17.8700   -9.0473  -23.3067 C   0  0  0  0  0  0  0  0  0  0  0  0
   18.9692   -8.4816  -22.6844 C   0  0  0  0  0  0  0  0  0  0  0  0
   18.9934   -8.2831  -21.2094 C   0  0  0  0  0  0  0  0  0  0  0  0
   19.7110   -9.4053  -20.4943 C   0  0  2  0  0  0  0  0  0  0  0  0
   19.0953  -10.6833  -20.6840 N   0  0  0  0  0  0  0  0  0  0  0  0
   19.8118   -9.0215  -19.0626 C   0  0  0  0  0  0  0  0  0  0  0  0
   18.9278   -9.4510  -18.2803 O   0  0  0  0  0  0  0  0  0  0  0  0
   20.0218   -8.1198  -23.5008 C   0  0  0  0  0  0  0  0  0  0  0  0
   19.9764   -8.3139  -24.8671 C   0  0  0  0  0  0  0  0  0  0  0  0
   20.8396   -8.2056  -18.5348 N   0  0  0  0  0  0  0  0  0  0  0  0
   20.8517   -7.8760  -17.1481 C   0  0  1  0  0  0  0  0  0  0  0  0
   22.2429   -7.9188  -16.5529 C   0  0  0  0  0  0  0  0  0  0  0  0
   22.2797   -7.5453  -15.1307 C   0  0  0  0  0  0  0  0  0  0  0  0
   22.3841   -6.2415  -14.7052 C   0  0  0  0  0  0  0  0  0  0  0  0
   22.4174   -5.9137  -13.3519 C   0  0  0  0  0  0  0  0  0  0  0  0
   22.3462   -6.8927  -12.3839 C   0  0  0  0  0  0  0  0  0  0  0  0
   22.2418   -8.1968  -12.8001 C   0  0  0  0  0  0  0  0  0  0  0  0
   22.2106   -8.4996  -14.1374 C   0  0  0  0  0  0  0  0  0  0  0  0
   20.1247   -6.6298  -16.9088 C   0  0  0  0  0  0  0  0  0  0  0  0
   20.3431   -5.5474  -17.5432 O   0  0  0  0  0  0  0  0  0  0  0  0
   16.2890   -6.2333  -16.4126 O   0  0  0  0  0  0  0  0  0  0  0  0
   16.9312   -5.8024  -15.2595 C   0  0  0  0  0  0  0  0  0  0  0  0
   18.3454   -5.3920  -15.6628 C   0  0  2  0  0  0  0  0  0  0  0  0
   19.1092   -6.5863  -15.9228 N   0  0  0  0  0  0  0  0  0  0  0  0
   18.9237   -4.7070  -14.4891 C   0  0  0  0  0  0  0  0  0  0  0  0
   19.0244   -5.2547  -13.3657 O   0  0  0  0  0  0  0  0  0  0  0  0
   19.3766   -3.4041  -14.6253 O   0  0  0  0  0  0  0  0  0  0  0  0
  2  3  2  0
  2  1  1  0
  4  3  1  0
  5  4  2  0
  6  5  1  0
  7  6  1  0
  7  8  1  1
  9  7  1  0
  9 10  2  0
 11  5  1  0
 11 12  2  0
 12  2  1  0
 13  9  1  0
 14 13  1  0
 14 15  1  6
 16 15  1  0
 16 17  2  0
 18 17  1  0
 19 18  2  0
 20 21  2  0
 20 19  1  0
 21 16  1  0
 22 14  1  0
 23 22  2  0
 25 24  1  0
 26 25  1  1
 26 27  1  0
 27 22  1  0
 28 26  1  0
 28 30  1  0
 29 28  2  0
M  END
$$$$
