YFS.pdb
     RDKit          3D

 30 31  0  0  1  0  0  0  0  0999 V2000
   29.8059  -13.9309  -16.5296 O   0  0  0  0  0  0  0  0  0  0  0  0
   28.9110  -12.8573  -16.5367 C   0  0  0  0  0  0  0  0  0  0  0  0
   28.3622  -12.3758  -15.3666 C   0  0  0  0  0  0  0  0  0  0  0  0
   27.4793  -11.3156  -15.3798 C   0  0  0  0  0  0  0  0  0  0  0  0
   27.1025  -10.6872  -16.5540 C   0  0  0  0  0  0  0  0  0  0  0  0
   26.1477   -9.5455  -16.5367 C   0  0  0  0  0  0  0  0  0  0  0  0
   24.7202   -9.9985  -16.3304 C   0  0  2  0  0  0  0  0  0  0  0  0
   24.2916  -10.9739  -17.2861 N   0  0  0  0  0  0  0  0  0  0  0  0
   23.8682   -8.7815  -16.3281 C   0  0  0  0  0  0  0  0  0  0  0  0
   23.1466   -8.5730  -17.3349 O   0  0  0  0  0  0  0  0  0  0  0  0
   27.6567  -11.1757  -17.7201 C   0  0  0  0  0  0  0  0  0  0  0  0
   28.5406  -12.2364  -17.7113 C   0  0  0  0  0  0  0  0  0  0  0  0
   23.8241   -7.8510  -15.2635 N   0  0  0  0  0  0  0  0  0  0  0  0
   22.9060   -6.7614  -15.3021 C   0  0  1  0  0  0  0  0  0  0  0  0
   22.3375   -6.4322  -13.9383 C   0  0  0  0  0  0  0  0  0  0  0  0
   21.3909   -5.3066  -13.9581 C   0  0  0  0  0  0  0  0  0  0  0  0
   20.0265   -5.4803  -13.9497 C   0  0  0  0  0  0  0  0  0  0  0  0
   19.1507   -4.3974  -13.9692 C   0  0  0  0  0  0  0  0  0  0  0  0
   19.6250   -3.1032  -13.9979 C   0  0  0  0  0  0  0  0  0  0  0  0
   20.9857   -2.9210  -14.0064 C   0  0  0  0  0  0  0  0  0  0  0  0
   21.8319   -4.0001  -13.9869 C   0  0  0  0  0  0  0  0  0  0  0  0
   23.4886   -5.6223  -16.0104 C   0  0  0  0  0  0  0  0  0  0  0  0
   24.6562   -5.1672  -15.7840 O   0  0  0  0  0  0  0  0  0  0  0  0
   21.7400   -4.5528  -19.3615 O   0  0  0  0  0  0  0  0  0  0  0  0
   23.0236   -4.0423  -19.2229 C   0  0  0  0  0  0  0  0  0  0  0  0
   23.2582   -3.8225  -17.7303 C   0  0  2  0  0  0  0  0  0  0  0  0
   22.7409   -4.9622  -17.0156 N   0  0  0  0  0  0  0  0  0  0  0  0
   22.4644   -2.6329  -17.3617 C   0  0  0  0  0  0  0  0  0  0  0  0
   22.7711   -1.4731  -17.7266 O   0  0  0  0  0  0  0  0  0  0  0  0
   21.3314   -2.7951  -16.5798 O   0  0  0  0  0  0  0  0  0  0  0  0
  2  3  2  0
  2  1  1  0
  4  3  1  0
  5  4  2  0
  6  5  1  0
  7  6  1  0
  7  8  1  6
  9  7  1  0
  9 10  2  0
 11  5  1  0
 11 12  2  0
 12  2  1  0
 13  9  1  0
 14 13  1  0
 14 15  1  1
 16 15  1  0
 16 17  2  0
 18 17  1  0
 19 18  2  0
 20 21  2  0
 20 19  1  0
 21 16  1  0
 22 14  1  0
 23 22  2  0
 25 24  1  0
 26 25  1  6
 26 27  1  0
 27 22  1  0
 28 26  1  0
 28 30  1  0
 29 28  2  0
M  END
$$$$
