YFS.pdb
     RDKit          3D

 30 31  0  0  1  0  0  0  0  0999 V2000
   22.6672  -18.6542  -17.0741 O   0  0  0  0  0  0  0  0  0  0  0  0
   23.0811  -19.0865  -15.8111 C   0  0  0  0  0  0  0  0  0  0  0  0
   22.5868  -20.2478  -15.2550 C   0  0  0  0  0  0  0  0  0  0  0  0
   22.9991  -20.6696  -14.0077 C   0  0  0  0  0  0  0  0  0  0  0  0
   23.9195  -19.9578  -13.2580 C   0  0  0  0  0  0  0  0  0  0  0  0
   24.3452  -20.4381  -11.9150 C   0  0  0  0  0  0  0  0  0  0  0  0
   25.7714  -20.9396  -11.9141 C   0  0  2  0  0  0  0  0  0  0  0  0
   25.9580  -22.1186  -12.7037 N   0  0  0  0  0  0  0  0  0  0  0  0
   26.1709  -21.1273  -10.4955 C   0  0  0  0  0  0  0  0  0  0  0  0
   25.8291  -22.1956   -9.9300 O   0  0  0  0  0  0  0  0  0  0  0  0
   24.4088  -18.7970  -13.8223 C   0  0  0  0  0  0  0  0  0  0  0  0
   23.9988  -18.3714  -15.0702 C   0  0  0  0  0  0  0  0  0  0  0  0
   26.9092  -20.1776   -9.7513 N   0  0  0  0  0  0  0  0  0  0  0  0
   27.1988  -20.4138   -8.3758 C   0  0  1  0  0  0  0  0  0  0  0  0
   28.4591  -19.7108   -7.9184 C   0  0  0  0  0  0  0  0  0  0  0  0
   28.6448  -19.7387   -6.4596 C   0  0  0  0  0  0  0  0  0  0  0  0
   29.2930  -20.7636   -5.8104 C   0  0  0  0  0  0  0  0  0  0  0  0
   29.4557  -20.7668   -4.4272 C   0  0  0  0  0  0  0  0  0  0  0  0
   28.9688  -19.7343   -3.6542 C   0  0  0  0  0  0  0  0  0  0  0  0
   28.3205  -18.7073   -4.2943 C   0  0  0  0  0  0  0  0  0  0  0  0
   28.1702  -18.7221   -5.6574 C   0  0  0  0  0  0  0  0  0  0  0  0
   26.0210  -20.1516   -7.5494 C   0  0  0  0  0  0  0  0  0  0  0  0
   25.3545  -19.0672   -7.5867 O   0  0  0  0  0  0  0  0  0  0  0  0
   24.4228  -23.2659   -5.6990 O   0  0  0  0  0  0  0  0  0  0  0  0
   23.5626  -22.1807   -5.8004 C   0  0  0  0  0  0  0  0  0  0  0  0
   24.4272  -20.9224   -5.7840 C   0  0  2  0  0  0  0  0  0  0  0  0
   25.5633  -21.1396   -6.6439 N   0  0  0  0  0  0  0  0  0  0  0  0
   24.9069  -20.7729   -4.3953 C   0  0  0  0  0  0  0  0  0  0  0  0
   26.1187  -20.8552   -4.0837 O   0  0  0  0  0  0  0  0  0  0  0  0
   23.9867  -20.5313   -3.3873 O   0  0  0  0  0  0  0  0  0  0  0  0
  2  3  2  0
  2  1  1  0
  4  3  1  0
  5  4  2  0
  6  5  1  0
  7  6  1  0
  7  8  1  6
  9  7  1  0
  9 10  2  0
 11  5  1  0
 11 12  2  0
 12  2  1  0
 13  9  1  0
 14 13  1  0
 14 15  1  1
 16 15  1  0
 16 17  2  0
 18 17  1  0
 19 18  2  0
 20 21  2  0
 20 19  1  0
 21 16  1  0
 22 14  1  0
 23 22  2  0
 25 24  1  0
 26 25  1  1
 26 27  1  0
 27 22  1  0
 28 26  1  0
 28 30  1  0
 29 28  2  0
M  END
$$$$
