YFS.pdb
     RDKit          3D

 30 31  0  0  1  0  0  0  0  0999 V2000
   20.3900  -19.4423  -15.5330 O   0  0  0  0  0  0  0  0  0  0  0  0
   21.2069  -19.8047  -14.4584 C   0  0  0  0  0  0  0  0  0  0  0  0
   21.7569  -21.0666  -14.3717 C   0  0  0  0  0  0  0  0  0  0  0  0
   22.5627  -21.4188  -13.3085 C   0  0  0  0  0  0  0  0  0  0  0  0
   22.8578  -20.5346  -12.2853 C   0  0  0  0  0  0  0  0  0  0  0  0
   23.7304  -20.9434  -11.1509 C   0  0  0  0  0  0  0  0  0  0  0  0
   25.1667  -20.5169  -11.3534 C   0  0  2  0  0  0  0  0  0  0  0  0
   25.7982  -21.1620  -12.4640 N   0  0  0  0  0  0  0  0  0  0  0  0
   25.8797  -20.7493  -10.0709 C   0  0  0  0  0  0  0  0  0  0  0  0
   26.1997  -21.9305   -9.7875 O   0  0  0  0  0  0  0  0  0  0  0  0
   22.3031  -19.2741  -12.3803 C   0  0  0  0  0  0  0  0  0  0  0  0
   21.4963  -18.9177  -13.4426 C   0  0  0  0  0  0  0  0  0  0  0  0
   26.2161  -19.7228   -9.1577 N   0  0  0  0  0  0  0  0  0  0  0  0
   26.9183  -20.0339   -7.9570 C   0  0  1  0  0  0  0  0  0  0  0  0
   27.7898  -18.8914   -7.4810 C   0  0  0  0  0  0  0  0  0  0  0  0
   28.4928  -19.1806   -6.2217 C   0  0  0  0  0  0  0  0  0  0  0  0
   28.1870  -18.5532   -5.0366 C   0  0  0  0  0  0  0  0  0  0  0  0
   28.8682  -18.8446   -3.8571 C   0  0  0  0  0  0  0  0  0  0  0  0
   29.8809  -19.7798   -3.8365 C   0  0  0  0  0  0  0  0  0  0  0  0
   30.1925  -20.4107   -5.0153 C   0  0  0  0  0  0  0  0  0  0  0  0
   29.5103  -20.1101   -6.1664 C   0  0  0  0  0  0  0  0  0  0  0  0
   26.0021  -20.5630   -6.9473 C   0  0  0  0  0  0  0  0  0  0  0  0
   24.8914  -20.0200   -6.6423 O   0  0  0  0  0  0  0  0  0  0  0  0
   25.6822  -24.0736   -3.7056 O   0  0  0  0  0  0  0  0  0  0  0  0
   25.8276  -23.7773   -5.0542 C   0  0  0  0  0  0  0  0  0  0  0  0
   25.4805  -22.3006   -5.2270 C   0  0  2  0  0  0  0  0  0  0  0  0
   26.3349  -21.7486   -6.2481 N   0  0  0  0  0  0  0  0  0  0  0  0
   25.8010  -21.6510   -3.9400 C   0  0  0  0  0  0  0  0  0  0  0  0
   26.8195  -20.9384   -3.7751 O   0  0  0  0  0  0  0  0  0  0  0  0
   24.9464  -21.8307   -2.8637 O   0  0  0  0  0  0  0  0  0  0  0  0
  2  3  2  0
  2  1  1  0
  4  3  1  0
  5  4  2  0
  6  5  1  0
  7  6  1  0
  7  8  1  6
  9  7  1  0
  9 10  2  0
 11  5  1  0
 11 12  2  0
 12  2  1  0
 13  9  1  0
 14 13  1  0
 14 15  1  1
 16 15  1  0
 16 17  2  0
 18 17  1  0
 19 18  2  0
 20 21  2  0
 20 19  1  0
 21 16  1  0
 22 14  1  0
 23 22  2  0
 25 24  1  0
 26 25  1  1
 26 27  1  0
 27 22  1  0
 28 26  1  0
 28 30  1  0
 29 28  2  0
M  END
$$$$
