YFS.pdb
     RDKit          3D

 30 31  0  0  1  0  0  0  0  0999 V2000
   29.2658  -15.5551  -17.5340 O   0  0  0  0  0  0  0  0  0  0  0  0
   28.6150  -16.4947  -16.7297 C   0  0  0  0  0  0  0  0  0  0  0  0
   28.1255  -16.1549  -15.4859 C   0  0  0  0  0  0  0  0  0  0  0  0
   27.4838  -17.0868  -14.6962 C   0  0  0  0  0  0  0  0  0  0  0  0
   27.3000  -18.3959  -15.1060 C   0  0  0  0  0  0  0  0  0  0  0  0
   26.6036  -19.3790  -14.2318 C   0  0  0  0  0  0  0  0  0  0  0  0
   27.5403  -20.0163  -13.2307 C   0  0  2  0  0  0  0  0  0  0  0  0
   28.4664  -20.9320  -13.8243 N   0  0  0  0  0  0  0  0  0  0  0  0
   26.6995  -20.6471  -12.1809 C   0  0  0  0  0  0  0  0  0  0  0  0
   26.4278  -21.8670  -12.3065 O   0  0  0  0  0  0  0  0  0  0  0  0
   27.7930  -18.7271  -16.3520 C   0  0  0  0  0  0  0  0  0  0  0  0
   28.4357  -17.7976  -17.1454 C   0  0  0  0  0  0  0  0  0  0  0  0
   26.1914  -19.9562  -11.0560 N   0  0  0  0  0  0  0  0  0  0  0  0
   25.1801  -20.5512  -10.2466 C   0  0  1  0  0  0  0  0  0  0  0  0
   25.0546  -19.8871   -8.8921 C   0  0  0  0  0  0  0  0  0  0  0  0
   26.2754  -19.9894   -8.0779 C   0  0  0  0  0  0  0  0  0  0  0  0
   26.8901  -21.1890   -7.8042 C   0  0  0  0  0  0  0  0  0  0  0  0
   28.0457  -21.2593   -7.0299 C   0  0  0  0  0  0  0  0  0  0  0  0
   28.6182  -20.1196   -6.5066 C   0  0  0  0  0  0  0  0  0  0  0  0
   28.0109  -18.9180   -6.7750 C   0  0  0  0  0  0  0  0  0  0  0  0
   26.8734  -18.8692   -7.5397 C   0  0  0  0  0  0  0  0  0  0  0  0
   23.9252  -20.6618  -10.9895 C   0  0  0  0  0  0  0  0  0  0  0  0
   23.6287  -19.9378  -11.9943 O   0  0  0  0  0  0  0  0  0  0  0  0
   20.7396  -22.5713   -9.3391 O   0  0  0  0  0  0  0  0  0  0  0  0
   20.9435  -22.9366  -10.6630 C   0  0  0  0  0  0  0  0  0  0  0  0
   21.7266  -21.8043  -11.3232 C   0  0  2  0  0  0  0  0  0  0  0  0
   22.9592  -21.6209  -10.5991 N   0  0  0  0  0  0  0  0  0  0  0  0
   20.9010  -20.5898  -11.1670 C   0  0  0  0  0  0  0  0  0  0  0  0
   19.7498  -20.4851  -11.6528 O   0  0  0  0  0  0  0  0  0  0  0  0
   21.4115  -19.5154  -10.4554 O   0  0  0  0  0  0  0  0  0  0  0  0
  2  3  2  0
  2  1  1  0
  4  3  1  0
  5  4  2  0
  6  5  1  0
  7  6  1  0
  7  8  1  6
  9  7  1  0
  9 10  2  0
 11  5  1  0
 11 12  2  0
 12  2  1  0
 13  9  1  0
 14 13  1  0
 14 15  1  1
 16 15  1  0
 16 17  2  0
 18 17  1  0
 19 18  2  0
 20 21  2  0
 20 19  1  0
 21 16  1  0
 22 14  1  0
 23 22  2  0
 25 24  1  0
 26 25  1  1
 26 27  1  0
 27 22  1  0
 28 26  1  0
 28 30  1  0
 29 28  2  0
M  END
$$$$
