YFS.pdb
     RDKit          3D

 30 31  0  0  1  0  0  0  0  0999 V2000
   28.4597  -16.0370  -16.9494 O   0  0  0  0  0  0  0  0  0  0  0  0
   28.0119  -16.9851  -16.0253 C   0  0  0  0  0  0  0  0  0  0  0  0
   28.0120  -18.3314  -16.3247 C   0  0  0  0  0  0  0  0  0  0  0  0
   27.5688  -19.2628  -15.4084 C   0  0  0  0  0  0  0  0  0  0  0  0
   27.1063  -18.8992  -14.1555 C   0  0  0  0  0  0  0  0  0  0  0  0
   26.6343  -19.9271  -13.1879 C   0  0  0  0  0  0  0  0  0  0  0  0
   27.6654  -20.2242  -12.1229 C   0  0  2  0  0  0  0  0  0  0  0  0
   28.6854  -21.1288  -12.5583 N   0  0  0  0  0  0  0  0  0  0  0  0
   26.9336  -20.7142  -10.9264 C   0  0  0  0  0  0  0  0  0  0  0  0
   26.7365  -21.9510  -10.8295 O   0  0  0  0  0  0  0  0  0  0  0  0
   27.1097  -17.5499  -13.8646 C   0  0  0  0  0  0  0  0  0  0  0  0
   27.5525  -16.6146  -14.7787 C   0  0  0  0  0  0  0  0  0  0  0  0
   26.4498  -19.8724   -9.8977 N   0  0  0  0  0  0  0  0  0  0  0  0
   25.5158  -20.3715   -8.9436 C   0  0  1  0  0  0  0  0  0  0  0  0
   25.4350  -19.5079   -7.7030 C   0  0  0  0  0  0  0  0  0  0  0  0
   26.5412  -19.7367   -6.7609 C   0  0  0  0  0  0  0  0  0  0  0  0
   26.6084  -20.8421   -5.9451 C   0  0  0  0  0  0  0  0  0  0  0  0
   27.6668  -21.0357   -5.0607 C   0  0  0  0  0  0  0  0  0  0  0  0
   28.6923  -20.1186   -4.9716 C   0  0  0  0  0  0  0  0  0  0  0  0
   28.6329  -19.0124   -5.7825 C   0  0  0  0  0  0  0  0  0  0  0  0
   27.5824  -18.8394   -6.6469 C   0  0  0  0  0  0  0  0  0  0  0  0
   24.2278  -20.6465   -9.5794 C   0  0  0  0  0  0  0  0  0  0  0  0
   23.8323  -20.0876  -10.6531 O   0  0  0  0  0  0  0  0  0  0  0  0
   21.5283  -22.5054   -7.4130 O   0  0  0  0  0  0  0  0  0  0  0  0
   21.3810  -22.9546   -8.7185 C   0  0  0  0  0  0  0  0  0  0  0  0
   22.0947  -21.9499   -9.6198 C   0  0  2  0  0  0  0  0  0  0  0  0
   23.3423  -21.5855   -8.9968 N   0  0  0  0  0  0  0  0  0  0  0  0
   21.2258  -20.7568   -9.6718 C   0  0  0  0  0  0  0  0  0  0  0  0
   21.5811  -19.6392   -9.2278 O   0  0  0  0  0  0  0  0  0  0  0  0
   19.9632  -20.8670  -10.2330 O   0  0  0  0  0  0  0  0  0  0  0  0
  2  3  2  0
  2  1  1  0
  4  3  1  0
  5  4  2  0
  6  5  1  0
  7  6  1  0
  7  8  1  6
  9  7  1  0
  9 10  2  0
 11  5  1  0
 11 12  2  0
 12  2  1  0
 13  9  1  0
 14 13  1  0
 14 15  1  1
 16 15  1  0
 16 17  2  0
 18 17  1  0
 19 18  2  0
 20 21  2  0
 20 19  1  0
 21 16  1  0
 22 14  1  0
 23 22  2  0
 25 24  1  0
 26 25  1  1
 26 27  1  0
 27 22  1  0
 28 26  1  0
 28 30  1  0
 29 28  2  0
M  END
$$$$
