YFS.pdb
     RDKit          3D

 30 31  0  0  1  0  0  0  0  0999 V2000
   28.8794  -19.5033  -22.8365 O   0  0  0  0  0  0  0  0  0  0  0  0
   28.1934  -19.8536  -21.6703 C   0  0  0  0  0  0  0  0  0  0  0  0
   28.5532  -19.3326  -20.4450 C   0  0  0  0  0  0  0  0  0  0  0  0
   27.8723  -19.6821  -19.2970 C   0  0  0  0  0  0  0  0  0  0  0  0
   26.8051  -20.5633  -19.3146 C   0  0  0  0  0  0  0  0  0  0  0  0
   26.0898  -20.9214  -18.0594 C   0  0  0  0  0  0  0  0  0  0  0  0
   26.8056  -22.0037  -17.2835 C   0  0  2  0  0  0  0  0  0  0  0  0
   26.7964  -23.2740  -17.9428 N   0  0  0  0  0  0  0  0  0  0  0  0
   26.1944  -22.0526  -15.9303 C   0  0  0  0  0  0  0  0  0  0  0  0
   25.1374  -22.7170  -15.7917 O   0  0  0  0  0  0  0  0  0  0  0  0
   26.4521  -21.0797  -20.5451 C   0  0  0  0  0  0  0  0  0  0  0  0
   27.1309  -20.7326  -21.6963 C   0  0  0  0  0  0  0  0  0  0  0  0
   26.7319  -21.3979  -14.7975 N   0  0  0  0  0  0  0  0  0  0  0  0
   26.0270  -21.4152  -13.5587 C   0  0  1  0  0  0  0  0  0  0  0  0
   26.8631  -20.8986  -12.4073 C   0  0  0  0  0  0  0  0  0  0  0  0
   26.1170  -20.8013  -11.1434 C   0  0  0  0  0  0  0  0  0  0  0  0
   25.9190  -21.8777  -10.3103 C   0  0  0  0  0  0  0  0  0  0  0  0
   25.2082  -21.7596   -9.1184 C   0  0  0  0  0  0  0  0  0  0  0  0
   24.6740  -20.5498   -8.7290 C   0  0  0  0  0  0  0  0  0  0  0  0
   24.8671  -19.4703   -9.5549 C   0  0  0  0  0  0  0  0  0  0  0  0
   25.5699  -19.6065  -10.7246 C   0  0  0  0  0  0  0  0  0  0  0  0
   24.7214  -20.7715  -13.7003 C   0  0  0  0  0  0  0  0  0  0  0  0
   24.5522  -19.6106  -14.1955 O   0  0  0  0  0  0  0  0  0  0  0  0
   20.0648  -21.1203  -14.1041 O   0  0  0  0  0  0  0  0  0  0  0  0
   21.3146  -21.7249  -14.1178 C   0  0  0  0  0  0  0  0  0  0  0  0
   22.2525  -20.8301  -13.3111 C   0  0  2  0  0  0  0  0  0  0  0  0
   23.5533  -21.4497  -13.2749 N   0  0  0  0  0  0  0  0  0  0  0  0
   21.7067  -20.7957  -11.9393 C   0  0  0  0  0  0  0  0  0  0  0  0
   20.9595  -19.8758  -11.5295 O   0  0  0  0  0  0  0  0  0  0  0  0
   22.0280  -21.8185  -11.0607 O   0  0  0  0  0  0  0  0  0  0  0  0
  2  3  2  0
  2  1  1  0
  4  3  1  0
  5  4  2  0
  6  5  1  0
  7  6  1  0
  7  8  1  6
  9  7  1  0
  9 10  2  0
 11  5  1  0
 11 12  2  0
 12  2  1  0
 13  9  1  0
 14 13  1  0
 14 15  1  1
 16 15  1  0
 16 17  2  0
 18 17  1  0
 19 18  2  0
 20 21  2  0
 20 19  1  0
 21 16  1  0
 22 14  1  0
 23 22  2  0
 25 24  1  0
 26 25  1  6
 26 27  1  0
 27 22  1  0
 28 26  1  0
 28 30  1  0
 29 28  2  0
M  END
$$$$
