YFS.pdb
     RDKit          3D

 30 31  0  0  1  0  0  0  0  0999 V2000
   24.2017  -30.6468   -8.8808 O   0  0  0  0  0  0  0  0  0  0  0  0
   25.0628  -31.5164   -8.2058 C   0  0  0  0  0  0  0  0  0  0  0  0
   25.7700  -32.4894   -8.8805 C   0  0  0  0  0  0  0  0  0  0  0  0
   26.6187  -33.3451   -8.2088 C   0  0  0  0  0  0  0  0  0  0  0  0
   26.8026  -33.2728   -6.8389 C   0  0  0  0  0  0  0  0  0  0  0  0
   27.7252  -34.2101   -6.1419 C   0  0  0  0  0  0  0  0  0  0  0  0
   29.1773  -33.8554   -6.3684 C   0  0  2  0  0  0  0  0  0  0  0  0
   29.6402  -34.1754   -7.6843 N   0  0  0  0  0  0  0  0  0  0  0  0
   29.9655  -34.5251   -5.3020 C   0  0  0  0  0  0  0  0  0  0  0  0
   30.3997  -35.6803   -5.5362 O   0  0  0  0  0  0  0  0  0  0  0  0
   26.0909  -32.2961   -6.1719 C   0  0  0  0  0  0  0  0  0  0  0  0
   25.2406  -31.4378   -6.8403 C   0  0  0  0  0  0  0  0  0  0  0  0
   30.2524  -33.9394   -4.0468 N   0  0  0  0  0  0  0  0  0  0  0  0
   31.0950  -34.6153   -3.1168 C   0  0  1  0  0  0  0  0  0  0  0  0
   32.3871  -33.8709   -2.8561 C   0  0  0  0  0  0  0  0  0  0  0  0
   33.5830  -34.7180   -2.9825 C   0  0  0  0  0  0  0  0  0  0  0  0
   33.9683  -35.2904   -4.1723 C   0  0  0  0  0  0  0  0  0  0  0  0
   35.1053  -36.0894   -4.2658 C   0  0  0  0  0  0  0  0  0  0  0  0
   35.8905  -36.3363   -3.1599 C   0  0  0  0  0  0  0  0  0  0  0  0
   35.5130  -35.7687   -1.9682 C   0  0  0  0  0  0  0  0  0  0  0  0
   34.3899  -34.9848   -1.8962 C   0  0  0  0  0  0  0  0  0  0  0  0
   30.3470  -34.9772   -1.9133 C   0  0  0  0  0  0  0  0  0  0  0  0
   29.1421  -34.6281   -1.6944 O   0  0  0  0  0  0  0  0  0  0  0  0
   28.3038  -37.0901    1.0945 O   0  0  0  0  0  0  0  0  0  0  0  0
   29.1086  -37.0217   -0.0349 C   0  0  0  0  0  0  0  0  0  0  0  0
   30.2883  -36.1164    0.3115 C   0  0  2  0  0  0  0  0  0  0  0  0
   30.9655  -35.7635   -0.9110 N   0  0  0  0  0  0  0  0  0  0  0  0
   31.2006  -36.9309    1.1393 C   0  0  0  0  0  0  0  0  0  0  0  0
   32.2902  -37.3778    0.7089 O   0  0  0  0  0  0  0  0  0  0  0  0
   30.8462  -37.2187    2.4481 O   0  0  0  0  0  0  0  0  0  0  0  0
  2  3  2  0
  2  1  1  0
  4  3  1  0
  5  4  2  0
  6  5  1  0
  7  6  1  0
  7  8  1  6
  9  7  1  0
  9 10  2  0
 11  5  1  0
 11 12  2  0
 12  2  1  0
 13  9  1  0
 14 13  1  0
 14 15  1  1
 16 15  1  0
 16 17  2  0
 18 17  1  0
 19 18  2  0
 20 21  2  0
 20 19  1  0
 21 16  1  0
 22 14  1  0
 23 22  2  0
 25 24  1  0
 26 25  1  6
 26 27  1  0
 27 22  1  0
 28 26  1  0
 28 30  1  0
 29 28  2  0
M  END
$$$$
