YFS.pdb
     RDKit          3D

 30 31  0  0  1  0  0  0  0  0999 V2000
   30.2333  -16.4184  -19.1894 O   0  0  0  0  0  0  0  0  0  0  0  0
   29.3087  -17.0047  -18.3207 C   0  0  0  0  0  0  0  0  0  0  0  0
   28.0665  -17.4080  -18.7643 C   0  0  0  0  0  0  0  0  0  0  0  0
   27.1577  -17.9864  -17.9021 C   0  0  0  0  0  0  0  0  0  0  0  0
   27.4416  -18.1897  -16.5628 C   0  0  0  0  0  0  0  0  0  0  0  0
   26.4406  -18.8163  -15.6567 C   0  0  0  0  0  0  0  0  0  0  0  0
   26.8632  -20.1964  -15.2070 C   0  0  2  0  0  0  0  0  0  0  0  0
   27.0136  -21.1231  -16.2873 N   0  0  0  0  0  0  0  0  0  0  0  0
   25.8772  -20.6497  -14.1924 C   0  0  0  0  0  0  0  0  0  0  0  0
   25.0902  -21.5736  -14.5163 O   0  0  0  0  0  0  0  0  0  0  0  0
   28.6869  -17.7831  -16.1277 C   0  0  0  0  0  0  0  0  0  0  0  0
   29.5992  -17.2039  -16.9872 C   0  0  0  0  0  0  0  0  0  0  0  0
   25.7755  -20.1035  -12.8916 N   0  0  0  0  0  0  0  0  0  0  0  0
   24.7552  -20.5531  -12.0036 C   0  0  1  0  0  0  0  0  0  0  0  0
   24.9705  -20.0774  -10.5827 C   0  0  0  0  0  0  0  0  0  0  0  0
   23.8654  -20.4277   -9.6774 C   0  0  0  0  0  0  0  0  0  0  0  0
   23.9540  -21.4399   -8.7504 C   0  0  0  0  0  0  0  0  0  0  0  0
   22.8927  -21.7525   -7.9044 C   0  0  0  0  0  0  0  0  0  0  0  0
   21.7067  -21.0524   -7.9673 C   0  0  0  0  0  0  0  0  0  0  0  0
   21.6099  -20.0404   -8.8899 C   0  0  0  0  0  0  0  0  0  0  0  0
   22.6661  -19.7476   -9.7142 C   0  0  0  0  0  0  0  0  0  0  0  0
   23.4309  -20.2593  -12.5503 C   0  0  0  0  0  0  0  0  0  0  0  0
   23.0907  -19.1236  -13.0152 O   0  0  0  0  0  0  0  0  0  0  0  0
   19.6033  -21.7245  -14.7510 O   0  0  0  0  0  0  0  0  0  0  0  0
   20.8708  -22.0004  -14.2561 C   0  0  0  0  0  0  0  0  0  0  0  0
   21.1185  -21.0352  -13.0994 C   0  0  2  0  0  0  0  0  0  0  0  0
   22.4431  -21.2734  -12.5835 N   0  0  0  0  0  0  0  0  0  0  0  0
   20.1343  -21.3856  -12.0555 C   0  0  0  0  0  0  0  0  0  0  0  0
   20.3535  -22.2581  -11.1821 O   0  0  0  0  0  0  0  0  0  0  0  0
   18.9144  -20.7278  -12.0321 O   0  0  0  0  0  0  0  0  0  0  0  0
  2  3  2  0
  2  1  1  0
  4  3  1  0
  5  4  2  0
  6  5  1  0
  7  6  1  0
  7  8  1  6
  9  7  1  0
  9 10  2  0
 11  5  1  0
 11 12  2  0
 12  2  1  0
 13  9  1  0
 14 13  1  0
 14 15  1  1
 16 15  1  0
 16 17  2  0
 18 17  1  0
 19 18  2  0
 20 21  2  0
 20 19  1  0
 21 16  1  0
 22 14  1  0
 23 22  2  0
 25 24  1  0
 26 25  1  6
 26 27  1  0
 27 22  1  0
 28 26  1  0
 28 30  1  0
 29 28  2  0
M  END
$$$$
