QKQ.pdb
     RDKit          3D

 28 27  0  0  1  0  0  0  0  0999 V2000
   15.3803  -14.4268  -14.4237 N   0  0  0  0  0  0  0  0  0  0  0  0
   15.0151  -14.0152  -15.7390 C   0  0  0  0  0  0  0  0  0  0  0  0
   14.1322  -14.6677  -16.3311 O   0  0  0  0  0  0  0  0  0  0  0  0
   15.6651  -12.8481  -16.3798 C   0  0  0  0  0  0  0  0  0  0  0  0
   16.6676  -12.1522  -15.4998 C   0  0  0  0  0  0  0  0  0  0  0  0
   18.0718  -12.1911  -16.0453 C   0  0  2  0  0  0  0  0  0  0  0  0
   18.5150  -13.5574  -16.0311 N   0  0  0  0  0  0  0  0  0  0  0  0
   18.9034  -11.3250  -15.1628 C   0  0  0  0  0  0  0  0  0  0  0  0
   18.8080  -11.3893  -13.9112 O   0  0  0  0  0  0  0  0  0  0  0  0
   19.8286  -10.4010  -15.7052 N   0  0  0  0  0  0  0  0  0  0  0  0
   20.6912   -9.6251  -14.8068 C   0  0  1  0  0  0  0  0  0  0  0  0
   22.0052   -9.4988  -15.5881 C   0  0  0  0  0  0  0  0  0  0  0  0
   22.8689  -10.7187  -15.4761 C   0  0  0  0  0  0  0  0  0  0  0  0
   24.1206  -10.5152  -16.2931 C   0  0  0  0  0  0  0  0  0  0  0  0
   25.0329  -11.6934  -16.1184 C   0  0  0  0  0  0  0  0  0  0  0  0
   26.1961  -11.4912  -16.9740 N   0  0  0  0  0  0  0  0  0  0  0  0
   20.0819   -8.3254  -14.4826 C   0  0  0  0  0  0  0  0  0  0  0  0
   19.4693   -7.7002  -15.3771 O   0  0  0  0  0  0  0  0  0  0  0  0
   16.9672   -6.7186   -9.2780 N   0  0  0  0  0  0  0  0  0  0  0  0
   17.1526   -5.5150   -9.9875 C   0  0  0  0  0  0  0  0  0  0  0  0
   16.5163   -4.5164   -9.5634 O   0  0  0  0  0  0  0  0  0  0  0  0
   18.0164   -5.3580  -11.1575 C   0  0  0  0  0  0  0  0  0  0  0  0
   18.6821   -6.5765  -11.6654 C   0  0  0  0  0  0  0  0  0  0  0  0
   19.5580   -6.4541  -12.8422 C   0  0  2  0  0  0  0  0  0  0  0  0
   20.1482   -7.7243  -13.1895 N   0  0  0  0  0  0  0  0  0  0  0  0
   20.5937   -5.4074  -12.7401 C   0  0  0  0  0  0  0  0  0  0  0  0
   21.7308   -5.7317  -12.3329 O   0  0  0  0  0  0  0  0  0  0  0  0
   20.3827   -4.0833  -13.0688 O   0  0  0  0  0  0  0  0  0  0  0  0
  1  2  1  0
  2  3  2  0
  4  2  1  0
  4  5  1  0
  5  6  1  0
  6  8  1  0
  6  7  1  1
  8  9  2  0
 10 11  1  0
 10  8  1  0
 11 12  1  6
 13 14  1  0
 13 12  1  0
 14 15  1  0
 16 15  1  0
 17 25  1  0
 17 11  1  0
 18 17  2  0
 19 20  1  0
 20 22  1  0
 21 20  2  0
 22 23  1  0
 24 23  1  1
 24 26  1  0
 24 25  1  0
 26 28  1  0
 27 26  2  0
M  END
$$$$
