QKQ.pdb
     RDKit          3D

 28 27  0  0  1  0  0  0  0  0999 V2000
   19.0747  -36.5715   -8.5239 N   0  0  0  0  0  0  0  0  0  0  0  0
   19.4401  -36.7626   -7.1591 C   0  0  0  0  0  0  0  0  0  0  0  0
   19.5280  -37.9328   -6.7364 O   0  0  0  0  0  0  0  0  0  0  0  0
   19.7071  -35.6055   -6.2730 C   0  0  0  0  0  0  0  0  0  0  0  0
   19.5831  -34.2729   -6.9603 C   0  0  0  0  0  0  0  0  0  0  0  0
   20.8913  -33.7520   -7.4969 C   0  0  2  0  0  0  0  0  0  0  0  0
   21.6459  -33.2278   -6.3927 N   0  0  0  0  0  0  0  0  0  0  0  0
   20.5603  -32.6984   -8.4974 C   0  0  0  0  0  0  0  0  0  0  0  0
   20.1899  -31.5527   -8.1373 O   0  0  0  0  0  0  0  0  0  0  0  0
   20.6524  -32.9534   -9.8868 N   0  0  0  0  0  0  0  0  0  0  0  0
   20.3941  -31.8703  -10.8424 C   0  0  1  0  0  0  0  0  0  0  0  0
   21.2049  -32.2788  -12.0788 C   0  0  0  0  0  0  0  0  0  0  0  0
   21.1233  -31.2730  -13.1872 C   0  0  0  0  0  0  0  0  0  0  0  0
   22.0282  -31.7048  -14.3144 C   0  0  0  0  0  0  0  0  0  0  0  0
   21.8642  -30.7713  -15.4773 C   0  0  0  0  0  0  0  0  0  0  0  0
   22.6848  -31.2716  -16.5739 N   0  0  0  0  0  0  0  0  0  0  0  0
   18.9536  -31.7364  -11.1116 C   0  0  0  0  0  0  0  0  0  0  0  0
   18.2408  -32.7648  -11.1358 O   0  0  0  0  0  0  0  0  0  0  0  0
   14.6096  -26.8943  -10.0823 N   0  0  0  0  0  0  0  0  0  0  0  0
   15.3737  -26.8298  -11.2649 C   0  0  0  0  0  0  0  0  0  0  0  0
   15.2039  -25.8100  -11.9812 O   0  0  0  0  0  0  0  0  0  0  0  0
   16.3277  -27.8491  -11.7013 C   0  0  0  0  0  0  0  0  0  0  0  0
   16.4149  -29.0774  -10.8830 C   0  0  0  0  0  0  0  0  0  0  0  0
   16.8874  -30.3135  -11.5278 C   0  0  2  0  0  0  0  0  0  0  0  0
   18.3092  -30.4853  -11.3509 N   0  0  0  0  0  0  0  0  0  0  0  0
   16.5172  -30.4536  -12.9497 C   0  0  0  0  0  0  0  0  0  0  0  0
   17.3966  -30.2562  -13.8168 O   0  0  0  0  0  0  0  0  0  0  0  0
   15.2513  -30.7915  -13.3843 O   0  0  0  0  0  0  0  0  0  0  0  0
  1  2  1  0
  2  3  2  0
  4  2  1  0
  4  5  1  0
  5  6  1  0
  6  8  1  0
  6  7  1  1
  8  9  2  0
 10 11  1  0
 10  8  1  0
 11 12  1  6
 13 14  1  0
 13 12  1  0
 14 15  1  0
 16 15  1  0
 17 25  1  0
 17 11  1  0
 18 17  2  0
 19 20  1  0
 20 22  1  0
 21 20  2  0
 22 23  1  0
 24 23  1  6
 24 26  1  0
 24 25  1  0
 26 28  1  0
 27 26  2  0
M  END
$$$$
