QKQ.pdb
     RDKit          3D

 28 27  0  0  1  0  0  0  0  0999 V2000
   26.6413  -13.1513  -15.7899 N   0  0  0  0  0  0  0  0  0  0  0  0
   26.3280  -14.0392  -16.8606 C   0  0  0  0  0  0  0  0  0  0  0  0
   27.2749  -14.5554  -17.4873 O   0  0  0  0  0  0  0  0  0  0  0  0
   24.9208  -14.3384  -17.2148 C   0  0  0  0  0  0  0  0  0  0  0  0
   23.9138  -13.6717  -16.3176 C   0  0  0  0  0  0  0  0  0  0  0  0
   22.4857  -13.9541  -16.7069 C   0  0  2  0  0  0  0  0  0  0  0  0
   22.4965  -14.6163  -17.9816 N   0  0  0  0  0  0  0  0  0  0  0  0
   21.7849  -12.6403  -16.7661 C   0  0  0  0  0  0  0  0  0  0  0  0
   22.1522  -11.7425  -17.5653 O   0  0  0  0  0  0  0  0  0  0  0  0
   20.6822  -12.3600  -15.9238 N   0  0  0  0  0  0  0  0  0  0  0  0
   19.9623  -11.0897  -16.0688 C   0  0  1  0  0  0  0  0  0  0  0  0
   18.5266  -11.4395  -15.6573 C   0  0  0  0  0  0  0  0  0  0  0  0
   17.9560  -12.5794  -16.4458 C   0  0  0  0  0  0  0  0  0  0  0  0
   16.5294  -12.8136  -16.0151 C   0  0  0  0  0  0  0  0  0  0  0  0
   15.9470  -13.9520  -16.7998 C   0  0  0  0  0  0  0  0  0  0  0  0
   15.7799  -15.0825  -15.8942 N   0  0  0  0  0  0  0  0  0  0  0  0
   20.5669  -10.0419  -15.2309 C   0  0  0  0  0  0  0  0  0  0  0  0
   21.0816  -10.3601  -14.1355 O   0  0  0  0  0  0  0  0  0  0  0  0
   22.1112   -3.9823  -17.0967 N   0  0  0  0  0  0  0  0  0  0  0  0
   22.2367   -4.0349  -15.6939 C   0  0  0  0  0  0  0  0  0  0  0  0
   22.6072   -2.9740  -15.1291 O   0  0  0  0  0  0  0  0  0  0  0  0
   21.9708   -5.2166  -14.8738 C   0  0  0  0  0  0  0  0  0  0  0  0
   21.4664   -6.4169  -15.5742 C   0  0  0  0  0  0  0  0  0  0  0  0
   21.1383   -7.6067  -14.7721 C   0  0  2  0  0  0  0  0  0  0  0  0
   20.6026   -8.6625  -15.5970 N   0  0  0  0  0  0  0  0  0  0  0  0
   20.2598   -7.3524  -13.6135 C   0  0  0  0  0  0  0  0  0  0  0  0
   20.7834   -7.2256  -12.4849 O   0  0  0  0  0  0  0  0  0  0  0  0
   18.8861   -7.2453  -13.6998 O   0  0  0  0  0  0  0  0  0  0  0  0
  1  2  1  0
  2  3  2  0
  4  2  1  0
  4  5  1  0
  5  6  1  0
  6  8  1  0
  6  7  1  6
  8  9  2  0
 10 11  1  0
 10  8  1  0
 11 12  1  1
 13 14  1  0
 13 12  1  0
 14 15  1  0
 16 15  1  0
 17 25  1  0
 17 11  1  0
 18 17  2  0
 19 20  1  0
 20 22  1  0
 21 20  2  0
 22 23  1  0
 24 23  1  6
 24 26  1  0
 24 25  1  0
 26 28  1  0
 27 26  2  0
M  END
$$$$
