QKQ.pdb
     RDKit          3D

 28 27  0  0  1  0  0  0  0  0999 V2000
   31.1469  -25.6567  -15.7706 N   0  0  0  0  0  0  0  0  0  0  0  0
   32.1442  -25.4909  -16.7759 C   0  0  0  0  0  0  0  0  0  0  0  0
   32.9358  -26.4342  -16.9744 O   0  0  0  0  0  0  0  0  0  0  0  0
   32.2347  -24.2366  -17.5593 C   0  0  0  0  0  0  0  0  0  0  0  0
   31.1843  -23.2204  -17.2022 C   0  0  0  0  0  0  0  0  0  0  0  0
   29.8275  -23.5344  -17.7776 C   0  0  2  0  0  0  0  0  0  0  0  0
   29.9431  -23.5370  -19.2094 N   0  0  0  0  0  0  0  0  0  0  0  0
   28.8965  -22.4758  -17.2945 C   0  0  0  0  0  0  0  0  0  0  0  0
   29.3285  -21.3783  -16.8603 O   0  0  0  0  0  0  0  0  0  0  0  0
   27.4946  -22.6716  -17.3086 N   0  0  0  0  0  0  0  0  0  0  0  0
   26.6065  -21.5938  -16.8583 C   0  0  1  0  0  0  0  0  0  0  0  0
   25.6941  -21.3493  -18.0669 C   0  0  0  0  0  0  0  0  0  0  0  0
   24.5943  -20.3727  -17.7783 C   0  0  0  0  0  0  0  0  0  0  0  0
   23.7594  -20.1866  -19.0209 C   0  0  0  0  0  0  0  0  0  0  0  0
   22.6686  -19.1927  -18.7503 C   0  0  0  0  0  0  0  0  0  0  0  0
   21.8603  -19.0733  -19.9579 N   0  0  0  0  0  0  0  0  0  0  0  0
   25.8707  -21.9881  -15.6464 C   0  0  0  0  0  0  0  0  0  0  0  0
   25.3647  -23.1311  -15.5864 O   0  0  0  0  0  0  0  0  0  0  0  0
   26.0076  -21.5242   -9.3002 N   0  0  0  0  0  0  0  0  0  0  0  0
   24.9063  -20.7466   -9.7111 C   0  0  0  0  0  0  0  0  0  0  0  0
   24.1089  -20.3907   -8.8060 O   0  0  0  0  0  0  0  0  0  0  0  0
   24.6383  -20.3383  -11.0899 C   0  0  0  0  0  0  0  0  0  0  0  0
   25.5496  -20.8597  -12.1309 C   0  0  0  0  0  0  0  0  0  0  0  0
   24.9594  -21.4830  -13.3267 C   0  0  2  0  0  0  0  0  0  0  0  0
   25.6959  -21.1326  -14.5170 N   0  0  0  0  0  0  0  0  0  0  0  0
   23.5169  -21.2303  -13.5116 C   0  0  0  0  0  0  0  0  0  0  0  0
   23.1670  -20.2131  -14.1495 O   0  0  0  0  0  0  0  0  0  0  0  0
   22.5236  -22.0536  -13.0204 O   0  0  0  0  0  0  0  0  0  0  0  0
  1  2  1  0
  2  3  2  0
  4  2  1  0
  4  5  1  0
  5  6  1  0
  6  8  1  0
  6  7  1  6
  8  9  2  0
 10 11  1  0
 10  8  1  0
 11 12  1  6
 13 14  1  0
 13 12  1  0
 14 15  1  0
 16 15  1  0
 17 25  1  0
 17 11  1  0
 18 17  2  0
 19 20  1  0
 20 22  1  0
 21 20  2  0
 22 23  1  0
 24 23  1  1
 24 26  1  0
 24 25  1  0
 26 28  1  0
 27 26  2  0
M  END
$$$$
