QKQ.pdb
     RDKit          3D

 28 27  0  0  1  0  0  0  0  0999 V2000
   26.6197  -14.2348  -15.0568 N   0  0  0  0  0  0  0  0  0  0  0  0
   26.3090  -13.4476  -16.2042 C   0  0  0  0  0  0  0  0  0  0  0  0
   26.7965  -12.3017  -16.2758 O   0  0  0  0  0  0  0  0  0  0  0  0
   25.4347  -13.9770  -17.2769 C   0  0  0  0  0  0  0  0  0  0  0  0
   24.9692  -15.3880  -17.0401 C   0  0  0  0  0  0  0  0  0  0  0  0
   25.6477  -16.3990  -17.9279 C   0  0  2  0  0  0  0  0  0  0  0  0
   25.4043  -16.0241  -19.2930 N   0  0  0  0  0  0  0  0  0  0  0  0
   25.0584  -17.7279  -17.6001 C   0  0  0  0  0  0  0  0  0  0  0  0
   23.9924  -18.1178  -18.1398 O   0  0  0  0  0  0  0  0  0  0  0  0
   25.6799  -18.5951  -16.6697 N   0  0  0  0  0  0  0  0  0  0  0  0
   25.0348  -19.8652  -16.3179 C   0  0  1  0  0  0  0  0  0  0  0  0
   26.1791  -20.7005  -15.7298 C   0  0  0  0  0  0  0  0  0  0  0  0
   26.8888  -21.5243  -16.7615 C   0  0  0  0  0  0  0  0  0  0  0  0
   27.9798  -22.3226  -16.0921 C   0  0  0  0  0  0  0  0  0  0  0  0
   28.8064  -23.0174  -17.1335 C   0  0  0  0  0  0  0  0  0  0  0  0
   29.9392  -23.6445  -16.4628 N   0  0  0  0  0  0  0  0  0  0  0  0
   23.9278  -19.6506  -15.3724 C   0  0  0  0  0  0  0  0  0  0  0  0
   24.0111  -18.7211  -14.5386 O   0  0  0  0  0  0  0  0  0  0  0  0
   20.1995  -16.2498  -14.4069 N   0  0  0  0  0  0  0  0  0  0  0  0
   19.3529  -17.2911  -13.9764 C   0  0  0  0  0  0  0  0  0  0  0  0
   18.3287  -16.9448  -13.3338 O   0  0  0  0  0  0  0  0  0  0  0  0
   19.5850  -18.7141  -14.2229 C   0  0  0  0  0  0  0  0  0  0  0  0
   20.8105  -19.0725  -14.9683 C   0  0  0  0  0  0  0  0  0  0  0  0
   21.6098  -20.2126  -14.4904 C   0  0  2  0  0  0  0  0  0  0  0  0
   22.7459  -20.4509  -15.3474 N   0  0  0  0  0  0  0  0  0  0  0  0
   20.8483  -21.4583  -14.2740 C   0  0  0  0  0  0  0  0  0  0  0  0
   20.9586  -22.3780  -15.1144 O   0  0  0  0  0  0  0  0  0  0  0  0
   20.0161  -21.6722  -13.1935 O   0  0  0  0  0  0  0  0  0  0  0  0
  1  2  1  0
  2  3  2  0
  4  2  1  0
  4  5  1  0
  5  6  1  0
  6  8  1  0
  6  7  1  6
  8  9  2  0
 10 11  1  0
 10  8  1  0
 11 12  1  1
 13 14  1  0
 13 12  1  0
 14 15  1  0
 16 15  1  0
 17 25  1  0
 17 11  1  0
 18 17  2  0
 19 20  1  0
 20 22  1  0
 21 20  2  0
 22 23  1  0
 24 23  1  6
 24 26  1  0
 24 25  1  0
 26 28  1  0
 27 26  2  0
M  END
$$$$
