QKQ.pdb
     RDKit          3D

 28 27  0  0  1  0  0  0  0  0999 V2000
   17.9404  -30.8156  -10.0754 N   0  0  0  0  0  0  0  0  0  0  0  0
   19.1069  -31.1019  -10.8436 C   0  0  0  0  0  0  0  0  0  0  0  0
   19.0842  -32.1016  -11.5892 O   0  0  0  0  0  0  0  0  0  0  0  0
   20.3067  -30.2369  -10.7576 C   0  0  0  0  0  0  0  0  0  0  0  0
   20.1753  -29.1131   -9.7659 C   0  0  0  0  0  0  0  0  0  0  0  0
   19.7678  -27.8052  -10.3939 C   0  0  2  0  0  0  0  0  0  0  0  0
   20.8571  -27.3477  -11.2110 N   0  0  0  0  0  0  0  0  0  0  0  0
   19.4723  -26.8626   -9.2782 C   0  0  0  0  0  0  0  0  0  0  0  0
   20.3931  -26.2416   -8.6900 O   0  0  0  0  0  0  0  0  0  0  0  0
   18.1442  -26.6354   -8.8440 N   0  0  0  0  0  0  0  0  0  0  0  0
   17.8786  -25.6157   -7.8229 C   0  0  1  0  0  0  0  0  0  0  0  0
   16.9126  -24.6496   -8.5204 C   0  0  0  0  0  0  0  0  0  0  0  0
   17.5959  -23.7580   -9.5128 C   0  0  0  0  0  0  0  0  0  0  0  0
   16.5604  -22.9179  -10.2182 C   0  0  0  0  0  0  0  0  0  0  0  0
   17.2185  -22.1066  -11.2949 C   0  0  0  0  0  0  0  0  0  0  0  0
   16.1825  -21.3386  -11.9752 N   0  0  0  0  0  0  0  0  0  0  0  0
   17.3150  -26.2217   -6.6061 C   0  0  0  0  0  0  0  0  0  0  0  0
   16.3027  -26.9511   -6.7021 O   0  0  0  0  0  0  0  0  0  0  0  0
   20.2323  -26.6643   -0.7860 N   0  0  0  0  0  0  0  0  0  0  0  0
   18.8982  -27.0879   -0.6219 C   0  0  0  0  0  0  0  0  0  0  0  0
   18.5849  -27.5065    0.5220 O   0  0  0  0  0  0  0  0  0  0  0  0
   17.8803  -27.0726   -1.6722 C   0  0  0  0  0  0  0  0  0  0  0  0
   18.2994  -26.5821   -3.0025 C   0  0  0  0  0  0  0  0  0  0  0  0
   17.3040  -26.5688   -4.0869 C   0  0  2  0  0  0  0  0  0  0  0  0
   17.8611  -26.0250   -5.3018 N   0  0  0  0  0  0  0  0  0  0  0  0
   16.0297  -25.9030   -3.7528 C   0  0  0  0  0  0  0  0  0  0  0  0
   15.8846  -24.7014   -4.0677 O   0  0  0  0  0  0  0  0  0  0  0  0
   14.9811  -26.5295   -3.1097 O   0  0  0  0  0  0  0  0  0  0  0  0
  1  2  1  0
  2  3  2  0
  4  2  1  0
  4  5  1  0
  5  6  1  0
  6  8  1  0
  6  7  1  1
  8  9  2  0
 10 11  1  0
 10  8  1  0
 11 12  1  6
 13 14  1  0
 13 12  1  0
 14 15  1  0
 16 15  1  0
 17 25  1  0
 17 11  1  0
 18 17  2  0
 19 20  1  0
 20 22  1  0
 21 20  2  0
 22 23  1  0
 24 23  1  1
 24 26  1  0
 24 25  1  0
 26 28  1  0
 27 26  2  0
M  END
$$$$
