QKQ.pdb
     RDKit          3D

 28 27  0  0  1  0  0  0  0  0999 V2000
   30.5917  -24.6750  -16.0675 N   0  0  0  0  0  0  0  0  0  0  0  0
   30.9966  -24.0156  -17.2651 C   0  0  0  0  0  0  0  0  0  0  0  0
   31.8692  -24.5643  -17.9674 O   0  0  0  0  0  0  0  0  0  0  0  0
   30.3974  -22.7197  -17.6608 C   0  0  0  0  0  0  0  0  0  0  0  0
   29.5052  -22.1170  -16.6099 C   0  0  0  0  0  0  0  0  0  0  0  0
   28.1004  -22.6620  -16.6330 C   0  0  2  0  0  0  0  0  0  0  0  0
   27.7778  -22.9981  -17.9918 N   0  0  0  0  0  0  0  0  0  0  0  0
   27.2121  -21.5928  -16.0961 C   0  0  0  0  0  0  0  0  0  0  0  0
   27.4308  -21.0670  -14.9757 O   0  0  0  0  0  0  0  0  0  0  0  0
   26.0924  -21.1339  -16.8307 N   0  0  0  0  0  0  0  0  0  0  0  0
   25.1645  -20.1768  -16.2174 C   0  0  1  0  0  0  0  0  0  0  0  0
   24.3487  -19.6527  -17.4060 C   0  0  0  0  0  0  0  0  0  0  0  0
   23.3160  -18.6435  -17.0038 C   0  0  0  0  0  0  0  0  0  0  0  0
   22.5502  -18.2050  -18.2273 C   0  0  0  0  0  0  0  0  0  0  0  0
   21.5301  -17.1752  -17.8405 C   0  0  0  0  0  0  0  0  0  0  0  0
   20.8420  -16.7473  -19.0527 N   0  0  0  0  0  0  0  0  0  0  0  0
   24.3379  -20.8285  -15.1889 C   0  0  0  0  0  0  0  0  0  0  0  0
   24.0822  -22.0488  -15.2966 O   0  0  0  0  0  0  0  0  0  0  0  0
   26.1258  -20.6596   -9.5029 N   0  0  0  0  0  0  0  0  0  0  0  0
   24.8604  -21.2712   -9.3984 C   0  0  0  0  0  0  0  0  0  0  0  0
   24.5890  -21.8010   -8.2905 O   0  0  0  0  0  0  0  0  0  0  0  0
   23.8674  -21.3279  -10.4711 C   0  0  0  0  0  0  0  0  0  0  0  0
   24.2389  -20.7056  -11.7597 C   0  0  0  0  0  0  0  0  0  0  0  0
   23.2824  -20.7874  -12.8756 C   0  0  2  0  0  0  0  0  0  0  0  0
   23.8012  -20.1427  -14.0577 N   0  0  0  0  0  0  0  0  0  0  0  0
   21.9243  -20.2984  -12.5674 C   0  0  0  0  0  0  0  0  0  0  0  0
   21.2067  -20.9764  -11.7996 O   0  0  0  0  0  0  0  0  0  0  0  0
   21.3938  -19.1308  -13.0781 O   0  0  0  0  0  0  0  0  0  0  0  0
  1  2  1  0
  2  3  2  0
  4  2  1  0
  4  5  1  0
  5  6  1  0
  6  8  1  0
  6  7  1  6
  8  9  2  0
 10 11  1  0
 10  8  1  0
 11 12  1  6
 13 14  1  0
 13 12  1  0
 14 15  1  0
 16 15  1  0
 17 25  1  0
 17 11  1  0
 18 17  2  0
 19 20  1  0
 20 22  1  0
 21 20  2  0
 22 23  1  0
 24 23  1  1
 24 26  1  0
 24 25  1  0
 26 28  1  0
 27 26  2  0
M  END
$$$$
