QKQ.pdb
     RDKit          3D

 28 27  0  0  1  0  0  0  0  0999 V2000
   19.5257  -11.4439  -15.6036 N   0  0  0  0  0  0  0  0  0  0  0  0
   18.9984  -12.7574  -15.4311 C   0  0  0  0  0  0  0  0  0  0  0  0
   19.6637  -13.7162  -15.8714 O   0  0  0  0  0  0  0  0  0  0  0  0
   17.7010  -12.9737  -14.7491 C   0  0  0  0  0  0  0  0  0  0  0  0
   17.1045  -11.7210  -14.1671 C   0  0  0  0  0  0  0  0  0  0  0  0
   15.8116  -11.9598  -13.4307 C   0  0  2  0  0  0  0  0  0  0  0  0
   14.8383  -12.4195  -14.3819 N   0  0  0  0  0  0  0  0  0  0  0  0
   15.4190  -10.6618  -12.8128 C   0  0  0  0  0  0  0  0  0  0  0  0
   15.1934   -9.6470  -13.5191 O   0  0  0  0  0  0  0  0  0  0  0  0
   15.2871  -10.5291  -11.4096 N   0  0  0  0  0  0  0  0  0  0  0  0
   14.8811   -9.2405  -10.8373 C   0  0  1  0  0  0  0  0  0  0  0  0
   13.7871   -9.6210   -9.8315 C   0  0  0  0  0  0  0  0  0  0  0  0
   13.2239   -8.4356   -9.1074 C   0  0  0  0  0  0  0  0  0  0  0  0
   12.0268   -8.8723   -8.2999 C   0  0  0  0  0  0  0  0  0  0  0  0
   11.4374   -7.6877   -7.5927 C   0  0  0  0  0  0  0  0  0  0  0  0
   10.2899   -8.1506   -6.8212 N   0  0  0  0  0  0  0  0  0  0  0  0
   16.0258   -8.5544  -10.2173 C   0  0  0  0  0  0  0  0  0  0  0  0
   16.7584   -9.1875   -9.4245 O   0  0  0  0  0  0  0  0  0  0  0  0
   20.9411   -6.8425  -12.7538 N   0  0  0  0  0  0  0  0  0  0  0  0
   21.0053   -6.0787  -11.5711 C   0  0  0  0  0  0  0  0  0  0  0  0
   22.0932   -5.4876  -11.3497 O   0  0  0  0  0  0  0  0  0  0  0  0
   19.9137   -5.9342  -10.6082 C   0  0  0  0  0  0  0  0  0  0  0  0
   18.6741   -6.6914  -10.8839 C   0  0  0  0  0  0  0  0  0  0  0  0
   17.5347   -6.5227   -9.9674 C   0  0  2  0  0  0  0  0  0  0  0  0
   16.3569   -7.1887  -10.4687 N   0  0  0  0  0  0  0  0  0  0  0  0
   17.2299   -5.1246   -9.6053 C   0  0  0  0  0  0  0  0  0  0  0  0
   17.9315   -4.5686   -8.7319 O   0  0  0  0  0  0  0  0  0  0  0  0
   16.2110   -4.3880  -10.1753 O   0  0  0  0  0  0  0  0  0  0  0  0
  1  2  1  0
  2  3  2  0
  4  2  1  0
  4  5  1  0
  5  6  1  0
  6  8  1  0
  6  7  1  6
  8  9  2  0
 10 11  1  0
 10  8  1  0
 11 12  1  1
 13 14  1  0
 13 12  1  0
 14 15  1  0
 16 15  1  0
 17 25  1  0
 17 11  1  0
 18 17  2  0
 19 20  1  0
 20 22  1  0
 21 20  2  0
 22 23  1  0
 24 23  1  6
 24 26  1  0
 24 25  1  0
 26 28  1  0
 27 26  2  0
M  END
$$$$
