QKQ.pdb
     RDKit          3D

 28 27  0  0  1  0  0  0  0  0999 V2000
   16.0879  -12.1166  -19.1180 N   0  0  0  0  0  0  0  0  0  0  0  0
   14.8864  -12.1766  -18.3526 C   0  0  0  0  0  0  0  0  0  0  0  0
   13.8252  -12.4431  -18.9514 O   0  0  0  0  0  0  0  0  0  0  0  0
   14.9011  -11.9303  -16.8917 C   0  0  0  0  0  0  0  0  0  0  0  0
   16.2624  -11.5943  -16.3461 C   0  0  0  0  0  0  0  0  0  0  0  0
   17.1941  -12.7774  -16.2911 C   0  0  2  0  0  0  0  0  0  0  0  0
   16.7167  -13.6704  -15.2722 N   0  0  0  0  0  0  0  0  0  0  0  0
   18.5506  -12.2463  -15.9774 C   0  0  0  0  0  0  0  0  0  0  0  0
   18.7995  -11.7124  -14.8672 O   0  0  0  0  0  0  0  0  0  0  0  0
   19.6039  -12.3257  -16.9199 N   0  0  0  0  0  0  0  0  0  0  0  0
   20.9381  -11.8320  -16.5608 C   0  0  1  0  0  0  0  0  0  0  0  0
   21.8864  -12.7807  -17.3050 C   0  0  0  0  0  0  0  0  0  0  0  0
   23.3320  -12.4769  -17.0508 C   0  0  0  0  0  0  0  0  0  0  0  0
   24.1854  -13.3992  -17.8855 C   0  0  0  0  0  0  0  0  0  0  0  0
   25.6344  -13.1567  -17.5818 C   0  0  0  0  0  0  0  0  0  0  0  0
   26.4275  -13.9064  -18.5487 N   0  0  0  0  0  0  0  0  0  0  0  0
   21.1024  -10.4229  -16.9522 C   0  0  0  0  0  0  0  0  0  0  0  0
   20.6246  -10.0341  -18.0415 O   0  0  0  0  0  0  0  0  0  0  0  0
   21.8922   -5.6240  -12.7328 N   0  0  0  0  0  0  0  0  0  0  0  0
   21.8742   -5.0391  -14.0150 C   0  0  0  0  0  0  0  0  0  0  0  0
   21.8743   -3.7820  -14.0522 O   0  0  0  0  0  0  0  0  0  0  0  0
   21.8550   -5.7836  -15.2740 C   0  0  0  0  0  0  0  0  0  0  0  0
   21.7742   -7.2567  -15.1786 C   0  0  0  0  0  0  0  0  0  0  0  0
   21.8168   -8.0401  -16.4241 C   0  0  2  0  0  0  0  0  0  0  0  0
   21.7845   -9.4569  -16.1525 N   0  0  0  0  0  0  0  0  0  0  0  0
   22.9337   -7.7073  -17.3299 C   0  0  0  0  0  0  0  0  0  0  0  0
   24.0054   -8.3413  -17.2127 O   0  0  0  0  0  0  0  0  0  0  0  0
   22.8676   -6.7325  -18.3052 O   0  0  0  0  0  0  0  0  0  0  0  0
  1  2  1  0
  2  3  2  0
  4  2  1  0
  4  5  1  0
  5  6  1  0
  6  8  1  0
  6  7  1  1
  8  9  2  0
 10 11  1  0
 10  8  1  0
 11 12  1  6
 13 14  1  0
 13 12  1  0
 14 15  1  0
 16 15  1  0
 17 25  1  0
 17 11  1  0
 18 17  2  0
 19 20  1  0
 20 22  1  0
 21 20  2  0
 22 23  1  0
 24 23  1  1
 24 26  1  0
 24 25  1  0
 26 28  1  0
 27 26  2  0
M  END
$$$$
