QKQ.pdb
     RDKit          3D

 28 27  0  0  1  0  0  0  0  0999 V2000
   20.5879  -15.8020  -14.2307 N   0  0  0  0  0  0  0  0  0  0  0  0
   19.5375  -16.5628  -14.8228 C   0  0  0  0  0  0  0  0  0  0  0  0
   19.5303  -17.7955  -14.6325 O   0  0  0  0  0  0  0  0  0  0  0  0
   18.4881  -15.9070  -15.6377 C   0  0  0  0  0  0  0  0  0  0  0  0
   18.5386  -14.4038  -15.5972 C   0  0  0  0  0  0  0  0  0  0  0  0
   17.5129  -13.7463  -16.4841 C   0  0  2  0  0  0  0  0  0  0  0  0
   17.5289  -14.4183  -17.7536 N   0  0  0  0  0  0  0  0  0  0  0  0
   17.9010  -12.3128  -16.6060 C   0  0  0  0  0  0  0  0  0  0  0  0
   18.8391  -11.9548  -17.3619 O   0  0  0  0  0  0  0  0  0  0  0  0
   17.2256  -11.3066  -15.8743 N   0  0  0  0  0  0  0  0  0  0  0  0
   17.5425   -9.8949  -16.1184 C   0  0  1  0  0  0  0  0  0  0  0  0
   16.2569   -9.1615  -15.7156 C   0  0  0  0  0  0  0  0  0  0  0  0
   15.1621   -9.3060  -16.7291 C   0  0  0  0  0  0  0  0  0  0  0  0
   13.9630   -8.5090  -16.2788 C   0  0  0  0  0  0  0  0  0  0  0  0
   12.8527   -8.6632  -17.2760 C   0  0  0  0  0  0  0  0  0  0  0  0
   11.7381   -7.8309  -16.8392 N   0  0  0  0  0  0  0  0  0  0  0  0
   18.7181   -9.4755  -15.3388 C   0  0  0  0  0  0  0  0  0  0  0  0
   18.8202   -9.8422  -14.1466 O   0  0  0  0  0  0  0  0  0  0  0  0
   24.6361  -10.0727  -16.7118 N   0  0  0  0  0  0  0  0  0  0  0  0
   24.6391   -9.2001  -15.6050 C   0  0  0  0  0  0  0  0  0  0  0  0
   25.7601   -8.9660  -15.0850 O   0  0  0  0  0  0  0  0  0  0  0  0
   23.4499   -8.5657  -15.0366 C   0  0  0  0  0  0  0  0  0  0  0  0
   22.1570   -8.8626  -15.6893 C   0  0  0  0  0  0  0  0  0  0  0  0
   20.9382   -8.2525  -15.1333 C   0  0  2  0  0  0  0  0  0  0  0  0
   19.7659   -8.6629  -15.8677 N   0  0  0  0  0  0  0  0  0  0  0  0
   20.9835   -6.7831  -15.0004 C   0  0  0  0  0  0  0  0  0  0  0  0
   21.5133   -6.2931  -13.9790 O   0  0  0  0  0  0  0  0  0  0  0  0
   20.4735   -5.9106  -15.9408 O   0  0  0  0  0  0  0  0  0  0  0  0
  1  2  1  0
  2  3  2  0
  4  2  1  0
  4  5  1  0
  5  6  1  0
  6  8  1  0
  6  7  1  6
  8  9  2  0
 10 11  1  0
 10  8  1  0
 11 12  1  1
 13 14  1  0
 13 12  1  0
 14 15  1  0
 16 15  1  0
 17 25  1  0
 17 11  1  0
 18 17  2  0
 19 20  1  0
 20 22  1  0
 21 20  2  0
 22 23  1  0
 24 23  1  6
 24 26  1  0
 24 25  1  0
 26 28  1  0
 27 26  2  0
M  END
$$$$
