QKQ.pdb
     RDKit          3D

 28 27  0  0  1  0  0  0  0  0999 V2000
   15.4018  -26.5107  -18.0050 N   0  0  0  0  0  0  0  0  0  0  0  0
   15.8057  -26.5830  -19.3704 C   0  0  0  0  0  0  0  0  0  0  0  0
   15.2727  -27.4496  -20.0920 O   0  0  0  0  0  0  0  0  0  0  0  0
   16.8263  -25.6559  -19.9128 C   0  0  0  0  0  0  0  0  0  0  0  0
   17.2490  -24.5844  -18.9449 C   0  0  0  0  0  0  0  0  0  0  0  0
   18.7379  -24.5367  -18.7175 C   0  0  2  0  0  0  0  0  0  0  0  0
   19.1630  -25.8409  -18.2912 N   0  0  0  0  0  0  0  0  0  0  0  0
   18.9839  -23.5007  -17.6751 C   0  0  0  0  0  0  0  0  0  0  0  0
   18.8207  -23.7539  -16.4549 O   0  0  0  0  0  0  0  0  0  0  0  0
   19.4096  -22.1967  -18.0249 N   0  0  0  0  0  0  0  0  0  0  0  0
   19.7071  -21.2224  -16.9689 C   0  0  1  0  0  0  0  0  0  0  0  0
   21.0872  -20.6778  -17.3587 C   0  0  0  0  0  0  0  0  0  0  0  0
   21.5958  -19.6417  -16.4023 C   0  0  0  0  0  0  0  0  0  0  0  0
   22.9100  -19.1027  -16.9101 C   0  0  0  0  0  0  0  0  0  0  0  0
   23.4188  -18.0494  -15.9707 C   0  0  0  0  0  0  0  0  0  0  0  0
   24.7163  -17.5994  -16.4607 N   0  0  0  0  0  0  0  0  0  0  0  0
   18.6696  -20.1808  -16.9045 C   0  0  0  0  0  0  0  0  0  0  0  0
   18.4431  -19.4836  -17.9188 O   0  0  0  0  0  0  0  0  0  0  0  0
   13.8312  -20.0185  -12.6567 N   0  0  0  0  0  0  0  0  0  0  0  0
   13.5477  -19.1502  -13.7300 C   0  0  0  0  0  0  0  0  0  0  0  0
   12.3565  -18.7587  -13.8282 O   0  0  0  0  0  0  0  0  0  0  0  0
   14.5270  -18.6875  -14.7131 C   0  0  0  0  0  0  0  0  0  0  0  0
   15.9047  -19.2073  -14.5802 C   0  0  0  0  0  0  0  0  0  0  0  0
   16.8739  -18.8954  -15.6433 C   0  0  2  0  0  0  0  0  0  0  0  0
   17.8932  -19.9125  -15.7369 N   0  0  0  0  0  0  0  0  0  0  0  0
   17.4818  -17.5532  -15.5562 C   0  0  0  0  0  0  0  0  0  0  0  0
   18.4894  -17.4011  -14.8312 O   0  0  0  0  0  0  0  0  0  0  0  0
   17.0031  -16.4478  -16.2305 O   0  0  0  0  0  0  0  0  0  0  0  0
  1  2  1  0
  2  3  2  0
  4  2  1  0
  4  5  1  0
  5  6  1  0
  6  8  1  0
  6  7  1  1
  8  9  2  0
 10 11  1  0
 10  8  1  0
 11 12  1  6
 13 14  1  0
 13 12  1  0
 14 15  1  0
 16 15  1  0
 17 25  1  0
 17 11  1  0
 18 17  2  0
 19 20  1  0
 20 22  1  0
 21 20  2  0
 22 23  1  0
 24 23  1  1
 24 26  1  0
 24 25  1  0
 26 28  1  0
 27 26  2  0
M  END
$$$$
