QKQ.pdb
     RDKit          3D

 28 27  0  0  1  0  0  0  0  0999 V2000
   27.1321  -19.1548  -15.9217 N   0  0  0  0  0  0  0  0  0  0  0  0
   27.4868  -17.9614  -16.6166 C   0  0  0  0  0  0  0  0  0  0  0  0
   28.6317  -17.5000  -16.4380 O   0  0  0  0  0  0  0  0  0  0  0  0
   26.5237  -17.2930  -17.5227 C   0  0  0  0  0  0  0  0  0  0  0  0
   25.1948  -17.9919  -17.6190 C   0  0  0  0  0  0  0  0  0  0  0  0
   25.2430  -19.2602  -18.4313 C   0  0  2  0  0  0  0  0  0  0  0  0
   24.7785  -18.9557  -19.7561 N   0  0  0  0  0  0  0  0  0  0  0  0
   24.3639  -20.2481  -17.7445 C   0  0  0  0  0  0  0  0  0  0  0  0
   23.1119  -20.1688  -17.8215 O   0  0  0  0  0  0  0  0  0  0  0  0
   24.9101  -21.3088  -16.9825 N   0  0  0  0  0  0  0  0  0  0  0  0
   24.0138  -22.2466  -16.2968 C   0  0  1  0  0  0  0  0  0  0  0  0
   24.9614  -23.3316  -15.7698 C   0  0  0  0  0  0  0  0  0  0  0  0
   25.5458  -24.1753  -16.8623 C   0  0  0  0  0  0  0  0  0  0  0  0
   26.4215  -25.2402  -16.2502 C   0  0  0  0  0  0  0  0  0  0  0  0
   27.1064  -26.0149  -17.3371 C   0  0  0  0  0  0  0  0  0  0  0  0
   27.9218  -27.0468  -16.7075 N   0  0  0  0  0  0  0  0  0  0  0  0
   23.2571  -21.5700  -15.2314 C   0  0  0  0  0  0  0  0  0  0  0  0
   23.8238  -20.6875  -14.5486 O   0  0  0  0  0  0  0  0  0  0  0  0
   20.2587  -17.0185  -15.2995 N   0  0  0  0  0  0  0  0  0  0  0  0
   19.7848  -17.5209  -14.0709 C   0  0  0  0  0  0  0  0  0  0  0  0
   19.0631  -16.7442  -13.3943 O   0  0  0  0  0  0  0  0  0  0  0  0
   20.0728  -18.8554  -13.5457 C   0  0  0  0  0  0  0  0  0  0  0  0
   20.9358  -19.7270  -14.3711 C   0  0  0  0  0  0  0  0  0  0  0  0
   21.0912  -21.1352  -13.9718 C   0  0  2  0  0  0  0  0  0  0  0  0
   21.8943  -21.8636  -14.9239 N   0  0  0  0  0  0  0  0  0  0  0  0
   19.8271  -21.8478  -13.7013 C   0  0  0  0  0  0  0  0  0  0  0  0
   19.4092  -22.6639  -14.5518 O   0  0  0  0  0  0  0  0  0  0  0  0
   19.0727  -21.6674  -12.5594 O   0  0  0  0  0  0  0  0  0  0  0  0
  1  2  1  0
  2  3  2  0
  4  2  1  0
  4  5  1  0
  5  6  1  0
  6  8  1  0
  6  7  1  6
  8  9  2  0
 10 11  1  0
 10  8  1  0
 11 12  1  1
 13 14  1  0
 13 12  1  0
 14 15  1  0
 16 15  1  0
 17 25  1  0
 17 11  1  0
 18 17  2  0
 19 20  1  0
 20 22  1  0
 21 20  2  0
 22 23  1  0
 24 23  1  6
 24 26  1  0
 24 25  1  0
 26 28  1  0
 27 26  2  0
M  END
$$$$
