QKQ.pdb
     RDKit          3D

 28 27  0  0  1  0  0  0  0  0999 V2000
   25.6193  -21.4582  -15.8408 N   0  0  0  0  0  0  0  0  0  0  0  0
   27.0027  -21.7603  -16.0074 C   0  0  0  0  0  0  0  0  0  0  0  0
   27.5379  -22.5230  -15.1782 O   0  0  0  0  0  0  0  0  0  0  0  0
   27.7777  -21.1856  -17.1319 C   0  0  0  0  0  0  0  0  0  0  0  0
   26.9665  -20.3008  -18.0390 C   0  0  0  0  0  0  0  0  0  0  0  0
   27.2260  -18.8311  -17.8306 C   0  0  2  0  0  0  0  0  0  0  0  0
   28.4864  -18.6952  -17.1549 N   0  0  0  0  0  0  0  0  0  0  0  0
   26.0957  -18.3030  -17.0157 C   0  0  0  0  0  0  0  0  0  0  0  0
   26.2554  -17.9858  -15.8101 O   0  0  0  0  0  0  0  0  0  0  0  0
   24.8044  -18.1413  -17.5728 N   0  0  0  0  0  0  0  0  0  0  0  0
   23.7345  -17.5452  -16.7647 C   0  0  1  0  0  0  0  0  0  0  0  0
   22.9912  -16.6436  -17.7584 C   0  0  0  0  0  0  0  0  0  0  0  0
   23.5024  -15.2345  -17.7613 C   0  0  0  0  0  0  0  0  0  0  0  0
   22.6891  -14.4154  -18.7325 C   0  0  0  0  0  0  0  0  0  0  0  0
   23.1790  -12.9974  -18.7289 C   0  0  0  0  0  0  0  0  0  0  0  0
   22.4238  -12.2587  -19.7338 N   0  0  0  0  0  0  0  0  0  0  0  0
   22.8784  -18.5855  -16.1728 C   0  0  0  0  0  0  0  0  0  0  0  0
   22.6592  -19.6342  -16.8197 O   0  0  0  0  0  0  0  0  0  0  0  0
   21.2992  -18.9045   -9.8700 N   0  0  0  0  0  0  0  0  0  0  0  0
   20.6198  -19.9558  -10.5177 C   0  0  0  0  0  0  0  0  0  0  0  0
   19.9219  -20.7017   -9.7839 O   0  0  0  0  0  0  0  0  0  0  0  0
   20.6743  -20.2279  -11.9539 C   0  0  0  0  0  0  0  0  0  0  0  0
   21.5388  -19.3479  -12.7688 C   0  0  0  0  0  0  0  0  0  0  0  0
   21.5258  -19.5168  -14.2311 C   0  0  2  0  0  0  0  0  0  0  0  0
   22.2727  -18.4697  -14.8853 N   0  0  0  0  0  0  0  0  0  0  0  0
   20.1833  -19.6528  -14.8292 C   0  0  0  0  0  0  0  0  0  0  0  0
   19.6111  -18.6234  -15.2498 O   0  0  0  0  0  0  0  0  0  0  0  0
   19.5159  -20.8548  -14.9537 O   0  0  0  0  0  0  0  0  0  0  0  0
  1  2  1  0
  2  3  2  0
  4  2  1  0
  4  5  1  0
  5  6  1  0
  6  8  1  0
  6  7  1  1
  8  9  2  0
 10 11  1  0
 10  8  1  0
 11 12  1  6
 13 14  1  0
 13 12  1  0
 14 15  1  0
 16 15  1  0
 17 25  1  0
 17 11  1  0
 18 17  2  0
 19 20  1  0
 20 22  1  0
 21 20  2  0
 22 23  1  0
 24 23  1  1
 24 26  1  0
 24 25  1  0
 26 28  1  0
 27 26  2  0
M  END
$$$$
