QKQ.pdb
     RDKit          3D

 28 27  0  0  1  0  0  0  0  0999 V2000
   16.4356  -13.9898  -13.3750 N   0  0  0  0  0  0  0  0  0  0  0  0
   16.8730  -14.9335  -14.3501 C   0  0  0  0  0  0  0  0  0  0  0  0
   16.9023  -16.1375  -14.0256 O   0  0  0  0  0  0  0  0  0  0  0  0
   17.2787  -14.4950  -15.7060 C   0  0  0  0  0  0  0  0  0  0  0  0
   17.2032  -13.0064  -15.9108 C   0  0  0  0  0  0  0  0  0  0  0  0
   15.8531  -12.5353  -16.3863 C   0  0  2  0  0  0  0  0  0  0  0  0
   15.6302  -13.0795  -17.6968 N   0  0  0  0  0  0  0  0  0  0  0  0
   15.8941  -11.0457  -16.3997 C   0  0  0  0  0  0  0  0  0  0  0  0
   16.3453  -10.4163  -17.3895 O   0  0  0  0  0  0  0  0  0  0  0  0
   15.4261  -10.2904  -15.2977 N   0  0  0  0  0  0  0  0  0  0  0  0
   15.4550   -8.8246  -15.3575 C   0  0  1  0  0  0  0  0  0  0  0  0
   14.2546   -8.4047  -14.4997 C   0  0  0  0  0  0  0  0  0  0  0  0
   12.9408   -8.6389  -15.1821 C   0  0  0  0  0  0  0  0  0  0  0  0
   11.8215   -8.3431  -14.2150 C   0  0  0  0  0  0  0  0  0  0  0  0
   10.5021   -8.6294  -14.8691 C   0  0  0  0  0  0  0  0  0  0  0  0
    9.4512   -8.3745  -13.8910 N   0  0  0  0  0  0  0  0  0  0  0  0
   16.7364   -8.3013  -14.8577 C   0  0  0  0  0  0  0  0  0  0  0  0
   17.1013   -8.5920  -13.6965 O   0  0  0  0  0  0  0  0  0  0  0  0
   23.5315   -7.5328  -17.0662 N   0  0  0  0  0  0  0  0  0  0  0  0
   22.3993   -8.1111  -16.4579 C   0  0  0  0  0  0  0  0  0  0  0  0
   22.2812   -9.3577  -16.5756 O   0  0  0  0  0  0  0  0  0  0  0  0
   21.3778   -7.3712  -15.7172 C   0  0  0  0  0  0  0  0  0  0  0  0
   19.9687   -7.7379  -15.9737 C   0  0  0  0  0  0  0  0  0  0  0  0
   18.9171   -7.0424  -15.2138 C   0  0  2  0  0  0  0  0  0  0  0  0
   17.6026   -7.4689  -15.6289 N   0  0  0  0  0  0  0  0  0  0  0  0
   19.0152   -5.5697  -15.2217 C   0  0  0  0  0  0  0  0  0  0  0  0
   18.2742   -4.9271  -15.9977 O   0  0  0  0  0  0  0  0  0  0  0  0
   19.8806   -4.8530  -14.4197 O   0  0  0  0  0  0  0  0  0  0  0  0
  1  2  1  0
  2  3  2  0
  4  2  1  0
  4  5  1  0
  5  6  1  0
  6  8  1  0
  6  7  1  6
  8  9  2  0
 10 11  1  0
 10  8  1  0
 11 12  1  1
 13 14  1  0
 13 12  1  0
 14 15  1  0
 16 15  1  0
 17 25  1  0
 17 11  1  0
 18 17  2  0
 19 20  1  0
 20 22  1  0
 21 20  2  0
 22 23  1  0
 24 23  1  6
 24 26  1  0
 24 25  1  0
 26 28  1  0
 27 26  2  0
M  END
$$$$
