RRA.pdb
     RDKit          3D

 28 27  0  0  1  0  0  0  0  0999 V2000
    9.3173  -17.2734   15.1329 N   0  0  0  0  0  0  0  0  0  0  0  0
    8.1887  -18.0772   15.5248 C   0  0  0  0  0  0  0  0  0  0  0  0
    7.6675  -18.9022   14.6825 N   0  0  0  0  0  0  0  0  0  0  0  0
    7.6260  -17.9917   16.8159 N   0  0  0  0  0  0  0  0  0  0  0  0
    8.2561  -17.2179   17.8569 C   0  0  0  0  0  0  0  0  0  0  0  0
    8.1068  -15.7559   17.4563 C   0  0  0  0  0  0  0  0  0  0  0  0
    6.8560  -15.1292   17.9995 C   0  0  0  0  0  0  0  0  0  0  0  0
    7.1575  -13.7683   18.5886 C   0  0  2  0  0  0  0  0  0  0  0  0
    7.9727  -13.0298   17.6299 N   0  0  0  0  0  0  0  0  0  0  0  0
    7.9142  -13.8298   19.8561 C   0  0  0  0  0  0  0  0  0  0  0  0
    9.1528  -13.6061   19.9380 O   0  0  0  0  0  0  0  0  0  0  0  0
    6.9236  -19.5840   14.8723 N   0  0  0  0  0  0  0  0  0  0  0  0
    8.3099  -12.9995   29.2507 C   0  0  0  0  0  0  0  0  0  0  0  0
    7.3142  -12.7840   28.2629 N   0  0  0  0  0  0  0  0  0  0  0  0
    6.5367  -11.7792   28.3410 N   0  0  0  0  0  0  0  0  0  0  0  0
    7.1765  -13.6849   27.1812 C   0  0  0  0  0  0  0  0  0  0  0  0
    6.7383  -13.1976   25.8751 C   0  0  0  0  0  0  0  0  0  0  0  0
    7.7192  -13.5882   24.7957 C   0  0  0  0  0  0  0  0  0  0  0  0
    7.0938  -13.6689   23.4463 C   0  0  1  0  0  0  0  0  0  0  0  0
    8.0357  -14.1199   22.3576 N   0  0  0  0  0  0  0  0  0  0  0  0
    7.2861  -14.1518   21.1026 C   0  0  0  0  0  0  0  0  0  0  0  0
    8.6208  -15.4469   22.5659 O   0  0  0  0  0  0  0  0  0  0  0  0
    7.9203  -16.4677   22.4215 C   0  0  0  0  0  0  0  0  0  0  0  0
    5.8856  -11.5172   27.5933 C   0  0  2  0  0  0  0  0  0  0  0  0
   11.9751  -17.0120   23.0749 N   0  0  0  0  0  0  0  0  0  0  0  0
   10.4837  -16.9138   23.2977 C   0  0  0  0  0  0  0  0  0  0  0  0
    9.9769  -15.5902   22.9305 O   0  0  0  0  0  0  0  0  0  0  0  0
   10.1731  -17.1855   24.7308 O   0  0  0  0  0  0  0  0  0  0  0  0
  2  4  1  0
  2  1  1  0
  3  2  2  0
  5  4  1  0
  6  5  1  0
  7  6  1  0
  8  7  1  0
  8  9  1  6
 10 20  1  0
 10  8  1  0
 11 10  2  0
 13 12  1  0
 14 13  2  0
 15 13  1  0
 16 15  1  0
 17 18  1  0
 17 16  1  0
 19 18  1  6
 19 21  1  0
 19 20  1  0
 21 22  2  0
 24 23  1  6
 25 24  1  0
 25 21  1  0
 26 24  1  0
 27 26  2  0
 28 26  1  0
M  END
$$$$
