RRA.pdb
     RDKit          3D

 28 27  0  0  1  0  0  0  0  0999 V2000
    7.7175  -14.2085   13.0063 N   0  0  0  0  0  0  0  0  0  0  0  0
    7.7746  -14.3289   14.4400 C   0  0  0  0  0  0  0  0  0  0  0  0
    7.4733  -13.3169   15.1795 N   0  0  0  0  0  0  0  0  0  0  0  0
    8.1541  -15.5321   15.0717 N   0  0  0  0  0  0  0  0  0  0  0  0
    8.4524  -15.5752   16.4819 C   0  0  0  0  0  0  0  0  0  0  0  0
    7.9875  -16.9382   16.9782 C   0  0  0  0  0  0  0  0  0  0  0  0
    8.5524  -17.2905   18.3233 C   0  0  0  0  0  0  0  0  0  0  0  0
    9.8647  -16.5723   18.5518 C   0  0  2  0  0  0  0  0  0  0  0  0
   10.9471  -17.4731   18.1699 N   0  0  0  0  0  0  0  0  0  0  0  0
   10.0877  -16.1871   19.9606 C   0  0  0  0  0  0  0  0  0  0  0  0
   11.1831  -16.3561   20.5626 O   0  0  0  0  0  0  0  0  0  0  0  0
    7.5421  -13.2630   16.2026 N   0  0  0  0  0  0  0  0  0  0  0  0
    5.4754  -13.1359   27.2304 C   0  0  0  0  0  0  0  0  0  0  0  0
    6.2089  -12.1387   26.5367 N   0  0  0  0  0  0  0  0  0  0  0  0
    5.8732  -10.9141   26.6252 N   0  0  0  0  0  0  0  0  0  0  0  0
    7.3212  -12.4970   25.7397 C   0  0  0  0  0  0  0  0  0  0  0  0
    7.1198  -13.2235   24.4879 C   0  0  0  0  0  0  0  0  0  0  0  0
    8.4233  -13.3907   23.7444 C   0  0  0  0  0  0  0  0  0  0  0  0
    8.2547  -14.0535   22.4213 C   0  0  2  0  0  0  0  0  0  0  0  0
    9.3559  -15.0247   22.0748 N   0  0  0  0  0  0  0  0  0  0  0  0
    9.0606  -15.5837   20.7564 C   0  0  0  0  0  0  0  0  0  0  0  0
    9.5055  -16.1400   23.0131 O   0  0  0  0  0  0  0  0  0  0  0  0
    8.6082  -16.9999   23.1087 C   0  0  0  0  0  0  0  0  0  0  0  0
    6.4428  -10.1500   26.2470 C   0  0  2  0  0  0  0  0  0  0  0  0
   12.2244  -17.6228   25.1304 N   0  0  0  0  0  0  0  0  0  0  0  0
   10.7859  -17.4011   24.7240 C   0  0  0  0  0  0  0  0  0  0  0  0
   10.6591  -16.2584   23.8178 O   0  0  0  0  0  0  0  0  0  0  0  0
    9.9533  -17.1674   25.9390 O   0  0  0  0  0  0  0  0  0  0  0  0
  2  4  1  0
  2  1  1  0
  3  2  2  0
  5  4  1  0
  6  5  1  0
  7  6  1  0
  8  7  1  0
  8  9  1  1
 10 20  1  0
 10  8  1  0
 11 10  2  0
 13 12  1  0
 14 13  2  0
 15 13  1  0
 16 15  1  0
 17 18  1  0
 17 16  1  0
 19 18  1  6
 19 21  1  0
 19 20  1  0
 21 22  2  0
 24 23  1  6
 25 24  1  0
 25 21  1  0
 26 24  1  0
 27 26  2  0
 28 26  1  0
M  END
$$$$
