RRA.pdb
     RDKit          3D

 28 27  0  0  1  0  0  0  0  0999 V2000
    7.1987  -14.1153   15.5208 N   0  0  0  0  0  0  0  0  0  0  0  0
    8.5552  -14.3522   15.9420 C   0  0  0  0  0  0  0  0  0  0  0  0
    9.2258  -15.3232   15.4232 N   0  0  0  0  0  0  0  0  0  0  0  0
    9.1838  -13.5477   16.9158 N   0  0  0  0  0  0  0  0  0  0  0  0
    9.1431  -13.8965   18.3144 C   0  0  0  0  0  0  0  0  0  0  0  0
    7.8068  -13.3932   18.8445 C   0  0  0  0  0  0  0  0  0  0  0  0
    7.5873  -13.7381   20.2886 C   0  0  0  0  0  0  0  0  0  0  0  0
    8.1207  -15.1218   20.5901 C   0  0  2  0  0  0  0  0  0  0  0  0
    7.3075  -16.0898   19.8619 N   0  0  0  0  0  0  0  0  0  0  0  0
    8.0550  -15.4791   22.0223 C   0  0  0  0  0  0  0  0  0  0  0  0
    6.9729  -15.6455   22.6484 O   0  0  0  0  0  0  0  0  0  0  0  0
   10.2187  -15.5341   15.5780 N   0  0  0  0  0  0  0  0  0  0  0  0
   11.8859  -19.3192   20.9138 C   0  0  0  0  0  0  0  0  0  0  0  0
   11.2183  -20.4801   21.3833 N   0  0  0  0  0  0  0  0  0  0  0  0
   11.0144  -21.4652   20.6034 N   0  0  0  0  0  0  0  0  0  0  0  0
   10.7730  -20.5532   22.7238 C   0  0  0  0  0  0  0  0  0  0  0  0
   11.0123  -19.4365   23.6355 C   0  0  0  0  0  0  0  0  0  0  0  0
    9.9276  -18.3939   23.5094 C   0  0  0  0  0  0  0  0  0  0  0  0
   10.1452  -17.2207   24.4008 C   0  0  2  0  0  0  0  0  0  0  0  0
    9.1469  -16.1065   24.2064 N   0  0  0  0  0  0  0  0  0  0  0  0
    9.2336  -15.6662   22.8148 C   0  0  0  0  0  0  0  0  0  0  0  0
    9.3612  -14.9369   25.0625 O   0  0  0  0  0  0  0  0  0  0  0  0
   10.4539  -14.3377   25.0386 C   0  0  0  0  0  0  0  0  0  0  0  0
   10.5542  -22.3305   20.9049 C   0  0  2  0  0  0  0  0  0  0  0  0
    7.3607  -12.5455   27.0866 N   0  0  0  0  0  0  0  0  0  0  0  0
    8.6145  -13.3428   26.8114 C   0  0  0  0  0  0  0  0  0  0  0  0
    8.3418  -14.4729   25.9215 O   0  0  0  0  0  0  0  0  0  0  0  0
    9.1791  -13.8465   28.0965 O   0  0  0  0  0  0  0  0  0  0  0  0
  2  4  1  0
  2  1  1  0
  3  2  2  0
  5  4  1  0
  6  5  1  0
  7  6  1  0
  8  7  1  0
  8  9  1  6
 10 20  1  0
 10  8  1  0
 11 10  2  0
 13 12  1  0
 14 13  2  0
 15 13  1  0
 16 15  1  0
 17 18  1  0
 17 16  1  0
 19 18  1  6
 19 21  1  0
 19 20  1  0
 21 22  2  0
 24 23  1  6
 25 24  1  0
 25 21  1  0
 26 24  1  0
 27 26  2  0
 28 26  1  0
M  END
$$$$
