RRA.pdb
     RDKit          3D

 28 27  0  0  1  0  0  0  0  0999 V2000
    7.3067  -12.6802   18.6254 N   0  0  0  0  0  0  0  0  0  0  0  0
    8.2089  -13.3953   17.7605 C   0  0  0  0  0  0  0  0  0  0  0  0
    8.6846  -12.8154   16.7121 N   0  0  0  0  0  0  0  0  0  0  0  0
    8.5951  -14.7265   18.0243 N   0  0  0  0  0  0  0  0  0  0  0  0
    7.8201  -15.5711   18.8992 C   0  0  0  0  0  0  0  0  0  0  0  0
    8.1576  -15.1421   20.3212 C   0  0  0  0  0  0  0  0  0  0  0  0
    9.3777  -15.8291   20.8614 C   0  0  0  0  0  0  0  0  0  0  0  0
    8.9952  -17.1126   21.5658 C   0  0  2  0  0  0  0  0  0  0  0  0
    7.5833  -17.3706   21.3032 N   0  0  0  0  0  0  0  0  0  0  0  0
    9.1676  -17.0537   23.0320 C   0  0  0  0  0  0  0  0  0  0  0  0
    8.2134  -16.8778   23.8378 O   0  0  0  0  0  0  0  0  0  0  0  0
    9.2336  -13.2552   15.9641 N   0  0  0  0  0  0  0  0  0  0  0  0
   14.8211  -20.8685   25.9315 C   0  0  0  0  0  0  0  0  0  0  0  0
   14.0772  -21.6270   24.9908 N   0  0  0  0  0  0  0  0  0  0  0  0
   14.2914  -22.8744   24.8561 N   0  0  0  0  0  0  0  0  0  0  0  0
   13.0897  -21.0029   24.1932 C   0  0  0  0  0  0  0  0  0  0  0  0
   12.9571  -19.5476   24.1995 C   0  0  0  0  0  0  0  0  0  0  0  0
   12.1971  -19.0795   25.4173 C   0  0  0  0  0  0  0  0  0  0  0  0
   11.9973  -17.6038   25.4435 C   0  0  2  0  0  0  0  0  0  0  0  0
   10.5927  -17.1669   25.1087 N   0  0  0  0  0  0  0  0  0  0  0  0
   10.4504  -17.1953   23.6538 C   0  0  0  0  0  0  0  0  0  0  0  0
   10.2451  -15.8198   25.5685 O   0  0  0  0  0  0  0  0  0  0  0  0
   10.7295  -14.8219   25.0002 C   0  0  0  0  0  0  0  0  0  0  0  0
   13.7905  -23.4572   24.1771 C   0  0  2  0  0  0  0  0  0  0  0  0
    7.6923  -14.0115   27.4415 N   0  0  0  0  0  0  0  0  0  0  0  0
    9.1564  -14.2821   27.1833 C   0  0  0  0  0  0  0  0  0  0  0  0
    9.3628  -15.6314   26.6541 O   0  0  0  0  0  0  0  0  0  0  0  0
    9.9258  -14.1218   28.4507 O   0  0  0  0  0  0  0  0  0  0  0  0
  2  4  1  0
  2  1  1  0
  3  2  2  0
  5  4  1  0
  6  5  1  0
  7  6  1  0
  8  7  1  0
  8  9  1  1
 10 20  1  0
 10  8  1  0
 11 10  2  0
 13 12  1  0
 14 13  2  0
 15 13  1  0
 16 15  1  0
 17 18  1  0
 17 16  1  0
 19 18  1  1
 19 21  1  0
 19 20  1  0
 21 22  2  0
 24 23  1  6
 25 24  1  0
 25 21  1  0
 26 24  1  0
 27 26  2  0
 28 26  1  0
M  END
$$$$
