RRA.pdb
     RDKit          3D

 28 27  0  0  1  0  0  0  0  0999 V2000
   13.2682  -21.4112   23.0502 N   0  0  0  0  0  0  0  0  0  0  0  0
   14.0646  -20.7811   24.0710 C   0  0  0  0  0  0  0  0  0  0  0  0
   15.3445  -20.7143   23.9337 N   0  0  0  0  0  0  0  0  0  0  0  0
   13.4846  -20.2271   25.2319 N   0  0  0  0  0  0  0  0  0  0  0  0
   12.0550  -20.2129   25.4204 C   0  0  0  0  0  0  0  0  0  0  0  0
   11.4539  -19.7114   24.1137 C   0  0  0  0  0  0  0  0  0  0  0  0
    9.9602  -19.5782   24.1745 C   0  0  0  0  0  0  0  0  0  0  0  0
    9.4275  -18.9910   22.8855 C   0  0  2  0  0  0  0  0  0  0  0  0
   10.2221  -19.5219   21.7830 N   0  0  0  0  0  0  0  0  0  0  0  0
    9.5204  -17.5177   22.8269 C   0  0  0  0  0  0  0  0  0  0  0  0
   10.5319  -16.9015   22.3933 O   0  0  0  0  0  0  0  0  0  0  0  0
   16.0140  -20.3236   24.6072 N   0  0  0  0  0  0  0  0  0  0  0  0
    8.9606  -14.4629   17.2710 C   0  0  0  0  0  0  0  0  0  0  0  0
    8.2326  -13.5808   18.1109 N   0  0  0  0  0  0  0  0  0  0  0  0
    7.6114  -12.5863   17.6156 N   0  0  0  0  0  0  0  0  0  0  0  0
    8.1906  -13.7989   19.5078 C   0  0  0  0  0  0  0  0  0  0  0  0
    7.3599  -12.9469   20.3561 C   0  0  0  0  0  0  0  0  0  0  0  0
    7.4884  -13.3405   21.8081 C   0  0  0  0  0  0  0  0  0  0  0  0
    7.6022  -14.8129   22.0014 C   0  0  1  0  0  0  0  0  0  0  0  0
    8.5316  -15.2169   23.1189 N   0  0  0  0  0  0  0  0  0  0  0  0
    8.4517  -16.6697   23.2639 C   0  0  0  0  0  0  0  0  0  0  0  0
    8.2215  -14.6173   24.4193 O   0  0  0  0  0  0  0  0  0  0  0  0
    7.1394  -14.8732   24.9825 C   0  0  0  0  0  0  0  0  0  0  0  0
    7.0990  -11.9066   18.1874 C   0  0  1  0  0  0  0  0  0  0  0  0
    7.3900  -12.5887   26.3337 N   0  0  0  0  0  0  0  0  0  0  0  0
    8.7885  -13.1612   26.3469 C   0  0  0  0  0  0  0  0  0  0  0  0
    9.1358  -13.7470   25.0509 O   0  0  0  0  0  0  0  0  0  0  0  0
    8.8920  -14.2040   27.4080 O   0  0  0  0  0  0  0  0  0  0  0  0
  2  4  1  0
  2  1  1  0
  3  2  2  0
  5  4  1  0
  6  5  1  0
  7  6  1  0
  8  7  1  0
  8  9  1  6
 10 20  1  0
 10  8  1  0
 11 10  2  0
 13 12  1  0
 14 13  2  0
 15 13  1  0
 16 15  1  0
 17 18  1  0
 17 16  1  0
 19 18  1  6
 19 21  1  0
 19 20  1  0
 21 22  2  0
 24 23  1  1
 25 24  1  0
 25 21  1  0
 26 24  1  0
 27 26  2  0
 28 26  1  0
M  END
$$$$
