RRA.pdb
     RDKit          3D

 28 27  0  0  1  0  0  0  0  0999 V2000
    8.1020  -13.6764   15.4189 N   0  0  0  0  0  0  0  0  0  0  0  0
    8.5854  -13.7682   16.7722 C   0  0  0  0  0  0  0  0  0  0  0  0
    8.7653  -12.6939   17.4615 N   0  0  0  0  0  0  0  0  0  0  0  0
    8.8729  -15.0098   17.3776 N   0  0  0  0  0  0  0  0  0  0  0  0
    8.8600  -15.1641   18.8113 C   0  0  0  0  0  0  0  0  0  0  0  0
    7.4077  -15.0177   19.2466 C   0  0  0  0  0  0  0  0  0  0  0  0
    7.2466  -15.0051   20.7387 C   0  0  0  0  0  0  0  0  0  0  0  0
    7.4872  -16.3859   21.3094 C   0  0  2  0  0  0  0  0  0  0  0  0
    6.4199  -17.2629   20.8397 N   0  0  0  0  0  0  0  0  0  0  0  0
    7.4712  -16.4236   22.7863 C   0  0  0  0  0  0  0  0  0  0  0  0
    6.4345  -16.2218   23.4759 O   0  0  0  0  0  0  0  0  0  0  0  0
    9.1669  -12.6304   18.4044 N   0  0  0  0  0  0  0  0  0  0  0  0
   13.5148  -18.8345   28.8500 C   0  0  0  0  0  0  0  0  0  0  0  0
   12.3989  -18.4009   29.6117 N   0  0  0  0  0  0  0  0  0  0  0  0
   12.4563  -18.3798   30.8831 N   0  0  0  0  0  0  0  0  0  0  0  0
   11.2112  -17.9875   28.9643 C   0  0  0  0  0  0  0  0  0  0  0  0
   11.1104  -18.0562   27.5081 C   0  0  0  0  0  0  0  0  0  0  0  0
    9.7569  -17.5809   27.0370 C   0  0  0  0  0  0  0  0  0  0  0  0
    9.6190  -17.6031   25.5542 C   0  0  1  0  0  0  0  0  0  0  0  0
    8.6455  -16.5864   25.0114 N   0  0  0  0  0  0  0  0  0  0  0  0
    8.6496  -16.6972   23.5535 C   0  0  0  0  0  0  0  0  0  0  0  0
    8.9555  -15.1970   25.3579 O   0  0  0  0  0  0  0  0  0  0  0  0
    9.9913  -14.6604   24.9189 C   0  0  0  0  0  0  0  0  0  0  0  0
   11.6634  -18.1080   31.4737 C   0  0  2  0  0  0  0  0  0  0  0  0
    7.3193  -12.1790   26.7206 N   0  0  0  0  0  0  0  0  0  0  0  0
    8.5027  -13.1143   26.6285 C   0  0  0  0  0  0  0  0  0  0  0  0
    8.0929  -14.4489   26.1878 O   0  0  0  0  0  0  0  0  0  0  0  0
    9.1675  -13.2123   27.9599 O   0  0  0  0  0  0  0  0  0  0  0  0
  2  4  1  0
  2  1  1  0
  3  2  2  0
  5  4  1  0
  6  5  1  0
  7  6  1  0
  8  7  1  0
  8  9  1  6
 10 20  1  0
 10  8  1  0
 11 10  2  0
 13 12  1  0
 14 13  2  0
 15 13  1  0
 16 15  1  0
 17 18  1  0
 17 16  1  0
 19 18  1  1
 19 21  1  0
 19 20  1  0
 21 22  2  0
 24 23  1  6
 25 24  1  0
 25 21  1  0
 26 24  1  0
 27 26  2  0
 28 26  1  0
M  END
$$$$
