RRA.pdb
     RDKit          3D

 28 27  0  0  1  0  0  0  0  0999 V2000
    8.6536  -15.4192   13.2865 N   0  0  0  0  0  0  0  0  0  0  0  0
    7.9690  -14.9871   14.4774 C   0  0  0  0  0  0  0  0  0  0  0  0
    6.8591  -15.5482   14.8164 N   0  0  0  0  0  0  0  0  0  0  0  0
    8.4778  -13.9572   15.2966 N   0  0  0  0  0  0  0  0  0  0  0  0
    7.7569  -13.5003   16.4589 C   0  0  0  0  0  0  0  0  0  0  0  0
    7.9655  -14.5561   17.5368 C   0  0  0  0  0  0  0  0  0  0  0  0
    7.1388  -14.3049   18.7640 C   0  0  0  0  0  0  0  0  0  0  0  0
    7.9365  -13.5316   19.7914 C   0  0  2  0  0  0  0  0  0  0  0  0
    9.3228  -13.4746   19.3399 N   0  0  0  0  0  0  0  0  0  0  0  0
    7.9341  -14.1558   21.1305 C   0  0  0  0  0  0  0  0  0  0  0  0
    6.9137  -14.2116   21.8698 O   0  0  0  0  0  0  0  0  0  0  0  0
    6.3469  -15.4122   15.6960 N   0  0  0  0  0  0  0  0  0  0  0  0
   13.5696  -17.9841   26.6604 C   0  0  0  0  0  0  0  0  0  0  0  0
   13.6709  -17.0169   25.6270 N   0  0  0  0  0  0  0  0  0  0  0  0
   14.4833  -16.0429   25.7342 N   0  0  0  0  0  0  0  0  0  0  0  0
   12.8690  -17.1266   24.4670 C   0  0  0  0  0  0  0  0  0  0  0  0
   11.6136  -17.8729   24.5139 C   0  0  0  0  0  0  0  0  0  0  0  0
   10.4278  -16.9402   24.4540 C   0  0  0  0  0  0  0  0  0  0  0  0
   10.3284  -16.2121   23.1585 C   0  0  2  0  0  0  0  0  0  0  0  0
    9.0776  -15.3810   23.0141 N   0  0  0  0  0  0  0  0  0  0  0  0
    9.1080  -14.7527   21.6941 C   0  0  0  0  0  0  0  0  0  0  0  0
    8.9293  -14.3203   24.0139 O   0  0  0  0  0  0  0  0  0  0  0  0
    9.6943  -13.3364   23.9983 C   0  0  0  0  0  0  0  0  0  0  0  0
   14.6462  -15.3659   24.9815 C   0  0  1  0  0  0  0  0  0  0  0  0
    6.4177  -12.6479   25.8471 N   0  0  0  0  0  0  0  0  0  0  0  0
    7.7789  -13.2947   25.9587 C   0  0  0  0  0  0  0  0  0  0  0  0
    7.9253  -14.3944   25.0033 O   0  0  0  0  0  0  0  0  0  0  0  0
    7.9758  -13.8099   27.3442 O   0  0  0  0  0  0  0  0  0  0  0  0
  2  4  1  0
  2  1  1  0
  3  2  2  0
  5  4  1  0
  6  5  1  0
  7  6  1  0
  8  7  1  0
  8  9  1  6
 10 20  1  0
 10  8  1  0
 11 10  2  0
 13 12  1  0
 14 13  2  0
 15 13  1  0
 16 15  1  0
 17 18  1  0
 17 16  1  0
 19 18  1  6
 19 21  1  0
 19 20  1  0
 21 22  2  0
 24 23  1  1
 25 24  1  0
 25 21  1  0
 26 24  1  0
 27 26  2  0
 28 26  1  0
M  END
$$$$
