RRA.pdb
     RDKit          3D

 28 27  0  0  1  0  0  0  0  0999 V2000
    8.3189  -15.9213   13.6350 N   0  0  0  0  0  0  0  0  0  0  0  0
    7.3444  -16.8260   14.1875 C   0  0  0  0  0  0  0  0  0  0  0  0
    6.4341  -17.3290   13.4259 N   0  0  0  0  0  0  0  0  0  0  0  0
    7.3515  -17.1856   15.5519 N   0  0  0  0  0  0  0  0  0  0  0  0
    8.3978  -16.7391   16.4380 C   0  0  0  0  0  0  0  0  0  0  0  0
    8.1071  -15.2754   16.7436 C   0  0  0  0  0  0  0  0  0  0  0  0
    9.0625  -14.6893   17.7417 C   0  0  0  0  0  0  0  0  0  0  0  0
    8.3102  -14.1220   18.9258 C   0  0  2  0  0  0  0  0  0  0  0  0
    8.0239  -12.7180   18.6507 N   0  0  0  0  0  0  0  0  0  0  0  0
    9.0734  -14.1771   20.1897 C   0  0  0  0  0  0  0  0  0  0  0  0
   10.1370  -13.5290   20.3886 O   0  0  0  0  0  0  0  0  0  0  0  0
    5.7297  -18.0275   13.6912 N   0  0  0  0  0  0  0  0  0  0  0  0
    7.8952  -17.5513   26.3518 C   0  0  0  0  0  0  0  0  0  0  0  0
    6.8465  -17.7420   25.4151 N   0  0  0  0  0  0  0  0  0  0  0  0
    6.4496  -18.9156   25.1231 N   0  0  0  0  0  0  0  0  0  0  0  0
    6.2320  -16.6282   24.7965 C   0  0  0  0  0  0  0  0  0  0  0  0
    6.6285  -15.2727   25.1717 C   0  0  0  0  0  0  0  0  0  0  0  0
    7.5230  -14.6608   24.1204 C   0  0  0  0  0  0  0  0  0  0  0  0
    8.5533  -15.6092   23.6130 C   0  0  2  0  0  0  0  0  0  0  0  0
    9.4363  -15.0377   22.5316 N   0  0  0  0  0  0  0  0  0  0  0  0
    8.6536  -14.9821   21.2979 C   0  0  0  0  0  0  0  0  0  0  0  0
   10.6499  -15.8124   22.2598 O   0  0  0  0  0  0  0  0  0  0  0  0
   10.8067  -16.3581   21.1502 C   0  0  0  0  0  0  0  0  0  0  0  0
    5.6659  -19.0983   24.4875 C   0  0  1  0  0  0  0  0  0  0  0  0
   13.5739  -16.2008   21.7303 N   0  0  0  0  0  0  0  0  0  0  0  0
   12.8473  -16.7440   22.9388 C   0  0  0  0  0  0  0  0  0  0  0  0
   11.6537  -15.9523   23.2423 O   0  0  0  0  0  0  0  0  0  0  0  0
   13.7616  -16.7372   24.1170 O   0  0  0  0  0  0  0  0  0  0  0  0
  2  4  1  0
  2  1  1  0
  3  2  2  0
  5  4  1  0
  6  5  1  0
  7  6  1  0
  8  7  1  0
  8  9  1  6
 10 20  1  0
 10  8  1  0
 11 10  2  0
 13 12  1  0
 14 13  2  0
 15 13  1  0
 16 15  1  0
 17 18  1  0
 17 16  1  0
 19 18  1  1
 19 21  1  0
 19 20  1  0
 21 22  2  0
 24 23  1  6
 25 24  1  0
 25 21  1  0
 26 24  1  0
 27 26  2  0
 28 26  1  0
M  END
$$$$
