RRA.pdb
     RDKit          3D

 28 27  0  0  1  0  0  0  0  0999 V2000
    9.7446  -13.6889   19.8084 N   0  0  0  0  0  0  0  0  0  0  0  0
    9.2122  -13.6982   18.4705 C   0  0  0  0  0  0  0  0  0  0  0  0
   10.0151  -13.6801   17.4622 N   0  0  0  0  0  0  0  0  0  0  0  0
    7.8235  -13.7266   18.2220 N   0  0  0  0  0  0  0  0  0  0  0  0
    6.8723  -13.8317   19.3006 C   0  0  0  0  0  0  0  0  0  0  0  0
    6.9731  -15.2581   19.8254 C   0  0  0  0  0  0  0  0  0  0  0  0
    5.9545  -15.5607   20.8853 C   0  0  0  0  0  0  0  0  0  0  0  0
    6.1065  -16.9843   21.3756 C   0  0  2  0  0  0  0  0  0  0  0  0
    4.9686  -17.7559   20.8873 N   0  0  0  0  0  0  0  0  0  0  0  0
    6.1197  -17.1017   22.8484 C   0  0  0  0  0  0  0  0  0  0  0  0
    5.0884  -16.9827   23.5646 O   0  0  0  0  0  0  0  0  0  0  0  0
    9.7527  -13.6509   16.4699 N   0  0  0  0  0  0  0  0  0  0  0  0
    8.9558  -22.0791   28.5456 C   0  0  0  0  0  0  0  0  0  0  0  0
    9.3637  -20.7990   29.0025 N   0  0  0  0  0  0  0  0  0  0  0  0
   10.5587  -20.6067   29.3964 N   0  0  0  0  0  0  0  0  0  0  0  0
    8.4448  -19.7238   29.0245 C   0  0  0  0  0  0  0  0  0  0  0  0
    7.6958  -19.3776   27.8185 C   0  0  0  0  0  0  0  0  0  0  0  0
    8.3341  -18.2118   27.1020 C   0  0  0  0  0  0  0  0  0  0  0  0
    8.1828  -18.2881   25.6222 C   0  0  2  0  0  0  0  0  0  0  0  0
    7.3906  -17.1515   25.0252 N   0  0  0  0  0  0  0  0  0  0  0  0
    7.3229  -17.3641   23.5802 C   0  0  0  0  0  0  0  0  0  0  0  0
    7.9589  -15.8212   25.2581 O   0  0  0  0  0  0  0  0  0  0  0  0
    9.0135  -15.4840   24.6856 C   0  0  0  0  0  0  0  0  0  0  0  0
   10.8939  -19.7017   29.7427 C   0  0  2  0  0  0  0  0  0  0  0  0
    6.9263  -12.5273   26.5893 N   0  0  0  0  0  0  0  0  0  0  0  0
    7.9588  -13.6123   26.3887 C   0  0  0  0  0  0  0  0  0  0  0  0
    7.3264  -14.9067   26.1275 O   0  0  0  0  0  0  0  0  0  0  0  0
    8.8190  -13.7148   27.6025 O   0  0  0  0  0  0  0  0  0  0  0  0
  2  4  1  0
  2  1  1  0
  3  2  2  0
  5  4  1  0
  6  5  1  0
  7  6  1  0
  8  7  1  0
  8  9  1  1
 10 20  1  0
 10  8  1  0
 11 10  2  0
 13 12  1  0
 14 13  2  0
 15 13  1  0
 16 15  1  0
 17 18  1  0
 17 16  1  0
 19 18  1  1
 19 21  1  0
 19 20  1  0
 21 22  2  0
 24 23  1  6
 25 24  1  0
 25 21  1  0
 26 24  1  0
 27 26  2  0
 28 26  1  0
M  END
$$$$
