RRA.pdb
     RDKit          3D

 28 27  0  0  1  0  0  0  0  0999 V2000
   12.6282  -18.0850   12.8433 N   0  0  0  0  0  0  0  0  0  0  0  0
   12.6496  -17.7915   14.2529 C   0  0  0  0  0  0  0  0  0  0  0  0
   11.5520  -17.8173   14.9284 N   0  0  0  0  0  0  0  0  0  0  0  0
   13.8462  -17.4721   14.9289 N   0  0  0  0  0  0  0  0  0  0  0  0
   13.8455  -17.1275   16.3291 C   0  0  0  0  0  0  0  0  0  0  0  0
   13.8636  -18.4435   17.0959 C   0  0  0  0  0  0  0  0  0  0  0  0
   14.0032  -18.2508   18.5777 C   0  0  0  0  0  0  0  0  0  0  0  0
   13.0015  -19.1081   19.3205 C   0  0  2  0  0  0  0  0  0  0  0  0
   11.8974  -19.4039   18.4138 N   0  0  0  0  0  0  0  0  0  0  0  0
   12.4292  -18.4471   20.5115 C   0  0  0  0  0  0  0  0  0  0  0  0
   13.1301  -17.9308   21.4243 O   0  0  0  0  0  0  0  0  0  0  0  0
   11.4576  -17.7397   15.9480 N   0  0  0  0  0  0  0  0  0  0  0  0
    7.8864  -13.1887   18.7216 C   0  0  0  0  0  0  0  0  0  0  0  0
    8.1369  -12.8352   20.0728 N   0  0  0  0  0  0  0  0  0  0  0  0
    8.3393  -11.6201   20.3935 N   0  0  0  0  0  0  0  0  0  0  0  0
    8.1640  -13.8311   21.0770 C   0  0  0  0  0  0  0  0  0  0  0  0
    8.5879  -15.1901   20.7474 C   0  0  0  0  0  0  0  0  0  0  0  0
    8.5477  -16.0794   21.9669 C   0  0  0  0  0  0  0  0  0  0  0  0
    8.9982  -17.4707   21.6844 C   0  0  2  0  0  0  0  0  0  0  0  0
   10.4718  -17.6987   21.9132 N   0  0  0  0  0  0  0  0  0  0  0  0
   11.0156  -18.3423   20.7183 C   0  0  0  0  0  0  0  0  0  0  0  0
   10.7878  -18.5478   23.0647 O   0  0  0  0  0  0  0  0  0  0  0  0
   10.8735  -19.7833   22.9244 C   0  0  0  0  0  0  0  0  0  0  0  0
    8.4972  -11.3162   21.3600 C   0  0  2  0  0  0  0  0  0  0  0  0
   12.6109  -19.5103   25.3956 N   0  0  0  0  0  0  0  0  0  0  0  0
   11.2450  -18.8696   25.4823 C   0  0  0  0  0  0  0  0  0  0  0  0
   10.9989  -17.9851   24.3419 O   0  0  0  0  0  0  0  0  0  0  0  0
   11.1379  -18.0898   26.7490 O   0  0  0  0  0  0  0  0  0  0  0  0
  2  4  1  0
  2  1  1  0
  3  2  2  0
  5  4  1  0
  6  5  1  0
  7  6  1  0
  8  7  1  0
  8  9  1  6
 10 20  1  0
 10  8  1  0
 11 10  2  0
 13 12  1  0
 14 13  2  0
 15 13  1  0
 16 15  1  0
 17 18  1  0
 17 16  1  0
 19 18  1  6
 19 21  1  0
 19 20  1  0
 21 22  2  0
 24 23  1  6
 25 24  1  0
 25 21  1  0
 26 24  1  0
 27 26  2  0
 28 26  1  0
M  END
$$$$
