RRA.pdb
     RDKit          3D

 28 27  0  0  1  0  0  0  0  0999 V2000
    7.8676  -13.1802   20.5434 N   0  0  0  0  0  0  0  0  0  0  0  0
    8.5180  -12.7300   19.3402 C   0  0  0  0  0  0  0  0  0  0  0  0
    9.2602  -11.6765   19.3700 N   0  0  0  0  0  0  0  0  0  0  0  0
    8.3688  -13.4112   18.1136 N   0  0  0  0  0  0  0  0  0  0  0  0
    7.3850  -14.4528   17.9509 C   0  0  0  0  0  0  0  0  0  0  0  0
    7.7761  -15.5677   18.9122 C   0  0  0  0  0  0  0  0  0  0  0  0
    8.7006  -16.5733   18.2905 C   0  0  0  0  0  0  0  0  0  0  0  0
    9.0344  -17.6690   19.2794 C   0  0  2  0  0  0  0  0  0  0  0  0
    7.7822  -18.2475   19.7549 N   0  0  0  0  0  0  0  0  0  0  0  0
    9.7757  -17.1879   20.4634 C   0  0  0  0  0  0  0  0  0  0  0  0
   10.9167  -16.6540   20.3998 O   0  0  0  0  0  0  0  0  0  0  0  0
    9.7247  -11.2309   18.5699 N   0  0  0  0  0  0  0  0  0  0  0  0
   10.3026  -15.1953   28.8311 C   0  0  0  0  0  0  0  0  0  0  0  0
    9.4932  -14.1631   28.2896 N   0  0  0  0  0  0  0  0  0  0  0  0
    8.9754  -13.2846   29.0512 N   0  0  0  0  0  0  0  0  0  0  0  0
    9.2544  -14.1011   26.8968 C   0  0  0  0  0  0  0  0  0  0  0  0
    8.6743  -15.2488   26.2027 C   0  0  0  0  0  0  0  0  0  0  0  0
    9.6644  -15.8524   25.2357 C   0  0  0  0  0  0  0  0  0  0  0  0
    9.0400  -16.2598   23.9463 C   0  0  1  0  0  0  0  0  0  0  0  0
   10.0106  -16.8439   22.9500 N   0  0  0  0  0  0  0  0  0  0  0  0
    9.2437  -17.2937   21.7893 C   0  0  0  0  0  0  0  0  0  0  0  0
   10.7851  -17.9841   23.4468 O   0  0  0  0  0  0  0  0  0  0  0  0
   10.3316  -19.1403   23.3410 C   0  0  0  0  0  0  0  0  0  0  0  0
    8.3883  -12.5194   28.7030 C   0  0  2  0  0  0  0  0  0  0  0  0
   14.1749  -19.0223   24.0696 N   0  0  0  0  0  0  0  0  0  0  0  0
   12.7608  -18.9485   24.5974 C   0  0  0  0  0  0  0  0  0  0  0  0
   12.0477  -17.7937   24.0485 O   0  0  0  0  0  0  0  0  0  0  0  0
   12.7866  -18.8560   26.0856 O   0  0  0  0  0  0  0  0  0  0  0  0
  2  4  1  0
  2  1  1  0
  3  2  2  0
  5  4  1  0
  6  5  1  0
  7  6  1  0
  8  7  1  0
  8  9  1  1
 10 20  1  0
 10  8  1  0
 11 10  2  0
 13 12  1  0
 14 13  2  0
 15 13  1  0
 16 15  1  0
 17 18  1  0
 17 16  1  0
 19 18  1  6
 19 21  1  0
 19 20  1  0
 21 22  2  0
 24 23  1  6
 25 24  1  0
 25 21  1  0
 26 24  1  0
 27 26  2  0
 28 26  1  0
M  END
$$$$
