RRA.pdb
     RDKit          3D

 28 27  0  0  1  0  0  0  0  0999 V2000
   16.9954  -18.8706   18.2601 N   0  0  0  0  0  0  0  0  0  0  0  0
   16.6366  -19.9784   17.4131 C   0  0  0  0  0  0  0  0  0  0  0  0
   17.2515  -20.1532   16.2937 N   0  0  0  0  0  0  0  0  0  0  0  0
   15.6218  -20.8911   17.7709 N   0  0  0  0  0  0  0  0  0  0  0  0
   14.2899  -20.4411   18.0919 C   0  0  0  0  0  0  0  0  0  0  0  0
   14.3036  -20.0778   19.5711 C   0  0  0  0  0  0  0  0  0  0  0  0
   12.9787  -19.5659   20.0560 C   0  0  0  0  0  0  0  0  0  0  0  0
   11.9949  -20.7052   20.2114 C   0  0  2  0  0  0  0  0  0  0  0  0
   10.9841  -20.5770   19.1669 N   0  0  0  0  0  0  0  0  0  0  0  0
   11.2901  -20.7018   21.5099 C   0  0  0  0  0  0  0  0  0  0  0  0
   10.4098  -19.8538   21.8210 O   0  0  0  0  0  0  0  0  0  0  0  0
   17.1276  -20.9370   15.6420 N   0  0  0  0  0  0  0  0  0  0  0  0
   10.7133  -26.0039   20.6909 C   0  0  0  0  0  0  0  0  0  0  0  0
    9.3422  -26.2948   20.9123 N   0  0  0  0  0  0  0  0  0  0  0  0
    8.6398  -26.8244   19.9924 N   0  0  0  0  0  0  0  0  0  0  0  0
    8.7428  -25.9985   22.1588 C   0  0  0  0  0  0  0  0  0  0  0  0
    9.5301  -25.3705   23.2176 C   0  0  0  0  0  0  0  0  0  0  0  0
    9.6354  -23.8800   23.0012 C   0  0  0  0  0  0  0  0  0  0  0  0
   10.4765  -23.2036   24.0276 C   0  0  2  0  0  0  0  0  0  0  0  0
   10.7480  -21.7480   23.7388 N   0  0  0  0  0  0  0  0  0  0  0  0
   11.5592  -21.6766   22.5245 C   0  0  0  0  0  0  0  0  0  0  0  0
   11.4644  -21.0369   24.8009 O   0  0  0  0  0  0  0  0  0  0  0  0
   12.2322  -20.0976   24.5151 C   0  0  0  0  0  0  0  0  0  0  0  0
    7.6424  -27.0356   20.1025 C   0  0  2  0  0  0  0  0  0  0  0  0
   10.6938  -19.2553   27.1868 N   0  0  0  0  0  0  0  0  0  0  0  0
   11.6366  -20.4361   27.2023 C   0  0  0  0  0  0  0  0  0  0  0  0
   11.2981  -21.4010   26.1545 O   0  0  0  0  0  0  0  0  0  0  0  0
   11.5775  -21.1059   28.5334 O   0  0  0  0  0  0  0  0  0  0  0  0
  2  4  1  0
  2  1  1  0
  3  2  2  0
  5  4  1  0
  6  5  1  0
  7  6  1  0
  8  7  1  0
  8  9  1  6
 10 20  1  0
 10  8  1  0
 11 10  2  0
 13 12  1  0
 14 13  2  0
 15 13  1  0
 16 15  1  0
 17 18  1  0
 17 16  1  0
 19 18  1  6
 19 21  1  0
 19 20  1  0
 21 22  2  0
 24 23  1  6
 25 24  1  0
 25 21  1  0
 26 24  1  0
 27 26  2  0
 28 26  1  0
M  END
$$$$
