RRA.pdb
     RDKit          3D

 28 27  0  0  1  0  0  0  0  0999 V2000
    8.0053  -14.6384   15.9353 N   0  0  0  0  0  0  0  0  0  0  0  0
    8.2184  -13.9175   17.1634 C   0  0  0  0  0  0  0  0  0  0  0  0
    7.9546  -12.6570   17.2194 N   0  0  0  0  0  0  0  0  0  0  0  0
    8.7127  -14.5516   18.3229 N   0  0  0  0  0  0  0  0  0  0  0  0
    8.5064  -13.9836   19.6322 C   0  0  0  0  0  0  0  0  0  0  0  0
    7.6255  -14.9660   20.3933 C   0  0  0  0  0  0  0  0  0  0  0  0
    8.2168  -16.3437   20.4623 C   0  0  0  0  0  0  0  0  0  0  0  0
    7.2898  -17.2818   21.2044 C   0  0  2  0  0  0  0  0  0  0  0  0
    5.9783  -17.2208   20.5679 N   0  0  0  0  0  0  0  0  0  0  0  0
    7.1069  -16.9259   22.6267 C   0  0  0  0  0  0  0  0  0  0  0  0
    6.0343  -16.4538   23.0929 O   0  0  0  0  0  0  0  0  0  0  0  0
    7.9849  -12.0607   18.0548 N   0  0  0  0  0  0  0  0  0  0  0  0
   11.7094  -15.6943   28.7259 C   0  0  0  0  0  0  0  0  0  0  0  0
   11.1638  -16.5416   29.7250 N   0  0  0  0  0  0  0  0  0  0  0  0
   11.6188  -16.5115   30.9134 N   0  0  0  0  0  0  0  0  0  0  0  0
   10.1081  -17.4283   29.4088 C   0  0  0  0  0  0  0  0  0  0  0  0
    9.9737  -17.9502   28.0506 C   0  0  0  0  0  0  0  0  0  0  0  0
    8.9916  -17.1283   27.2506 C   0  0  0  0  0  0  0  0  0  0  0  0
    8.9058  -17.5535   25.8258 C   0  0  1  0  0  0  0  0  0  0  0  0
    7.9461  -16.7367   24.9966 N   0  0  0  0  0  0  0  0  0  0  0  0
    8.1501  -17.0949   23.5938 C   0  0  0  0  0  0  0  0  0  0  0  0
    8.1130  -15.2862   25.1194 O   0  0  0  0  0  0  0  0  0  0  0  0
    9.1192  -14.7307   24.6372 C   0  0  0  0  0  0  0  0  0  0  0  0
   11.2644  -17.1151   31.6627 C   0  0  2  0  0  0  0  0  0  0  0  0
    6.1080  -12.3391   26.3188 N   0  0  0  0  0  0  0  0  0  0  0  0
    7.3805  -13.0651   25.9484 C   0  0  0  0  0  0  0  0  0  0  0  0
    7.1446  -14.5001   25.7802 O   0  0  0  0  0  0  0  0  0  0  0  0
    8.4059  -12.8504   27.0097 O   0  0  0  0  0  0  0  0  0  0  0  0
  2  4  1  0
  2  1  1  0
  3  2  2  0
  5  4  1  0
  6  5  1  0
  7  6  1  0
  8  7  1  0
  8  9  1  6
 10 20  1  0
 10  8  1  0
 11 10  2  0
 13 12  1  0
 14 13  2  0
 15 13  1  0
 16 15  1  0
 17 18  1  0
 17 16  1  0
 19 18  1  1
 19 21  1  0
 19 20  1  0
 21 22  2  0
 24 23  1  6
 25 24  1  0
 25 21  1  0
 26 24  1  0
 27 26  2  0
 28 26  1  0
M  END
$$$$
