RRA.pdb
     RDKit          3D

 28 27  0  0  1  0  0  0  0  0999 V2000
   16.1653  -22.3106   20.2555 N   0  0  0  0  0  0  0  0  0  0  0  0
   15.1547  -22.7034   19.3079 C   0  0  0  0  0  0  0  0  0  0  0  0
   14.7245  -23.9185   19.2983 N   0  0  0  0  0  0  0  0  0  0  0  0
   14.6122  -21.7922   18.3773 N   0  0  0  0  0  0  0  0  0  0  0  0
   13.2436  -21.3485   18.4750 C   0  0  0  0  0  0  0  0  0  0  0  0
   13.2105  -20.2951   19.5748 C   0  0  0  0  0  0  0  0  0  0  0  0
   13.2824  -18.8945   19.0403 C   0  0  0  0  0  0  0  0  0  0  0  0
   11.8982  -18.2896   18.9508 C   0  0  2  0  0  0  0  0  0  0  0  0
   11.8308  -17.4898   17.7323 N   0  0  0  0  0  0  0  0  0  0  0  0
   11.5710  -17.3977   20.0824 C   0  0  0  0  0  0  0  0  0  0  0  0
   12.1688  -16.3098   20.3057 O   0  0  0  0  0  0  0  0  0  0  0  0
   13.9541  -24.2917   18.7312 N   0  0  0  0  0  0  0  0  0  0  0  0
    5.9855  -13.8289   20.0135 C   0  0  0  0  0  0  0  0  0  0  0  0
    7.0282  -12.9251   19.6827 N   0  0  0  0  0  0  0  0  0  0  0  0
    6.7599  -11.7966   19.1584 N   0  0  0  0  0  0  0  0  0  0  0  0
    8.3770  -13.2703   19.9327 C   0  0  0  0  0  0  0  0  0  0  0  0
    8.7104  -14.1570   21.0453 C   0  0  0  0  0  0  0  0  0  0  0  0
    8.2649  -15.5715   20.7613 C   0  0  0  0  0  0  0  0  0  0  0  0
    8.6209  -16.5210   21.8522 C   0  0  2  0  0  0  0  0  0  0  0  0
   10.1046  -16.7339   22.0229 N   0  0  0  0  0  0  0  0  0  0  0  0
   10.5347  -17.7085   21.0214 C   0  0  0  0  0  0  0  0  0  0  0  0
   10.5028  -17.2368   23.3402 O   0  0  0  0  0  0  0  0  0  0  0  0
   10.7360  -18.4507   23.5004 C   0  0  0  0  0  0  0  0  0  0  0  0
    7.4820  -11.1237   18.8808 C   0  0  1  0  0  0  0  0  0  0  0  0
   11.0336  -15.8264   26.8037 N   0  0  0  0  0  0  0  0  0  0  0  0
   11.0400  -16.8988   25.7390 C   0  0  0  0  0  0  0  0  0  0  0  0
   10.6282  -16.3619   24.4407 O   0  0  0  0  0  0  0  0  0  0  0  0
   10.1193  -18.0029   26.1355 O   0  0  0  0  0  0  0  0  0  0  0  0
  2  4  1  0
  2  1  1  0
  3  2  2  0
  5  4  1  0
  6  5  1  0
  7  6  1  0
  8  7  1  0
  8  9  1  6
 10 20  1  0
 10  8  1  0
 11 10  2  0
 13 12  1  0
 14 13  2  0
 15 13  1  0
 16 15  1  0
 17 18  1  0
 17 16  1  0
 19 18  1  6
 19 21  1  0
 19 20  1  0
 21 22  2  0
 24 23  1  6
 25 24  1  0
 25 21  1  0
 26 24  1  0
 27 26  2  0
 28 26  1  0
M  END
$$$$
