TGT.pdb
     RDKit          3D

 19 18  0  0  1  0  0  0  0  0999 V2000
    6.4369  -20.1113   19.7866 C   0  0  0  0  0  0  0  0  0  0  0  0
    6.4115  -19.0952   20.9112 C   0  0  1  0  0  0  0  0  0  0  0  0
    6.0644  -17.8762   20.3729 O   0  0  0  0  0  0  0  0  0  0  0  0
    5.4061  -19.5306   21.9808 C   0  0  2  0  0  0  0  0  0  0  0  0
    4.1648  -19.7982   21.3155 N   0  0  0  0  0  0  0  0  0  0  0  0
    5.2622  -18.4735   22.9922 C   0  0  0  0  0  0  0  0  0  0  0  0
    4.2666  -17.6900   22.9278 O   0  0  0  0  0  0  0  0  0  0  0  0
    6.1664  -18.2502   24.0616 N   0  0  0  0  0  0  0  0  0  0  0  0
    5.9057  -17.2857   25.0874 C   0  0  0  0  0  0  0  0  0  0  0  0
    7.0461  -16.3297   25.2624 C   0  0  0  0  0  0  0  0  0  0  0  0
    8.0972  -16.4478   24.5808 O   0  0  0  0  0  0  0  0  0  0  0  0
    6.5395  -12.2374   25.9347 C   0  0  0  0  0  0  0  0  0  0  0  0
    7.3783  -12.9720   26.9329 C   0  0  1  0  0  0  0  0  0  0  0  0
    6.6560  -13.2313   28.0965 O   0  0  0  0  0  0  0  0  0  0  0  0
    7.9293  -14.2709   26.4019 C   0  0  2  0  0  0  0  0  0  0  0  0
    6.9324  -15.2772   26.2131 N   0  0  0  0  0  0  0  0  0  0  0  0
    9.0145  -14.7042   27.3406 C   0  0  0  0  0  0  0  0  0  0  0  0
   10.1636  -13.9767   27.5506 O   0  0  0  0  0  0  0  0  0  0  0  0
    8.8098  -15.7995   27.9415 O   0  0  0  0  0  0  0  0  0  0  0  0
  2  1  1  6
  2  3  1  0
  4  2  1  0
  4  5  1  6
  6  8  1  0
  6  4  1  0
  7  6  2  0
  9 10  1  0
  9  8  1  0
 10 16  1  0
 11 10  2  0
 13 14  1  0
 13 12  1  6
 13 15  1  0
 15 17  1  0
 15 16  1  1
 17 19  2  0
 17 18  1  0
M  END
$$$$
