TGT.pdb
     RDKit          3D

 19 18  0  0  1  0  0  0  0  0999 V2000
    7.8252  -12.5717   18.5403 C   0  0  0  0  0  0  0  0  0  0  0  0
    7.9674  -14.0701   18.3600 C   0  0  1  0  0  0  0  0  0  0  0  0
    8.5593  -14.2953   17.1372 O   0  0  0  0  0  0  0  0  0  0  0  0
    8.8136  -14.6511   19.4962 C   0  0  2  0  0  0  0  0  0  0  0  0
    8.9629  -16.0541   19.2423 N   0  0  0  0  0  0  0  0  0  0  0  0
    8.1571  -14.4007   20.7876 C   0  0  0  0  0  0  0  0  0  0  0  0
    8.1083  -13.2145   21.2345 O   0  0  0  0  0  0  0  0  0  0  0  0
    7.5584  -15.3997   21.5965 N   0  0  0  0  0  0  0  0  0  0  0  0
    6.8091  -15.0756   22.7730 C   0  0  0  0  0  0  0  0  0  0  0  0
    7.6936  -14.6289   23.8969 C   0  0  0  0  0  0  0  0  0  0  0  0
    8.9436  -14.5910   23.7580 O   0  0  0  0  0  0  0  0  0  0  0  0
    6.7969  -11.2929   26.1541 C   0  0  0  0  0  0  0  0  0  0  0  0
    6.9950  -12.5627   26.9209 C   0  0  1  0  0  0  0  0  0  0  0  0
    5.7708  -13.1374   27.2586 O   0  0  0  0  0  0  0  0  0  0  0  0
    7.8224  -13.5804   26.1775 C   0  0  2  0  0  0  0  0  0  0  0  0
    7.1059  -14.2441   25.1343 N   0  0  0  0  0  0  0  0  0  0  0  0
    8.3677  -14.5332   27.1980 C   0  0  0  0  0  0  0  0  0  0  0  0
    9.1609  -14.1368   28.2505 O   0  0  0  0  0  0  0  0  0  0  0  0
    8.0509  -15.7478   27.0335 O   0  0  0  0  0  0  0  0  0  0  0  0
  2  1  1  1
  2  3  1  0
  4  2  1  0
  4  5  1  6
  6  8  1  0
  6  4  1  0
  7  6  2  0
  9 10  1  0
  9  8  1  0
 10 16  1  0
 11 10  2  0
 13 14  1  0
 13 12  1  6
 13 15  1  0
 15 17  1  0
 15 16  1  6
 17 19  2  0
 17 18  1  0
M  END
$$$$
