TGT.pdb
     RDKit          3D

 19 18  0  0  1  0  0  0  0  0999 V2000
    5.1955  -20.3440   22.1419 C   0  0  0  0  0  0  0  0  0  0  0  0
    6.1205  -19.1839   21.8313 C   0  0  1  0  0  0  0  0  0  0  0  0
    5.4950  -18.3798   20.9047 O   0  0  0  0  0  0  0  0  0  0  0  0
    6.4280  -18.4078   23.1149 C   0  0  2  0  0  0  0  0  0  0  0  0
    5.1772  -17.9547   23.6492 N   0  0  0  0  0  0  0  0  0  0  0  0
    7.3289  -17.2849   22.8171 C   0  0  0  0  0  0  0  0  0  0  0  0
    8.5500  -17.5232   22.5693 O   0  0  0  0  0  0  0  0  0  0  0  0
    6.9374  -15.9223   22.7826 N   0  0  0  0  0  0  0  0  0  0  0  0
    7.8605  -14.8749   22.4643 C   0  0  0  0  0  0  0  0  0  0  0  0
    8.2672  -14.0965   23.6782 C   0  0  0  0  0  0  0  0  0  0  0  0
    9.1398  -13.1932   23.6027 O   0  0  0  0  0  0  0  0  0  0  0  0
    6.4348  -11.6996   25.9471 C   0  0  0  0  0  0  0  0  0  0  0  0
    6.7705  -12.9438   26.7079 C   0  0  1  0  0  0  0  0  0  0  0  0
    5.6776  -13.8077   26.7579 O   0  0  0  0  0  0  0  0  0  0  0  0
    7.9524  -13.6859   26.1378 C   0  0  2  0  0  0  0  0  0  0  0  0
    7.6547  -14.3877   24.9291 N   0  0  0  0  0  0  0  0  0  0  0  0
    8.4657  -14.5901   27.2173 C   0  0  0  0  0  0  0  0  0  0  0  0
    8.9010  -14.1320   28.4399 O   0  0  0  0  0  0  0  0  0  0  0  0
    8.4764  -15.8242   26.9350 O   0  0  0  0  0  0  0  0  0  0  0  0
  2  1  1  1
  2  3  1  0
  4  2  1  0
  4  5  1  6
  6  8  1  0
  6  4  1  0
  7  6  2  0
  9 10  1  0
  9  8  1  0
 10 16  1  0
 11 10  2  0
 13 14  1  0
 13 12  1  6
 13 15  1  0
 15 17  1  0
 15 16  1  6
 17 19  2  0
 17 18  1  0
M  END
$$$$
