TGT.pdb
     RDKit          3D

 19 18  0  0  1  0  0  0  0  0999 V2000
   10.4940  -17.9736   18.2333 C   0  0  0  0  0  0  0  0  0  0  0  0
    9.5638  -17.0394   18.9817 C   0  0  1  0  0  0  0  0  0  0  0  0
    8.2746  -17.4854   18.7940 O   0  0  0  0  0  0  0  0  0  0  0  0
    9.9299  -17.0245   20.4684 C   0  0  2  0  0  0  0  0  0  0  0  0
    9.6701  -18.3364   20.9847 N   0  0  0  0  0  0  0  0  0  0  0  0
    9.1404  -16.0005   21.1679 C   0  0  0  0  0  0  0  0  0  0  0  0
    9.3764  -14.7757   20.9369 O   0  0  0  0  0  0  0  0  0  0  0  0
    8.1105  -16.2740   22.1035 N   0  0  0  0  0  0  0  0  0  0  0  0
    7.3487  -15.2303   22.7208 C   0  0  0  0  0  0  0  0  0  0  0  0
    8.0278  -14.6852   23.9401 C   0  0  0  0  0  0  0  0  0  0  0  0
    9.2479  -14.9073   24.1524 O   0  0  0  0  0  0  0  0  0  0  0  0
    6.7000  -11.1060   26.1509 C   0  0  0  0  0  0  0  0  0  0  0  0
    6.8725  -12.4451   26.7966 C   0  0  1  0  0  0  0  0  0  0  0  0
    5.6484  -13.1001   26.9207 O   0  0  0  0  0  0  0  0  0  0  0  0
    7.8315  -13.3411   26.0548 C   0  0  2  0  0  0  0  0  0  0  0  0
    7.2774  -13.9073   24.8656 N   0  0  0  0  0  0  0  0  0  0  0  0
    8.2989  -14.3834   27.0253 C   0  0  0  0  0  0  0  0  0  0  0  0
    9.0412  -14.0899   28.1463 O   0  0  0  0  0  0  0  0  0  0  0  0
    7.9652  -15.5731   26.7496 O   0  0  0  0  0  0  0  0  0  0  0  0
  2  1  1  6
  2  3  1  0
  4  2  1  0
  4  5  1  1
  6  8  1  0
  6  4  1  0
  7  6  2  0
  9 10  1  0
  9  8  1  0
 10 16  1  0
 11 10  2  0
 13 14  1  0
 13 12  1  6
 13 15  1  0
 15 17  1  0
 15 16  1  6
 17 19  2  0
 17 18  1  0
M  END
$$$$
