TGT.pdb
     RDKit          3D

 19 18  0  0  1  0  0  0  0  0999 V2000
    9.0889  -17.3439   19.2103 C   0  0  0  0  0  0  0  0  0  0  0  0
    7.7259  -17.9907   19.3573 C   0  0  1  0  0  0  0  0  0  0  0  0
    7.5865  -18.9186   18.3494 O   0  0  0  0  0  0  0  0  0  0  0  0
    7.6115  -18.6520   20.7336 C   0  0  2  0  0  0  0  0  0  0  0  0
    6.9943  -19.9316   20.5419 N   0  0  0  0  0  0  0  0  0  0  0  0
    6.8228  -17.7992   21.6346 C   0  0  0  0  0  0  0  0  0  0  0  0
    5.7893  -17.2171   21.1848 O   0  0  0  0  0  0  0  0  0  0  0  0
    7.1281  -17.5665   22.9997 N   0  0  0  0  0  0  0  0  0  0  0  0
    6.3602  -16.6668   23.8069 C   0  0  0  0  0  0  0  0  0  0  0  0
    7.2013  -15.5647   24.3752 C   0  0  0  0  0  0  0  0  0  0  0  0
    8.3858  -15.3921   23.9877 O   0  0  0  0  0  0  0  0  0  0  0  0
    7.2028  -11.4424   27.1747 C   0  0  0  0  0  0  0  0  0  0  0  0
    6.5002  -12.7029   26.7782 C   0  0  1  0  0  0  0  0  0  0  0  0
    5.3526  -12.4225   26.0384 O   0  0  0  0  0  0  0  0  0  0  0  0
    7.3728  -13.6432   25.9863 C   0  0  2  0  0  0  0  0  0  0  0  0
    6.6471  -14.7062   25.3654 N   0  0  0  0  0  0  0  0  0  0  0  0
    8.4395  -14.1397   26.9148 C   0  0  0  0  0  0  0  0  0  0  0  0
    9.4141  -13.3261   27.4460 O   0  0  0  0  0  0  0  0  0  0  0  0
    8.3921  -15.3749   27.1883 O   0  0  0  0  0  0  0  0  0  0  0  0
  2  1  1  1
  2  3  1  0
  4  2  1  0
  4  5  1  6
  6  8  1  0
  6  4  1  0
  7  6  2  0
  9 10  1  0
  9  8  1  0
 10 16  1  0
 11 10  2  0
 13 14  1  0
 13 12  1  6
 13 15  1  0
 15 17  1  0
 15 16  1  1
 17 19  2  0
 17 18  1  0
M  END
$$$$
