TGT.pdb
     RDKit          3D

 19 18  0  0  1  0  0  0  0  0999 V2000
    8.7985  -12.5334   19.2807 C   0  0  0  0  0  0  0  0  0  0  0  0
    8.2650  -13.5400   18.2807 C   0  0  1  0  0  0  0  0  0  0  0  0
    8.8969  -13.3176   17.0776 O   0  0  0  0  0  0  0  0  0  0  0  0
    8.5277  -14.9615   18.7856 C   0  0  2  0  0  0  0  0  0  0  0  0
    8.1472  -15.8632   17.7380 N   0  0  0  0  0  0  0  0  0  0  0  0
    7.7607  -15.2053   20.0159 C   0  0  0  0  0  0  0  0  0  0  0  0
    6.6039  -15.7187   19.9296 O   0  0  0  0  0  0  0  0  0  0  0  0
    8.2172  -14.9070   21.3249 N   0  0  0  0  0  0  0  0  0  0  0  0
    7.4398  -15.2122   22.4881 C   0  0  0  0  0  0  0  0  0  0  0  0
    8.0556  -14.6578   23.7365 C   0  0  0  0  0  0  0  0  0  0  0  0
    9.2223  -14.1869   23.7260 O   0  0  0  0  0  0  0  0  0  0  0  0
    6.5767  -11.8483   25.9746 C   0  0  0  0  0  0  0  0  0  0  0  0
    6.7430  -13.1111   26.7604 C   0  0  1  0  0  0  0  0  0  0  0  0
    5.5264  -13.7781   26.8954 O   0  0  0  0  0  0  0  0  0  0  0  0
    7.7519  -14.0552   26.1576 C   0  0  2  0  0  0  0  0  0  0  0  0
    7.3058  -14.6672   24.9458 N   0  0  0  0  0  0  0  0  0  0  0  0
    8.1010  -15.0587   27.2149 C   0  0  0  0  0  0  0  0  0  0  0  0
    8.8029  -14.7387   28.3546 O   0  0  0  0  0  0  0  0  0  0  0  0
    7.7055  -16.2412   26.9955 O   0  0  0  0  0  0  0  0  0  0  0  0
  2  1  1  1
  2  3  1  0
  4  2  1  0
  4  5  1  6
  6  8  1  0
  6  4  1  0
  7  6  2  0
  9 10  1  0
  9  8  1  0
 10 16  1  0
 11 10  2  0
 13 14  1  0
 13 12  1  6
 13 15  1  0
 15 17  1  0
 15 16  1  6
 17 19  2  0
 17 18  1  0
M  END
$$$$
