TGT.pdb
     RDKit          3D

 19 18  0  0  1  0  0  0  0  0999 V2000
    7.5758  -12.8511   19.4730 C   0  0  0  0  0  0  0  0  0  0  0  0
    7.6163  -13.6290   18.1726 C   0  0  1  0  0  0  0  0  0  0  0  0
    7.2275  -12.7811   17.1595 O   0  0  0  0  0  0  0  0  0  0  0  0
    9.0312  -14.1622   17.9312 C   0  0  2  0  0  0  0  0  0  0  0  0
    9.1087  -14.5585   16.5556 N   0  0  0  0  0  0  0  0  0  0  0  0
    9.3026  -15.2887   18.8360 C   0  0  0  0  0  0  0  0  0  0  0  0
    9.3424  -16.4646   18.3618 O   0  0  0  0  0  0  0  0  0  0  0  0
    9.5295  -15.1680   20.2306 N   0  0  0  0  0  0  0  0  0  0  0  0
    9.8621  -16.2971   21.0462 C   0  0  0  0  0  0  0  0  0  0  0  0
   10.1024  -15.9079   22.4730 C   0  0  0  0  0  0  0  0  0  0  0  0
   10.9106  -14.9883   22.7634 O   0  0  0  0  0  0  0  0  0  0  0  0
    7.0087  -15.4017   24.9791 C   0  0  0  0  0  0  0  0  0  0  0  0
    8.0521  -16.3167   25.5392 C   0  0  1  0  0  0  0  0  0  0  0  0
    7.6508  -17.6482   25.4435 O   0  0  0  0  0  0  0  0  0  0  0  0
    9.3948  -16.1632   24.8712 C   0  0  2  0  0  0  0  0  0  0  0  0
    9.4044  -16.5911   23.5078 N   0  0  0  0  0  0  0  0  0  0  0  0
   10.3913  -16.9010   25.7134 C   0  0  0  0  0  0  0  0  0  0  0  0
   10.6918  -16.5466   27.0087 O   0  0  0  0  0  0  0  0  0  0  0  0
   10.9522  -17.8886   25.1541 O   0  0  0  0  0  0  0  0  0  0  0  0
  2  1  1  1
  2  3  1  0
  4  2  1  0
  4  5  1  6
  6  8  1  0
  6  4  1  0
  7  6  2  0
  9 10  1  0
  9  8  1  0
 10 16  1  0
 11 10  2  0
 13 14  1  0
 13 12  1  6
 13 15  1  0
 15 17  1  0
 15 16  1  6
 17 19  2  0
 17 18  1  0
M  END
$$$$
