TGT.pdb
     RDKit          3D

 19 18  0  0  1  0  0  0  0  0999 V2000
    8.9906  -12.5362   19.7443 C   0  0  0  0  0  0  0  0  0  0  0  0
    8.1816  -13.4540   18.8492 C   0  0  1  0  0  0  0  0  0  0  0  0
    8.6369  -13.2966   17.5591 O   0  0  0  0  0  0  0  0  0  0  0  0
    8.3394  -14.9039   19.3152 C   0  0  2  0  0  0  0  0  0  0  0  0
    7.7245  -15.7393   18.3256 N   0  0  0  0  0  0  0  0  0  0  0  0
    7.7142  -15.0763   20.6346 C   0  0  0  0  0  0  0  0  0  0  0  0
    6.4574  -14.9429   20.7433 O   0  0  0  0  0  0  0  0  0  0  0  0
    8.4163  -15.3873   21.8267 N   0  0  0  0  0  0  0  0  0  0  0  0
    7.7446  -15.5665   23.0787 C   0  0  0  0  0  0  0  0  0  0  0  0
    8.2062  -14.5821   24.1096 C   0  0  0  0  0  0  0  0  0  0  0  0
    9.2491  -13.9014   23.9301 O   0  0  0  0  0  0  0  0  0  0  0  0
    6.2107  -11.6433   26.0649 C   0  0  0  0  0  0  0  0  0  0  0  0
    6.6667  -12.7666   26.9424 C   0  0  1  0  0  0  0  0  0  0  0  0
    5.6219  -13.6522   27.2019 O   0  0  0  0  0  0  0  0  0  0  0  0
    7.8260  -13.5371   26.3636 C   0  0  2  0  0  0  0  0  0  0  0  0
    7.4507  -14.4199   25.3045 N   0  0  0  0  0  0  0  0  0  0  0  0
    8.4899  -14.2522   27.5014 C   0  0  0  0  0  0  0  0  0  0  0  0
    9.0317  -13.6017   28.5864 O   0  0  0  0  0  0  0  0  0  0  0  0
    8.5247  -15.5141   27.4056 O   0  0  0  0  0  0  0  0  0  0  0  0
  2  1  1  1
  2  3  1  0
  4  2  1  0
  4  5  1  6
  6  8  1  0
  6  4  1  0
  7  6  2  0
  9 10  1  0
  9  8  1  0
 10 16  1  0
 11 10  2  0
 13 14  1  0
 13 12  1  6
 13 15  1  0
 15 17  1  0
 15 16  1  6
 17 19  2  0
 17 18  1  0
M  END
$$$$
