TGT.pdb
     RDKit          3D

 19 18  0  0  1  0  0  0  0  0999 V2000
    3.8209  -18.9604   21.3118 C   0  0  0  0  0  0  0  0  0  0  0  0
    5.3120  -18.8094   21.0847 C   0  0  1  0  0  0  0  0  0  0  0  0
    5.5649  -19.0570   19.7538 O   0  0  0  0  0  0  0  0  0  0  0  0
    5.7557  -17.3970   21.4754 C   0  0  2  0  0  0  0  0  0  0  0  0
    7.0392  -17.1724   20.8777 N   0  0  0  0  0  0  0  0  0  0  0  0
    5.8110  -17.2770   22.9396 C   0  0  0  0  0  0  0  0  0  0  0  0
    4.7292  -17.3024   23.6016 O   0  0  0  0  0  0  0  0  0  0  0  0
    7.0032  -17.1316   23.6937 N   0  0  0  0  0  0  0  0  0  0  0  0
    6.9996  -17.1240   25.1256 C   0  0  0  0  0  0  0  0  0  0  0  0
    8.3819  -16.9985   25.6900 C   0  0  0  0  0  0  0  0  0  0  0  0
    9.3481  -17.6172   25.1735 O   0  0  0  0  0  0  0  0  0  0  0  0
    8.9892  -14.0329   28.8578 C   0  0  0  0  0  0  0  0  0  0  0  0
    9.9231  -14.3041   27.7203 C   0  0  1  0  0  0  0  0  0  0  0  0
   11.2331  -13.9704   28.0604 O   0  0  0  0  0  0  0  0  0  0  0  0
    9.8904  -15.7381   27.2562 C   0  0  2  0  0  0  0  0  0  0  0  0
    8.5975  -16.1673   26.8247 N   0  0  0  0  0  0  0  0  0  0  0  0
   10.4308  -16.5747   28.3763 C   0  0  0  0  0  0  0  0  0  0  0  0
   11.7507  -16.5507   28.7654 O   0  0  0  0  0  0  0  0  0  0  0  0
    9.5871  -17.3197   28.9559 O   0  0  0  0  0  0  0  0  0  0  0  0
  2  1  1  6
  2  3  1  0
  4  2  1  0
  4  5  1  6
  6  8  1  0
  6  4  1  0
  7  6  2  0
  9 10  1  0
  9  8  1  0
 10 16  1  0
 11 10  2  0
 13 14  1  0
 13 12  1  1
 13 15  1  0
 15 17  1  0
 15 16  1  1
 17 19  2  0
 17 18  1  0
M  END
$$$$
