TGT.pdb
     RDKit          3D

 19 18  0  0  1  0  0  0  0  0999 V2000
    8.1407  -17.2415   18.2677 C   0  0  0  0  0  0  0  0  0  0  0  0
    8.3635  -18.1518   19.4592 C   0  0  1  0  0  0  0  0  0  0  0  0
    8.9619  -19.3057   19.0045 O   0  0  0  0  0  0  0  0  0  0  0  0
    9.2447  -17.4458   20.4934 C   0  0  2  0  0  0  0  0  0  0  0  0
    9.7410  -18.4504   21.3877 N   0  0  0  0  0  0  0  0  0  0  0  0
    8.4613  -16.4255   21.2053 C   0  0  0  0  0  0  0  0  0  0  0  0
    8.2265  -15.3181   20.6327 O   0  0  0  0  0  0  0  0  0  0  0  0
    7.9324  -16.5793   22.5120 N   0  0  0  0  0  0  0  0  0  0  0  0
    7.0566  -15.6083   23.0957 C   0  0  0  0  0  0  0  0  0  0  0  0
    7.7766  -14.7036   24.0486 C   0  0  0  0  0  0  0  0  0  0  0  0
    9.0144  -14.5059   23.9399 O   0  0  0  0  0  0  0  0  0  0  0  0
    6.1756  -11.1264   25.8397 C   0  0  0  0  0  0  0  0  0  0  0  0
    6.6269  -12.2620   26.7037 C   0  0  1  0  0  0  0  0  0  0  0  0
    5.5429  -13.0331   27.1199 O   0  0  0  0  0  0  0  0  0  0  0  0
    7.6314  -13.1589   26.0260 C   0  0  2  0  0  0  0  0  0  0  0  0
    7.0450  -14.0630   25.0875 N   0  0  0  0  0  0  0  0  0  0  0  0
    8.3906  -13.8649   27.1085 C   0  0  0  0  0  0  0  0  0  0  0  0
    9.1392  -13.2054   28.0564 O   0  0  0  0  0  0  0  0  0  0  0  0
    8.3023  -15.1278   27.1012 O   0  0  0  0  0  0  0  0  0  0  0  0
  2  1  1  6
  2  3  1  0
  4  2  1  0
  4  5  1  1
  6  8  1  0
  6  4  1  0
  7  6  2  0
  9 10  1  0
  9  8  1  0
 10 16  1  0
 11 10  2  0
 13 14  1  0
 13 12  1  6
 13 15  1  0
 15 17  1  0
 15 16  1  6
 17 19  2  0
 17 18  1  0
M  END
$$$$
