TGT.pdb
     RDKit          3D

 19 18  0  0  1  0  0  0  0  0999 V2000
    8.3417  -18.3421   16.1322 C   0  0  0  0  0  0  0  0  0  0  0  0
    8.2965  -17.2160   17.1461 C   0  0  1  0  0  0  0  0  0  0  0  0
    7.4014  -16.2732   16.6922 O   0  0  0  0  0  0  0  0  0  0  0  0
    7.8730  -17.7644   18.5115 C   0  0  2  0  0  0  0  0  0  0  0  0
    6.4848  -18.1107   18.4201 N   0  0  0  0  0  0  0  0  0  0  0  0
    8.1123  -16.7544   19.5525 C   0  0  0  0  0  0  0  0  0  0  0  0
    9.3065  -16.4671   19.8698 O   0  0  0  0  0  0  0  0  0  0  0  0
    7.0940  -16.0561   20.2500 N   0  0  0  0  0  0  0  0  0  0  0  0
    7.3933  -15.0386   21.2120 C   0  0  0  0  0  0  0  0  0  0  0  0
    7.9638  -15.6095   22.4744 C   0  0  0  0  0  0  0  0  0  0  0  0
    7.2346  -15.8049   23.4811 O   0  0  0  0  0  0  0  0  0  0  0  0
   11.7066  -18.2766   24.3352 C   0  0  0  0  0  0  0  0  0  0  0  0
   11.1013  -17.5178   23.1961 C   0  0  1  0  0  0  0  0  0  0  0  0
   10.6590  -18.3849   22.1984 O   0  0  0  0  0  0  0  0  0  0  0  0
    9.9550  -16.6334   23.6163 C   0  0  2  0  0  0  0  0  0  0  0  0
    9.3485  -15.9325   22.5287 N   0  0  0  0  0  0  0  0  0  0  0  0
   10.4773  -15.7111   24.6761 C   0  0  0  0  0  0  0  0  0  0  0  0
   11.5074  -14.8241   24.4617 O   0  0  0  0  0  0  0  0  0  0  0  0
    9.9055  -15.7961   25.8024 O   0  0  0  0  0  0  0  0  0  0  0  0
  2  1  1  6
  2  3  1  0
  4  2  1  0
  4  5  1  6
  6  8  1  0
  6  4  1  0
  7  6  2  0
  9 10  1  0
  9  8  1  0
 10 16  1  0
 11 10  2  0
 13 14  1  0
 13 12  1  1
 13 15  1  0
 15 17  1  0
 15 16  1  6
 17 19  2  0
 17 18  1  0
M  END
$$$$
