TGT.pdb
     RDKit          3D

 19 18  0  0  1  0  0  0  0  0999 V2000
    7.9847  -16.2198   18.5386 C   0  0  0  0  0  0  0  0  0  0  0  0
    8.7090  -14.9005   18.3572 C   0  0  1  0  0  0  0  0  0  0  0  0
    9.0126  -14.7643   17.0209 O   0  0  0  0  0  0  0  0  0  0  0  0
    7.8203  -13.7506   18.8395 C   0  0  2  0  0  0  0  0  0  0  0  0
    8.2317  -12.5703   18.1374 N   0  0  0  0  0  0  0  0  0  0  0  0
    7.9551  -13.5905   20.2947 C   0  0  0  0  0  0  0  0  0  0  0  0
    8.9820  -13.0074   20.7582 O   0  0  0  0  0  0  0  0  0  0  0  0
    7.0092  -14.0448   21.2484 N   0  0  0  0  0  0  0  0  0  0  0  0
    7.1210  -13.7262   22.6400 C   0  0  0  0  0  0  0  0  0  0  0  0
    8.0187  -14.6822   23.3646 C   0  0  0  0  0  0  0  0  0  0  0  0
    8.0818  -14.6813   24.6213 O   0  0  0  0  0  0  0  0  0  0  0  0
    8.1521  -18.5638   22.8376 C   0  0  0  0  0  0  0  0  0  0  0  0
    9.4985  -17.9564   22.5968 C   0  0  1  0  0  0  0  0  0  0  0  0
    9.7692  -17.8689   21.2322 O   0  0  0  0  0  0  0  0  0  0  0  0
    9.6497  -16.5885   23.2121 C   0  0  2  0  0  0  0  0  0  0  0  0
    8.8073  -15.6000   22.6160 N   0  0  0  0  0  0  0  0  0  0  0  0
   11.1029  -16.2298   23.1339 C   0  0  0  0  0  0  0  0  0  0  0  0
   12.0793  -16.8815   23.8520 O   0  0  0  0  0  0  0  0  0  0  0  0
   11.3869  -15.2738   22.3539 O   0  0  0  0  0  0  0  0  0  0  0  0
  2  1  1  6
  2  3  1  0
  4  2  1  0
  4  5  1  6
  6  8  1  0
  6  4  1  0
  7  6  2  0
  9 10  1  0
  9  8  1  0
 10 16  1  0
 11 10  2  0
 13 14  1  0
 13 12  1  6
 13 15  1  0
 15 17  1  0
 15 16  1  6
 17 19  2  0
 17 18  1  0
M  END
$$$$
