TGT.pdb
     RDKit          3D

 19 18  0  0  1  0  0  0  0  0999 V2000
    7.8672  -19.4219   24.0676 C   0  0  0  0  0  0  0  0  0  0  0  0
    6.7986  -19.6606   23.0191 C   0  0  1  0  0  0  0  0  0  0  0  0
    6.0890  -20.7825   23.3854 O   0  0  0  0  0  0  0  0  0  0  0  0
    5.8829  -18.4371   22.9242 C   0  0  2  0  0  0  0  0  0  0  0  0
    4.8077  -18.7767   22.0389 N   0  0  0  0  0  0  0  0  0  0  0  0
    6.6442  -17.2791   22.4333 C   0  0  0  0  0  0  0  0  0  0  0  0
    6.8907  -17.1847   21.1925 O   0  0  0  0  0  0  0  0  0  0  0  0
    7.1389  -16.2319   23.2514 N   0  0  0  0  0  0  0  0  0  0  0  0
    7.8257  -15.1007   22.7042 C   0  0  0  0  0  0  0  0  0  0  0  0
    8.1798  -14.0954   23.7572 C   0  0  0  0  0  0  0  0  0  0  0  0
    8.8961  -13.0982   23.4820 O   0  0  0  0  0  0  0  0  0  0  0  0
    6.5142  -11.4781   25.7593 C   0  0  0  0  0  0  0  0  0  0  0  0
    6.8863  -12.5970   26.6810 C   0  0  1  0  0  0  0  0  0  0  0  0
    5.7983  -13.4382   26.9085 O   0  0  0  0  0  0  0  0  0  0  0  0
    8.0423  -13.4216   26.1747 C   0  0  2  0  0  0  0  0  0  0  0  0
    7.6965  -14.2767   25.0832 N   0  0  0  0  0  0  0  0  0  0  0  0
    8.5894  -14.1776   27.3476 C   0  0  0  0  0  0  0  0  0  0  0  0
    9.1350  -13.5633   28.4516 O   0  0  0  0  0  0  0  0  0  0  0  0
    8.5198  -15.4389   27.2633 O   0  0  0  0  0  0  0  0  0  0  0  0
  2  1  1  1
  2  3  1  0
  4  2  1  0
  4  5  1  6
  6  8  1  0
  6  4  1  0
  7  6  2  0
  9 10  1  0
  9  8  1  0
 10 16  1  0
 11 10  2  0
 13 14  1  0
 13 12  1  6
 13 15  1  0
 15 17  1  0
 15 16  1  6
 17 19  2  0
 17 18  1  0
M  END
$$$$
