TGT.pdb
     RDKit          3D

 19 18  0  0  1  0  0  0  0  0999 V2000
    4.7958  -20.5437   22.0258 C   0  0  0  0  0  0  0  0  0  0  0  0
    5.8815  -19.5316   21.7183 C   0  0  1  0  0  0  0  0  0  0  0  0
    5.4234  -18.7118   20.7110 O   0  0  0  0  0  0  0  0  0  0  0  0
    6.2101  -18.7249   22.9776 C   0  0  2  0  0  0  0  0  0  0  0  0
    4.9906  -18.1194   23.4264 N   0  0  0  0  0  0  0  0  0  0  0  0
    7.2357  -17.7167   22.6726 C   0  0  0  0  0  0  0  0  0  0  0  0
    8.4210  -18.0973   22.4289 O   0  0  0  0  0  0  0  0  0  0  0  0
    7.0052  -16.3182   22.6267 N   0  0  0  0  0  0  0  0  0  0  0  0
    8.0533  -15.3850   22.3420 C   0  0  0  0  0  0  0  0  0  0  0  0
    8.4890  -14.6390   23.5663 C   0  0  0  0  0  0  0  0  0  0  0  0
    9.4375  -13.8139   23.5153 O   0  0  0  0  0  0  0  0  0  0  0  0
    6.7423  -12.1061   25.8030 C   0  0  0  0  0  0  0  0  0  0  0  0
    6.9794  -13.3765   26.5577 C   0  0  1  0  0  0  0  0  0  0  0  0
    5.8349  -14.1721   26.5668 O   0  0  0  0  0  0  0  0  0  0  0  0
    8.1297  -14.1837   26.0118 C   0  0  2  0  0  0  0  0  0  0  0  0
    7.8172  -14.8716   24.7989 N   0  0  0  0  0  0  0  0  0  0  0  0
    8.5718  -15.1117   27.1027 C   0  0  0  0  0  0  0  0  0  0  0  0
    8.9991  -14.6752   28.3358 O   0  0  0  0  0  0  0  0  0  0  0  0
    8.5291  -16.3449   26.8194 O   0  0  0  0  0  0  0  0  0  0  0  0
  2  1  1  1
  2  3  1  0
  4  2  1  0
  4  5  1  6
  6  8  1  0
  6  4  1  0
  7  6  2  0
  9 10  1  0
  9  8  1  0
 10 16  1  0
 11 10  2  0
 13 14  1  0
 13 12  1  6
 13 15  1  0
 15 17  1  0
 15 16  1  6
 17 19  2  0
 17 18  1  0
M  END
$$$$
