KQH.pdb
     RDKit          3D

 29 29  0  0  1  0  0  0  0  0999 V2000
    5.8184  -15.8885   19.7305 N   0  0  0  0  0  0  0  0  0  0  0  0
    6.9711  -15.5144   20.5284 C   0  0  1  0  0  0  0  0  0  0  0  0
    7.2166  -14.0480   20.4548 C   0  0  0  0  0  0  0  0  0  0  0  0
    8.0934  -13.5664   19.3622 C   0  0  0  0  0  0  0  0  0  0  0  0
    9.5072  -14.0093   19.3753 C   0  0  0  0  0  0  0  0  0  0  0  0
   10.1616  -13.4102   18.1188 C   0  0  0  0  0  0  0  0  0  0  0  0
   11.5482  -13.8546   18.1395 N   0  0  0  0  0  0  0  0  0  0  0  0
    6.6669  -15.8761   21.9376 C   0  0  0  0  0  0  0  0  0  0  0  0
    5.6662  -15.3627   22.5224 O   0  0  0  0  0  0  0  0  0  0  0  0
    7.4922  -21.4237   24.2795 N   0  0  0  0  0  0  0  0  0  0  0  0
    7.0222  -20.7349   25.4212 C   0  0  0  0  0  0  0  0  0  0  0  0
    6.6828  -21.3784   26.4430 O   0  0  0  0  0  0  0  0  0  0  0  0
    6.9252  -19.2580   25.4258 C   0  0  0  0  0  0  0  0  0  0  0  0
    7.2449  -18.7425   24.0710 C   0  0  0  0  0  0  0  0  0  0  0  0
    7.2287  -17.2331   23.9821 C   0  0  2  0  0  0  0  0  0  0  0  0
    7.4815  -16.7933   22.6485 N   0  0  0  0  0  0  0  0  0  0  0  0
    8.1994  -16.6674   24.9640 C   0  0  0  0  0  0  0  0  0  0  0  0
    9.4468  -16.6404   24.7090 O   0  0  0  0  0  0  0  0  0  0  0  0
    7.8047  -16.1369   26.2125 N   0  0  0  0  0  0  0  0  0  0  0  0
    8.7483  -15.5673   27.1735 C   0  0  1  0  0  0  0  0  0  0  0  0
    8.0603  -14.5797   28.0838 C   0  0  0  0  0  0  0  0  0  0  0  0
    7.4104  -13.4772   27.3517 C   0  0  0  0  0  0  0  0  0  0  0  0
    7.5276  -13.2170   26.0040 C   0  0  0  0  0  0  0  0  0  0  0  0
    6.8018  -12.1320   25.6856 N   0  0  0  0  0  0  0  0  0  0  0  0
    6.2168  -11.6876   26.8113 C   0  0  0  0  0  0  0  0  0  0  0  0
    6.5924  -12.5141   27.8273 N   0  0  0  0  0  0  0  0  0  0  0  0
    9.4931  -16.6217   27.8890 C   0  0  0  0  0  0  0  0  0  0  0  0
    9.2972  -17.8444   27.7278 O   0  0  0  0  0  0  0  0  0  0  0  0
   10.4675  -16.2230   28.7929 O   0  0  0  0  0  0  0  0  0  0  0  0
  2  1  1  6
  3  2  1  0
  3  4  1  0
  5  6  1  0
  5  4  1  0
  7  6  1  0
  8  9  2  0
  8  2  1  0
 10 11  1  0
 11 13  1  0
 12 11  2  0
 13 14  1  0
 15 14  1  6
 15 17  1  0
 15 16  1  0
 16  8  1  0
 17 19  1  0
 18 17  2  0
 19 20  1  0
 20 27  1  0
 21 22  1  0
 20 21  1  1
 22 26  1  0
 23 24  1  0
 23 22  2  0
 24 25  1  0
 25 26  2  0
 27 28  2  0
 27 29  1  0
M  END
$$$$
