KQH.pdb
     RDKit          3D

 29 29  0  0  1  0  0  0  0  0999 V2000
    8.6457  -15.7197   19.5612 N   0  0  0  0  0  0  0  0  0  0  0  0
    8.2826  -14.5548   20.3464 C   0  0  1  0  0  0  0  0  0  0  0  0
    7.1693  -13.8048   19.7032 C   0  0  0  0  0  0  0  0  0  0  0  0
    7.4414  -13.2020   18.3776 C   0  0  0  0  0  0  0  0  0  0  0  0
    7.5071  -14.1149   17.2125 C   0  0  0  0  0  0  0  0  0  0  0  0
    7.8427  -13.2395   15.9931 C   0  0  0  0  0  0  0  0  0  0  0  0
    7.9021  -14.1454   14.8546 N   0  0  0  0  0  0  0  0  0  0  0  0
    7.8234  -15.0440   21.6727 C   0  0  0  0  0  0  0  0  0  0  0  0
    7.3190  -14.2344   22.5076 O   0  0  0  0  0  0  0  0  0  0  0  0
    8.1137  -21.2290   23.6348 N   0  0  0  0  0  0  0  0  0  0  0  0
    7.0331  -20.5940   24.2889 C   0  0  0  0  0  0  0  0  0  0  0  0
    6.0841  -21.2806   24.7375 O   0  0  0  0  0  0  0  0  0  0  0  0
    7.0075  -19.1231   24.4516 C   0  0  0  0  0  0  0  0  0  0  0  0
    7.4325  -18.4830   23.1816 C   0  0  0  0  0  0  0  0  0  0  0  0
    7.4655  -16.9728   23.2503 C   0  0  2  0  0  0  0  0  0  0  0  0
    7.9391  -16.4120   22.0268 N   0  0  0  0  0  0  0  0  0  0  0  0
    8.2787  -16.5469   24.4266 C   0  0  0  0  0  0  0  0  0  0  0  0
    9.5504  -16.6066   24.3985 O   0  0  0  0  0  0  0  0  0  0  0  0
    7.7017  -16.0608   25.6211 N   0  0  0  0  0  0  0  0  0  0  0  0
    8.4800  -15.7705   26.8246 C   0  0  1  0  0  0  0  0  0  0  0  0
    7.8519  -14.6490   27.6152 C   0  0  0  0  0  0  0  0  0  0  0  0
    7.7402  -13.3951   26.8476 C   0  0  0  0  0  0  0  0  0  0  0  0
    8.3709  -13.1137   25.6557 C   0  0  0  0  0  0  0  0  0  0  0  0
    8.0420  -11.8763   25.2484 N   0  0  0  0  0  0  0  0  0  0  0  0
    7.2062  -11.3543   26.1627 C   0  0  0  0  0  0  0  0  0  0  0  0
    7.0250  -12.2876   27.1386 N   0  0  0  0  0  0  0  0  0  0  0  0
    8.7293  -16.9923   27.6143 C   0  0  0  0  0  0  0  0  0  0  0  0
    8.3269  -18.1279   27.2860 O   0  0  0  0  0  0  0  0  0  0  0  0
    9.4546  -16.8636   28.7901 O   0  0  0  0  0  0  0  0  0  0  0  0
  2  1  1  6
  3  2  1  0
  3  4  1  0
  5  6  1  0
  5  4  1  0
  7  6  1  0
  8  9  2  0
  8  2  1  0
 10 11  1  0
 11 13  1  0
 12 11  2  0
 13 14  1  0
 15 14  1  6
 15 17  1  0
 15 16  1  0
 16  8  1  0
 17 19  1  0
 18 17  2  0
 19 20  1  0
 20 27  1  0
 21 22  1  0
 20 21  1  1
 22 26  1  0
 23 24  1  0
 23 22  2  0
 24 25  1  0
 25 26  2  0
 27 28  2  0
 27 29  1  0
M  END
$$$$
