KQH.pdb
     RDKit          3D

 29 29  0  0  1  0  0  0  0  0999 V2000
    7.7664  -17.5138   17.5705 N   0  0  0  0  0  0  0  0  0  0  0  0
    8.8975  -16.7271   18.0256 C   0  0  1  0  0  0  0  0  0  0  0  0
    8.6351  -15.2713   17.8593 C   0  0  0  0  0  0  0  0  0  0  0  0
    8.8394  -14.7007   16.5076 C   0  0  0  0  0  0  0  0  0  0  0  0
    7.7946  -13.7891   15.9858 C   0  0  0  0  0  0  0  0  0  0  0  0
    8.2201  -13.4138   14.5561 C   0  0  0  0  0  0  0  0  0  0  0  0
    7.1951  -12.5069   14.0587 N   0  0  0  0  0  0  0  0  0  0  0  0
    9.0804  -17.0157   19.4722 C   0  0  0  0  0  0  0  0  0  0  0  0
    8.0722  -17.0870   20.2372 O   0  0  0  0  0  0  0  0  0  0  0  0
   14.3635  -19.4019   21.8437 N   0  0  0  0  0  0  0  0  0  0  0  0
   13.5934  -19.2301   23.0168 C   0  0  0  0  0  0  0  0  0  0  0  0
   14.0260  -19.6535   24.1155 O   0  0  0  0  0  0  0  0  0  0  0  0
   12.2777  -18.5541   22.9646 C   0  0  0  0  0  0  0  0  0  0  0  0
   11.9883  -18.1544   21.5647 C   0  0  0  0  0  0  0  0  0  0  0  0
   10.6334  -17.5057   21.3919 C   0  0  2  0  0  0  0  0  0  0  0  0
   10.3731  -17.2152   20.0195 N   0  0  0  0  0  0  0  0  0  0  0  0
   10.5487  -16.2940   22.2585 C   0  0  0  0  0  0  0  0  0  0  0  0
   10.5841  -15.1254   21.7538 O   0  0  0  0  0  0  0  0  0  0  0  0
   10.4266  -16.3648   23.6643 N   0  0  0  0  0  0  0  0  0  0  0  0
    9.6741  -15.3888   24.4515 C   0  0  1  0  0  0  0  0  0  0  0  0
    8.2768  -15.2197   23.9071 C   0  0  0  0  0  0  0  0  0  0  0  0
    7.5358  -14.1208   24.5531 C   0  0  0  0  0  0  0  0  0  0  0  0
    8.0335  -13.2517   25.4989 C   0  0  0  0  0  0  0  0  0  0  0  0
    7.0763  -12.3836   25.8670 N   0  0  0  0  0  0  0  0  0  0  0  0
    5.9658  -12.6810   25.1704 C   0  0  0  0  0  0  0  0  0  0  0  0
    6.2525  -13.7444   24.3683 N   0  0  0  0  0  0  0  0  0  0  0  0
    9.7203  -15.7060   25.8922 C   0  0  0  0  0  0  0  0  0  0  0  0
   10.1179  -16.7965   26.3528 O   0  0  0  0  0  0  0  0  0  0  0  0
    9.2951  -14.7296   26.7817 O   0  0  0  0  0  0  0  0  0  0  0  0
  2  1  1  1
  3  2  1  0
  3  4  1  0
  5  6  1  0
  5  4  1  0
  7  6  1  0
  8  9  2  0
  8  2  1  0
 10 11  1  0
 11 13  1  0
 12 11  2  0
 13 14  1  0
 15 14  1  6
 15 17  1  0
 15 16  1  0
 16  8  1  0
 17 19  1  0
 18 17  2  0
 19 20  1  0
 20 27  1  0
 21 22  1  0
 20 21  1  6
 22 26  1  0
 23 24  1  0
 23 22  2  0
 24 25  1  0
 25 26  2  0
 27 28  2  0
 27 29  1  0
M  END
$$$$
