KQH.pdb
     RDKit          3D

 29 29  0  0  1  0  0  0  0  0999 V2000
    8.8494  -12.9187   19.2191 N   0  0  0  0  0  0  0  0  0  0  0  0
    7.6776  -13.2093   20.0239 C   0  0  1  0  0  0  0  0  0  0  0  0
    6.9102  -14.3507   19.4547 C   0  0  0  0  0  0  0  0  0  0  0  0
    7.6891  -15.5276   19.0044 C   0  0  0  0  0  0  0  0  0  0  0  0
    6.9510  -16.6130   18.3172 C   0  0  0  0  0  0  0  0  0  0  0  0
    8.0087  -17.6226   17.8396 C   0  0  0  0  0  0  0  0  0  0  0  0
    7.2852  -18.6271   17.0728 N   0  0  0  0  0  0  0  0  0  0  0  0
    8.1573  -13.5867   21.3792 C   0  0  0  0  0  0  0  0  0  0  0  0
    9.2556  -14.2051   21.5139 O   0  0  0  0  0  0  0  0  0  0  0  0
    5.2638  -11.7410   26.6805 N   0  0  0  0  0  0  0  0  0  0  0  0
    6.3895  -12.4247   27.1945 C   0  0  0  0  0  0  0  0  0  0  0  0
    6.5899  -12.4556   28.4324 O   0  0  0  0  0  0  0  0  0  0  0  0
    7.3384  -13.1072   26.2865 C   0  0  0  0  0  0  0  0  0  0  0  0
    6.9171  -12.8837   24.8809 C   0  0  0  0  0  0  0  0  0  0  0  0
    7.7952  -13.5869   23.8704 C   0  0  2  0  0  0  0  0  0  0  0  0
    7.4036  -13.2658   22.5364 N   0  0  0  0  0  0  0  0  0  0  0  0
    7.7770  -15.0555   24.1334 C   0  0  0  0  0  0  0  0  0  0  0  0
    6.9869  -15.8242   23.4959 O   0  0  0  0  0  0  0  0  0  0  0  0
    8.6174  -15.6734   25.0862 N   0  0  0  0  0  0  0  0  0  0  0  0
    9.5237  -16.7734   24.7589 C   0  0  1  0  0  0  0  0  0  0  0  0
   10.4417  -16.3953   23.6225 C   0  0  0  0  0  0  0  0  0  0  0  0
   11.4053  -17.4581   23.2821 C   0  0  0  0  0  0  0  0  0  0  0  0
   12.6776  -17.5945   23.7921 C   0  0  0  0  0  0  0  0  0  0  0  0
   13.2700  -18.6736   23.2536 N   0  0  0  0  0  0  0  0  0  0  0  0
   12.3959  -19.2365   22.4016 C   0  0  0  0  0  0  0  0  0  0  0  0
   11.2570  -18.4890   22.4229 N   0  0  0  0  0  0  0  0  0  0  0  0
   10.2285  -17.2675   25.9579 C   0  0  0  0  0  0  0  0  0  0  0  0
   11.0565  -16.5939   26.6061 O   0  0  0  0  0  0  0  0  0  0  0  0
    9.9492  -18.5580   26.3844 O   0  0  0  0  0  0  0  0  0  0  0  0
  2  1  1  6
  3  2  1  0
  3  4  1  0
  5  6  1  0
  5  4  1  0
  7  6  1  0
  8  9  2  0
  8  2  1  0
 10 11  1  0
 11 13  1  0
 12 11  2  0
 13 14  1  0
 15 14  1  1
 15 17  1  0
 15 16  1  0
 16  8  1  0
 17 19  1  0
 18 17  2  0
 19 20  1  0
 20 27  1  0
 21 22  1  0
 20 21  1  6
 22 26  1  0
 23 24  1  0
 23 22  2  0
 24 25  1  0
 25 26  2  0
 27 28  2  0
 27 29  1  0
M  END
$$$$
