KQH.pdb
     RDKit          3D

 29 29  0  0  1  0  0  0  0  0999 V2000
    8.3107  -16.8151   18.4477 N   0  0  0  0  0  0  0  0  0  0  0  0
    9.1166  -15.9501   19.2890 C   0  0  1  0  0  0  0  0  0  0  0  0
    8.3778  -14.7051   19.6353 C   0  0  0  0  0  0  0  0  0  0  0  0
    7.5632  -14.0859   18.5641 C   0  0  0  0  0  0  0  0  0  0  0  0
    8.2676  -13.6504   17.3355 C   0  0  0  0  0  0  0  0  0  0  0  0
    7.2106  -12.9752   16.4451 C   0  0  0  0  0  0  0  0  0  0  0  0
    7.8439  -12.7832   15.1480 N   0  0  0  0  0  0  0  0  0  0  0  0
    9.4033  -16.6976   20.5413 C   0  0  0  0  0  0  0  0  0  0  0  0
    8.4613  -17.2666   21.1704 O   0  0  0  0  0  0  0  0  0  0  0  0
   14.5698  -19.8279   21.5647 N   0  0  0  0  0  0  0  0  0  0  0  0
   13.5149  -20.0061   20.6404 C   0  0  0  0  0  0  0  0  0  0  0  0
   13.6485  -20.8112   19.6878 O   0  0  0  0  0  0  0  0  0  0  0  0
   12.2496  -19.2515   20.7833 C   0  0  0  0  0  0  0  0  0  0  0  0
   12.3515  -18.3425   21.9524 C   0  0  0  0  0  0  0  0  0  0  0  0
   11.0930  -17.5432   22.2048 C   0  0  2  0  0  0  0  0  0  0  0  0
   10.7229  -16.7882   21.0520 N   0  0  0  0  0  0  0  0  0  0  0  0
   11.2823  -16.6870   23.4121 C   0  0  0  0  0  0  0  0  0  0  0  0
   11.7962  -15.5258   23.3161 O   0  0  0  0  0  0  0  0  0  0  0  0
   10.9114  -17.1014   24.7108 N   0  0  0  0  0  0  0  0  0  0  0  0
   10.6198  -16.1654   25.7958 C   0  0  1  0  0  0  0  0  0  0  0  0
    9.4246  -15.3072   25.4605 C   0  0  0  0  0  0  0  0  0  0  0  0
    9.0817  -14.3533   26.5312 C   0  0  0  0  0  0  0  0  0  0  0  0
    9.7609  -14.1858   27.7178 C   0  0  0  0  0  0  0  0  0  0  0  0
    9.1630  -13.2336   28.4534 N   0  0  0  0  0  0  0  0  0  0  0  0
    8.1054  -12.7834   27.7566 C   0  0  0  0  0  0  0  0  0  0  0  0
    8.0604  -13.4716   26.5816 N   0  0  0  0  0  0  0  0  0  0  0  0
   10.5120  -16.8598   27.0937 C   0  0  0  0  0  0  0  0  0  0  0  0
    9.8594  -17.9098   27.2698 O   0  0  0  0  0  0  0  0  0  0  0  0
   11.1783  -16.3073   28.1782 O   0  0  0  0  0  0  0  0  0  0  0  0
  2  1  1  6
  3  2  1  0
  3  4  1  0
  5  6  1  0
  5  4  1  0
  7  6  1  0
  8  9  2  0
  8  2  1  0
 10 11  1  0
 11 13  1  0
 12 11  2  0
 13 14  1  0
 15 14  1  6
 15 17  1  0
 15 16  1  0
 16  8  1  0
 17 19  1  0
 18 17  2  0
 19 20  1  0
 20 27  1  0
 21 22  1  0
 20 21  1  6
 22 26  1  0
 23 24  1  0
 23 22  2  0
 24 25  1  0
 25 26  2  0
 27 28  2  0
 27 29  1  0
M  END
$$$$
