KQH.pdb
     RDKit          3D

 29 29  0  0  1  0  0  0  0  0999 V2000
   10.9791  -24.2817   15.8463 N   0  0  0  0  0  0  0  0  0  0  0  0
   10.6274  -22.9599   16.3304 C   0  0  1  0  0  0  0  0  0  0  0  0
    9.2998  -22.9749   17.0034 C   0  0  0  0  0  0  0  0  0  0  0  0
    8.8873  -24.2423   17.6500 C   0  0  0  0  0  0  0  0  0  0  0  0
    7.5193  -24.3071   18.2152 C   0  0  0  0  0  0  0  0  0  0  0  0
    7.3428  -25.7337   18.7627 C   0  0  0  0  0  0  0  0  0  0  0  0
    6.3821  -25.6280   19.8520 N   0  0  0  0  0  0  0  0  0  0  0  0
   11.6605  -22.5661   17.3239 C   0  0  0  0  0  0  0  0  0  0  0  0
   12.2331  -23.4509   18.0282 O   0  0  0  0  0  0  0  0  0  0  0  0
   16.8951  -19.7712   19.0876 N   0  0  0  0  0  0  0  0  0  0  0  0
   15.8909  -19.0627   18.3887 C   0  0  0  0  0  0  0  0  0  0  0  0
   16.1332  -18.5971   17.2494 O   0  0  0  0  0  0  0  0  0  0  0  0
   14.5520  -18.8626   18.9869 C   0  0  0  0  0  0  0  0  0  0  0  0
   13.5181  -19.3809   18.0565 C   0  0  0  0  0  0  0  0  0  0  0  0
   12.9910  -20.7448   18.4419 C   0  0  2  0  0  0  0  0  0  0  0  0
   12.0223  -21.2067   17.5017 N   0  0  0  0  0  0  0  0  0  0  0  0
   12.4577  -20.6958   19.8345 C   0  0  0  0  0  0  0  0  0  0  0  0
   11.2737  -20.2887   20.0673 O   0  0  0  0  0  0  0  0  0  0  0  0
   13.2162  -21.0894   20.9595 N   0  0  0  0  0  0  0  0  0  0  0  0
   12.7059  -21.0294   22.3286 C   0  0  1  0  0  0  0  0  0  0  0  0
   12.0317  -22.3246   22.7097 C   0  0  0  0  0  0  0  0  0  0  0  0
   12.9523  -23.4763   22.7058 C   0  0  0  0  0  0  0  0  0  0  0  0
   13.6936  -23.9197   21.6328 C   0  0  0  0  0  0  0  0  0  0  0  0
   14.4152  -24.9947   21.9918 N   0  0  0  0  0  0  0  0  0  0  0  0
   14.1492  -25.2517   23.2842 C   0  0  0  0  0  0  0  0  0  0  0  0
   13.2539  -24.3198   23.7159 N   0  0  0  0  0  0  0  0  0  0  0  0
   13.7519  -20.5982   23.2764 C   0  0  0  0  0  0  0  0  0  0  0  0
   13.5951  -20.5556   24.5146 O   0  0  0  0  0  0  0  0  0  0  0  0
   14.9799  -20.2191   22.7533 O   0  0  0  0  0  0  0  0  0  0  0  0
  2  1  1  1
  3  2  1  0
  3  4  1  0
  5  6  1  0
  5  4  1  0
  7  6  1  0
  8  9  2  0
  8  2  1  0
 10 11  1  0
 11 13  1  0
 12 11  2  0
 13 14  1  0
 15 14  1  6
 15 17  1  0
 15 16  1  0
 16  8  1  0
 17 19  1  0
 18 17  2  0
 19 20  1  0
 20 27  1  0
 21 22  1  0
 20 21  1  1
 22 26  1  0
 23 24  1  0
 23 22  2  0
 24 25  1  0
 25 26  2  0
 27 28  2  0
 27 29  1  0
M  END
$$$$
