KQH.pdb
     RDKit          3D

 29 29  0  0  1  0  0  0  0  0999 V2000
    8.0142  -14.9541   19.2162 N   0  0  0  0  0  0  0  0  0  0  0  0
    8.0592  -15.9721   20.2491 C   0  0  1  0  0  0  0  0  0  0  0  0
    8.9187  -17.1144   19.8340 C   0  0  0  0  0  0  0  0  0  0  0  0
    8.2624  -18.4354   19.6967 C   0  0  0  0  0  0  0  0  0  0  0  0
    9.0829  -19.5554   19.1797 C   0  0  0  0  0  0  0  0  0  0  0  0
    8.1667  -20.7908   19.1571 C   0  0  0  0  0  0  0  0  0  0  0  0
    8.9845  -21.8861   18.6553 N   0  0  0  0  0  0  0  0  0  0  0  0
    8.6524  -15.3451   21.4592 C   0  0  0  0  0  0  0  0  0  0  0  0
    9.8113  -14.8342   21.4055 O   0  0  0  0  0  0  0  0  0  0  0  0
    5.2993  -13.1640   26.2503 N   0  0  0  0  0  0  0  0  0  0  0  0
    6.6210  -12.8462   26.6388 C   0  0  0  0  0  0  0  0  0  0  0  0
    6.8188  -12.0372   27.5768 O   0  0  0  0  0  0  0  0  0  0  0  0
    7.7790  -13.4585   25.9496 C   0  0  0  0  0  0  0  0  0  0  0  0
    7.3300  -14.0371   24.6586 C   0  0  0  0  0  0  0  0  0  0  0  0
    8.4366  -14.7219   23.8886 C   0  0  2  0  0  0  0  0  0  0  0  0
    7.9410  -15.3062   22.6850 N   0  0  0  0  0  0  0  0  0  0  0  0
    9.1129  -15.7174   24.7708 C   0  0  0  0  0  0  0  0  0  0  0  0
    8.5001  -16.7597   25.1702 O   0  0  0  0  0  0  0  0  0  0  0  0
   10.4477  -15.5698   25.2096 N   0  0  0  0  0  0  0  0  0  0  0  0
   11.0917  -16.4990   26.1370 C   0  0  1  0  0  0  0  0  0  0  0  0
   12.5936  -16.3642   26.0789 C   0  0  0  0  0  0  0  0  0  0  0  0
   13.1455  -16.6402   24.7398 C   0  0  0  0  0  0  0  0  0  0  0  0
   12.4297  -17.0410   23.6333 C   0  0  0  0  0  0  0  0  0  0  0  0
   13.2595  -17.2027   22.5890 N   0  0  0  0  0  0  0  0  0  0  0  0
   14.5033  -16.9112   23.0072 C   0  0  0  0  0  0  0  0  0  0  0  0
   14.4278  -16.5677   24.3235 N   0  0  0  0  0  0  0  0  0  0  0  0
   10.5327  -16.3783   27.4977 C   0  0  0  0  0  0  0  0  0  0  0  0
    9.6383  -15.5661   27.8136 O   0  0  0  0  0  0  0  0  0  0  0  0
   11.0357  -17.2207   28.4789 O   0  0  0  0  0  0  0  0  0  0  0  0
  2  1  1  6
  3  2  1  0
  3  4  1  0
  5  6  1  0
  5  4  1  0
  7  6  1  0
  8  9  2  0
  8  2  1  0
 10 11  1  0
 11 13  1  0
 12 11  2  0
 13 14  1  0
 15 14  1  1
 15 17  1  0
 15 16  1  0
 16  8  1  0
 17 19  1  0
 18 17  2  0
 19 20  1  0
 20 27  1  0
 21 22  1  0
 20 21  1  1
 22 26  1  0
 23 24  1  0
 23 22  2  0
 24 25  1  0
 25 26  2  0
 27 28  2  0
 27 29  1  0
M  END
$$$$
