KQH.pdb
     RDKit          3D

 29 29  0  0  1  0  0  0  0  0999 V2000
   10.7370  -23.6784   16.2255 N   0  0  0  0  0  0  0  0  0  0  0  0
   10.6040  -22.2339   16.1891 C   0  0  1  0  0  0  0  0  0  0  0  0
    9.6871  -21.7563   17.2600 C   0  0  0  0  0  0  0  0  0  0  0  0
    8.6820  -22.7203   17.7650 C   0  0  0  0  0  0  0  0  0  0  0  0
    7.3445  -22.1902   18.1187 C   0  0  0  0  0  0  0  0  0  0  0  0
    6.5227  -23.3878   18.6250 C   0  0  0  0  0  0  0  0  0  0  0  0
    5.2489  -22.8396   19.0694 N   0  0  0  0  0  0  0  0  0  0  0  0
   11.9547  -21.6617   16.4285 C   0  0  0  0  0  0  0  0  0  0  0  0
   12.7339  -22.2044   17.2683 O   0  0  0  0  0  0  0  0  0  0  0  0
   13.9526  -16.3525   13.6379 N   0  0  0  0  0  0  0  0  0  0  0  0
   15.1174  -16.7647   14.3251 C   0  0  0  0  0  0  0  0  0  0  0  0
   16.1811  -16.1120   14.1984 O   0  0  0  0  0  0  0  0  0  0  0  0
   15.0974  -17.9617   15.1955 C   0  0  0  0  0  0  0  0  0  0  0  0
   13.7623  -18.6049   15.1121 C   0  0  0  0  0  0  0  0  0  0  0  0
   13.6449  -19.8586   15.9492 C   0  0  2  0  0  0  0  0  0  0  0  0
   12.3941  -20.5091   15.7293 N   0  0  0  0  0  0  0  0  0  0  0  0
   13.8681  -19.5197   17.3851 C   0  0  0  0  0  0  0  0  0  0  0  0
   12.8862  -19.2952   18.1642 O   0  0  0  0  0  0  0  0  0  0  0  0
   15.1558  -19.4284   17.9592 N   0  0  0  0  0  0  0  0  0  0  0  0
   15.3833  -19.3304   19.4004 C   0  0  1  0  0  0  0  0  0  0  0  0
   14.6147  -20.3973   20.1410 C   0  0  0  0  0  0  0  0  0  0  0  0
   14.9409  -20.4498   21.5780 C   0  0  0  0  0  0  0  0  0  0  0  0
   16.1491  -20.1160   22.1491 C   0  0  0  0  0  0  0  0  0  0  0  0
   16.0864  -20.2899   23.4800 N   0  0  0  0  0  0  0  0  0  0  0  0
   14.8521  -20.7322   23.7760 C   0  0  0  0  0  0  0  0  0  0  0  0
   14.1556  -20.8281   22.6090 N   0  0  0  0  0  0  0  0  0  0  0  0
   16.8242  -19.3015   19.7190 C   0  0  0  0  0  0  0  0  0  0  0  0
   17.2811  -19.3198   20.8810 O   0  0  0  0  0  0  0  0  0  0  0  0
   17.7183  -19.2510   18.6591 O   0  0  0  0  0  0  0  0  0  0  0  0
  2  1  1  1
  3  2  1  0
  3  4  1  0
  5  6  1  0
  5  4  1  0
  7  6  1  0
  8  9  2  0
  8  2  1  0
 10 11  1  0
 11 13  1  0
 12 11  2  0
 13 14  1  0
 15 14  1  6
 15 17  1  0
 15 16  1  0
 16  8  1  0
 17 19  1  0
 18 17  2  0
 19 20  1  0
 20 27  1  0
 21 22  1  0
 20 21  1  1
 22 26  1  0
 23 24  1  0
 23 22  2  0
 24 25  1  0
 25 26  2  0
 27 28  2  0
 27 29  1  0
M  END
$$$$
