KQH.pdb
     RDKit          3D

 29 29  0  0  1  0  0  0  0  0999 V2000
    9.5692  -18.3439   16.9651 N   0  0  0  0  0  0  0  0  0  0  0  0
   10.2854  -19.2268   17.8667 C   0  0  1  0  0  0  0  0  0  0  0  0
   11.7309  -19.2874   17.5163 C   0  0  0  0  0  0  0  0  0  0  0  0
   12.4537  -17.9983   17.4161 C   0  0  0  0  0  0  0  0  0  0  0  0
   13.8689  -18.0407   16.9795 C   0  0  0  0  0  0  0  0  0  0  0  0
   14.3581  -16.5827   16.9493 C   0  0  0  0  0  0  0  0  0  0  0  0
   15.7280  -16.6305   16.4578 N   0  0  0  0  0  0  0  0  0  0  0  0
   10.1504  -18.6620   19.2349 C   0  0  0  0  0  0  0  0  0  0  0  0
   10.1515  -17.4059   19.4056 O   0  0  0  0  0  0  0  0  0  0  0  0
    8.1605  -22.0432   24.1418 N   0  0  0  0  0  0  0  0  0  0  0  0
    8.2943  -20.7544   24.7074 C   0  0  0  0  0  0  0  0  0  0  0  0
    7.8204  -20.5192   25.8447 O   0  0  0  0  0  0  0  0  0  0  0  0
    8.9895  -19.6747   23.9712 C   0  0  0  0  0  0  0  0  0  0  0  0
    9.2661  -20.1274   22.5850 C   0  0  0  0  0  0  0  0  0  0  0  0
    9.8532  -19.0471   21.7049 C   0  0  2  0  0  0  0  0  0  0  0  0
   10.0190  -19.5083   20.3649 N   0  0  0  0  0  0  0  0  0  0  0  0
   11.1299  -18.5586   22.3031 C   0  0  0  0  0  0  0  0  0  0  0  0
   12.2174  -18.5932   21.6414 O   0  0  0  0  0  0  0  0  0  0  0  0
   11.2116  -18.0378   23.6138 N   0  0  0  0  0  0  0  0  0  0  0  0
   12.0070  -16.8599   23.9579 C   0  0  1  0  0  0  0  0  0  0  0  0
   11.6864  -15.7061   23.0395 C   0  0  0  0  0  0  0  0  0  0  0  0
   12.6153  -15.6020   21.8992 C   0  0  0  0  0  0  0  0  0  0  0  0
   13.7187  -16.3957   21.6756 C   0  0  0  0  0  0  0  0  0  0  0  0
   14.3328  -16.0122   20.5437 N   0  0  0  0  0  0  0  0  0  0  0  0
   13.6396  -14.9799   20.0329 C   0  0  0  0  0  0  0  0  0  0  0  0
   12.5901  -14.7332   20.8660 N   0  0  0  0  0  0  0  0  0  0  0  0
   11.8934  -16.5317   25.3924 C   0  0  0  0  0  0  0  0  0  0  0  0
   11.1042  -17.0991   26.1763 O   0  0  0  0  0  0  0  0  0  0  0  0
   12.7158  -15.5323   25.8926 O   0  0  0  0  0  0  0  0  0  0  0  0
  2  1  1  6
  3  2  1  0
  3  4  1  0
  5  6  1  0
  5  4  1  0
  7  6  1  0
  8  9  2  0
  8  2  1  0
 10 11  1  0
 11 13  1  0
 12 11  2  0
 13 14  1  0
 15 14  1  1
 15 17  1  0
 15 16  1  0
 16  8  1  0
 17 19  1  0
 18 17  2  0
 19 20  1  0
 20 27  1  0
 21 22  1  0
 20 21  1  6
 22 26  1  0
 23 24  1  0
 23 22  2  0
 24 25  1  0
 25 26  2  0
 27 28  2  0
 27 29  1  0
M  END
$$$$
