KQH.pdb
     RDKit          3D

 29 29  0  0  1  0  0  0  0  0999 V2000
    8.5825  -17.9671   19.8220 N   0  0  0  0  0  0  0  0  0  0  0  0
    9.5292  -16.9766   20.2996 C   0  0  1  0  0  0  0  0  0  0  0  0
    8.9031  -15.6276   20.3612 C   0  0  0  0  0  0  0  0  0  0  0  0
    8.5521  -14.9889   19.0715 C   0  0  0  0  0  0  0  0  0  0  0  0
    7.9347  -13.6430   19.1213 C   0  0  0  0  0  0  0  0  0  0  0  0
    7.6072  -13.2613   17.6677 C   0  0  0  0  0  0  0  0  0  0  0  0
    7.0788  -11.9053   17.7196 N   0  0  0  0  0  0  0  0  0  0  0  0
    9.9308  -17.3784   21.6731 C   0  0  0  0  0  0  0  0  0  0  0  0
    9.1084  -17.9862   22.4222 O   0  0  0  0  0  0  0  0  0  0  0  0
   15.6894  -18.8023   23.6074 N   0  0  0  0  0  0  0  0  0  0  0  0
   14.7974  -19.5100   22.7693 C   0  0  0  0  0  0  0  0  0  0  0  0
   15.2291  -20.4279   22.0314 O   0  0  0  0  0  0  0  0  0  0  0  0
   13.3547  -19.1799   22.7515 C   0  0  0  0  0  0  0  0  0  0  0  0
   13.1423  -17.8781   23.4324 C   0  0  0  0  0  0  0  0  0  0  0  0
   11.6933  -17.4475   23.4692 C   0  0  2  0  0  0  0  0  0  0  0  0
   11.2286  -17.0928   22.1677 N   0  0  0  0  0  0  0  0  0  0  0  0
   11.5292  -16.3404   24.4560 C   0  0  0  0  0  0  0  0  0  0  0  0
   11.8990  -15.1545   24.1757 O   0  0  0  0  0  0  0  0  0  0  0  0
   10.9651  -16.5333   25.7368 N   0  0  0  0  0  0  0  0  0  0  0  0
   10.0471  -15.5794   26.3580 C   0  0  1  0  0  0  0  0  0  0  0  0
    8.9053  -15.2470   25.4290 C   0  0  0  0  0  0  0  0  0  0  0  0
    7.9625  -14.2688   26.0018 C   0  0  0  0  0  0  0  0  0  0  0  0
    8.0712  -13.6611   27.2332 C   0  0  0  0  0  0  0  0  0  0  0  0
    7.0307  -12.8329   27.4250 N   0  0  0  0  0  0  0  0  0  0  0  0
    6.2506  -12.8980   26.3322 C   0  0  0  0  0  0  0  0  0  0  0  0
    6.8252  -13.7777   25.4649 N   0  0  0  0  0  0  0  0  0  0  0  0
    9.6174  -16.0353   27.6944 C   0  0  0  0  0  0  0  0  0  0  0  0
    9.8485  -15.4109   28.7509 O   0  0  0  0  0  0  0  0  0  0  0  0
    8.9153  -17.2295   27.7737 O   0  0  0  0  0  0  0  0  0  0  0  0
  2  1  1  1
  3  2  1  0
  3  4  1  0
  5  6  1  0
  5  4  1  0
  7  6  1  0
  8  9  2  0
  8  2  1  0
 10 11  1  0
 11 13  1  0
 12 11  2  0
 13 14  1  0
 15 14  1  6
 15 17  1  0
 15 16  1  0
 16  8  1  0
 17 19  1  0
 18 17  2  0
 19 20  1  0
 20 27  1  0
 21 22  1  0
 20 21  1  6
 22 26  1  0
 23 24  1  0
 23 22  2  0
 24 25  1  0
 25 26  2  0
 27 28  2  0
 27 29  1  0
M  END
$$$$
