KQH.pdb
     RDKit          3D

 29 29  0  0  1  0  0  0  0  0999 V2000
   10.5771  -17.8730   16.4128 N   0  0  0  0  0  0  0  0  0  0  0  0
    9.7279  -18.1286   17.5612 C   0  0  1  0  0  0  0  0  0  0  0  0
    9.7908  -19.5608   17.9619 C   0  0  0  0  0  0  0  0  0  0  0  0
    9.3765  -20.5613   16.9511 C   0  0  0  0  0  0  0  0  0  0  0  0
    9.4591  -21.9910   17.3311 C   0  0  0  0  0  0  0  0  0  0  0  0
    9.0236  -22.7950   16.0942 C   0  0  0  0  0  0  0  0  0  0  0  0
    9.1360  -24.1977   16.4690 N   0  0  0  0  0  0  0  0  0  0  0  0
   10.2414  -17.2977   18.6816 C   0  0  0  0  0  0  0  0  0  0  0  0
   11.4902  -17.1901   18.8709 O   0  0  0  0  0  0  0  0  0  0  0  0
    7.6568  -11.8554   20.6836 N   0  0  0  0  0  0  0  0  0  0  0  0
    7.2776  -13.0153   19.9697 C   0  0  0  0  0  0  0  0  0  0  0  0
    6.0837  -13.1691   19.6170 O   0  0  0  0  0  0  0  0  0  0  0  0
    8.2758  -14.0546   19.6318 C   0  0  0  0  0  0  0  0  0  0  0  0
    8.7820  -14.6718   20.8832 C   0  0  0  0  0  0  0  0  0  0  0  0
    9.7647  -15.7962   20.6450 C   0  0  2  0  0  0  0  0  0  0  0  0
    9.3538  -16.6160   19.5520 N   0  0  0  0  0  0  0  0  0  0  0  0
    9.9452  -16.5733   21.9059 C   0  0  0  0  0  0  0  0  0  0  0  0
    9.2437  -17.6097   22.1414 O   0  0  0  0  0  0  0  0  0  0  0  0
   10.8859  -16.2162   22.8977 N   0  0  0  0  0  0  0  0  0  0  0  0
   12.0264  -17.0577   23.2577 C   0  0  1  0  0  0  0  0  0  0  0  0
   12.7709  -17.5121   22.0262 C   0  0  0  0  0  0  0  0  0  0  0  0
   12.6529  -18.9617   21.7836 C   0  0  0  0  0  0  0  0  0  0  0  0
   11.9613  -19.8619   22.5639 C   0  0  0  0  0  0  0  0  0  0  0  0
   12.0752  -21.0956   22.0440 N   0  0  0  0  0  0  0  0  0  0  0  0
   12.8322  -21.0038   20.9370 C   0  0  0  0  0  0  0  0  0  0  0  0
   13.1828  -19.6963   20.7824 N   0  0  0  0  0  0  0  0  0  0  0  0
   12.8825  -16.4042   24.2668 C   0  0  0  0  0  0  0  0  0  0  0  0
   12.8882  -16.7087   25.4779 O   0  0  0  0  0  0  0  0  0  0  0  0
   13.7290  -15.3922   23.8369 O   0  0  0  0  0  0  0  0  0  0  0  0
  2  1  1  6
  3  2  1  0
  3  4  1  0
  5  6  1  0
  5  4  1  0
  7  6  1  0
  8  9  2  0
  8  2  1  0
 10 11  1  0
 11 13  1  0
 12 11  2  0
 13 14  1  0
 15 14  1  1
 15 17  1  0
 15 16  1  0
 16  8  1  0
 17 19  1  0
 18 17  2  0
 19 20  1  0
 20 27  1  0
 21 22  1  0
 20 21  1  6
 22 26  1  0
 23 24  1  0
 23 22  2  0
 24 25  1  0
 25 26  2  0
 27 28  2  0
 27 29  1  0
M  END
$$$$
