KQH.pdb
     RDKit          3D

 29 29  0  0  1  0  0  0  0  0999 V2000
    8.4123  -14.5548   17.0517 N   0  0  0  0  0  0  0  0  0  0  0  0
    9.3849  -13.6683   17.6628 C   0  0  1  0  0  0  0  0  0  0  0  0
    8.8112  -12.9906   18.8575 C   0  0  0  0  0  0  0  0  0  0  0  0
    8.2446  -13.8581   19.9161 C   0  0  0  0  0  0  0  0  0  0  0  0
    7.5997  -13.1927   21.0722 C   0  0  0  0  0  0  0  0  0  0  0  0
    7.0323  -14.3148   21.9582 C   0  0  0  0  0  0  0  0  0  0  0  0
    6.3637  -13.6491   23.0674 N   0  0  0  0  0  0  0  0  0  0  0  0
   10.5329  -14.5069   18.0965 C   0  0  0  0  0  0  0  0  0  0  0  0
   10.3711  -15.7478   18.2994 O   0  0  0  0  0  0  0  0  0  0  0  0
   15.4469  -15.0726   15.8865 N   0  0  0  0  0  0  0  0  0  0  0  0
   16.0893  -15.2544   17.1327 C   0  0  0  0  0  0  0  0  0  0  0  0
   17.1781  -15.8747   17.1895 O   0  0  0  0  0  0  0  0  0  0  0  0
   15.4908  -14.7197   18.3764 C   0  0  0  0  0  0  0  0  0  0  0  0
   14.2300  -14.0093   18.0463 C   0  0  0  0  0  0  0  0  0  0  0  0
   12.9947  -14.6921   18.5888 C   0  0  2  0  0  0  0  0  0  0  0  0
   11.8186  -13.9415   18.2901 N   0  0  0  0  0  0  0  0  0  0  0  0
   13.1625  -14.9332   20.0517 C   0  0  0  0  0  0  0  0  0  0  0  0
   13.4440  -13.9767   20.8439 O   0  0  0  0  0  0  0  0  0  0  0  0
   13.0228  -16.2108   20.6384 N   0  0  0  0  0  0  0  0  0  0  0  0
   13.2826  -16.4735   22.0533 C   0  0  1  0  0  0  0  0  0  0  0  0
   12.4565  -17.6363   22.5460 C   0  0  0  0  0  0  0  0  0  0  0  0
   11.0072  -17.3670   22.5166 C   0  0  0  0  0  0  0  0  0  0  0  0
   10.3970  -16.1712   22.8253 C   0  0  0  0  0  0  0  0  0  0  0  0
    9.0654  -16.2930   22.6940 N   0  0  0  0  0  0  0  0  0  0  0  0
    8.8074  -17.5533   22.3040 C   0  0  0  0  0  0  0  0  0  0  0  0
    9.9987  -18.2057   22.1970 N   0  0  0  0  0  0  0  0  0  0  0  0
   14.7276  -16.6108   22.3206 C   0  0  0  0  0  0  0  0  0  0  0  0
   15.6064  -16.5746   21.4341 O   0  0  0  0  0  0  0  0  0  0  0  0
   15.1259  -16.7902   23.6376 O   0  0  0  0  0  0  0  0  0  0  0  0
  2  1  1  1
  3  2  1  0
  3  4  1  0
  5  6  1  0
  5  4  1  0
  7  6  1  0
  8  9  2  0
  8  2  1  0
 10 11  1  0
 11 13  1  0
 12 11  2  0
 13 14  1  0
 15 14  1  1
 15 17  1  0
 15 16  1  0
 16  8  1  0
 17 19  1  0
 18 17  2  0
 19 20  1  0
 20 27  1  0
 21 22  1  0
 20 21  1  6
 22 26  1  0
 23 24  1  0
 23 22  2  0
 24 25  1  0
 25 26  2  0
 27 28  2  0
 27 29  1  0
M  END
$$$$
