KQH.pdb
     RDKit          3D

 29 29  0  0  1  0  0  0  0  0999 V2000
    6.8999  -16.8759   18.6608 N   0  0  0  0  0  0  0  0  0  0  0  0
    7.8673  -16.3757   19.6196 C   0  0  1  0  0  0  0  0  0  0  0  0
    7.6497  -14.9282   19.8903 C   0  0  0  0  0  0  0  0  0  0  0  0
    8.4991  -13.9693   19.1464 C   0  0  0  0  0  0  0  0  0  0  0  0
    8.3885  -12.5365   19.5068 C   0  0  0  0  0  0  0  0  0  0  0  0
    9.4436  -11.7950   18.6683 C   0  0  0  0  0  0  0  0  0  0  0  0
    9.2423  -10.3776   18.9347 N   0  0  0  0  0  0  0  0  0  0  0  0
    7.6657  -17.1320   20.8832 C   0  0  0  0  0  0  0  0  0  0  0  0
    6.5040  -17.5168   21.2138 O   0  0  0  0  0  0  0  0  0  0  0  0
    8.5391  -23.1004   22.0147 N   0  0  0  0  0  0  0  0  0  0  0  0
    9.1404  -21.9147   22.4957 C   0  0  0  0  0  0  0  0  0  0  0  0
   10.1210  -21.9834   23.2750 O   0  0  0  0  0  0  0  0  0  0  0  0
    8.6253  -20.5878   22.0897 C   0  0  0  0  0  0  0  0  0  0  0  0
    9.4134  -19.5286   22.7679 C   0  0  0  0  0  0  0  0  0  0  0  0
    8.6632  -18.2245   22.9201 C   0  0  2  0  0  0  0  0  0  0  0  0
    8.7577  -17.4351   21.7353 N   0  0  0  0  0  0  0  0  0  0  0  0
    9.1603  -17.5036   24.1282 C   0  0  0  0  0  0  0  0  0  0  0  0
   10.2358  -16.8230   24.0871 O   0  0  0  0  0  0  0  0  0  0  0  0
    8.4838  -17.5300   25.3683 N   0  0  0  0  0  0  0  0  0  0  0  0
    8.9691  -16.8329   26.5586 C   0  0  1  0  0  0  0  0  0  0  0  0
    7.8281  -16.1929   27.3109 C   0  0  0  0  0  0  0  0  0  0  0  0
    7.2482  -15.0365   26.6036 C   0  0  0  0  0  0  0  0  0  0  0  0
    7.7349  -14.4630   25.4496 C   0  0  0  0  0  0  0  0  0  0  0  0
    6.9568  -13.4270   25.0936 N   0  0  0  0  0  0  0  0  0  0  0  0
    5.9729  -13.3239   26.0037 C   0  0  0  0  0  0  0  0  0  0  0  0
    6.1560  -14.3108   26.9250 N   0  0  0  0  0  0  0  0  0  0  0  0
    9.8165  -17.7097   27.3902 C   0  0  0  0  0  0  0  0  0  0  0  0
   10.3738  -17.3425   28.4456 O   0  0  0  0  0  0  0  0  0  0  0  0
   10.0002  -19.0186   26.9678 O   0  0  0  0  0  0  0  0  0  0  0  0
  2  1  1  6
  3  2  1  0
  3  4  1  0
  5  6  1  0
  5  4  1  0
  7  6  1  0
  8  9  2  0
  8  2  1  0
 10 11  1  0
 11 13  1  0
 12 11  2  0
 13 14  1  0
 15 14  1  6
 15 17  1  0
 15 16  1  0
 16  8  1  0
 17 19  1  0
 18 17  2  0
 19 20  1  0
 20 27  1  0
 21 22  1  0
 20 21  1  1
 22 26  1  0
 23 24  1  0
 23 22  2  0
 24 25  1  0
 25 26  2  0
 27 28  2  0
 27 29  1  0
M  END
$$$$
