WDL.pdb
     RDKit          3D

 31 32  0  0  1  0  0  0  0  0999 V2000
    7.1829  -19.0062   21.0725 N   0  0  0  0  0  0  0  0  0  0  0  0
    7.8739  -17.6989   20.9852 C   0  0  1  0  0  0  0  0  0  0  0  0
    6.8121  -16.6374   21.0139 C   0  0  0  0  0  0  0  0  0  0  0  0
    7.2467  -15.2786   20.7098 C   0  0  0  0  0  0  0  0  0  0  0  0
    7.6781  -14.9081   19.4222 C   0  0  0  0  0  0  0  0  0  0  0  0
    7.9627  -13.6051   19.4417 N   0  0  0  0  0  0  0  0  0  0  0  0
    7.7400  -13.1224   20.6636 C   0  0  0  0  0  0  0  0  0  0  0  0
    7.8999  -11.8656   21.1615 C   0  0  0  0  0  0  0  0  0  0  0  0
    7.6136  -11.6116   22.4927 C   0  0  0  0  0  0  0  0  0  0  0  0
    7.1706  -12.6260   23.3039 C   0  0  0  0  0  0  0  0  0  0  0  0
    7.0056  -13.9155   22.7941 C   0  0  0  0  0  0  0  0  0  0  0  0
    7.2931  -14.1427   21.4776 C   0  0  0  0  0  0  0  0  0  0  0  0
    8.7725  -17.5943   22.1366 C   0  0  0  0  0  0  0  0  0  0  0  0
    8.3524  -18.0774   23.2336 O   0  0  0  0  0  0  0  0  0  0  0  0
   10.0687  -16.9873   22.0917 N   0  0  0  0  0  0  0  0  0  0  0  0
   10.8792  -17.0429   23.2615 C   0  0  1  0  0  0  0  0  0  0  0  0
   12.3078  -16.7561   22.9159 C   0  0  0  0  0  0  0  0  0  0  0  0
   12.9080  -17.7526   22.0077 C   0  0  0  0  0  0  0  0  0  0  0  0
   12.6760  -18.9956   22.1381 O   0  0  0  0  0  0  0  0  0  0  0  0
   10.4059  -16.1154   24.3330 C   0  0  0  0  0  0  0  0  0  0  0  0
   10.6191  -14.8812   24.3224 O   0  0  0  0  0  0  0  0  0  0  0  0
   13.7538  -17.4154   20.9646 O   0  0  0  0  0  0  0  0  0  0  0  0
    8.8001  -12.8183   26.7295 C   0  0  0  0  0  0  0  0  0  0  0  0
    8.0028  -13.9049   26.1244 C   0  0  2  0  0  0  0  0  0  0  0  0
    6.5021  -13.5333   26.2596 C   0  0  0  0  0  0  0  0  0  0  0  0
    8.1160  -15.2787   26.6591 C   0  0  0  0  0  0  0  0  0  0  0  0
    9.4440  -15.8831   26.6819 C   0  0  2  0  0  0  0  0  0  0  0  0
    9.6789  -16.6376   25.4221 N   0  0  0  0  0  0  0  0  0  0  0  0
    9.8917  -16.7331   27.7612 C   0  0  0  0  0  0  0  0  0  0  0  0
   10.2466  -16.3886   29.0511 O   0  0  0  0  0  0  0  0  0  0  0  0
    9.9981  -18.0012   27.5338 O   0  0  0  0  0  0  0  0  0  0  0  0
  2  1  1  1
  2  3  1  0
  2 13  1  0
  3  4  1  0
  4  5  2  0
  5  6  1  0
  7  6  1  0
  8  7  2  0
  9  8  1  0
 10 11  1  0
 10  9  2  0
 11 12  2  0
 12  4  1  0
 12  7  1  0
 13 15  1  0
 13 14  2  0
 15 16  1  0
 16 17  1  6
 18 22  1  0
 18 17  1  0
 19 18  2  0
 20 16  1  0
 20 21  2  0
 24 23  1  1
 24 26  1  0
 25 24  1  0
 27 26  1  1
 27 28  1  0
 28 20  1  0
 29 27  1  0
 30 29  1  0
 31 29  2  0
M  END
$$$$
