WDL.pdb
     RDKit          3D

 31 32  0  0  1  0  0  0  0  0999 V2000
    6.6327  -19.3799   23.5354 N   0  0  0  0  0  0  0  0  0  0  0  0
    7.1377  -18.0620   23.0858 C   0  0  1  0  0  0  0  0  0  0  0  0
    6.2396  -17.0187   23.6858 C   0  0  0  0  0  0  0  0  0  0  0  0
    6.5825  -15.6293   23.4037 C   0  0  0  0  0  0  0  0  0  0  0  0
    6.8239  -15.1759   22.0931 C   0  0  0  0  0  0  0  0  0  0  0  0
    7.0638  -13.8650   22.1480 N   0  0  0  0  0  0  0  0  0  0  0  0
    6.9911  -13.4550   23.4137 C   0  0  0  0  0  0  0  0  0  0  0  0
    7.1733  -12.2198   23.9560 C   0  0  0  0  0  0  0  0  0  0  0  0
    7.0601  -12.0462   25.3254 C   0  0  0  0  0  0  0  0  0  0  0  0
    6.7653  -13.1182   26.1298 C   0  0  0  0  0  0  0  0  0  0  0  0
    6.5775  -14.3857   25.5748 C   0  0  0  0  0  0  0  0  0  0  0  0
    6.6929  -14.5333   24.2212 C   0  0  0  0  0  0  0  0  0  0  0  0
    8.5150  -17.9279   23.5645 C   0  0  0  0  0  0  0  0  0  0  0  0
    8.7659  -18.3955   24.7185 O   0  0  0  0  0  0  0  0  0  0  0  0
    9.5686  -17.3091   22.8176 N   0  0  0  0  0  0  0  0  0  0  0  0
   10.8662  -17.2545   23.4022 C   0  0  1  0  0  0  0  0  0  0  0  0
   11.8542  -16.7058   22.4196 C   0  0  0  0  0  0  0  0  0  0  0  0
   12.5625  -17.7466   21.6494 C   0  0  0  0  0  0  0  0  0  0  0  0
   12.4931  -18.9745   21.9712 O   0  0  0  0  0  0  0  0  0  0  0  0
   10.8934  -16.4601   24.6673 C   0  0  0  0  0  0  0  0  0  0  0  0
   10.9104  -15.2081   24.6969 O   0  0  0  0  0  0  0  0  0  0  0  0
   13.3420  -17.4697   20.5391 O   0  0  0  0  0  0  0  0  0  0  0  0
    8.9805  -13.5379   28.7054 C   0  0  0  0  0  0  0  0  0  0  0  0
   10.0790  -14.5039   28.4991 C   0  0  2  0  0  0  0  0  0  0  0  0
   11.4218  -13.7300   28.5789 C   0  0  0  0  0  0  0  0  0  0  0  0
   10.1459  -15.2758   27.2398 C   0  0  0  0  0  0  0  0  0  0  0  0
   11.0223  -16.4422   27.2129 C   0  0  2  0  0  0  0  0  0  0  0  0
   10.9006  -17.1372   25.9039 N   0  0  0  0  0  0  0  0  0  0  0  0
   10.9812  -17.4678   28.2297 C   0  0  0  0  0  0  0  0  0  0  0  0
   10.2133  -18.6152   28.2789 O   0  0  0  0  0  0  0  0  0  0  0  0
   11.7479  -17.3333   29.2619 O   0  0  0  0  0  0  0  0  0  0  0  0
  2  1  1  1
  2  3  1  0
  2 13  1  0
  3  4  1  0
  4  5  2  0
  5  6  1  0
  7  6  1  0
  8  7  2  0
  9  8  1  0
 10 11  1  0
 10  9  2  0
 11 12  2  0
 12  4  1  0
 12  7  1  0
 13 15  1  0
 13 14  2  0
 15 16  1  0
 16 17  1  6
 18 22  1  0
 18 17  1  0
 19 18  2  0
 20 16  1  0
 20 21  2  0
 24 23  1  6
 24 26  1  0
 25 24  1  0
 27 26  1  1
 27 28  1  0
 28 20  1  0
 29 27  1  0
 30 29  1  0
 31 29  2  0
M  END
$$$$
