WDL.pdb
     RDKit          3D

 31 32  0  0  1  0  0  0  0  0999 V2000
    6.7375  -18.3233   24.4288 N   0  0  0  0  0  0  0  0  0  0  0  0
    7.5695  -17.1775   23.9940 C   0  0  1  0  0  0  0  0  0  0  0  0
    7.2149  -16.0161   24.8774 C   0  0  0  0  0  0  0  0  0  0  0  0
    6.8360  -14.7805   24.2012 C   0  0  0  0  0  0  0  0  0  0  0  0
    5.7645  -13.9865   24.6516 C   0  0  0  0  0  0  0  0  0  0  0  0
    5.6919  -12.9092   23.8686 N   0  0  0  0  0  0  0  0  0  0  0  0
    6.6513  -12.9682   22.9457 C   0  0  0  0  0  0  0  0  0  0  0  0
    6.9586  -12.1128   21.9324 C   0  0  0  0  0  0  0  0  0  0  0  0
    8.0088  -12.4068   21.0786 C   0  0  0  0  0  0  0  0  0  0  0  0
    8.7348  -13.5577   21.2567 C   0  0  0  0  0  0  0  0  0  0  0  0
    8.4210  -14.4357   22.2961 C   0  0  0  0  0  0  0  0  0  0  0  0
    7.3815  -14.1247   23.1268 C   0  0  0  0  0  0  0  0  0  0  0  0
    8.9732  -17.5645   24.1494 C   0  0  0  0  0  0  0  0  0  0  0  0
    9.2070  -18.5873   24.8654 O   0  0  0  0  0  0  0  0  0  0  0  0
   10.0705  -16.8645   23.5523 N   0  0  0  0  0  0  0  0  0  0  0  0
   11.3901  -17.1970   23.9725 C   0  0  1  0  0  0  0  0  0  0  0  0
   12.3973  -16.5908   23.0447 C   0  0  0  0  0  0  0  0  0  0  0  0
   12.3053  -17.0952   21.6608 C   0  0  0  0  0  0  0  0  0  0  0  0
   12.1049  -18.3260   21.4139 O   0  0  0  0  0  0  0  0  0  0  0  0
   11.6653  -16.7846   25.3818 C   0  0  0  0  0  0  0  0  0  0  0  0
   12.8128  -16.5342   25.8171 O   0  0  0  0  0  0  0  0  0  0  0  0
   12.4286  -16.2814   20.5473 O   0  0  0  0  0  0  0  0  0  0  0  0
   11.9340  -13.3772   28.0532 C   0  0  0  0  0  0  0  0  0  0  0  0
   10.6672  -13.9463   27.5493 C   0  0  2  0  0  0  0  0  0  0  0  0
    9.5498  -12.8888   27.7532 C   0  0  0  0  0  0  0  0  0  0  0  0
   10.1394  -15.1933   28.1430 C   0  0  0  0  0  0  0  0  0  0  0  0
   10.7719  -16.4467   27.7450 C   0  0  2  0  0  0  0  0  0  0  0  0
   10.5897  -16.6649   26.2854 N   0  0  0  0  0  0  0  0  0  0  0  0
   10.4756  -17.7050   28.3903 C   0  0  0  0  0  0  0  0  0  0  0  0
   10.0326  -18.8878   27.8304 O   0  0  0  0  0  0  0  0  0  0  0  0
   10.6237  -17.7820   29.6722 O   0  0  0  0  0  0  0  0  0  0  0  0
  2  1  1  1
  2  3  1  0
  2 13  1  0
  3  4  1  0
  4  5  2  0
  5  6  1  0
  7  6  1  0
  8  7  2  0
  9  8  1  0
 10 11  1  0
 10  9  2  0
 11 12  2  0
 12  4  1  0
 12  7  1  0
 13 15  1  0
 13 14  2  0
 15 16  1  0
 16 17  1  6
 18 22  1  0
 18 17  1  0
 19 18  2  0
 20 16  1  0
 20 21  2  0
 24 23  1  1
 24 26  1  0
 25 24  1  0
 27 26  1  1
 27 28  1  0
 28 20  1  0
 29 27  1  0
 30 29  1  0
 31 29  2  0
M  END
$$$$
