WDL.pdb
     RDKit          3D

 31 32  0  0  1  0  0  0  0  0999 V2000
    7.6022  -17.6357   21.9883 N   0  0  0  0  0  0  0  0  0  0  0  0
    8.8162  -17.0979   22.6449 C   0  0  1  0  0  0  0  0  0  0  0  0
    8.4177  -15.8221   23.3292 C   0  0  0  0  0  0  0  0  0  0  0  0
    7.8261  -14.7913   22.4836 C   0  0  0  0  0  0  0  0  0  0  0  0
    6.7145  -14.0359   22.9021 C   0  0  0  0  0  0  0  0  0  0  0  0
    6.4344  -13.1498   21.9453 N   0  0  0  0  0  0  0  0  0  0  0  0
    7.2990  -13.2947   20.9418 C   0  0  0  0  0  0  0  0  0  0  0  0
    7.3988  -12.6325   19.7567 C   0  0  0  0  0  0  0  0  0  0  0  0
    8.3887  -12.9835   18.8538 C   0  0  0  0  0  0  0  0  0  0  0  0
    9.2641  -13.9962   19.1563 C   0  0  0  0  0  0  0  0  0  0  0  0
    9.1632  -14.6758   20.3719 C   0  0  0  0  0  0  0  0  0  0  0  0
    8.1796  -14.3118   21.2479 C   0  0  0  0  0  0  0  0  0  0  0  0
    9.2832  -18.1012   23.6037 C   0  0  0  0  0  0  0  0  0  0  0  0
    9.0739  -19.3177   23.3039 O   0  0  0  0  0  0  0  0  0  0  0  0
    9.9457  -17.7895   24.8344 N   0  0  0  0  0  0  0  0  0  0  0  0
   11.3008  -17.3549   24.7785 C   0  0  1  0  0  0  0  0  0  0  0  0
   11.6040  -16.7766   23.4308 C   0  0  0  0  0  0  0  0  0  0  0  0
   12.9309  -17.1575   22.9088 C   0  0  0  0  0  0  0  0  0  0  0  0
   13.2155  -18.3657   22.6346 O   0  0  0  0  0  0  0  0  0  0  0  0
   11.6341  -16.3728   25.8540 C   0  0  0  0  0  0  0  0  0  0  0  0
   12.7836  -16.2349   26.3318 O   0  0  0  0  0  0  0  0  0  0  0  0
   13.9474  -16.2448   22.6830 O   0  0  0  0  0  0  0  0  0  0  0  0
    9.4327  -12.5211   27.2602 C   0  0  0  0  0  0  0  0  0  0  0  0
    8.6504  -13.7517   27.0236 C   0  0  2  0  0  0  0  0  0  0  0  0
    7.1451  -13.3976   27.1540 C   0  0  0  0  0  0  0  0  0  0  0  0
    8.8538  -14.9260   27.8987 C   0  0  0  0  0  0  0  0  0  0  0  0
   10.1137  -15.6506   27.7680 C   0  0  2  0  0  0  0  0  0  0  0  0
   10.6144  -15.5482   26.3715 N   0  0  0  0  0  0  0  0  0  0  0  0
   10.2571  -17.0348   28.1570 C   0  0  0  0  0  0  0  0  0  0  0  0
   10.3634  -17.5771   29.4232 O   0  0  0  0  0  0  0  0  0  0  0  0
   10.3050  -17.9279   27.2236 O   0  0  0  0  0  0  0  0  0  0  0  0
  2  1  1  1
  2  3  1  0
  2 13  1  0
  3  4  1  0
  4  5  2  0
  5  6  1  0
  7  6  1  0
  8  7  2  0
  9  8  1  0
 10 11  1  0
 10  9  2  0
 11 12  2  0
 12  4  1  0
 12  7  1  0
 13 15  1  0
 13 14  2  0
 15 16  1  0
 16 17  1  6
 18 22  1  0
 18 17  1  0
 19 18  2  0
 20 16  1  0
 20 21  2  0
 24 23  1  1
 24 26  1  0
 25 24  1  0
 27 26  1  6
 27 28  1  0
 28 20  1  0
 29 27  1  0
 30 29  1  0
 31 29  2  0
M  END
$$$$
