WDL.pdb
     RDKit          3D

 31 32  0  0  1  0  0  0  0  0999 V2000
    8.2024  -16.6935   21.3073 N   0  0  0  0  0  0  0  0  0  0  0  0
    8.8148  -16.0082   22.4690 C   0  0  1  0  0  0  0  0  0  0  0  0
    7.7525  -15.8970   23.5244 C   0  0  0  0  0  0  0  0  0  0  0  0
    7.0889  -14.6033   23.6413 C   0  0  0  0  0  0  0  0  0  0  0  0
    6.2025  -14.1320   22.6546 C   0  0  0  0  0  0  0  0  0  0  0  0
    5.7229  -12.9551   23.0594 N   0  0  0  0  0  0  0  0  0  0  0  0
    6.2501  -12.6466   24.2437 C   0  0  0  0  0  0  0  0  0  0  0  0
    6.0729  -11.5523   25.0336 C   0  0  0  0  0  0  0  0  0  0  0  0
    6.7581  -11.4515   26.2330 C   0  0  0  0  0  0  0  0  0  0  0  0
    7.6122  -12.4534   26.6205 C   0  0  0  0  0  0  0  0  0  0  0  0
    7.7943  -13.5768   25.8114 C   0  0  0  0  0  0  0  0  0  0  0  0
    7.1071  -13.6554   24.6329 C   0  0  0  0  0  0  0  0  0  0  0  0
    9.9421  -16.8255   22.9224 C   0  0  0  0  0  0  0  0  0  0  0  0
    9.7005  -18.0501   23.1577 O   0  0  0  0  0  0  0  0  0  0  0  0
   11.2710  -16.3269   23.1125 N   0  0  0  0  0  0  0  0  0  0  0  0
   12.2078  -17.1515   23.7985 C   0  0  1  0  0  0  0  0  0  0  0  0
   13.5545  -17.0551   23.1505 C   0  0  0  0  0  0  0  0  0  0  0  0
   14.5378  -18.0176   23.6843 C   0  0  0  0  0  0  0  0  0  0  0  0
   14.2441  -19.2427   23.8540 O   0  0  0  0  0  0  0  0  0  0  0  0
   12.3048  -16.8235   25.2530 C   0  0  0  0  0  0  0  0  0  0  0  0
   13.2044  -16.1007   25.7399 O   0  0  0  0  0  0  0  0  0  0  0  0
   15.8303  -17.6656   24.0346 O   0  0  0  0  0  0  0  0  0  0  0  0
   10.8590  -13.9216   27.4828 C   0  0  0  0  0  0  0  0  0  0  0  0
    9.9460  -15.0675   27.2935 C   0  0  2  0  0  0  0  0  0  0  0  0
    8.5242  -14.6277   27.7335 C   0  0  0  0  0  0  0  0  0  0  0  0
   10.2044  -16.3337   28.0120 C   0  0  0  0  0  0  0  0  0  0  0  0
   11.3734  -17.1081   27.6085 C   0  0  2  0  0  0  0  0  0  0  0  0
   11.3420  -17.3454   26.1408 N   0  0  0  0  0  0  0  0  0  0  0  0
   11.7189  -18.3695   28.2228 C   0  0  0  0  0  0  0  0  0  0  0  0
   12.1786  -18.6184   29.5016 O   0  0  0  0  0  0  0  0  0  0  0  0
   11.6051  -19.4440   27.5131 O   0  0  0  0  0  0  0  0  0  0  0  0
  2  1  1  6
  2  3  1  0
  2 13  1  0
  3  4  1  0
  4  5  2  0
  5  6  1  0
  7  6  1  0
  8  7  2  0
  9  8  1  0
 10 11  1  0
 10  9  2  0
 11 12  2  0
 12  4  1  0
 12  7  1  0
 13 15  1  0
 13 14  2  0
 15 16  1  0
 16 17  1  6
 18 22  1  0
 18 17  1  0
 19 18  2  0
 20 16  1  0
 20 21  2  0
 24 23  1  1
 24 26  1  0
 25 24  1  0
 27 26  1  1
 27 28  1  0
 28 20  1  0
 29 27  1  0
 30 29  1  0
 31 29  2  0
M  END
$$$$
