WDL.pdb
     RDKit          3D

 31 32  0  0  1  0  0  0  0  0999 V2000
    7.0172  -17.7267   24.1488 N   0  0  0  0  0  0  0  0  0  0  0  0
    7.9257  -16.5572   24.1179 C   0  0  1  0  0  0  0  0  0  0  0  0
    7.8414  -15.8990   25.4650 C   0  0  0  0  0  0  0  0  0  0  0  0
    6.7450  -14.9565   25.6577 C   0  0  0  0  0  0  0  0  0  0  0  0
    5.5911  -15.2995   26.3873 C   0  0  0  0  0  0  0  0  0  0  0  0
    4.7973  -14.2286   26.4308 N   0  0  0  0  0  0  0  0  0  0  0  0
    5.3741  -13.2238   25.7725 C   0  0  0  0  0  0  0  0  0  0  0  0
    4.9414  -11.9545   25.5388 C   0  0  0  0  0  0  0  0  0  0  0  0
    5.7264  -11.0853   24.7993 C   0  0  0  0  0  0  0  0  0  0  0  0
    6.9357  -11.5060   24.3054 C   0  0  0  0  0  0  0  0  0  0  0  0
    7.3810  -12.8076   24.5450 C   0  0  0  0  0  0  0  0  0  0  0  0
    6.5905  -13.6474   25.2780 C   0  0  0  0  0  0  0  0  0  0  0  0
    9.2762  -17.0517   23.8427 C   0  0  0  0  0  0  0  0  0  0  0  0
    9.4905  -18.2826   24.0717 O   0  0  0  0  0  0  0  0  0  0  0  0
   10.3435  -16.2382   23.3430 N   0  0  0  0  0  0  0  0  0  0  0  0
   11.6648  -16.7690   23.3713 C   0  0  1  0  0  0  0  0  0  0  0  0
   12.5916  -15.8936   22.5856 C   0  0  0  0  0  0  0  0  0  0  0  0
   13.9410  -16.4657   22.4130 C   0  0  0  0  0  0  0  0  0  0  0  0
   14.9824  -15.7379   22.4577 O   0  0  0  0  0  0  0  0  0  0  0  0
   12.1789  -16.9568   24.7616 C   0  0  0  0  0  0  0  0  0  0  0  0
   13.3933  -17.0911   25.0371 O   0  0  0  0  0  0  0  0  0  0  0  0
   14.1708  -17.8133   22.1927 O   0  0  0  0  0  0  0  0  0  0  0  0
   11.9814  -14.0933   27.9084 C   0  0  0  0  0  0  0  0  0  0  0  0
   10.7829  -14.9513   27.8082 C   0  0  2  0  0  0  0  0  0  0  0  0
    9.7027  -14.3830   28.7666 C   0  0  0  0  0  0  0  0  0  0  0  0
   10.8839  -16.3887   28.1398 C   0  0  0  0  0  0  0  0  0  0  0  0
   11.6696  -17.2309   27.2440 C   0  0  2  0  0  0  0  0  0  0  0  0
   11.2643  -16.9872   25.8341 N   0  0  0  0  0  0  0  0  0  0  0  0
   11.7593  -18.6640   27.4054 C   0  0  0  0  0  0  0  0  0  0  0  0
   11.4528  -19.6630   26.5018 O   0  0  0  0  0  0  0  0  0  0  0  0
   12.1724  -19.1244   28.5405 O   0  0  0  0  0  0  0  0  0  0  0  0
  2  1  1  1
  2  3  1  0
  2 13  1  0
  3  4  1  0
  4  5  2  0
  5  6  1  0
  7  6  1  0
  8  7  2  0
  9  8  1  0
 10 11  1  0
 10  9  2  0
 11 12  2  0
 12  4  1  0
 12  7  1  0
 13 15  1  0
 13 14  2  0
 15 16  1  0
 16 17  1  6
 18 22  1  0
 18 17  1  0
 19 18  2  0
 20 16  1  0
 20 21  2  0
 24 23  1  1
 24 26  1  0
 25 24  1  0
 27 26  1  1
 27 28  1  0
 28 20  1  0
 29 27  1  0
 30 29  1  0
 31 29  2  0
M  END
$$$$
