WDL.pdb
     RDKit          3D

 31 32  0  0  1  0  0  0  0  0999 V2000
    5.8690  -18.7821   23.0469 N   0  0  0  0  0  0  0  0  0  0  0  0
    6.9331  -17.8483   22.6111 C   0  0  1  0  0  0  0  0  0  0  0  0
    6.3236  -16.4768   22.5661 C   0  0  0  0  0  0  0  0  0  0  0  0
    6.8417  -15.5711   21.5468 C   0  0  0  0  0  0  0  0  0  0  0  0
    6.9441  -15.9544   20.1963 C   0  0  0  0  0  0  0  0  0  0  0  0
    7.4023  -14.9099   19.5048 N   0  0  0  0  0  0  0  0  0  0  0  0
    7.5992  -13.8841   20.3323 C   0  0  0  0  0  0  0  0  0  0  0  0
    8.0658  -12.6285   20.0902 C   0  0  0  0  0  0  0  0  0  0  0  0
    8.2008  -11.7312   21.1366 C   0  0  0  0  0  0  0  0  0  0  0  0
    7.8644  -12.1104   22.4119 C   0  0  0  0  0  0  0  0  0  0  0  0
    7.3849  -13.3979   22.6614 C   0  0  0  0  0  0  0  0  0  0  0  0
    7.2589  -14.2660   21.6137 C   0  0  0  0  0  0  0  0  0  0  0  0
    8.0185  -17.9244   23.5910 C   0  0  0  0  0  0  0  0  0  0  0  0
    7.6960  -18.2518   24.7752 O   0  0  0  0  0  0  0  0  0  0  0  0
    9.3922  -17.6524   23.2914 N   0  0  0  0  0  0  0  0  0  0  0  0
   10.3410  -17.7325   24.3504 C   0  0  1  0  0  0  0  0  0  0  0  0
   11.6997  -18.0488   23.8057 C   0  0  0  0  0  0  0  0  0  0  0  0
   12.7185  -18.2709   24.8502 C   0  0  0  0  0  0  0  0  0  0  0  0
   12.4806  -18.9954   25.8673 O   0  0  0  0  0  0  0  0  0  0  0  0
   10.3873  -16.4878   25.1756 C   0  0  0  0  0  0  0  0  0  0  0  0
   10.9526  -15.4335   24.8048 O   0  0  0  0  0  0  0  0  0  0  0  0
   13.9866  -17.7171   24.8024 O   0  0  0  0  0  0  0  0  0  0  0  0
    8.5649  -12.7743   25.8227 C   0  0  0  0  0  0  0  0  0  0  0  0
    7.9532  -14.0349   26.2909 C   0  0  2  0  0  0  0  0  0  0  0  0
    6.4639  -13.7526   26.6237 C   0  0  0  0  0  0  0  0  0  0  0  0
    8.5001  -14.7123   27.4860 C   0  0  0  0  0  0  0  0  0  0  0  0
    9.8227  -15.3176   27.3685 C   0  0  2  0  0  0  0  0  0  0  0  0
    9.7675  -16.4794   26.4419 N   0  0  0  0  0  0  0  0  0  0  0  0
   10.5866  -15.7434   28.5186 C   0  0  0  0  0  0  0  0  0  0  0  0
   11.1383  -14.9796   29.5290 O   0  0  0  0  0  0  0  0  0  0  0  0
   10.8187  -17.0070   28.6618 O   0  0  0  0  0  0  0  0  0  0  0  0
  2  1  1  1
  2  3  1  0
  2 13  1  0
  3  4  1  0
  4  5  2  0
  5  6  1  0
  7  6  1  0
  8  7  2  0
  9  8  1  0
 10 11  1  0
 10  9  2  0
 11 12  2  0
 12  4  1  0
 12  7  1  0
 13 15  1  0
 13 14  2  0
 15 16  1  0
 16 17  1  6
 18 22  1  0
 18 17  1  0
 19 18  2  0
 20 16  1  0
 20 21  2  0
 24 23  1  1
 24 26  1  0
 25 24  1  0
 27 26  1  1
 27 28  1  0
 28 20  1  0
 29 27  1  0
 30 29  1  0
 31 29  2  0
M  END
$$$$
