WDL.pdb
     RDKit          3D

 31 32  0  0  1  0  0  0  0  0999 V2000
    6.4329  -18.5175   23.7101 N   0  0  0  0  0  0  0  0  0  0  0  0
    7.1934  -17.2668   23.9368 C   0  0  1  0  0  0  0  0  0  0  0  0
    6.9171  -16.8335   25.3477 C   0  0  0  0  0  0  0  0  0  0  0  0
    6.5588  -15.4322   25.5363 C   0  0  0  0  0  0  0  0  0  0  0  0
    5.5224  -15.0416   26.4050 C   0  0  0  0  0  0  0  0  0  0  0  0
    5.4630  -13.7091   26.4031 N   0  0  0  0  0  0  0  0  0  0  0  0
    6.3977  -13.2262   25.5854 C   0  0  0  0  0  0  0  0  0  0  0  0
    6.7058  -11.9426   25.2531 C   0  0  0  0  0  0  0  0  0  0  0  0
    7.7260  -11.6915   24.3506 C   0  0  0  0  0  0  0  0  0  0  0  0
    8.4216  -12.7360   23.7952 C   0  0  0  0  0  0  0  0  0  0  0  0
    8.1070  -14.0532   24.1357 C   0  0  0  0  0  0  0  0  0  0  0  0
    7.0975  -14.2770   25.0290 C   0  0  0  0  0  0  0  0  0  0  0  0
    8.6120  -17.5671   23.7327 C   0  0  0  0  0  0  0  0  0  0  0  0
    8.9679  -18.7759   23.8927 O   0  0  0  0  0  0  0  0  0  0  0  0
    9.5963  -16.5911   23.3732 N   0  0  0  0  0  0  0  0  0  0  0  0
   10.9684  -16.9700   23.4194 C   0  0  1  0  0  0  0  0  0  0  0  0
   11.7817  -16.0799   22.5310 C   0  0  0  0  0  0  0  0  0  0  0  0
   13.1984  -16.4807   22.4296 C   0  0  0  0  0  0  0  0  0  0  0  0
   14.1394  -15.6740   22.7123 O   0  0  0  0  0  0  0  0  0  0  0  0
   11.5196  -16.9642   24.8081 C   0  0  0  0  0  0  0  0  0  0  0  0
   12.6998  -17.2798   25.0845 O   0  0  0  0  0  0  0  0  0  0  0  0
   13.6026  -17.7421   22.0261 O   0  0  0  0  0  0  0  0  0  0  0  0
    9.9847  -13.5167   27.3839 C   0  0  0  0  0  0  0  0  0  0  0  0
    9.3451  -14.8390   27.5423 C   0  0  2  0  0  0  0  0  0  0  0  0
    8.1007  -14.6657   28.4532 C   0  0  0  0  0  0  0  0  0  0  0  0
   10.1124  -15.9551   28.1353 C   0  0  0  0  0  0  0  0  0  0  0  0
   11.1224  -16.5949   27.2986 C   0  0  2  0  0  0  0  0  0  0  0  0
   10.6829  -16.5861   25.8779 N   0  0  0  0  0  0  0  0  0  0  0  0
   11.6248  -17.9228   27.5665 C   0  0  0  0  0  0  0  0  0  0  0  0
   11.6256  -19.0354   26.7476 O   0  0  0  0  0  0  0  0  0  0  0  0
   12.1503  -18.1530   28.7251 O   0  0  0  0  0  0  0  0  0  0  0  0
  2  1  1  1
  2  3  1  0
  2 13  1  0
  3  4  1  0
  4  5  2  0
  5  6  1  0
  7  6  1  0
  8  7  2  0
  9  8  1  0
 10 11  1  0
 10  9  2  0
 11 12  2  0
 12  4  1  0
 12  7  1  0
 13 15  1  0
 13 14  2  0
 15 16  1  0
 16 17  1  6
 18 22  1  0
 18 17  1  0
 19 18  2  0
 20 16  1  0
 20 21  2  0
 24 23  1  1
 24 26  1  0
 25 24  1  0
 27 26  1  1
 27 28  1  0
 28 20  1  0
 29 27  1  0
 30 29  1  0
 31 29  2  0
M  END
$$$$
