WDL.pdb
     RDKit          3D

 31 32  0  0  1  0  0  0  0  0999 V2000
    7.9527  -17.8585   21.6062 N   0  0  0  0  0  0  0  0  0  0  0  0
    8.9345  -16.8432   22.0529 C   0  0  1  0  0  0  0  0  0  0  0  0
    8.1540  -15.6298   22.4691 C   0  0  0  0  0  0  0  0  0  0  0  0
    7.5803  -14.8287   21.3935 C   0  0  0  0  0  0  0  0  0  0  0  0
    6.1929  -14.7846   21.1600 C   0  0  0  0  0  0  0  0  0  0  0  0
    5.9710  -13.9397   20.1521 N   0  0  0  0  0  0  0  0  0  0  0  0
    7.1325  -13.4431   19.7279 C   0  0  0  0  0  0  0  0  0  0  0  0
    7.4061  -12.5649   18.7245 C   0  0  0  0  0  0  0  0  0  0  0  0
    8.7185  -12.2100   18.4598 C   0  0  0  0  0  0  0  0  0  0  0  0
    9.7370  -12.7441   19.2086 C   0  0  0  0  0  0  0  0  0  0  0  0
    9.4576  -13.6446   20.2386 C   0  0  0  0  0  0  0  0  0  0  0  0
    8.1554  -13.9794   20.4826 C   0  0  0  0  0  0  0  0  0  0  0  0
    9.6833  -17.4138   23.1745 C   0  0  0  0  0  0  0  0  0  0  0  0
    9.0029  -17.8163   24.1687 O   0  0  0  0  0  0  0  0  0  0  0  0
   11.1097  -17.5361   23.2091 N   0  0  0  0  0  0  0  0  0  0  0  0
   11.7177  -17.9888   24.4148 C   0  0  1  0  0  0  0  0  0  0  0  0
   13.1778  -18.2399   24.1960 C   0  0  0  0  0  0  0  0  0  0  0  0
   13.7563  -19.2206   25.1350 C   0  0  0  0  0  0  0  0  0  0  0  0
   13.0567  -19.7563   26.0513 O   0  0  0  0  0  0  0  0  0  0  0  0
   11.5167  -17.0398   25.5511 C   0  0  0  0  0  0  0  0  0  0  0  0
   12.0014  -15.8854   25.5813 O   0  0  0  0  0  0  0  0  0  0  0  0
   15.0802  -19.6236   25.0901 O   0  0  0  0  0  0  0  0  0  0  0  0
    9.8669  -13.4599   27.4898 C   0  0  0  0  0  0  0  0  0  0  0  0
    9.1793  -14.6639   26.9797 C   0  0  2  0  0  0  0  0  0  0  0  0
    7.6699  -14.3324   26.8381 C   0  0  0  0  0  0  0  0  0  0  0  0
    9.2333  -15.9203   27.7573 C   0  0  0  0  0  0  0  0  0  0  0  0
   10.5239  -16.5940   27.8560 C   0  0  2  0  0  0  0  0  0  0  0  0
   10.7433  -17.4466   26.6575 N   0  0  0  0  0  0  0  0  0  0  0  0
   10.8986  -17.3898   29.0023 C   0  0  0  0  0  0  0  0  0  0  0  0
   11.2997  -16.9744   30.2574 O   0  0  0  0  0  0  0  0  0  0  0  0
   10.8784  -18.6769   28.8831 O   0  0  0  0  0  0  0  0  0  0  0  0
  2  1  1  1
  2  3  1  0
  2 13  1  0
  3  4  1  0
  4  5  2  0
  5  6  1  0
  7  6  1  0
  8  7  2  0
  9  8  1  0
 10 11  1  0
 10  9  2  0
 11 12  2  0
 12  4  1  0
 12  7  1  0
 13 15  1  0
 13 14  2  0
 15 16  1  0
 16 17  1  6
 18 22  1  0
 18 17  1  0
 19 18  2  0
 20 16  1  0
 20 21  2  0
 24 23  1  1
 24 26  1  0
 25 24  1  0
 27 26  1  1
 27 28  1  0
 28 20  1  0
 29 27  1  0
 30 29  1  0
 31 29  2  0
M  END
$$$$
