WDL.pdb
     RDKit          3D

 31 32  0  0  1  0  0  0  0  0999 V2000
    6.4497  -18.5706   23.3231 N   0  0  0  0  0  0  0  0  0  0  0  0
    7.2012  -17.3552   23.7132 C   0  0  1  0  0  0  0  0  0  0  0  0
    6.8026  -17.0250   25.1227 C   0  0  0  0  0  0  0  0  0  0  0  0
    6.5587  -15.6166   25.4135 C   0  0  0  0  0  0  0  0  0  0  0  0
    5.6786  -15.2112   26.4345 C   0  0  0  0  0  0  0  0  0  0  0  0
    5.6994  -13.8788   26.4920 N   0  0  0  0  0  0  0  0  0  0  0  0
    6.5385  -13.4097   25.5692 C   0  0  0  0  0  0  0  0  0  0  0  0
    6.8737  -12.1306   25.2459 C   0  0  0  0  0  0  0  0  0  0  0  0
    7.7716  -11.8936   24.2183 C   0  0  0  0  0  0  0  0  0  0  0  0
    8.3193  -12.9473   23.5304 C   0  0  0  0  0  0  0  0  0  0  0  0
    7.9767  -14.2599   23.8615 C   0  0  0  0  0  0  0  0  0  0  0  0
    7.0898  -14.4700   24.8796 C   0  0  0  0  0  0  0  0  0  0  0  0
    8.6288  -17.6659   23.6151 C   0  0  0  0  0  0  0  0  0  0  0  0
    8.9632  -18.8768   23.8024 O   0  0  0  0  0  0  0  0  0  0  0  0
    9.6441  -16.6975   23.3284 N   0  0  0  0  0  0  0  0  0  0  0  0
   11.0063  -17.0873   23.4721 C   0  0  1  0  0  0  0  0  0  0  0  0
   11.8618  -16.3539   22.4856 C   0  0  0  0  0  0  0  0  0  0  0  0
   13.2841  -16.2842   22.8732 C   0  0  0  0  0  0  0  0  0  0  0  0
   13.7315  -16.9226   23.8774 O   0  0  0  0  0  0  0  0  0  0  0  0
   11.5192  -16.8821   24.8603 C   0  0  0  0  0  0  0  0  0  0  0  0
   12.7226  -17.0184   25.1796 O   0  0  0  0  0  0  0  0  0  0  0  0
   14.2214  -15.5319   22.1856 O   0  0  0  0  0  0  0  0  0  0  0  0
    9.9329  -13.5065   27.4017 C   0  0  0  0  0  0  0  0  0  0  0  0
    9.1931  -14.7768   27.5482 C   0  0  2  0  0  0  0  0  0  0  0  0
    7.9811  -14.5229   28.4836 C   0  0  0  0  0  0  0  0  0  0  0  0
    9.8789  -15.9610   28.1081 C   0  0  0  0  0  0  0  0  0  0  0  0
   10.9648  -16.5410   27.3247 C   0  0  2  0  0  0  0  0  0  0  0  0
   10.6165  -16.5152   25.8792 N   0  0  0  0  0  0  0  0  0  0  0  0
   11.5022  -17.8545   27.5960 C   0  0  0  0  0  0  0  0  0  0  0  0
   10.9538  -19.0931   27.3242 O   0  0  0  0  0  0  0  0  0  0  0  0
   12.6524  -17.9332   28.1807 O   0  0  0  0  0  0  0  0  0  0  0  0
  2  1  1  1
  2  3  1  0
  2 13  1  0
  3  4  1  0
  4  5  2  0
  5  6  1  0
  7  6  1  0
  8  7  2  0
  9  8  1  0
 10 11  1  0
 10  9  2  0
 11 12  2  0
 12  4  1  0
 12  7  1  0
 13 15  1  0
 13 14  2  0
 15 16  1  0
 16 17  1  6
 18 22  1  0
 18 17  1  0
 19 18  2  0
 20 16  1  0
 20 21  2  0
 24 23  1  1
 24 26  1  0
 25 24  1  0
 27 26  1  1
 27 28  1  0
 28 20  1  0
 29 27  1  0
 30 29  1  0
 31 29  2  0
M  END
$$$$
