WDL.pdb
     RDKit          3D

 31 32  0  0  1  0  0  0  0  0999 V2000
    6.7102  -17.6275   24.2451 N   0  0  0  0  0  0  0  0  0  0  0  0
    7.6473  -17.0760   23.2392 C   0  0  1  0  0  0  0  0  0  0  0  0
    7.2727  -15.6367   23.0318 C   0  0  0  0  0  0  0  0  0  0  0  0
    6.5509  -14.9918   24.1229 C   0  0  0  0  0  0  0  0  0  0  0  0
    5.7914  -15.7308   25.0494 C   0  0  0  0  0  0  0  0  0  0  0  0
    5.2938  -14.8792   25.9473 N   0  0  0  0  0  0  0  0  0  0  0  0
    5.6888  -13.6419   25.6493 C   0  0  0  0  0  0  0  0  0  0  0  0
    5.4233  -12.4560   26.2625 C   0  0  0  0  0  0  0  0  0  0  0  0
    5.9433  -11.2818   25.7438 C   0  0  0  0  0  0  0  0  0  0  0  0
    6.7231  -11.3176   24.6151 C   0  0  0  0  0  0  0  0  0  0  0  0
    6.9968  -12.5336   23.9855 C   0  0  0  0  0  0  0  0  0  0  0  0
    6.4742  -13.6795   24.5155 C   0  0  0  0  0  0  0  0  0  0  0  0
    9.0030  -17.2084   23.7764 C   0  0  0  0  0  0  0  0  0  0  0  0
    9.1261  -17.8596   24.8600 O   0  0  0  0  0  0  0  0  0  0  0  0
   10.1697  -16.6525   23.1595 N   0  0  0  0  0  0  0  0  0  0  0  0
   11.4460  -17.0772   23.6273 C   0  0  1  0  0  0  0  0  0  0  0  0
   12.5054  -16.7329   22.6264 C   0  0  0  0  0  0  0  0  0  0  0  0
   13.8063  -17.3749   22.8978 C   0  0  0  0  0  0  0  0  0  0  0  0
   14.9040  -16.7831   22.6509 O   0  0  0  0  0  0  0  0  0  0  0  0
   11.7872  -16.5053   24.9648 C   0  0  0  0  0  0  0  0  0  0  0  0
   12.6167  -15.5816   25.1302 O   0  0  0  0  0  0  0  0  0  0  0  0
   13.9275  -18.6469   23.4313 O   0  0  0  0  0  0  0  0  0  0  0  0
   12.5589  -13.7410   27.5346 C   0  0  0  0  0  0  0  0  0  0  0  0
   11.2263  -14.3785   27.5165 C   0  0  2  0  0  0  0  0  0  0  0  0
   10.2344  -13.4413   28.2554 C   0  0  0  0  0  0  0  0  0  0  0  0
   11.0444  -15.7085   28.1364 C   0  0  0  0  0  0  0  0  0  0  0  0
   11.6912  -16.8452   27.4891 C   0  0  2  0  0  0  0  0  0  0  0  0
   11.1523  -17.0190   26.1140 N   0  0  0  0  0  0  0  0  0  0  0  0
   11.7292  -18.1603   28.0864 C   0  0  0  0  0  0  0  0  0  0  0  0
   12.3228  -18.5638   29.2668 O   0  0  0  0  0  0  0  0  0  0  0  0
   11.1457  -19.1300   27.4618 O   0  0  0  0  0  0  0  0  0  0  0  0
  2  1  1  1
  2  3  1  0
  2 13  1  0
  3  4  1  0
  4  5  2  0
  5  6  1  0
  7  6  1  0
  8  7  2  0
  9  8  1  0
 10 11  1  0
 10  9  2  0
 11 12  2  0
 12  4  1  0
 12  7  1  0
 13 15  1  0
 13 14  2  0
 15 16  1  0
 16 17  1  6
 18 22  1  0
 18 17  1  0
 19 18  2  0
 20 16  1  0
 20 21  2  0
 24 23  1  1
 24 26  1  0
 25 24  1  0
 27 26  1  1
 27 28  1  0
 28 20  1  0
 29 27  1  0
 30 29  1  0
 31 29  2  0
M  END
$$$$
