WDL.pdb
     RDKit          3D

 31 32  0  0  1  0  0  0  0  0999 V2000
    6.9416  -17.2924   23.9984 N   0  0  0  0  0  0  0  0  0  0  0  0
    8.0483  -16.3215   23.8350 C   0  0  1  0  0  0  0  0  0  0  0  0
    8.2317  -15.6367   25.1587 C   0  0  0  0  0  0  0  0  0  0  0  0
    7.1943  -14.6872   25.5458 C   0  0  0  0  0  0  0  0  0  0  0  0
    5.9976  -15.1045   26.1583 C   0  0  0  0  0  0  0  0  0  0  0  0
    5.2751  -14.0179   26.4346 N   0  0  0  0  0  0  0  0  0  0  0  0
    5.9377  -12.9331   26.0347 C   0  0  0  0  0  0  0  0  0  0  0  0
    5.5973  -11.6164   26.0926 C   0  0  0  0  0  0  0  0  0  0  0  0
    6.4611  -10.6597   25.5858 C   0  0  0  0  0  0  0  0  0  0  0  0
    7.6552  -11.0417   25.0276 C   0  0  0  0  0  0  0  0  0  0  0  0
    8.0058  -12.3920   24.9681 C   0  0  0  0  0  0  0  0  0  0  0  0
    7.1387  -13.3184   25.4754 C   0  0  0  0  0  0  0  0  0  0  0  0
    9.2435  -17.0726   23.4460 C   0  0  0  0  0  0  0  0  0  0  0  0
    9.2496  -18.3141   23.7146 O   0  0  0  0  0  0  0  0  0  0  0  0
   10.3806  -16.4933   22.7962 N   0  0  0  0  0  0  0  0  0  0  0  0
   11.6675  -17.0308   23.0848 C   0  0  1  0  0  0  0  0  0  0  0  0
   12.6913  -16.4486   22.1598 C   0  0  0  0  0  0  0  0  0  0  0  0
   14.0017  -17.1240   22.2279 C   0  0  0  0  0  0  0  0  0  0  0  0
   14.0970  -18.3917   22.2285 O   0  0  0  0  0  0  0  0  0  0  0  0
   12.0717  -16.8211   24.5078 C   0  0  0  0  0  0  0  0  0  0  0  0
   13.0650  -16.1395   24.8508 O   0  0  0  0  0  0  0  0  0  0  0  0
   15.2043  -16.4409   22.2954 O   0  0  0  0  0  0  0  0  0  0  0  0
    9.6293  -14.3801   28.6731 C   0  0  0  0  0  0  0  0  0  0  0  0
   10.6463  -15.0948   27.8746 C   0  0  2  0  0  0  0  0  0  0  0  0
   10.6935  -14.4476   26.4649 C   0  0  0  0  0  0  0  0  0  0  0  0
   10.4988  -16.5463   27.6346 C   0  0  0  0  0  0  0  0  0  0  0  0
   11.6062  -17.2346   26.9795 C   0  0  2  0  0  0  0  0  0  0  0  0
   11.3074  -17.4134   25.5338 N   0  0  0  0  0  0  0  0  0  0  0  0
   12.1242  -18.4976   27.4528 C   0  0  0  0  0  0  0  0  0  0  0  0
   12.2051  -19.7083   26.7922 O   0  0  0  0  0  0  0  0  0  0  0  0
   12.5808  -18.5544   28.6609 O   0  0  0  0  0  0  0  0  0  0  0  0
  2  1  1  1
  2  3  1  0
  2 13  1  0
  3  4  1  0
  4  5  2  0
  5  6  1  0
  7  6  1  0
  8  7  2  0
  9  8  1  0
 10 11  1  0
 10  9  2  0
 11 12  2  0
 12  4  1  0
 12  7  1  0
 13 15  1  0
 13 14  2  0
 15 16  1  0
 16 17  1  6
 18 22  1  0
 18 17  1  0
 19 18  2  0
 20 16  1  0
 20 21  2  0
 24 23  1  1
 24 26  1  0
 25 24  1  0
 27 26  1  1
 27 28  1  0
 28 20  1  0
 29 27  1  0
 30 29  1  0
 31 29  2  0
M  END
$$$$
