WDL.pdb
     RDKit          3D

 31 32  0  0  1  0  0  0  0  0999 V2000
    7.0920  -17.8826   22.7991 N   0  0  0  0  0  0  0  0  0  0  0  0
    7.9292  -16.8321   23.4234 C   0  0  1  0  0  0  0  0  0  0  0  0
    7.5251  -16.7477   24.8671 C   0  0  0  0  0  0  0  0  0  0  0  0
    6.6997  -15.6052   25.2427 C   0  0  0  0  0  0  0  0  0  0  0  0
    5.5011  -15.7608   25.9643 C   0  0  0  0  0  0  0  0  0  0  0  0
    4.9999  -14.5470   26.1978 N   0  0  0  0  0  0  0  0  0  0  0  0
    5.8052  -13.6269   25.6683 C   0  0  0  0  0  0  0  0  0  0  0  0
    5.7015  -12.2699   25.6409 C   0  0  0  0  0  0  0  0  0  0  0  0
    6.6741  -11.5184   25.0023 C   0  0  0  0  0  0  0  0  0  0  0  0
    7.7371  -12.1433   24.4001 C   0  0  0  0  0  0  0  0  0  0  0  0
    7.8450  -13.5352   24.4280 C   0  0  0  0  0  0  0  0  0  0  0  0
    6.8745  -14.2562   25.0647 C   0  0  0  0  0  0  0  0  0  0  0  0
    9.3292  -17.2359   23.2779 C   0  0  0  0  0  0  0  0  0  0  0  0
    9.5783  -18.4773   23.3796 O   0  0  0  0  0  0  0  0  0  0  0  0
   10.4072  -16.3250   23.0352 N   0  0  0  0  0  0  0  0  0  0  0  0
   11.7397  -16.8193   23.1258 C   0  0  1  0  0  0  0  0  0  0  0  0
   12.6669  -15.9590   22.3238 C   0  0  0  0  0  0  0  0  0  0  0  0
   12.6991  -16.3022   20.8888 C   0  0  0  0  0  0  0  0  0  0  0  0
   12.4556  -17.4816   20.4818 O   0  0  0  0  0  0  0  0  0  0  0  0
   12.2181  -16.9261   24.5372 C   0  0  0  0  0  0  0  0  0  0  0  0
   13.3303  -17.4062   24.8555 O   0  0  0  0  0  0  0  0  0  0  0  0
   12.9919  -15.3828   19.8957 O   0  0  0  0  0  0  0  0  0  0  0  0
    9.7381  -14.1575   27.5427 C   0  0  0  0  0  0  0  0  0  0  0  0
   10.9598  -14.5510   28.2742 C   0  0  2  0  0  0  0  0  0  0  0  0
   11.6096  -13.2658   28.8524 C   0  0  0  0  0  0  0  0  0  0  0  0
   12.0469  -15.2511   27.5569 C   0  0  0  0  0  0  0  0  0  0  0  0
   11.7524  -16.5750   27.0184 C   0  0  2  0  0  0  0  0  0  0  0  0
   11.3883  -16.4675   25.5806 N   0  0  0  0  0  0  0  0  0  0  0  0
   10.7852  -17.4616   27.6236 C   0  0  0  0  0  0  0  0  0  0  0  0
   10.8124  -18.0613   28.8679 O   0  0  0  0  0  0  0  0  0  0  0  0
    9.7329  -17.7727   26.9402 O   0  0  0  0  0  0  0  0  0  0  0  0
  2  1  1  6
  2  3  1  0
  2 13  1  0
  3  4  1  0
  4  5  2  0
  5  6  1  0
  7  6  1  0
  8  7  2  0
  9  8  1  0
 10 11  1  0
 10  9  2  0
 11 12  2  0
 12  4  1  0
 12  7  1  0
 13 15  1  0
 13 14  2  0
 15 16  1  0
 16 17  1  6
 18 22  1  0
 18 17  1  0
 19 18  2  0
 20 16  1  0
 20 21  2  0
 24 23  1  6
 24 26  1  0
 25 24  1  0
 27 26  1  1
 27 28  1  0
 28 20  1  0
 29 27  1  0
 30 29  1  0
 31 29  2  0
M  END
$$$$
