WDL.pdb
     RDKit          3D

 31 32  0  0  1  0  0  0  0  0999 V2000
   10.2208  -15.7187   21.0644 N   0  0  0  0  0  0  0  0  0  0  0  0
    8.9676  -16.0253   21.7921 C   0  0  1  0  0  0  0  0  0  0  0  0
    7.9517  -16.4355   20.7652 C   0  0  0  0  0  0  0  0  0  0  0  0
    7.6750  -15.4707   19.7068 C   0  0  0  0  0  0  0  0  0  0  0  0
    7.0553  -15.8492   18.5009 C   0  0  0  0  0  0  0  0  0  0  0  0
    6.8940  -14.7530   17.7584 N   0  0  0  0  0  0  0  0  0  0  0  0
    7.3738  -13.6986   18.4169 C   0  0  0  0  0  0  0  0  0  0  0  0
    7.4416  -12.3871   18.0588 C   0  0  0  0  0  0  0  0  0  0  0  0
    8.0119  -11.4667   18.9225 C   0  0  0  0  0  0  0  0  0  0  0  0
    8.5061  -11.8794   20.1345 C   0  0  0  0  0  0  0  0  0  0  0  0
    8.4366  -13.2244   20.5033 C   0  0  0  0  0  0  0  0  0  0  0  0
    7.8687  -14.1145   19.6358 C   0  0  0  0  0  0  0  0  0  0  0  0
    9.2544  -17.1118   22.7310 C   0  0  0  0  0  0  0  0  0  0  0  0
    8.2607  -17.7881   23.1415 O   0  0  0  0  0  0  0  0  0  0  0  0
   10.5660  -17.4418   23.2017 N   0  0  0  0  0  0  0  0  0  0  0  0
   10.6817  -18.1485   24.4328 C   0  0  1  0  0  0  0  0  0  0  0  0
   11.9687  -18.9131   24.4721 C   0  0  0  0  0  0  0  0  0  0  0  0
   13.1635  -18.0703   24.2713 C   0  0  0  0  0  0  0  0  0  0  0  0
   13.0745  -16.8074   24.1568 O   0  0  0  0  0  0  0  0  0  0  0  0
   10.5719  -17.2515   25.6226 C   0  0  0  0  0  0  0  0  0  0  0  0
   10.0995  -16.0926   25.5731 O   0  0  0  0  0  0  0  0  0  0  0  0
   14.4478  -18.5818   24.1933 O   0  0  0  0  0  0  0  0  0  0  0  0
   10.8282  -13.7658   28.5366 C   0  0  0  0  0  0  0  0  0  0  0  0
   10.0270  -14.6229   27.6389 C   0  0  2  0  0  0  0  0  0  0  0  0
    8.6377  -13.9574   27.4514 C   0  0  0  0  0  0  0  0  0  0  0  0
    9.7426  -16.0213   28.0261 C   0  0  0  0  0  0  0  0  0  0  0  0
   10.8773  -16.9325   28.1329 C   0  0  2  0  0  0  0  0  0  0  0  0
   11.0180  -17.7159   26.8768 N   0  0  0  0  0  0  0  0  0  0  0  0
   11.0194  -17.8710   29.2223 C   0  0  0  0  0  0  0  0  0  0  0  0
   11.5340  -17.6651   30.4877 O   0  0  0  0  0  0  0  0  0  0  0  0
   10.6310  -19.0892   29.0314 O   0  0  0  0  0  0  0  0  0  0  0  0
  2  1  1  6
  2  3  1  0
  2 13  1  0
  3  4  1  0
  4  5  2  0
  5  6  1  0
  7  6  1  0
  8  7  2  0
  9  8  1  0
 10 11  1  0
 10  9  2  0
 11 12  2  0
 12  4  1  0
 12  7  1  0
 13 15  1  0
 13 14  2  0
 15 16  1  0
 16 17  1  6
 18 22  1  0
 18 17  1  0
 19 18  2  0
 20 16  1  0
 20 21  2  0
 24 23  1  1
 24 26  1  0
 25 24  1  0
 27 26  1  6
 27 28  1  0
 28 20  1  0
 29 27  1  0
 30 29  1  0
 31 29  2  0
M  END
$$$$
