WDL.pdb
     RDKit          3D

 31 32  0  0  1  0  0  0  0  0999 V2000
    6.6313  -17.4756   24.1644 N   0  0  0  0  0  0  0  0  0  0  0  0
    7.7811  -16.5520   24.0264 C   0  0  1  0  0  0  0  0  0  0  0  0
    7.9086  -15.8110   25.3263 C   0  0  0  0  0  0  0  0  0  0  0  0
    6.9744  -14.7112   25.5389 C   0  0  0  0  0  0  0  0  0  0  0  0
    5.7651  -14.8891   26.2370 C   0  0  0  0  0  0  0  0  0  0  0  0
    5.1534  -13.7061   26.3101 N   0  0  0  0  0  0  0  0  0  0  0  0
    5.8984  -12.7848   25.7003 C   0  0  0  0  0  0  0  0  0  0  0  0
    5.6808  -11.4547   25.5097 C   0  0  0  0  0  0  0  0  0  0  0  0
    6.6111  -10.6979   24.8167 C   0  0  0  0  0  0  0  0  0  0  0  0
    7.7471  -11.2905   24.3252 C   0  0  0  0  0  0  0  0  0  0  0  0
    7.9717  -12.6548   24.5206 C   0  0  0  0  0  0  0  0  0  0  0  0
    7.0409  -13.3815   25.2082 C   0  0  0  0  0  0  0  0  0  0  0  0
    8.9692  -17.3614   23.7482 C   0  0  0  0  0  0  0  0  0  0  0  0
    9.0387  -18.4902   24.3265 O   0  0  0  0  0  0  0  0  0  0  0  0
   10.0333  -16.9548   22.8804 N   0  0  0  0  0  0  0  0  0  0  0  0
   11.3703  -17.0588   23.3599 C   0  0  1  0  0  0  0  0  0  0  0  0
   12.2925  -16.2475   22.5031 C   0  0  0  0  0  0  0  0  0  0  0  0
   12.6573  -16.9094   21.2354 C   0  0  0  0  0  0  0  0  0  0  0  0
   12.2863  -18.0970   20.9749 O   0  0  0  0  0  0  0  0  0  0  0  0
   11.4999  -16.6549   24.7925 C   0  0  0  0  0  0  0  0  0  0  0  0
   11.6281  -15.4665   25.1666 O   0  0  0  0  0  0  0  0  0  0  0  0
   13.4174  -16.2985   20.2525 O   0  0  0  0  0  0  0  0  0  0  0  0
   10.7308  -14.2220   28.1148 C   0  0  0  0  0  0  0  0  0  0  0  0
   10.0910  -15.1961   27.2069 C   0  0  2  0  0  0  0  0  0  0  0  0
    8.5808  -14.8505   27.1173 C   0  0  0  0  0  0  0  0  0  0  0  0
   10.1446  -16.6384   27.5282 C   0  0  0  0  0  0  0  0  0  0  0  0
   11.3899  -17.3438   27.2441 C   0  0  2  0  0  0  0  0  0  0  0  0
   11.4789  -17.6495   25.7915 N   0  0  0  0  0  0  0  0  0  0  0  0
   11.7773  -18.5475   27.9433 C   0  0  0  0  0  0  0  0  0  0  0  0
   12.0305  -19.8068   27.4349 O   0  0  0  0  0  0  0  0  0  0  0  0
   11.9114  -18.4893   29.2277 O   0  0  0  0  0  0  0  0  0  0  0  0
  2  1  1  1
  2  3  1  0
  2 13  1  0
  3  4  1  0
  4  5  2  0
  5  6  1  0
  7  6  1  0
  8  7  2  0
  9  8  1  0
 10 11  1  0
 10  9  2  0
 11 12  2  0
 12  4  1  0
 12  7  1  0
 13 15  1  0
 13 14  2  0
 15 16  1  0
 16 17  1  6
 18 22  1  0
 18 17  1  0
 19 18  2  0
 20 16  1  0
 20 21  2  0
 24 23  1  1
 24 26  1  0
 25 24  1  0
 27 26  1  1
 27 28  1  0
 28 20  1  0
 29 27  1  0
 30 29  1  0
 31 29  2  0
M  END
$$$$
