ARC.pdb
     RDKit          3D

 23 22  0  0  1  0  0  0  0  0999 V2000
   10.3905  -21.5915   18.8460 C   0  0  0  0  0  0  0  0  0  0  0  0
   10.0893  -21.0762   20.2469 C   0  0  2  0  0  0  0  0  0  0  0  0
    8.6942  -21.3764   20.5061 N   0  0  0  0  0  0  0  0  0  0  0  0
   10.3602  -19.6182   20.3507 C   0  0  0  0  0  0  0  0  0  0  0  0
   11.5211  -19.1452   20.2594 O   0  0  0  0  0  0  0  0  0  0  0  0
    8.9366  -12.8432   18.1979 N   0  0  0  0  0  0  0  0  0  0  0  0
    8.2070  -12.3164   19.2810 C   0  0  0  0  0  0  0  0  0  0  0  0
    8.5665  -11.1620   19.7376 N   0  0  0  0  0  0  0  0  0  0  0  0
    7.1222  -13.0394   19.8365 N   0  0  0  0  0  0  0  0  0  0  0  0
    7.1518  -14.4677   19.7574 C   0  0  0  0  0  0  0  0  0  0  0  0
    8.4133  -15.0596   20.3516 C   0  0  0  0  0  0  0  0  0  0  0  0
    8.2769  -16.5532   20.2958 C   0  0  0  0  0  0  0  0  0  0  0  0
    9.5122  -17.2781   20.7552 C   0  0  2  0  0  0  0  0  0  0  0  0
    9.3104  -18.6792   20.5600 N   0  0  0  0  0  0  0  0  0  0  0  0
    9.9604  -16.9124   22.0930 C   0  0  0  0  0  0  0  0  0  0  0  0
    9.0979  -16.7159   22.9804 O   0  0  0  0  0  0  0  0  0  0  0  0
    8.1367  -10.7064   20.5506 N   0  0  0  0  0  0  0  0  0  0  0  0
   11.3324  -16.7754   22.4098 C   0  0  1  0  0  0  0  0  0  0  0  0
   11.8271  -16.6767   23.7659 C   0  0  0  0  0  0  0  0  0  0  0  0
   11.3624  -17.8281   24.6313 S   0  0  0  0  0  0  0  0  0  0  0  0
   11.9660  -17.4794   26.3286 C   0  0  0  0  0  0  0  0  0  0  0  0
   13.3113  -16.5511   23.7961 O   0  0  0  0  0  0  0  0  0  0  0  0
   14.0254  -16.7937   22.7914 O   0  0  0  0  0  0  0  0  0  0  0  0
  2  1  1  6
  2  3  1  0
  4 14  1  0
  4  2  1  0
  5  4  2  0
  6  7  1  0
  7  9  1  0
  7  8  2  0
  9 10  1  0
 10 11  1  0
 11 12  1  0
 13 12  1  1
 13 15  1  0
 13 14  1  0
 15 17  1  0
 16 15  2  0
 17 18  1  0
 18 21  1  0
 19 20  1  0
 18 19  1  6
 21 22  2  0
 21 23  1  0
M  END
$$$$
