ARC.pdb
     RDKit          3D

 23 22  0  0  1  0  0  0  0  0999 V2000
    5.8784  -20.3544   23.8077 C   0  0  0  0  0  0  0  0  0  0  0  0
    5.5042  -19.1560   22.9459 C   0  0  2  0  0  0  0  0  0  0  0  0
    4.9148  -19.6883   21.7323 N   0  0  0  0  0  0  0  0  0  0  0  0
    6.6951  -18.3172   22.6495 C   0  0  0  0  0  0  0  0  0  0  0  0
    7.8622  -18.6887   22.9317 O   0  0  0  0  0  0  0  0  0  0  0  0
    6.4955  -13.9683   16.2766 N   0  0  0  0  0  0  0  0  0  0  0  0
    7.8296  -13.6086   16.5478 C   0  0  0  0  0  0  0  0  0  0  0  0
    8.6834  -13.7120   15.5831 N   0  0  0  0  0  0  0  0  0  0  0  0
    8.2034  -13.1525   17.8364 N   0  0  0  0  0  0  0  0  0  0  0  0
    7.4212  -13.5782   18.9563 C   0  0  0  0  0  0  0  0  0  0  0  0
    8.1072  -14.6538   19.7730 C   0  0  0  0  0  0  0  0  0  0  0  0
    7.1665  -15.0491   20.8737 C   0  0  0  0  0  0  0  0  0  0  0  0
    7.6757  -16.1947   21.7048 C   0  0  2  0  0  0  0  0  0  0  0  0
    6.5715  -17.0425   22.0268 N   0  0  0  0  0  0  0  0  0  0  0  0
    8.4840  -15.7935   22.8494 C   0  0  0  0  0  0  0  0  0  0  0  0
    7.9536  -15.0879   23.7388 O   0  0  0  0  0  0  0  0  0  0  0  0
    9.6659  -13.4232   15.6519 N   0  0  0  0  0  0  0  0  0  0  0  0
    9.8393  -16.1781   22.9786 C   0  0  2  0  0  0  0  0  0  0  0  0
   10.6503  -15.8501   24.1310 C   0  0  0  0  0  0  0  0  0  0  0  0
   10.0081  -16.2907   25.4287 S   0  0  0  0  0  0  0  0  0  0  0  0
   11.2083  -17.4102   26.2489 C   0  0  0  0  0  0  0  0  0  0  0  0
   12.0278  -16.4028   24.0023 O   0  0  0  0  0  0  0  0  0  0  0  0
   12.2875  -17.3937   23.2750 O   0  0  0  0  0  0  0  0  0  0  0  0
  2  1  1  1
  2  3  1  0
  4 14  1  0
  4  2  1  0
  5  4  2  0
  6  7  1  0
  7  9  1  0
  7  8  2  0
  9 10  1  0
 10 11  1  0
 11 12  1  0
 13 12  1  1
 13 15  1  0
 13 14  1  0
 15 17  1  0
 16 15  2  0
 17 18  1  0
 18 21  1  0
 19 20  1  0
 18 19  1  6
 21 22  2  0
 21 23  1  0
M  END
$$$$
