ARC.pdb
     RDKit          3D

 23 22  0  0  1  0  0  0  0  0999 V2000
    7.0983  -12.7331   19.0157 C   0  0  0  0  0  0  0  0  0  0  0  0
    8.3360  -13.1866   19.7781 C   0  0  2  0  0  0  0  0  0  0  0  0
    8.9536  -14.2285   18.9801 N   0  0  0  0  0  0  0  0  0  0  0  0
    7.9785  -13.6801   21.1339 C   0  0  0  0  0  0  0  0  0  0  0  0
    7.4104  -12.9489   21.9839 O   0  0  0  0  0  0  0  0  0  0  0  0
   11.7605  -20.5370   19.8894 N   0  0  0  0  0  0  0  0  0  0  0  0
   11.4114  -19.2467   20.3321 C   0  0  0  0  0  0  0  0  0  0  0  0
   11.2477  -18.3317   19.4340 N   0  0  0  0  0  0  0  0  0  0  0  0
   11.2499  -18.9801   21.7144 N   0  0  0  0  0  0  0  0  0  0  0  0
    9.9291  -18.7281   22.2035 C   0  0  0  0  0  0  0  0  0  0  0  0
    9.4411  -17.3321   21.8750 C   0  0  0  0  0  0  0  0  0  0  0  0
    8.3522  -16.9967   22.8520 C   0  0  0  0  0  0  0  0  0  0  0  0
    7.9681  -15.5425   22.8341 C   0  0  2  0  0  0  0  0  0  0  0  0
    8.2639  -15.0150   21.5394 N   0  0  0  0  0  0  0  0  0  0  0  0
    8.5089  -14.7649   23.9419 C   0  0  0  0  0  0  0  0  0  0  0  0
    9.7368  -14.5158   23.9552 O   0  0  0  0  0  0  0  0  0  0  0  0
   11.0274  -17.3519   19.6456 N   0  0  0  0  0  0  0  0  0  0  0  0
    7.6883  -14.2896   24.9918 C   0  0  1  0  0  0  0  0  0  0  0  0
    8.1940  -13.5179   26.1063 C   0  0  0  0  0  0  0  0  0  0  0  0
    7.2838  -12.3630   26.4645 S   0  0  0  0  0  0  0  0  0  0  0  0
    5.6148  -13.0786   26.7275 C   0  0  0  0  0  0  0  0  0  0  0  0
    8.4537  -14.3809   27.2926 O   0  0  0  0  0  0  0  0  0  0  0  0
    8.1073  -15.5878   27.3326 O   0  0  0  0  0  0  0  0  0  0  0  0
  2  1  1  6
  2  3  1  0
  4 14  1  0
  4  2  1  0
  5  4  2  0
  6  7  1  0
  7  9  1  0
  7  8  2  0
  9 10  1  0
 10 11  1  0
 11 12  1  0
 13 12  1  6
 13 15  1  0
 13 14  1  0
 15 17  1  0
 16 15  2  0
 17 18  1  0
 18 21  1  0
 19 20  1  0
 18 19  1  6
 21 22  2  0
 21 23  1  0
M  END
$$$$
