ARC.pdb
     RDKit          3D

 23 22  0  0  1  0  0  0  0  0999 V2000
    8.0948  -12.3623   20.0874 C   0  0  0  0  0  0  0  0  0  0  0  0
    8.2796  -13.5789   19.1903 C   0  0  2  0  0  0  0  0  0  0  0  0
    7.0103  -13.7961   18.5229 N   0  0  0  0  0  0  0  0  0  0  0  0
    8.6890  -14.7695   19.9807 C   0  0  0  0  0  0  0  0  0  0  0  0
    7.8673  -15.4394   20.6557 O   0  0  0  0  0  0  0  0  0  0  0  0
    9.0122  -20.3614   18.6527 N   0  0  0  0  0  0  0  0  0  0  0  0
    9.8128  -20.1733   17.5097 C   0  0  0  0  0  0  0  0  0  0  0  0
    9.2354  -20.2562   16.3564 N   0  0  0  0  0  0  0  0  0  0  0  0
   11.1981  -19.9039   17.6388 N   0  0  0  0  0  0  0  0  0  0  0  0
   11.6335  -19.1296   18.7604 C   0  0  0  0  0  0  0  0  0  0  0  0
   11.0355  -17.7380   18.7771 C   0  0  0  0  0  0  0  0  0  0  0  0
   11.5705  -17.0348   19.9903 C   0  0  0  0  0  0  0  0  0  0  0  0
   10.5059  -16.3245   20.7805 C   0  0  2  0  0  0  0  0  0  0  0  0
   10.0419  -15.2126   20.0122 N   0  0  0  0  0  0  0  0  0  0  0  0
   10.8911  -15.9963   22.1475 C   0  0  0  0  0  0  0  0  0  0  0  0
   11.7648  -15.1165   22.3283 O   0  0  0  0  0  0  0  0  0  0  0  0
    9.7180  -20.1192   15.4610 N   0  0  0  0  0  0  0  0  0  0  0  0
   10.3076  -16.6412   23.2633 C   0  0  2  0  0  0  0  0  0  0  0  0
   10.6785  -16.3497   24.6311 C   0  0  0  0  0  0  0  0  0  0  0  0
    9.5711  -15.6499   25.3891 S   0  0  0  0  0  0  0  0  0  0  0  0
    8.2335  -16.8857   25.6137 C   0  0  0  0  0  0  0  0  0  0  0  0
   11.1231  -17.5776   25.3480 O   0  0  0  0  0  0  0  0  0  0  0  0
   10.9030  -18.7313   24.9021 O   0  0  0  0  0  0  0  0  0  0  0  0
  2  1  1  1
  2  3  1  0
  4 14  1  0
  4  2  1  0
  5  4  2  0
  6  7  1  0
  7  9  1  0
  7  8  2  0
  9 10  1  0
 10 11  1  0
 11 12  1  0
 13 12  1  6
 13 15  1  0
 13 14  1  0
 15 17  1  0
 16 15  2  0
 17 18  1  0
 18 21  1  0
 19 20  1  0
 18 19  1  6
 21 22  2  0
 21 23  1  0
M  END
$$$$
