ARC.pdb
     RDKit          3D

 23 22  0  0  1  0  0  0  0  0999 V2000
    7.5766  -13.1655   19.0970 C   0  0  0  0  0  0  0  0  0  0  0  0
    8.4628  -13.9428   20.0610 C   0  0  2  0  0  0  0  0  0  0  0  0
    8.5733  -15.2870   19.5277 N   0  0  0  0  0  0  0  0  0  0  0  0
    7.8874  -13.9472   21.4317 C   0  0  0  0  0  0  0  0  0  0  0  0
    7.7183  -12.8898   22.0898 O   0  0  0  0  0  0  0  0  0  0  0  0
    7.2491  -20.0042   26.8350 N   0  0  0  0  0  0  0  0  0  0  0  0
    8.2320  -20.2187   25.8497 C   0  0  0  0  0  0  0  0  0  0  0  0
    9.3827  -20.6586   26.2406 N   0  0  0  0  0  0  0  0  0  0  0  0
    7.9517  -19.9566   24.4856 N   0  0  0  0  0  0  0  0  0  0  0  0
    6.9782  -18.9544   24.1770 C   0  0  0  0  0  0  0  0  0  0  0  0
    7.5874  -17.5761   24.0231 C   0  0  0  0  0  0  0  0  0  0  0  0
    6.4823  -16.6389   23.6319 C   0  0  0  0  0  0  0  0  0  0  0  0
    6.9565  -15.2318   23.3919 C   0  0  2  0  0  0  0  0  0  0  0  0
    7.4966  -15.1581   22.0710 N   0  0  0  0  0  0  0  0  0  0  0  0
    7.8313  -14.7071   24.4331 C   0  0  0  0  0  0  0  0  0  0  0  0
    9.0708  -14.8117   24.2822 O   0  0  0  0  0  0  0  0  0  0  0  0
   10.1487  -20.9081   25.6047 N   0  0  0  0  0  0  0  0  0  0  0  0
    7.3190  -14.0889   25.5979 C   0  0  2  0  0  0  0  0  0  0  0  0
    8.1574  -13.4651   26.5986 C   0  0  0  0  0  0  0  0  0  0  0  0
    7.3708  -12.5620   27.5240 S   0  0  0  0  0  0  0  0  0  0  0  0
    5.9529  -11.9259   26.5485 C   0  0  0  0  0  0  0  0  0  0  0  0
    8.9294  -14.4787   27.3707 O   0  0  0  0  0  0  0  0  0  0  0  0
    8.7463  -15.7133   27.2271 O   0  0  0  0  0  0  0  0  0  0  0  0
  2  1  1  6
  2  3  1  0
  4 14  1  0
  4  2  1  0
  5  4  2  0
  6  7  1  0
  7  9  1  0
  7  8  2  0
  9 10  1  0
 10 11  1  0
 11 12  1  0
 13 12  1  1
 13 15  1  0
 13 14  1  0
 15 17  1  0
 16 15  2  0
 17 18  1  0
 18 21  1  0
 19 20  1  0
 18 19  1  6
 21 22  2  0
 21 23  1  0
M  END
$$$$
