ARC.pdb
     RDKit          3D

 23 22  0  0  1  0  0  0  0  0999 V2000
    8.2383  -12.1975   19.5166 C   0  0  0  0  0  0  0  0  0  0  0  0
    8.3300  -13.7173   19.5465 C   0  0  2  0  0  0  0  0  0  0  0  0
    7.6665  -14.1945   18.3483 N   0  0  0  0  0  0  0  0  0  0  0  0
    7.6976  -14.2676   20.7741 C   0  0  0  0  0  0  0  0  0  0  0  0
    6.4501  -14.3267   20.9152 O   0  0  0  0  0  0  0  0  0  0  0  0
    9.7596  -21.4457   21.7003 N   0  0  0  0  0  0  0  0  0  0  0  0
   10.7868  -20.4866   21.7882 C   0  0  0  0  0  0  0  0  0  0  0  0
   11.8294  -20.6588   21.0439 N   0  0  0  0  0  0  0  0  0  0  0  0
   10.6644  -19.3805   22.6656 N   0  0  0  0  0  0  0  0  0  0  0  0
    9.3742  -18.7820   22.8213 C   0  0  0  0  0  0  0  0  0  0  0  0
    9.4365  -17.2702   22.8944 C   0  0  0  0  0  0  0  0  0  0  0  0
    8.0292  -16.7705   23.0440 C   0  0  0  0  0  0  0  0  0  0  0  0
    7.9341  -15.2697   23.0760 C   0  0  2  0  0  0  0  0  0  0  0  0
    8.4795  -14.7583   21.8583 N   0  0  0  0  0  0  0  0  0  0  0  0
    8.4749  -14.6594   24.2841 C   0  0  0  0  0  0  0  0  0  0  0  0
    9.7180  -14.5439   24.3915 O   0  0  0  0  0  0  0  0  0  0  0  0
   12.6499  -20.0423   21.0529 N   0  0  0  0  0  0  0  0  0  0  0  0
    7.6379  -14.1990   25.3277 C   0  0  1  0  0  0  0  0  0  0  0  0
    8.1442  -13.6390   26.5619 C   0  0  0  0  0  0  0  0  0  0  0  0
    7.2419  -12.5563   27.1134 S   0  0  0  0  0  0  0  0  0  0  0  0
    5.7997  -12.4559   25.9834 C   0  0  0  0  0  0  0  0  0  0  0  0
    8.3905  -14.6987   27.5797 O   0  0  0  0  0  0  0  0  0  0  0  0
    8.9060  -14.4479   28.6976 O   0  0  0  0  0  0  0  0  0  0  0  0
  2  1  1  1
  2  3  1  0
  4 14  1  0
  4  2  1  0
  5  4  2  0
  6  7  1  0
  7  9  1  0
  7  8  2  0
  9 10  1  0
 10 11  1  0
 11 12  1  0
 13 12  1  1
 13 15  1  0
 13 14  1  0
 15 17  1  0
 16 15  2  0
 17 18  1  0
 18 21  1  0
 19 20  1  0
 18 19  1  6
 21 22  2  0
 21 23  1  0
M  END
$$$$
