ARC.pdb
     RDKit          3D

 23 22  0  0  1  0  0  0  0  0999 V2000
    8.5620  -12.8271   19.3934 C   0  0  0  0  0  0  0  0  0  0  0  0
    8.2604  -14.3067   19.5906 C   0  0  2  0  0  0  0  0  0  0  0  0
    7.3619  -14.6911   18.5189 N   0  0  0  0  0  0  0  0  0  0  0  0
    7.6538  -14.5560   20.9246 C   0  0  0  0  0  0  0  0  0  0  0  0
    6.4683  -14.2344   21.1912 O   0  0  0  0  0  0  0  0  0  0  0  0
    8.7472  -21.2019   26.2802 N   0  0  0  0  0  0  0  0  0  0  0  0
    7.6842  -20.4813   26.8578 C   0  0  0  0  0  0  0  0  0  0  0  0
    6.9162  -21.1110   27.6848 N   0  0  0  0  0  0  0  0  0  0  0  0
    7.4799  -19.1172   26.5324 N   0  0  0  0  0  0  0  0  0  0  0  0
    7.9359  -18.6515   25.2587 C   0  0  0  0  0  0  0  0  0  0  0  0
    7.6461  -17.1814   25.0363 C   0  0  0  0  0  0  0  0  0  0  0  0
    8.0885  -16.8433   23.6424 C   0  0  0  0  0  0  0  0  0  0  0  0
    7.8843  -15.3951   23.2914 C   0  0  2  0  0  0  0  0  0  0  0  0
    8.3910  -15.1758   21.9734 N   0  0  0  0  0  0  0  0  0  0  0  0
    8.3792  -14.4589   24.2930 C   0  0  0  0  0  0  0  0  0  0  0  0
    9.6112  -14.2373   24.3481 O   0  0  0  0  0  0  0  0  0  0  0  0
    6.1587  -20.6676   28.2168 N   0  0  0  0  0  0  0  0  0  0  0  0
    7.5101  -13.8013   25.1950 C   0  0  2  0  0  0  0  0  0  0  0  0
    7.9715  -12.8855   26.2156 C   0  0  0  0  0  0  0  0  0  0  0  0
    6.9904  -11.7597   26.4624 S   0  0  0  0  0  0  0  0  0  0  0  0
    5.4188  -12.5461   26.9899 C   0  0  0  0  0  0  0  0  0  0  0  0
    8.2941  -13.5998   27.4825 O   0  0  0  0  0  0  0  0  0  0  0  0
    7.9911  -14.8047   27.6689 O   0  0  0  0  0  0  0  0  0  0  0  0
  2  1  1  6
  2  3  1  0
  4 14  1  0
  4  2  1  0
  5  4  2  0
  6  7  1  0
  7  9  1  0
  7  8  2  0
  9 10  1  0
 10 11  1  0
 11 12  1  0
 13 12  1  1
 13 15  1  0
 13 14  1  0
 15 17  1  0
 16 15  2  0
 17 18  1  0
 18 21  1  0
 19 20  1  0
 18 19  1  6
 21 22  2  0
 21 23  1  0
M  END
$$$$
