ARC.pdb
     RDKit          3D

 23 22  0  0  1  0  0  0  0  0999 V2000
    6.0412  -21.4147   24.5876 C   0  0  0  0  0  0  0  0  0  0  0  0
    5.7017  -20.7578   23.2564 C   0  0  2  0  0  0  0  0  0  0  0  0
    5.8227  -21.7896   22.2442 N   0  0  0  0  0  0  0  0  0  0  0  0
    6.6087  -19.6136   22.9775 C   0  0  0  0  0  0  0  0  0  0  0  0
    7.8596  -19.7217   23.0354 O   0  0  0  0  0  0  0  0  0  0  0  0
    8.0194  -12.1412   17.4849 N   0  0  0  0  0  0  0  0  0  0  0  0
    7.6457  -13.4058   17.9785 C   0  0  0  0  0  0  0  0  0  0  0  0
    7.3512  -14.3206   17.1143 N   0  0  0  0  0  0  0  0  0  0  0  0
    7.5999  -13.6480   19.3741 N   0  0  0  0  0  0  0  0  0  0  0  0
    6.8302  -14.7600   19.8412 C   0  0  0  0  0  0  0  0  0  0  0  0
    6.8684  -14.9048   21.3486 C   0  0  0  0  0  0  0  0  0  0  0  0
    6.0911  -16.1397   21.7000 C   0  0  0  0  0  0  0  0  0  0  0  0
    6.9153  -17.1743   22.4160 C   0  0  2  0  0  0  0  0  0  0  0  0
    6.1015  -18.3295   22.6286 N   0  0  0  0  0  0  0  0  0  0  0  0
    7.5911  -16.6826   23.6102 C   0  0  0  0  0  0  0  0  0  0  0  0
    6.9022  -16.1495   24.5110 O   0  0  0  0  0  0  0  0  0  0  0  0
    7.1118  -15.2878   17.3603 N   0  0  0  0  0  0  0  0  0  0  0  0
    8.9920  -16.7920   23.7743 C   0  0  1  0  0  0  0  0  0  0  0  0
    9.7033  -16.2385   24.9062 C   0  0  0  0  0  0  0  0  0  0  0  0
    9.2012  -16.7881   26.2239 S   0  0  0  0  0  0  0  0  0  0  0  0
    7.9732  -15.5806   26.8568 C   0  0  0  0  0  0  0  0  0  0  0  0
   11.1743  -16.4327   24.7724 O   0  0  0  0  0  0  0  0  0  0  0  0
   11.6781  -17.1325   23.8588 O   0  0  0  0  0  0  0  0  0  0  0  0
  2  1  1  1
  2  3  1  0
  4 14  1  0
  4  2  1  0
  5  4  2  0
  6  7  1  0
  7  9  1  0
  7  8  2  0
  9 10  1  0
 10 11  1  0
 11 12  1  0
 13 12  1  1
 13 15  1  0
 13 14  1  0
 15 17  1  0
 16 15  2  0
 17 18  1  0
 18 21  1  0
 19 20  1  0
 18 19  1  6
 21 22  2  0
 21 23  1  0
M  END
$$$$
