ARC.pdb
     RDKit          3D

 23 22  0  0  1  0  0  0  0  0999 V2000
    8.5925  -15.6132   14.5894 C   0  0  0  0  0  0  0  0  0  0  0  0
    7.8494  -14.8922   15.7060 C   0  0  2  0  0  0  0  0  0  0  0  0
    7.5494  -13.5624   15.2106 N   0  0  0  0  0  0  0  0  0  0  0  0
    8.6677  -14.8388   16.9459 C   0  0  0  0  0  0  0  0  0  0  0  0
    9.4930  -13.9162   17.1637 O   0  0  0  0  0  0  0  0  0  0  0  0
   12.6759  -19.6224   18.3783 N   0  0  0  0  0  0  0  0  0  0  0  0
   12.7691  -19.5892   19.7830 C   0  0  0  0  0  0  0  0  0  0  0  0
   13.9507  -19.5104   20.3009 N   0  0  0  0  0  0  0  0  0  0  0  0
   11.6002  -19.6412   20.5825 N   0  0  0  0  0  0  0  0  0  0  0  0
   10.8181  -18.4502   20.7129 C   0  0  0  0  0  0  0  0  0  0  0  0
    9.7469  -18.3353   19.6480 C   0  0  0  0  0  0  0  0  0  0  0  0
    8.9604  -17.0898   19.9362 C   0  0  0  0  0  0  0  0  0  0  0  0
    9.3949  -15.9108   19.1095 C   0  0  2  0  0  0  0  0  0  0  0  0
    8.5559  -15.8372   17.9551 N   0  0  0  0  0  0  0  0  0  0  0  0
   10.8234  -15.8724   18.8223 C   0  0  0  0  0  0  0  0  0  0  0  0
   11.2372  -16.4139   17.7709 O   0  0  0  0  0  0  0  0  0  0  0  0
   14.1333  -19.4510   21.3091 N   0  0  0  0  0  0  0  0  0  0  0  0
   11.7440  -15.2444   19.6939 C   0  0  1  0  0  0  0  0  0  0  0  0
   13.1589  -15.1394   19.4107 C   0  0  0  0  0  0  0  0  0  0  0  0
   13.5569  -13.7423   18.9858 S   0  0  0  0  0  0  0  0  0  0  0  0
   14.9186  -13.9364   17.7714 C   0  0  0  0  0  0  0  0  0  0  0  0
   13.9807  -15.6010   20.5645 O   0  0  0  0  0  0  0  0  0  0  0  0
   13.4895  -15.7880   21.7055 O   0  0  0  0  0  0  0  0  0  0  0  0
  2  1  1  6
  2  3  1  0
  4 14  1  0
  4  2  1  0
  5  4  2  0
  6  7  1  0
  7  9  1  0
  7  8  2  0
  9 10  1  0
 10 11  1  0
 11 12  1  0
 13 12  1  6
 13 15  1  0
 13 14  1  0
 15 17  1  0
 16 15  2  0
 17 18  1  0
 18 21  1  0
 19 20  1  0
 18 19  1  1
 21 22  2  0
 21 23  1  0
M  END
$$$$
