ARC.pdb
     RDKit          3D

 23 22  0  0  1  0  0  0  0  0999 V2000
   14.1498  -17.6091   18.8149 C   0  0  0  0  0  0  0  0  0  0  0  0
   13.0363  -18.2298   19.6479 C   0  0  2  0  0  0  0  0  0  0  0  0
   12.1417  -18.8888   18.7156 N   0  0  0  0  0  0  0  0  0  0  0  0
   12.3252  -17.1964   20.4457 C   0  0  0  0  0  0  0  0  0  0  0  0
   12.9169  -16.4807   21.2927 O   0  0  0  0  0  0  0  0  0  0  0  0
    7.8942  -15.1208   17.6049 N   0  0  0  0  0  0  0  0  0  0  0  0
    7.4719  -13.7920   17.8018 C   0  0  0  0  0  0  0  0  0  0  0  0
    7.3453  -13.0447   16.7549 N   0  0  0  0  0  0  0  0  0  0  0  0
    7.2004  -13.3098   19.1064 N   0  0  0  0  0  0  0  0  0  0  0  0
    6.9564  -14.2662   20.1423 C   0  0  0  0  0  0  0  0  0  0  0  0
    8.1832  -14.5363   20.9889 C   0  0  0  0  0  0  0  0  0  0  0  0
    8.9663  -15.6215   20.3095 C   0  0  0  0  0  0  0  0  0  0  0  0
   10.1667  -16.0679   21.0983 C   0  0  2  0  0  0  0  0  0  0  0  0
   10.9290  -16.9650   20.2884 N   0  0  0  0  0  0  0  0  0  0  0  0
    9.8564  -16.5711   22.4306 C   0  0  0  0  0  0  0  0  0  0  0  0
    9.5859  -17.7875   22.5630 O   0  0  0  0  0  0  0  0  0  0  0  0
    6.9917  -12.0815   16.7759 N   0  0  0  0  0  0  0  0  0  0  0  0
    9.8536  -15.7272   23.5661 C   0  0  2  0  0  0  0  0  0  0  0  0
    9.4991  -16.1837   24.8924 C   0  0  0  0  0  0  0  0  0  0  0  0
    9.4898  -15.0574   25.9034 S   0  0  0  0  0  0  0  0  0  0  0  0
    9.1405  -15.8246   27.5332 C   0  0  0  0  0  0  0  0  0  0  0  0
    8.1975  -16.9086   24.8888 O   0  0  0  0  0  0  0  0  0  0  0  0
    7.1888  -16.4728   24.2797 O   0  0  0  0  0  0  0  0  0  0  0  0
  2  1  1  6
  2  3  1  0
  4 14  1  0
  4  2  1  0
  5  4  2  0
  6  7  1  0
  7  9  1  0
  7  8  2  0
  9 10  1  0
 10 11  1  0
 11 12  1  0
 13 12  1  6
 13 15  1  0
 13 14  1  0
 15 17  1  0
 16 15  2  0
 17 18  1  0
 18 21  1  0
 19 20  1  0
 18 19  1  1
 21 22  2  0
 21 23  1  0
M  END
$$$$
