ARC.pdb
     RDKit          3D

 23 22  0  0  1  0  0  0  0  0999 V2000
    8.4871  -12.7093   19.3053 C   0  0  0  0  0  0  0  0  0  0  0  0
    8.2612  -14.2148   19.3433 C   0  0  2  0  0  0  0  0  0  0  0  0
    7.3641  -14.5254   18.2468 N   0  0  0  0  0  0  0  0  0  0  0  0
    7.6905  -14.6375   20.6492 C   0  0  0  0  0  0  0  0  0  0  0  0
    6.4645  -14.5376   20.9075 O   0  0  0  0  0  0  0  0  0  0  0  0
    6.6790  -20.6758   25.1912 N   0  0  0  0  0  0  0  0  0  0  0  0
    7.4361  -20.1702   26.2655 C   0  0  0  0  0  0  0  0  0  0  0  0
    6.9985  -20.3934   27.4610 N   0  0  0  0  0  0  0  0  0  0  0  0
    8.6304  -19.4463   26.0254 N   0  0  0  0  0  0  0  0  0  0  0  0
    8.8267  -18.8797   24.7262 C   0  0  0  0  0  0  0  0  0  0  0  0
    8.2404  -17.4886   24.6010 C   0  0  0  0  0  0  0  0  0  0  0  0
    8.5611  -16.9897   23.2222 C   0  0  0  0  0  0  0  0  0  0  0  0
    8.0232  -15.6114   22.9514 C   0  0  2  0  0  0  0  0  0  0  0  0
    8.5105  -15.1803   21.6791 N   0  0  0  0  0  0  0  0  0  0  0  0
    8.2366  -14.6599   24.0347 C   0  0  0  0  0  0  0  0  0  0  0  0
    9.3920  -14.2109   24.2180 O   0  0  0  0  0  0  0  0  0  0  0  0
    7.5149  -20.1556   28.3155 N   0  0  0  0  0  0  0  0  0  0  0  0
    7.1808  -14.2358   24.8754 C   0  0  2  0  0  0  0  0  0  0  0  0
    7.3588  -13.2913   25.9569 C   0  0  0  0  0  0  0  0  0  0  0  0
    6.0787  -12.5576   26.2943 S   0  0  0  0  0  0  0  0  0  0  0  0
    6.4848  -11.4071   27.6647 C   0  0  0  0  0  0  0  0  0  0  0  0
    7.9318  -13.9486   27.1648 O   0  0  0  0  0  0  0  0  0  0  0  0
    7.7197  -15.1570   27.4350 O   0  0  0  0  0  0  0  0  0  0  0  0
  2  1  1  1
  2  3  1  0
  4 14  1  0
  4  2  1  0
  5  4  2  0
  6  7  1  0
  7  9  1  0
  7  8  2  0
  9 10  1  0
 10 11  1  0
 11 12  1  0
 13 12  1  1
 13 15  1  0
 13 14  1  0
 15 17  1  0
 16 15  2  0
 17 18  1  0
 18 21  1  0
 19 20  1  0
 18 19  1  6
 21 22  2  0
 21 23  1  0
M  END
$$$$
