ARC.pdb
     RDKit          3D

 23 22  0  0  1  0  0  0  0  0999 V2000
    7.9715  -20.0565   18.0898 C   0  0  0  0  0  0  0  0  0  0  0  0
    7.8185  -19.2419   19.3673 C   0  0  2  0  0  0  0  0  0  0  0  0
    6.7025  -18.3411   19.1512 N   0  0  0  0  0  0  0  0  0  0  0  0
    9.0663  -18.4967   19.6795 C   0  0  0  0  0  0  0  0  0  0  0  0
   10.1539  -19.0813   19.9141 O   0  0  0  0  0  0  0  0  0  0  0  0
   14.7775  -15.4638   17.4797 N   0  0  0  0  0  0  0  0  0  0  0  0
   14.8647  -14.4093   18.4088 C   0  0  0  0  0  0  0  0  0  0  0  0
   16.0306  -13.8913   18.6158 N   0  0  0  0  0  0  0  0  0  0  0  0
   13.7068  -13.9468   19.0821 N   0  0  0  0  0  0  0  0  0  0  0  0
   12.4904  -14.6817   18.9158 C   0  0  0  0  0  0  0  0  0  0  0  0
   11.3387  -14.0910   19.7028 C   0  0  0  0  0  0  0  0  0  0  0  0
   10.1368  -14.9550   19.4547 C   0  0  0  0  0  0  0  0  0  0  0  0
   10.2294  -16.3024   20.1168 C   0  0  2  0  0  0  0  0  0  0  0  0
    9.0910  -17.0738   19.7284 N   0  0  0  0  0  0  0  0  0  0  0  0
   10.4624  -16.2501   21.5547 C   0  0  0  0  0  0  0  0  0  0  0  0
    9.6885  -15.5638   22.2619 O   0  0  0  0  0  0  0  0  0  0  0  0
   16.2072  -13.1132   19.2614 N   0  0  0  0  0  0  0  0  0  0  0  0
   11.5308  -16.9490   22.1643 C   0  0  1  0  0  0  0  0  0  0  0  0
   11.8368  -16.8557   23.5753 C   0  0  0  0  0  0  0  0  0  0  0  0
   11.4852  -18.1233   24.3237 S   0  0  0  0  0  0  0  0  0  0  0  0
    9.6541  -18.1726   24.4315 C   0  0  0  0  0  0  0  0  0  0  0  0
   13.2610  -16.4807   23.7998 O   0  0  0  0  0  0  0  0  0  0  0  0
   13.7298  -16.2848   24.9488 O   0  0  0  0  0  0  0  0  0  0  0  0
  2  1  1  6
  2  3  1  0
  4 14  1  0
  4  2  1  0
  5  4  2  0
  6  7  1  0
  7  9  1  0
  7  8  2  0
  9 10  1  0
 10 11  1  0
 11 12  1  0
 13 12  1  1
 13 15  1  0
 13 14  1  0
 15 17  1  0
 16 15  2  0
 17 18  1  0
 18 21  1  0
 19 20  1  0
 18 19  1  1
 21 22  2  0
 21 23  1  0
M  END
$$$$
