CAT.pdb
     RDKit          3D

 19 18  0  0  1  0  0  0  0  0999 V2000
    8.9793  -16.7883   15.9874 N   0  0  0  0  0  0  0  0  0  0  0  0
    7.9860  -16.6562   17.0026 C   0  0  1  0  0  0  0  0  0  0  0  0
    7.4851  -18.0054   17.4881 C   0  0  0  0  0  0  0  0  0  0  0  0
    6.2601  -17.7502   18.8045 S   0  0  0  0  0  0  0  0  0  0  0  0
    8.4845  -15.9343   18.2106 C   0  0  0  0  0  0  0  0  0  0  0  0
    9.5662  -16.3753   18.6804 O   0  0  0  0  0  0  0  0  0  0  0  0
    7.5022  -12.9424   20.3158 C   0  0  0  0  0  0  0  0  0  0  0  0
    8.3508  -14.1500   19.9184 C   0  0  2  0  0  0  0  0  0  0  0  0
    7.8054  -14.8379   18.7941 N   0  0  0  0  0  0  0  0  0  0  0  0
    8.4539  -14.9977   21.1284 C   0  0  0  0  0  0  0  0  0  0  0  0
    7.4930  -15.2479   21.8908 O   0  0  0  0  0  0  0  0  0  0  0  0
    8.8575  -18.2895   21.5302 C   0  0  0  0  0  0  0  0  0  0  0  0
   10.1179  -17.7812   22.2009 C   0  0  1  0  0  0  0  0  0  0  0  0
   11.1512  -17.9130   21.2933 O   0  0  0  0  0  0  0  0  0  0  0  0
    9.9580  -16.3369   22.6398 C   0  0  2  0  0  0  0  0  0  0  0  0
    9.7184  -15.5587   21.4403 N   0  0  0  0  0  0  0  0  0  0  0  0
   11.1672  -15.8358   23.3289 C   0  0  0  0  0  0  0  0  0  0  0  0
   11.9598  -14.8831   22.7088 O   0  0  0  0  0  0  0  0  0  0  0  0
   11.5201  -16.2301   24.4576 O   0  0  0  0  0  0  0  0  0  0  0  0
  2  1  1  6
  2  3  1  0
  4  3  1  0
  5  2  1  0
  5  6  2  0
  8  7  1  1
  9  8  1  0
  9  5  1  0
 10  8  1  0
 11 10  2  0
 13 12  1  6
 13 15  1  0
 14 13  1  0
 15 16  1  6
 15 17  1  0
 16 10  1  0
 17 18  1  0
 19 17  2  0
M  END
$$$$
