CAT.pdb
     RDKit          3D

 19 18  0  0  1  0  0  0  0  0999 V2000
    6.7934  -12.9477   18.4246 N   0  0  0  0  0  0  0  0  0  0  0  0
    7.8353  -13.6893   19.0564 C   0  0  1  0  0  0  0  0  0  0  0  0
    8.7795  -12.7921   19.8379 C   0  0  0  0  0  0  0  0  0  0  0  0
   10.1637  -13.7850   20.4677 S   0  0  0  0  0  0  0  0  0  0  0  0
    7.3207  -14.7019   20.0253 C   0  0  0  0  0  0  0  0  0  0  0  0
    6.5606  -14.2408   20.9169 O   0  0  0  0  0  0  0  0  0  0  0  0
    6.6803  -18.2972   20.3121 C   0  0  0  0  0  0  0  0  0  0  0  0
    7.1746  -16.9948   20.9413 C   0  0  2  0  0  0  0  0  0  0  0  0
    7.6522  -16.0764   19.9598 N   0  0  0  0  0  0  0  0  0  0  0  0
    8.2060  -17.3807   21.9315 C   0  0  0  0  0  0  0  0  0  0  0  0
    8.0246  -18.2260   22.8369 O   0  0  0  0  0  0  0  0  0  0  0  0
   13.0358  -16.8016   22.9990 C   0  0  0  0  0  0  0  0  0  0  0  0
   11.8387  -16.5838   22.0956 C   0  0  1  0  0  0  0  0  0  0  0  0
   12.0682  -17.2868   20.9285 O   0  0  0  0  0  0  0  0  0  0  0  0
   10.5574  -17.0441   22.7668 C   0  0  2  0  0  0  0  0  0  0  0  0
    9.4750  -16.7535   21.8471 N   0  0  0  0  0  0  0  0  0  0  0  0
   10.3273  -16.3431   24.0489 C   0  0  0  0  0  0  0  0  0  0  0  0
   11.1084  -16.6595   25.1488 O   0  0  0  0  0  0  0  0  0  0  0  0
    9.4532  -15.4670   24.1982 O   0  0  0  0  0  0  0  0  0  0  0  0
  2  1  1  1
  2  3  1  0
  4  3  1  0
  5  2  1  0
  5  6  2  0
  8  7  1  6
  9  8  1  0
  9  5  1  0
 10  8  1  0
 11 10  2  0
 13 12  1  1
 13 15  1  0
 14 13  1  0
 15 16  1  6
 15 17  1  0
 16 10  1  0
 17 18  1  0
 19 17  2  0
M  END
$$$$
