CAT.pdb
     RDKit          3D

 19 18  0  0  1  0  0  0  0  0999 V2000
    4.9274  -13.0471   26.5278 N   0  0  0  0  0  0  0  0  0  0  0  0
    6.1764  -12.6435   25.9693 C   0  0  1  0  0  0  0  0  0  0  0  0
    7.1823  -12.2609   27.0412 C   0  0  0  0  0  0  0  0  0  0  0  0
    8.7596  -11.8254   26.2529 S   0  0  0  0  0  0  0  0  0  0  0  0
    6.8199  -13.7154   25.1534 C   0  0  0  0  0  0  0  0  0  0  0  0
    6.9681  -14.8149   25.7488 O   0  0  0  0  0  0  0  0  0  0  0  0
    7.9038  -14.2333   21.5656 C   0  0  0  0  0  0  0  0  0  0  0  0
    7.7195  -14.6179   23.0334 C   0  0  2  0  0  0  0  0  0  0  0  0
    7.2365  -13.5260   23.8140 N   0  0  0  0  0  0  0  0  0  0  0  0
    9.0309  -15.1299   23.4933 C   0  0  0  0  0  0  0  0  0  0  0  0
    9.9739  -14.3981   23.8710 O   0  0  0  0  0  0  0  0  0  0  0  0
   11.3715  -19.3337   24.7621 C   0  0  0  0  0  0  0  0  0  0  0  0
   10.1400  -18.5964   24.2758 C   0  0  1  0  0  0  0  0  0  0  0  0
    9.1876  -18.6793   25.2733 O   0  0  0  0  0  0  0  0  0  0  0  0
   10.4636  -17.1497   23.9492 C   0  0  2  0  0  0  0  0  0  0  0  0
    9.2282  -16.5341   23.5057 N   0  0  0  0  0  0  0  0  0  0  0  0
   11.4865  -17.0428   22.8860 C   0  0  0  0  0  0  0  0  0  0  0  0
   12.7995  -16.7623   23.2288 O   0  0  0  0  0  0  0  0  0  0  0  0
   11.2286  -17.1939   21.6758 O   0  0  0  0  0  0  0  0  0  0  0  0
  2  1  1  1
  2  3  1  0
  4  3  1  0
  5  2  1  0
  5  6  2  0
  8  7  1  6
  9  8  1  0
  9  5  1  0
 10  8  1  0
 11 10  2  0
 13 12  1  1
 13 15  1  0
 14 13  1  0
 15 16  1  6
 15 17  1  0
 16 10  1  0
 17 18  1  0
 19 17  2  0
M  END
$$$$
