CAT.pdb
     RDKit          3D

 19 18  0  0  1  0  0  0  0  0999 V2000
    8.1923  -15.1348   15.9209 N   0  0  0  0  0  0  0  0  0  0  0  0
    8.6756  -14.4972   17.1019 C   0  0  1  0  0  0  0  0  0  0  0  0
    7.7590  -13.3756   17.5590 C   0  0  0  0  0  0  0  0  0  0  0  0
    8.3924  -12.6816   19.1133 S   0  0  0  0  0  0  0  0  0  0  0  0
    8.8000  -15.4346   18.2572 C   0  0  0  0  0  0  0  0  0  0  0  0
    7.7794  -16.1378   18.4788 O   0  0  0  0  0  0  0  0  0  0  0  0
   11.2249  -17.3859   20.0504 C   0  0  0  0  0  0  0  0  0  0  0  0
   10.0295  -16.4390   20.1539 C   0  0  2  0  0  0  0  0  0  0  0  0
    9.9675  -15.5364   19.0510 N   0  0  0  0  0  0  0  0  0  0  0  0
   10.1567  -15.7557   21.4616 C   0  0  0  0  0  0  0  0  0  0  0  0
   11.0524  -14.9239   21.7319 O   0  0  0  0  0  0  0  0  0  0  0  0
    7.4793  -13.8104   23.2248 C   0  0  0  0  0  0  0  0  0  0  0  0
    7.8478  -14.9886   24.1038 C   0  0  1  0  0  0  0  0  0  0  0  0
    6.9113  -15.9797   23.8809 O   0  0  0  0  0  0  0  0  0  0  0  0
    9.2494  -15.4828   23.7946 C   0  0  2  0  0  0  0  0  0  0  0  0
    9.2053  -16.0639   22.4670 N   0  0  0  0  0  0  0  0  0  0  0  0
    9.7011  -16.4980   24.7710 C   0  0  0  0  0  0  0  0  0  0  0  0
    9.8977  -16.1325   26.0931 O   0  0  0  0  0  0  0  0  0  0  0  0
    9.9189  -17.6868   24.4655 O   0  0  0  0  0  0  0  0  0  0  0  0
  2  1  1  6
  2  3  1  0
  4  3  1  0
  5  2  1  0
  5  6  2  0
  8  7  1  6
  9  8  1  0
  9  5  1  0
 10  8  1  0
 11 10  2  0
 13 12  1  6
 13 15  1  0
 14 13  1  0
 15 16  1  6
 15 17  1  0
 16 10  1  0
 17 18  1  0
 19 17  2  0
M  END
$$$$
