CAT.pdb
     RDKit          3D

 19 18  0  0  1  0  0  0  0  0999 V2000
   -0.9806  -27.2950   29.9021 N   0  0  0  0  0  0  0  0  0  0  0  0
   -2.0123  -27.2095   30.8835 C   0  0  1  0  0  0  0  0  0  0  0  0
   -1.5271  -26.5518   32.1638 C   0  0  0  0  0  0  0  0  0  0  0  0
   -0.2843  -27.6178   32.9498 S   0  0  0  0  0  0  0  0  0  0  0  0
   -3.1871  -26.4125   30.4215 C   0  0  0  0  0  0  0  0  0  0  0  0
   -2.9033  -25.4341   29.6816 O   0  0  0  0  0  0  0  0  0  0  0  0
   -6.9414  -26.7691   30.3996 C   0  0  0  0  0  0  0  0  0  0  0  0
   -5.6194  -26.0341   30.1792 C   0  0  2  0  0  0  0  0  0  0  0  0
   -4.5218  -26.7200   30.7788 N   0  0  0  0  0  0  0  0  0  0  0  0
   -5.8146  -24.6659   30.7114 C   0  0  0  0  0  0  0  0  0  0  0  0
   -5.6317  -24.3486   31.9086 O   0  0  0  0  0  0  0  0  0  0  0  0
   -4.3384  -21.5313   29.1686 C   0  0  0  0  0  0  0  0  0  0  0  0
   -5.8476  -21.3940   29.1667 C   0  0  1  0  0  0  0  0  0  0  0  0
   -6.2917  -21.7279   27.9018 O   0  0  0  0  0  0  0  0  0  0  0  0
   -6.4781  -22.2872   30.2198 C   0  0  2  0  0  0  0  0  0  0  0  0
   -6.2340  -23.6559   29.8087 N   0  0  0  0  0  0  0  0  0  0  0  0
   -7.9336  -22.0518   30.3389 C   0  0  0  0  0  0  0  0  0  0  0  0
   -8.3894  -20.8721   30.9052 O   0  0  0  0  0  0  0  0  0  0  0  0
   -8.7895  -22.8709   29.9510 O   0  0  0  0  0  0  0  0  0  0  0  0
  2  1  1  6
  2  3  1  0
  4  3  1  0
  5  2  1  0
  5  6  2  0
  8  7  1  1
  9  8  1  0
  9  5  1  0
 10  8  1  0
 11 10  2  0
 13 12  1  6
 13 15  1  0
 14 13  1  0
 15 16  1  6
 15 17  1  0
 16 10  1  0
 17 18  1  0
 19 17  2  0
M  END
$$$$
