CAT.pdb
     RDKit          3D

 19 18  0  0  1  0  0  0  0  0999 V2000
    7.4266  -16.7592   18.7789 N   0  0  0  0  0  0  0  0  0  0  0  0
    8.3324  -15.9172   19.4898 C   0  0  1  0  0  0  0  0  0  0  0  0
    7.6161  -14.7811   20.1993 C   0  0  0  0  0  0  0  0  0  0  0  0
    7.3087  -13.4370   19.0170 S   0  0  0  0  0  0  0  0  0  0  0  0
    9.1014  -16.6489   20.5395 C   0  0  0  0  0  0  0  0  0  0  0  0
    8.5246  -17.6677   21.0028 O   0  0  0  0  0  0  0  0  0  0  0  0
   12.6432  -16.8249   21.7236 C   0  0  0  0  0  0  0  0  0  0  0  0
   11.1406  -17.0580   21.8784 C   0  0  2  0  0  0  0  0  0  0  0  0
   10.3801  -16.2416   20.9896 N   0  0  0  0  0  0  0  0  0  0  0  0
   10.8303  -16.8141   23.3058 C   0  0  0  0  0  0  0  0  0  0  0  0
   11.5571  -17.1897   24.2535 O   0  0  0  0  0  0  0  0  0  0  0  0
    8.4191  -13.5919   24.2708 C   0  0  0  0  0  0  0  0  0  0  0  0
    8.0201  -14.9154   24.8917 C   0  0  1  0  0  0  0  0  0  0  0  0
    7.0142  -15.4518   24.1111 O   0  0  0  0  0  0  0  0  0  0  0  0
    9.2067  -15.8583   24.9763 C   0  0  2  0  0  0  0  0  0  0  0  0
    9.6375  -16.1125   23.6155 N   0  0  0  0  0  0  0  0  0  0  0  0
    8.8483  -17.1336   25.6348 C   0  0  0  0  0  0  0  0  0  0  0  0
    8.5776  -17.1467   26.9937 O   0  0  0  0  0  0  0  0  0  0  0  0
    8.7748  -18.2178   25.0240 O   0  0  0  0  0  0  0  0  0  0  0  0
  2  1  1  1
  2  3  1  0
  4  3  1  0
  5  2  1  0
  5  6  2  0
  8  7  1  1
  9  8  1  0
  9  5  1  0
 10  8  1  0
 11 10  2  0
 13 12  1  6
 13 15  1  0
 14 13  1  0
 15 16  1  6
 15 17  1  0
 16 10  1  0
 17 18  1  0
 19 17  2  0
M  END
$$$$
