CAT.pdb
     RDKit          3D

 19 18  0  0  1  0  0  0  0  0999 V2000
    5.0899  -14.5408   26.0895 N   0  0  0  0  0  0  0  0  0  0  0  0
    6.2279  -13.9329   25.4811 C   0  0  1  0  0  0  0  0  0  0  0  0
    6.8817  -12.9089   26.3927 C   0  0  0  0  0  0  0  0  0  0  0  0
    5.8203  -11.4389   26.4992 S   0  0  0  0  0  0  0  0  0  0  0  0
    7.2915  -14.9187   25.1264 C   0  0  0  0  0  0  0  0  0  0  0  0
    7.3063  -15.9579   25.8371 O   0  0  0  0  0  0  0  0  0  0  0  0
    9.8003  -15.4367   22.3506 C   0  0  0  0  0  0  0  0  0  0  0  0
    9.1246  -15.7456   23.6863 C   0  0  2  0  0  0  0  0  0  0  0  0
    8.2183  -14.7153   24.0761 N   0  0  0  0  0  0  0  0  0  0  0  0
   10.2181  -15.9616   24.6614 C   0  0  0  0  0  0  0  0  0  0  0  0
   11.2737  -16.5828   24.4021 O   0  0  0  0  0  0  0  0  0  0  0  0
   10.6056  -13.3524   27.8800 C   0  0  0  0  0  0  0  0  0  0  0  0
   10.5642  -14.8295   28.2161 C   0  0  1  0  0  0  0  0  0  0  0  0
    9.2671  -15.1342   28.5816 O   0  0  0  0  0  0  0  0  0  0  0  0
   11.0100  -15.6709   27.0339 C   0  0  2  0  0  0  0  0  0  0  0  0
   10.0578  -15.4319   25.9671 N   0  0  0  0  0  0  0  0  0  0  0  0
   11.0390  -17.1120   27.3661 C   0  0  0  0  0  0  0  0  0  0  0  0
   11.9492  -17.5780   28.3013 O   0  0  0  0  0  0  0  0  0  0  0  0
   10.2761  -17.9469   26.8417 O   0  0  0  0  0  0  0  0  0  0  0  0
  2  1  1  1
  2  3  1  0
  4  3  1  0
  5  2  1  0
  5  6  2  0
  8  7  1  6
  9  8  1  0
  9  5  1  0
 10  8  1  0
 11 10  2  0
 13 12  1  6
 13 15  1  0
 14 13  1  0
 15 16  1  6
 15 17  1  0
 16 10  1  0
 17 18  1  0
 19 17  2  0
M  END
$$$$
