CAT.pdb
     RDKit          3D

 19 18  0  0  1  0  0  0  0  0999 V2000
   10.2688  -15.8303   15.2647 N   0  0  0  0  0  0  0  0  0  0  0  0
    9.2701  -15.8991   16.2809 C   0  0  1  0  0  0  0  0  0  0  0  0
    9.1454  -17.2965   16.8630 C   0  0  0  0  0  0  0  0  0  0  0  0
    7.6855  -17.3671   17.9412 S   0  0  0  0  0  0  0  0  0  0  0  0
    9.5497  -14.9890   17.4309 C   0  0  0  0  0  0  0  0  0  0  0  0
   10.7428  -14.9978   17.8331 O   0  0  0  0  0  0  0  0  0  0  0  0
    7.8095  -12.2145   19.2964 C   0  0  0  0  0  0  0  0  0  0  0  0
    8.8960  -13.2683   19.0831 C   0  0  2  0  0  0  0  0  0  0  0  0
    8.5615  -14.1737   18.0328 N   0  0  0  0  0  0  0  0  0  0  0  0
    9.0858  -13.9355   20.3915 C   0  0  0  0  0  0  0  0  0  0  0  0
    9.4571  -13.3441   21.4307 O   0  0  0  0  0  0  0  0  0  0  0  0
    6.5044  -16.5260   21.5642 C   0  0  0  0  0  0  0  0  0  0  0  0
    7.8813  -17.1485   21.6791 C   0  0  1  0  0  0  0  0  0  0  0  0
    8.0427  -17.9972   20.6009 O   0  0  0  0  0  0  0  0  0  0  0  0
    8.9619  -16.0826   21.7010 C   0  0  2  0  0  0  0  0  0  0  0  0
    8.8312  -15.3283   20.4698 N   0  0  0  0  0  0  0  0  0  0  0  0
   10.3149  -16.6747   21.7845 C   0  0  0  0  0  0  0  0  0  0  0  0
   10.6650  -17.4213   22.8981 O   0  0  0  0  0  0  0  0  0  0  0  0
   11.1744  -16.5370   20.8921 O   0  0  0  0  0  0  0  0  0  0  0  0
  2  1  1  6
  2  3  1  0
  4  3  1  0
  5  2  1  0
  5  6  2  0
  8  7  1  1
  9  8  1  0
  9  5  1  0
 10  8  1  0
 11 10  2  0
 13 12  1  6
 13 15  1  0
 14 13  1  0
 15 16  1  6
 15 17  1  0
 16 10  1  0
 17 18  1  0
 19 17  2  0
M  END
$$$$
