CAT.pdb
     RDKit          3D

 19 18  0  0  1  0  0  0  0  0999 V2000
    8.3506  -13.3750   17.1131 N   0  0  0  0  0  0  0  0  0  0  0  0
    8.2506  -14.4350   18.0624 C   0  0  1  0  0  0  0  0  0  0  0  0
    9.2196  -15.5646   17.7585 C   0  0  0  0  0  0  0  0  0  0  0  0
    8.9321  -16.9285   18.9229 S   0  0  0  0  0  0  0  0  0  0  0  0
    8.5454  -13.9932   19.4576 C   0  0  0  0  0  0  0  0  0  0  0  0
    9.4958  -13.1741   19.5624 O   0  0  0  0  0  0  0  0  0  0  0  0
    6.9402  -13.9467   22.8142 C   0  0  0  0  0  0  0  0  0  0  0  0
    8.1640  -14.0202   21.9014 C   0  0  2  0  0  0  0  0  0  0  0  0
    7.8219  -14.4505   20.5851 N   0  0  0  0  0  0  0  0  0  0  0  0
    9.1292  -14.9174   22.5771 C   0  0  0  0  0  0  0  0  0  0  0  0
    9.5399  -14.7482   23.7476 O   0  0  0  0  0  0  0  0  0  0  0  0
    8.8751  -18.7937   21.6873 C   0  0  0  0  0  0  0  0  0  0  0  0
   10.3081  -18.3041   21.6285 C   0  0  1  0  0  0  0  0  0  0  0  0
   10.6173  -18.0889   20.2992 O   0  0  0  0  0  0  0  0  0  0  0  0
   10.4850  -17.0349   22.4422 C   0  0  2  0  0  0  0  0  0  0  0  0
    9.6162  -16.0350   21.8528 N   0  0  0  0  0  0  0  0  0  0  0  0
   11.8852  -16.5587   22.4186 C   0  0  0  0  0  0  0  0  0  0  0  0
   12.8695  -17.3036   23.0483 O   0  0  0  0  0  0  0  0  0  0  0  0
   12.2362  -15.5046   21.8532 O   0  0  0  0  0  0  0  0  0  0  0  0
  2  1  1  6
  2  3  1  0
  4  3  1  0
  5  2  1  0
  5  6  2  0
  8  7  1  1
  9  8  1  0
  9  5  1  0
 10  8  1  0
 11 10  2  0
 13 12  1  6
 13 15  1  0
 14 13  1  0
 15 16  1  6
 15 17  1  0
 16 10  1  0
 17 18  1  0
 19 17  2  0
M  END
$$$$
