CAT.pdb
     RDKit          3D

 19 18  0  0  1  0  0  0  0  0999 V2000
   -0.3248  -20.6420   18.8558 N   0  0  0  0  0  0  0  0  0  0  0  0
    0.5323  -21.0404   19.9242 C   0  0  1  0  0  0  0  0  0  0  0  0
    1.0246  -22.4676   19.7571 C   0  0  0  0  0  0  0  0  0  0  0  0
    1.9463  -22.9600   21.2426 S   0  0  0  0  0  0  0  0  0  0  0  0
    1.7516  -20.1866   20.0382 C   0  0  0  0  0  0  0  0  0  0  0  0
    2.2816  -19.8735   18.9398 O   0  0  0  0  0  0  0  0  0  0  0  0
    3.6697  -18.3315   22.7096 C   0  0  0  0  0  0  0  0  0  0  0  0
    3.4680  -18.9628   21.3322 C   0  0  2  0  0  0  0  0  0  0  0  0
    2.2827  -19.7545   21.2771 N   0  0  0  0  0  0  0  0  0  0  0  0
    4.6998  -19.7342   21.0477 C   0  0  0  0  0  0  0  0  0  0  0  0
    4.8762  -20.9236   21.3964 O   0  0  0  0  0  0  0  0  0  0  0  0
    6.3397  -19.4282   17.5467 C   0  0  0  0  0  0  0  0  0  0  0  0
    7.3837  -19.1649   18.6132 C   0  0  1  0  0  0  0  0  0  0  0  0
    7.5428  -17.7956   18.7069 O   0  0  0  0  0  0  0  0  0  0  0  0
    6.9639  -19.7579   19.9460 C   0  0  2  0  0  0  0  0  0  0  0  0
    5.7411  -19.0844   20.3374 N   0  0  0  0  0  0  0  0  0  0  0  0
    7.9987  -19.5609   20.9845 C   0  0  0  0  0  0  0  0  0  0  0  0
    7.7628  -18.6739   22.0226 O   0  0  0  0  0  0  0  0  0  0  0  0
    9.0921  -20.1596   20.9780 O   0  0  0  0  0  0  0  0  0  0  0  0
  2  1  1  6
  2  3  1  0
  4  3  1  0
  5  2  1  0
  5  6  2  0
  8  7  1  1
  9  8  1  0
  9  5  1  0
 10  8  1  0
 11 10  2  0
 13 12  1  6
 13 15  1  0
 14 13  1  0
 15 16  1  1
 15 17  1  0
 16 10  1  0
 17 18  1  0
 19 17  2  0
M  END
$$$$
