CAT.pdb
     RDKit          3D

 19 18  0  0  1  0  0  0  0  0999 V2000
    5.9420  -19.5737   20.3684 N   0  0  0  0  0  0  0  0  0  0  0  0
    5.8849  -18.4145   21.1978 C   0  0  1  0  0  0  0  0  0  0  0  0
    5.4405  -18.7475   22.6115 C   0  0  0  0  0  0  0  0  0  0  0  0
    3.6308  -18.8967   22.6500 S   0  0  0  0  0  0  0  0  0  0  0  0
    7.2038  -17.7264   21.3236 C   0  0  0  0  0  0  0  0  0  0  0  0
    8.1882  -18.4959   21.4784 O   0  0  0  0  0  0  0  0  0  0  0  0
    8.6829  -14.3884   20.5672 C   0  0  0  0  0  0  0  0  0  0  0  0
    8.6432  -15.7148   21.3257 C   0  0  2  0  0  0  0  0  0  0  0  0
    7.3522  -16.3195   21.2748 N   0  0  0  0  0  0  0  0  0  0  0  0
    9.0941  -15.4152   22.7042 C   0  0  0  0  0  0  0  0  0  0  0  0
   10.2350  -14.9855   22.9889 O   0  0  0  0  0  0  0  0  0  0  0  0
    7.1608  -13.3008   25.2280 C   0  0  0  0  0  0  0  0  0  0  0  0
    7.3286  -14.6991   25.7876 C   0  0  1  0  0  0  0  0  0  0  0  0
    6.1561  -15.3869   25.5406 O   0  0  0  0  0  0  0  0  0  0  0  0
    8.5166  -15.4011   25.1550 C   0  0  2  0  0  0  0  0  0  0  0  0
    8.1766  -15.6287   23.7641 N   0  0  0  0  0  0  0  0  0  0  0  0
    8.8078  -16.6914   25.8172 C   0  0  0  0  0  0  0  0  0  0  0  0
    9.2409  -16.6999   27.1334 O   0  0  0  0  0  0  0  0  0  0  0  0
    8.6830  -17.7927   25.2466 O   0  0  0  0  0  0  0  0  0  0  0  0
  2  1  1  6
  2  3  1  0
  4  3  1  0
  5  2  1  0
  5  6  2  0
  8  7  1  6
  9  8  1  0
  9  5  1  0
 10  8  1  0
 11 10  2  0
 13 12  1  6
 13 15  1  0
 14 13  1  0
 15 16  1  6
 15 17  1  0
 16 10  1  0
 17 18  1  0
 19 17  2  0
M  END
$$$$
