CAT.pdb
     RDKit          3D

 19 18  0  0  1  0  0  0  0  0999 V2000
    7.2210  -15.3483   18.7609 N   0  0  0  0  0  0  0  0  0  0  0  0
    8.1816  -14.7547   19.6324 C   0  0  1  0  0  0  0  0  0  0  0  0
    8.0622  -13.2408   19.6645 C   0  0  0  0  0  0  0  0  0  0  0  0
    8.5509  -12.5681   18.0498 S   0  0  0  0  0  0  0  0  0  0  0  0
    8.0453  -15.2164   21.0456 C   0  0  0  0  0  0  0  0  0  0  0  0
    6.8827  -15.1269   21.5205 O   0  0  0  0  0  0  0  0  0  0  0  0
    9.9563  -17.2361   23.5409 C   0  0  0  0  0  0  0  0  0  0  0  0
    8.9416  -16.1627   23.1478 C   0  0  2  0  0  0  0  0  0  0  0  0
    9.1291  -15.7180   21.8055 N   0  0  0  0  0  0  0  0  0  0  0  0
    9.0800  -15.0787   24.1473 C   0  0  0  0  0  0  0  0  0  0  0  0
    9.9972  -14.2267   24.1323 O   0  0  0  0  0  0  0  0  0  0  0  0
    6.6437  -12.2505   27.2401 C   0  0  0  0  0  0  0  0  0  0  0  0
    6.7063  -13.4694   26.3419 C   0  0  1  0  0  0  0  0  0  0  0  0
    6.1828  -13.1069   25.1158 O   0  0  0  0  0  0  0  0  0  0  0  0
    8.1324  -13.9699   26.1998 C   0  0  2  0  0  0  0  0  0  0  0  0
    8.1143  -15.0031   25.1830 N   0  0  0  0  0  0  0  0  0  0  0  0
    8.6478  -14.5259   27.4699 C   0  0  0  0  0  0  0  0  0  0  0  0
    9.0022  -13.6656   28.4969 O   0  0  0  0  0  0  0  0  0  0  0  0
    8.7839  -15.7484   27.6722 O   0  0  0  0  0  0  0  0  0  0  0  0
  2  1  1  6
  2  3  1  0
  4  3  1  0
  5  2  1  0
  5  6  2  0
  8  7  1  1
  9  8  1  0
  9  5  1  0
 10  8  1  0
 11 10  2  0
 13 12  1  1
 13 15  1  0
 14 13  1  0
 15 16  1  6
 15 17  1  0
 16 10  1  0
 17 18  1  0
 19 17  2  0
M  END
$$$$
