CAT.pdb
     RDKit          3D

 19 18  0  0  1  0  0  0  0  0999 V2000
    8.5698  -12.7351   18.0693 N   0  0  0  0  0  0  0  0  0  0  0  0
    8.6618  -14.0932   18.4957 C   0  0  1  0  0  0  0  0  0  0  0  0
   10.1002  -14.5184   18.7354 C   0  0  0  0  0  0  0  0  0  0  0  0
   10.8393  -13.4424   19.9982 S   0  0  0  0  0  0  0  0  0  0  0  0
    7.9299  -14.3511   19.7711 C   0  0  0  0  0  0  0  0  0  0  0  0
    7.8775  -13.3693   20.5576 O   0  0  0  0  0  0  0  0  0  0  0  0
    5.4517  -16.7575   21.1364 C   0  0  0  0  0  0  0  0  0  0  0  0
    6.6146  -15.7797   21.3032 C   0  0  2  0  0  0  0  0  0  0  0  0
    7.3359  -15.5966   20.0862 N   0  0  0  0  0  0  0  0  0  0  0  0
    7.4498  -16.3159   22.4024 C   0  0  0  0  0  0  0  0  0  0  0  0
    7.0017  -16.6465   23.5237 O   0  0  0  0  0  0  0  0  0  0  0  0
    9.6684  -19.2657   22.2294 C   0  0  0  0  0  0  0  0  0  0  0  0
   10.5552  -18.0759   22.5371 C   0  0  1  0  0  0  0  0  0  0  0  0
   11.1240  -17.6654   21.3468 O   0  0  0  0  0  0  0  0  0  0  0  0
    9.7592  -16.9531   23.1774 C   0  0  2  0  0  0  0  0  0  0  0  0
    8.8407  -16.4627   22.1685 N   0  0  0  0  0  0  0  0  0  0  0  0
   10.6345  -15.8522   23.6356 C   0  0  0  0  0  0  0  0  0  0  0  0
   11.4834  -16.0587   24.7112 O   0  0  0  0  0  0  0  0  0  0  0  0
   10.6515  -14.7275   23.0982 O   0  0  0  0  0  0  0  0  0  0  0  0
  2  1  1  1
  2  3  1  0
  4  3  1  0
  5  2  1  0
  5  6  2  0
  8  7  1  6
  9  8  1  0
  9  5  1  0
 10  8  1  0
 11 10  2  0
 13 12  1  6
 13 15  1  0
 14 13  1  0
 15 16  1  6
 15 17  1  0
 16 10  1  0
 17 18  1  0
 19 17  2  0
M  END
$$$$
