CAT.pdb
     RDKit          3D

 19 18  0  0  1  0  0  0  0  0999 V2000
    8.6418  -15.1313   16.7438 N   0  0  0  0  0  0  0  0  0  0  0  0
    9.4022  -14.3004   17.6191 C   0  0  1  0  0  0  0  0  0  0  0  0
    8.5278  -13.6114   18.6525 C   0  0  0  0  0  0  0  0  0  0  0  0
    7.3313  -12.5399   17.8045 S   0  0  0  0  0  0  0  0  0  0  0  0
   10.4373  -15.0578   18.3832 C   0  0  0  0  0  0  0  0  0  0  0  0
   10.0272  -16.1230   18.9145 O   0  0  0  0  0  0  0  0  0  0  0  0
   14.1696  -15.0214   18.8686 C   0  0  0  0  0  0  0  0  0  0  0  0
   12.7341  -15.3959   19.2367 C   0  0  2  0  0  0  0  0  0  0  0  0
   11.7791  -14.6250   18.5098 N   0  0  0  0  0  0  0  0  0  0  0  0
   12.6271  -15.2263   20.7040 C   0  0  0  0  0  0  0  0  0  0  0  0
   13.0950  -14.2489   21.3309 O   0  0  0  0  0  0  0  0  0  0  0  0
    9.4735  -15.2323   22.7108 C   0  0  0  0  0  0  0  0  0  0  0  0
   10.3121  -16.4121   23.1594 C   0  0  1  0  0  0  0  0  0  0  0  0
    9.8533  -17.5263   22.4834 O   0  0  0  0  0  0  0  0  0  0  0  0
   11.7848  -16.1725   22.8801 C   0  0  2  0  0  0  0  0  0  0  0  0
   11.9535  -16.2330   21.4414 N   0  0  0  0  0  0  0  0  0  0  0  0
   12.6390  -17.1918   23.5279 C   0  0  0  0  0  0  0  0  0  0  0  0
   12.7004  -17.2508   24.9110 O   0  0  0  0  0  0  0  0  0  0  0  0
   13.3197  -18.0164   22.8871 O   0  0  0  0  0  0  0  0  0  0  0  0
  2  1  1  1
  2  3  1  0
  4  3  1  0
  5  2  1  0
  5  6  2  0
  8  7  1  6
  9  8  1  0
  9  5  1  0
 10  8  1  0
 11 10  2  0
 13 12  1  6
 13 15  1  0
 14 13  1  0
 15 16  1  6
 15 17  1  0
 16 10  1  0
 17 18  1  0
 19 17  2  0
M  END
$$$$
