CAT.pdb
     RDKit          3D

 19 18  0  0  1  0  0  0  0  0999 V2000
    7.3883  -14.2837   18.5152 N   0  0  0  0  0  0  0  0  0  0  0  0
    8.3912  -14.5212   19.5014 C   0  0  1  0  0  0  0  0  0  0  0  0
    9.3269  -13.3352   19.6590 C   0  0  0  0  0  0  0  0  0  0  0  0
    8.3459  -11.8330   19.9415 S   0  0  0  0  0  0  0  0  0  0  0  0
    7.8211  -14.7887   20.8550 C   0  0  0  0  0  0  0  0  0  0  0  0
    6.7593  -14.1636   21.1136 O   0  0  0  0  0  0  0  0  0  0  0  0
    8.0637  -17.2902   23.5922 C   0  0  0  0  0  0  0  0  0  0  0  0
    7.8510  -15.8653   23.0817 C   0  0  2  0  0  0  0  0  0  0  0  0
    8.4162  -15.6732   21.7862 N   0  0  0  0  0  0  0  0  0  0  0  0
    8.4276  -14.9686   24.1097 C   0  0  0  0  0  0  0  0  0  0  0  0
    9.6170  -14.5776   24.1088 O   0  0  0  0  0  0  0  0  0  0  0  0
    6.6148  -11.7526   25.5595 C   0  0  0  0  0  0  0  0  0  0  0  0
    6.8840  -12.7896   26.6314 C   0  0  1  0  0  0  0  0  0  0  0  0
    5.7245  -13.5220   26.7987 O   0  0  0  0  0  0  0  0  0  0  0  0
    8.0450  -13.6871   26.2431 C   0  0  2  0  0  0  0  0  0  0  0  0
    7.5797  -14.5275   25.1572 N   0  0  0  0  0  0  0  0  0  0  0  0
    8.4889  -14.5303   27.3745 C   0  0  0  0  0  0  0  0  0  0  0  0
    9.0803  -13.9353   28.4774 O   0  0  0  0  0  0  0  0  0  0  0  0
    8.3584  -15.7699   27.3917 O   0  0  0  0  0  0  0  0  0  0  0  0
  2  1  1  6
  2  3  1  0
  4  3  1  0
  5  2  1  0
  5  6  2  0
  8  7  1  1
  9  8  1  0
  9  5  1  0
 10  8  1  0
 11 10  2  0
 13 12  1  6
 13 15  1  0
 14 13  1  0
 15 16  1  6
 15 17  1  0
 16 10  1  0
 17 18  1  0
 19 17  2  0
M  END
$$$$
