FVT.pdb
     RDKit          3D

 26 26  0  0  1  0  0  0  0  0999 V2000
    5.8940  -17.8593   25.9802 N   0  0  0  0  0  0  0  0  0  0  0  0
    6.4595  -16.5846   25.6456 C   0  0  1  0  0  0  0  0  0  0  0  0
    7.2252  -16.0894   26.8667 C   0  0  0  0  0  0  0  0  0  0  0  0
    7.1333  -14.5989   26.8433 C   0  0  0  0  0  0  0  0  0  0  0  0
    5.9196  -13.9435   26.8375 C   0  0  0  0  0  0  0  0  0  0  0  0
    5.8073  -12.5651   26.8161 C   0  0  0  0  0  0  0  0  0  0  0  0
    6.9793  -11.8019   26.7996 C   0  0  0  0  0  0  0  0  0  0  0  0
    8.2079  -12.4257   26.8049 C   0  0  0  0  0  0  0  0  0  0  0  0
    8.2701  -13.8037   26.8265 C   0  0  0  0  0  0  0  0  0  0  0  0
    7.3624  -16.6693   24.4573 C   0  0  0  0  0  0  0  0  0  0  0  0
    8.0541  -17.6881   24.1980 O   0  0  0  0  0  0  0  0  0  0  0  0
    9.0513  -14.2772   20.3923 C   0  0  0  0  0  0  0  0  0  0  0  0
    8.1074  -14.3993   21.5596 C   0  0  1  0  0  0  0  0  0  0  0  0
    6.6750  -14.2748   21.1576 C   0  0  0  0  0  0  0  0  0  0  0  0
    8.3293  -15.6245   22.3785 C   0  0  2  0  0  0  0  0  0  0  0  0
    7.4704  -15.5722   23.5597 N   0  0  0  0  0  0  0  0  0  0  0  0
    9.7492  -15.6361   22.8286 C   0  0  0  0  0  0  0  0  0  0  0  0
   10.2081  -14.6887   23.5408 O   0  0  0  0  0  0  0  0  0  0  0  0
   11.6795  -18.0963   24.9969 C   0  0  0  0  0  0  0  0  0  0  0  0
   12.3015  -18.0969   23.6184 C   0  0  1  0  0  0  0  0  0  0  0  0
   11.6743  -19.0972   22.8766 O   0  0  0  0  0  0  0  0  0  0  0  0
   12.0109  -16.7569   22.9833 C   0  0  2  0  0  0  0  0  0  0  0  0
   10.6479  -16.6767   22.4979 N   0  0  0  0  0  0  0  0  0  0  0  0
   12.9298  -16.6105   21.8247 C   0  0  0  0  0  0  0  0  0  0  0  0
   14.2867  -16.3585   21.9782 O   0  0  0  0  0  0  0  0  0  0  0  0
   12.5166  -16.7094   20.6289 O   0  0  0  0  0  0  0  0  0  0  0  0
  2  1  1  1
  2 10  1  0
  3  2  1  0
  3  4  1  0
  4  9  2  0
  4  5  1  0
  5  6  2  0
  6  7  1  0
  8  7  2  0
  9  8  1  0
 10 11  2  0
 13 12  1  6
 13 15  1  0
 14 13  1  0
 15 17  1  0
 15 16  1  1
 16 10  1  0
 17 18  2  0
 20 19  1  1
 20 22  1  0
 21 20  1  0
 22 24  1  0
 22 23  1  6
 23 17  1  0
 24 26  2  0
 24 25  1  0
M  END
$$$$
