FVT.pdb
     RDKit          3D

 26 26  0  0  1  0  0  0  0  0999 V2000
    7.7842  -17.0824   19.8111 N   0  0  0  0  0  0  0  0  0  0  0  0
    8.7251  -16.5713   20.7652 C   0  0  1  0  0  0  0  0  0  0  0  0
    8.0156  -15.4920   21.5739 C   0  0  0  0  0  0  0  0  0  0  0  0
    7.8745  -14.3133   20.6675 C   0  0  0  0  0  0  0  0  0  0  0  0
    6.6980  -14.0447   19.9992 C   0  0  0  0  0  0  0  0  0  0  0  0
    6.5415  -12.9606   19.1547 C   0  0  0  0  0  0  0  0  0  0  0  0
    7.6268  -12.0977   18.9709 C   0  0  0  0  0  0  0  0  0  0  0  0
    8.8163  -12.3378   19.6238 C   0  0  0  0  0  0  0  0  0  0  0  0
    8.9252  -13.4323   20.4565 C   0  0  0  0  0  0  0  0  0  0  0  0
    9.2467  -17.6452   21.6648 C   0  0  0  0  0  0  0  0  0  0  0  0
    8.5019  -18.5047   22.2033 O   0  0  0  0  0  0  0  0  0  0  0  0
   13.3674  -17.5256   22.5540 C   0  0  0  0  0  0  0  0  0  0  0  0
   12.6293  -18.8267   22.7300 C   0  0  1  0  0  0  0  0  0  0  0  0
   13.2316  -19.6922   23.7869 C   0  0  0  0  0  0  0  0  0  0  0  0
   11.1650  -18.6553   22.9482 C   0  0  2  0  0  0  0  0  0  0  0  0
   10.6373  -17.7306   21.9471 N   0  0  0  0  0  0  0  0  0  0  0  0
   10.9596  -18.0571   24.2969 C   0  0  0  0  0  0  0  0  0  0  0  0
   11.6735  -17.0796   24.6848 O   0  0  0  0  0  0  0  0  0  0  0  0
    7.8526  -16.6106   25.9544 C   0  0  0  0  0  0  0  0  0  0  0  0
    8.3164  -17.7565   26.8256 C   0  0  1  0  0  0  0  0  0  0  0  0
    7.5902  -18.8867   26.4523 O   0  0  0  0  0  0  0  0  0  0  0  0
    9.7800  -17.9923   26.5329 C   0  0  2  0  0  0  0  0  0  0  0  0
    9.9819  -18.5301   25.2025 N   0  0  0  0  0  0  0  0  0  0  0  0
   10.2713  -18.9885   27.5200 C   0  0  0  0  0  0  0  0  0  0  0  0
   10.3573  -18.7107   28.8779 O   0  0  0  0  0  0  0  0  0  0  0  0
   10.6392  -20.1509   27.1680 O   0  0  0  0  0  0  0  0  0  0  0  0
  2  1  1  6
  2 10  1  0
  3  2  1  0
  3  4  1  0
  4  9  2  0
  4  5  1  0
  5  6  2  0
  6  7  1  0
  8  7  2  0
  9  8  1  0
 10 11  2  0
 13 12  1  1
 13 15  1  0
 14 13  1  0
 15 17  1  0
 15 16  1  6
 16 10  1  0
 17 18  2  0
 20 19  1  6
 20 22  1  0
 21 20  1  0
 22 24  1  0
 22 23  1  6
 23 17  1  0
 24 26  2  0
 24 25  1  0
M  END
$$$$
