FVT.pdb
     RDKit          3D

 26 26  0  0  1  0  0  0  0  0999 V2000
    5.2022  -14.8163   22.0340 N   0  0  0  0  0  0  0  0  0  0  0  0
    6.3347  -15.5686   22.4902 C   0  0  1  0  0  0  0  0  0  0  0  0
    7.1006  -16.0344   21.2578 C   0  0  0  0  0  0  0  0  0  0  0  0
    7.4913  -14.7991   20.5148 C   0  0  0  0  0  0  0  0  0  0  0  0
    7.1654  -13.5395   20.9730 C   0  0  0  0  0  0  0  0  0  0  0  0
    7.5152  -12.3803   20.3043 C   0  0  0  0  0  0  0  0  0  0  0  0
    8.2322  -12.4920   19.1086 C   0  0  0  0  0  0  0  0  0  0  0  0
    8.5735  -13.7358   18.6235 C   0  0  0  0  0  0  0  0  0  0  0  0
    8.2026  -14.8640   19.3255 C   0  0  0  0  0  0  0  0  0  0  0  0
    7.2185  -14.7598   23.3841 C   0  0  0  0  0  0  0  0  0  0  0  0
    7.9212  -13.8039   22.9645 O   0  0  0  0  0  0  0  0  0  0  0  0
    6.4886  -12.8405   25.8831 C   0  0  0  0  0  0  0  0  0  0  0  0
    7.7886  -13.3760   26.4233 C   0  0  1  0  0  0  0  0  0  0  0  0
    7.7060  -13.7377   27.8695 C   0  0  0  0  0  0  0  0  0  0  0  0
    8.3482  -14.5005   25.6212 C   0  0  2  0  0  0  0  0  0  0  0  0
    7.2944  -15.0536   24.7730 N   0  0  0  0  0  0  0  0  0  0  0  0
    8.8041  -15.5636   26.5597 C   0  0  0  0  0  0  0  0  0  0  0  0
    8.0033  -16.0561   27.4151 O   0  0  0  0  0  0  0  0  0  0  0  0
   10.5063  -18.7743   25.4683 C   0  0  0  0  0  0  0  0  0  0  0  0
   11.3968  -18.1682   26.5299 C   0  0  1  0  0  0  0  0  0  0  0  0
   12.3987  -17.4516   25.8765 O   0  0  0  0  0  0  0  0  0  0  0  0
   10.5561  -17.2109   27.3422 C   0  0  2  0  0  0  0  0  0  0  0  0
   10.1226  -16.0747   26.5541 N   0  0  0  0  0  0  0  0  0  0  0  0
   11.4071  -16.7121   28.4536 C   0  0  0  0  0  0  0  0  0  0  0  0
   11.9708  -17.5603   29.3977 O   0  0  0  0  0  0  0  0  0  0  0  0
   11.6625  -15.4772   28.5958 O   0  0  0  0  0  0  0  0  0  0  0  0
  2  1  1  6
  2 10  1  0
  3  2  1  0
  3  4  1  0
  4  9  2  0
  4  5  1  0
  5  6  2  0
  6  7  1  0
  8  7  2  0
  9  8  1  0
 10 11  2  0
 13 12  1  6
 13 15  1  0
 14 13  1  0
 15 17  1  0
 15 16  1  6
 16 10  1  0
 17 18  2  0
 20 19  1  6
 20 22  1  0
 21 20  1  0
 22 24  1  0
 22 23  1  6
 23 17  1  0
 24 26  2  0
 24 25  1  0
M  END
$$$$
