FVT.pdb
     RDKit          3D

 26 26  0  0  1  0  0  0  0  0999 V2000
    5.4228  -17.2372   25.4410 N   0  0  0  0  0  0  0  0  0  0  0  0
    6.2734  -16.1345   25.0984 C   0  0  1  0  0  0  0  0  0  0  0  0
    7.1381  -15.8287   26.3154 C   0  0  0  0  0  0  0  0  0  0  0  0
    7.0983  -14.3467   26.4966 C   0  0  0  0  0  0  0  0  0  0  0  0
    8.2034  -13.5543   26.2649 C   0  0  0  0  0  0  0  0  0  0  0  0
    8.1927  -12.1806   26.4251 C   0  0  0  0  0  0  0  0  0  0  0  0
    7.0062  -11.5680   26.8412 C   0  0  0  0  0  0  0  0  0  0  0  0
    5.8842  -12.3310   27.0812 C   0  0  0  0  0  0  0  0  0  0  0  0
    5.9427  -13.6984   26.9077 C   0  0  0  0  0  0  0  0  0  0  0  0
    7.1270  -16.4368   23.9091 C   0  0  0  0  0  0  0  0  0  0  0  0
    7.6658  -17.5589   23.7243 O   0  0  0  0  0  0  0  0  0  0  0  0
    6.5375  -14.4689   20.2685 C   0  0  0  0  0  0  0  0  0  0  0  0
    7.9584  -14.6020   20.7501 C   0  0  1  0  0  0  0  0  0  0  0  0
    8.5102  -13.3191   21.2778 C   0  0  0  0  0  0  0  0  0  0  0  0
    8.1544  -15.7111   21.7261 C   0  0  2  0  0  0  0  0  0  0  0  0
    7.3628  -15.4393   22.9241 N   0  0  0  0  0  0  0  0  0  0  0  0
    9.5931  -15.7477   22.1104 C   0  0  0  0  0  0  0  0  0  0  0  0
   10.1412  -14.7390   22.6559 O   0  0  0  0  0  0  0  0  0  0  0  0
   11.7682  -18.0554   24.3712 C   0  0  0  0  0  0  0  0  0  0  0  0
   12.1998  -18.2018   22.9291 C   0  0  1  0  0  0  0  0  0  0  0  0
   11.4779  -19.2617   22.3817 O   0  0  0  0  0  0  0  0  0  0  0  0
   11.8279  -16.9274   22.2073 C   0  0  2  0  0  0  0  0  0  0  0  0
   10.4135  -16.8795   21.8960 N   0  0  0  0  0  0  0  0  0  0  0  0
   12.5890  -16.9064   20.9312 C   0  0  0  0  0  0  0  0  0  0  0  0
   13.9731  -16.8017   20.8918 O   0  0  0  0  0  0  0  0  0  0  0  0
   12.0071  -16.9836   19.8061 O   0  0  0  0  0  0  0  0  0  0  0  0
  2  1  1  1
  2 10  1  0
  3  2  1  0
  3  4  1  0
  4  9  2  0
  4  5  1  0
  5  6  2  0
  6  7  1  0
  8  7  2  0
  9  8  1  0
 10 11  2  0
 13 12  1  1
 13 15  1  0
 14 13  1  0
 15 17  1  0
 15 16  1  1
 16 10  1  0
 17 18  2  0
 20 19  1  1
 20 22  1  0
 21 20  1  0
 22 24  1  0
 22 23  1  6
 23 17  1  0
 24 26  2  0
 24 25  1  0
M  END
$$$$
