FVT.pdb
     RDKit          3D

 26 26  0  0  1  0  0  0  0  0999 V2000
    5.4356  -17.7579   24.8653 N   0  0  0  0  0  0  0  0  0  0  0  0
    6.1699  -16.5310   24.7545 C   0  0  1  0  0  0  0  0  0  0  0  0
    7.0747  -16.4277   25.9764 C   0  0  0  0  0  0  0  0  0  0  0  0
    7.2333  -14.9697   26.2589 C   0  0  0  0  0  0  0  0  0  0  0  0
    8.4748  -14.3743   26.3418 C   0  0  0  0  0  0  0  0  0  0  0  0
    8.6487  -13.0270   26.6020 C   0  0  0  0  0  0  0  0  0  0  0  0
    7.5126  -12.2331   26.7896 C   0  0  0  0  0  0  0  0  0  0  0  0
    6.2576  -12.7970   26.7133 C   0  0  0  0  0  0  0  0  0  0  0  0
    6.1338  -14.1458   26.4514 C   0  0  0  0  0  0  0  0  0  0  0  0
    6.9759  -16.4747   23.4969 C   0  0  0  0  0  0  0  0  0  0  0  0
    7.5823  -17.4739   23.0306 O   0  0  0  0  0  0  0  0  0  0  0  0
    7.9863  -12.7044   21.7994 C   0  0  0  0  0  0  0  0  0  0  0  0
    7.5781  -13.8366   20.8939 C   0  0  1  0  0  0  0  0  0  0  0  0
    8.2022  -13.7455   19.5407 C   0  0  0  0  0  0  0  0  0  0  0  0
    7.7922  -15.1844   21.4928 C   0  0  2  0  0  0  0  0  0  0  0  0
    7.0850  -15.2582   22.7695 N   0  0  0  0  0  0  0  0  0  0  0  0
    9.2493  -15.3561   21.7505 C   0  0  0  0  0  0  0  0  0  0  0  0
   10.1028  -15.0470   20.8608 O   0  0  0  0  0  0  0  0  0  0  0  0
   11.2184  -14.4171   25.1245 C   0  0  0  0  0  0  0  0  0  0  0  0
   11.4450  -15.8638   24.7464 C   0  0  1  0  0  0  0  0  0  0  0  0
   10.5216  -16.6313   25.4552 O   0  0  0  0  0  0  0  0  0  0  0  0
   11.1674  -16.0005   23.2674 C   0  0  2  0  0  0  0  0  0  0  0  0
    9.7559  -15.8606   22.9706 N   0  0  0  0  0  0  0  0  0  0  0  0
   11.5978  -17.3640   22.8630 C   0  0  0  0  0  0  0  0  0  0  0  0
   10.7121  -18.3027   22.3505 O   0  0  0  0  0  0  0  0  0  0  0  0
   12.8052  -17.7407   22.9669 O   0  0  0  0  0  0  0  0  0  0  0  0
  2  1  1  1
  2 10  1  0
  3  2  1  0
  3  4  1  0
  4  9  2  0
  4  5  1  0
  5  6  2  0
  6  7  1  0
  8  7  2  0
  9  8  1  0
 10 11  2  0
 13 12  1  1
 13 15  1  0
 14 13  1  0
 15 17  1  0
 15 16  1  1
 16 10  1  0
 17 18  2  0
 20 19  1  1
 20 22  1  0
 21 20  1  0
 22 24  1  0
 22 23  1  1
 23 17  1  0
 24 26  2  0
 24 25  1  0
M  END
$$$$
