FVT.pdb
     RDKit          3D

 26 26  0  0  1  0  0  0  0  0999 V2000
    9.4691  -15.6285   21.9407 N   0  0  0  0  0  0  0  0  0  0  0  0
    9.0055  -14.9651   23.1247 C   0  0  1  0  0  0  0  0  0  0  0  0
    7.4978  -15.1719   23.2040 C   0  0  0  0  0  0  0  0  0  0  0  0
    6.9899  -14.1794   24.1979 C   0  0  0  0  0  0  0  0  0  0  0  0
    6.4277  -14.5699   25.3955 C   0  0  0  0  0  0  0  0  0  0  0  0
    5.9502  -13.6714   26.3324 C   0  0  0  0  0  0  0  0  0  0  0  0
    6.0423  -12.3044   26.0513 C   0  0  0  0  0  0  0  0  0  0  0  0
    6.5987  -11.8811   24.8638 C   0  0  0  0  0  0  0  0  0  0  0  0
    7.0616  -12.8146   23.9597 C   0  0  0  0  0  0  0  0  0  0  0  0
    9.6736  -15.4880   24.3553 C   0  0  0  0  0  0  0  0  0  0  0  0
   10.1640  -16.6448   24.4254 O   0  0  0  0  0  0  0  0  0  0  0  0
    8.8550  -13.8163   28.0043 C   0  0  0  0  0  0  0  0  0  0  0  0
   10.3131  -14.1310   27.7962 C   0  0  1  0  0  0  0  0  0  0  0  0
   10.9890  -14.5839   29.0479 C   0  0  0  0  0  0  0  0  0  0  0  0
   10.5624  -15.0842   26.6779 C   0  0  2  0  0  0  0  0  0  0  0  0
    9.7783  -14.6729   25.5153 N   0  0  0  0  0  0  0  0  0  0  0  0
   10.1016  -16.4354   27.1031 C   0  0  0  0  0  0  0  0  0  0  0  0
    8.9327  -16.5998   27.5744 O   0  0  0  0  0  0  0  0  0  0  0  0
   10.4916  -19.8527   25.1245 C   0  0  0  0  0  0  0  0  0  0  0  0
   11.1118  -19.9756   26.4984 C   0  0  1  0  0  0  0  0  0  0  0  0
   12.4745  -19.7108   26.3677 O   0  0  0  0  0  0  0  0  0  0  0  0
   10.4869  -18.9194   27.3800 C   0  0  2  0  0  0  0  0  0  0  0  0
   10.9177  -17.5864   27.0093 N   0  0  0  0  0  0  0  0  0  0  0  0
   10.9350  -19.1861   28.7714 C   0  0  0  0  0  0  0  0  0  0  0  0
   11.7407  -18.3016   29.4763 O   0  0  0  0  0  0  0  0  0  0  0  0
   10.6010  -20.2434   29.3887 O   0  0  0  0  0  0  0  0  0  0  0  0
  2  1  1  6
  2 10  1  0
  3  2  1  0
  3  4  1  0
  4  9  2  0
  4  5  1  0
  5  6  2  0
  6  7  1  0
  8  7  2  0
  9  8  1  0
 10 11  2  0
 13 12  1  1
 13 15  1  0
 14 13  1  0
 15 17  1  0
 15 16  1  6
 16 10  1  0
 17 18  2  0
 20 19  1  6
 20 22  1  0
 21 20  1  0
 22 24  1  0
 22 23  1  6
 23 17  1  0
 24 26  2  0
 24 25  1  0
M  END
$$$$
