FVT.pdb
     RDKit          3D

 26 26  0  0  1  0  0  0  0  0999 V2000
    5.5194  -17.2475   25.3095 N   0  0  0  0  0  0  0  0  0  0  0  0
    6.2343  -16.0558   24.9550 C   0  0  1  0  0  0  0  0  0  0  0  0
    7.1587  -15.7144   26.1174 C   0  0  0  0  0  0  0  0  0  0  0  0
    7.0127  -14.2467   26.3524 C   0  0  0  0  0  0  0  0  0  0  0  0
    5.8024  -13.6803   26.6944 C   0  0  0  0  0  0  0  0  0  0  0  0
    5.6407  -12.3249   26.9173 C   0  0  0  0  0  0  0  0  0  0  0  0
    6.7567  -11.4914   26.7898 C   0  0  0  0  0  0  0  0  0  0  0  0
    7.9804  -12.0256   26.4493 C   0  0  0  0  0  0  0  0  0  0  0  0
    8.0931  -13.3840   26.2366 C   0  0  0  0  0  0  0  0  0  0  0  0
    7.0173  -16.2293   23.6936 C   0  0  0  0  0  0  0  0  0  0  0  0
    7.6034  -17.3027   23.3972 O   0  0  0  0  0  0  0  0  0  0  0  0
    8.1806  -12.8353   21.5023 C   0  0  0  0  0  0  0  0  0  0  0  0
    7.7212  -14.0387   20.7218 C   0  0  1  0  0  0  0  0  0  0  0  0
    8.3956  -14.1565   19.3951 C   0  0  0  0  0  0  0  0  0  0  0  0
    7.8155  -15.3149   21.4858 C   0  0  2  0  0  0  0  0  0  0  0  0
    7.1269  -15.1583   22.7653 N   0  0  0  0  0  0  0  0  0  0  0  0
    9.2536  -15.5938   21.7556 C   0  0  0  0  0  0  0  0  0  0  0  0
    9.9126  -14.8635   22.5605 O   0  0  0  0  0  0  0  0  0  0  0  0
   11.0659  -18.8638   22.9382 C   0  0  0  0  0  0  0  0  0  0  0  0
   11.5579  -18.4662   21.5645 C   0  0  1  0  0  0  0  0  0  0  0  0
   10.7728  -19.1377   20.6281 O   0  0  0  0  0  0  0  0  0  0  0  0
   11.3418  -16.9784   21.4125 C   0  0  2  0  0  0  0  0  0  0  0  0
    9.9529  -16.6616   21.1470 N   0  0  0  0  0  0  0  0  0  0  0  0
   12.1540  -16.5321   20.2510 C   0  0  0  0  0  0  0  0  0  0  0  0
   13.5381  -16.4337   20.3046 O   0  0  0  0  0  0  0  0  0  0  0  0
   11.6187  -16.2166   19.1445 O   0  0  0  0  0  0  0  0  0  0  0  0
  2  1  1  1
  2 10  1  0
  3  2  1  0
  3  4  1  0
  4  9  2  0
  4  5  1  0
  5  6  2  0
  6  7  1  0
  8  7  2  0
  9  8  1  0
 10 11  2  0
 13 12  1  1
 13 15  1  0
 14 13  1  0
 15 17  1  0
 15 16  1  1
 16 10  1  0
 17 18  2  0
 20 19  1  1
 20 22  1  0
 21 20  1  0
 22 24  1  0
 22 23  1  6
 23 17  1  0
 24 26  2  0
 24 25  1  0
M  END
$$$$
