FVT.pdb
     RDKit          3D

 26 26  0  0  1  0  0  0  0  0999 V2000
    6.0869  -17.3738   26.0007 N   0  0  0  0  0  0  0  0  0  0  0  0
    6.6135  -16.1632   25.4405 C   0  0  1  0  0  0  0  0  0  0  0  0
    7.5847  -15.5740   26.4563 C   0  0  0  0  0  0  0  0  0  0  0  0
    7.1628  -14.1568   26.6671 C   0  0  0  0  0  0  0  0  0  0  0  0
    5.8617  -13.7460   26.4644 C   0  0  0  0  0  0  0  0  0  0  0  0
    5.4456  -12.4405   26.6525 C   0  0  0  0  0  0  0  0  0  0  0  0
    6.3885  -11.4943   27.0674 C   0  0  0  0  0  0  0  0  0  0  0  0
    7.6966  -11.8721   27.2788 C   0  0  0  0  0  0  0  0  0  0  0  0
    8.0650  -13.1864   27.0782 C   0  0  0  0  0  0  0  0  0  0  0  0
    7.3001  -16.4049   24.1350 C   0  0  0  0  0  0  0  0  0  0  0  0
    7.8796  -17.4874   23.8597 O   0  0  0  0  0  0  0  0  0  0  0  0
    8.3534  -13.1239   21.7245 C   0  0  0  0  0  0  0  0  0  0  0  0
    7.8357  -14.3559   21.0298 C   0  0  1  0  0  0  0  0  0  0  0  0
    8.4241  -14.5407   19.6702 C   0  0  0  0  0  0  0  0  0  0  0  0
    7.9675  -15.5975   21.8436 C   0  0  2  0  0  0  0  0  0  0  0  0
    7.3203  -15.3920   23.1376 N   0  0  0  0  0  0  0  0  0  0  0  0
    9.4164  -15.8530   22.0766 C   0  0  0  0  0  0  0  0  0  0  0  0
   10.1085  -15.0501   22.7780 O   0  0  0  0  0  0  0  0  0  0  0  0
   11.3013  -19.1738   23.3122 C   0  0  0  0  0  0  0  0  0  0  0  0
   11.7264  -18.7621   21.9204 C   0  0  1  0  0  0  0  0  0  0  0  0
   10.9073  -19.4368   21.0159 O   0  0  0  0  0  0  0  0  0  0  0  0
   11.4870  -17.2760   21.7883 C   0  0  2  0  0  0  0  0  0  0  0  0
   10.0903  -16.9765   21.5443 N   0  0  0  0  0  0  0  0  0  0  0  0
   12.2775  -16.8050   20.6216 C   0  0  0  0  0  0  0  0  0  0  0  0
   11.6817  -16.3860   19.4393 O   0  0  0  0  0  0  0  0  0  0  0  0
   13.5455  -16.7621   20.6484 O   0  0  0  0  0  0  0  0  0  0  0  0
  2  1  1  1
  2 10  1  0
  3  2  1  0
  3  4  1  0
  4  9  2  0
  4  5  1  0
  5  6  2  0
  6  7  1  0
  8  7  2  0
  9  8  1  0
 10 11  2  0
 13 12  1  1
 13 15  1  0
 14 13  1  0
 15 17  1  0
 15 16  1  1
 16 10  1  0
 17 18  2  0
 20 19  1  1
 20 22  1  0
 21 20  1  0
 22 24  1  0
 22 23  1  6
 23 17  1  0
 24 26  2  0
 24 25  1  0
M  END
$$$$
