FVT.pdb
     RDKit          3D

 26 26  0  0  1  0  0  0  0  0999 V2000
    5.7575  -17.9051   25.5369 N   0  0  0  0  0  0  0  0  0  0  0  0
    6.3049  -16.5913   25.3606 C   0  0  1  0  0  0  0  0  0  0  0  0
    6.8260  -16.1276   26.7155 C   0  0  0  0  0  0  0  0  0  0  0  0
    6.7356  -14.6367   26.7119 C   0  0  0  0  0  0  0  0  0  0  0  0
    5.5233  -13.9800   26.7542 C   0  0  0  0  0  0  0  0  0  0  0  0
    5.4124  -12.6014   26.7519 C   0  0  0  0  0  0  0  0  0  0  0  0
    6.5842  -11.8393   26.7046 C   0  0  0  0  0  0  0  0  0  0  0  0
    7.8115  -12.4644   26.6616 C   0  0  0  0  0  0  0  0  0  0  0  0
    7.8723  -13.8426   26.6658 C   0  0  0  0  0  0  0  0  0  0  0  0
    7.3991  -16.5747   24.3424 C   0  0  0  0  0  0  0  0  0  0  0  0
    8.2914  -17.4602   24.2862 O   0  0  0  0  0  0  0  0  0  0  0  0
    6.7676  -14.2776   20.8786 C   0  0  0  0  0  0  0  0  0  0  0  0
    8.1802  -14.3856   21.3897 C   0  0  1  0  0  0  0  0  0  0  0  0
    8.6503  -13.1330   22.0523 C   0  0  0  0  0  0  0  0  0  0  0  0
    8.4080  -15.5714   22.2632 C   0  0  2  0  0  0  0  0  0  0  0  0
    7.4672  -15.5300   23.3807 N   0  0  0  0  0  0  0  0  0  0  0  0
    9.7917  -15.4920   22.8090 C   0  0  0  0  0  0  0  0  0  0  0  0
   10.1956  -14.4377   23.3928 O   0  0  0  0  0  0  0  0  0  0  0  0
   11.7445  -17.4322   25.4909 C   0  0  0  0  0  0  0  0  0  0  0  0
   12.3458  -17.7125   24.1318 C   0  0  1  0  0  0  0  0  0  0  0  0
   11.6969  -18.8308   23.6096 O   0  0  0  0  0  0  0  0  0  0  0  0
   12.0600  -16.5200   23.2488 C   0  0  2  0  0  0  0  0  0  0  0  0
   10.7146  -16.5591   22.7120 N   0  0  0  0  0  0  0  0  0  0  0  0
   13.0183  -16.5728   22.1144 C   0  0  0  0  0  0  0  0  0  0  0  0
   14.3784  -16.3454   22.2779 O   0  0  0  0  0  0  0  0  0  0  0  0
   12.6380  -16.8302   20.9314 O   0  0  0  0  0  0  0  0  0  0  0  0
  2  1  1  1
  2 10  1  0
  3  2  1  0
  3  4  1  0
  4  9  2  0
  4  5  1  0
  5  6  2  0
  6  7  1  0
  8  7  2  0
  9  8  1  0
 10 11  2  0
 13 12  1  1
 13 15  1  0
 14 13  1  0
 15 17  1  0
 15 16  1  1
 16 10  1  0
 17 18  2  0
 20 19  1  1
 20 22  1  0
 21 20  1  0
 22 24  1  0
 22 23  1  6
 23 17  1  0
 24 26  2  0
 24 25  1  0
M  END
$$$$
