FVT.pdb
     RDKit          3D

 26 26  0  0  1  0  0  0  0  0999 V2000
    6.0165  -18.2225   25.3867 N   0  0  0  0  0  0  0  0  0  0  0  0
    6.4746  -16.8753   25.2083 C   0  0  1  0  0  0  0  0  0  0  0  0
    7.2228  -16.4753   26.4742 C   0  0  0  0  0  0  0  0  0  0  0  0
    7.0503  -14.9984   26.6145 C   0  0  0  0  0  0  0  0  0  0  0  0
    8.1268  -14.1510   26.7754 C   0  0  0  0  0  0  0  0  0  0  0  0
    7.9941  -12.7806   26.9074 C   0  0  0  0  0  0  0  0  0  0  0  0
    6.7087  -12.2301   26.8761 C   0  0  0  0  0  0  0  0  0  0  0  0
    5.6121  -13.0490   26.7168 C   0  0  0  0  0  0  0  0  0  0  0  0
    5.7939  -14.4106   26.5890 C   0  0  0  0  0  0  0  0  0  0  0  0
    7.3583  -16.7405   24.0102 C   0  0  0  0  0  0  0  0  0  0  0  0
    8.0857  -17.6777   23.5907 O   0  0  0  0  0  0  0  0  0  0  0  0
    8.6870  -13.7558   20.2121 C   0  0  0  0  0  0  0  0  0  0  0  0
    7.8684  -14.0471   21.4424 C   0  0  1  0  0  0  0  0  0  0  0  0
    6.4076  -13.8262   21.2279 C   0  0  0  0  0  0  0  0  0  0  0  0
    8.1265  -15.3951   22.0234 C   0  0  2  0  0  0  0  0  0  0  0  0
    7.4054  -15.5165   23.2886 N   0  0  0  0  0  0  0  0  0  0  0  0
    9.5855  -15.5145   22.2992 C   0  0  0  0  0  0  0  0  0  0  0  0
   10.4361  -15.2911   21.3815 O   0  0  0  0  0  0  0  0  0  0  0  0
   11.4512  -14.7866   25.9303 C   0  0  0  0  0  0  0  0  0  0  0  0
   11.7733  -16.1394   25.3358 C   0  0  1  0  0  0  0  0  0  0  0  0
   10.9025  -17.0660   25.9079 O   0  0  0  0  0  0  0  0  0  0  0  0
   11.5057  -16.0633   23.8506 C   0  0  2  0  0  0  0  0  0  0  0  0
   10.0972  -15.8745   23.5674 N   0  0  0  0  0  0  0  0  0  0  0  0
   11.9324  -17.3583   23.2597 C   0  0  0  0  0  0  0  0  0  0  0  0
   13.2606  -17.7628   23.2338 O   0  0  0  0  0  0  0  0  0  0  0  0
   11.0978  -18.1643   22.7458 O   0  0  0  0  0  0  0  0  0  0  0  0
  2  1  1  1
  2 10  1  0
  3  2  1  0
  3  4  1  0
  4  9  2  0
  4  5  1  0
  5  6  2  0
  6  7  1  0
  8  7  2  0
  9  8  1  0
 10 11  2  0
 13 12  1  6
 13 15  1  0
 14 13  1  0
 15 17  1  0
 15 16  1  1
 16 10  1  0
 17 18  2  0
 20 19  1  1
 20 22  1  0
 21 20  1  0
 22 24  1  0
 22 23  1  1
 23 17  1  0
 24 26  2  0
 24 25  1  0
M  END
$$$$
