FVT.pdb
     RDKit          3D

 26 26  0  0  1  0  0  0  0  0999 V2000
    5.7870  -17.4580   25.6992 N   0  0  0  0  0  0  0  0  0  0  0  0
    6.4485  -16.2614   25.2661 C   0  0  1  0  0  0  0  0  0  0  0  0
    7.2629  -15.7377   26.4428 C   0  0  0  0  0  0  0  0  0  0  0  0
    6.9749  -14.2750   26.5344 C   0  0  0  0  0  0  0  0  0  0  0  0
    7.9228  -13.3244   26.2176 C   0  0  0  0  0  0  0  0  0  0  0  0
    7.6815  -11.9646   26.2939 C   0  0  0  0  0  0  0  0  0  0  0  0
    6.4177  -11.5352   26.7118 C   0  0  0  0  0  0  0  0  0  0  0  0
    5.4482  -12.4593   27.0357 C   0  0  0  0  0  0  0  0  0  0  0  0
    5.7353  -13.8055   26.9441 C   0  0  0  0  0  0  0  0  0  0  0  0
    7.3300  -16.5077   24.0843 C   0  0  0  0  0  0  0  0  0  0  0  0
    7.9593  -17.5844   23.9159 O   0  0  0  0  0  0  0  0  0  0  0  0
    6.5046  -14.8314   20.3663 C   0  0  0  0  0  0  0  0  0  0  0  0
    7.9233  -14.7162   20.8586 C   0  0  1  0  0  0  0  0  0  0  0  0
    8.2587  -13.3407   21.3323 C   0  0  0  0  0  0  0  0  0  0  0  0
    8.2826  -15.7377   21.8827 C   0  0  2  0  0  0  0  0  0  0  0  0
    7.4889  -15.5065   23.0877 N   0  0  0  0  0  0  0  0  0  0  0  0
    9.7220  -15.5692   22.2270 C   0  0  0  0  0  0  0  0  0  0  0  0
   10.2674  -14.4222   22.1773 O   0  0  0  0  0  0  0  0  0  0  0  0
   11.6519  -16.1665   25.3810 C   0  0  0  0  0  0  0  0  0  0  0  0
   12.2272  -17.1052   24.3440 C   0  0  1  0  0  0  0  0  0  0  0  0
   11.5555  -18.3214   24.4618 O   0  0  0  0  0  0  0  0  0  0  0  0
   11.9425  -16.5148   22.9825 C   0  0  2  0  0  0  0  0  0  0  0  0
   10.5460  -16.6493   22.6200 N   0  0  0  0  0  0  0  0  0  0  0  0
   12.7571  -17.2707   21.9960 C   0  0  0  0  0  0  0  0  0  0  0  0
   14.1454  -17.2766   22.0258 O   0  0  0  0  0  0  0  0  0  0  0  0
   12.2200  -17.9533   21.0707 O   0  0  0  0  0  0  0  0  0  0  0  0
  2  1  1  1
  2 10  1  0
  3  2  1  0
  3  4  1  0
  4  9  2  0
  4  5  1  0
  5  6  2  0
  6  7  1  0
  8  7  2  0
  9  8  1  0
 10 11  2  0
 13 12  1  1
 13 15  1  0
 14 13  1  0
 15 17  1  0
 15 16  1  1
 16 10  1  0
 17 18  2  0
 20 19  1  1
 20 22  1  0
 21 20  1  0
 22 24  1  0
 22 23  1  6
 23 17  1  0
 24 26  2  0
 24 25  1  0
M  END
$$$$
