KQH.pdb
     RDKit          3D

 29 29  0  0  1  0  0  0  0  0999 V2000
   18.5601  -13.9555  -15.9439 N   0  0  0  0  0  0  0  0  0  0  0  0
   19.4568  -13.1891  -16.7887 C   0  0  1  0  0  0  0  0  0  0  0  0
   19.5885  -13.8160  -18.1324 C   0  0  0  0  0  0  0  0  0  0  0  0
   19.0728  -15.1963  -18.2846 C   0  0  0  0  0  0  0  0  0  0  0  0
   20.0004  -16.3099  -17.9774 C   0  0  0  0  0  0  0  0  0  0  0  0
   19.2161  -17.6096  -18.2254 C   0  0  0  0  0  0  0  0  0  0  0  0
   20.1362  -18.6964  -17.9209 N   0  0  0  0  0  0  0  0  0  0  0  0
   18.8607  -11.8371  -16.9504 C   0  0  0  0  0  0  0  0  0  0  0  0
   19.4440  -10.9681  -17.6656 O   0  0  0  0  0  0  0  0  0  0  0  0
   13.2761  -10.1920  -14.4885 N   0  0  0  0  0  0  0  0  0  0  0  0
   13.6863   -8.9831  -15.0961 C   0  0  0  0  0  0  0  0  0  0  0  0
   12.9366   -7.9783  -15.0562 O   0  0  0  0  0  0  0  0  0  0  0  0
   14.9947   -8.8880  -15.7816 C   0  0  0  0  0  0  0  0  0  0  0  0
   15.6860  -10.1990  -15.7002 C   0  0  0  0  0  0  0  0  0  0  0  0
   17.0707  -10.1879  -16.3075 C   0  0  2  0  0  0  0  0  0  0  0  0
   17.6402  -11.4961  -16.3145 N   0  0  0  0  0  0  0  0  0  0  0  0
   17.9219   -9.1980  -15.5851 C   0  0  0  0  0  0  0  0  0  0  0  0
   18.6569   -9.5567  -14.6090 O   0  0  0  0  0  0  0  0  0  0  0  0
   17.9655   -7.8288  -15.9307 N   0  0  0  0  0  0  0  0  0  0  0  0
   18.7894   -6.8510  -15.2211 C   0  0  1  0  0  0  0  0  0  0  0  0
   20.2046   -6.8573  -15.7449 C   0  0  0  0  0  0  0  0  0  0  0  0
   21.0576   -5.8341  -15.1128 C   0  0  0  0  0  0  0  0  0  0  0  0
   21.7860   -5.9873  -13.9538 C   0  0  0  0  0  0  0  0  0  0  0  0
   22.4400   -4.8474  -13.6739 N   0  0  0  0  0  0  0  0  0  0  0  0
   22.1431   -3.9592  -14.6381 C   0  0  0  0  0  0  0  0  0  0  0  0
   21.2972   -4.5680  -15.5157 N   0  0  0  0  0  0  0  0  0  0  0  0
   18.1595   -5.5162  -15.2161 C   0  0  0  0  0  0  0  0  0  0  0  0
   17.1305   -5.2292  -15.8628 O   0  0  0  0  0  0  0  0  0  0  0  0
   18.7514   -4.5264  -14.4446 O   0  0  0  0  0  0  0  0  0  0  0  0
  2  1  1  1
  3  2  1  0
  3  4  1  0
  5  6  1  0
  5  4  1  0
  7  6  1  0
  8  9  2  0
  8  2  1  0
 10 11  1  0
 11 13  1  0
 12 11  2  0
 13 14  1  0
 15 14  1  1
 15 17  1  0
 15 16  1  0
 16  8  1  0
 17 19  1  0
 18 17  2  0
 19 20  1  0
 20 27  1  0
 21 22  1  0
 20 21  1  6
 22 26  1  0
 23 24  1  0
 23 22  2  0
 24 25  1  0
 25 26  2  0
 27 28  2  0
 27 29  1  0
M  END
$$$$
