KQH.pdb
     RDKit          3D

 29 29  0  0  1  0  0  0  0  0999 V2000
   29.7112  -33.8663  -16.4103 N   0  0  0  0  0  0  0  0  0  0  0  0
   29.0107  -32.6015  -16.2878 C   0  0  1  0  0  0  0  0  0  0  0  0
   29.5285  -31.6087  -17.2686 C   0  0  0  0  0  0  0  0  0  0  0  0
   30.9153  -31.1269  -17.0703 C   0  0  0  0  0  0  0  0  0  0  0  0
   31.3725  -29.9961  -17.9113 C   0  0  0  0  0  0  0  0  0  0  0  0
   32.8567  -29.7756  -17.5731 C   0  0  0  0  0  0  0  0  0  0  0  0
   33.2516  -28.5636  -18.2771 N   0  0  0  0  0  0  0  0  0  0  0  0
   27.5778  -32.8617  -16.5850 C   0  0  0  0  0  0  0  0  0  0  0  0
   27.2575  -33.7137  -17.4673 O   0  0  0  0  0  0  0  0  0  0  0  0
   23.1461  -32.0024  -12.3867 N   0  0  0  0  0  0  0  0  0  0  0  0
   23.9755  -33.1382  -12.5313 C   0  0  0  0  0  0  0  0  0  0  0  0
   24.0877  -33.9541  -11.5852 O   0  0  0  0  0  0  0  0  0  0  0  0
   24.7161  -33.3775  -13.7903 C   0  0  0  0  0  0  0  0  0  0  0  0
   24.4174  -32.2844  -14.7489 C   0  0  0  0  0  0  0  0  0  0  0  0
   25.1560  -32.4166  -16.0618 C   0  0  2  0  0  0  0  0  0  0  0  0
   26.5512  -32.1691  -15.8946 N   0  0  0  0  0  0  0  0  0  0  0  0
   24.5331  -31.5155  -17.0749 C   0  0  0  0  0  0  0  0  0  0  0  0
   25.1894  -30.5490  -17.5817 O   0  0  0  0  0  0  0  0  0  0  0  0
   23.2039  -31.6739  -17.5267 N   0  0  0  0  0  0  0  0  0  0  0  0
   22.6052  -30.8308  -18.5607 C   0  0  1  0  0  0  0  0  0  0  0  0
   23.5074  -30.7343  -19.7665 C   0  0  0  0  0  0  0  0  0  0  0  0
   22.9039  -29.9773  -20.8786 C   0  0  0  0  0  0  0  0  0  0  0  0
   22.3969  -28.6984  -20.8096 C   0  0  0  0  0  0  0  0  0  0  0  0
   21.9239  -28.3313  -22.0124 N   0  0  0  0  0  0  0  0  0  0  0  0
   22.1192  -29.3576  -22.8583 C   0  0  0  0  0  0  0  0  0  0  0  0
   22.7190  -30.3618  -22.1596 N   0  0  0  0  0  0  0  0  0  0  0  0
   21.2286  -31.2592  -18.8766 C   0  0  0  0  0  0  0  0  0  0  0  0
   20.6259  -32.1692  -18.2700 O   0  0  0  0  0  0  0  0  0  0  0  0
   20.5713  -30.6073  -19.9103 O   0  0  0  0  0  0  0  0  0  0  0  0
  2  1  1  6
  3  2  1  0
  3  4  1  0
  5  6  1  0
  5  4  1  0
  7  6  1  0
  8  9  2  0
  8  2  1  0
 10 11  1  0
 11 13  1  0
 12 11  2  0
 13 14  1  0
 15 14  1  1
 15 17  1  0
 15 16  1  0
 16  8  1  0
 17 19  1  0
 18 17  2  0
 19 20  1  0
 20 27  1  0
 21 22  1  0
 20 21  1  6
 22 26  1  0
 23 24  1  0
 23 22  2  0
 24 25  1  0
 25 26  2  0
 27 28  2  0
 27 29  1  0
M  END
$$$$
