KQH.pdb
     RDKit          3D

 29 29  0  0  1  0  0  0  0  0999 V2000
   45.5348  -11.4425   -6.4050 N   0  0  0  0  0  0  0  0  0  0  0  0
   44.2998  -11.3603   -5.6478 C   0  0  1  0  0  0  0  0  0  0  0  0
   44.5201  -10.6823   -4.3411 C   0  0  0  0  0  0  0  0  0  0  0  0
   45.8614  -10.1004   -4.1026 C   0  0  0  0  0  0  0  0  0  0  0  0
   46.1138   -9.4862   -2.7781 C   0  0  0  0  0  0  0  0  0  0  0  0
   47.5363   -8.9035   -2.8336 C   0  0  0  0  0  0  0  0  0  0  0  0
   47.7319   -8.2049   -1.5710 N   0  0  0  0  0  0  0  0  0  0  0  0
   43.3454  -10.5505   -6.4495 C   0  0  0  0  0  0  0  0  0  0  0  0
   43.7735   -9.8001   -7.3772 O   0  0  0  0  0  0  0  0  0  0  0  0
   37.0923  -11.1665   -5.9725 N   0  0  0  0  0  0  0  0  0  0  0  0
   37.1920  -10.1032   -6.8990 C   0  0  0  0  0  0  0  0  0  0  0  0
   36.1515   -9.5987   -7.3849 O   0  0  0  0  0  0  0  0  0  0  0  0
   38.5142   -9.5759   -7.3044 C   0  0  0  0  0  0  0  0  0  0  0  0
   39.5809  -10.3758   -6.6520 C   0  0  0  0  0  0  0  0  0  0  0  0
   40.9730   -9.8419   -6.9040 C   0  0  2  0  0  0  0  0  0  0  0  0
   41.9515  -10.6008   -6.1952 N   0  0  0  0  0  0  0  0  0  0  0  0
   41.0176   -8.3903   -6.5617 C   0  0  0  0  0  0  0  0  0  0  0  0
   41.0560   -8.0055   -5.3484 O   0  0  0  0  0  0  0  0  0  0  0  0
   41.0200   -7.3721   -7.5411 N   0  0  0  0  0  0  0  0  0  0  0  0
   40.9663   -5.9478   -7.2137 C   0  0  1  0  0  0  0  0  0  0  0  0
   42.1938   -5.2316   -7.7213 C   0  0  0  0  0  0  0  0  0  0  0  0
   42.2140   -3.8006   -7.3665 C   0  0  0  0  0  0  0  0  0  0  0  0
   41.3203   -3.1564   -6.5396 C   0  0  0  0  0  0  0  0  0  0  0  0
   41.6424   -1.8552   -6.4480 N   0  0  0  0  0  0  0  0  0  0  0  0
   42.7336   -1.6505   -7.2058 C   0  0  0  0  0  0  0  0  0  0  0  0
   43.0790   -2.8438   -7.7652 N   0  0  0  0  0  0  0  0  0  0  0  0
   39.6950   -5.3403   -7.6530 C   0  0  0  0  0  0  0  0  0  0  0  0
   38.8918   -5.8931   -8.4332 O   0  0  0  0  0  0  0  0  0  0  0  0
   39.3802   -4.0797   -7.1660 O   0  0  0  0  0  0  0  0  0  0  0  0
  2  1  1  6
  3  2  1  0
  3  4  1  0
  5  6  1  0
  5  4  1  0
  7  6  1  0
  8  9  2  0
  8  2  1  0
 10 11  1  0
 11 13  1  0
 12 11  2  0
 13 14  1  0
 15 14  1  1
 15 17  1  0
 15 16  1  0
 16  8  1  0
 17 19  1  0
 18 17  2  0
 19 20  1  0
 20 27  1  0
 21 22  1  0
 20 21  1  6
 22 26  1  0
 23 24  1  0
 23 22  2  0
 24 25  1  0
 25 26  2  0
 27 28  2  0
 27 29  1  0
M  END
$$$$
