KQH.pdb
     RDKit          3D

 29 29  0  0  1  0  0  0  0  0999 V2000
   26.9648  -19.6853  -13.7856 N   0  0  0  0  0  0  0  0  0  0  0  0
   26.5234  -19.3919  -15.1363 C   0  0  1  0  0  0  0  0  0  0  0  0
   25.5495  -20.4122  -15.6119 C   0  0  0  0  0  0  0  0  0  0  0  0
   24.4176  -20.7332  -14.7118 C   0  0  0  0  0  0  0  0  0  0  0  0
   23.4233  -21.7219  -15.1904 C   0  0  0  0  0  0  0  0  0  0  0  0
   22.3295  -21.7951  -14.1115 C   0  0  0  0  0  0  0  0  0  0  0  0
   21.3547  -22.7628  -14.5951 N   0  0  0  0  0  0  0  0  0  0  0  0
   25.8474  -18.0687  -15.1005 C   0  0  0  0  0  0  0  0  0  0  0  0
   25.2996  -17.6649  -14.0310 O   0  0  0  0  0  0  0  0  0  0  0  0
   26.9719  -13.3700  -19.0777 N   0  0  0  0  0  0  0  0  0  0  0  0
   27.8162  -13.9699  -18.1154 C   0  0  0  0  0  0  0  0  0  0  0  0
   29.0536  -13.7687  -18.1581 O   0  0  0  0  0  0  0  0  0  0  0  0
   27.2560  -14.8358  -17.0538 C   0  0  0  0  0  0  0  0  0  0  0  0
   25.8134  -15.0637  -17.3189 C   0  0  0  0  0  0  0  0  0  0  0  0
   25.1516  -15.9716  -16.3069 C   0  0  2  0  0  0  0  0  0  0  0  0
   25.8023  -17.2401  -16.2502 N   0  0  0  0  0  0  0  0  0  0  0  0
   23.6976  -16.0888  -16.6209 C   0  0  0  0  0  0  0  0  0  0  0  0
   23.2189  -17.1624  -17.1106 O   0  0  0  0  0  0  0  0  0  0  0  0
   22.7791  -15.0383  -16.3996 N   0  0  0  0  0  0  0  0  0  0  0  0
   21.3876  -15.2620  -16.0094 C   0  0  1  0  0  0  0  0  0  0  0  0
   21.3069  -16.1117  -14.7649 C   0  0  0  0  0  0  0  0  0  0  0  0
   19.9208  -16.3936  -14.3486 C   0  0  0  0  0  0  0  0  0  0  0  0
   18.9303  -16.9357  -15.1376 C   0  0  0  0  0  0  0  0  0  0  0  0
   17.7940  -17.0461  -14.4290 N   0  0  0  0  0  0  0  0  0  0  0  0
   18.0382  -16.5818  -13.1913 C   0  0  0  0  0  0  0  0  0  0  0  0
   19.3405  -16.1841  -13.1477 N   0  0  0  0  0  0  0  0  0  0  0  0
   20.6422  -13.9916  -15.9155 C   0  0  0  0  0  0  0  0  0  0  0  0
   19.5425  -13.7867  -16.4706 O   0  0  0  0  0  0  0  0  0  0  0  0
   21.2028  -12.9687  -15.1639 O   0  0  0  0  0  0  0  0  0  0  0  0
  2  1  1  1
  3  2  1  0
  3  4  1  0
  5  6  1  0
  5  4  1  0
  7  6  1  0
  8  9  2  0
  8  2  1  0
 10 11  1  0
 11 13  1  0
 12 11  2  0
 13 14  1  0
 15 14  1  6
 15 17  1  0
 15 16  1  0
 16  8  1  0
 17 19  1  0
 18 17  2  0
 19 20  1  0
 20 27  1  0
 21 22  1  0
 20 21  1  1
 22 26  1  0
 23 24  1  0
 23 22  2  0
 24 25  1  0
 25 26  2  0
 27 28  2  0
 27 29  1  0
M  END
$$$$
