KQH.pdb
     RDKit          3D

 29 29  0  0  1  0  0  0  0  0999 V2000
   23.8835  -14.1459  -16.6012 N   0  0  0  0  0  0  0  0  0  0  0  0
   22.7690  -13.3411  -17.0654 C   0  0  1  0  0  0  0  0  0  0  0  0
   21.5054  -13.7389  -16.3865 C   0  0  0  0  0  0  0  0  0  0  0  0
   21.0249  -15.1214  -16.6152 C   0  0  0  0  0  0  0  0  0  0  0  0
   19.7325  -15.5058  -16.0011 C   0  0  0  0  0  0  0  0  0  0  0  0
   19.4877  -16.9743  -16.3877 C   0  0  0  0  0  0  0  0  0  0  0  0
   18.2918  -17.3842  -15.6650 N   0  0  0  0  0  0  0  0  0  0  0  0
   23.0719  -11.9281  -16.7177 C   0  0  0  0  0  0  0  0  0  0  0  0
   23.5336  -11.6417  -15.5724 O   0  0  0  0  0  0  0  0  0  0  0  0
   24.1348   -7.5498  -20.9422 N   0  0  0  0  0  0  0  0  0  0  0  0
   25.1041   -8.4038  -20.3676 C   0  0  0  0  0  0  0  0  0  0  0  0
   26.2075   -8.5707  -20.9404 O   0  0  0  0  0  0  0  0  0  0  0  0
   24.8320   -9.1061  -19.0934 C   0  0  0  0  0  0  0  0  0  0  0  0
   23.4723   -8.7479  -18.6181 C   0  0  0  0  0  0  0  0  0  0  0  0
   23.0528   -9.4978  -17.3738 C   0  0  2  0  0  0  0  0  0  0  0  0
   22.8527  -10.8831  -17.6506 N   0  0  0  0  0  0  0  0  0  0  0  0
   21.8419   -8.8512  -16.7889 C   0  0  0  0  0  0  0  0  0  0  0  0
   20.6740   -9.1778  -17.1776 O   0  0  0  0  0  0  0  0  0  0  0  0
   21.9126   -7.8567  -15.7879 N   0  0  0  0  0  0  0  0  0  0  0  0
   20.7296   -7.2547  -15.1742 C   0  0  1  0  0  0  0  0  0  0  0  0
   19.9917   -8.2609  -14.3256 C   0  0  0  0  0  0  0  0  0  0  0  0
   19.2118   -9.2255  -15.1227 C   0  0  0  0  0  0  0  0  0  0  0  0
   18.1574   -8.9250  -15.9566 C   0  0  0  0  0  0  0  0  0  0  0  0
   17.6846  -10.0516  -16.5157 N   0  0  0  0  0  0  0  0  0  0  0  0
   18.4207  -11.0768  -16.0531 C   0  0  0  0  0  0  0  0  0  0  0  0
   19.3535  -10.5658  -15.2015 N   0  0  0  0  0  0  0  0  0  0  0  0
   21.0663   -6.0056  -14.4637 C   0  0  0  0  0  0  0  0  0  0  0  0
   22.2221   -5.5395  -14.3840 O   0  0  0  0  0  0  0  0  0  0  0  0
   20.0319   -5.3134  -13.8503 O   0  0  0  0  0  0  0  0  0  0  0  0
  2  1  1  1
  3  2  1  0
  3  4  1  0
  5  6  1  0
  5  4  1  0
  7  6  1  0
  8  9  2  0
  8  2  1  0
 10 11  1  0
 11 13  1  0
 12 11  2  0
 13 14  1  0
 15 14  1  6
 15 17  1  0
 15 16  1  0
 16  8  1  0
 17 19  1  0
 18 17  2  0
 19 20  1  0
 20 27  1  0
 21 22  1  0
 20 21  1  1
 22 26  1  0
 23 24  1  0
 23 22  2  0
 24 25  1  0
 25 26  2  0
 27 28  2  0
 27 29  1  0
M  END
$$$$
