KQH.pdb
     RDKit          3D

 29 29  0  0  1  0  0  0  0  0999 V2000
   30.2831  -35.5742   -8.9377 N   0  0  0  0  0  0  0  0  0  0  0  0
   30.6608  -34.4962   -8.0430 C   0  0  1  0  0  0  0  0  0  0  0  0
   29.7007  -33.3627   -8.1396 C   0  0  0  0  0  0  0  0  0  0  0  0
   28.2596  -33.6913   -8.0421 C   0  0  0  0  0  0  0  0  0  0  0  0
   27.2912  -32.5983   -8.2928 C   0  0  0  0  0  0  0  0  0  0  0  0
   25.8930  -33.2379   -8.2477 C   0  0  0  0  0  0  0  0  0  0  0  0
   24.9554  -32.1732   -8.5759 N   0  0  0  0  0  0  0  0  0  0  0  0
   30.6202  -35.0381   -6.6595 C   0  0  0  0  0  0  0  0  0  0  0  0
   29.8409  -35.9970   -6.3765 O   0  0  0  0  0  0  0  0  0  0  0  0
   35.2994  -34.1577   -2.6265 N   0  0  0  0  0  0  0  0  0  0  0  0
   34.3915  -34.8796   -1.8182 C   0  0  0  0  0  0  0  0  0  0  0  0
   34.7307  -35.2379   -0.6649 O   0  0  0  0  0  0  0  0  0  0  0  0
   33.0402  -35.2192   -2.3177 C   0  0  0  0  0  0  0  0  0  0  0  0
   32.8923  -34.7187   -3.7073 C   0  0  0  0  0  0  0  0  0  0  0  0
   31.5438  -35.0272   -4.3177 C   0  0  2  0  0  0  0  0  0  0  0  0
   31.4440  -34.4988   -5.6393 N   0  0  0  0  0  0  0  0  0  0  0  0
   30.4647  -34.5243   -3.4182 C   0  0  0  0  0  0  0  0  0  0  0  0
   29.8148  -33.4672   -3.7043 O   0  0  0  0  0  0  0  0  0  0  0  0
   30.1031  -35.1751   -2.2175 N   0  0  0  0  0  0  0  0  0  0  0  0
   28.8278  -34.9493   -1.5385 C   0  0  1  0  0  0  0  0  0  0  0  0
   27.6713  -35.1237   -2.4921 C   0  0  0  0  0  0  0  0  0  0  0  0
   26.3630  -34.8594   -1.8657 C   0  0  0  0  0  0  0  0  0  0  0  0
   26.1025  -33.9155   -0.8969 C   0  0  0  0  0  0  0  0  0  0  0  0
   24.8032  -33.9591   -0.5574 N   0  0  0  0  0  0  0  0  0  0  0  0
   24.2206  -34.9200   -1.2951 C   0  0  0  0  0  0  0  0  0  0  0  0
   25.1793  -35.4674   -2.0936 N   0  0  0  0  0  0  0  0  0  0  0  0
   28.7184  -35.7614   -0.3109 C   0  0  0  0  0  0  0  0  0  0  0  0
   28.8746  -37.0000   -0.2790 O   0  0  0  0  0  0  0  0  0  0  0  0
   28.4243  -35.1026    0.8743 O   0  0  0  0  0  0  0  0  0  0  0  0
  2  1  1  6
  3  2  1  0
  3  4  1  0
  5  6  1  0
  5  4  1  0
  7  6  1  0
  8  9  2  0
  8  2  1  0
 10 11  1  0
 11 13  1  0
 12 11  2  0
 13 14  1  0
 15 14  1  1
 15 17  1  0
 15 16  1  0
 16  8  1  0
 17 19  1  0
 18 17  2  0
 19 20  1  0
 20 27  1  0
 21 22  1  0
 20 21  1  6
 22 26  1  0
 23 24  1  0
 23 22  2  0
 24 25  1  0
 25 26  2  0
 27 28  2  0
 27 29  1  0
M  END
$$$$
