KQH.pdb
     RDKit          3D

 29 29  0  0  1  0  0  0  0  0999 V2000
   24.2257  -11.9838  -17.5529 N   0  0  0  0  0  0  0  0  0  0  0  0
   23.5248  -10.8031  -18.0220 C   0  0  1  0  0  0  0  0  0  0  0  0
   22.5495  -11.1524  -19.0910 C   0  0  0  0  0  0  0  0  0  0  0  0
   22.4424  -12.5821  -19.4634 C   0  0  0  0  0  0  0  0  0  0  0  0
   21.1553  -13.2641  -19.1923 C   0  0  0  0  0  0  0  0  0  0  0  0
   21.2467  -14.6462  -19.8612 C   0  0  0  0  0  0  0  0  0  0  0  0
   20.0330  -15.3555  -19.4814 N   0  0  0  0  0  0  0  0  0  0  0  0
   22.7810  -10.2436  -16.8632 C   0  0  0  0  0  0  0  0  0  0  0  0
   22.1543  -11.0171  -16.0783 O   0  0  0  0  0  0  0  0  0  0  0  0
   23.3063   -4.2689  -14.9438 N   0  0  0  0  0  0  0  0  0  0  0  0
   22.2715   -4.7392  -14.1030 C   0  0  0  0  0  0  0  0  0  0  0  0
   21.8171   -3.9989  -13.1981 O   0  0  0  0  0  0  0  0  0  0  0  0
   21.7156   -6.0998  -14.2777 C   0  0  0  0  0  0  0  0  0  0  0  0
   22.4549   -6.7949  -15.3610 C   0  0  0  0  0  0  0  0  0  0  0  0
   22.0112   -8.2251  -15.5708 C   0  0  2  0  0  0  0  0  0  0  0  0
   22.7580   -8.8479  -16.6149 N   0  0  0  0  0  0  0  0  0  0  0  0
   20.5408   -8.2571  -15.8224 C   0  0  0  0  0  0  0  0  0  0  0  0
   20.0671   -7.9664  -16.9682 O   0  0  0  0  0  0  0  0  0  0  0  0
   19.6007   -8.6045  -14.8267 N   0  0  0  0  0  0  0  0  0  0  0  0
   18.1569   -8.6146  -15.0590 C   0  0  1  0  0  0  0  0  0  0  0  0
   17.5949  -10.0057  -14.8975 C   0  0  0  0  0  0  0  0  0  0  0  0
   16.1372  -10.0666  -15.1105 C   0  0  0  0  0  0  0  0  0  0  0  0
   15.3117   -8.9990  -15.3868 C   0  0  0  0  0  0  0  0  0  0  0  0
   14.0439   -9.4256  -15.5140 N   0  0  0  0  0  0  0  0  0  0  0  0
   14.0400  -10.7562  -15.3233 C   0  0  0  0  0  0  0  0  0  0  0  0
   15.3229  -11.1430  -15.0769 N   0  0  0  0  0  0  0  0  0  0  0  0
   17.4714   -7.5941  -14.2423 C   0  0  0  0  0  0  0  0  0  0  0  0
   16.2495   -7.3476  -14.3175 O   0  0  0  0  0  0  0  0  0  0  0  0
   18.2364   -6.8696  -13.3395 O   0  0  0  0  0  0  0  0  0  0  0  0
  2  1  1  1
  3  2  1  0
  3  4  1  0
  5  6  1  0
  5  4  1  0
  7  6  1  0
  8  9  2  0
  8  2  1  0
 10 11  1  0
 11 13  1  0
 12 11  2  0
 13 14  1  0
 15 14  1  6
 15 17  1  0
 15 16  1  0
 16  8  1  0
 17 19  1  0
 18 17  2  0
 19 20  1  0
 20 27  1  0
 21 22  1  0
 20 21  1  1
 22 26  1  0
 23 24  1  0
 23 22  2  0
 24 25  1  0
 25 26  2  0
 27 28  2  0
 27 29  1  0
M  END
$$$$
