KQH.pdb
     RDKit          3D

 29 29  0  0  1  0  0  0  0  0999 V2000
   21.3643  -16.7966  -18.1539 N   0  0  0  0  0  0  0  0  0  0  0  0
   21.1242  -15.9109  -17.0300 C   0  0  1  0  0  0  0  0  0  0  0  0
   21.9936  -16.2676  -15.8755 C   0  0  0  0  0  0  0  0  0  0  0  0
   21.8957  -17.6537  -15.3622 C   0  0  0  0  0  0  0  0  0  0  0  0
   20.6273  -18.0519  -14.7081 C   0  0  0  0  0  0  0  0  0  0  0  0
   20.8276  -19.4949  -14.2143 C   0  0  0  0  0  0  0  0  0  0  0  0
   19.5921  -19.8607  -13.5360 N   0  0  0  0  0  0  0  0  0  0  0  0
   21.4642  -14.5340  -17.4746 C   0  0  0  0  0  0  0  0  0  0  0  0
   22.4087  -14.3488  -18.2995 O   0  0  0  0  0  0  0  0  0  0  0  0
   20.3676  -11.3620  -20.6539 N   0  0  0  0  0  0  0  0  0  0  0  0
   20.2470  -10.1288  -19.9730 C   0  0  0  0  0  0  0  0  0  0  0  0
   20.4248   -9.0530  -20.5932 O   0  0  0  0  0  0  0  0  0  0  0  0
   19.9123  -10.0910  -18.5318 C   0  0  0  0  0  0  0  0  0  0  0  0
   19.7248  -11.4777  -18.0366 C   0  0  0  0  0  0  0  0  0  0  0  0
   20.9689  -12.0666  -17.4107 C   0  0  2  0  0  0  0  0  0  0  0  0
   20.7461  -13.4116  -16.9898 N   0  0  0  0  0  0  0  0  0  0  0  0
   21.4276  -11.1875  -16.2957 C   0  0  0  0  0  0  0  0  0  0  0  0
   20.8550  -11.2210  -15.1588 O   0  0  0  0  0  0  0  0  0  0  0  0
   22.5035  -10.2814  -16.4277 N   0  0  0  0  0  0  0  0  0  0  0  0
   22.9107   -9.3635  -15.3646 C   0  0  1  0  0  0  0  0  0  0  0  0
   24.3159   -8.8633  -15.5935 C   0  0  0  0  0  0  0  0  0  0  0  0
   25.3267   -9.9347  -15.5284 C   0  0  0  0  0  0  0  0  0  0  0  0
   25.0933  -11.2525  -15.2021 C   0  0  0  0  0  0  0  0  0  0  0  0
   26.2465  -11.9411  -15.2389 N   0  0  0  0  0  0  0  0  0  0  0  0
   27.2226  -11.0842  -15.5851 C   0  0  0  0  0  0  0  0  0  0  0  0
   26.6545   -9.8584  -15.7610 N   0  0  0  0  0  0  0  0  0  0  0  0
   21.9179   -8.2890  -15.1692 C   0  0  0  0  0  0  0  0  0  0  0  0
   21.0287   -8.0031  -15.9982 O   0  0  0  0  0  0  0  0  0  0  0  0
   21.9824   -7.5574  -13.9920 O   0  0  0  0  0  0  0  0  0  0  0  0
  2  1  1  6
  3  2  1  0
  3  4  1  0
  5  6  1  0
  5  4  1  0
  7  6  1  0
  8  9  2  0
  8  2  1  0
 10 11  1  0
 11 13  1  0
 12 11  2  0
 13 14  1  0
 15 14  1  1
 15 17  1  0
 15 16  1  0
 16  8  1  0
 17 19  1  0
 18 17  2  0
 19 20  1  0
 20 27  1  0
 21 22  1  0
 20 21  1  6
 22 26  1  0
 23 24  1  0
 23 22  2  0
 24 25  1  0
 25 26  2  0
 27 28  2  0
 27 29  1  0
M  END
$$$$
