KQH.pdb
     RDKit          3D

 29 29  0  0  1  0  0  0  0  0999 V2000
   18.5508  -31.1811   -9.0479 N   0  0  0  0  0  0  0  0  0  0  0  0
   17.6104  -30.8748   -7.9862 C   0  0  1  0  0  0  0  0  0  0  0  0
   17.6853  -31.8891   -6.8993 C   0  0  0  0  0  0  0  0  0  0  0  0
   16.7562  -33.0396   -6.9872 C   0  0  0  0  0  0  0  0  0  0  0  0
   15.3958  -32.8633   -6.4274 C   0  0  0  0  0  0  0  0  0  0  0  0
   14.6841  -34.2183   -6.5810 C   0  0  0  0  0  0  0  0  0  0  0  0
   13.3152  -34.0041   -6.1326 N   0  0  0  0  0  0  0  0  0  0  0  0
   17.9921  -29.5508   -7.4290 C   0  0  0  0  0  0  0  0  0  0  0  0
   19.2156  -29.2415   -7.3098 O   0  0  0  0  0  0  0  0  0  0  0  0
   14.0636  -25.2992   -5.8181 N   0  0  0  0  0  0  0  0  0  0  0  0
   15.2339  -24.5117   -5.7222 C   0  0  0  0  0  0  0  0  0  0  0  0
   15.2044  -23.4222   -5.1013 O   0  0  0  0  0  0  0  0  0  0  0  0
   16.4986  -24.9587   -6.3480 C   0  0  0  0  0  0  0  0  0  0  0  0
   16.2978  -26.2987   -6.9539 C   0  0  0  0  0  0  0  0  0  0  0  0
   17.2872  -27.3335   -6.4675 C   0  0  2  0  0  0  0  0  0  0  0  0
   17.0052  -28.6168   -7.0238 N   0  0  0  0  0  0  0  0  0  0  0  0
   17.2983  -27.3474   -4.9755 C   0  0  0  0  0  0  0  0  0  0  0  0
   16.3961  -27.9628   -4.3207 O   0  0  0  0  0  0  0  0  0  0  0  0
   18.2894  -26.6925   -4.2108 N   0  0  0  0  0  0  0  0  0  0  0  0
   18.2254  -26.5710   -2.7549 C   0  0  1  0  0  0  0  0  0  0  0  0
   16.8854  -26.0321   -2.3175 C   0  0  0  0  0  0  0  0  0  0  0  0
   16.7204  -26.0178   -0.8524 C   0  0  0  0  0  0  0  0  0  0  0  0
   17.6572  -26.4195    0.0742 C   0  0  0  0  0  0  0  0  0  0  0  0
   17.1620  -26.2725    1.3145 N   0  0  0  0  0  0  0  0  0  0  0  0
   15.9162  -25.7805    1.2009 C   0  0  0  0  0  0  0  0  0  0  0  0
   15.6513  -25.6266   -0.1267 N   0  0  0  0  0  0  0  0  0  0  0  0
   18.6086  -27.8320   -2.0904 C   0  0  0  0  0  0  0  0  0  0  0  0
   18.1439  -28.9498   -2.3967 O   0  0  0  0  0  0  0  0  0  0  0  0
   19.5413  -27.7634   -1.0654 O   0  0  0  0  0  0  0  0  0  0  0  0
  2  1  1  6
  3  2  1  0
  3  4  1  0
  5  6  1  0
  5  4  1  0
  7  6  1  0
  8  9  2  0
  8  2  1  0
 10 11  1  0
 11 13  1  0
 12 11  2  0
 13 14  1  0
 15 14  1  1
 15 17  1  0
 15 16  1  0
 16  8  1  0
 17 19  1  0
 18 17  2  0
 19 20  1  0
 20 27  1  0
 21 22  1  0
 20 21  1  6
 22 26  1  0
 23 24  1  0
 23 22  2  0
 24 25  1  0
 25 26  2  0
 27 28  2  0
 27 29  1  0
M  END
$$$$
