KQH.pdb
     RDKit          3D

 29 29  0  0  1  0  0  0  0  0999 V2000
   17.9607  -12.5760  -15.2055 N   0  0  0  0  0  0  0  0  0  0  0  0
   17.3274  -11.2706  -15.2205 C   0  0  1  0  0  0  0  0  0  0  0  0
   15.8470  -11.3979  -15.3097 C   0  0  0  0  0  0  0  0  0  0  0  0
   15.2941  -11.9590  -16.5642 C   0  0  0  0  0  0  0  0  0  0  0  0
   13.8266  -12.1490  -16.6392 C   0  0  0  0  0  0  0  0  0  0  0  0
   13.5313  -12.7014  -18.0440 C   0  0  0  0  0  0  0  0  0  0  0  0
   12.1063  -13.0003  -18.0649 N   0  0  0  0  0  0  0  0  0  0  0  0
   17.6714  -10.6001  -13.9394 C   0  0  0  0  0  0  0  0  0  0  0  0
   17.4336  -11.1787  -12.8368 O   0  0  0  0  0  0  0  0  0  0  0  0
   20.6639   -7.3095  -15.5629 N   0  0  0  0  0  0  0  0  0  0  0  0
   21.4791   -8.1034  -14.7240 C   0  0  0  0  0  0  0  0  0  0  0  0
   22.5408   -8.5989  -15.1721 O   0  0  0  0  0  0  0  0  0  0  0  0
   21.0939   -8.3584  -13.3178 C   0  0  0  0  0  0  0  0  0  0  0  0
   19.8099   -7.6716  -13.0301 C   0  0  0  0  0  0  0  0  0  0  0  0
   18.6697   -8.6225  -12.7436 C   0  0  2  0  0  0  0  0  0  0  0  0
   18.2662   -9.3132  -13.9252 N   0  0  0  0  0  0  0  0  0  0  0  0
   17.5465   -7.8739  -12.1076 C   0  0  0  0  0  0  0  0  0  0  0  0
   16.4271   -7.7460  -12.7010 O   0  0  0  0  0  0  0  0  0  0  0  0
   17.6515   -7.2721  -10.8338 N   0  0  0  0  0  0  0  0  0  0  0  0
   16.4898   -6.8956  -10.0293 C   0  0  1  0  0  0  0  0  0  0  0  0
   15.5245   -8.0487   -9.9040 C   0  0  0  0  0  0  0  0  0  0  0  0
   14.3387   -7.7219   -9.0911 C   0  0  0  0  0  0  0  0  0  0  0  0
   14.1153   -6.5402   -8.4194 C   0  0  0  0  0  0  0  0  0  0  0  0
   12.9346   -6.5966   -7.7805 N   0  0  0  0  0  0  0  0  0  0  0  0
   12.3920   -7.8006   -8.0312 C   0  0  0  0  0  0  0  0  0  0  0  0
   13.2550   -8.4848   -8.8333 N   0  0  0  0  0  0  0  0  0  0  0  0
   16.8950   -6.3117   -8.7357 C   0  0  0  0  0  0  0  0  0  0  0  0
   16.2997   -5.3636   -8.1825 O   0  0  0  0  0  0  0  0  0  0  0  0
   18.0042   -6.8539   -8.1024 O   0  0  0  0  0  0  0  0  0  0  0  0
  2  1  1  1
  3  2  1  0
  3  4  1  0
  5  6  1  0
  5  4  1  0
  7  6  1  0
  8  9  2  0
  8  2  1  0
 10 11  1  0
 11 13  1  0
 12 11  2  0
 13 14  1  0
 15 14  1  6
 15 17  1  0
 15 16  1  0
 16  8  1  0
 17 19  1  0
 18 17  2  0
 19 20  1  0
 20 27  1  0
 21 22  1  0
 20 21  1  1
 22 26  1  0
 23 24  1  0
 23 22  2  0
 24 25  1  0
 25 26  2  0
 27 28  2  0
 27 29  1  0
M  END
$$$$
