CRN.pdb
     RDKit          3D

 26 25  0  0  1  0  0  0  0  0999 V2000
   27.1119  -12.5966  -18.0419 N   0  0  0  0  0  0  0  0  0  0  0  0
   26.7682  -11.7778  -16.8928 C   0  0  1  0  0  0  0  0  0  0  0  0
   27.8874  -10.8660  -16.5063 C   0  0  0  0  0  0  0  0  0  0  0  0
   27.4772   -9.7803  -15.1275 S   0  0  0  0  0  0  0  0  0  0  0  0
   25.4976  -11.0414  -17.1458 C   0  0  0  0  0  0  0  0  0  0  0  0
   25.3104  -10.5038  -18.2577 O   0  0  0  0  0  0  0  0  0  0  0  0
   17.3020  -12.8155  -15.3178 N   0  0  0  0  0  0  0  0  0  0  0  0
   17.1535  -11.6221  -16.0751 C   0  0  0  0  0  0  0  0  0  0  0  0
   15.9923  -11.2994  -16.5213 N   0  0  0  0  0  0  0  0  0  0  0  0
   18.3105  -10.8043  -16.3241 N   0  0  0  0  0  0  0  0  0  0  0  0
   19.5970  -11.3371  -15.9534 C   0  0  0  0  0  0  0  0  0  0  0  0
   20.7348  -10.4307  -16.3512 C   0  0  0  0  0  0  0  0  0  0  0  0
   22.0367  -11.1247  -15.9800 C   0  0  0  0  0  0  0  0  0  0  0  0
   23.2263  -10.2822  -16.4440 C   0  0  2  0  0  0  0  0  0  0  0  0
   24.4759  -10.9229  -16.1588 N   0  0  0  0  0  0  0  0  0  0  0  0
   23.1361   -8.9992  -15.6507 C   0  0  0  0  0  0  0  0  0  0  0  0
   23.4953   -9.0493  -14.4575 O   0  0  0  0  0  0  0  0  0  0  0  0
   15.8502  -10.3931  -17.0089 N   0  0  0  0  0  0  0  0  0  0  0  0
   22.6222   -4.3381  -13.9207 C   0  0  0  0  0  0  0  0  0  0  0  0
   22.7543   -4.1689  -15.3249 O   0  0  0  0  0  0  0  0  0  0  0  0
   22.8602   -2.9771  -15.7695 C   0  0  0  0  0  0  0  0  0  0  0  0
   22.7681   -5.3408  -16.2556 C   0  0  2  0  0  0  0  0  0  0  0  0
   22.6973   -6.5841  -15.4110 N   0  0  0  0  0  0  0  0  0  0  0  0
   22.6822   -7.7892  -16.1820 C   0  0  0  0  0  0  0  0  0  0  0  0
   21.5319   -6.5366  -14.5128 O   0  0  0  0  0  0  0  0  0  0  0  0
   20.4248   -7.0341  -14.9089 O   0  0  0  0  0  0  0  0  0  0  0  0
  2  1  1  6
  3  2  1  0
  4  3  1  0
  5  2  1  0
  5  6  2  0
  7  8  1  0
  8 10  1  0
  8  9  2  0
 10 11  1  0
 11 12  1  0
 12 13  1  0
 14 13  1  1
 15 14  1  0
 15  5  1  0
 16 14  1  0
 17 16  2  0
 18 19  1  0
 19 21  1  0
 19 20  2  0
 22 21  1  1
 22 23  1  0
 22 24  1  0
 23 16  1  0
 24 26  1  0
 25 24  2  0
M  END
$$$$
