CRN.pdb
     RDKit          3D

 26 25  0  0  1  0  0  0  0  0999 V2000
   28.4851  -21.9454  -17.9301 N   0  0  0  0  0  0  0  0  0  0  0  0
   28.4625  -20.8964  -16.9261 C   0  0  1  0  0  0  0  0  0  0  0  0
   28.3860  -19.5380  -17.5444 C   0  0  0  0  0  0  0  0  0  0  0  0
   28.5150  -19.5657  -19.3418 S   0  0  0  0  0  0  0  0  0  0  0  0
   27.3618  -21.1392  -15.9513 C   0  0  0  0  0  0  0  0  0  0  0  0
   26.3812  -21.8338  -16.2927 O   0  0  0  0  0  0  0  0  0  0  0  0
   23.2069  -20.4473   -9.6658 N   0  0  0  0  0  0  0  0  0  0  0  0
   24.0287  -21.0581   -8.6802 C   0  0  0  0  0  0  0  0  0  0  0  0
   23.4865  -21.5482   -7.6231 N   0  0  0  0  0  0  0  0  0  0  0  0
   25.4507  -21.1113   -8.8916 N   0  0  0  0  0  0  0  0  0  0  0  0
   26.0008  -20.2911   -9.9410 C   0  0  0  0  0  0  0  0  0  0  0  0
   25.5786  -20.7491  -11.3144 C   0  0  0  0  0  0  0  0  0  0  0  0
   26.7505  -20.5326  -12.2599 C   0  0  0  0  0  0  0  0  0  0  0  0
   26.3371  -20.8836  -13.6902 C   0  0  2  0  0  0  0  0  0  0  0  0
   27.3818  -20.6038  -14.6303 N   0  0  0  0  0  0  0  0  0  0  0  0
   25.1520  -19.9949  -13.9891 C   0  0  0  0  0  0  0  0  0  0  0  0
   25.3971  -18.8016  -14.2563 O   0  0  0  0  0  0  0  0  0  0  0  0
   24.0759  -21.9586   -6.8725 N   0  0  0  0  0  0  0  0  0  0  0  0
   22.1832  -17.9190  -17.6365 C   0  0  0  0  0  0  0  0  0  0  0  0
   22.0214  -19.1660  -16.9757 O   0  0  0  0  0  0  0  0  0  0  0  0
   20.8670  -19.7096  -17.0131 C   0  0  0  0  0  0  0  0  0  0  0  0
   23.1581  -19.8238  -16.2582 C   0  0  1  0  0  0  0  0  0  0  0  0
   22.8265  -19.8140  -14.7904 N   0  0  0  0  0  0  0  0  0  0  0  0
   23.8275  -20.4399  -13.9823 C   0  0  0  0  0  0  0  0  0  0  0  0
   21.5133  -20.4343  -14.5501 O   0  0  0  0  0  0  0  0  0  0  0  0
   20.5126  -19.6844  -14.2926 O   0  0  0  0  0  0  0  0  0  0  0  0
  2  1  1  6
  3  2  1  0
  4  3  1  0
  5  2  1  0
  5  6  2  0
  7  8  1  0
  8 10  1  0
  8  9  2  0
 10 11  1  0
 11 12  1  0
 12 13  1  0
 14 13  1  1
 15 14  1  0
 15  5  1  0
 16 14  1  0
 17 16  2  0
 18 19  1  0
 19 21  1  0
 19 20  2  0
 22 21  1  1
 22 23  1  0
 22 24  1  0
 23 16  1  0
 24 26  1  0
 25 24  2  0
M  END
$$$$
