CRN.pdb
     RDKit          3D

 26 25  0  0  1  0  0  0  0  0999 V2000
   27.0775  -19.8900  -16.0364 N   0  0  0  0  0  0  0  0  0  0  0  0
   26.0231  -19.1074  -15.4163 C   0  0  1  0  0  0  0  0  0  0  0  0
   26.2036  -17.6435  -15.6572 C   0  0  0  0  0  0  0  0  0  0  0  0
   27.6372  -16.9543  -14.8099 S   0  0  0  0  0  0  0  0  0  0  0  0
   24.6878  -19.5957  -15.8628 C   0  0  0  0  0  0  0  0  0  0  0  0
   24.4975  -19.8435  -17.0723 O   0  0  0  0  0  0  0  0  0  0  0  0
   20.7448  -25.7949  -13.1623 N   0  0  0  0  0  0  0  0  0  0  0  0
   20.3534  -24.5735  -12.5501 C   0  0  0  0  0  0  0  0  0  0  0  0
   19.8301  -24.5962  -11.3765 N   0  0  0  0  0  0  0  0  0  0  0  0
   20.5527  -23.3397  -13.2625 N   0  0  0  0  0  0  0  0  0  0  0  0
   20.2146  -23.3154  -14.6631 C   0  0  0  0  0  0  0  0  0  0  0  0
   20.5669  -22.0045  -15.3203 C   0  0  0  0  0  0  0  0  0  0  0  0
   21.8759  -21.5168  -14.7180 C   0  0  0  0  0  0  0  0  0  0  0  0
   22.3160  -20.2238  -15.4069 C   0  0  2  0  0  0  0  0  0  0  0  0
   23.6059  -19.7925  -14.9557 N   0  0  0  0  0  0  0  0  0  0  0  0
   21.2839  -19.1933  -15.0112 C   0  0  0  0  0  0  0  0  0  0  0  0
   21.2601  -18.8531  -13.8116 O   0  0  0  0  0  0  0  0  0  0  0  0
   19.5391  -23.7127  -10.9139 N   0  0  0  0  0  0  0  0  0  0  0  0
   21.5551  -15.8515  -15.5562 C   0  0  0  0  0  0  0  0  0  0  0  0
   20.5177  -15.6362  -16.5023 O   0  0  0  0  0  0  0  0  0  0  0  0
   20.6560  -14.6668  -17.3211 C   0  0  0  0  0  0  0  0  0  0  0  0
   19.3028  -16.5093  -16.5426 C   0  0  2  0  0  0  0  0  0  0  0  0
   19.4851  -17.5783  -15.4994 N   0  0  0  0  0  0  0  0  0  0  0  0
   20.3797  -18.6174  -15.9074 C   0  0  0  0  0  0  0  0  0  0  0  0
   18.1856  -18.1472  -15.1056 O   0  0  0  0  0  0  0  0  0  0  0  0
   17.9116  -19.3500  -15.4345 O   0  0  0  0  0  0  0  0  0  0  0  0
  2  1  1  6
  3  2  1  0
  4  3  1  0
  5  2  1  0
  5  6  2  0
  7  8  1  0
  8 10  1  0
  8  9  2  0
 10 11  1  0
 11 12  1  0
 12 13  1  0
 14 13  1  1
 15 14  1  0
 15  5  1  0
 16 14  1  0
 17 16  2  0
 18 19  1  0
 19 21  1  0
 19 20  2  0
 22 21  1  1
 22 23  1  0
 22 24  1  0
 23 16  1  0
 24 26  1  0
 25 24  2  0
M  END
$$$$
