CRN.pdb
     RDKit          3D

 26 25  0  0  1  0  0  0  0  0999 V2000
   26.2066  -12.0007  -17.7480 N   0  0  0  0  0  0  0  0  0  0  0  0
   25.7225  -11.4625  -16.4891 C   0  0  1  0  0  0  0  0  0  0  0  0
   26.7682  -10.6530  -15.7929 C   0  0  0  0  0  0  0  0  0  0  0  0
   28.1583  -11.6389  -15.2066 S   0  0  0  0  0  0  0  0  0  0  0  0
   24.4627  -10.6966  -16.7060 C   0  0  0  0  0  0  0  0  0  0  0  0
   24.3570   -9.9597  -17.7092 O   0  0  0  0  0  0  0  0  0  0  0  0
   17.1410  -14.2961  -15.6755 N   0  0  0  0  0  0  0  0  0  0  0  0
   17.8697  -14.5721  -16.8641 C   0  0  0  0  0  0  0  0  0  0  0  0
   17.4677  -15.5090  -17.6464 N   0  0  0  0  0  0  0  0  0  0  0  0
   19.0425  -13.7936  -17.1611 N   0  0  0  0  0  0  0  0  0  0  0  0
   19.3651  -12.7067  -16.2717 C   0  0  0  0  0  0  0  0  0  0  0  0
   20.5642  -11.9175  -16.7343 C   0  0  0  0  0  0  0  0  0  0  0  0
   20.9171  -10.9202  -15.6411 C   0  0  0  0  0  0  0  0  0  0  0  0
   22.1284  -10.0884  -16.0667 C   0  0  2  0  0  0  0  0  0  0  0  0
   23.3612  -10.7702  -15.8043 N   0  0  0  0  0  0  0  0  0  0  0  0
   22.0659   -8.8371  -15.2217 C   0  0  0  0  0  0  0  0  0  0  0  0
   22.3643   -8.9567  -14.0168 O   0  0  0  0  0  0  0  0  0  0  0  0
   18.0054  -15.7444  -18.5037 N   0  0  0  0  0  0  0  0  0  0  0  0
   22.2088   -2.8803  -14.6656 C   0  0  0  0  0  0  0  0  0  0  0  0
   22.3575   -4.2295  -14.2467 O   0  0  0  0  0  0  0  0  0  0  0  0
   22.3195   -4.4671  -12.9931 C   0  0  0  0  0  0  0  0  0  0  0  0
   22.5537   -5.3373  -15.2336 C   0  0  2  0  0  0  0  0  0  0  0  0
   21.6018   -6.4418  -14.8617 N   0  0  0  0  0  0  0  0  0  0  0  0
   21.7005   -7.5833  -15.7185 C   0  0  0  0  0  0  0  0  0  0  0  0
   20.2164   -5.9449  -14.8290 O   0  0  0  0  0  0  0  0  0  0  0  0
   19.4467   -6.1927  -15.8169 O   0  0  0  0  0  0  0  0  0  0  0  0
  2  1  1  6
  3  2  1  0
  4  3  1  0
  5  2  1  0
  5  6  2  0
  7  8  1  0
  8 10  1  0
  8  9  2  0
 10 11  1  0
 11 12  1  0
 12 13  1  0
 14 13  1  1
 15 14  1  0
 15  5  1  0
 16 14  1  0
 17 16  2  0
 18 19  1  0
 19 21  1  0
 19 20  2  0
 22 21  1  1
 22 23  1  0
 22 24  1  0
 23 16  1  0
 24 26  1  0
 25 24  2  0
M  END
$$$$
