CRN.pdb
     RDKit          3D

 26 25  0  0  1  0  0  0  0  0999 V2000
   33.9330  -25.5960  -16.9965 N   0  0  0  0  0  0  0  0  0  0  0  0
   33.1679  -26.5023  -16.1585 C   0  0  1  0  0  0  0  0  0  0  0  0
   33.0935  -26.0220  -14.7453 C   0  0  0  0  0  0  0  0  0  0  0  0
   31.9152  -24.6786  -14.5111 S   0  0  0  0  0  0  0  0  0  0  0  0
   31.8204  -26.7377  -16.7497 C   0  0  0  0  0  0  0  0  0  0  0  0
   31.3543  -25.9128  -17.5639 O   0  0  0  0  0  0  0  0  0  0  0  0
   27.3661  -33.5175  -14.9264 N   0  0  0  0  0  0  0  0  0  0  0  0
   26.4839  -32.4344  -15.1883 C   0  0  0  0  0  0  0  0  0  0  0  0
   25.2232  -32.5867  -14.9909 N   0  0  0  0  0  0  0  0  0  0  0  0
   27.0266  -31.1923  -15.6700 N   0  0  0  0  0  0  0  0  0  0  0  0
   27.4165  -31.1268  -17.0558 C   0  0  0  0  0  0  0  0  0  0  0  0
   27.9244  -29.7626  -17.4498 C   0  0  0  0  0  0  0  0  0  0  0  0
   29.2131  -29.5046  -16.6838 C   0  0  0  0  0  0  0  0  0  0  0  0
   29.7693  -28.1273  -17.0496 C   0  0  2  0  0  0  0  0  0  0  0  0
   31.0318  -27.8782  -16.4191 N   0  0  0  0  0  0  0  0  0  0  0  0
   28.7525  -27.1385  -16.5280 C   0  0  0  0  0  0  0  0  0  0  0  0
   28.7475  -26.9332  -15.2979 O   0  0  0  0  0  0  0  0  0  0  0  0
   24.5683  -31.7947  -15.1431 N   0  0  0  0  0  0  0  0  0  0  0  0
   25.4777  -23.4508  -15.7993 C   0  0  0  0  0  0  0  0  0  0  0  0
   26.6492  -23.0397  -16.4895 O   0  0  0  0  0  0  0  0  0  0  0  0
   26.8830  -21.7869  -16.5634 C   0  0  0  0  0  0  0  0  0  0  0  0
   27.5794  -24.0333  -17.1116 C   0  0  2  0  0  0  0  0  0  0  0  0
   27.0256  -25.4035  -16.8279 N   0  0  0  0  0  0  0  0  0  0  0  0
   27.8427  -26.4592  -17.3423 C   0  0  0  0  0  0  0  0  0  0  0  0
   25.6507  -25.5246  -17.3399 O   0  0  0  0  0  0  0  0  0  0  0  0
   25.4606  -26.0668  -18.4800 O   0  0  0  0  0  0  0  0  0  0  0  0
  2  1  1  6
  3  2  1  0
  4  3  1  0
  5  2  1  0
  5  6  2  0
  7  8  1  0
  8 10  1  0
  8  9  2  0
 10 11  1  0
 11 12  1  0
 12 13  1  0
 14 13  1  1
 15 14  1  0
 15  5  1  0
 16 14  1  0
 17 16  2  0
 18 19  1  0
 19 21  1  0
 19 20  2  0
 22 21  1  1
 22 23  1  0
 22 24  1  0
 23 16  1  0
 24 26  1  0
 25 24  2  0
M  END
$$$$
