CRN.pdb
     RDKit          3D

 26 25  0  0  1  0  0  0  0  0999 V2000
   29.1176  -22.9272  -17.9888 N   0  0  0  0  0  0  0  0  0  0  0  0
   28.7315  -21.6739  -17.3649 C   0  0  1  0  0  0  0  0  0  0  0  0
   28.3678  -20.6381  -18.3790 C   0  0  0  0  0  0  0  0  0  0  0  0
   29.7393  -20.1847  -19.4567 S   0  0  0  0  0  0  0  0  0  0  0  0
   27.6428  -21.9050  -16.3739 C   0  0  0  0  0  0  0  0  0  0  0  0
   26.7106  -22.6870  -16.6569 O   0  0  0  0  0  0  0  0  0  0  0  0
   23.4376  -20.0372  -10.7465 N   0  0  0  0  0  0  0  0  0  0  0  0
   23.8503  -20.7137   -9.5668 C   0  0  0  0  0  0  0  0  0  0  0  0
   22.9843  -20.9734   -8.6535 N   0  0  0  0  0  0  0  0  0  0  0  0
   25.2314  -21.0907   -9.4246 N   0  0  0  0  0  0  0  0  0  0  0  0
   26.1433  -20.6902  -10.4660 C   0  0  0  0  0  0  0  0  0  0  0  0
   25.7691  -21.2579  -11.8122 C   0  0  0  0  0  0  0  0  0  0  0  0
   26.8636  -20.8804  -12.7990 C   0  0  0  0  0  0  0  0  0  0  0  0
   26.5437  -21.4605  -14.1779 C   0  0  2  0  0  0  0  0  0  0  0  0
   27.6207  -21.2616  -15.1021 N   0  0  0  0  0  0  0  0  0  0  0  0
   25.3325  -20.6950  -14.6582 C   0  0  0  0  0  0  0  0  0  0  0  0
   25.5474  -19.6565  -15.3144 O   0  0  0  0  0  0  0  0  0  0  0  0
   23.2431  -21.5589   -7.8353 N   0  0  0  0  0  0  0  0  0  0  0  0
   21.7460  -22.6129  -16.0288 C   0  0  0  0  0  0  0  0  0  0  0  0
   22.2762  -21.6789  -16.9584 O   0  0  0  0  0  0  0  0  0  0  0  0
   22.1673  -21.9536  -18.2002 C   0  0  0  0  0  0  0  0  0  0  0  0
   22.9412  -20.4169  -16.5056 C   0  0  1  0  0  0  0  0  0  0  0  0
   22.9072  -20.4079  -15.0013 N   0  0  0  0  0  0  0  0  0  0  0  0
   24.0159  -21.0904  -14.4083 C   0  0  0  0  0  0  0  0  0  0  0  0
   21.6382  -20.9668  -14.5067 O   0  0  0  0  0  0  0  0  0  0  0  0
   20.5460  -20.3719  -14.7949 O   0  0  0  0  0  0  0  0  0  0  0  0
  2  1  1  6
  3  2  1  0
  4  3  1  0
  5  2  1  0
  5  6  2  0
  7  8  1  0
  8 10  1  0
  8  9  2  0
 10 11  1  0
 11 12  1  0
 12 13  1  0
 14 13  1  1
 15 14  1  0
 15  5  1  0
 16 14  1  0
 17 16  2  0
 18 19  1  0
 19 21  1  0
 19 20  2  0
 22 21  1  1
 22 23  1  0
 22 24  1  0
 23 16  1  0
 24 26  1  0
 25 24  2  0
M  END
$$$$
