CRN.pdb
     RDKit          3D

 26 25  0  0  1  0  0  0  0  0999 V2000
   18.0833  -12.6383  -15.7822 N   0  0  0  0  0  0  0  0  0  0  0  0
   18.5993  -11.4360  -16.4124 C   0  0  1  0  0  0  0  0  0  0  0  0
   17.5968  -10.3277  -16.3976 C   0  0  0  0  0  0  0  0  0  0  0  0
   16.0408  -10.7648  -17.1951 S   0  0  0  0  0  0  0  0  0  0  0  0
   19.8925  -11.0400  -15.7866 C   0  0  0  0  0  0  0  0  0  0  0  0
   19.9749  -10.9645  -14.5424 O   0  0  0  0  0  0  0  0  0  0  0  0
   28.2875  -11.1638  -16.8228 N   0  0  0  0  0  0  0  0  0  0  0  0
   27.9641  -12.3443  -16.1006 C   0  0  0  0  0  0  0  0  0  0  0  0
   28.9009  -13.0022  -15.5166 N   0  0  0  0  0  0  0  0  0  0  0  0
   26.5924  -12.7739  -16.0425 N   0  0  0  0  0  0  0  0  0  0  0  0
   25.6192  -12.0006  -16.7714 C   0  0  0  0  0  0  0  0  0  0  0  0
   24.5135  -11.4810  -15.8871 C   0  0  0  0  0  0  0  0  0  0  0  0
   23.4965  -10.7790  -16.7743 C   0  0  0  0  0  0  0  0  0  0  0  0
   22.2863  -10.3521  -15.9418 C   0  0  2  0  0  0  0  0  0  0  0  0
   21.0522  -10.7390  -16.5588 N   0  0  0  0  0  0  0  0  0  0  0  0
   22.3582   -8.8437  -15.8834 C   0  0  0  0  0  0  0  0  0  0  0  0
   21.8850   -8.2202  -16.8543 O   0  0  0  0  0  0  0  0  0  0  0  0
   28.6888  -13.8904  -15.0211 N   0  0  0  0  0  0  0  0  0  0  0  0
   22.9317   -4.0130  -14.6170 C   0  0  0  0  0  0  0  0  0  0  0  0
   22.6109   -4.5818  -15.8785 O   0  0  0  0  0  0  0  0  0  0  0  0
   22.3224   -3.7828  -16.8312 C   0  0  0  0  0  0  0  0  0  0  0  0
   22.6078   -6.0633  -16.0900 C   0  0  1  0  0  0  0  0  0  0  0  0
   22.8418   -6.7072  -14.7502 N   0  0  0  0  0  0  0  0  0  0  0  0
   22.9147   -8.1345  -14.8158 C   0  0  0  0  0  0  0  0  0  0  0  0
   21.8097   -6.2914  -13.7863 O   0  0  0  0  0  0  0  0  0  0  0  0
   22.1049   -5.4199  -12.9013 O   0  0  0  0  0  0  0  0  0  0  0  0
  2  1  1  1
  3  2  1  0
  4  3  1  0
  5  2  1  0
  5  6  2  0
  7  8  1  0
  8 10  1  0
  8  9  2  0
 10 11  1  0
 11 12  1  0
 12 13  1  0
 14 13  1  6
 15 14  1  0
 15  5  1  0
 16 14  1  0
 17 16  2  0
 18 19  1  0
 19 21  1  0
 19 20  2  0
 22 21  1  6
 22 23  1  0
 22 24  1  0
 23 16  1  0
 24 26  1  0
 25 24  2  0
M  END
$$$$
