CRN.pdb
     RDKit          3D

 26 25  0  0  1  0  0  0  0  0999 V2000
   19.9996   -9.5758    8.5660 N   0  0  0  0  0  0  0  0  0  0  0  0
   20.3216  -10.5825    7.5702 C   0  0  1  0  0  0  0  0  0  0  0  0
   21.7852  -10.8829    7.5377 C   0  0  0  0  0  0  0  0  0  0  0  0
   22.4023  -11.2388    5.8822 S   0  0  0  0  0  0  0  0  0  0  0  0
   19.4961  -11.8042    7.7863 C   0  0  0  0  0  0  0  0  0  0  0  0
   19.2878  -12.2066    8.9505 O   0  0  0  0  0  0  0  0  0  0  0  0
   13.0558  -15.5938    4.2478 N   0  0  0  0  0  0  0  0  0  0  0  0
   12.8172  -14.2013    4.4018 C   0  0  0  0  0  0  0  0  0  0  0  0
   11.6078  -13.7744    4.4834 N   0  0  0  0  0  0  0  0  0  0  0  0
   13.9391  -13.3027    4.4615 N   0  0  0  0  0  0  0  0  0  0  0  0
   15.2572  -13.8829    4.5114 C   0  0  0  0  0  0  0  0  0  0  0  0
   16.0040  -13.5145    5.7688 C   0  0  0  0  0  0  0  0  0  0  0  0
   17.3807  -14.1582    5.7002 C   0  0  0  0  0  0  0  0  0  0  0  0
   18.2040  -13.7582    6.9258 C   0  0  2  0  0  0  0  0  0  0  0  0
   18.9291  -12.5418    6.7062 N   0  0  0  0  0  0  0  0  0  0  0  0
   19.1856  -14.8889    7.1295 C   0  0  0  0  0  0  0  0  0  0  0  0
   19.9411  -15.1568    6.1741 O   0  0  0  0  0  0  0  0  0  0  0  0
   11.4163  -12.7645    4.6341 N   0  0  0  0  0  0  0  0  0  0  0  0
   22.5673  -18.1741   10.7670 C   0  0  0  0  0  0  0  0  0  0  0  0
   22.2817  -17.4103    9.6039 O   0  0  0  0  0  0  0  0  0  0  0  0
   22.9500  -17.6691    8.5476 C   0  0  0  0  0  0  0  0  0  0  0  0
   21.2376  -16.3381    9.6097 C   0  0  2  0  0  0  0  0  0  0  0  0
   20.2868  -16.6332    8.4813 N   0  0  0  0  0  0  0  0  0  0  0  0
   19.2838  -15.6272    8.3117 C   0  0  0  0  0  0  0  0  0  0  0  0
   19.6617  -17.9540    8.6602 O   0  0  0  0  0  0  0  0  0  0  0  0
   18.4348  -18.0159    9.0079 O   0  0  0  0  0  0  0  0  0  0  0  0
  2  1  1  1
  3  2  1  0
  4  3  1  0
  5  2  1  0
  5  6  2  0
  7  8  1  0
  8 10  1  0
  8  9  2  0
 10 11  1  0
 11 12  1  0
 12 13  1  0
 14 13  1  6
 15 14  1  0
 15  5  1  0
 16 14  1  0
 17 16  2  0
 18 19  1  0
 19 21  1  0
 19 20  2  0
 22 21  1  6
 22 23  1  0
 22 24  1  0
 23 16  1  0
 24 26  1  0
 25 24  2  0
M  END
$$$$
