CRN.pdb
     RDKit          3D

 26 25  0  0  1  0  0  0  0  0999 V2000
   27.4577  -16.2964  -17.2491 N   0  0  0  0  0  0  0  0  0  0  0  0
   26.4690  -16.3055  -16.1855 C   0  0  1  0  0  0  0  0  0  0  0  0
   25.8482  -14.9597  -15.9934 C   0  0  0  0  0  0  0  0  0  0  0  0
   26.8966  -13.8168  -15.0753 S   0  0  0  0  0  0  0  0  0  0  0  0
   25.4544  -17.3684  -16.4336 C   0  0  0  0  0  0  0  0  0  0  0  0
   25.2969  -17.8086  -17.5921 O   0  0  0  0  0  0  0  0  0  0  0  0
   27.0268  -21.4337  -11.3757 N   0  0  0  0  0  0  0  0  0  0  0  0
   25.8503  -21.1795  -10.6200 C   0  0  0  0  0  0  0  0  0  0  0  0
   25.9504  -20.9275   -9.3638 N   0  0  0  0  0  0  0  0  0  0  0  0
   24.5739  -21.2117  -11.2828 N   0  0  0  0  0  0  0  0  0  0  0  0
   24.5703  -21.3183  -12.7198 C   0  0  0  0  0  0  0  0  0  0  0  0
   24.1623  -20.0324  -13.3941 C   0  0  0  0  0  0  0  0  0  0  0  0
   24.1804  -20.2668  -14.8971 C   0  0  0  0  0  0  0  0  0  0  0  0
   23.7429  -18.9959  -15.6274 C   0  0  2  0  0  0  0  0  0  0  0  0
   24.6458  -17.9085  -15.3912 N   0  0  0  0  0  0  0  0  0  0  0  0
   22.3911  -18.6510  -15.0465 C   0  0  0  0  0  0  0  0  0  0  0  0
   22.3803  -17.8797  -14.0665 O   0  0  0  0  0  0  0  0  0  0  0  0
   25.1010  -20.7357   -8.7973 N   0  0  0  0  0  0  0  0  0  0  0  0
   17.7703  -18.7802  -14.2624 C   0  0  0  0  0  0  0  0  0  0  0  0
   18.5888  -17.7111  -13.8101 O   0  0  0  0  0  0  0  0  0  0  0  0
   18.1947  -17.0561  -12.7878 C   0  0  0  0  0  0  0  0  0  0  0  0
   19.8676  -17.3584  -14.5029 C   0  0  2  0  0  0  0  0  0  0  0  0
   20.0269  -18.3081  -15.6592 N   0  0  0  0  0  0  0  0  0  0  0  0
   21.1832  -19.1432  -15.5476 C   0  0  0  0  0  0  0  0  0  0  0  0
   20.0467  -17.5746  -16.9354 O   0  0  0  0  0  0  0  0  0  0  0  0
   19.0378  -16.8601  -17.2541 O   0  0  0  0  0  0  0  0  0  0  0  0
  2  1  1  6
  3  2  1  0
  4  3  1  0
  5  2  1  0
  5  6  2  0
  7  8  1  0
  8 10  1  0
  8  9  2  0
 10 11  1  0
 11 12  1  0
 12 13  1  0
 14 13  1  1
 15 14  1  0
 15  5  1  0
 16 14  1  0
 17 16  2  0
 18 19  1  0
 19 21  1  0
 19 20  2  0
 22 21  1  1
 22 23  1  0
 22 24  1  0
 23 16  1  0
 24 26  1  0
 25 24  2  0
M  END
$$$$
