CRN.pdb
     RDKit          3D

 26 25  0  0  1  0  0  0  0  0999 V2000
   27.3167  -19.8150   -9.8332 N   0  0  0  0  0  0  0  0  0  0  0  0
   26.1716  -20.6995   -9.9559 C   0  0  1  0  0  0  0  0  0  0  0  0
   25.1951  -20.5010   -8.8421 C   0  0  0  0  0  0  0  0  0  0  0  0
   25.9067  -20.7897   -7.2117 S   0  0  0  0  0  0  0  0  0  0  0  0
   25.5416  -20.5446  -11.2975 C   0  0  0  0  0  0  0  0  0  0  0  0
   24.8983  -19.5058  -11.5577 O   0  0  0  0  0  0  0  0  0  0  0  0
   26.6558  -25.6568  -16.1255 N   0  0  0  0  0  0  0  0  0  0  0  0
   25.2376  -25.7219  -16.1901 C   0  0  0  0  0  0  0  0  0  0  0  0
   24.6427  -26.8198  -15.8860 N   0  0  0  0  0  0  0  0  0  0  0  0
   24.5024  -24.5540  -16.5962 N   0  0  0  0  0  0  0  0  0  0  0  0
   25.2506  -23.3486  -16.8489 C   0  0  0  0  0  0  0  0  0  0  0  0
   24.8477  -22.2162  -15.9381 C   0  0  0  0  0  0  0  0  0  0  0  0
   25.4340  -22.4924  -14.5618 C   0  0  0  0  0  0  0  0  0  0  0  0
   25.0229  -21.3855  -13.5892 C   0  0  2  0  0  0  0  0  0  0  0  0
   25.6431  -21.5456  -12.3073 N   0  0  0  0  0  0  0  0  0  0  0  0
   23.5264  -21.5291  -13.4357 C   0  0  0  0  0  0  0  0  0  0  0  0
   23.1194  -22.5157  -12.7906 O   0  0  0  0  0  0  0  0  0  0  0  0
   23.6051  -26.8714  -15.8825 N   0  0  0  0  0  0  0  0  0  0  0  0
   21.6936  -19.2861  -15.9069 C   0  0  0  0  0  0  0  0  0  0  0  0
   20.7857  -18.7304  -14.9664 O   0  0  0  0  0  0  0  0  0  0  0  0
   20.2210  -17.6267  -15.2705 C   0  0  0  0  0  0  0  0  0  0  0  0
   20.4977  -19.4078  -13.6634 C   0  0  1  0  0  0  0  0  0  0  0  0
   21.2043  -20.7363  -13.6838 N   0  0  0  0  0  0  0  0  0  0  0  0
   22.6020  -20.6269  -13.9686 C   0  0  0  0  0  0  0  0  0  0  0  0
   20.5582  -21.6539  -14.6365 O   0  0  0  0  0  0  0  0  0  0  0  0
   19.3546  -22.0218  -14.4220 O   0  0  0  0  0  0  0  0  0  0  0  0
  2  1  1  1
  3  2  1  0
  4  3  1  0
  5  2  1  0
  5  6  2  0
  7  8  1  0
  8 10  1  0
  8  9  2  0
 10 11  1  0
 11 12  1  0
 12 13  1  0
 14 13  1  6
 15 14  1  0
 15  5  1  0
 16 14  1  0
 17 16  2  0
 18 19  1  0
 19 21  1  0
 19 20  2  0
 22 21  1  1
 22 23  1  0
 22 24  1  0
 23 16  1  0
 24 26  1  0
 25 24  2  0
M  END
$$$$
