CRN.pdb
     RDKit          3D

 26 25  0  0  1  0  0  0  0  0999 V2000
   19.0333  -23.8306  -12.4298 N   0  0  0  0  0  0  0  0  0  0  0  0
   18.9027  -23.5117  -11.0190 C   0  0  1  0  0  0  0  0  0  0  0  0
   18.3158  -22.1534  -10.8091 C   0  0  0  0  0  0  0  0  0  0  0  0
   19.3414  -20.8255  -11.4671 S   0  0  0  0  0  0  0  0  0  0  0  0
   18.1319  -24.5775  -10.3185 C   0  0  0  0  0  0  0  0  0  0  0  0
   16.9975  -24.8910  -10.7372 O   0  0  0  0  0  0  0  0  0  0  0  0
   21.1460  -29.8237  -11.8894 N   0  0  0  0  0  0  0  0  0  0  0  0
   21.3375  -29.7807  -10.4819 C   0  0  0  0  0  0  0  0  0  0  0  0
   22.5290  -29.8507  -10.0056 N   0  0  0  0  0  0  0  0  0  0  0  0
   20.1889  -29.6603   -9.6240 N   0  0  0  0  0  0  0  0  0  0  0  0
   18.8973  -29.5373  -10.2510 C   0  0  0  0  0  0  0  0  0  0  0  0
   18.3313  -28.1437  -10.1407 C   0  0  0  0  0  0  0  0  0  0  0  0
   18.5364  -27.6681   -8.7103 C   0  0  0  0  0  0  0  0  0  0  0  0
   17.8932  -26.2930   -8.5218 C   0  0  2  0  0  0  0  0  0  0  0  0
   18.6417  -25.2608   -9.1761 N   0  0  0  0  0  0  0  0  0  0  0  0
   17.9123  -26.0481   -7.0308 C   0  0  0  0  0  0  0  0  0  0  0  0
   18.6289  -25.1120   -6.6238 O   0  0  0  0  0  0  0  0  0  0  0  0
   22.6845  -29.8579   -8.9784 N   0  0  0  0  0  0  0  0  0  0  0  0
   16.0544  -23.9855   -2.7512 C   0  0  0  0  0  0  0  0  0  0  0  0
   15.2874  -24.6600   -3.7382 O   0  0  0  0  0  0  0  0  0  0  0  0
   14.0807  -24.9584   -3.4476 C   0  0  0  0  0  0  0  0  0  0  0  0
   15.8665  -25.0128   -5.0723 C   0  0  1  0  0  0  0  0  0  0  0  0
   16.7199  -26.2372   -4.8802 N   0  0  0  0  0  0  0  0  0  0  0  0
   17.1794  -26.8029   -6.1113 C   0  0  0  0  0  0  0  0  0  0  0  0
   16.0044  -27.2502   -4.0871 O   0  0  0  0  0  0  0  0  0  0  0  0
   16.1710  -27.2762   -2.8216 O   0  0  0  0  0  0  0  0  0  0  0  0
  2  1  1  6
  3  2  1  0
  4  3  1  0
  5  2  1  0
  5  6  2  0
  7  8  1  0
  8 10  1  0
  8  9  2  0
 10 11  1  0
 11 12  1  0
 12 13  1  0
 14 13  1  1
 15 14  1  0
 15  5  1  0
 16 14  1  0
 17 16  2  0
 18 19  1  0
 19 21  1  0
 19 20  2  0
 22 21  1  1
 22 23  1  0
 22 24  1  0
 23 16  1  0
 24 26  1  0
 25 24  2  0
M  END
$$$$
