CRN.pdb
     RDKit          3D

 26 25  0  0  1  0  0  0  0  0999 V2000
   18.9457  -14.9396  -14.9816 N   0  0  0  0  0  0  0  0  0  0  0  0
   18.4278  -13.9608  -15.9212 C   0  0  1  0  0  0  0  0  0  0  0  0
   16.9992  -13.6238  -15.6404 C   0  0  0  0  0  0  0  0  0  0  0  0
   15.8641  -14.9754  -16.0053 S   0  0  0  0  0  0  0  0  0  0  0  0
   19.3020  -12.7541  -15.9430 C   0  0  0  0  0  0  0  0  0  0  0  0
   19.6591  -12.2349  -14.8644 O   0  0  0  0  0  0  0  0  0  0  0  0
   24.4927   -8.1115  -18.4201 N   0  0  0  0  0  0  0  0  0  0  0  0
   24.1076   -7.7069  -19.7269 C   0  0  0  0  0  0  0  0  0  0  0  0
   24.4572   -6.5471  -20.1561 N   0  0  0  0  0  0  0  0  0  0  0  0
   23.3333   -8.6085  -20.5375 N   0  0  0  0  0  0  0  0  0  0  0  0
   22.9818   -9.8844  -19.9674 C   0  0  0  0  0  0  0  0  0  0  0  0
   21.9324   -9.7674  -18.8906 C   0  0  0  0  0  0  0  0  0  0  0  0
   21.6408  -11.1661  -18.3684 C   0  0  0  0  0  0  0  0  0  0  0  0
   20.7002  -11.0866  -17.1646 C   0  0  2  0  0  0  0  0  0  0  0  0
   19.7512  -12.1604  -17.1586 N   0  0  0  0  0  0  0  0  0  0  0  0
   19.9636   -9.7768  -17.3236 C   0  0  0  0  0  0  0  0  0  0  0  0
   18.8963   -9.8064  -17.9682 O   0  0  0  0  0  0  0  0  0  0  0  0
   24.1771   -6.2321  -21.1056 N   0  0  0  0  0  0  0  0  0  0  0  0
   17.8340   -5.4286  -16.0553 C   0  0  0  0  0  0  0  0  0  0  0  0
   17.5137   -6.6662  -15.4361 O   0  0  0  0  0  0  0  0  0  0  0  0
   16.4531   -6.7159  -14.7275 C   0  0  0  0  0  0  0  0  0  0  0  0
   18.3843   -7.8720  -15.6026 C   0  0  2  0  0  0  0  0  0  0  0  0
   19.5092   -7.4880  -16.5253 N   0  0  0  0  0  0  0  0  0  0  0  0
   20.4123   -8.5651  -16.7918 C   0  0  0  0  0  0  0  0  0  0  0  0
   20.2413   -6.3254  -15.9964 O   0  0  0  0  0  0  0  0  0  0  0  0
   21.1987   -6.5188  -15.1743 O   0  0  0  0  0  0  0  0  0  0  0  0
  2  1  1  1
  3  2  1  0
  4  3  1  0
  5  2  1  0
  5  6  2  0
  7  8  1  0
  8 10  1  0
  8  9  2  0
 10 11  1  0
 11 12  1  0
 12 13  1  0
 14 13  1  6
 15 14  1  0
 15  5  1  0
 16 14  1  0
 17 16  2  0
 18 19  1  0
 19 21  1  0
 19 20  2  0
 22 21  1  6
 22 23  1  0
 22 24  1  0
 23 16  1  0
 24 26  1  0
 25 24  2  0
M  END
$$$$
