HVL.pdb
     RDKit          3D

 26 26  0  0  1  0  0  0  0  0999 V2000
   13.2330  -14.2099   19.0842 N   0  0  0  0  0  0  0  0  0  0  0  0
   12.3937  -15.2089   19.7178 C   0  0  1  0  0  0  0  0  0  0  0  0
   13.3113  -16.1022   20.5271 C   0  0  0  0  0  0  0  0  0  0  0  0
   14.0912  -17.0098   19.6509 C   0  0  0  0  0  0  0  0  0  0  0  0
   13.6056  -18.1261   19.0088 C   0  0  0  0  0  0  0  0  0  0  0  0
   14.5984  -18.6987   18.3050 N   0  0  0  0  0  0  0  0  0  0  0  0
   15.7069  -17.9606   18.4922 C   0  0  0  0  0  0  0  0  0  0  0  0
   15.3909  -16.9398   19.3085 N   0  0  0  0  0  0  0  0  0  0  0  0
   11.4122  -14.5102   20.5728 C   0  0  0  0  0  0  0  0  0  0  0  0
   11.8054  -13.6628   21.4336 O   0  0  0  0  0  0  0  0  0  0  0  0
    6.7532  -13.1906   21.5048 C   0  0  0  0  0  0  0  0  0  0  0  0
    7.7358  -13.8336   20.5810 C   0  0  1  0  0  0  0  0  0  0  0  0
    7.9939  -13.0521   19.3270 C   0  0  0  0  0  0  0  0  0  0  0  0
    9.0459  -14.0405   21.3003 C   0  0  2  0  0  0  0  0  0  0  0  0
   10.0148  -14.7371   20.4862 N   0  0  0  0  0  0  0  0  0  0  0  0
    8.8575  -14.6989   22.6197 C   0  0  0  0  0  0  0  0  0  0  0  0
    9.4301  -15.7970   22.8375 O   0  0  0  0  0  0  0  0  0  0  0  0
    6.2122  -11.7181   26.4804 C   0  0  0  0  0  0  0  0  0  0  0  0
    7.3436  -12.5901   26.0365 C   0  0  1  0  0  0  0  0  0  0  0  0
    8.5124  -12.2790   26.9709 C   0  0  0  0  0  0  0  0  0  0  0  0
    7.1012  -14.0207   25.8668 C   0  0  0  0  0  0  0  0  0  0  0  0
    7.8872  -14.8679   24.9623 C   0  0  2  0  0  0  0  0  0  0  0  0
    8.0680  -14.1657   23.6576 N   0  0  0  0  0  0  0  0  0  0  0  0
    7.5157  -16.2539   24.7346 C   0  0  0  0  0  0  0  0  0  0  0  0
    7.9106  -17.3399   25.4686 O   0  0  0  0  0  0  0  0  0  0  0  0
    6.7345  -16.4821   23.7284 O   0  0  0  0  0  0  0  0  0  0  0  0
  2  9  1  0
  2  1  1  1
  3  2  1  0
  4  3  1  0
  5  4  2  0
  6  7  1  0
  6  5  1  0
  7  8  2  0
  8  4  1  0
  9 10  2  0
 12 14  1  0
 12 11  1  1
 13 12  1  0
 14 15  1  6
 15  9  1  0
 16 14  1  0
 17 16  2  0
 19 18  1  1
 19 21  1  0
 20 19  1  0
 22 21  1  1
 22 23  1  0
 22 24  1  0
 23 16  1  0
 24 25  1  0
 26 24  2  0
M  END
$$$$
