HVL.pdb
     RDKit          3D

 26 26  0  0  1  0  0  0  0  0999 V2000
   12.3258  -17.7343   19.4324 N   0  0  0  0  0  0  0  0  0  0  0  0
   11.7086  -17.9352   20.7295 C   0  0  1  0  0  0  0  0  0  0  0  0
   12.8248  -18.2668   21.6988 C   0  0  0  0  0  0  0  0  0  0  0  0
   13.3500  -19.6346   21.4692 C   0  0  0  0  0  0  0  0  0  0  0  0
   12.6509  -20.8073   21.6428 C   0  0  0  0  0  0  0  0  0  0  0  0
   13.4485  -21.8470   21.3399 N   0  0  0  0  0  0  0  0  0  0  0  0
   14.6439  -21.3493   20.9766 C   0  0  0  0  0  0  0  0  0  0  0  0
   14.5756  -20.0088   21.0577 N   0  0  0  0  0  0  0  0  0  0  0  0
   11.0077  -16.6896   21.1035 C   0  0  0  0  0  0  0  0  0  0  0  0
   11.6721  -15.6481   21.3992 O   0  0  0  0  0  0  0  0  0  0  0  0
    6.8992  -13.9848   21.3126 C   0  0  0  0  0  0  0  0  0  0  0  0
    7.6464  -15.1495   20.7491 C   0  0  1  0  0  0  0  0  0  0  0  0
    8.0242  -14.9900   19.3063 C   0  0  0  0  0  0  0  0  0  0  0  0
    8.9005  -15.3836   21.5545 C   0  0  2  0  0  0  0  0  0  0  0  0
    9.5941  -16.5856   21.1531 N   0  0  0  0  0  0  0  0  0  0  0  0
    8.6341  -15.3618   23.0169 C   0  0  0  0  0  0  0  0  0  0  0  0
    8.6659  -16.4442   23.6560 O   0  0  0  0  0  0  0  0  0  0  0  0
    7.1485  -11.1194   27.4275 C   0  0  0  0  0  0  0  0  0  0  0  0
    7.2014  -12.5484   26.9886 C   0  0  1  0  0  0  0  0  0  0  0  0
    5.8066  -13.1218   27.2379 C   0  0  0  0  0  0  0  0  0  0  0  0
    7.7257  -12.8545   25.6599 C   0  0  0  0  0  0  0  0  0  0  0  0
    7.9860  -14.2214   25.1934 C   0  0  2  0  0  0  0  0  0  0  0  0
    8.3440  -14.1909   23.7446 N   0  0  0  0  0  0  0  0  0  0  0  0
    7.0312  -15.2864   25.4481 C   0  0  0  0  0  0  0  0  0  0  0  0
    7.1176  -16.2512   26.4155 O   0  0  0  0  0  0  0  0  0  0  0  0
    5.9950  -15.3272   24.6738 O   0  0  0  0  0  0  0  0  0  0  0  0
  2  9  1  0
  2  1  1  6
  3  2  1  0
  4  3  1  0
  5  4  2  0
  6  7  1  0
  6  5  1  0
  7  8  2  0
  8  4  1  0
  9 10  2  0
 12 14  1  0
 12 11  1  1
 13 12  1  0
 14 15  1  6
 15  9  1  0
 16 14  1  0
 17 16  2  0
 19 18  1  6
 19 21  1  0
 20 19  1  0
 22 21  1  6
 22 23  1  0
 22 24  1  0
 23 16  1  0
 24 25  1  0
 26 24  2  0
M  END
$$$$
