HVL.pdb
     RDKit          3D

 26 26  0  0  1  0  0  0  0  0999 V2000
   12.8370  -14.1033   18.7897 N   0  0  0  0  0  0  0  0  0  0  0  0
   12.4329  -15.0075   19.8493 C   0  0  1  0  0  0  0  0  0  0  0  0
   13.6631  -15.2703   20.6936 C   0  0  0  0  0  0  0  0  0  0  0  0
   14.5800  -16.2270   20.0277 C   0  0  0  0  0  0  0  0  0  0  0  0
   14.3528  -16.8600   18.8268 C   0  0  0  0  0  0  0  0  0  0  0  0
   15.4009  -17.6521   18.5389 N   0  0  0  0  0  0  0  0  0  0  0  0
   16.2895  -17.5299   19.5408 C   0  0  0  0  0  0  0  0  0  0  0  0
   15.7845  -16.6651   20.4382 N   0  0  0  0  0  0  0  0  0  0  0  0
   11.3610  -14.3538   20.6282 C   0  0  0  0  0  0  0  0  0  0  0  0
   11.5169  -13.1685   21.0576 O   0  0  0  0  0  0  0  0  0  0  0  0
    6.6823  -13.6755   21.5989 C   0  0  0  0  0  0  0  0  0  0  0  0
    7.7787  -14.3081   20.8049 C   0  0  1  0  0  0  0  0  0  0  0  0
    8.0610  -13.6210   19.5019 C   0  0  0  0  0  0  0  0  0  0  0  0
    9.0461  -14.3331   21.6231 C   0  0  2  0  0  0  0  0  0  0  0  0
   10.1315  -14.9915   20.9335 N   0  0  0  0  0  0  0  0  0  0  0  0
    8.8228  -14.9066   22.9763 C   0  0  0  0  0  0  0  0  0  0  0  0
    9.4700  -15.9296   23.3166 O   0  0  0  0  0  0  0  0  0  0  0  0
    5.5600  -11.9117   26.2018 C   0  0  0  0  0  0  0  0  0  0  0  0
    6.8432  -12.6272   25.9205 C   0  0  1  0  0  0  0  0  0  0  0  0
    7.9218  -11.8965   26.7199 C   0  0  0  0  0  0  0  0  0  0  0  0
    6.8860  -14.0787   26.0801 C   0  0  0  0  0  0  0  0  0  0  0  0
    7.7569  -14.9502   25.2828 C   0  0  2  0  0  0  0  0  0  0  0  0
    7.9204  -14.3714   23.9167 N   0  0  0  0  0  0  0  0  0  0  0  0
    7.4956  -16.3764   25.1914 C   0  0  0  0  0  0  0  0  0  0  0  0
    7.1745  -17.0806   24.0621 O   0  0  0  0  0  0  0  0  0  0  0  0
    7.5695  -17.0466   26.2960 O   0  0  0  0  0  0  0  0  0  0  0  0
  2  9  1  0
  2  1  1  6
  3  2  1  0
  4  3  1  0
  5  4  2  0
  6  7  1  0
  6  5  1  0
  7  8  2  0
  8  4  1  0
  9 10  2  0
 12 14  1  0
 12 11  1  1
 13 12  1  0
 14 15  1  6
 15  9  1  0
 16 14  1  0
 17 16  2  0
 19 18  1  1
 19 21  1  0
 20 19  1  0
 22 21  1  6
 22 23  1  0
 22 24  1  0
 23 16  1  0
 24 25  1  0
 26 24  2  0
M  END
$$$$
