HVL.pdb
     RDKit          3D

 26 26  0  0  1  0  0  0  0  0999 V2000
   11.2422  -16.3599   18.2548 N   0  0  0  0  0  0  0  0  0  0  0  0
   11.6488  -16.0300   19.6074 C   0  0  1  0  0  0  0  0  0  0  0  0
   12.1597  -14.6041   19.5756 C   0  0  0  0  0  0  0  0  0  0  0  0
   13.5894  -14.5520   19.1846 C   0  0  0  0  0  0  0  0  0  0  0  0
   14.6277  -15.1778   19.8363 C   0  0  0  0  0  0  0  0  0  0  0  0
   15.7793  -14.9059   19.1971 N   0  0  0  0  0  0  0  0  0  0  0  0
   15.4853  -14.1162   18.1490 C   0  0  0  0  0  0  0  0  0  0  0  0
   14.1570  -13.9069   18.1488 N   0  0  0  0  0  0  0  0  0  0  0  0
   10.4721  -16.1727   20.4894 C   0  0  0  0  0  0  0  0  0  0  0  0
    9.3604  -15.6549   20.1583 O   0  0  0  0  0  0  0  0  0  0  0  0
    8.0810  -18.7093   23.9060 C   0  0  0  0  0  0  0  0  0  0  0  0
    9.2088  -18.5604   22.9372 C   0  0  1  0  0  0  0  0  0  0  0  0
    9.0586  -19.3892   21.6962 C   0  0  0  0  0  0  0  0  0  0  0  0
    9.3448  -17.1117   22.5380 C   0  0  2  0  0  0  0  0  0  0  0  0
   10.5125  -16.8751   21.7209 N   0  0  0  0  0  0  0  0  0  0  0  0
    9.3009  -16.2044   23.7147 C   0  0  0  0  0  0  0  0  0  0  0  0
   10.3597  -15.9956   24.3602 O   0  0  0  0  0  0  0  0  0  0  0  0
    5.3734  -12.0957   26.2456 C   0  0  0  0  0  0  0  0  0  0  0  0
    6.7888  -12.5577   26.1015 C   0  0  1  0  0  0  0  0  0  0  0  0
    7.2716  -12.8955   27.5119 C   0  0  0  0  0  0  0  0  0  0  0  0
    7.0904  -13.5972   25.1205 C   0  0  0  0  0  0  0  0  0  0  0  0
    8.1425  -14.6023   25.3113 C   0  0  2  0  0  0  0  0  0  0  0  0
    8.1339  -15.5535   24.1611 N   0  0  0  0  0  0  0  0  0  0  0  0
    8.2510  -15.3341   26.5618 C   0  0  0  0  0  0  0  0  0  0  0  0
    9.1463  -15.1040   27.5716 O   0  0  0  0  0  0  0  0  0  0  0  0
    7.4160  -16.3080   26.7325 O   0  0  0  0  0  0  0  0  0  0  0  0
  2  9  1  0
  2  1  1  6
  3  2  1  0
  4  3  1  0
  5  4  2  0
  6  7  1  0
  6  5  1  0
  7  8  2  0
  8  4  1  0
  9 10  2  0
 12 14  1  0
 12 11  1  1
 13 12  1  0
 14 15  1  1
 15  9  1  0
 16 14  1  0
 17 16  2  0
 19 18  1  1
 19 21  1  0
 20 19  1  0
 22 21  1  1
 22 23  1  0
 22 24  1  0
 23 16  1  0
 24 25  1  0
 26 24  2  0
M  END
$$$$
