HVL.pdb
     RDKit          3D

 26 26  0  0  1  0  0  0  0  0999 V2000
   12.3344  -14.8144   17.8076 N   0  0  0  0  0  0  0  0  0  0  0  0
   12.4872  -15.0449   19.2314 C   0  0  1  0  0  0  0  0  0  0  0  0
   13.8317  -14.4691   19.6264 C   0  0  0  0  0  0  0  0  0  0  0  0
   14.9452  -15.2116   18.9874 C   0  0  0  0  0  0  0  0  0  0  0  0
   15.3741  -16.4741   19.3287 C   0  0  0  0  0  0  0  0  0  0  0  0
   16.4027  -16.8216   18.5348 N   0  0  0  0  0  0  0  0  0  0  0  0
   16.6318  -15.7965   17.6950 C   0  0  0  0  0  0  0  0  0  0  0  0
   15.7447  -14.8257   17.9759 N   0  0  0  0  0  0  0  0  0  0  0  0
   11.3736  -14.3696   19.9291 C   0  0  0  0  0  0  0  0  0  0  0  0
   11.4744  -13.1464   20.2564 O   0  0  0  0  0  0  0  0  0  0  0  0
    6.5983  -13.9974   20.8052 C   0  0  0  0  0  0  0  0  0  0  0  0
    7.7533  -14.6030   20.0761 C   0  0  1  0  0  0  0  0  0  0  0  0
    7.9263  -14.0905   18.6771 C   0  0  0  0  0  0  0  0  0  0  0  0
    9.0263  -14.3492   20.8451 C   0  0  2  0  0  0  0  0  0  0  0  0
   10.1624  -15.0269   20.2646 N   0  0  0  0  0  0  0  0  0  0  0  0
    8.8748  -14.6635   22.2901 C   0  0  0  0  0  0  0  0  0  0  0  0
    9.4334  -15.6921   22.7496 O   0  0  0  0  0  0  0  0  0  0  0  0
    8.5535  -12.2649   27.6302 C   0  0  0  0  0  0  0  0  0  0  0  0
    7.4614  -12.8786   26.8128 C   0  0  1  0  0  0  0  0  0  0  0  0
    6.1669  -12.1928   27.2490 C   0  0  0  0  0  0  0  0  0  0  0  0
    7.6234  -12.9436   25.3625 C   0  0  0  0  0  0  0  0  0  0  0  0
    8.1434  -14.1246   24.6634 C   0  0  2  0  0  0  0  0  0  0  0  0
    8.1355  -13.8731   23.1922 N   0  0  0  0  0  0  0  0  0  0  0  0
    7.6120  -15.4471   24.9455 C   0  0  0  0  0  0  0  0  0  0  0  0
    8.1750  -16.4031   25.7475 O   0  0  0  0  0  0  0  0  0  0  0  0
    6.4924  -15.7512   24.3722 O   0  0  0  0  0  0  0  0  0  0  0  0
  2  9  1  0
  2  1  1  6
  3  2  1  0
  4  3  1  0
  5  4  2  0
  6  7  1  0
  6  5  1  0
  7  8  2  0
  8  4  1  0
  9 10  2  0
 12 14  1  0
 12 11  1  1
 13 12  1  0
 14 15  1  6
 15  9  1  0
 16 14  1  0
 17 16  2  0
 19 18  1  1
 19 21  1  0
 20 19  1  0
 22 21  1  1
 22 23  1  0
 22 24  1  0
 23 16  1  0
 24 25  1  0
 26 24  2  0
M  END
$$$$
