HVL.pdb
     RDKit          3D

 26 26  0  0  1  0  0  0  0  0999 V2000
   10.4709  -17.0236   18.7982 N   0  0  0  0  0  0  0  0  0  0  0  0
   10.9999  -16.3169   19.9491 C   0  0  1  0  0  0  0  0  0  0  0  0
   11.2577  -14.8910   19.5067 C   0  0  0  0  0  0  0  0  0  0  0  0
   12.6733  -14.6973   19.1089 C   0  0  0  0  0  0  0  0  0  0  0  0
   13.7066  -14.3461   19.9476 C   0  0  0  0  0  0  0  0  0  0  0  0
   14.8450  -14.2630   19.2363 N   0  0  0  0  0  0  0  0  0  0  0  0
   14.5475  -14.5566   17.9581 C   0  0  0  0  0  0  0  0  0  0  0  0
   13.2304  -14.8184   17.8898 N   0  0  0  0  0  0  0  0  0  0  0  0
    9.9964  -16.3837   21.0313 C   0  0  0  0  0  0  0  0  0  0  0  0
    8.7814  -16.1002   20.7928 O   0  0  0  0  0  0  0  0  0  0  0  0
    8.3967  -18.8867   24.7682 C   0  0  0  0  0  0  0  0  0  0  0  0
    9.2788  -18.6034   23.5959 C   0  0  1  0  0  0  0  0  0  0  0  0
    8.8498  -19.2876   22.3320 C   0  0  0  0  0  0  0  0  0  0  0  0
    9.3284  -17.1160   23.3480 C   0  0  2  0  0  0  0  0  0  0  0  0
   10.3202  -16.7571   22.3608 N   0  0  0  0  0  0  0  0  0  0  0  0
    9.5009  -16.3478   24.6089 C   0  0  0  0  0  0  0  0  0  0  0  0
   10.6576  -16.2097   25.0823 O   0  0  0  0  0  0  0  0  0  0  0  0
    5.7035  -12.4589   26.2779 C   0  0  0  0  0  0  0  0  0  0  0  0
    6.9888  -13.1550   25.9600 C   0  0  1  0  0  0  0  0  0  0  0  0
    8.0117  -12.0538   25.6821 C   0  0  0  0  0  0  0  0  0  0  0  0
    7.4759  -14.1811   26.8786 C   0  0  0  0  0  0  0  0  0  0  0  0
    8.6482  -15.0189   26.6001 C   0  0  2  0  0  0  0  0  0  0  0  0
    8.4380  -15.7554   25.3190 N   0  0  0  0  0  0  0  0  0  0  0  0
    9.1733  -15.9197   27.6120 C   0  0  0  0  0  0  0  0  0  0  0  0
   10.0551  -15.6060   28.6111 O   0  0  0  0  0  0  0  0  0  0  0  0
    8.7668  -17.1471   27.5560 O   0  0  0  0  0  0  0  0  0  0  0  0
  2  9  1  0
  2  1  1  6
  3  2  1  0
  4  3  1  0
  5  4  2  0
  6  7  1  0
  6  5  1  0
  7  8  2  0
  8  4  1  0
  9 10  2  0
 12 14  1  0
 12 11  1  1
 13 12  1  0
 14 15  1  6
 15  9  1  0
 16 14  1  0
 17 16  2  0
 19 18  1  1
 19 21  1  0
 20 19  1  0
 22 21  1  1
 22 23  1  0
 22 24  1  0
 23 16  1  0
 24 25  1  0
 26 24  2  0
M  END
$$$$
