HVL.pdb
     RDKit          3D

 26 26  0  0  1  0  0  0  0  0999 V2000
    6.8370  -19.6597   21.9983 N   0  0  0  0  0  0  0  0  0  0  0  0
    6.0935  -18.4176   22.0883 C   0  0  1  0  0  0  0  0  0  0  0  0
    5.2866  -18.4821   23.3689 C   0  0  0  0  0  0  0  0  0  0  0  0
    6.1438  -18.8236   24.5300 C   0  0  0  0  0  0  0  0  0  0  0  0
    7.5016  -19.0455   24.4932 C   0  0  0  0  0  0  0  0  0  0  0  0
    7.9373  -19.3296   25.7335 N   0  0  0  0  0  0  0  0  0  0  0  0
    6.8741  -19.2909   26.5561 C   0  0  0  0  0  0  0  0  0  0  0  0
    5.7921  -18.9837   25.8192 N   0  0  0  0  0  0  0  0  0  0  0  0
    7.0618  -17.3018   22.1044 C   0  0  0  0  0  0  0  0  0  0  0  0
    8.2354  -17.4824   22.5557 O   0  0  0  0  0  0  0  0  0  0  0  0
    8.2928  -12.6839   20.8069 C   0  0  0  0  0  0  0  0  0  0  0  0
    7.2858  -13.7850   20.7287 C   0  0  1  0  0  0  0  0  0  0  0  0
    7.1134  -14.3554   19.3522 C   0  0  0  0  0  0  0  0  0  0  0  0
    7.6794  -14.8982   21.6679 C   0  0  2  0  0  0  0  0  0  0  0  0
    6.7482  -16.0020   21.6313 N   0  0  0  0  0  0  0  0  0  0  0  0
    7.8976  -14.4054   23.0534 C   0  0  0  0  0  0  0  0  0  0  0  0
    7.2201  -13.4291   23.4643 O   0  0  0  0  0  0  0  0  0  0  0  0
    5.7662  -12.6263   26.5555 C   0  0  0  0  0  0  0  0  0  0  0  0
    7.1314  -12.8070   25.9714 C   0  0  1  0  0  0  0  0  0  0  0  0
    8.0318  -11.7897   26.6719 C   0  0  0  0  0  0  0  0  0  0  0  0
    7.7015  -14.1512   25.9246 C   0  0  0  0  0  0  0  0  0  0  0  0
    9.0128  -14.4486   25.3364 C   0  0  2  0  0  0  0  0  0  0  0  0
    8.8274  -14.9686   23.9496 N   0  0  0  0  0  0  0  0  0  0  0  0
    9.9773  -15.2675   26.0505 C   0  0  0  0  0  0  0  0  0  0  0  0
   10.4968  -16.4665   25.6423 O   0  0  0  0  0  0  0  0  0  0  0  0
   10.3806  -14.8155   27.1941 O   0  0  0  0  0  0  0  0  0  0  0  0
  2  9  1  0
  2  1  1  1
  3  2  1  0
  4  3  1  0
  5  4  2  0
  6  7  1  0
  6  5  1  0
  7  8  2  0
  8  4  1  0
  9 10  2  0
 12 14  1  0
 12 11  1  6
 13 12  1  0
 14 15  1  1
 15  9  1  0
 16 14  1  0
 17 16  2  0
 19 18  1  1
 19 21  1  0
 20 19  1  0
 22 21  1  1
 22 23  1  0
 22 24  1  0
 23 16  1  0
 24 25  1  0
 26 24  2  0
M  END
$$$$
