HVL.pdb
     RDKit          3D

 26 26  0  0  1  0  0  0  0  0999 V2000
   11.3849  -17.9123   18.9436 N   0  0  0  0  0  0  0  0  0  0  0  0
   10.0883  -17.9539   19.5923 C   0  0  1  0  0  0  0  0  0  0  0  0
   10.0325  -19.2490   20.3765 C   0  0  0  0  0  0  0  0  0  0  0  0
    9.5444  -20.3685   19.5350 C   0  0  0  0  0  0  0  0  0  0  0  0
    9.1630  -20.2796   18.2155 C   0  0  0  0  0  0  0  0  0  0  0  0
    8.7792  -21.4939   17.7831 N   0  0  0  0  0  0  0  0  0  0  0  0
    8.9121  -22.3515   18.8105 C   0  0  0  0  0  0  0  0  0  0  0  0
    9.3760  -21.6617   19.8674 N   0  0  0  0  0  0  0  0  0  0  0  0
    9.9761  -16.7729   20.4729 C   0  0  0  0  0  0  0  0  0  0  0  0
   11.0222  -16.2232   20.9388 O   0  0  0  0  0  0  0  0  0  0  0  0
    7.2496  -13.1356   22.4082 C   0  0  0  0  0  0  0  0  0  0  0  0
    7.4120  -14.2020   21.3744 C   0  0  1  0  0  0  0  0  0  0  0  0
    7.5703  -13.6773   19.9782 C   0  0  0  0  0  0  0  0  0  0  0  0
    8.6114  -15.0536   21.7101 C   0  0  2  0  0  0  0  0  0  0  0  0
    8.7315  -16.2000   20.8392 N   0  0  0  0  0  0  0  0  0  0  0  0
    8.6316  -15.4447   23.1441 C   0  0  0  0  0  0  0  0  0  0  0  0
    8.0132  -16.4802   23.4997 O   0  0  0  0  0  0  0  0  0  0  0  0
   10.9519  -14.2491   28.5939 C   0  0  0  0  0  0  0  0  0  0  0  0
    9.6841  -13.9430   27.8615 C   0  0  1  0  0  0  0  0  0  0  0  0
    9.1513  -12.6409   28.4590 C   0  0  0  0  0  0  0  0  0  0  0  0
    9.6999  -13.9473   26.4007 C   0  0  0  0  0  0  0  0  0  0  0  0
    9.1859  -15.0605   25.5942 C   0  0  2  0  0  0  0  0  0  0  0  0
    9.3080  -14.7209   24.1459 N   0  0  0  0  0  0  0  0  0  0  0  0
    7.8763  -15.6289   25.8638 C   0  0  0  0  0  0  0  0  0  0  0  0
    6.6625  -15.0505   25.6060 O   0  0  0  0  0  0  0  0  0  0  0  0
    7.8598  -16.8020   26.4100 O   0  0  0  0  0  0  0  0  0  0  0  0
  2  9  1  0
  2  1  1  1
  3  2  1  0
  4  3  1  0
  5  4  2  0
  6  7  1  0
  6  5  1  0
  7  8  2  0
  8  4  1  0
  9 10  2  0
 12 14  1  0
 12 11  1  1
 13 12  1  0
 14 15  1  6
 15  9  1  0
 16 14  1  0
 17 16  2  0
 19 18  1  1
 19 21  1  0
 20 19  1  0
 22 21  1  1
 22 23  1  0
 22 24  1  0
 23 16  1  0
 24 25  1  0
 26 24  2  0
M  END
$$$$
