HVL.pdb
     RDKit          3D

 26 26  0  0  1  0  0  0  0  0999 V2000
   12.9295  -16.8406   19.8830 N   0  0  0  0  0  0  0  0  0  0  0  0
   12.1211  -17.4511   20.9211 C   0  0  1  0  0  0  0  0  0  0  0  0
   13.0776  -17.9474   21.9860 C   0  0  0  0  0  0  0  0  0  0  0  0
   13.7992  -19.1634   21.5385 C   0  0  0  0  0  0  0  0  0  0  0  0
   13.2320  -20.3921   21.2877 C   0  0  0  0  0  0  0  0  0  0  0  0
   14.1915  -21.2518   20.9016 N   0  0  0  0  0  0  0  0  0  0  0  0
   15.3593  -20.5849   20.9042 C   0  0  0  0  0  0  0  0  0  0  0  0
   15.1127  -19.3209   21.2911 N   0  0  0  0  0  0  0  0  0  0  0  0
   11.1967  -16.4257   21.4472 C   0  0  0  0  0  0  0  0  0  0  0  0
   11.6418  -15.2941   21.8146 O   0  0  0  0  0  0  0  0  0  0  0  0
    6.6379  -14.6729   22.0141 C   0  0  0  0  0  0  0  0  0  0  0  0
    7.5866  -15.6050   21.3331 C   0  0  1  0  0  0  0  0  0  0  0  0
    7.8730  -15.2459   19.9052 C   0  0  0  0  0  0  0  0  0  0  0  0
    8.8896  -15.6447   22.0927 C   0  0  2  0  0  0  0  0  0  0  0  0
    9.7996  -16.6373   21.5696 N   0  0  0  0  0  0  0  0  0  0  0  0
    8.6759  -15.8071   23.5548 C   0  0  0  0  0  0  0  0  0  0  0  0
    9.1220  -16.8363   24.1229 O   0  0  0  0  0  0  0  0  0  0  0  0
    6.7437  -11.3831   26.4621 C   0  0  0  0  0  0  0  0  0  0  0  0
    7.6420  -12.5413   26.1635 C   0  0  1  0  0  0  0  0  0  0  0  0
    8.9621  -12.2508   26.8770 C   0  0  0  0  0  0  0  0  0  0  0  0
    7.1422  -13.8942   26.3961 C   0  0  0  0  0  0  0  0  0  0  0  0
    7.7612  -15.0912   25.8150 C   0  0  2  0  0  0  0  0  0  0  0  0
    7.9965  -14.8698   24.3578 N   0  0  0  0  0  0  0  0  0  0  0  0
    7.1811  -16.4055   26.0317 C   0  0  0  0  0  0  0  0  0  0  0  0
    7.4774  -17.2755   27.0464 O   0  0  0  0  0  0  0  0  0  0  0  0
    6.2967  -16.7930   25.1701 O   0  0  0  0  0  0  0  0  0  0  0  0
  2  9  1  0
  2  1  1  6
  3  2  1  0
  4  3  1  0
  5  4  2  0
  6  7  1  0
  6  5  1  0
  7  8  2  0
  8  4  1  0
  9 10  2  0
 12 14  1  0
 12 11  1  1
 13 12  1  0
 14 15  1  6
 15  9  1  0
 16 14  1  0
 17 16  2  0
 19 18  1  1
 19 21  1  0
 20 19  1  0
 22 21  1  6
 22 23  1  0
 22 24  1  0
 23 16  1  0
 24 25  1  0
 26 24  2  0
M  END
$$$$
