HVL.pdb
     RDKit          3D

 26 26  0  0  1  0  0  0  0  0999 V2000
    6.7857  -17.0218   19.3328 N   0  0  0  0  0  0  0  0  0  0  0  0
    7.6014  -16.1514   20.1579 C   0  0  1  0  0  0  0  0  0  0  0  0
    7.3499  -14.7352   19.6824 C   0  0  0  0  0  0  0  0  0  0  0  0
    7.9718  -14.4924   18.3581 C   0  0  0  0  0  0  0  0  0  0  0  0
    7.5139  -13.6171   17.3996 C   0  0  0  0  0  0  0  0  0  0  0  0
    8.3302  -13.6638   16.3317 N   0  0  0  0  0  0  0  0  0  0  0  0
    9.2993  -14.5567   16.6000 C   0  0  0  0  0  0  0  0  0  0  0  0
    9.0748  -15.0537   17.8291 N   0  0  0  0  0  0  0  0  0  0  0  0
    7.1952  -16.3387   21.5660 C   0  0  0  0  0  0  0  0  0  0  0  0
    5.9637  -16.3917   21.8728 O   0  0  0  0  0  0  0  0  0  0  0  0
    7.0061  -18.9724   23.5700 C   0  0  0  0  0  0  0  0  0  0  0  0
    7.8763  -18.1130   24.4283 C   0  0  1  0  0  0  0  0  0  0  0  0
    9.3277  -18.4900   24.3938 C   0  0  0  0  0  0  0  0  0  0  0  0
    7.7406  -16.6717   24.0034 C   0  0  2  0  0  0  0  0  0  0  0  0
    8.1279  -16.4666   22.6269 N   0  0  0  0  0  0  0  0  0  0  0  0
    8.4599  -15.7512   24.9227 C   0  0  0  0  0  0  0  0  0  0  0  0
    9.6314  -15.3975   24.6335 O   0  0  0  0  0  0  0  0  0  0  0  0
    6.0475  -11.4910   27.2784 C   0  0  0  0  0  0  0  0  0  0  0  0
    7.0552  -12.4119   26.6668 C   0  0  1  0  0  0  0  0  0  0  0  0
    7.9321  -11.5441   25.7645 C   0  0  0  0  0  0  0  0  0  0  0  0
    7.8201  -13.2955   27.5433 C   0  0  0  0  0  0  0  0  0  0  0  0
    8.6851  -14.3711   27.0445 C   0  0  2  0  0  0  0  0  0  0  0  0
    7.9073  -15.2413   26.1142 N   0  0  0  0  0  0  0  0  0  0  0  0
    9.4561  -15.1895   27.9646 C   0  0  0  0  0  0  0  0  0  0  0  0
   10.5274  -14.7898   28.7174 O   0  0  0  0  0  0  0  0  0  0  0  0
    9.0925  -16.4264   28.0771 O   0  0  0  0  0  0  0  0  0  0  0  0
  2  9  1  0
  2  1  1  6
  3  2  1  0
  4  3  1  0
  5  4  2  0
  6  7  1  0
  6  5  1  0
  7  8  2  0
  8  4  1  0
  9 10  2  0
 12 14  1  0
 12 11  1  6
 13 12  1  0
 14 15  1  6
 15  9  1  0
 16 14  1  0
 17 16  2  0
 19 18  1  1
 19 21  1  0
 20 19  1  0
 22 21  1  1
 22 23  1  0
 22 24  1  0
 23 16  1  0
 24 25  1  0
 26 24  2  0
M  END
$$$$
