HVL.pdb
     RDKit          3D

 26 26  0  0  1  0  0  0  0  0999 V2000
    8.5616  -18.8493   19.4535 N   0  0  0  0  0  0  0  0  0  0  0  0
    7.7555  -18.1865   20.4608 C   0  0  1  0  0  0  0  0  0  0  0  0
    7.7436  -19.0903   21.6766 C   0  0  0  0  0  0  0  0  0  0  0  0
    6.9092  -20.2944   21.4456 C   0  0  0  0  0  0  0  0  0  0  0  0
    6.2721  -20.6214   20.2702 C   0  0  0  0  0  0  0  0  0  0  0  0
    5.6106  -21.7811   20.4332 N   0  0  0  0  0  0  0  0  0  0  0  0
    5.8197  -22.1937   21.6960 C   0  0  0  0  0  0  0  0  0  0  0  0
    6.6071  -21.2877   22.3020 N   0  0  0  0  0  0  0  0  0  0  0  0
    8.3725  -16.8768   20.7555 C   0  0  0  0  0  0  0  0  0  0  0  0
    9.6369  -16.7562   20.7689 O   0  0  0  0  0  0  0  0  0  0  0  0
    8.1983  -12.0064   20.9782 C   0  0  0  0  0  0  0  0  0  0  0  0
    7.5120  -13.2911   20.6448 C   0  0  1  0  0  0  0  0  0  0  0  0
    7.4584  -13.5892   19.1757 C   0  0  0  0  0  0  0  0  0  0  0  0
    8.2072  -14.4326   21.3450 C   0  0  2  0  0  0  0  0  0  0  0  0
    7.6127  -15.7116   21.0324 N   0  0  0  0  0  0  0  0  0  0  0  0
    8.3005  -14.2105   22.8119 C   0  0  0  0  0  0  0  0  0  0  0  0
    7.9997  -13.0810   23.2753 O   0  0  0  0  0  0  0  0  0  0  0  0
    5.3018  -13.0290   26.0282 C   0  0  0  0  0  0  0  0  0  0  0  0
    6.7367  -13.2776   25.6860 C   0  0  1  0  0  0  0  0  0  0  0  0
    7.5595  -12.4775   26.6955 C   0  0  0  0  0  0  0  0  0  0  0  0
    7.1913  -14.6571   25.5303 C   0  0  0  0  0  0  0  0  0  0  0  0
    8.5770  -15.0155   25.2063 C   0  0  2  0  0  0  0  0  0  0  0  0
    8.7100  -15.1970   23.7307 N   0  0  0  0  0  0  0  0  0  0  0  0
    9.2446  -16.1013   25.9037 C   0  0  0  0  0  0  0  0  0  0  0  0
    9.8822  -16.0298   27.1131 O   0  0  0  0  0  0  0  0  0  0  0  0
    9.2387  -17.2533   25.3141 O   0  0  0  0  0  0  0  0  0  0  0  0
  2  9  1  0
  2  1  1  6
  3  2  1  0
  4  3  1  0
  5  4  2  0
  6  7  1  0
  6  5  1  0
  7  8  2  0
  8  4  1  0
  9 10  2  0
 12 14  1  0
 12 11  1  6
 13 12  1  0
 14 15  1  1
 15  9  1  0
 16 14  1  0
 17 16  2  0
 19 18  1  1
 19 21  1  0
 20 19  1  0
 22 21  1  6
 22 23  1  0
 22 24  1  0
 23 16  1  0
 24 25  1  0
 26 24  2  0
M  END
$$$$
