HVL.pdb
     RDKit          3D

 26 26  0  0  1  0  0  0  0  0999 V2000
    9.2110  -18.8746   19.0540 N   0  0  0  0  0  0  0  0  0  0  0  0
    8.6353  -18.4753   20.3241 C   0  0  1  0  0  0  0  0  0  0  0  0
    9.1911  -19.4175   21.3722 C   0  0  0  0  0  0  0  0  0  0  0  0
    8.5745  -20.7625   21.2698 C   0  0  0  0  0  0  0  0  0  0  0  0
    7.6509  -21.1574   20.3288 C   0  0  0  0  0  0  0  0  0  0  0  0
    7.3191  -22.4424   20.5466 N   0  0  0  0  0  0  0  0  0  0  0  0
    8.0198  -22.8677   21.6128 C   0  0  0  0  0  0  0  0  0  0  0  0
    8.7775  -21.8441   22.0445 N   0  0  0  0  0  0  0  0  0  0  0  0
    9.0225  -17.0735   20.5844 C   0  0  0  0  0  0  0  0  0  0  0  0
   10.2231  -16.6996   20.4043 O   0  0  0  0  0  0  0  0  0  0  0  0
    7.6616  -12.3755   21.1795 C   0  0  0  0  0  0  0  0  0  0  0  0
    7.3358  -13.7766   20.7752 C   0  0  1  0  0  0  0  0  0  0  0  0
    7.1086  -13.9479   19.3025 C   0  0  0  0  0  0  0  0  0  0  0  0
    8.4504  -14.6989   21.2033 C   0  0  2  0  0  0  0  0  0  0  0  0
    8.1046  -16.0916   21.0371 N   0  0  0  0  0  0  0  0  0  0  0  0
    8.9145  -14.4060   22.5849 C   0  0  0  0  0  0  0  0  0  0  0  0
    9.4750  -13.3045   22.8164 O   0  0  0  0  0  0  0  0  0  0  0  0
    7.9420  -12.0488   26.8804 C   0  0  0  0  0  0  0  0  0  0  0  0
    7.0749  -13.1283   26.3145 C   0  0  1  0  0  0  0  0  0  0  0  0
    5.6689  -12.5370   26.2163 C   0  0  0  0  0  0  0  0  0  0  0  0
    7.5058  -13.8060   25.0942 C   0  0  0  0  0  0  0  0  0  0  0  0
    8.5689  -14.8175   25.0686 C   0  0  2  0  0  0  0  0  0  0  0  0
    8.7654  -15.2946   23.6680 N   0  0  0  0  0  0  0  0  0  0  0  0
    8.5386  -15.9484   25.9803 C   0  0  0  0  0  0  0  0  0  0  0  0
    9.3922  -16.1829   27.0246 O   0  0  0  0  0  0  0  0  0  0  0  0
    7.6098  -16.8263   25.7770 O   0  0  0  0  0  0  0  0  0  0  0  0
  2  9  1  0
  2  1  1  6
  3  2  1  0
  4  3  1  0
  5  4  2  0
  6  7  1  0
  6  5  1  0
  7  8  2  0
  8  4  1  0
  9 10  2  0
 12 14  1  0
 12 11  1  6
 13 12  1  0
 14 15  1  1
 15  9  1  0
 16 14  1  0
 17 16  2  0
 19 18  1  6
 19 21  1  0
 20 19  1  0
 22 21  1  6
 22 23  1  0
 22 24  1  0
 23 16  1  0
 24 25  1  0
 26 24  2  0
M  END
$$$$
