HVL.pdb
     RDKit          3D

 26 26  0  0  1  0  0  0  0  0999 V2000
    8.9100  -16.2949   18.7792 N   0  0  0  0  0  0  0  0  0  0  0  0
    8.0986  -15.3108   19.4698 C   0  0  1  0  0  0  0  0  0  0  0  0
    7.0136  -14.8819   18.5034 C   0  0  0  0  0  0  0  0  0  0  0  0
    7.5912  -14.3467   17.2467 C   0  0  0  0  0  0  0  0  0  0  0  0
    8.3029  -13.1754   17.1203 C   0  0  0  0  0  0  0  0  0  0  0  0
    8.6670  -13.0154   15.8354 N   0  0  0  0  0  0  0  0  0  0  0  0
    8.1958  -14.0693   15.1456 C   0  0  0  0  0  0  0  0  0  0  0  0
    7.5456  -14.8705   16.0079 N   0  0  0  0  0  0  0  0  0  0  0  0
    7.5373  -15.9449   20.6804 C   0  0  0  0  0  0  0  0  0  0  0  0
    6.3208  -15.7562   20.9934 O   0  0  0  0  0  0  0  0  0  0  0  0
    7.6874  -19.1697   24.3607 C   0  0  0  0  0  0  0  0  0  0  0  0
    8.1189  -18.7431   22.9953 C   0  0  1  0  0  0  0  0  0  0  0  0
    7.4812  -19.5228   21.8840 C   0  0  0  0  0  0  0  0  0  0  0  0
    7.8072  -17.2798   22.8005 C   0  0  2  0  0  0  0  0  0  0  0  0
    8.3002  -16.7769   21.5391 N   0  0  0  0  0  0  0  0  0  0  0  0
    8.2751  -16.4546   23.9450 C   0  0  0  0  0  0  0  0  0  0  0  0
    9.5083  -16.2507   24.0823 O   0  0  0  0  0  0  0  0  0  0  0  0
    8.1688  -11.8200   26.8644 C   0  0  0  0  0  0  0  0  0  0  0  0
    7.0919  -12.8171   27.1537 C   0  0  1  0  0  0  0  0  0  0  0  0
    5.8223  -12.0078   27.4169 C   0  0  0  0  0  0  0  0  0  0  0  0
    6.8920  -13.9233   26.2208 C   0  0  0  0  0  0  0  0  0  0  0  0
    7.9092  -14.9480   25.9585 C   0  0  2  0  0  0  0  0  0  0  0  0
    7.4152  -15.8773   24.9001 N   0  0  0  0  0  0  0  0  0  0  0  0
    8.4985  -15.7045   27.0500 C   0  0  0  0  0  0  0  0  0  0  0  0
    9.6797  -15.4380   27.6886 O   0  0  0  0  0  0  0  0  0  0  0  0
    7.8373  -16.7411   27.4540 O   0  0  0  0  0  0  0  0  0  0  0  0
  2  9  1  0
  2  1  1  6
  3  2  1  0
  4  3  1  0
  5  4  2  0
  6  7  1  0
  6  5  1  0
  7  8  2  0
  8  4  1  0
  9 10  2  0
 12 14  1  0
 12 11  1  1
 13 12  1  0
 14 15  1  6
 15  9  1  0
 16 14  1  0
 17 16  2  0
 19 18  1  6
 19 21  1  0
 20 19  1  0
 22 21  1  1
 22 23  1  0
 22 24  1  0
 23 16  1  0
 24 25  1  0
 26 24  2  0
M  END
$$$$
