HVL.pdb
     RDKit          3D

 26 26  0  0  1  0  0  0  0  0999 V2000
   10.0379  -18.8055   19.5615 N   0  0  0  0  0  0  0  0  0  0  0  0
    8.8801  -18.4484   20.3588 C   0  0  1  0  0  0  0  0  0  0  0  0
    8.7544  -19.4989   21.4433 C   0  0  0  0  0  0  0  0  0  0  0  0
    8.2438  -20.7797   20.8971 C   0  0  0  0  0  0  0  0  0  0  0  0
    7.8696  -21.0087   19.5925 C   0  0  0  0  0  0  0  0  0  0  0  0
    7.4595  -22.2834   19.4672 N   0  0  0  0  0  0  0  0  0  0  0  0
    7.5685  -22.8657   20.6745 C   0  0  0  0  0  0  0  0  0  0  0  0
    8.0443  -21.9481   21.5346 N   0  0  0  0  0  0  0  0  0  0  0  0
    9.1067  -17.1014   20.9219 C   0  0  0  0  0  0  0  0  0  0  0  0
   10.2789  -16.7346   21.2459 O   0  0  0  0  0  0  0  0  0  0  0  0
    7.7732  -12.4638   21.6486 C   0  0  0  0  0  0  0  0  0  0  0  0
    7.4247  -13.7972   21.0714 C   0  0  1  0  0  0  0  0  0  0  0  0
    7.6076  -13.8838   19.5852 C   0  0  0  0  0  0  0  0  0  0  0  0
    8.2645  -14.8666   21.7253 C   0  0  2  0  0  0  0  0  0  0  0  0
    8.0606  -16.1661   21.1280 N   0  0  0  0  0  0  0  0  0  0  0  0
    8.0730  -14.9000   23.1991 C   0  0  0  0  0  0  0  0  0  0  0  0
    7.0410  -15.4466   23.6650 O   0  0  0  0  0  0  0  0  0  0  0  0
    5.9133  -11.8179   26.2458 C   0  0  0  0  0  0  0  0  0  0  0  0
    7.2482  -12.3550   25.8370 C   0  0  1  0  0  0  0  0  0  0  0  0
    8.2892  -11.5205   26.5827 C   0  0  0  0  0  0  0  0  0  0  0  0
    7.4831  -13.7939   25.9299 C   0  0  0  0  0  0  0  0  0  0  0  0
    8.7667  -14.4224   25.5967 C   0  0  2  0  0  0  0  0  0  0  0  0
    8.9853  -14.3512   24.1219 N   0  0  0  0  0  0  0  0  0  0  0  0
    9.0900  -15.7522   26.0844 C   0  0  0  0  0  0  0  0  0  0  0  0
    9.7675  -16.0622   27.2330 O   0  0  0  0  0  0  0  0  0  0  0  0
    8.7001  -16.7445   25.3508 O   0  0  0  0  0  0  0  0  0  0  0  0
  2  9  1  0
  2  1  1  6
  3  2  1  0
  4  3  1  0
  5  4  2  0
  6  7  1  0
  6  5  1  0
  7  8  2  0
  8  4  1  0
  9 10  2  0
 12 14  1  0
 12 11  1  1
 13 12  1  0
 14 15  1  6
 15  9  1  0
 16 14  1  0
 17 16  2  0
 19 18  1  1
 19 21  1  0
 20 19  1  0
 22 21  1  6
 22 23  1  0
 22 24  1  0
 23 16  1  0
 24 25  1  0
 26 24  2  0
M  END
$$$$
