LGC.pdb
     RDKit          3D

 19 18  0  0  1  0  0  0  0  0999 V2000
    7.0143  -14.1638   18.9999 C   0  0  0  0  0  0  0  0  0  0  0  0
    7.6633  -13.5823   20.2160 C   0  0  2  0  0  0  0  0  0  0  0  0
    7.4340  -12.0892   20.2843 C   0  0  0  0  0  0  0  0  0  0  0  0
    9.1351  -13.9373   20.2906 C   0  0  0  0  0  0  0  0  0  0  0  0
    9.2272  -15.4462   20.2549 C   0  0  2  0  0  0  0  0  0  0  0  0
    8.4031  -15.9611   21.3328 N   0  0  0  0  0  0  0  0  0  0  0  0
   10.6396  -15.8604   20.5240 C   0  0  0  0  0  0  0  0  0  0  0  0
   11.4847  -15.8973   19.5736 O   0  0  0  0  0  0  0  0  0  0  0  0
   11.0734  -16.2168   21.8138 N   0  0  0  0  0  0  0  0  0  0  0  0
   12.4518  -16.5124   22.0430 C   0  0  0  0  0  0  0  0  0  0  0  0
   12.7088  -16.9579   23.4399 C   0  0  0  0  0  0  0  0  0  0  0  0
   13.8841  -17.1610   23.7961 O   0  0  0  0  0  0  0  0  0  0  0  0
   11.6650  -17.1599   24.3811 N   0  0  0  0  0  0  0  0  0  0  0  0
   11.9277  -17.3657   25.7915 C   0  0  1  0  0  0  0  0  0  0  0  0
   11.2988  -16.2947   26.6525 C   0  0  0  0  0  0  0  0  0  0  0  0
    9.6208  -15.9567   26.0916 S   0  0  0  0  0  0  0  0  0  0  0  0
   11.3070  -18.6608   26.1730 C   0  0  0  0  0  0  0  0  0  0  0  0
   11.5359  -19.2303   27.4229 O   0  0  0  0  0  0  0  0  0  0  0  0
   10.5524  -19.3008   25.3960 O   0  0  0  0  0  0  0  0  0  0  0  0
  2  1  1  6
  3  2  1  0
  4  2  1  0
  5  4  1  0
  5  6  1  1
  7  8  2  0
  7  5  1  0
  9  7  1  0
 10  9  1  0
 11 10  1  0
 11 13  1  0
 12 11  2  0
 14 13  1  0
 14 15  1  1
 15 16  1  0
 17 18  1  0
 17 14  1  0
 19 17  2  0
M  END
$$$$
