LGC.pdb
     RDKit          3D

 19 18  0  0  1  0  0  0  0  0999 V2000
   -3.0712  -29.1949   26.1921 C   0  0  0  0  0  0  0  0  0  0  0  0
   -3.2885  -27.8426   25.5901 C   0  0  2  0  0  0  0  0  0  0  0  0
   -2.2652  -27.5648   24.5120 C   0  0  0  0  0  0  0  0  0  0  0  0
   -3.3137  -26.7557   26.6464 C   0  0  0  0  0  0  0  0  0  0  0  0
   -4.3539  -27.1572   27.6677 C   0  0  2  0  0  0  0  0  0  0  0  0
   -5.6594  -26.9416   27.0715 N   0  0  0  0  0  0  0  0  0  0  0  0
   -4.2448  -26.2611   28.8610 C   0  0  0  0  0  0  0  0  0  0  0  0
   -3.2550  -26.3724   29.6528 O   0  0  0  0  0  0  0  0  0  0  0  0
   -5.2153  -25.2828   29.1431 N   0  0  0  0  0  0  0  0  0  0  0  0
   -4.9828  -24.3306   30.1820 C   0  0  0  0  0  0  0  0  0  0  0  0
   -6.0837  -23.3347   30.2915 C   0  0  0  0  0  0  0  0  0  0  0  0
   -6.0752  -22.5366   31.2468 O   0  0  0  0  0  0  0  0  0  0  0  0
   -7.1426  -23.2603   29.3485 N   0  0  0  0  0  0  0  0  0  0  0  0
   -8.1453  -22.2148   29.3959 C   0  0  1  0  0  0  0  0  0  0  0  0
   -8.7555  -21.9460   28.0397 C   0  0  0  0  0  0  0  0  0  0  0  0
   -7.4648  -21.5428   26.8498 S   0  0  0  0  0  0  0  0  0  0  0  0
   -9.2369  -22.6884   30.2859 C   0  0  0  0  0  0  0  0  0  0  0  0
   -9.2786  -24.0044   30.7392 O   0  0  0  0  0  0  0  0  0  0  0  0
  -10.1674  -21.9342   30.6705 O   0  0  0  0  0  0  0  0  0  0  0  0
  2  1  1  1
  3  2  1  0
  4  2  1  0
  5  4  1  0
  5  6  1  6
  7  8  2  0
  7  5  1  0
  9  7  1  0
 10  9  1  0
 11 10  1  0
 11 13  1  0
 12 11  2  0
 14 13  1  0
 14 15  1  6
 15 16  1  0
 17 18  1  0
 17 14  1  0
 19 17  2  0
M  END
$$$$
