LGC.pdb
     RDKit          3D

 19 18  0  0  1  0  0  0  0  0999 V2000
    7.8697  -12.8279   27.6542 C   0  0  0  0  0  0  0  0  0  0  0  0
    7.2837  -13.1223   26.3096 C   0  0  2  0  0  0  0  0  0  0  0  0
    6.7177  -11.8670   25.6847 C   0  0  0  0  0  0  0  0  0  0  0  0
    6.2599  -14.2382   26.3757 C   0  0  0  0  0  0  0  0  0  0  0  0
    7.0274  -15.5409   26.3852 C   0  0  2  0  0  0  0  0  0  0  0  0
    8.2989  -15.2957   27.0404 N   0  0  0  0  0  0  0  0  0  0  0  0
    7.3139  -15.9547   24.9761 C   0  0  0  0  0  0  0  0  0  0  0  0
    6.3611  -16.3042   24.2086 O   0  0  0  0  0  0  0  0  0  0  0  0
    8.6227  -15.9711   24.4611 N   0  0  0  0  0  0  0  0  0  0  0  0
    8.8633  -16.4816   23.1490 C   0  0  0  0  0  0  0  0  0  0  0  0
    8.0184  -15.8153   22.1204 C   0  0  0  0  0  0  0  0  0  0  0  0
    6.7817  -15.9380   22.1914 O   0  0  0  0  0  0  0  0  0  0  0  0
    8.5690  -15.0455   21.0619 N   0  0  0  0  0  0  0  0  0  0  0  0
    7.7556  -14.5325   19.9776 C   0  0  1  0  0  0  0  0  0  0  0  0
    7.8163  -13.0256   19.8807 C   0  0  0  0  0  0  0  0  0  0  0  0
    7.5282  -12.2898   21.4994 S   0  0  0  0  0  0  0  0  0  0  0  0
    8.3093  -15.0796   18.7118 C   0  0  0  0  0  0  0  0  0  0  0  0
    7.6411  -14.9150   17.5012 O   0  0  0  0  0  0  0  0  0  0  0  0
    9.3963  -15.7114   18.6697 O   0  0  0  0  0  0  0  0  0  0  0  0
  2  1  1  1
  3  2  1  0
  4  2  1  0
  5  4  1  0
  5  6  1  1
  7  8  2  0
  7  5  1  0
  9  7  1  0
 10  9  1  0
 11 10  1  0
 11 13  1  0
 12 11  2  0
 14 13  1  0
 14 15  1  6
 15 16  1  0
 17 18  1  0
 17 14  1  0
 19 17  2  0
M  END
$$$$
