LGC.pdb
     RDKit          3D

 19 18  0  0  1  0  0  0  0  0999 V2000
    4.9550  -12.0744   26.4448 C   0  0  0  0  0  0  0  0  0  0  0  0
    6.3244  -12.6650   26.3264 C   0  0  2  0  0  0  0  0  0  0  0  0
    7.3287  -11.8528   27.1127 C   0  0  0  0  0  0  0  0  0  0  0  0
    6.7382  -12.8365   24.8782 C   0  0  0  0  0  0  0  0  0  0  0  0
    6.4903  -14.2838   24.5172 C   0  0  2  0  0  0  0  0  0  0  0  0
    6.2960  -15.0170   25.7544 N   0  0  0  0  0  0  0  0  0  0  0  0
    7.7062  -14.8394   23.8450 C   0  0  0  0  0  0  0  0  0  0  0  0
    8.2484  -14.2058   22.8839 O   0  0  0  0  0  0  0  0  0  0  0  0
    8.2809  -16.0592   24.2454 N   0  0  0  0  0  0  0  0  0  0  0  0
    9.4445  -16.5492   23.5775 C   0  0  0  0  0  0  0  0  0  0  0  0
   10.6783  -16.3741   24.3916 C   0  0  0  0  0  0  0  0  0  0  0  0
   11.7846  -16.4694   23.8289 O   0  0  0  0  0  0  0  0  0  0  0  0
   10.6416  -16.1026   25.7849 N   0  0  0  0  0  0  0  0  0  0  0  0
   11.8485  -15.9594   26.5745 C   0  0  1  0  0  0  0  0  0  0  0  0
   11.5631  -15.4448   27.9665 C   0  0  0  0  0  0  0  0  0  0  0  0
   10.5764  -13.9404   27.8795 S   0  0  0  0  0  0  0  0  0  0  0  0
   12.4472  -17.3119   26.7172 C   0  0  0  0  0  0  0  0  0  0  0  0
   11.7504  -18.4539   26.3308 O   0  0  0  0  0  0  0  0  0  0  0  0
   13.5996  -17.4920   27.1884 O   0  0  0  0  0  0  0  0  0  0  0  0
  2  1  1  6
  3  2  1  0
  4  2  1  0
  5  4  1  0
  5  6  1  1
  7  8  2  0
  7  5  1  0
  9  7  1  0
 10  9  1  0
 11 10  1  0
 11 13  1  0
 12 11  2  0
 14 13  1  0
 14 15  1  1
 15 16  1  0
 17 18  1  0
 17 14  1  0
 19 17  2  0
M  END
$$$$
