LGC.pdb
     RDKit          3D

 19 18  0  0  1  0  0  0  0  0999 V2000
    9.5475  -13.5329   19.8200 C   0  0  0  0  0  0  0  0  0  0  0  0
    8.0805  -13.7845   19.6685 C   0  0  2  0  0  0  0  0  0  0  0  0
    7.4498  -12.7510   18.7625 C   0  0  0  0  0  0  0  0  0  0  0  0
    7.3836  -13.8666   21.0121 C   0  0  0  0  0  0  0  0  0  0  0  0
    8.0584  -14.9723   21.7921 C   0  0  2  0  0  0  0  0  0  0  0  0
    7.7324  -16.2286   21.1428 N   0  0  0  0  0  0  0  0  0  0  0  0
    7.4926  -15.0152   23.1766 C   0  0  0  0  0  0  0  0  0  0  0  0
    6.4567  -15.7128   23.4201 O   0  0  0  0  0  0  0  0  0  0  0  0
    8.0760  -14.2986   24.2371 N   0  0  0  0  0  0  0  0  0  0  0  0
    7.4736  -14.3302   25.5318 C   0  0  0  0  0  0  0  0  0  0  0  0
    7.9426  -15.4857   26.3445 C   0  0  0  0  0  0  0  0  0  0  0  0
    7.9942  -15.3645   27.5823 O   0  0  0  0  0  0  0  0  0  0  0  0
    8.3333  -16.7203   25.7621 N   0  0  0  0  0  0  0  0  0  0  0  0
    8.6784  -17.8766   26.5649 C   0  0  1  0  0  0  0  0  0  0  0  0
    7.5154  -18.8280   26.7266 C   0  0  0  0  0  0  0  0  0  0  0  0
    6.8246  -19.2398   25.1148 S   0  0  0  0  0  0  0  0  0  0  0  0
    9.7528  -18.6097   25.8463 C   0  0  0  0  0  0  0  0  0  0  0  0
   10.1375  -18.2461   24.5583 O   0  0  0  0  0  0  0  0  0  0  0  0
   10.3620  -19.5840   26.3583 O   0  0  0  0  0  0  0  0  0  0  0  0
  2  1  1  1
  3  2  1  0
  4  2  1  0
  5  4  1  0
  5  6  1  6
  7  8  2  0
  7  5  1  0
  9  7  1  0
 10  9  1  0
 11 10  1  0
 11 13  1  0
 12 11  2  0
 14 13  1  0
 14 15  1  6
 15 16  1  0
 17 18  1  0
 17 14  1  0
 19 17  2  0
M  END
$$$$
