LGC.pdb
     RDKit          3D

 19 18  0  0  1  0  0  0  0  0999 V2000
    8.8473  -14.0368   19.2510 C   0  0  0  0  0  0  0  0  0  0  0  0
    7.6068  -13.5380   19.9224 C   0  0  2  0  0  0  0  0  0  0  0  0
    7.4796  -12.0391   19.7690 C   0  0  0  0  0  0  0  0  0  0  0  0
    7.5418  -13.9704   21.3738 C   0  0  0  0  0  0  0  0  0  0  0  0
    7.5997  -15.4813   21.3869 C   0  0  2  0  0  0  0  0  0  0  0  0
    6.2846  -15.9734   21.0203 N   0  0  0  0  0  0  0  0  0  0  0  0
    7.8903  -15.9516   22.7773 C   0  0  0  0  0  0  0  0  0  0  0  0
    6.9882  -15.8893   23.6725 O   0  0  0  0  0  0  0  0  0  0  0  0
    9.1481  -16.4692   23.1358 N   0  0  0  0  0  0  0  0  0  0  0  0
    9.3784  -16.9129   24.4738 C   0  0  0  0  0  0  0  0  0  0  0  0
    9.9155  -15.8302   25.3428 C   0  0  0  0  0  0  0  0  0  0  0  0
   10.8914  -15.1700   24.9415 O   0  0  0  0  0  0  0  0  0  0  0  0
    9.3573  -15.5220   26.6116 N   0  0  0  0  0  0  0  0  0  0  0  0
    9.9790  -14.5780   27.5187 C   0  0  1  0  0  0  0  0  0  0  0  0
    8.9919  -13.5693   28.0591 C   0  0  0  0  0  0  0  0  0  0  0  0
    7.9558  -12.9425   26.7256 S   0  0  0  0  0  0  0  0  0  0  0  0
   10.4981  -15.3523   28.6759 C   0  0  0  0  0  0  0  0  0  0  0  0
   11.2409  -14.7377   29.6806 O   0  0  0  0  0  0  0  0  0  0  0  0
   10.2957  -16.5872   28.8053 O   0  0  0  0  0  0  0  0  0  0  0  0
  2  1  1  1
  3  2  1  0
  4  2  1  0
  5  4  1  0
  5  6  1  1
  7  8  2  0
  7  5  1  0
  9  7  1  0
 10  9  1  0
 11 10  1  0
 11 13  1  0
 12 11  2  0
 14 13  1  0
 14 15  1  1
 15 16  1  0
 17 18  1  0
 17 14  1  0
 19 17  2  0
M  END
$$$$
