LGC.pdb
     RDKit          3D

 19 18  0  0  1  0  0  0  0  0999 V2000
    9.8722  -18.9670   18.0915 C   0  0  0  0  0  0  0  0  0  0  0  0
    9.6828  -19.5537   19.4546 C   0  0  2  0  0  0  0  0  0  0  0  0
    9.3733  -21.0311   19.3643 C   0  0  0  0  0  0  0  0  0  0  0  0
    8.6359  -18.7992   20.2498 C   0  0  0  0  0  0  0  0  0  0  0  0
    8.9972  -17.3328   20.1749 C   0  0  2  0  0  0  0  0  0  0  0  0
   10.3220  -17.1782   20.7467 N   0  0  0  0  0  0  0  0  0  0  0  0
    8.0431  -16.5462   21.0174 C   0  0  0  0  0  0  0  0  0  0  0  0
    6.8078  -16.5087   20.7147 O   0  0  0  0  0  0  0  0  0  0  0  0
    8.4716  -15.8342   22.1523 N   0  0  0  0  0  0  0  0  0  0  0  0
    7.5199  -15.1248   22.9467 C   0  0  0  0  0  0  0  0  0  0  0  0
    8.1339  -14.5287   24.1647 C   0  0  0  0  0  0  0  0  0  0  0  0
    9.3684  -14.5998   24.3080 O   0  0  0  0  0  0  0  0  0  0  0  0
    7.3656  -13.8826   25.1689 N   0  0  0  0  0  0  0  0  0  0  0  0
    7.9788  -13.2315   26.3094 C   0  0  1  0  0  0  0  0  0  0  0  0
    7.0074  -12.3422   27.0506 C   0  0  0  0  0  0  0  0  0  0  0  0
    5.8269  -11.6200   25.8976 S   0  0  0  0  0  0  0  0  0  0  0  0
    8.4078  -14.2986   27.2504 C   0  0  0  0  0  0  0  0  0  0  0  0
    9.2459  -14.0178   28.3264 O   0  0  0  0  0  0  0  0  0  0  0  0
    8.0402  -15.4952   27.1246 O   0  0  0  0  0  0  0  0  0  0  0  0
  2  1  1  6
  3  2  1  0
  4  2  1  0
  5  4  1  0
  5  6  1  1
  7  8  2  0
  7  5  1  0
  9  7  1  0
 10  9  1  0
 11 10  1  0
 11 13  1  0
 12 11  2  0
 14 13  1  0
 14 15  1  1
 15 16  1  0
 17 18  1  0
 17 14  1  0
 19 17  2  0
M  END
$$$$
