LGC.pdb
     RDKit          3D

 19 18  0  0  1  0  0  0  0  0999 V2000
    5.9804  -11.7456   24.8771 C   0  0  0  0  0  0  0  0  0  0  0  0
    6.3148  -12.6691   26.0056 C   0  0  2  0  0  0  0  0  0  0  0  0
    6.2056  -11.9546   27.3337 C   0  0  0  0  0  0  0  0  0  0  0  0
    7.6719  -13.3176   25.8166 C   0  0  0  0  0  0  0  0  0  0  0  0
    7.5483  -14.2659   24.6454 C   0  0  2  0  0  0  0  0  0  0  0  0
    6.6751  -15.3518   25.0511 N   0  0  0  0  0  0  0  0  0  0  0  0
    8.8913  -14.8513   24.3411 C   0  0  0  0  0  0  0  0  0  0  0  0
    9.8554  -14.0924   24.0042 O   0  0  0  0  0  0  0  0  0  0  0  0
    9.1294  -16.2356   24.4158 N   0  0  0  0  0  0  0  0  0  0  0  0
   10.4451  -16.7432   24.1890 C   0  0  0  0  0  0  0  0  0  0  0  0
   11.2577  -16.7822   25.4356 C   0  0  0  0  0  0  0  0  0  0  0  0
   12.4396  -17.1666   25.3672 O   0  0  0  0  0  0  0  0  0  0  0  0
   10.7363  -16.3978   26.6992 N   0  0  0  0  0  0  0  0  0  0  0  0
   11.5134  -16.5023   27.9181 C   0  0  1  0  0  0  0  0  0  0  0  0
   11.0837  -15.4937   28.9583 C   0  0  0  0  0  0  0  0  0  0  0  0
   10.4465  -14.0119   28.1567 S   0  0  0  0  0  0  0  0  0  0  0  0
   11.2681  -17.8539   28.4849 C   0  0  0  0  0  0  0  0  0  0  0  0
   11.9619  -18.3033   29.6054 O   0  0  0  0  0  0  0  0  0  0  0  0
   10.4316  -18.6511   27.9876 O   0  0  0  0  0  0  0  0  0  0  0  0
  2  1  1  6
  3  2  1  0
  4  2  1  0
  5  4  1  0
  5  6  1  1
  7  8  2  0
  7  5  1  0
  9  7  1  0
 10  9  1  0
 11 10  1  0
 11 13  1  0
 12 11  2  0
 14 13  1  0
 14 15  1  1
 15 16  1  0
 17 18  1  0
 17 14  1  0
 19 17  2  0
M  END
$$$$
