LGC.pdb
     RDKit          3D

 19 18  0  0  1  0  0  0  0  0999 V2000
    5.5467  -12.0513   24.6775 C   0  0  0  0  0  0  0  0  0  0  0  0
    6.1590  -12.7847   25.8287 C   0  0  2  0  0  0  0  0  0  0  0  0
    6.1071  -11.9473   27.0867 C   0  0  0  0  0  0  0  0  0  0  0  0
    7.5658  -13.2519   25.5121 C   0  0  0  0  0  0  0  0  0  0  0  0
    7.4550  -14.2511   24.3826 C   0  0  2  0  0  0  0  0  0  0  0  0
    6.4824  -15.2531   24.7777 N   0  0  0  0  0  0  0  0  0  0  0  0
    8.7710  -14.9400   24.2028 C   0  0  0  0  0  0  0  0  0  0  0  0
    9.8243  -14.2573   23.9946 O   0  0  0  0  0  0  0  0  0  0  0  0
    8.8865  -16.3409   24.2570 N   0  0  0  0  0  0  0  0  0  0  0  0
   10.1690  -16.9537   24.1166 C   0  0  0  0  0  0  0  0  0  0  0  0
   10.9677  -16.8850   25.3708 C   0  0  0  0  0  0  0  0  0  0  0  0
   12.1472  -17.2824   25.3511 O   0  0  0  0  0  0  0  0  0  0  0  0
   10.4359  -16.3837   26.5882 N   0  0  0  0  0  0  0  0  0  0  0  0
   11.2422  -16.2514   27.7853 C   0  0  1  0  0  0  0  0  0  0  0  0
   10.8024  -15.0891   28.6452 C   0  0  0  0  0  0  0  0  0  0  0  0
   11.6049  -15.1730   30.2557 S   0  0  0  0  0  0  0  0  0  0  0  0
   11.0533  -17.4895   28.5851 C   0  0  0  0  0  0  0  0  0  0  0  0
   12.0696  -17.9859   29.3973 O   0  0  0  0  0  0  0  0  0  0  0  0
    9.9792  -18.1442   28.5694 O   0  0  0  0  0  0  0  0  0  0  0  0
  2  1  1  6
  3  2  1  0
  4  2  1  0
  5  4  1  0
  5  6  1  1
  7  8  2  0
  7  5  1  0
  9  7  1  0
 10  9  1  0
 11 10  1  0
 11 13  1  0
 12 11  2  0
 14 13  1  0
 14 15  1  1
 15 16  1  0
 17 18  1  0
 17 14  1  0
 19 17  2  0
M  END
$$$$
