TPN.pdb
     RDKit          3D

 23 23  0  0  1  0  0  0  0  0999 V2000
   20.8158  -11.0877  -19.2237 C   0  0  0  0  0  0  0  0  0  0  0  0
   19.7614  -11.9836  -18.6098 C   0  0  1  0  0  0  0  0  0  0  0  0
   19.3468  -12.8955  -19.5668 O   0  0  0  0  0  0  0  0  0  0  0  0
   20.3911  -12.6562  -17.4044 C   0  0  2  0  0  0  0  0  0  0  0  0
   19.4973  -13.6578  -16.9424 N   0  0  0  0  0  0  0  0  0  0  0  0
   20.7357  -11.6967  -16.3544 C   0  0  0  0  0  0  0  0  0  0  0  0
   19.7847  -11.0030  -15.8259 O   0  0  0  0  0  0  0  0  0  0  0  0
   22.0679  -11.5170  -15.9149 N   0  0  0  0  0  0  0  0  0  0  0  0
   23.2237  -12.2403  -16.3605 C   0  0  0  0  0  0  0  0  0  0  0  0
   24.4174  -11.7103  -15.5811 C   0  0  0  0  0  0  0  0  0  0  0  0
   23.7861  -10.9318  -14.4725 C   0  0  0  0  0  0  0  0  0  0  0  0
   22.4251  -10.5271  -14.9143 C   0  0  1  0  0  0  0  0  0  0  0  0
   22.3007   -9.1547  -15.4146 C   0  0  0  0  0  0  0  0  0  0  0  0
   22.1570   -8.9759  -16.6727 O   0  0  0  0  0  0  0  0  0  0  0  0
   20.6113   -6.2243  -17.5053 N   0  0  0  0  0  0  0  0  0  0  0  0
   19.7168   -6.5676  -16.4496 C   0  0  0  0  0  0  0  0  0  0  0  0
   18.5092   -6.6528  -16.7379 O   0  0  0  0  0  0  0  0  0  0  0  0
   20.2688   -6.7926  -15.1216 C   0  0  0  0  0  0  0  0  0  0  0  0
   21.7683   -6.6989  -15.0608 C   0  0  2  0  0  0  0  0  0  0  0  0
   22.3249   -7.9944  -14.6257 N   0  0  0  0  0  0  0  0  0  0  0  0
   22.2564   -5.7376  -14.0541 C   0  0  0  0  0  0  0  0  0  0  0  0
   22.8373   -4.5571  -14.4366 O   0  0  0  0  0  0  0  0  0  0  0  0
   22.1499   -5.9819  -12.8361 O   0  0  0  0  0  0  0  0  0  0  0  0
  2  1  1  6
  2  3  1  0
  4  2  1  0
  4  5  1  1
  6  8  1  0
  6  4  1  0
  7  6  2  0
  8 12  1  0
  9 10  1  0
  9  8  1  0
 10 11  1  0
 11 12  1  0
 12 13  1  6
 13 20  1  0
 14 13  2  0
 16 17  2  0
 16 15  1  0
 18 16  1  0
 19 20  1  0
 19 21  1  0
 19 18  1  1
 21 23  2  0
 21 22  1  0
M  END
$$$$
