TPN.pdb
     RDKit          3D

 23 23  0  0  1  0  0  0  0  0999 V2000
   25.0408  -15.1690  -19.5060 C   0  0  0  0  0  0  0  0  0  0  0  0
   24.6503  -13.9497  -18.6986 C   0  0  1  0  0  0  0  0  0  0  0  0
   23.2700  -13.8327  -18.7173 O   0  0  0  0  0  0  0  0  0  0  0  0
   25.1951  -14.1473  -17.2964 C   0  0  2  0  0  0  0  0  0  0  0  0
   24.6965  -15.3805  -16.8002 N   0  0  0  0  0  0  0  0  0  0  0  0
   24.8696  -13.0253  -16.4148 C   0  0  0  0  0  0  0  0  0  0  0  0
   23.7864  -13.0922  -15.7168 O   0  0  0  0  0  0  0  0  0  0  0  0
   25.7043  -11.8880  -16.3144 N   0  0  0  0  0  0  0  0  0  0  0  0
   27.0102  -11.7284  -16.8860 C   0  0  0  0  0  0  0  0  0  0  0  0
   27.5157  -10.3520  -16.4823 C   0  0  0  0  0  0  0  0  0  0  0  0
   26.5728   -9.9439  -15.3970 C   0  0  0  0  0  0  0  0  0  0  0  0
   25.3048  -10.6978  -15.5845 C   0  0  1  0  0  0  0  0  0  0  0  0
   24.2235   -9.9675  -16.2529 C   0  0  0  0  0  0  0  0  0  0  0  0
   24.0896  -10.1007  -17.5177 O   0  0  0  0  0  0  0  0  0  0  0  0
   20.0118   -7.0956  -17.3070 N   0  0  0  0  0  0  0  0  0  0  0  0
   19.8505   -7.6974  -16.0247 C   0  0  0  0  0  0  0  0  0  0  0  0
   18.7288   -7.6040  -15.4941 O   0  0  0  0  0  0  0  0  0  0  0  0
   20.9945   -8.3724  -15.4292 C   0  0  0  0  0  0  0  0  0  0  0  0
   22.1979   -8.4407  -16.3281 C   0  0  2  0  0  0  0  0  0  0  0  0
   23.3020   -9.1182  -15.6214 N   0  0  0  0  0  0  0  0  0  0  0  0
   22.7475   -7.1167  -16.6755 C   0  0  0  0  0  0  0  0  0  0  0  0
   22.4090   -6.5050  -17.8539 O   0  0  0  0  0  0  0  0  0  0  0  0
   23.5310   -6.5299  -15.9033 O   0  0  0  0  0  0  0  0  0  0  0  0
  2  1  1  6
  2  3  1  0
  4  2  1  0
  4  5  1  1
  6  8  1  0
  6  4  1  0
  7  6  2  0
  8 12  1  0
  9 10  1  0
  9  8  1  0
 10 11  1  0
 11 12  1  0
 12 13  1  6
 13 20  1  0
 14 13  2  0
 16 17  2  0
 16 15  1  0
 18 16  1  0
 19 20  1  0
 19 21  1  0
 19 18  1  1
 21 23  2  0
 21 22  1  0
M  END
$$$$
