TPN.pdb
     RDKit          3D

 23 23  0  0  1  0  0  0  0  0999 V2000
   16.8736  -12.8152  -16.7859 C   0  0  0  0  0  0  0  0  0  0  0  0
   17.7950  -11.6172  -16.7034 C   0  0  1  0  0  0  0  0  0  0  0  0
   18.0108  -11.3187  -15.3679 O   0  0  0  0  0  0  0  0  0  0  0  0
   19.0761  -11.9862  -17.4278 C   0  0  2  0  0  0  0  0  0  0  0  0
   19.5778  -13.1833  -16.8527 N   0  0  0  0  0  0  0  0  0  0  0  0
   20.0600  -10.9033  -17.3951 C   0  0  0  0  0  0  0  0  0  0  0  0
   20.9701  -10.9333  -16.4809 O   0  0  0  0  0  0  0  0  0  0  0  0
   20.0337   -9.8420  -18.3296 N   0  0  0  0  0  0  0  0  0  0  0  0
   19.1301   -9.6924  -19.4335 C   0  0  0  0  0  0  0  0  0  0  0  0
   19.5122   -8.4125  -20.1608 C   0  0  0  0  0  0  0  0  0  0  0  0
   20.8594   -8.0880  -19.6011 C   0  0  0  0  0  0  0  0  0  0  0  0
   20.9676   -8.7318  -18.2651 C   0  0  1  0  0  0  0  0  0  0  0  0
   20.7188   -7.8567  -17.1154 C   0  0  0  0  0  0  0  0  0  0  0  0
   19.7365   -8.1298  -16.3435 O   0  0  0  0  0  0  0  0  0  0  0  0
   21.2982   -4.7445  -13.0609 N   0  0  0  0  0  0  0  0  0  0  0  0
   22.1091   -5.9124  -13.1660 C   0  0  0  0  0  0  0  0  0  0  0  0
   22.7350   -6.2588  -12.1477 O   0  0  0  0  0  0  0  0  0  0  0  0
   22.1503   -6.6128  -14.4414 C   0  0  0  0  0  0  0  0  0  0  0  0
   21.3061   -5.9792  -15.5124 C   0  0  2  0  0  0  0  0  0  0  0  0
   21.4737   -6.7237  -16.7754 N   0  0  0  0  0  0  0  0  0  0  0  0
   21.7162   -4.6021  -15.8456 C   0  0  0  0  0  0  0  0  0  0  0  0
   22.6704   -4.3669  -16.8003 O   0  0  0  0  0  0  0  0  0  0  0  0
   21.2024   -3.6263  -15.2638 O   0  0  0  0  0  0  0  0  0  0  0  0
  2  1  1  1
  2  3  1  0
  4  2  1  0
  4  5  1  1
  6  8  1  0
  6  4  1  0
  7  6  2  0
  8 12  1  0
  9 10  1  0
  9  8  1  0
 10 11  1  0
 11 12  1  0
 12 13  1  1
 13 20  1  0
 14 13  2  0
 16 17  2  0
 16 15  1  0
 18 16  1  0
 19 20  1  0
 19 21  1  0
 19 18  1  1
 21 23  2  0
 21 22  1  0
M  END
$$$$
