TPN.pdb
     RDKit          3D

 23 23  0  0  1  0  0  0  0  0999 V2000
   17.5740   -9.2795  -17.8543 C   0  0  0  0  0  0  0  0  0  0  0  0
   16.9238  -10.0507  -16.7257 C   0  0  1  0  0  0  0  0  0  0  0  0
   15.9420  -10.8692  -17.2600 O   0  0  0  0  0  0  0  0  0  0  0  0
   18.0191  -10.8387  -16.0318 C   0  0  2  0  0  0  0  0  0  0  0  0
   17.4041  -11.7515  -15.1352 N   0  0  0  0  0  0  0  0  0  0  0  0
   18.9832   -9.9677  -15.3582 C   0  0  0  0  0  0  0  0  0  0  0  0
   18.5746   -9.2657  -14.3555 O   0  0  0  0  0  0  0  0  0  0  0  0
   20.3313   -9.8810  -15.7771 N   0  0  0  0  0  0  0  0  0  0  0  0
   20.9352  -10.5779  -16.8758 C   0  0  0  0  0  0  0  0  0  0  0  0
   22.4029  -10.1809  -16.9116 C   0  0  0  0  0  0  0  0  0  0  0  0
   22.6141   -9.5246  -15.5856 C   0  0  0  0  0  0  0  0  0  0  0  0
   21.2969   -9.0303  -15.1042 C   0  0  1  0  0  0  0  0  0  0  0  0
   21.0345   -7.6045  -15.3214 C   0  0  0  0  0  0  0  0  0  0  0  0
   20.5860   -7.2343  -16.4604 O   0  0  0  0  0  0  0  0  0  0  0  0
   20.2369   -2.5106  -14.7321 N   0  0  0  0  0  0  0  0  0  0  0  0
   19.4240   -3.3338  -13.8990 C   0  0  0  0  0  0  0  0  0  0  0  0
   18.4900   -2.7771  -13.2938 O   0  0  0  0  0  0  0  0  0  0  0  0
   19.7370   -4.7528  -13.8130 C   0  0  0  0  0  0  0  0  0  0  0  0
   20.9296   -5.1647  -14.6311 C   0  0  2  0  0  0  0  0  0  0  0  0
   21.2334   -6.5861  -14.3766 N   0  0  0  0  0  0  0  0  0  0  0  0
   22.1692   -4.4564  -14.2604 C   0  0  0  0  0  0  0  0  0  0  0  0
   23.2411   -5.1406  -13.7504 O   0  0  0  0  0  0  0  0  0  0  0  0
   22.2642   -3.2215  -14.4038 O   0  0  0  0  0  0  0  0  0  0  0  0
  2  1  1  6
  2  3  1  0
  4  2  1  0
  4  5  1  1
  6  8  1  0
  6  4  1  0
  7  6  2  0
  8 12  1  0
  9 10  1  0
  9  8  1  0
 10 11  1  0
 11 12  1  0
 12 13  1  6
 13 20  1  0
 14 13  2  0
 16 17  2  0
 16 15  1  0
 18 16  1  0
 19 20  1  0
 19 21  1  0
 19 18  1  1
 21 23  2  0
 21 22  1  0
M  END
$$$$
