TPN.pdb
     RDKit          3D

 23 23  0  0  1  0  0  0  0  0999 V2000
   25.3196  -22.7635  -19.4732 C   0  0  0  0  0  0  0  0  0  0  0  0
   25.6049  -22.3068  -18.0585 C   0  0  1  0  0  0  0  0  0  0  0  0
   24.9661  -23.1673  -17.1806 O   0  0  0  0  0  0  0  0  0  0  0  0
   27.1117  -22.3129  -17.8808 C   0  0  2  0  0  0  0  0  0  0  0  0
   27.5824  -23.6231  -18.1591 N   0  0  0  0  0  0  0  0  0  0  0  0
   27.5123  -21.8532  -16.5503 C   0  0  0  0  0  0  0  0  0  0  0  0
   27.9084  -22.7337  -15.6943 O   0  0  0  0  0  0  0  0  0  0  0  0
   27.4742  -20.4862  -16.1897 N   0  0  0  0  0  0  0  0  0  0  0  0
   27.0943  -19.3872  -17.0295 C   0  0  0  0  0  0  0  0  0  0  0  0
   27.2395  -18.1170  -16.2057 C   0  0  0  0  0  0  0  0  0  0  0  0
   28.0366  -18.5632  -15.0230 C   0  0  0  0  0  0  0  0  0  0  0  0
   27.8332  -20.0272  -14.8596 C   0  0  1  0  0  0  0  0  0  0  0  0
   26.8508  -20.4236  -13.8462 C   0  0  0  0  0  0  0  0  0  0  0  0
   25.7167  -20.8663  -14.2377 O   0  0  0  0  0  0  0  0  0  0  0  0
   24.2099  -21.0687   -9.4212 N   0  0  0  0  0  0  0  0  0  0  0  0
   25.5009  -20.5963   -9.0433 C   0  0  0  0  0  0  0  0  0  0  0  0
   25.6963  -20.3963   -7.8307 O   0  0  0  0  0  0  0  0  0  0  0  0
   26.4916  -20.3820  -10.0880 C   0  0  0  0  0  0  0  0  0  0  0  0
   25.9949  -20.6941  -11.4725 C   0  0  2  0  0  0  0  0  0  0  0  0
   27.0423  -20.3615  -12.4574 N   0  0  0  0  0  0  0  0  0  0  0  0
   24.8391  -19.8736  -11.8807 C   0  0  0  0  0  0  0  0  0  0  0  0
   23.5741  -20.3999  -11.8877 O   0  0  0  0  0  0  0  0  0  0  0  0
   24.9921  -18.6858  -12.2276 O   0  0  0  0  0  0  0  0  0  0  0  0
  2  1  1  6
  2  3  1  0
  4  2  1  0
  4  5  1  1
  6  8  1  0
  6  4  1  0
  7  6  2  0
  8 12  1  0
  9 10  1  0
  9  8  1  0
 10 11  1  0
 11 12  1  0
 12 13  1  1
 13 20  1  0
 14 13  2  0
 16 17  2  0
 16 15  1  0
 18 16  1  0
 19 20  1  0
 19 21  1  0
 19 18  1  1
 21 23  2  0
 21 22  1  0
M  END
$$$$
