TPN.pdb
     RDKit          3D

 23 23  0  0  1  0  0  0  0  0999 V2000
   21.5120  -12.8668  -15.1446 C   0  0  0  0  0  0  0  0  0  0  0  0
   23.0041  -13.0946  -15.2571 C   0  0  1  0  0  0  0  0  0  0  0  0
   23.2816  -14.3953  -14.8690 O   0  0  0  0  0  0  0  0  0  0  0  0
   23.3911  -12.8264  -16.6995 C   0  0  2  0  0  0  0  0  0  0  0  0
   24.7384  -13.2371  -16.8773 N   0  0  0  0  0  0  0  0  0  0  0  0
   23.1863  -11.4267  -17.0746 C   0  0  0  0  0  0  0  0  0  0  0  0
   24.0520  -10.5559  -16.6781 O   0  0  0  0  0  0  0  0  0  0  0  0
   22.0769  -11.0159  -17.8497 N   0  0  0  0  0  0  0  0  0  0  0  0
   21.0720  -11.8618  -18.4260 C   0  0  0  0  0  0  0  0  0  0  0  0
   20.1087  -10.9653  -19.1884 C   0  0  0  0  0  0  0  0  0  0  0  0
   20.8429   -9.6665  -19.2750 C   0  0  0  0  0  0  0  0  0  0  0  0
   21.8240   -9.6197  -18.1585 C   0  0  1  0  0  0  0  0  0  0  0  0
   21.4107   -8.8514  -16.9804 C   0  0  0  0  0  0  0  0  0  0  0  0
   20.8840   -9.4787  -15.9983 O   0  0  0  0  0  0  0  0  0  0  0  0
   20.8099   -4.9927  -13.5031 N   0  0  0  0  0  0  0  0  0  0  0  0
   22.1511   -5.4110  -13.7458 C   0  0  0  0  0  0  0  0  0  0  0  0
   23.0209   -5.0070  -12.9529 O   0  0  0  0  0  0  0  0  0  0  0  0
   22.4100   -6.2719  -14.8907 C   0  0  0  0  0  0  0  0  0  0  0  0
   21.1668   -6.7385  -15.5962 C   0  0  2  0  0  0  0  0  0  0  0  0
   21.5417   -7.4628  -16.8260 N   0  0  0  0  0  0  0  0  0  0  0  0
   20.3118   -5.6345  -16.0715 C   0  0  0  0  0  0  0  0  0  0  0  0
   20.5271   -5.0590  -17.2961 O   0  0  0  0  0  0  0  0  0  0  0  0
   19.3774   -5.2041  -15.3670 O   0  0  0  0  0  0  0  0  0  0  0  0
  2  1  1  6
  2  3  1  0
  4  2  1  0
  4  5  1  1
  6  8  1  0
  6  4  1  0
  7  6  2  0
  8 12  1  0
  9 10  1  0
  9  8  1  0
 10 11  1  0
 11 12  1  0
 12 13  1  1
 13 20  1  0
 14 13  2  0
 16 17  2  0
 16 15  1  0
 18 16  1  0
 19 20  1  0
 19 21  1  0
 19 18  1  6
 21 23  2  0
 21 22  1  0
M  END
$$$$
