TPN.pdb
     RDKit          3D

 23 23  0  0  1  0  0  0  0  0999 V2000
   20.3123  -10.9338  -19.3240 C   0  0  0  0  0  0  0  0  0  0  0  0
   19.3606  -11.7706  -18.4964 C   0  0  1  0  0  0  0  0  0  0  0  0
   18.7744  -12.7165  -19.3215 O   0  0  0  0  0  0  0  0  0  0  0  0
   20.1723  -12.4005  -17.3799 C   0  0  2  0  0  0  0  0  0  0  0  0
   19.3594  -13.3721  -16.7390 N   0  0  0  0  0  0  0  0  0  0  0  0
   20.6851  -11.4028  -16.4400 C   0  0  0  0  0  0  0  0  0  0  0  0
   19.8383  -10.6282  -15.8501 O   0  0  0  0  0  0  0  0  0  0  0  0
   22.0673  -11.2723  -16.1699 N   0  0  0  0  0  0  0  0  0  0  0  0
   23.1323  -12.0319  -16.7582 C   0  0  0  0  0  0  0  0  0  0  0  0
   24.4318  -11.5490  -16.1326 C   0  0  0  0  0  0  0  0  0  0  0  0
   23.9715  -10.7568  -14.9519 C   0  0  0  0  0  0  0  0  0  0  0  0
   22.5811  -10.3023  -15.2191 C   0  0  1  0  0  0  0  0  0  0  0  0
   22.4435   -8.9230  -15.6964 C   0  0  0  0  0  0  0  0  0  0  0  0
   22.1416   -8.7307  -16.9241 O   0  0  0  0  0  0  0  0  0  0  0  0
   21.0939   -3.9671  -15.8614 N   0  0  0  0  0  0  0  0  0  0  0  0
   20.2280   -5.0912  -16.0005 C   0  0  0  0  0  0  0  0  0  0  0  0
   19.0526   -4.8603  -16.3377 O   0  0  0  0  0  0  0  0  0  0  0  0
   20.7699   -6.4173  -15.7420 C   0  0  0  0  0  0  0  0  0  0  0  0
   22.2239   -6.4176  -15.3585 C   0  0  2  0  0  0  0  0  0  0  0  0
   22.6156   -7.7696  -14.9158 N   0  0  0  0  0  0  0  0  0  0  0  0
   22.5263   -5.5547  -14.2010 C   0  0  0  0  0  0  0  0  0  0  0  0
   21.9557   -5.7967  -12.9789 O   0  0  0  0  0  0  0  0  0  0  0  0
   23.3064   -4.5886  -14.3134 O   0  0  0  0  0  0  0  0  0  0  0  0
  2  1  1  6
  2  3  1  0
  4  2  1  0
  4  5  1  1
  6  8  1  0
  6  4  1  0
  7  6  2  0
  8 12  1  0
  9 10  1  0
  9  8  1  0
 10 11  1  0
 11 12  1  0
 12 13  1  6
 13 20  1  0
 14 13  2  0
 16 17  2  0
 16 15  1  0
 18 16  1  0
 19 20  1  0
 19 21  1  0
 19 18  1  1
 21 23  2  0
 21 22  1  0
M  END
$$$$
