TPN.pdb
     RDKit          3D

 23 23  0  0  1  0  0  0  0  0999 V2000
   24.5506  -16.5822  -20.5271 C   0  0  0  0  0  0  0  0  0  0  0  0
   25.9976  -16.6294  -20.0852 C   0  0  1  0  0  0  0  0  0  0  0  0
   26.6281  -15.4742  -20.5180 O   0  0  0  0  0  0  0  0  0  0  0  0
   26.0007  -16.7584  -18.5735 C   0  0  2  0  0  0  0  0  0  0  0  0
   25.3910  -17.9952  -18.2360 N   0  0  0  0  0  0  0  0  0  0  0  0
   25.3455  -15.6237  -17.9215 C   0  0  0  0  0  0  0  0  0  0  0  0
   24.0572  -15.6223  -17.8492 O   0  0  0  0  0  0  0  0  0  0  0  0
   26.0835  -14.5463  -17.3785 N   0  0  0  0  0  0  0  0  0  0  0  0
   27.5072  -14.3756  -17.4164 C   0  0  0  0  0  0  0  0  0  0  0  0
   27.8279  -13.0842  -16.6798 C   0  0  0  0  0  0  0  0  0  0  0  0
   26.5547  -12.7725  -15.9619 C   0  0  0  0  0  0  0  0  0  0  0  0
   25.4431  -13.4395  -16.6903 C   0  0  1  0  0  0  0  0  0  0  0  0
   24.6746  -12.5839  -17.5995 C   0  0  0  0  0  0  0  0  0  0  0  0
   24.5846  -12.9269  -18.8282 O   0  0  0  0  0  0  0  0  0  0  0  0
   21.1538  -11.7237  -19.9118 N   0  0  0  0  0  0  0  0  0  0  0  0
   21.0031  -12.5503  -18.7600 C   0  0  0  0  0  0  0  0  0  0  0  0
   20.2442  -13.5310  -18.8641 O   0  0  0  0  0  0  0  0  0  0  0  0
   21.7379  -12.1963  -17.5543 C   0  0  0  0  0  0  0  0  0  0  0  0
   22.6719  -11.0310  -17.7296 C   0  0  2  0  0  0  0  0  0  0  0  0
   24.0145  -11.3988  -17.2403 N   0  0  0  0  0  0  0  0  0  0  0  0
   22.3008   -9.8541  -16.9214 C   0  0  0  0  0  0  0  0  0  0  0  0
   21.7470   -8.7472  -17.5092 O   0  0  0  0  0  0  0  0  0  0  0  0
   22.4849   -9.8447  -15.6883 O   0  0  0  0  0  0  0  0  0  0  0  0
  2  1  1  1
  2  3  1  0
  4  2  1  0
  4  5  1  6
  6  8  1  0
  6  4  1  0
  7  6  2  0
  8 12  1  0
  9 10  1  0
  9  8  1  0
 10 11  1  0
 11 12  1  0
 12 13  1  6
 13 20  1  0
 14 13  2  0
 16 17  2  0
 16 15  1  0
 18 16  1  0
 19 20  1  0
 19 21  1  0
 19 18  1  1
 21 23  2  0
 21 22  1  0
M  END
$$$$
