TPN.pdb
     RDKit          3D

 23 23  0  0  1  0  0  0  0  0999 V2000
   27.4547  -18.2525  -14.6817 C   0  0  0  0  0  0  0  0  0  0  0  0
   27.6226  -19.3153  -15.7464 C   0  0  1  0  0  0  0  0  0  0  0  0
   28.8300  -19.1047  -16.3922 O   0  0  0  0  0  0  0  0  0  0  0  0
   27.5669  -20.6615  -15.0487 C   0  0  2  0  0  0  0  0  0  0  0  0
   27.9756  -21.6553  -15.9766 N   0  0  0  0  0  0  0  0  0  0  0  0
   26.2431  -20.9390  -14.4898 C   0  0  0  0  0  0  0  0  0  0  0  0
   25.2882  -21.2406  -15.3035 O   0  0  0  0  0  0  0  0  0  0  0  0
   25.9932  -20.8837  -13.0988 N   0  0  0  0  0  0  0  0  0  0  0  0
   26.9126  -20.4729  -12.0772 C   0  0  0  0  0  0  0  0  0  0  0  0
   26.1963  -20.6094  -10.7425 C   0  0  0  0  0  0  0  0  0  0  0  0
   24.9947  -21.4316  -11.0794 C   0  0  0  0  0  0  0  0  0  0  0  0
   24.7105  -21.2550  -12.5283 C   0  0  1  0  0  0  0  0  0  0  0  0
   23.6525  -20.2947  -12.8565 C   0  0  0  0  0  0  0  0  0  0  0  0
   23.9768  -19.0722  -13.0455 O   0  0  0  0  0  0  0  0  0  0  0  0
   21.4483  -17.9481  -16.8337 N   0  0  0  0  0  0  0  0  0  0  0  0
   20.9565  -19.1054  -16.1618 C   0  0  0  0  0  0  0  0  0  0  0  0
   19.7870  -19.4491  -16.4118 O   0  0  0  0  0  0  0  0  0  0  0  0
   21.8442  -19.7987  -15.2398 C   0  0  0  0  0  0  0  0  0  0  0  0
   21.3533  -19.8173  -13.8186 C   0  0  2  0  0  0  0  0  0  0  0  0
   22.2884  -20.5977  -12.9854 N   0  0  0  0  0  0  0  0  0  0  0  0
   20.0590  -20.5051  -13.6532 C   0  0  0  0  0  0  0  0  0  0  0  0
   18.9166  -19.7948  -13.3927 O   0  0  0  0  0  0  0  0  0  0  0  0
   19.9806  -21.7459  -13.7467 O   0  0  0  0  0  0  0  0  0  0  0  0
  2  1  1  1
  2  3  1  0
  4  2  1  0
  4  5  1  6
  6  8  1  0
  6  4  1  0
  7  6  2  0
  8 12  1  0
  9 10  1  0
  9  8  1  0
 10 11  1  0
 11 12  1  0
 12 13  1  1
 13 20  1  0
 14 13  2  0
 16 17  2  0
 16 15  1  0
 18 16  1  0
 19 20  1  0
 19 21  1  0
 19 18  1  6
 21 23  2  0
 21 22  1  0
M  END
$$$$
