TPN.pdb
     RDKit          3D

 23 23  0  0  1  0  0  0  0  0999 V2000
   22.8931  -21.8191  -11.8162 C   0  0  0  0  0  0  0  0  0  0  0  0
   23.3475  -20.8893  -10.7116 C   0  0  1  0  0  0  0  0  0  0  0  0
   22.9875  -21.4432   -9.4938 O   0  0  0  0  0  0  0  0  0  0  0  0
   24.8495  -20.7269  -10.8517 C   0  0  2  0  0  0  0  0  0  0  0  0
   25.3393  -20.1211   -9.6649 N   0  0  0  0  0  0  0  0  0  0  0  0
   25.2131  -19.9687  -12.0495 C   0  0  0  0  0  0  0  0  0  0  0  0
   24.8481  -18.7333  -12.1237 O   0  0  0  0  0  0  0  0  0  0  0  0
   25.9442  -20.5530  -13.1099 N   0  0  0  0  0  0  0  0  0  0  0  0
   26.3884  -21.9140  -13.1986 C   0  0  0  0  0  0  0  0  0  0  0  0
   27.1531  -22.0560  -14.5056 C   0  0  0  0  0  0  0  0  0  0  0  0
   27.3855  -20.6402  -14.9238 C   0  0  0  0  0  0  0  0  0  0  0  0
   26.3414  -19.7964  -14.2841 C   0  0  1  0  0  0  0  0  0  0  0  0
   25.2010  -19.4420  -15.1344 C   0  0  0  0  0  0  0  0  0  0  0  0
   24.1789  -20.2107  -15.1339 O   0  0  0  0  0  0  0  0  0  0  0  0
   21.8610  -16.8393  -18.1776 N   0  0  0  0  0  0  0  0  0  0  0  0
   22.6175  -15.9184  -17.3953 C   0  0  0  0  0  0  0  0  0  0  0  0
   22.2959  -14.7185  -17.4677 O   0  0  0  0  0  0  0  0  0  0  0  0
   23.7020  -16.4368  -16.5743 C   0  0  0  0  0  0  0  0  0  0  0  0
   23.9051  -17.9215  -16.6991 C   0  0  2  0  0  0  0  0  0  0  0  0
   25.1241  -18.3145  -15.9662 N   0  0  0  0  0  0  0  0  0  0  0  0
   24.1545  -18.3659  -18.0833 C   0  0  0  0  0  0  0  0  0  0  0  0
   23.1675  -18.9766  -18.8115 O   0  0  0  0  0  0  0  0  0  0  0  0
   25.2686  -18.1947  -18.6161 O   0  0  0  0  0  0  0  0  0  0  0  0
  2  1  1  6
  2  3  1  0
  4  2  1  0
  4  5  1  1
  6  8  1  0
  6  4  1  0
  7  6  2  0
  8 12  1  0
  9 10  1  0
  9  8  1  0
 10 11  1  0
 11 12  1  0
 12 13  1  6
 13 20  1  0
 14 13  2  0
 16 17  2  0
 16 15  1  0
 18 16  1  0
 19 20  1  0
 19 21  1  0
 19 18  1  6
 21 23  2  0
 21 22  1  0
M  END
$$$$
