TPN.pdb
     RDKit          3D

 23 23  0  0  1  0  0  0  0  0999 V2000
   21.5572  -10.0748  -19.9229 C   0  0  0  0  0  0  0  0  0  0  0  0
   20.4350  -11.0373  -19.5986 C   0  0  1  0  0  0  0  0  0  0  0  0
   20.2053  -11.8356  -20.7073 O   0  0  0  0  0  0  0  0  0  0  0  0
   20.8697  -11.8410  -18.3873 C   0  0  2  0  0  0  0  0  0  0  0  0
   19.9458  -12.9043  -18.2099 N   0  0  0  0  0  0  0  0  0  0  0  0
   20.9922  -11.0102  -17.1888 C   0  0  0  0  0  0  0  0  0  0  0  0
   19.9674  -10.3192  -16.8181 O   0  0  0  0  0  0  0  0  0  0  0  0
   22.1913  -10.9499  -16.4412 N   0  0  0  0  0  0  0  0  0  0  0  0
   23.4080  -11.6599  -16.7116 C   0  0  0  0  0  0  0  0  0  0  0  0
   24.3995  -11.2910  -15.6188 C   0  0  0  0  0  0  0  0  0  0  0  0
   23.5428  -10.6369  -14.5836 C   0  0  0  0  0  0  0  0  0  0  0  0
   22.3245  -10.1168  -15.2592 C   0  0  1  0  0  0  0  0  0  0  0  0
   22.3369   -8.6865  -15.5805 C   0  0  0  0  0  0  0  0  0  0  0  0
   22.3199   -8.3386  -16.8110 O   0  0  0  0  0  0  0  0  0  0  0  0
   21.0919   -3.7183  -15.4874 N   0  0  0  0  0  0  0  0  0  0  0  0
   20.2106   -4.7949  -15.7985 C   0  0  0  0  0  0  0  0  0  0  0  0
   19.0997   -4.4962  -16.2731 O   0  0  0  0  0  0  0  0  0  0  0  0
   20.6633   -6.1546  -15.5433 C   0  0  0  0  0  0  0  0  0  0  0  0
   22.0538   -6.2380  -14.9770 C   0  0  2  0  0  0  0  0  0  0  0  0
   22.3662   -7.6413  -14.6446 N   0  0  0  0  0  0  0  0  0  0  0  0
   22.2118   -5.5184  -13.6991 C   0  0  0  0  0  0  0  0  0  0  0  0
   22.9835   -4.3888  -13.6221 O   0  0  0  0  0  0  0  0  0  0  0  0
   21.6464   -5.9252  -12.6650 O   0  0  0  0  0  0  0  0  0  0  0  0
  2  1  1  6
  2  3  1  0
  4  2  1  0
  4  5  1  1
  6  8  1  0
  6  4  1  0
  7  6  2  0
  8 12  1  0
  9 10  1  0
  9  8  1  0
 10 11  1  0
 11 12  1  0
 12 13  1  6
 13 20  1  0
 14 13  2  0
 16 17  2  0
 16 15  1  0
 18 16  1  0
 19 20  1  0
 19 21  1  0
 19 18  1  1
 21 23  2  0
 21 22  1  0
M  END
$$$$
