TPN.pdb
     RDKit          3D

 23 23  0  0  1  0  0  0  0  0999 V2000
   25.1576  -18.7430  -18.3808 C   0  0  0  0  0  0  0  0  0  0  0  0
   24.2511  -19.5662  -17.4911 C   0  0  1  0  0  0  0  0  0  0  0  0
   24.5750  -20.9039  -17.6494 O   0  0  0  0  0  0  0  0  0  0  0  0
   24.4620  -19.0846  -16.0678 C   0  0  2  0  0  0  0  0  0  0  0  0
   23.8058  -19.9914  -15.1946 N   0  0  0  0  0  0  0  0  0  0  0  0
   24.0055  -17.7071  -15.8781 C   0  0  0  0  0  0  0  0  0  0  0  0
   22.7354  -17.4794  -15.8807 O   0  0  0  0  0  0  0  0  0  0  0  0
   24.9133  -16.6381  -15.6953 N   0  0  0  0  0  0  0  0  0  0  0  0
   26.3450  -16.7224  -15.6704 C   0  0  0  0  0  0  0  0  0  0  0  0
   26.8766  -15.3197  -15.4196 C   0  0  0  0  0  0  0  0  0  0  0  0
   25.6653  -14.5677  -14.9717 C   0  0  0  0  0  0  0  0  0  0  0  0
   24.4675  -15.2691  -15.5054 C   0  0  1  0  0  0  0  0  0  0  0  0
   23.8845  -14.6960  -16.7222 C   0  0  0  0  0  0  0  0  0  0  0  0
   24.3427  -15.0755  -17.8543 O   0  0  0  0  0  0  0  0  0  0  0  0
   18.6075  -12.5793  -18.9297 N   0  0  0  0  0  0  0  0  0  0  0  0
   20.0253  -12.7090  -19.0056 C   0  0  0  0  0  0  0  0  0  0  0  0
   20.5688  -12.3533  -20.0670 O   0  0  0  0  0  0  0  0  0  0  0  0
   20.7334  -13.2421  -17.8509 C   0  0  0  0  0  0  0  0  0  0  0  0
   22.2282  -13.2702  -18.0120 C   0  0  2  0  0  0  0  0  0  0  0  0
   22.8486  -13.7501  -16.7621 N   0  0  0  0  0  0  0  0  0  0  0  0
   22.8214  -11.9362  -18.2229 C   0  0  0  0  0  0  0  0  0  0  0  0
   23.1652  -11.5133  -19.4800 O   0  0  0  0  0  0  0  0  0  0  0  0
   23.0217  -11.1690  -17.2607 O   0  0  0  0  0  0  0  0  0  0  0  0
  2  1  1  6
  2  3  1  0
  4  2  1  0
  4  5  1  1
  6  8  1  0
  6  4  1  0
  7  6  2  0
  8 12  1  0
  9 10  1  0
  9  8  1  0
 10 11  1  0
 11 12  1  0
 12 13  1  6
 13 20  1  0
 14 13  2  0
 16 17  2  0
 16 15  1  0
 18 16  1  0
 19 20  1  0
 19 21  1  0
 19 18  1  1
 21 23  2  0
 21 22  1  0
M  END
$$$$
