TPN.pdb
     RDKit          3D

 23 23  0  0  1  0  0  0  0  0999 V2000
   19.7049  -10.0573  -18.4542 C   0  0  0  0  0  0  0  0  0  0  0  0
   18.6364  -10.8302  -17.7113 C   0  0  1  0  0  0  0  0  0  0  0  0
   18.0038  -11.6781  -18.6058 O   0  0  0  0  0  0  0  0  0  0  0  0
   19.3263  -11.5836  -16.5894 C   0  0  2  0  0  0  0  0  0  0  0  0
   18.3866  -12.4825  -16.0199 N   0  0  0  0  0  0  0  0  0  0  0  0
   19.9023  -10.6813  -15.5914 C   0  0  0  0  0  0  0  0  0  0  0  0
   19.1004   -9.9401  -14.9041 O   0  0  0  0  0  0  0  0  0  0  0  0
   21.2970  -10.6064  -15.3690 N   0  0  0  0  0  0  0  0  0  0  0  0
   22.3091  -11.4154  -15.9844 C   0  0  0  0  0  0  0  0  0  0  0  0
   23.6478  -10.9815  -15.4078 C   0  0  0  0  0  0  0  0  0  0  0  0
   23.2611  -10.1599  -14.2208 C   0  0  0  0  0  0  0  0  0  0  0  0
   21.8825   -9.6500  -14.4464 C   0  0  1  0  0  0  0  0  0  0  0  0
   21.7863   -8.2706  -14.9335 C   0  0  0  0  0  0  0  0  0  0  0  0
   21.5807   -8.0783  -16.1809 O   0  0  0  0  0  0  0  0  0  0  0  0
   19.6208   -3.7557  -16.3383 N   0  0  0  0  0  0  0  0  0  0  0  0
   19.8618   -4.0801  -14.9711 C   0  0  0  0  0  0  0  0  0  0  0  0
   19.7724   -3.1526  -14.1463 O   0  0  0  0  0  0  0  0  0  0  0  0
   20.1923   -5.4575  -14.6355 C   0  0  0  0  0  0  0  0  0  0  0  0
   21.6668   -5.7517  -14.6503 C   0  0  2  0  0  0  0  0  0  0  0  0
   21.9011   -7.1172  -14.1425 N   0  0  0  0  0  0  0  0  0  0  0  0
   22.4471   -4.8884  -13.7438 C   0  0  0  0  0  0  0  0  0  0  0  0
   23.0301   -3.7365  -14.2028 O   0  0  0  0  0  0  0  0  0  0  0  0
   22.5912   -5.1914  -12.5430 O   0  0  0  0  0  0  0  0  0  0  0  0
  2  1  1  6
  2  3  1  0
  4  2  1  0
  4  5  1  1
  6  8  1  0
  6  4  1  0
  7  6  2  0
  8 12  1  0
  9 10  1  0
  9  8  1  0
 10 11  1  0
 11 12  1  0
 12 13  1  6
 13 20  1  0
 14 13  2  0
 16 17  2  0
 16 15  1  0
 18 16  1  0
 19 20  1  0
 19 21  1  0
 19 18  1  1
 21 23  2  0
 21 22  1  0
M  END
$$$$
