TPN.pdb
     RDKit          3D

 23 23  0  0  1  0  0  0  0  0999 V2000
   18.9396  -10.3395  -18.7238 C   0  0  0  0  0  0  0  0  0  0  0  0
   18.3428  -11.4212  -17.8492 C   0  0  1  0  0  0  0  0  0  0  0  0
   17.6461  -12.3057  -18.6565 O   0  0  0  0  0  0  0  0  0  0  0  0
   19.4909  -12.0890  -17.1158 C   0  0  2  0  0  0  0  0  0  0  0  0
   18.9924  -13.2646  -16.4954 N   0  0  0  0  0  0  0  0  0  0  0  0
   20.1316  -11.1879  -16.1569 C   0  0  0  0  0  0  0  0  0  0  0  0
   19.3819  -10.5586  -15.3161 O   0  0  0  0  0  0  0  0  0  0  0  0
   21.5326  -10.9959  -16.1338 N   0  0  0  0  0  0  0  0  0  0  0  0
   22.4943  -11.5830  -17.0215 C   0  0  0  0  0  0  0  0  0  0  0  0
   23.8683  -11.1000  -16.5836 C   0  0  0  0  0  0  0  0  0  0  0  0
   23.6140  -10.5209  -15.2295 C   0  0  0  0  0  0  0  0  0  0  0  0
   22.1792  -10.1366  -15.1580 C   0  0  1  0  0  0  0  0  0  0  0  0
   21.8891   -8.7171  -15.3821 C   0  0  0  0  0  0  0  0  0  0  0  0
   21.2987   -8.3798  -16.4652 O   0  0  0  0  0  0  0  0  0  0  0  0
   18.1569   -4.9145  -14.7910 N   0  0  0  0  0  0  0  0  0  0  0  0
   19.5794   -5.0008  -14.7516 C   0  0  0  0  0  0  0  0  0  0  0  0
   20.2115   -3.9299  -14.7949 O   0  0  0  0  0  0  0  0  0  0  0  0
   20.1896   -6.3195  -14.6646 C   0  0  0  0  0  0  0  0  0  0  0  0
   21.6930   -6.2958  -14.6485 C   0  0  2  0  0  0  0  0  0  0  0  0
   22.2052   -7.6718  -14.5009 N   0  0  0  0  0  0  0  0  0  0  0  0
   22.2568   -5.5726  -13.4930 C   0  0  0  0  0  0  0  0  0  0  0  0
   22.3362   -6.1711  -12.2630 O   0  0  0  0  0  0  0  0  0  0  0  0
   22.6709   -4.4029  -13.6142 O   0  0  0  0  0  0  0  0  0  0  0  0
  2  1  1  6
  2  3  1  0
  4  2  1  0
  4  5  1  1
  6  8  1  0
  6  4  1  0
  7  6  2  0
  8 12  1  0
  9 10  1  0
  9  8  1  0
 10 11  1  0
 11 12  1  0
 12 13  1  6
 13 20  1  0
 14 13  2  0
 16 17  2  0
 16 15  1  0
 18 16  1  0
 19 20  1  0
 19 21  1  0
 19 18  1  1
 21 23  2  0
 21 22  1  0
M  END
$$$$
