GNC.pdb
     RDKit          3D

 19 18  0  0  1  0  0  0  0  0999 V2000
    7.8509  -13.3115   18.6464 N   0  0  0  0  0  0  0  0  0  0  0  0
    8.4793  -14.0519   19.7086 C   0  0  0  0  0  0  0  0  0  0  0  0
    7.7600  -13.7838   20.9992 C   0  0  0  0  0  0  0  0  0  0  0  0
    7.6563  -12.6236   21.4657 O   0  0  0  0  0  0  0  0  0  0  0  0
   11.5198  -16.6828   22.7630 N   0  0  0  0  0  0  0  0  0  0  0  0
   10.1511  -17.0412   22.5408 C   0  0  0  0  0  0  0  0  0  0  0  0
    9.7934  -18.1427   23.0132 O   0  0  0  0  0  0  0  0  0  0  0  0
    9.2385  -16.1590   21.8027 C   0  0  0  0  0  0  0  0  0  0  0  0
    8.0064  -15.7450   22.5523 C   0  0  2  0  0  0  0  0  0  0  0  0
    7.1842  -14.8452   21.7135 N   0  0  0  0  0  0  0  0  0  0  0  0
    8.4363  -14.8813   23.7110 C   0  0  0  0  0  0  0  0  0  0  0  0
    9.6386  -14.5657   23.9183 O   0  0  0  0  0  0  0  0  0  0  0  0
    7.4973  -14.3673   24.6479 N   0  0  0  0  0  0  0  0  0  0  0  0
    7.9266  -13.8698   25.9299 C   0  0  1  0  0  0  0  0  0  0  0  0
    6.7780  -13.1865   26.6721 C   0  0  0  0  0  0  0  0  0  0  0  0
    6.0292  -11.9635   25.5614 S   0  0  0  0  0  0  0  0  0  0  0  0
    8.5180  -14.9323   26.7780 C   0  0  0  0  0  0  0  0  0  0  0  0
    9.1457  -14.6544   27.9848 O   0  0  0  0  0  0  0  0  0  0  0  0
    8.4677  -16.1370   26.4238 O   0  0  0  0  0  0  0  0  0  0  0  0
  1  2  1  0
  2  3  1  0
  3  4  2  0
  5  6  1  0
  6  7  2  0
  8  6  1  0
  9  8  1  6
 10  3  1  0
 10  9  1  0
 11  9  1  0
 11 13  1  0
 12 11  2  0
 14 13  1  0
 14 15  1  1
 16 15  1  0
 17 14  1  0
 18 17  1  0
 19 17  2  0
M  END
$$$$
