GNC.pdb
     RDKit          3D

 19 18  0  0  1  0  0  0  0  0999 V2000
    3.4023  -18.4413   20.8681 N   0  0  0  0  0  0  0  0  0  0  0  0
    3.9325  -17.5853   21.8965 C   0  0  0  0  0  0  0  0  0  0  0  0
    5.3053  -17.1212   21.5029 C   0  0  0  0  0  0  0  0  0  0  0  0
    6.2588  -17.9260   21.3698 O   0  0  0  0  0  0  0  0  0  0  0  0
    7.9487  -12.5210   18.4408 N   0  0  0  0  0  0  0  0  0  0  0  0
    7.7312  -13.8000   19.0471 C   0  0  0  0  0  0  0  0  0  0  0  0
    8.4131  -14.7428   18.5882 O   0  0  0  0  0  0  0  0  0  0  0  0
    6.7647  -13.9760   20.1383 C   0  0  0  0  0  0  0  0  0  0  0  0
    6.8879  -15.2641   20.8978 C   0  0  2  0  0  0  0  0  0  0  0  0
    5.5449  -15.7578   21.2748 N   0  0  0  0  0  0  0  0  0  0  0  0
    7.5556  -14.9639   22.2159 C   0  0  0  0  0  0  0  0  0  0  0  0
    7.1179  -14.0997   23.0220 O   0  0  0  0  0  0  0  0  0  0  0  0
    8.7327  -15.6474   22.6295 N   0  0  0  0  0  0  0  0  0  0  0  0
    9.2792  -15.4503   23.9477 C   0  0  1  0  0  0  0  0  0  0  0  0
    8.2816  -15.8659   25.0290 C   0  0  0  0  0  0  0  0  0  0  0  0
    7.3704  -14.3905   25.5612 S   0  0  0  0  0  0  0  0  0  0  0  0
   10.5628  -16.1669   24.1391 C   0  0  0  0  0  0  0  0  0  0  0  0
   11.3430  -16.0000   25.2753 O   0  0  0  0  0  0  0  0  0  0  0  0
   10.9902  -16.9606   23.2635 O   0  0  0  0  0  0  0  0  0  0  0  0
  1  2  1  0
  2  3  1  0
  3  4  2  0
  5  6  1  0
  6  7  2  0
  8  6  1  0
  9  8  1  6
 10  3  1  0
 10  9  1  0
 11  9  1  0
 11 13  1  0
 12 11  2  0
 14 13  1  0
 14 15  1  1
 16 15  1  0
 17 14  1  0
 18 17  1  0
 19 17  2  0
M  END
$$$$
