GNC.pdb
     RDKit          3D

 19 18  0  0  1  0  0  0  0  0999 V2000
    7.0784  -19.2331   19.4726 N   0  0  0  0  0  0  0  0  0  0  0  0
    6.4040  -18.1465   20.1330 C   0  0  0  0  0  0  0  0  0  0  0  0
    7.4189  -17.2367   20.7632 C   0  0  0  0  0  0  0  0  0  0  0  0
    8.5231  -17.6678   21.1748 O   0  0  0  0  0  0  0  0  0  0  0  0
    7.0939  -12.2346   19.1480 N   0  0  0  0  0  0  0  0  0  0  0  0
    7.9924  -13.1118   19.8367 C   0  0  0  0  0  0  0  0  0  0  0  0
    8.9877  -13.4942   19.1828 O   0  0  0  0  0  0  0  0  0  0  0  0
    7.7457  -13.5262   21.2235 C   0  0  0  0  0  0  0  0  0  0  0  0
    8.1094  -14.9474   21.5387 C   0  0  2  0  0  0  0  0  0  0  0  0
    7.1416  -15.8685   20.9031 N   0  0  0  0  0  0  0  0  0  0  0  0
    7.9079  -15.1611   23.0176 C   0  0  0  0  0  0  0  0  0  0  0  0
    7.0098  -14.5718   23.6766 O   0  0  0  0  0  0  0  0  0  0  0  0
    8.7305  -16.0511   23.7625 N   0  0  0  0  0  0  0  0  0  0  0  0
    8.5274  -16.2397   25.1760 C   0  0  1  0  0  0  0  0  0  0  0  0
    7.6936  -17.4906   25.4540 C   0  0  0  0  0  0  0  0  0  0  0  0
    6.0784  -17.2883   24.6537 S   0  0  0  0  0  0  0  0  0  0  0  0
    9.8048  -16.3045   25.9258 C   0  0  0  0  0  0  0  0  0  0  0  0
    9.8484  -16.4701   27.3035 O   0  0  0  0  0  0  0  0  0  0  0  0
   10.9051  -16.2100   25.3261 O   0  0  0  0  0  0  0  0  0  0  0  0
  1  2  1  0
  2  3  1  0
  3  4  2  0
  5  6  1  0
  6  7  2  0
  8  6  1  0
  9  8  1  1
 10  3  1  0
 10  9  1  0
 11  9  1  0
 11 13  1  0
 12 11  2  0
 14 13  1  0
 14 15  1  6
 16 15  1  0
 17 14  1  0
 18 17  1  0
 19 17  2  0
M  END
$$$$
