GNC.pdb
     RDKit          3D

 19 18  0  0  1  0  0  0  0  0999 V2000
    8.3677  -19.6454   18.1133 N   0  0  0  0  0  0  0  0  0  0  0  0
    7.6739  -18.4851   18.6070 C   0  0  0  0  0  0  0  0  0  0  0  0
    8.6619  -17.3853   18.8699 C   0  0  0  0  0  0  0  0  0  0  0  0
    9.8987  -17.5763   18.7778 O   0  0  0  0  0  0  0  0  0  0  0  0
    6.3445  -14.7431   19.9178 N   0  0  0  0  0  0  0  0  0  0  0  0
    7.0451  -13.6314   19.3482 C   0  0  0  0  0  0  0  0  0  0  0  0
    6.3497  -12.6244   19.0900 O   0  0  0  0  0  0  0  0  0  0  0  0
    8.4895  -13.6872   19.0903 C   0  0  0  0  0  0  0  0  0  0  0  0
    9.1506  -14.9871   19.4435 C   0  0  2  0  0  0  0  0  0  0  0  0
    8.2079  -16.1071   19.2283 N   0  0  0  0  0  0  0  0  0  0  0  0
    9.3991  -14.9925   20.9306 C   0  0  0  0  0  0  0  0  0  0  0  0
    8.6469  -14.4013   21.7509 O   0  0  0  0  0  0  0  0  0  0  0  0
   10.5110  -15.6736   21.4995 N   0  0  0  0  0  0  0  0  0  0  0  0
   10.6943  -15.7289   22.9272 C   0  0  1  0  0  0  0  0  0  0  0  0
    9.5202  -16.4307   23.6100 C   0  0  0  0  0  0  0  0  0  0  0  0
    9.8787  -16.5457   25.3844 S   0  0  0  0  0  0  0  0  0  0  0  0
   11.9682  -16.3851   23.3073 C   0  0  0  0  0  0  0  0  0  0  0  0
   12.5459  -16.2147   24.5582 O   0  0  0  0  0  0  0  0  0  0  0  0
   12.5736  -17.1282   22.4944 O   0  0  0  0  0  0  0  0  0  0  0  0
  1  2  1  0
  2  3  1  0
  3  4  2  0
  5  6  1  0
  6  7  2  0
  8  6  1  0
  9  8  1  1
 10  3  1  0
 10  9  1  0
 11  9  1  0
 11 13  1  0
 12 11  2  0
 14 13  1  0
 14 15  1  1
 16 15  1  0
 17 14  1  0
 18 17  1  0
 19 17  2  0
M  END
$$$$
