GNC.pdb
     RDKit          3D

 19 18  0  0  1  0  0  0  0  0999 V2000
    4.5131  -19.3690   21.7799 N   0  0  0  0  0  0  0  0  0  0  0  0
    4.6368  -17.9608   22.0498 C   0  0  0  0  0  0  0  0  0  0  0  0
    5.7207  -17.3794   21.1884 C   0  0  0  0  0  0  0  0  0  0  0  0
    6.4488  -18.1047   20.4684 O   0  0  0  0  0  0  0  0  0  0  0  0
    8.0133  -11.8903   19.3328 N   0  0  0  0  0  0  0  0  0  0  0  0
    7.8661  -13.3149   19.3318 C   0  0  0  0  0  0  0  0  0  0  0  0
    8.6782  -13.9454   18.6195 O   0  0  0  0  0  0  0  0  0  0  0  0
    6.8220  -13.9775   20.1234 C   0  0  0  0  0  0  0  0  0  0  0  0
    7.1098  -15.4031   20.4925 C   0  0  2  0  0  0  0  0  0  0  0  0
    5.9381  -15.9934   21.1766 N   0  0  0  0  0  0  0  0  0  0  0  0
    8.1905  -15.4014   21.5438 C   0  0  0  0  0  0  0  0  0  0  0  0
    9.1287  -14.5600   21.5574 O   0  0  0  0  0  0  0  0  0  0  0  0
    8.2132  -16.3616   22.5932 N   0  0  0  0  0  0  0  0  0  0  0  0
    8.9839  -16.1343   23.7888 C   0  0  1  0  0  0  0  0  0  0  0  0
    8.2057  -15.2890   24.7973 C   0  0  0  0  0  0  0  0  0  0  0  0
    9.2275  -15.0901   26.2828 S   0  0  0  0  0  0  0  0  0  0  0  0
    9.4284  -17.3987   24.4223 C   0  0  0  0  0  0  0  0  0  0  0  0
    8.5695  -18.4717   24.6188 O   0  0  0  0  0  0  0  0  0  0  0  0
   10.6165  -17.5395   24.8070 O   0  0  0  0  0  0  0  0  0  0  0  0
  1  2  1  0
  2  3  1  0
  3  4  2  0
  5  6  1  0
  6  7  2  0
  8  6  1  0
  9  8  1  1
 10  3  1  0
 10  9  1  0
 11  9  1  0
 11 13  1  0
 12 11  2  0
 14 13  1  0
 14 15  1  1
 16 15  1  0
 17 14  1  0
 18 17  1  0
 19 17  2  0
M  END
$$$$
