GNC.pdb
     RDKit          3D

 19 18  0  0  1  0  0  0  0  0999 V2000
   13.8828  -15.7837   17.1209 N   0  0  0  0  0  0  0  0  0  0  0  0
   12.5678  -16.1708   17.5596 C   0  0  0  0  0  0  0  0  0  0  0  0
   11.9361  -15.0345   18.3110 C   0  0  0  0  0  0  0  0  0  0  0  0
   12.5286  -13.9396   18.4679 O   0  0  0  0  0  0  0  0  0  0  0  0
    7.3050  -12.5776   18.0070 N   0  0  0  0  0  0  0  0  0  0  0  0
    8.1013  -13.7488   18.2198 C   0  0  0  0  0  0  0  0  0  0  0  0
    8.3650  -14.4204   17.1982 O   0  0  0  0  0  0  0  0  0  0  0  0
    8.5705  -14.1229   19.5598 C   0  0  0  0  0  0  0  0  0  0  0  0
   10.0611  -14.1459   19.7302 C   0  0  2  0  0  0  0  0  0  0  0  0
   10.6525  -15.1841   18.8574 N   0  0  0  0  0  0  0  0  0  0  0  0
   10.3612  -14.6227   21.1288 C   0  0  0  0  0  0  0  0  0  0  0  0
    9.5504  -14.4897   22.0843 O   0  0  0  0  0  0  0  0  0  0  0  0
   11.5922  -15.2575   21.4533 N   0  0  0  0  0  0  0  0  0  0  0  0
   11.8096  -15.8291   22.7575 C   0  0  1  0  0  0  0  0  0  0  0  0
   10.8291  -16.9691   23.0335 C   0  0  0  0  0  0  0  0  0  0  0  0
    9.4258  -16.3001   23.9682 S   0  0  0  0  0  0  0  0  0  0  0  0
   13.2025  -16.3024   22.9410 C   0  0  0  0  0  0  0  0  0  0  0  0
   14.1156  -16.3431   21.8960 O   0  0  0  0  0  0  0  0  0  0  0  0
   13.6052  -16.6875   24.0674 O   0  0  0  0  0  0  0  0  0  0  0  0
  1  2  1  0
  2  3  1  0
  3  4  2  0
  5  6  1  0
  6  7  2  0
  8  6  1  0
  9  8  1  1
 10  3  1  0
 10  9  1  0
 11  9  1  0
 11 13  1  0
 12 11  2  0
 14 13  1  0
 14 15  1  6
 16 15  1  0
 17 14  1  0
 18 17  1  0
 19 17  2  0
M  END
$$$$
