GNC.pdb
     RDKit          3D

 19 18  0  0  1  0  0  0  0  0999 V2000
    1.3031  -20.1456   22.5330 N   0  0  0  0  0  0  0  0  0  0  0  0
    2.0839  -18.9672   22.2626 C   0  0  0  0  0  0  0  0  0  0  0  0
    3.5085  -19.3608   21.9969 C   0  0  0  0  0  0  0  0  0  0  0  0
    3.9191  -20.5274   22.2091 O   0  0  0  0  0  0  0  0  0  0  0  0
    5.0483  -18.5050   17.7160 N   0  0  0  0  0  0  0  0  0  0  0  0
    5.7973  -19.0845   18.7904 C   0  0  0  0  0  0  0  0  0  0  0  0
    6.0172  -20.3124   18.7002 O   0  0  0  0  0  0  0  0  0  0  0  0
    6.2699  -18.2733   19.9193 C   0  0  0  0  0  0  0  0  0  0  0  0
    5.8380  -18.7526   21.2740 C   0  0  2  0  0  0  0  0  0  0  0  0
    4.4156  -18.4132   21.4992 N   0  0  0  0  0  0  0  0  0  0  0  0
    6.5798  -17.9464   22.3099 C   0  0  0  0  0  0  0  0  0  0  0  0
    6.8648  -16.7290   22.1524 O   0  0  0  0  0  0  0  0  0  0  0  0
    7.0056  -18.5215   23.5394 N   0  0  0  0  0  0  0  0  0  0  0  0
    7.5102  -17.6970   24.6074 C   0  0  1  0  0  0  0  0  0  0  0  0
    6.3911  -16.8784   25.2516 C   0  0  0  0  0  0  0  0  0  0  0  0
    6.7130  -15.1222   24.9318 S   0  0  0  0  0  0  0  0  0  0  0  0
    8.2214  -18.4860   25.6415 C   0  0  0  0  0  0  0  0  0  0  0  0
    8.9481  -17.8873   26.6617 O   0  0  0  0  0  0  0  0  0  0  0  0
    8.1871  -19.7422   25.6250 O   0  0  0  0  0  0  0  0  0  0  0  0
  1  2  1  0
  2  3  1  0
  3  4  2  0
  5  6  1  0
  6  7  2  0
  8  6  1  0
  9  8  1  6
 10  3  1  0
 10  9  1  0
 11  9  1  0
 11 13  1  0
 12 11  2  0
 14 13  1  0
 14 15  1  1
 16 15  1  0
 17 14  1  0
 18 17  1  0
 19 17  2  0
M  END
$$$$
