GNC.pdb
     RDKit          3D

 19 18  0  0  1  0  0  0  0  0999 V2000
   10.0762  -17.0473   16.2140 N   0  0  0  0  0  0  0  0  0  0  0  0
   10.1614  -17.5541   17.5583 C   0  0  0  0  0  0  0  0  0  0  0  0
   10.3902  -16.4146   18.5092 C   0  0  0  0  0  0  0  0  0  0  0  0
   11.5360  -15.9426   18.7066 O   0  0  0  0  0  0  0  0  0  0  0  0
    8.9715  -12.8170   18.0797 N   0  0  0  0  0  0  0  0  0  0  0  0
    7.9942  -13.0068   19.1092 C   0  0  0  0  0  0  0  0  0  0  0  0
    6.9373  -12.3498   18.9840 O   0  0  0  0  0  0  0  0  0  0  0  0
    8.2341  -13.9194   20.2342 C   0  0  0  0  0  0  0  0  0  0  0  0
    9.4959  -14.7262   20.1428 C   0  0  2  0  0  0  0  0  0  0  0  0
    9.3074  -15.8525   19.2020 N   0  0  0  0  0  0  0  0  0  0  0  0
    9.7190  -15.3916   21.4773 C   0  0  0  0  0  0  0  0  0  0  0  0
    8.8064  -15.9995   22.0984 O   0  0  0  0  0  0  0  0  0  0  0  0
   10.9883  -15.3706   22.1193 N   0  0  0  0  0  0  0  0  0  0  0  0
   11.2690  -16.2386   23.2342 C   0  0  1  0  0  0  0  0  0  0  0  0
   10.9880  -17.6998   22.8833 C   0  0  0  0  0  0  0  0  0  0  0  0
   11.1556  -18.6909   24.3932 S   0  0  0  0  0  0  0  0  0  0  0  0
   12.6600  -16.0933   23.7260 C   0  0  0  0  0  0  0  0  0  0  0  0
   13.0164  -16.3776   25.0373 O   0  0  0  0  0  0  0  0  0  0  0  0
   13.5737  -15.7017   22.9571 O   0  0  0  0  0  0  0  0  0  0  0  0
  1  2  1  0
  2  3  1  0
  3  4  2  0
  5  6  1  0
  6  7  2  0
  8  6  1  0
  9  8  1  1
 10  3  1  0
 10  9  1  0
 11  9  1  0
 11 13  1  0
 12 11  2  0
 14 13  1  0
 14 15  1  6
 16 15  1  0
 17 14  1  0
 18 17  1  0
 19 17  2  0
M  END
$$$$
