GNC.pdb
     RDKit          3D

 19 18  0  0  1  0  0  0  0  0999 V2000
    9.0406  -18.8069   18.6623 N   0  0  0  0  0  0  0  0  0  0  0  0
    8.6124  -18.4488   19.9888 C   0  0  0  0  0  0  0  0  0  0  0  0
    9.1282  -17.0801   20.3289 C   0  0  0  0  0  0  0  0  0  0  0  0
   10.3411  -16.7842   20.2026 O   0  0  0  0  0  0  0  0  0  0  0  0
    7.9433  -12.2922   18.6171 N   0  0  0  0  0  0  0  0  0  0  0  0
    7.5934  -13.5341   19.2386 C   0  0  0  0  0  0  0  0  0  0  0  0
    7.1959  -14.4353   18.4679 O   0  0  0  0  0  0  0  0  0  0  0  0
    7.7008  -13.7207   20.6911 C   0  0  0  0  0  0  0  0  0  0  0  0
    8.7171  -14.7333   21.1305 C   0  0  2  0  0  0  0  0  0  0  0  0
    8.2460  -16.0966   20.8008 N   0  0  0  0  0  0  0  0  0  0  0  0
    8.7703  -14.7139   22.6372 C   0  0  0  0  0  0  0  0  0  0  0  0
    9.1291  -13.7006   23.2949 O   0  0  0  0  0  0  0  0  0  0  0  0
    8.4143  -15.8528   23.4116 N   0  0  0  0  0  0  0  0  0  0  0  0
    8.6129  -15.8700   24.8383 C   0  0  1  0  0  0  0  0  0  0  0  0
    7.2941  -15.6650   25.5839 C   0  0  0  0  0  0  0  0  0  0  0  0
    6.1838  -17.0371   25.1659 S   0  0  0  0  0  0  0  0  0  0  0  0
    9.2693  -17.1159   25.3015 C   0  0  0  0  0  0  0  0  0  0  0  0
    9.7608  -17.2597   26.5919 O   0  0  0  0  0  0  0  0  0  0  0  0
    9.4026  -18.0961   24.5264 O   0  0  0  0  0  0  0  0  0  0  0  0
  1  2  1  0
  2  3  1  0
  3  4  2  0
  5  6  1  0
  6  7  2  0
  8  6  1  0
  9  8  1  1
 10  3  1  0
 10  9  1  0
 11  9  1  0
 11 13  1  0
 12 11  2  0
 14 13  1  0
 14 15  1  1
 16 15  1  0
 17 14  1  0
 18 17  1  0
 19 17  2  0
M  END
$$$$
