GNC.pdb
     RDKit          3D

 19 18  0  0  1  0  0  0  0  0999 V2000
    5.1385  -19.3394   22.3618 N   0  0  0  0  0  0  0  0  0  0  0  0
    5.1266  -17.9568   22.7614 C   0  0  0  0  0  0  0  0  0  0  0  0
    6.3908  -17.2913   22.2991 C   0  0  0  0  0  0  0  0  0  0  0  0
    7.3920  -17.9576   21.9410 O   0  0  0  0  0  0  0  0  0  0  0  0
    8.7580  -15.0165   19.2558 N   0  0  0  0  0  0  0  0  0  0  0  0
    7.9002  -13.9797   19.7460 C   0  0  0  0  0  0  0  0  0  0  0  0
    7.5665  -13.1097   18.9117 O   0  0  0  0  0  0  0  0  0  0  0  0
    7.4499  -13.9550   21.1433 C   0  0  0  0  0  0  0  0  0  0  0  0
    7.7373  -15.2012   21.9281 C   0  0  2  0  0  0  0  0  0  0  0  0
    6.4713  -15.8911   22.2604 N   0  0  0  0  0  0  0  0  0  0  0  0
    8.2967  -14.7885   23.2660 C   0  0  0  0  0  0  0  0  0  0  0  0
    9.4378  -14.2706   23.3988 O   0  0  0  0  0  0  0  0  0  0  0  0
    7.5588  -14.9627   24.4698 N   0  0  0  0  0  0  0  0  0  0  0  0
    8.1436  -14.6509   25.7488 C   0  0  1  0  0  0  0  0  0  0  0  0
    7.1414  -13.9390   26.6576 C   0  0  0  0  0  0  0  0  0  0  0  0
    6.2042  -12.7537   25.6542 S   0  0  0  0  0  0  0  0  0  0  0  0
    8.6825  -15.8520   26.4305 C   0  0  0  0  0  0  0  0  0  0  0  0
    9.3348  -15.7803   27.6539 O   0  0  0  0  0  0  0  0  0  0  0  0
    8.5628  -16.9907   25.9123 O   0  0  0  0  0  0  0  0  0  0  0  0
  1  2  1  0
  2  3  1  0
  3  4  2  0
  5  6  1  0
  6  7  2  0
  8  6  1  0
  9  8  1  6
 10  3  1  0
 10  9  1  0
 11  9  1  0
 11 13  1  0
 12 11  2  0
 14 13  1  0
 14 15  1  1
 16 15  1  0
 17 14  1  0
 18 17  1  0
 19 17  2  0
M  END
$$$$
