GNC.pdb
     RDKit          3D

 19 18  0  0  1  0  0  0  0  0999 V2000
    7.7229  -12.9180   18.5309 N   0  0  0  0  0  0  0  0  0  0  0  0
    8.6862  -13.2675   19.5415 C   0  0  0  0  0  0  0  0  0  0  0  0
    7.9893  -13.9529   20.6815 C   0  0  0  0  0  0  0  0  0  0  0  0
    6.7576  -14.1907   20.6521 O   0  0  0  0  0  0  0  0  0  0  0  0
    7.2768  -18.1637   21.6957 N   0  0  0  0  0  0  0  0  0  0  0  0
    8.4814  -17.3921   21.7641 C   0  0  0  0  0  0  0  0  0  0  0  0
    9.2587  -17.5094   20.7913 O   0  0  0  0  0  0  0  0  0  0  0  0
    8.7699  -16.5226   22.9116 C   0  0  0  0  0  0  0  0  0  0  0  0
    8.1078  -15.1766   22.8741 C   0  0  2  0  0  0  0  0  0  0  0  0
    8.7184  -14.3436   21.8147 N   0  0  0  0  0  0  0  0  0  0  0  0
    8.4481  -14.4562   24.1542 C   0  0  0  0  0  0  0  0  0  0  0  0
    9.6291  -14.1572   24.4764 O   0  0  0  0  0  0  0  0  0  0  0  0
    7.4426  -14.0683   25.0828 N   0  0  0  0  0  0  0  0  0  0  0  0
    7.7929  -13.5133   26.3651 C   0  0  1  0  0  0  0  0  0  0  0  0
    6.5774  -12.8867   27.0485 C   0  0  0  0  0  0  0  0  0  0  0  0
    5.8983  -11.6140   25.9487 S   0  0  0  0  0  0  0  0  0  0  0  0
    8.4186  -14.5149   27.2613 C   0  0  0  0  0  0  0  0  0  0  0  0
    8.9572  -14.1728   28.4943 O   0  0  0  0  0  0  0  0  0  0  0  0
    8.4810  -15.7244   26.9258 O   0  0  0  0  0  0  0  0  0  0  0  0
  1  2  1  0
  2  3  1  0
  3  4  2  0
  5  6  1  0
  6  7  2  0
  8  6  1  0
  9  8  1  1
 10  3  1  0
 10  9  1  0
 11  9  1  0
 11 13  1  0
 12 11  2  0
 14 13  1  0
 14 15  1  1
 16 15  1  0
 17 14  1  0
 18 17  1  0
 19 17  2  0
M  END
$$$$
