NTD.pdb
     RDKit          3D

 24 23  0  0  1  0  0  0  0  0999 V2000
    7.2779  -11.8375   18.1701 N   0  0  0  0  0  0  0  0  0  0  0  0
    7.2144  -13.2009   17.8655 C   0  0  0  0  0  0  0  0  0  0  0  0
    6.1997  -13.6215   17.2158 O   0  0  0  0  0  0  0  0  0  0  0  0
    8.2111  -14.2365   18.2186 C   0  0  0  0  0  0  0  0  0  0  0  0
    9.3083  -13.7280   19.1072 C   0  0  2  0  0  0  0  0  0  0  0  0
    9.7903  -12.4571   18.6778 N   0  0  0  0  0  0  0  0  0  0  0  0
   10.4552  -14.6819   19.1810 C   0  0  0  0  0  0  0  0  0  0  0  0
   10.3066  -15.9097   19.3475 O   0  0  0  0  0  0  0  0  0  0  0  0
   15.0235  -15.6324   17.8138 C   0  0  0  0  0  0  0  0  0  0  0  0
   13.7396  -14.8616   17.8248 C   0  0  1  0  0  0  0  0  0  0  0  0
   12.9987  -15.2923   16.7002 O   0  0  0  0  0  0  0  0  0  0  0  0
   12.9221  -15.1076   19.0882 C   0  0  2  0  0  0  0  0  0  0  0  0
   11.7641  -14.1763   19.0611 N   0  0  0  0  0  0  0  0  0  0  0  0
   13.6607  -14.9569   20.3288 C   0  0  0  0  0  0  0  0  0  0  0  0
   14.0205  -13.7970   20.6891 O   0  0  0  0  0  0  0  0  0  0  0  0
   14.0311  -16.0038   21.2094 N   0  0  0  0  0  0  0  0  0  0  0  0
   14.7853  -15.7418   22.4291 C   0  0  1  0  0  0  0  0  0  0  0  0
   14.6943  -16.9232   23.4024 C   0  0  0  0  0  0  0  0  0  0  0  0
   13.3058  -17.0278   23.8885 C   0  0  0  0  0  0  0  0  0  0  0  0
   12.5281  -16.0988   23.9810 O   0  0  0  0  0  0  0  0  0  0  0  0
   16.2009  -15.5634   22.1124 C   0  0  0  0  0  0  0  0  0  0  0  0
   17.0517  -15.0872   23.1322 O   0  0  0  0  0  0  0  0  0  0  0  0
   12.8359  -18.3234   24.2765 O   0  0  0  0  0  0  0  0  0  0  0  0
   16.7273  -15.7957   21.0068 O   0  0  0  0  0  0  0  0  0  0  0  0
  2  3  2  0
  2  1  1  0
  4  5  1  0
  4  2  1  0
  5  7  1  0
  5  6  1  6
  7  8  2  0
 10  9  1  1
 10 12  1  0
 11 10  1  0
 12 14  1  0
 12 13  1  1
 13  7  1  0
 14 15  2  0
 16 14  1  0
 16 17  1  0
 17 21  1  0
 17 18  1  1
 19 20  2  0
 19 18  1  0
 21 24  2  0
 21 22  1  0
 23 19  1  0
M  END
$$$$
