NTD.pdb
     RDKit          3D

 24 23  0  0  1  0  0  0  0  0999 V2000
   14.7598  -15.6789   14.9104 N   0  0  0  0  0  0  0  0  0  0  0  0
   13.5591  -14.9694   15.0118 C   0  0  0  0  0  0  0  0  0  0  0  0
   12.8627  -14.8187   13.9529 O   0  0  0  0  0  0  0  0  0  0  0  0
   12.9899  -14.3579   16.2335 C   0  0  0  0  0  0  0  0  0  0  0  0
   12.2815  -15.3426   17.1171 C   0  0  2  0  0  0  0  0  0  0  0  0
   11.1180  -15.8752   16.4889 N   0  0  0  0  0  0  0  0  0  0  0  0
   11.8923  -14.7395   18.4268 C   0  0  0  0  0  0  0  0  0  0  0  0
   12.7191  -14.2336   19.2130 O   0  0  0  0  0  0  0  0  0  0  0  0
    8.5594  -12.5615   19.0226 C   0  0  0  0  0  0  0  0  0  0  0  0
    8.6871  -13.7028   19.9837 C   0  0  1  0  0  0  0  0  0  0  0  0
    7.8804  -14.7490   19.4801 O   0  0  0  0  0  0  0  0  0  0  0  0
   10.1238  -14.1964   20.1159 C   0  0  2  0  0  0  0  0  0  0  0  0
   10.5333  -14.7429   18.7958 N   0  0  0  0  0  0  0  0  0  0  0  0
   10.3330  -15.1858   21.1574 C   0  0  0  0  0  0  0  0  0  0  0  0
   10.0438  -16.3956   20.9183 O   0  0  0  0  0  0  0  0  0  0  0  0
   10.8457  -14.9333   22.4544 N   0  0  0  0  0  0  0  0  0  0  0  0
   10.9436  -15.9903   23.4535 C   0  0  1  0  0  0  0  0  0  0  0  0
   12.2718  -15.9124   24.2156 C   0  0  0  0  0  0  0  0  0  0  0  0
   13.3683  -16.2455   23.2872 C   0  0  0  0  0  0  0  0  0  0  0  0
   13.2309  -16.8119   22.2211 O   0  0  0  0  0  0  0  0  0  0  0  0
    9.8789  -15.8417   24.4437 C   0  0  0  0  0  0  0  0  0  0  0  0
    9.0588  -14.6963   24.3657 O   0  0  0  0  0  0  0  0  0  0  0  0
   14.6961  -15.8684   23.6682 O   0  0  0  0  0  0  0  0  0  0  0  0
    9.6311  -16.6465   25.3625 O   0  0  0  0  0  0  0  0  0  0  0  0
  2  3  2  0
  2  1  1  0
  4  5  1  0
  4  2  1  0
  5  7  1  0
  5  6  1  6
  7  8  2  0
 10  9  1  6
 10 12  1  0
 11 10  1  0
 12 14  1  0
 12 13  1  6
 13  7  1  0
 14 15  2  0
 16 14  1  0
 16 17  1  0
 17 21  1  0
 17 18  1  1
 19 20  2  0
 19 18  1  0
 21 24  2  0
 21 22  1  0
 23 19  1  0
M  END
$$$$
