NTD.pdb
     RDKit          3D

 24 23  0  0  1  0  0  0  0  0999 V2000
   17.2476  -13.4194   15.8952 N   0  0  0  0  0  0  0  0  0  0  0  0
   17.1029  -13.5402   17.2808 C   0  0  0  0  0  0  0  0  0  0  0  0
   18.1482  -13.7813   17.9722 O   0  0  0  0  0  0  0  0  0  0  0  0
   15.8480  -13.4188   18.0561 C   0  0  0  0  0  0  0  0  0  0  0  0
   15.2005  -14.7401   18.3510 C   0  0  2  0  0  0  0  0  0  0  0  0
   14.8269  -15.4239   17.1573 N   0  0  0  0  0  0  0  0  0  0  0  0
   13.9961  -14.5907   19.2214 C   0  0  0  0  0  0  0  0  0  0  0  0
   14.0282  -14.0225   20.3321 O   0  0  0  0  0  0  0  0  0  0  0  0
   10.2019  -16.1519   17.8566 C   0  0  0  0  0  0  0  0  0  0  0  0
   10.3432  -14.9799   18.7779 C   0  0  1  0  0  0  0  0  0  0  0  0
    9.1873  -14.9625   19.5919 O   0  0  0  0  0  0  0  0  0  0  0  0
   11.5796  -15.0803   19.6646 C   0  0  2  0  0  0  0  0  0  0  0  0
   12.7686  -15.1158   18.7735 N   0  0  0  0  0  0  0  0  0  0  0  0
   11.5908  -16.2189   20.5650 C   0  0  0  0  0  0  0  0  0  0  0  0
   12.0510  -17.3232   20.1485 O   0  0  0  0  0  0  0  0  0  0  0  0
   11.1290  -16.2251   21.9049 N   0  0  0  0  0  0  0  0  0  0  0  0
   11.0473  -17.4592   22.6765 C   0  0  1  0  0  0  0  0  0  0  0  0
   11.2046  -17.1869   24.1772 C   0  0  0  0  0  0  0  0  0  0  0  0
   12.6398  -17.0343   24.4809 C   0  0  0  0  0  0  0  0  0  0  0  0
   13.5466  -17.4609   23.7938 O   0  0  0  0  0  0  0  0  0  0  0  0
    9.7349  -18.0761   22.4943 C   0  0  0  0  0  0  0  0  0  0  0  0
    9.5596  -19.4022   22.9431 O   0  0  0  0  0  0  0  0  0  0  0  0
   12.9925  -16.3250   25.6736 O   0  0  0  0  0  0  0  0  0  0  0  0
    8.7468  -17.5274   21.9691 O   0  0  0  0  0  0  0  0  0  0  0  0
  2  3  2  0
  2  1  1  0
  4  5  1  0
  4  2  1  0
  5  7  1  0
  5  6  1  6
  7  8  2  0
 10  9  1  6
 10 12  1  0
 11 10  1  0
 12 14  1  0
 12 13  1  6
 13  7  1  0
 14 15  2  0
 16 14  1  0
 16 17  1  0
 17 21  1  0
 17 18  1  1
 19 20  2  0
 19 18  1  0
 21 24  2  0
 21 22  1  0
 23 19  1  0
M  END
$$$$
