NTD.pdb
     RDKit          3D

 24 23  0  0  1  0  0  0  0  0999 V2000
   12.6283  -19.4389   14.8825 N   0  0  0  0  0  0  0  0  0  0  0  0
   12.2539  -18.0916   14.8698 C   0  0  0  0  0  0  0  0  0  0  0  0
   11.9234  -17.5737   13.7511 O   0  0  0  0  0  0  0  0  0  0  0  0
   12.1962  -17.1755   16.0307 C   0  0  0  0  0  0  0  0  0  0  0  0
   12.6813  -17.7999   17.3062 C   0  0  2  0  0  0  0  0  0  0  0  0
   11.7571  -18.7615   17.8090 N   0  0  0  0  0  0  0  0  0  0  0  0
   12.9426  -16.7789   18.3645 C   0  0  0  0  0  0  0  0  0  0  0  0
   13.7779  -15.8614   18.2303 O   0  0  0  0  0  0  0  0  0  0  0  0
   10.2415  -14.7734   20.2913 C   0  0  0  0  0  0  0  0  0  0  0  0
   11.1301  -15.4902   21.2603 C   0  0  1  0  0  0  0  0  0  0  0  0
   10.4473  -16.6681   21.6416 O   0  0  0  0  0  0  0  0  0  0  0  0
   12.4760  -15.8659   20.6501 C   0  0  2  0  0  0  0  0  0  0  0  0
   12.2184  -16.8536   19.5698 N   0  0  0  0  0  0  0  0  0  0  0  0
   13.4452  -16.3928   21.5937 C   0  0  0  0  0  0  0  0  0  0  0  0
   13.5329  -17.6476   21.7434 O   0  0  0  0  0  0  0  0  0  0  0  0
   14.3343  -15.6271   22.3887 N   0  0  0  0  0  0  0  0  0  0  0  0
   15.2534  -16.2593   23.3272 C   0  0  1  0  0  0  0  0  0  0  0  0
   16.4709  -15.3672   23.5977 C   0  0  0  0  0  0  0  0  0  0  0  0
   17.1691  -15.1227   22.3219 C   0  0  0  0  0  0  0  0  0  0  0  0
   17.5019  -15.9850   21.5332 O   0  0  0  0  0  0  0  0  0  0  0  0
   14.5893  -16.4690   24.6120 C   0  0  0  0  0  0  0  0  0  0  0  0
   15.2767  -17.2064   25.5991 O   0  0  0  0  0  0  0  0  0  0  0  0
   17.4740  -13.7652   21.9835 O   0  0  0  0  0  0  0  0  0  0  0  0
   13.4550  -16.0502   24.9143 O   0  0  0  0  0  0  0  0  0  0  0  0
  2  3  2  0
  2  1  1  0
  4  5  1  0
  4  2  1  0
  5  7  1  0
  5  6  1  1
  7  8  2  0
 10  9  1  6
 10 12  1  0
 11 10  1  0
 12 14  1  0
 12 13  1  6
 13  7  1  0
 14 15  2  0
 16 14  1  0
 16 17  1  0
 17 21  1  0
 17 18  1  1
 19 20  2  0
 19 18  1  0
 21 24  2  0
 21 22  1  0
 23 19  1  0
M  END
$$$$
