NTD.pdb
     RDKit          3D

 24 23  0  0  1  0  0  0  0  0999 V2000
    8.1270  -13.2969   14.2792 N   0  0  0  0  0  0  0  0  0  0  0  0
    8.0368  -14.1421   15.3895 C   0  0  0  0  0  0  0  0  0  0  0  0
    7.6837  -15.3526   15.1922 O   0  0  0  0  0  0  0  0  0  0  0  0
    8.3092  -13.7865   16.8002 C   0  0  0  0  0  0  0  0  0  0  0  0
    8.8823  -14.9199   17.5996 C   0  0  2  0  0  0  0  0  0  0  0  0
    7.9959  -16.0353   17.6461 N   0  0  0  0  0  0  0  0  0  0  0  0
    9.2157  -14.5070   18.9956 C   0  0  0  0  0  0  0  0  0  0  0  0
   10.0683  -13.6348   19.2597 O   0  0  0  0  0  0  0  0  0  0  0  0
    6.6611  -13.8434   21.8441 C   0  0  0  0  0  0  0  0  0  0  0  0
    7.6750  -14.8398   22.3148 C   0  0  1  0  0  0  0  0  0  0  0  0
    7.0644  -16.1120   22.2263 O   0  0  0  0  0  0  0  0  0  0  0  0
    8.9407  -14.8307   21.4644 C   0  0  2  0  0  0  0  0  0  0  0  0
    8.5422  -15.1297   20.0642 N   0  0  0  0  0  0  0  0  0  0  0  0
    9.9733  -15.7525   21.9019 C   0  0  0  0  0  0  0  0  0  0  0  0
   10.1867  -16.7993   21.2213 O   0  0  0  0  0  0  0  0  0  0  0  0
   10.7964  -15.5986   23.0454 N   0  0  0  0  0  0  0  0  0  0  0  0
   11.8258  -16.5752   23.3796 C   0  0  1  0  0  0  0  0  0  0  0  0
   13.2246  -15.9502   23.3179 C   0  0  0  0  0  0  0  0  0  0  0  0
   14.2196  -16.9877   23.6476 C   0  0  0  0  0  0  0  0  0  0  0  0
   14.7850  -17.0960   24.7177 O   0  0  0  0  0  0  0  0  0  0  0  0
   11.6362  -17.0523   24.7480 C   0  0  0  0  0  0  0  0  0  0  0  0
   12.3955  -18.1632   25.1721 O   0  0  0  0  0  0  0  0  0  0  0  0
   14.5409  -17.9438   22.6314 O   0  0  0  0  0  0  0  0  0  0  0  0
   10.8517  -16.5590   25.5815 O   0  0  0  0  0  0  0  0  0  0  0  0
  2  3  2  0
  2  1  1  0
  4  5  1  0
  4  2  1  0
  5  7  1  0
  5  6  1  1
  7  8  2  0
 10  9  1  6
 10 12  1  0
 11 10  1  0
 12 14  1  0
 12 13  1  6
 13  7  1  0
 14 15  2  0
 16 14  1  0
 16 17  1  0
 17 21  1  0
 17 18  1  1
 19 20  2  0
 19 18  1  0
 21 24  2  0
 21 22  1  0
 23 19  1  0
M  END
$$$$
