NTD.pdb
     RDKit          3D

 24 23  0  0  1  0  0  0  0  0999 V2000
    7.1176  -15.3805   13.4749 N   0  0  0  0  0  0  0  0  0  0  0  0
    8.1070  -16.1466   14.0991 C   0  0  0  0  0  0  0  0  0  0  0  0
    8.1659  -17.3902   13.8185 O   0  0  0  0  0  0  0  0  0  0  0  0
    9.1168  -15.6708   15.0710 C   0  0  0  0  0  0  0  0  0  0  0  0
    9.0382  -16.3654   16.3989 C   0  0  2  0  0  0  0  0  0  0  0  0
    7.6970  -16.7104   16.7366 N   0  0  0  0  0  0  0  0  0  0  0  0
    9.6173  -15.5370   17.4984 C   0  0  0  0  0  0  0  0  0  0  0  0
   10.7323  -14.9828   17.4149 O   0  0  0  0  0  0  0  0  0  0  0  0
    7.4523  -13.0310   19.7038 C   0  0  0  0  0  0  0  0  0  0  0  0
    8.2639  -13.9547   20.5585 C   0  0  1  0  0  0  0  0  0  0  0  0
    7.3927  -14.9839   20.9837 O   0  0  0  0  0  0  0  0  0  0  0  0
    9.4362  -14.5704   19.8024 C   0  0  2  0  0  0  0  0  0  0  0  0
    8.8763  -15.3744   18.6848 N   0  0  0  0  0  0  0  0  0  0  0  0
   10.3224  -15.3848   20.6141 C   0  0  0  0  0  0  0  0  0  0  0  0
   10.2483  -16.6460   20.5229 O   0  0  0  0  0  0  0  0  0  0  0  0
   11.2950  -14.9022   21.5251 N   0  0  0  0  0  0  0  0  0  0  0  0
   12.1655  -15.8105   22.2616 C   0  0  1  0  0  0  0  0  0  0  0  0
   13.5163  -15.1549   22.5721 C   0  0  0  0  0  0  0  0  0  0  0  0
   14.3685  -16.1373   23.2676 C   0  0  0  0  0  0  0  0  0  0  0  0
   14.0797  -17.3029   23.4526 O   0  0  0  0  0  0  0  0  0  0  0  0
   11.5573  -16.1539   23.5454 C   0  0  0  0  0  0  0  0  0  0  0  0
   12.0878  -17.2513   24.2559 O   0  0  0  0  0  0  0  0  0  0  0  0
   15.6353  -15.6850   23.7583 O   0  0  0  0  0  0  0  0  0  0  0  0
   10.5987  -15.5562   24.0720 O   0  0  0  0  0  0  0  0  0  0  0  0
  2  3  2  0
  2  1  1  0
  4  5  1  0
  4  2  1  0
  5  7  1  0
  5  6  1  1
  7  8  2  0
 10  9  1  6
 10 12  1  0
 11 10  1  0
 12 14  1  0
 12 13  1  6
 13  7  1  0
 14 15  2  0
 16 14  1  0
 16 17  1  0
 17 21  1  0
 17 18  1  1
 19 20  2  0
 19 18  1  0
 21 24  2  0
 21 22  1  0
 23 19  1  0
M  END
$$$$
