NTD.pdb
     RDKit          3D

 24 23  0  0  1  0  0  0  0  0999 V2000
    7.3300  -16.8731   14.2902 N   0  0  0  0  0  0  0  0  0  0  0  0
    8.4990  -17.0637   15.0337 C   0  0  0  0  0  0  0  0  0  0  0  0
    9.2797  -18.0120   14.6872 O   0  0  0  0  0  0  0  0  0  0  0  0
    8.9453  -16.2749   16.2037 C   0  0  0  0  0  0  0  0  0  0  0  0
    8.7904  -17.0033   17.5066 C   0  0  2  0  0  0  0  0  0  0  0  0
    7.4409  -17.4034   17.7315 N   0  0  0  0  0  0  0  0  0  0  0  0
    9.2519  -16.1813   18.6650 C   0  0  0  0  0  0  0  0  0  0  0  0
   10.3487  -15.5861   18.6802 O   0  0  0  0  0  0  0  0  0  0  0  0
    7.0649  -13.6271   20.5275 C   0  0  0  0  0  0  0  0  0  0  0  0
    7.6718  -14.5532   21.5356 C   0  0  1  0  0  0  0  0  0  0  0  0
    6.6647  -15.4787   21.8938 O   0  0  0  0  0  0  0  0  0  0  0  0
    8.8748  -15.3099   20.9832 C   0  0  2  0  0  0  0  0  0  0  0  0
    8.4163  -16.0736   19.7934 N   0  0  0  0  0  0  0  0  0  0  0  0
    9.5228  -16.1971   21.9321 C   0  0  0  0  0  0  0  0  0  0  0  0
    9.3729  -17.4480   21.8002 O   0  0  0  0  0  0  0  0  0  0  0  0
   10.3338  -15.7989   23.0241 N   0  0  0  0  0  0  0  0  0  0  0  0
   10.9631  -16.7778   23.9020 C   0  0  1  0  0  0  0  0  0  0  0  0
   12.4912  -16.6585   23.8611 C   0  0  0  0  0  0  0  0  0  0  0  0
   13.0668  -17.6543   24.7842 C   0  0  0  0  0  0  0  0  0  0  0  0
   12.4447  -18.5513   25.3178 O   0  0  0  0  0  0  0  0  0  0  0  0
   10.5576  -16.5409   25.2860 C   0  0  0  0  0  0  0  0  0  0  0  0
   10.7263  -17.5907   26.2133 O   0  0  0  0  0  0  0  0  0  0  0  0
   14.4667  -17.5608   25.0702 O   0  0  0  0  0  0  0  0  0  0  0  0
   10.0684  -15.4810   25.7227 O   0  0  0  0  0  0  0  0  0  0  0  0
  2  3  2  0
  2  1  1  0
  4  5  1  0
  4  2  1  0
  5  7  1  0
  5  6  1  1
  7  8  2  0
 10  9  1  6
 10 12  1  0
 11 10  1  0
 12 14  1  0
 12 13  1  6
 13  7  1  0
 14 15  2  0
 16 14  1  0
 16 17  1  0
 17 21  1  0
 17 18  1  1
 19 20  2  0
 19 18  1  0
 21 24  2  0
 21 22  1  0
 23 19  1  0
M  END
$$$$
