NTD.pdb
     RDKit          3D

 24 23  0  0  1  0  0  0  0  0999 V2000
    9.8145  -17.8897   13.8720 N   0  0  0  0  0  0  0  0  0  0  0  0
    9.0919  -16.9400   14.6009 C   0  0  0  0  0  0  0  0  0  0  0  0
    7.9004  -16.6785   14.2256 O   0  0  0  0  0  0  0  0  0  0  0  0
    9.5605  -16.1848   15.7844 C   0  0  0  0  0  0  0  0  0  0  0  0
    9.0570  -16.7421   17.0836 C   0  0  2  0  0  0  0  0  0  0  0  0
    7.6332  -16.8022   17.1168 N   0  0  0  0  0  0  0  0  0  0  0  0
    9.5364  -15.9496   18.2552 C   0  0  0  0  0  0  0  0  0  0  0  0
   10.7095  -15.5372   18.3609 O   0  0  0  0  0  0  0  0  0  0  0  0
    7.4533  -13.0819   20.0220 C   0  0  0  0  0  0  0  0  0  0  0  0
    7.9215  -14.0990   21.0163 C   0  0  1  0  0  0  0  0  0  0  0  0
    6.8244  -14.9546   21.2682 O   0  0  0  0  0  0  0  0  0  0  0  0
    9.0935  -14.9254   20.4980 C   0  0  2  0  0  0  0  0  0  0  0  0
    8.6278  -15.6554   19.2900 N   0  0  0  0  0  0  0  0  0  0  0  0
    9.6557  -15.8539   21.4620 C   0  0  0  0  0  0  0  0  0  0  0  0
    9.2127  -17.0401   21.4984 O   0  0  0  0  0  0  0  0  0  0  0  0
   10.6828  -15.5649   22.3948 N   0  0  0  0  0  0  0  0  0  0  0  0
   11.1645  -16.5712   23.3331 C   0  0  1  0  0  0  0  0  0  0  0  0
   12.6109  -16.2883   23.7563 C   0  0  0  0  0  0  0  0  0  0  0  0
   13.4686  -16.3242   22.5571 C   0  0  0  0  0  0  0  0  0  0  0  0
   14.1478  -15.3990   22.1582 O   0  0  0  0  0  0  0  0  0  0  0  0
   10.3557  -16.5469   24.5502 C   0  0  0  0  0  0  0  0  0  0  0  0
    9.4499  -15.4788   24.7209 O   0  0  0  0  0  0  0  0  0  0  0  0
   13.5086  -17.5437   21.8078 O   0  0  0  0  0  0  0  0  0  0  0  0
   10.3986  -17.3960   25.4616 O   0  0  0  0  0  0  0  0  0  0  0  0
  2  3  2  0
  2  1  1  0
  4  5  1  0
  4  2  1  0
  5  7  1  0
  5  6  1  6
  7  8  2  0
 10  9  1  6
 10 12  1  0
 11 10  1  0
 12 14  1  0
 12 13  1  6
 13  7  1  0
 14 15  2  0
 16 14  1  0
 16 17  1  0
 17 21  1  0
 17 18  1  1
 19 20  2  0
 19 18  1  0
 21 24  2  0
 21 22  1  0
 23 19  1  0
M  END
$$$$
