NTD.pdb
     RDKit          3D

 24 23  0  0  1  0  0  0  0  0999 V2000
   15.5309  -14.5476   14.4247 N   0  0  0  0  0  0  0  0  0  0  0  0
   15.7220  -14.6397   15.8069 C   0  0  0  0  0  0  0  0  0  0  0  0
   16.8189  -15.1391   16.2267 O   0  0  0  0  0  0  0  0  0  0  0  0
   14.7765  -14.2158   16.8638 C   0  0  0  0  0  0  0  0  0  0  0  0
   13.9429  -15.3412   17.4027 C   0  0  2  0  0  0  0  0  0  0  0  0
   12.9598  -15.7681   16.4629 N   0  0  0  0  0  0  0  0  0  0  0  0
   13.2639  -14.9718   18.6807 C   0  0  0  0  0  0  0  0  0  0  0  0
   13.8739  -14.4962   19.6600 O   0  0  0  0  0  0  0  0  0  0  0  0
    9.6535  -13.3088   18.6113 C   0  0  0  0  0  0  0  0  0  0  0  0
    9.7262  -14.4057   19.6282 C   0  0  1  0  0  0  0  0  0  0  0  0
    9.1254  -15.5430   19.0411 O   0  0  0  0  0  0  0  0  0  0  0  0
   11.1603  -14.7428   20.0215 C   0  0  2  0  0  0  0  0  0  0  0  0
   11.8741  -15.1707   18.7901 N   0  0  0  0  0  0  0  0  0  0  0  0
   11.2852  -15.7557   21.0538 C   0  0  0  0  0  0  0  0  0  0  0  0
   11.6206  -16.9307   20.7200 O   0  0  0  0  0  0  0  0  0  0  0  0
   11.0671  -15.5621   22.4408 N   0  0  0  0  0  0  0  0  0  0  0  0
   11.1778  -16.6629   23.3900 C   0  0  1  0  0  0  0  0  0  0  0  0
   11.8936  -16.2205   24.6718 C   0  0  0  0  0  0  0  0  0  0  0  0
   12.0426  -17.3909   25.5567 C   0  0  0  0  0  0  0  0  0  0  0  0
   12.5553  -18.4452   25.2373 O   0  0  0  0  0  0  0  0  0  0  0  0
    9.8462  -17.1175   23.7851 C   0  0  0  0  0  0  0  0  0  0  0  0
    8.7365  -16.3483   23.3759 O   0  0  0  0  0  0  0  0  0  0  0  0
   11.5503  -17.2752   26.8962 O   0  0  0  0  0  0  0  0  0  0  0  0
    9.6030  -18.1358   24.4614 O   0  0  0  0  0  0  0  0  0  0  0  0
  2  3  2  0
  2  1  1  0
  4  5  1  0
  4  2  1  0
  5  7  1  0
  5  6  1  6
  7  8  2  0
 10  9  1  6
 10 12  1  0
 11 10  1  0
 12 14  1  0
 12 13  1  6
 13  7  1  0
 14 15  2  0
 16 14  1  0
 16 17  1  0
 17 21  1  0
 17 18  1  1
 19 20  2  0
 19 18  1  0
 21 24  2  0
 21 22  1  0
 23 19  1  0
M  END
$$$$
