NTD.pdb
     RDKit          3D

 24 23  0  0  1  0  0  0  0  0999 V2000
    7.7821  -19.3917   15.4352 N   0  0  0  0  0  0  0  0  0  0  0  0
    8.3164  -18.1269   15.1702 C   0  0  0  0  0  0  0  0  0  0  0  0
    8.4135  -17.7626   13.9509 O   0  0  0  0  0  0  0  0  0  0  0  0
    8.7943  -17.1393   16.1636 C   0  0  0  0  0  0  0  0  0  0  0  0
    8.6177  -17.5907   17.5839 C   0  0  2  0  0  0  0  0  0  0  0  0
    7.2525  -17.8699   17.8841 N   0  0  0  0  0  0  0  0  0  0  0  0
    9.1324  -16.5832   18.5589 C   0  0  0  0  0  0  0  0  0  0  0  0
   10.1801  -15.9316   18.3714 O   0  0  0  0  0  0  0  0  0  0  0  0
    6.8738  -14.0794   20.7205 C   0  0  0  0  0  0  0  0  0  0  0  0
    7.7939  -14.8898   21.5803 C   0  0  1  0  0  0  0  0  0  0  0  0
    7.0230  -15.9484   22.1134 O   0  0  0  0  0  0  0  0  0  0  0  0
    8.9666  -15.4687   20.7962 C   0  0  2  0  0  0  0  0  0  0  0  0
    8.4075  -16.3583   19.7450 N   0  0  0  0  0  0  0  0  0  0  0  0
    9.9389  -16.1874   21.5994 C   0  0  0  0  0  0  0  0  0  0  0  0
    9.9654  -17.4525   21.5403 O   0  0  0  0  0  0  0  0  0  0  0  0
   10.8945  -15.6043   22.4688 N   0  0  0  0  0  0  0  0  0  0  0  0
   11.8651  -16.4188   23.1896 C   0  0  1  0  0  0  0  0  0  0  0  0
   13.1600  -15.6395   23.4488 C   0  0  0  0  0  0  0  0  0  0  0  0
   14.1472  -16.5532   24.0536 C   0  0  0  0  0  0  0  0  0  0  0  0
   14.1549  -16.8985   25.2185 O   0  0  0  0  0  0  0  0  0  0  0  0
   11.3293  -16.7946   24.4964 C   0  0  0  0  0  0  0  0  0  0  0  0
   11.9347  -17.8742   25.1736 O   0  0  0  0  0  0  0  0  0  0  0  0
   15.1721  -17.0780   23.2026 O   0  0  0  0  0  0  0  0  0  0  0  0
   10.3721  -16.2396   25.0700 O   0  0  0  0  0  0  0  0  0  0  0  0
  2  3  2  0
  2  1  1  0
  4  5  1  0
  4  2  1  0
  5  7  1  0
  5  6  1  1
  7  8  2  0
 10  9  1  6
 10 12  1  0
 11 10  1  0
 12 14  1  0
 12 13  1  6
 13  7  1  0
 14 15  2  0
 16 14  1  0
 16 17  1  0
 17 21  1  0
 17 18  1  1
 19 20  2  0
 19 18  1  0
 21 24  2  0
 21 22  1  0
 23 19  1  0
M  END
$$$$
