KKT.pdb
     RDKit          3D

 26 25  0  0  1  0  0  0  0  0999 V2000
   28.0905  -30.4383  -16.7969 N   0  0  0  0  0  0  0  0  0  0  0  0
   28.1085  -29.1380  -17.4356 C   0  0  1  0  0  0  0  0  0  0  0  0
   28.4346  -29.3193  -18.8826 C   0  0  0  0  0  0  0  0  0  0  0  0
   29.8612  -29.8353  -19.0813 C   0  0  0  0  0  0  0  0  0  0  0  0
   30.8474  -28.7100  -19.0629 C   0  0  0  0  0  0  0  0  0  0  0  0
   32.2391  -29.1486  -19.4599 C   0  0  0  0  0  0  0  0  0  0  0  0
   33.0973  -27.9789  -19.4995 N   0  0  0  0  0  0  0  0  0  0  0  0
   26.8208  -28.4136  -17.2259 C   0  0  0  0  0  0  0  0  0  0  0  0
   25.7731  -29.0831  -17.3693 O   0  0  0  0  0  0  0  0  0  0  0  0
   26.7706  -27.0421  -16.8825 N   0  0  0  0  0  0  0  0  0  0  0  0
   25.5955  -26.2306  -16.7367 C   0  0  1  0  0  0  0  0  0  0  0  0
   25.7347  -25.1222  -15.7563 C   0  0  0  0  0  0  0  0  0  0  0  0
   24.4127  -24.3776  -15.6288 C   0  0  0  0  0  0  0  0  0  0  0  0
   24.5634  -23.1906  -14.6827 C   0  0  0  0  0  0  0  0  0  0  0  0
   23.2273  -22.5627  -14.3893 C   0  0  0  0  0  0  0  0  0  0  0  0
   23.3537  -21.3803  -13.5638 N   0  0  0  0  0  0  0  0  0  0  0  0
   24.9582  -25.8330  -18.0269 C   0  0  0  0  0  0  0  0  0  0  0  0
   25.5411  -25.1265  -18.8775 O   0  0  0  0  0  0  0  0  0  0  0  0
   23.6099  -28.0729  -20.8467 C   0  0  0  0  0  0  0  0  0  0  0  0
   22.5334  -27.1527  -20.3737 C   0  0  1  0  0  0  0  0  0  0  0  0
   21.6578  -27.8063  -19.4900 O   0  0  0  0  0  0  0  0  0  0  0  0
   23.0395  -25.9319  -19.6499 C   0  0  2  0  0  0  0  0  0  0  0  0
   23.6358  -26.2398  -18.3676 N   0  0  0  0  0  0  0  0  0  0  0  0
   22.0037  -24.8789  -19.5378 C   0  0  0  0  0  0  0  0  0  0  0  0
   21.4262  -24.2814  -20.6280 O   0  0  0  0  0  0  0  0  0  0  0  0
   21.6477  -24.5270  -18.3880 O   0  0  0  0  0  0  0  0  0  0  0  0
  2  1  1  6
  3  4  1  0
  3  2  1  0
  5  4  1  0
  5  6  1  0
  7  6  1  0
  8  2  1  0
  8  9  2  0
 10  8  1  0
 11 10  1  0
 11 12  1  6
 13 12  1  0
 13 14  1  0
 15 14  1  0
 16 15  1  0
 17 11  1  0
 18 17  2  0
 20 19  1  1
 20 22  1  0
 21 20  1  0
 22 24  1  0
 22 23  1  1
 23 17  1  0
 24 25  1  0
 26 24  2  0
M  END
$$$$
