KKT.pdb
     RDKit          3D

 26 25  0  0  1  0  0  0  0  0999 V2000
   28.3580  -21.7709  -14.5296 N   0  0  0  0  0  0  0  0  0  0  0  0
   27.2537  -22.0980  -15.4085 C   0  0  1  0  0  0  0  0  0  0  0  0
   27.5124  -23.4337  -16.0266 C   0  0  0  0  0  0  0  0  0  0  0  0
   28.8148  -23.4434  -16.8296 C   0  0  0  0  0  0  0  0  0  0  0  0
   28.7616  -22.4558  -17.9525 C   0  0  0  0  0  0  0  0  0  0  0  0
   30.0311  -22.4388  -18.7740 C   0  0  0  0  0  0  0  0  0  0  0  0
   29.9144  -21.4004  -19.7812 N   0  0  0  0  0  0  0  0  0  0  0  0
   25.9504  -22.0460  -14.6835 C   0  0  0  0  0  0  0  0  0  0  0  0
   25.0503  -22.8115  -15.0963 O   0  0  0  0  0  0  0  0  0  0  0  0
   25.7286  -21.1821  -13.5853 N   0  0  0  0  0  0  0  0  0  0  0  0
   24.5104  -21.0248  -12.8425 C   0  0  1  0  0  0  0  0  0  0  0  0
   24.6758  -20.3420  -11.5327 C   0  0  0  0  0  0  0  0  0  0  0  0
   25.6730  -21.1081  -10.6742 C   0  0  0  0  0  0  0  0  0  0  0  0
   25.9147  -20.3722   -9.3602 C   0  0  0  0  0  0  0  0  0  0  0  0
   26.9885  -21.0504   -8.5525 C   0  0  0  0  0  0  0  0  0  0  0  0
   27.2789  -20.3353   -7.3279 N   0  0  0  0  0  0  0  0  0  0  0  0
   23.3561  -20.5315  -13.6509 C   0  0  0  0  0  0  0  0  0  0  0  0
   23.3316  -19.3933  -14.1669 O   0  0  0  0  0  0  0  0  0  0  0  0
   21.9263  -22.1744  -16.7698 C   0  0  0  0  0  0  0  0  0  0  0  0
   20.7998  -21.9071  -15.8270 C   0  0  1  0  0  0  0  0  0  0  0  0
   20.3927  -23.0833  -15.1747 O   0  0  0  0  0  0  0  0  0  0  0  0
   21.1238  -20.9084  -14.7463 C   0  0  2  0  0  0  0  0  0  0  0  0
   22.2042  -21.3371  -13.8839 N   0  0  0  0  0  0  0  0  0  0  0  0
   19.9242  -20.5132  -13.9724 C   0  0  0  0  0  0  0  0  0  0  0  0
   18.8370  -19.9023  -14.5417 O   0  0  0  0  0  0  0  0  0  0  0  0
   19.9151  -20.7537  -12.7417 O   0  0  0  0  0  0  0  0  0  0  0  0
  2  1  1  1
  3  4  1  0
  3  2  1  0
  5  4  1  0
  5  6  1  0
  7  6  1  0
  8  2  1  0
  8  9  2  0
 10  8  1  0
 11 10  1  0
 11 12  1  1
 13 12  1  0
 13 14  1  0
 15 14  1  0
 16 15  1  0
 17 11  1  0
 18 17  2  0
 20 19  1  1
 20 22  1  0
 21 20  1  0
 22 24  1  0
 22 23  1  1
 23 17  1  0
 24 25  1  0
 26 24  2  0
M  END
$$$$
