KKT.pdb
     RDKit          3D

 26 25  0  0  1  0  0  0  0  0999 V2000
   24.1469  -14.5480  -18.2138 N   0  0  0  0  0  0  0  0  0  0  0  0
   22.9162  -15.2810  -18.4304 C   0  0  1  0  0  0  0  0  0  0  0  0
   22.6654  -15.3730  -19.9007 C   0  0  0  0  0  0  0  0  0  0  0  0
   21.4918  -14.4907  -20.3312 C   0  0  0  0  0  0  0  0  0  0  0  0
   20.3058  -14.7029  -19.4437 C   0  0  0  0  0  0  0  0  0  0  0  0
   19.0990  -13.9049  -19.8837 C   0  0  0  0  0  0  0  0  0  0  0  0
   17.9861  -14.2343  -19.0122 N   0  0  0  0  0  0  0  0  0  0  0  0
   22.9602  -16.6199  -17.7729 C   0  0  0  0  0  0  0  0  0  0  0  0
   22.0103  -17.3961  -18.0212 O   0  0  0  0  0  0  0  0  0  0  0  0
   24.0138  -17.0064  -16.9114 N   0  0  0  0  0  0  0  0  0  0  0  0
   24.1802  -18.2782  -16.2670 C   0  0  1  0  0  0  0  0  0  0  0  0
   25.5878  -18.6126  -15.9265 C   0  0  0  0  0  0  0  0  0  0  0  0
   25.8853  -20.0530  -16.3203 C   0  0  0  0  0  0  0  0  0  0  0  0
   27.3425  -20.3922  -16.0234 C   0  0  0  0  0  0  0  0  0  0  0  0
   27.6259  -21.8434  -16.3049 C   0  0  0  0  0  0  0  0  0  0  0  0
   27.0947  -22.7094  -15.2737 N   0  0  0  0  0  0  0  0  0  0  0  0
   23.2030  -18.5448  -15.1701 C   0  0  0  0  0  0  0  0  0  0  0  0
   23.1013  -17.8099  -14.1641 O   0  0  0  0  0  0  0  0  0  0  0  0
   20.2359  -21.8874  -15.2610 C   0  0  0  0  0  0  0  0  0  0  0  0
   20.0740  -20.5243  -14.6732 C   0  0  1  0  0  0  0  0  0  0  0  0
   19.1777  -20.5404  -13.5911 O   0  0  0  0  0  0  0  0  0  0  0  0
   21.3543  -19.9182  -14.1595 C   0  0  2  0  0  0  0  0  0  0  0  0
   22.3205  -19.6629  -15.2064 N   0  0  0  0  0  0  0  0  0  0  0  0
   21.9392  -20.7050  -13.0492 C   0  0  0  0  0  0  0  0  0  0  0  0
   21.3248  -20.8490  -11.8323 O   0  0  0  0  0  0  0  0  0  0  0  0
   23.0471  -21.2595  -13.2437 O   0  0  0  0  0  0  0  0  0  0  0  0
  2  1  1  6
  3  4  1  0
  3  2  1  0
  5  4  1  0
  5  6  1  0
  7  6  1  0
  8  2  1  0
  8  9  2  0
 10  8  1  0
 11 10  1  0
 11 12  1  1
 13 12  1  0
 13 14  1  0
 15 14  1  0
 16 15  1  0
 17 11  1  0
 18 17  2  0
 20 19  1  1
 20 22  1  0
 21 20  1  0
 22 24  1  0
 22 23  1  6
 23 17  1  0
 24 25  1  0
 26 24  2  0
M  END
$$$$
