KKT.pdb
     RDKit          3D

 26 25  0  0  1  0  0  0  0  0999 V2000
   25.1043  -21.8997  -14.8889 N   0  0  0  0  0  0  0  0  0  0  0  0
   24.7998  -21.0513  -16.0232 C   0  0  1  0  0  0  0  0  0  0  0  0
   25.0037  -21.8371  -17.2778 C   0  0  0  0  0  0  0  0  0  0  0  0
   26.4815  -21.9068  -17.6684 C   0  0  0  0  0  0  0  0  0  0  0  0
   27.2900  -22.5692  -16.5975 C   0  0  0  0  0  0  0  0  0  0  0  0
   28.7675  -22.2688  -16.7132 C   0  0  0  0  0  0  0  0  0  0  0  0
   29.0906  -22.0780  -18.1153 N   0  0  0  0  0  0  0  0  0  0  0  0
   23.4234  -20.4838  -15.9212 C   0  0  0  0  0  0  0  0  0  0  0  0
   22.9092  -20.0700  -16.9846 O   0  0  0  0  0  0  0  0  0  0  0  0
   22.7234  -20.4105  -14.6940 N   0  0  0  0  0  0  0  0  0  0  0  0
   21.3639  -19.9930  -14.4986 C   0  0  1  0  0  0  0  0  0  0  0  0
   20.6441  -20.7325  -13.4290 C   0  0  0  0  0  0  0  0  0  0  0  0
   19.8123  -21.8494  -14.0446 C   0  0  0  0  0  0  0  0  0  0  0  0
   19.2391  -22.7459  -12.9517 C   0  0  0  0  0  0  0  0  0  0  0  0
   18.3189  -23.7846  -13.5344 C   0  0  0  0  0  0  0  0  0  0  0  0
   17.7280  -24.6208  -12.5111 N   0  0  0  0  0  0  0  0  0  0  0  0
   21.1749  -18.5127  -14.4558 C   0  0  0  0  0  0  0  0  0  0  0  0
   21.5005  -17.8195  -13.4679 O   0  0  0  0  0  0  0  0  0  0  0  0
   22.7192  -15.7709  -16.4694 C   0  0  0  0  0  0  0  0  0  0  0  0
   21.2375  -15.6702  -16.6237 C   0  0  1  0  0  0  0  0  0  0  0  0
   20.8130  -16.2369  -17.8375 O   0  0  0  0  0  0  0  0  0  0  0  0
   20.4559  -16.3573  -15.5341 C   0  0  2  0  0  0  0  0  0  0  0  0
   20.6074  -17.7965  -15.5492 N   0  0  0  0  0  0  0  0  0  0  0  0
   19.0309  -15.9529  -15.5282 C   0  0  0  0  0  0  0  0  0  0  0  0
   18.6249  -14.6529  -15.3720 O   0  0  0  0  0  0  0  0  0  0  0  0
   18.1664  -16.8497  -15.6735 O   0  0  0  0  0  0  0  0  0  0  0  0
  2  1  1  1
  3  4  1  0
  3  2  1  0
  5  4  1  0
  5  6  1  0
  7  6  1  0
  8  2  1  0
  8  9  2  0
 10  8  1  0
 11 10  1  0
 11 12  1  1
 13 12  1  0
 13 14  1  0
 15 14  1  0
 16 15  1  0
 17 11  1  0
 18 17  2  0
 20 19  1  1
 20 22  1  0
 21 20  1  0
 22 24  1  0
 22 23  1  6
 23 17  1  0
 24 25  1  0
 26 24  2  0
M  END
$$$$
