KKT.pdb
     RDKit          3D

 26 25  0  0  1  0  0  0  0  0999 V2000
   28.5817  -24.7148  -16.6243 N   0  0  0  0  0  0  0  0  0  0  0  0
   28.6877  -23.2980  -16.3407 C   0  0  1  0  0  0  0  0  0  0  0  0
   28.9321  -22.5696  -17.6224 C   0  0  0  0  0  0  0  0  0  0  0  0
   30.3484  -22.8101  -18.1492 C   0  0  0  0  0  0  0  0  0  0  0  0
   30.5750  -22.0794  -19.4352 C   0  0  0  0  0  0  0  0  0  0  0  0
   31.9409  -22.3490  -20.0255 C   0  0  0  0  0  0  0  0  0  0  0  0
   32.0472  -21.6367  -21.2856 N   0  0  0  0  0  0  0  0  0  0  0  0
   27.4804  -22.7979  -15.6199 C   0  0  0  0  0  0  0  0  0  0  0  0
   26.3701  -23.1453  -16.0815 O   0  0  0  0  0  0  0  0  0  0  0  0
   27.5700  -21.9737  -14.4737 N   0  0  0  0  0  0  0  0  0  0  0  0
   26.4804  -21.4245  -13.7175 C   0  0  1  0  0  0  0  0  0  0  0  0
   26.8612  -20.9221  -12.3715 C   0  0  0  0  0  0  0  0  0  0  0  0
   25.6311  -20.3799  -11.6565 C   0  0  0  0  0  0  0  0  0  0  0  0
   25.4336  -21.0980  -10.3254 C   0  0  0  0  0  0  0  0  0  0  0  0
   24.2717  -20.5157   -9.5662 C   0  0  0  0  0  0  0  0  0  0  0  0
   24.1284  -21.1107   -8.2544 N   0  0  0  0  0  0  0  0  0  0  0  0
   25.5985  -20.5009  -14.4909 C   0  0  0  0  0  0  0  0  0  0  0  0
   25.9663  -19.3623  -14.8527 O   0  0  0  0  0  0  0  0  0  0  0  0
   24.0434  -20.7490  -17.9206 C   0  0  0  0  0  0  0  0  0  0  0  0
   22.9499  -20.5589  -16.9217 C   0  0  1  0  0  0  0  0  0  0  0  0
   22.3198  -21.7780  -16.6194 O   0  0  0  0  0  0  0  0  0  0  0  0
   23.4077  -19.9768  -15.6095 C   0  0  2  0  0  0  0  0  0  0  0  0
   24.2734  -20.8668  -14.8658 N   0  0  0  0  0  0  0  0  0  0  0  0
   22.2747  -19.4943  -14.7863 C   0  0  0  0  0  0  0  0  0  0  0  0
   21.3879  -18.5439  -15.2214 O   0  0  0  0  0  0  0  0  0  0  0  0
   22.1311  -19.9853  -13.6413 O   0  0  0  0  0  0  0  0  0  0  0  0
  2  1  1  6
  3  4  1  0
  3  2  1  0
  5  4  1  0
  5  6  1  0
  7  6  1  0
  8  2  1  0
  8  9  2  0
 10  8  1  0
 11 10  1  0
 11 12  1  1
 13 12  1  0
 13 14  1  0
 15 14  1  0
 16 15  1  0
 17 11  1  0
 18 17  2  0
 20 19  1  6
 20 22  1  0
 21 20  1  0
 22 24  1  0
 22 23  1  1
 23 17  1  0
 24 25  1  0
 26 24  2  0
M  END
$$$$
