KKT.pdb
     RDKit          3D

 26 25  0  0  1  0  0  0  0  0999 V2000
   21.9110  -20.2893  -13.1325 N   0  0  0  0  0  0  0  0  0  0  0  0
   21.4153  -21.1911  -14.1523 C   0  0  1  0  0  0  0  0  0  0  0  0
   22.5802  -21.7673  -14.8900 C   0  0  0  0  0  0  0  0  0  0  0  0
   23.6602  -22.2769  -13.9334 C   0  0  0  0  0  0  0  0  0  0  0  0
   24.7983  -22.8917  -14.6859 C   0  0  0  0  0  0  0  0  0  0  0  0
   24.7212  -24.4014  -14.7272 C   0  0  0  0  0  0  0  0  0  0  0  0
   25.8653  -24.9011  -15.4674 N   0  0  0  0  0  0  0  0  0  0  0  0
   20.5341  -22.2422  -13.5643 C   0  0  0  0  0  0  0  0  0  0  0  0
   20.3513  -23.2693  -14.2557 O   0  0  0  0  0  0  0  0  0  0  0  0
   19.9298  -22.0996  -12.2931 N   0  0  0  0  0  0  0  0  0  0  0  0
   19.0369  -23.0234  -11.6528 C   0  0  1  0  0  0  0  0  0  0  0  0
   19.2700  -23.1889  -10.1942 C   0  0  0  0  0  0  0  0  0  0  0  0
   18.3163  -24.2360   -9.6352 C   0  0  0  0  0  0  0  0  0  0  0  0
   18.4376  -24.3047   -8.1163 C   0  0  0  0  0  0  0  0  0  0  0  0
   17.4787  -25.3141   -7.5444 C   0  0  0  0  0  0  0  0  0  0  0  0
   17.3976  -25.2280   -6.1017 N   0  0  0  0  0  0  0  0  0  0  0  0
   17.6023  -22.8547  -12.0302 C   0  0  0  0  0  0  0  0  0  0  0  0
   16.9371  -21.8436  -11.7177 O   0  0  0  0  0  0  0  0  0  0  0  0
   15.9058  -23.1353  -15.6403 C   0  0  0  0  0  0  0  0  0  0  0  0
   15.3042  -24.0666  -14.6402 C   0  0  1  0  0  0  0  0  0  0  0  0
   15.8250  -25.3646  -14.7764 O   0  0  0  0  0  0  0  0  0  0  0  0
   15.5313  -23.6625  -13.2065 C   0  0  2  0  0  0  0  0  0  0  0  0
   16.9009  -23.8456  -12.7762 N   0  0  0  0  0  0  0  0  0  0  0  0
   14.5718  -24.3123  -12.2838 C   0  0  0  0  0  0  0  0  0  0  0  0
   14.9580  -25.1820  -11.2970 O   0  0  0  0  0  0  0  0  0  0  0  0
   13.3540  -24.0466  -12.4219 O   0  0  0  0  0  0  0  0  0  0  0  0
  2  1  1  1
  3  4  1  0
  3  2  1  0
  5  4  1  0
  5  6  1  0
  7  6  1  0
  8  2  1  0
  8  9  2  0
 10  8  1  0
 11 10  1  0
 11 12  1  1
 13 12  1  0
 13 14  1  0
 15 14  1  0
 16 15  1  0
 17 11  1  0
 18 17  2  0
 20 19  1  6
 20 22  1  0
 21 20  1  0
 22 24  1  0
 22 23  1  1
 23 17  1  0
 24 25  1  0
 26 24  2  0
M  END
$$$$
