KKT.pdb
     RDKit          3D

 26 25  0  0  1  0  0  0  0  0999 V2000
   16.1178  -12.4897  -17.5389 N   0  0  0  0  0  0  0  0  0  0  0  0
   16.5366  -12.0844  -16.2125 C   0  0  1  0  0  0  0  0  0  0  0  0
   17.3178  -13.1987  -15.5951 C   0  0  0  0  0  0  0  0  0  0  0  0
   17.6018  -14.3162  -16.6008 C   0  0  0  0  0  0  0  0  0  0  0  0
   18.3096  -15.4611  -15.9468 C   0  0  0  0  0  0  0  0  0  0  0  0
   18.5908  -16.5962  -16.9056 C   0  0  0  0  0  0  0  0  0  0  0  0
   19.3443  -17.6178  -16.2019 N   0  0  0  0  0  0  0  0  0  0  0  0
   17.3016  -10.8038  -16.2536 C   0  0  0  0  0  0  0  0  0  0  0  0
   18.4533  -10.8561  -16.7406 O   0  0  0  0  0  0  0  0  0  0  0  0
   16.7666   -9.5862  -15.7711 N   0  0  0  0  0  0  0  0  0  0  0  0
   17.3908   -8.2940  -15.8074 C   0  0  1  0  0  0  0  0  0  0  0  0
   16.4420   -7.1532  -15.7205 C   0  0  0  0  0  0  0  0  0  0  0  0
   15.5291   -7.1479  -16.9390 C   0  0  0  0  0  0  0  0  0  0  0  0
   14.1857   -6.5149  -16.5906 C   0  0  0  0  0  0  0  0  0  0  0  0
   13.3105   -6.4031  -17.8100 C   0  0  0  0  0  0  0  0  0  0  0  0
   11.9622   -5.9970  -17.4742 N   0  0  0  0  0  0  0  0  0  0  0  0
   18.5893   -8.1646  -14.9267 C   0  0  0  0  0  0  0  0  0  0  0  0
   18.5695   -8.4622  -13.7128 O   0  0  0  0  0  0  0  0  0  0  0  0
   21.8752   -9.9453  -15.0901 C   0  0  0  0  0  0  0  0  0  0  0  0
   22.1526   -8.4784  -15.1178 C   0  0  1  0  0  0  0  0  0  0  0  0
   22.4155   -8.0352  -16.4251 O   0  0  0  0  0  0  0  0  0  0  0  0
   21.0240   -7.6274  -14.5962 C   0  0  2  0  0  0  0  0  0  0  0  0
   19.8378   -7.6901  -15.4231 N   0  0  0  0  0  0  0  0  0  0  0  0
   21.4474   -6.2304  -14.3444 C   0  0  0  0  0  0  0  0  0  0  0  0
   22.4227   -5.8979  -13.4403 O   0  0  0  0  0  0  0  0  0  0  0  0
   20.8802   -5.3199  -14.9939 O   0  0  0  0  0  0  0  0  0  0  0  0
  2  1  1  6
  3  4  1  0
  3  2  1  0
  5  4  1  0
  5  6  1  0
  7  6  1  0
  8  2  1  0
  8  9  2  0
 10  8  1  0
 11 10  1  0
 11 12  1  1
 13 12  1  0
 13 14  1  0
 15 14  1  0
 16 15  1  0
 17 11  1  0
 18 17  2  0
 20 19  1  6
 20 22  1  0
 21 20  1  0
 22 24  1  0
 22 23  1  6
 23 17  1  0
 24 25  1  0
 26 24  2  0
M  END
$$$$
