KKT.pdb
     RDKit          3D

 26 25  0  0  1  0  0  0  0  0999 V2000
   26.4454  -21.8950  -11.6655 N   0  0  0  0  0  0  0  0  0  0  0  0
   25.6146  -21.1335  -12.5759 C   0  0  1  0  0  0  0  0  0  0  0  0
   25.9641  -21.5162  -13.9776 C   0  0  0  0  0  0  0  0  0  0  0  0
   27.4039  -21.1340  -14.3267 C   0  0  0  0  0  0  0  0  0  0  0  0
   27.4469  -19.8607  -15.1116 C   0  0  0  0  0  0  0  0  0  0  0  0
   27.5002  -20.0979  -16.6041 C   0  0  0  0  0  0  0  0  0  0  0  0
   27.6020  -18.8132  -17.2717 N   0  0  0  0  0  0  0  0  0  0  0  0
   24.1654  -21.3245  -12.2754 C   0  0  0  0  0  0  0  0  0  0  0  0
   23.5467  -22.1364  -12.9995 O   0  0  0  0  0  0  0  0  0  0  0  0
   23.5110  -20.6313  -11.2300 N   0  0  0  0  0  0  0  0  0  0  0  0
   22.1500  -20.7956  -10.8042 C   0  0  1  0  0  0  0  0  0  0  0  0
   21.8759  -20.3064   -9.4277 C   0  0  0  0  0  0  0  0  0  0  0  0
   20.4709  -20.7143   -9.0058 C   0  0  0  0  0  0  0  0  0  0  0  0
   20.5176  -21.9970   -8.1817 C   0  0  0  0  0  0  0  0  0  0  0  0
   19.1295  -22.4950   -7.8810 C   0  0  0  0  0  0  0  0  0  0  0  0
   19.1482  -23.7460   -7.1530 N   0  0  0  0  0  0  0  0  0  0  0  0
   21.1342  -20.3814  -11.8169 C   0  0  0  0  0  0  0  0  0  0  0  0
   21.0006  -19.1967  -12.1925 O   0  0  0  0  0  0  0  0  0  0  0  0
   20.7159  -21.6225  -15.4313 C   0  0  0  0  0  0  0  0  0  0  0  0
   19.4274  -21.7905  -14.6957 C   0  0  1  0  0  0  0  0  0  0  0  0
   19.2446  -23.1229  -14.2881 O   0  0  0  0  0  0  0  0  0  0  0  0
   19.3106  -20.9436  -13.4550 C   0  0  2  0  0  0  0  0  0  0  0  0
   20.2495  -21.3212  -12.4205 N   0  0  0  0  0  0  0  0  0  0  0  0
   17.9210  -20.8878  -12.9450 C   0  0  0  0  0  0  0  0  0  0  0  0
   16.8784  -20.3777  -13.6743 O   0  0  0  0  0  0  0  0  0  0  0  0
   17.7015  -21.3305  -11.7923 O   0  0  0  0  0  0  0  0  0  0  0  0
  2  1  1  1
  3  4  1  0
  3  2  1  0
  5  4  1  0
  5  6  1  0
  7  6  1  0
  8  2  1  0
  8  9  2  0
 10  8  1  0
 11 10  1  0
 11 12  1  1
 13 12  1  0
 13 14  1  0
 15 14  1  0
 16 15  1  0
 17 11  1  0
 18 17  2  0
 20 19  1  1
 20 22  1  0
 21 20  1  0
 22 24  1  0
 22 23  1  1
 23 17  1  0
 24 25  1  0
 26 24  2  0
M  END
$$$$
