KKT.pdb
     RDKit          3D

 26 25  0  0  1  0  0  0  0  0999 V2000
   22.1740  -21.6153  -14.1682 N   0  0  0  0  0  0  0  0  0  0  0  0
   21.3532  -20.4221  -14.2073 C   0  0  1  0  0  0  0  0  0  0  0  0
   21.0556  -19.9988  -12.8054 C   0  0  0  0  0  0  0  0  0  0  0  0
   20.3911  -21.1203  -12.0043 C   0  0  0  0  0  0  0  0  0  0  0  0
   19.1227  -21.5698  -12.6588 C   0  0  0  0  0  0  0  0  0  0  0  0
   18.3514  -22.5601  -11.8155 C   0  0  0  0  0  0  0  0  0  0  0  0
   17.1713  -22.9726  -12.5529 N   0  0  0  0  0  0  0  0  0  0  0  0
   22.0050  -19.3421  -15.0047 C   0  0  0  0  0  0  0  0  0  0  0  0
   21.5314  -18.1905  -14.8780 O   0  0  0  0  0  0  0  0  0  0  0  0
   23.1016  -19.5912  -15.8631 N   0  0  0  0  0  0  0  0  0  0  0  0
   23.7369  -18.6550  -16.7466 C   0  0  1  0  0  0  0  0  0  0  0  0
   24.9959  -19.1510  -17.3615 C   0  0  0  0  0  0  0  0  0  0  0  0
   25.6107  -18.0607  -18.2285 C   0  0  0  0  0  0  0  0  0  0  0  0
   26.8575  -18.5854  -18.9331 C   0  0  0  0  0  0  0  0  0  0  0  0
   27.4784  -17.5189  -19.7948 C   0  0  0  0  0  0  0  0  0  0  0  0
   28.5270  -18.0480  -20.6409 N   0  0  0  0  0  0  0  0  0  0  0  0
   22.8081  -17.9849  -17.7043 C   0  0  0  0  0  0  0  0  0  0  0  0
   22.2438  -18.5969  -18.6367 O   0  0  0  0  0  0  0  0  0  0  0  0
   20.3135  -14.7487  -16.7030 C   0  0  0  0  0  0  0  0  0  0  0  0
   20.2496  -15.6489  -17.8926 C   0  0  1  0  0  0  0  0  0  0  0  0
   19.4481  -15.0963  -18.9060 O   0  0  0  0  0  0  0  0  0  0  0  0
   21.5891  -15.9409  -18.5176 C   0  0  2  0  0  0  0  0  0  0  0  0
   22.5074  -16.5952  -17.6103 N   0  0  0  0  0  0  0  0  0  0  0  0
   22.1905  -14.7379  -19.1384 C   0  0  0  0  0  0  0  0  0  0  0  0
   21.5707  -14.0201  -20.1282 O   0  0  0  0  0  0  0  0  0  0  0  0
   23.3180  -14.3697  -18.7312 O   0  0  0  0  0  0  0  0  0  0  0  0
  2  1  1  1
  3  4  1  0
  3  2  1  0
  5  4  1  0
  5  6  1  0
  7  6  1  0
  8  2  1  0
  8  9  2  0
 10  8  1  0
 11 10  1  0
 11 12  1  6
 13 12  1  0
 13 14  1  0
 15 14  1  0
 16 15  1  0
 17 11  1  0
 18 17  2  0
 20 19  1  1
 20 22  1  0
 21 20  1  0
 22 24  1  0
 22 23  1  1
 23 17  1  0
 24 25  1  0
 26 24  2  0
M  END
$$$$
