VLN.pdb
     RDKit          3D

 24 23  0  0  1  0  0  0  0  0999 V2000
    9.2868  -18.2733   21.7313 C   0  0  0  0  0  0  0  0  0  0  0  0
    8.2062  -17.4146   21.1572 C   0  0  2  0  0  0  0  0  0  0  0  0
    7.7605  -17.9299   19.8049 C   0  0  0  0  0  0  0  0  0  0  0  0
    8.6387  -15.9764   20.9879 C   0  0  2  0  0  0  0  0  0  0  0  0
    9.7530  -15.8689   20.0852 N   0  0  0  0  0  0  0  0  0  0  0  0
    8.9160  -15.3181   22.2864 C   0  0  0  0  0  0  0  0  0  0  0  0
   10.0947  -15.1875   22.6472 O   0  0  0  0  0  0  0  0  0  0  0  0
    7.8938  -11.7990   26.3624 C   0  0  0  0  0  0  0  0  0  0  0  0
    6.9120  -12.9550   26.2526 C   0  0  1  0  0  0  0  0  0  0  0  0
    5.6335  -12.5436   26.9084 C   0  0  0  0  0  0  0  0  0  0  0  0
    6.7910  -13.4583   24.8492 C   0  0  0  0  0  0  0  0  0  0  0  0
    7.9694  -14.2484   24.3500 C   0  0  2  0  0  0  0  0  0  0  0  0
    7.8322  -14.8586   23.0751 N   0  0  0  0  0  0  0  0  0  0  0  0
    8.5037  -15.1863   25.3420 C   0  0  0  0  0  0  0  0  0  0  0  0
    7.8288  -16.2075   25.6537 O   0  0  0  0  0  0  0  0  0  0  0  0
   13.3115  -18.0751   25.5314 N   0  0  0  0  0  0  0  0  0  0  0  0
   12.0081  -17.5192   25.5430 C   0  0  0  0  0  0  0  0  0  0  0  0
   11.1294  -18.1092   24.8677 O   0  0  0  0  0  0  0  0  0  0  0  0
   11.7830  -16.3030   26.3384 C   0  0  0  0  0  0  0  0  0  0  0  0
   10.3613  -16.1099   26.7658 C   0  0  2  0  0  0  0  0  0  0  0  0
    9.7552  -15.0268   25.9942 N   0  0  0  0  0  0  0  0  0  0  0  0
   10.2289  -15.8600   28.2223 C   0  0  0  0  0  0  0  0  0  0  0  0
   10.2956  -16.9100   29.1243 O   0  0  0  0  0  0  0  0  0  0  0  0
   10.0542  -14.7083   28.6865 O   0  0  0  0  0  0  0  0  0  0  0  0
  2  1  1  6
  2  3  1  0
  4  2  1  0
  4  5  1  6
  6  4  1  0
  6  7  2  0
  9 10  1  6
  9  8  1  0
 11  9  1  0
 12 11  1  1
 12 13  1  0
 13  6  1  0
 14 12  1  0
 15 14  2  0
 17 18  2  0
 17 16  1  0
 19 17  1  0
 20 19  1  6
 20 21  1  0
 20 22  1  0
 21 14  1  0
 22 23  1  0
 24 22  2  0
M  END
$$$$
