VLN.pdb
     RDKit          3D

 24 23  0  0  1  0  0  0  0  0999 V2000
    9.0173  -18.0777   21.4382 C   0  0  0  0  0  0  0  0  0  0  0  0
    7.7186  -17.3951   21.1514 C   0  0  2  0  0  0  0  0  0  0  0  0
    7.0166  -18.0322   19.9706 C   0  0  0  0  0  0  0  0  0  0  0  0
    7.8922  -15.9240   20.8514 C   0  0  2  0  0  0  0  0  0  0  0  0
    8.7154  -15.7215   19.6898 N   0  0  0  0  0  0  0  0  0  0  0  0
    8.3966  -15.1690   22.0227 C   0  0  0  0  0  0  0  0  0  0  0  0
    9.5901  -14.8346   22.0455 O   0  0  0  0  0  0  0  0  0  0  0  0
    7.8313  -11.5630   26.0593 C   0  0  0  0  0  0  0  0  0  0  0  0
    7.1519  -12.8948   26.3376 C   0  0  1  0  0  0  0  0  0  0  0  0
    6.0680  -12.6635   27.3404 C   0  0  0  0  0  0  0  0  0  0  0  0
    6.7368  -13.5879   25.0788 C   0  0  0  0  0  0  0  0  0  0  0  0
    7.8663  -14.1192   24.2398 C   0  0  2  0  0  0  0  0  0  0  0  0
    7.5058  -14.8520   23.0781 N   0  0  0  0  0  0  0  0  0  0  0  0
    8.8930  -14.8164   25.0201 C   0  0  0  0  0  0  0  0  0  0  0  0
    9.2538  -14.3398   26.1328 O   0  0  0  0  0  0  0  0  0  0  0  0
    9.6818  -19.2213   28.1706 N   0  0  0  0  0  0  0  0  0  0  0  0
   10.2633  -18.0193   27.6967 C   0  0  0  0  0  0  0  0  0  0  0  0
   11.3825  -17.7013   28.1685 O   0  0  0  0  0  0  0  0  0  0  0  0
    9.5194  -17.2397   26.6959 C   0  0  0  0  0  0  0  0  0  0  0  0
   10.3451  -16.8086   25.5238 C   0  0  2  0  0  0  0  0  0  0  0  0
    9.5274  -16.0179   24.6064 N   0  0  0  0  0  0  0  0  0  0  0  0
   10.9792  -17.9493   24.8181 C   0  0  0  0  0  0  0  0  0  0  0  0
   10.7549  -18.1512   23.4655 O   0  0  0  0  0  0  0  0  0  0  0  0
   11.7306  -18.7618   25.4078 O   0  0  0  0  0  0  0  0  0  0  0  0
  2  1  1  6
  2  3  1  0
  4  2  1  0
  4  5  1  6
  6  4  1  0
  6  7  2  0
  9 10  1  1
  9  8  1  0
 11  9  1  0
 12 11  1  1
 12 13  1  0
 13  6  1  0
 14 12  1  0
 15 14  2  0
 17 18  2  0
 17 16  1  0
 19 17  1  0
 20 19  1  1
 20 21  1  0
 20 22  1  0
 21 14  1  0
 22 23  1  0
 24 22  2  0
M  END
$$$$
