VLN.pdb
     RDKit          3D

 24 23  0  0  1  0  0  0  0  0999 V2000
    8.9685  -20.3803   16.3890 C   0  0  0  0  0  0  0  0  0  0  0  0
    9.4062  -19.5651   17.5631 C   0  0  2  0  0  0  0  0  0  0  0  0
    8.5965  -19.9064   18.7964 C   0  0  0  0  0  0  0  0  0  0  0  0
    9.2756  -18.0797   17.3170 C   0  0  2  0  0  0  0  0  0  0  0  0
    9.9499  -17.6893   16.1083 N   0  0  0  0  0  0  0  0  0  0  0  0
    9.7218  -17.2775   18.4805 C   0  0  0  0  0  0  0  0  0  0  0  0
   10.9280  -17.2636   18.7658 O   0  0  0  0  0  0  0  0  0  0  0  0
    6.5276  -12.8304   20.1080 C   0  0  0  0  0  0  0  0  0  0  0  0
    7.7184  -13.6906   19.7149 C   0  0  1  0  0  0  0  0  0  0  0  0
    8.8447  -12.7824   19.3396 C   0  0  0  0  0  0  0  0  0  0  0  0
    8.0323  -14.7230   20.7507 C   0  0  0  0  0  0  0  0  0  0  0  0
    9.0702  -15.7350   20.3500 C   0  0  2  0  0  0  0  0  0  0  0  0
    8.7626  -16.5526   19.2305 N   0  0  0  0  0  0  0  0  0  0  0  0
    9.5744  -16.5284   21.4749 C   0  0  0  0  0  0  0  0  0  0  0  0
    8.9948  -17.6089   21.7783 O   0  0  0  0  0  0  0  0  0  0  0  0
   12.3618  -19.7957   24.0948 N   0  0  0  0  0  0  0  0  0  0  0  0
   13.1095  -18.7873   23.4376 C   0  0  0  0  0  0  0  0  0  0  0  0
   14.3435  -18.7509   23.6658 O   0  0  0  0  0  0  0  0  0  0  0  0
   12.3910  -17.8660   22.5445 C   0  0  0  0  0  0  0  0  0  0  0  0
   11.2991  -17.0939   23.2174 C   0  0  2  0  0  0  0  0  0  0  0  0
   10.6942  -16.1621   22.2680 N   0  0  0  0  0  0  0  0  0  0  0  0
   11.7649  -16.3823   24.4332 C   0  0  0  0  0  0  0  0  0  0  0  0
   12.0078  -17.0796   25.6059 O   0  0  0  0  0  0  0  0  0  0  0  0
   11.9540  -15.1427   24.4471 O   0  0  0  0  0  0  0  0  0  0  0  0
  2  1  1  6
  2  3  1  0
  4  2  1  0
  4  5  1  6
  6  4  1  0
  6  7  2  0
  9 10  1  1
  9  8  1  0
 11  9  1  0
 12 11  1  1
 12 13  1  0
 13  6  1  0
 14 12  1  0
 15 14  2  0
 17 18  2  0
 17 16  1  0
 19 17  1  0
 20 19  1  6
 20 21  1  0
 20 22  1  0
 21 14  1  0
 22 23  1  0
 24 22  2  0
M  END
$$$$
