VLN.pdb
     RDKit          3D

 24 23  0  0  1  0  0  0  0  0999 V2000
    7.0990  -13.4782   19.1186 C   0  0  0  0  0  0  0  0  0  0  0  0
    7.6870  -13.3294   20.4850 C   0  0  2  0  0  0  0  0  0  0  0  0
    8.9380  -12.4770   20.4506 C   0  0  0  0  0  0  0  0  0  0  0  0
    8.0462  -14.6586   21.1081 C   0  0  2  0  0  0  0  0  0  0  0  0
    6.9461  -15.5822   21.0390 N   0  0  0  0  0  0  0  0  0  0  0  0
    8.5545  -14.5095   22.4922 C   0  0  0  0  0  0  0  0  0  0  0  0
    9.6836  -14.0270   22.6623 O   0  0  0  0  0  0  0  0  0  0  0  0
    5.6253  -12.1405   26.3010 C   0  0  0  0  0  0  0  0  0  0  0  0
    6.8945  -12.6573   25.6419 C   0  0  1  0  0  0  0  0  0  0  0  0
    8.0338  -11.7998   26.0902 C   0  0  0  0  0  0  0  0  0  0  0  0
    7.0711  -14.1294   25.8392 C   0  0  0  0  0  0  0  0  0  0  0  0
    8.0929  -14.7758   24.9448 C   0  0  2  0  0  0  0  0  0  0  0  0
    7.7403  -14.9204   23.5768 N   0  0  0  0  0  0  0  0  0  0  0  0
    8.6441  -16.0183   25.4937 C   0  0  0  0  0  0  0  0  0  0  0  0
    8.9657  -16.0659   26.7143 O   0  0  0  0  0  0  0  0  0  0  0  0
   12.6302  -19.1669   23.4071 N   0  0  0  0  0  0  0  0  0  0  0  0
   12.4249  -17.8178   23.7885 C   0  0  0  0  0  0  0  0  0  0  0  0
   13.4366  -17.1639   24.1424 O   0  0  0  0  0  0  0  0  0  0  0  0
   11.0539  -17.2878   23.7421 C   0  0  0  0  0  0  0  0  0  0  0  0
   10.1282  -17.9064   24.7429 C   0  0  2  0  0  0  0  0  0  0  0  0
    8.8481  -17.2016   24.7350 N   0  0  0  0  0  0  0  0  0  0  0  0
   10.7032  -17.9434   26.1102 C   0  0  0  0  0  0  0  0  0  0  0  0
   11.1203  -16.7756   26.7290 O   0  0  0  0  0  0  0  0  0  0  0  0
   10.8322  -19.0148   26.7489 O   0  0  0  0  0  0  0  0  0  0  0  0
  2  1  1  6
  2  3  1  0
  4  2  1  0
  4  5  1  1
  6  4  1  0
  6  7  2  0
  9 10  1  1
  9  8  1  0
 11  9  1  0
 12 11  1  1
 12 13  1  0
 13  6  1  0
 14 12  1  0
 15 14  2  0
 17 18  2  0
 17 16  1  0
 19 17  1  0
 20 19  1  6
 20 21  1  0
 20 22  1  0
 21 14  1  0
 22 23  1  0
 24 22  2  0
M  END
$$$$
