VLN.pdb
     RDKit          3D

 24 23  0  0  1  0  0  0  0  0999 V2000
   10.8090  -20.2170   17.6803 C   0  0  0  0  0  0  0  0  0  0  0  0
   10.8809  -19.1393   18.7138 C   0  0  2  0  0  0  0  0  0  0  0  0
   10.0115  -19.4704   19.9086 C   0  0  0  0  0  0  0  0  0  0  0  0
   10.4447  -17.7948   18.1789 C   0  0  2  0  0  0  0  0  0  0  0  0
   11.1114  -17.4829   16.9435 N   0  0  0  0  0  0  0  0  0  0  0  0
   10.6060  -16.7142   19.1802 C   0  0  0  0  0  0  0  0  0  0  0  0
   11.7443  -16.2788   19.4069 O   0  0  0  0  0  0  0  0  0  0  0  0
    6.2985  -13.1427   20.2287 C   0  0  0  0  0  0  0  0  0  0  0  0
    7.6960  -13.6833   19.9694 C   0  0  1  0  0  0  0  0  0  0  0  0
    8.5586  -12.5475   19.5222 C   0  0  0  0  0  0  0  0  0  0  0  0
    8.2145  -14.4785   21.1254 C   0  0  0  0  0  0  0  0  0  0  0  0
    9.4953  -15.2227   20.8656 C   0  0  2  0  0  0  0  0  0  0  0  0
    9.4612  -16.2114   19.8469 N   0  0  0  0  0  0  0  0  0  0  0  0
   10.1332  -15.7270   22.0854 C   0  0  0  0  0  0  0  0  0  0  0  0
   10.3077  -14.9439   23.0610 O   0  0  0  0  0  0  0  0  0  0  0  0
   12.3625  -18.6424   25.7172 N   0  0  0  0  0  0  0  0  0  0  0  0
   11.5558  -19.5058   24.9351 C   0  0  0  0  0  0  0  0  0  0  0  0
   11.4338  -20.6902   25.3335 O   0  0  0  0  0  0  0  0  0  0  0  0
   10.9265  -18.9555   23.7252 C   0  0  0  0  0  0  0  0  0  0  0  0
   11.2238  -17.5073   23.4897 C   0  0  2  0  0  0  0  0  0  0  0  0
   10.5803  -17.0644   22.2546 N   0  0  0  0  0  0  0  0  0  0  0  0
   12.6786  -17.2174   23.4615 C   0  0  0  0  0  0  0  0  0  0  0  0
   13.2592  -16.6436   22.3416 O   0  0  0  0  0  0  0  0  0  0  0  0
   13.4275  -17.4760   24.4335 O   0  0  0  0  0  0  0  0  0  0  0  0
  2  1  1  6
  2  3  1  0
  4  2  1  0
  4  5  1  6
  6  4  1  0
  6  7  2  0
  9 10  1  1
  9  8  1  0
 11  9  1  0
 12 11  1  1
 12 13  1  0
 13  6  1  0
 14 12  1  0
 15 14  2  0
 17 18  2  0
 17 16  1  0
 19 17  1  0
 20 19  1  6
 20 21  1  0
 20 22  1  0
 21 14  1  0
 22 23  1  0
 24 22  2  0
M  END
$$$$
