VLN.pdb
     RDKit          3D

 24 23  0  0  1  0  0  0  0  0999 V2000
    9.0669  -18.1534   21.4024 C   0  0  0  0  0  0  0  0  0  0  0  0
    7.9811  -17.2527   20.9077 C   0  0  2  0  0  0  0  0  0  0  0  0
    7.4589  -17.7151   19.5636 C   0  0  0  0  0  0  0  0  0  0  0  0
    8.4397  -15.8201   20.7612 C   0  0  2  0  0  0  0  0  0  0  0  0
    9.4937  -15.7059   19.7895 N   0  0  0  0  0  0  0  0  0  0  0  0
    8.8207  -15.2180   22.0606 C   0  0  0  0  0  0  0  0  0  0  0  0
   10.0236  -15.1378   22.3490 O   0  0  0  0  0  0  0  0  0  0  0  0
    8.3979  -12.1181   26.3980 C   0  0  0  0  0  0  0  0  0  0  0  0
    7.2072  -13.0592   26.3031 C   0  0  1  0  0  0  0  0  0  0  0  0
    6.0563  -12.4268   27.0171 C   0  0  0  0  0  0  0  0  0  0  0  0
    6.9423  -13.4904   24.8956 C   0  0  0  0  0  0  0  0  0  0  0  0
    8.0292  -14.3170   24.2653 C   0  0  2  0  0  0  0  0  0  0  0  0
    7.8050  -14.7532   22.9327 N   0  0  0  0  0  0  0  0  0  0  0  0
    8.4969  -15.4125   25.1199 C   0  0  0  0  0  0  0  0  0  0  0  0
    7.7133  -16.3666   25.3863 O   0  0  0  0  0  0  0  0  0  0  0  0
   12.7286  -17.0951   23.8280 N   0  0  0  0  0  0  0  0  0  0  0  0
   11.6649  -17.5472   24.6477 C   0  0  0  0  0  0  0  0  0  0  0  0
   10.8425  -18.3420   24.1296 O   0  0  0  0  0  0  0  0  0  0  0  0
   11.6033  -17.0563   26.0325 C   0  0  0  0  0  0  0  0  0  0  0  0
   10.2345  -16.6346   26.4683 C   0  0  2  0  0  0  0  0  0  0  0  0
    9.7986  -15.4813   25.6839 N   0  0  0  0  0  0  0  0  0  0  0  0
   10.1588  -16.3451   27.9215 C   0  0  0  0  0  0  0  0  0  0  0  0
   10.3724  -17.3509   28.8506 O   0  0  0  0  0  0  0  0  0  0  0  0
    9.9027  -15.1980   28.3588 O   0  0  0  0  0  0  0  0  0  0  0  0
  2  1  1  6
  2  3  1  0
  4  2  1  0
  4  5  1  6
  6  4  1  0
  6  7  2  0
  9 10  1  6
  9  8  1  0
 11  9  1  0
 12 11  1  1
 12 13  1  0
 13  6  1  0
 14 12  1  0
 15 14  2  0
 17 18  2  0
 17 16  1  0
 19 17  1  0
 20 19  1  6
 20 21  1  0
 20 22  1  0
 21 14  1  0
 22 23  1  0
 24 22  2  0
M  END
$$$$
