VLN.pdb
     RDKit          3D

 24 23  0  0  1  0  0  0  0  0999 V2000
    7.2056  -13.9123   18.5316 C   0  0  0  0  0  0  0  0  0  0  0  0
    7.5355  -13.4929   19.9280 C   0  0  2  0  0  0  0  0  0  0  0  0
    8.5541  -12.3725   19.9347 C   0  0  0  0  0  0  0  0  0  0  0  0
    8.0874  -14.6288   20.7581 C   0  0  2  0  0  0  0  0  0  0  0  0
    7.1487  -15.7146   20.8473 N   0  0  0  0  0  0  0  0  0  0  0  0
    8.5371  -14.1780   22.0963 C   0  0  0  0  0  0  0  0  0  0  0  0
    9.6825  -13.7191   22.2153 O   0  0  0  0  0  0  0  0  0  0  0  0
    7.9992  -11.6033   26.6566 C   0  0  0  0  0  0  0  0  0  0  0  0
    7.1490  -12.8631   26.7062 C   0  0  1  0  0  0  0  0  0  0  0  0
    5.9996  -12.6125   27.6284 C   0  0  0  0  0  0  0  0  0  0  0  0
    6.7915  -13.3542   25.3394 C   0  0  0  0  0  0  0  0  0  0  0  0
    7.9493  -13.8429   24.5132 C   0  0  2  0  0  0  0  0  0  0  0  0
    7.6504  -14.2832   23.1966 N   0  0  0  0  0  0  0  0  0  0  0  0
    8.8061  -14.7996   25.2201 C   0  0  0  0  0  0  0  0  0  0  0  0
    9.1143  -14.5805   26.4253 O   0  0  0  0  0  0  0  0  0  0  0  0
   10.2876  -19.0858   27.8403 N   0  0  0  0  0  0  0  0  0  0  0  0
   10.0742  -19.1857   26.4431 C   0  0  0  0  0  0  0  0  0  0  0  0
   10.5541  -20.1900   25.8622 O   0  0  0  0  0  0  0  0  0  0  0  0
    9.3128  -18.1150   25.7823 C   0  0  0  0  0  0  0  0  0  0  0  0
   10.1392  -16.9258   25.4029 C   0  0  2  0  0  0  0  0  0  0  0  0
    9.3278  -15.9839   24.6348 N   0  0  0  0  0  0  0  0  0  0  0  0
   11.3682  -17.2951   24.6582 C   0  0  0  0  0  0  0  0  0  0  0  0
   12.4783  -17.7804   25.3308 O   0  0  0  0  0  0  0  0  0  0  0  0
   11.4492  -17.1843   23.4117 O   0  0  0  0  0  0  0  0  0  0  0  0
  2  1  1  6
  2  3  1  0
  4  2  1  0
  4  5  1  1
  6  4  1  0
  6  7  2  0
  9 10  1  1
  9  8  1  0
 11  9  1  0
 12 11  1  1
 12 13  1  0
 13  6  1  0
 14 12  1  0
 15 14  2  0
 17 18  2  0
 17 16  1  0
 19 17  1  0
 20 19  1  6
 20 21  1  0
 20 22  1  0
 21 14  1  0
 22 23  1  0
 24 22  2  0
M  END
$$$$
