VLN.pdb
     RDKit          3D

 24 23  0  0  1  0  0  0  0  0999 V2000
    7.1528  -16.1082   19.0559 C   0  0  0  0  0  0  0  0  0  0  0  0
    7.7487  -15.9999   20.4226 C   0  0  2  0  0  0  0  0  0  0  0  0
    7.0954  -16.9731   21.3813 C   0  0  0  0  0  0  0  0  0  0  0  0
    7.6132  -14.6116   21.0044 C   0  0  2  0  0  0  0  0  0  0  0  0
    8.1202  -13.6147   20.1003 N   0  0  0  0  0  0  0  0  0  0  0  0
    8.2317  -14.5037   22.3467 C   0  0  0  0  0  0  0  0  0  0  0  0
    9.4670  -14.4417   22.4290 O   0  0  0  0  0  0  0  0  0  0  0  0
    5.6376  -11.9689   26.7023 C   0  0  0  0  0  0  0  0  0  0  0  0
    6.7299  -12.4487   25.7594 C   0  0  1  0  0  0  0  0  0  0  0  0
    7.9277  -11.5757   25.9525 C   0  0  0  0  0  0  0  0  0  0  0  0
    6.9707  -13.9200   25.8805 C   0  0  0  0  0  0  0  0  0  0  0  0
    7.8729  -14.5082   24.8308 C   0  0  2  0  0  0  0  0  0  0  0  0
    7.3987  -14.4745   23.4927 N   0  0  0  0  0  0  0  0  0  0  0  0
    8.3926  -15.8323   25.1854 C   0  0  0  0  0  0  0  0  0  0  0  0
    7.6268  -16.8347   25.1209 O   0  0  0  0  0  0  0  0  0  0  0  0
   12.0560  -16.9733   23.0729 N   0  0  0  0  0  0  0  0  0  0  0  0
   11.2958  -17.8651   23.8694 C   0  0  0  0  0  0  0  0  0  0  0  0
   10.5535  -18.6786   23.2664 O   0  0  0  0  0  0  0  0  0  0  0  0
   11.4314  -17.7728   25.3309 C   0  0  0  0  0  0  0  0  0  0  0  0
   10.1644  -17.4027   26.0373 C   0  0  2  0  0  0  0  0  0  0  0  0
    9.7269  -16.0766   25.6066 N   0  0  0  0  0  0  0  0  0  0  0  0
   10.2921  -17.4638   27.5142 C   0  0  0  0  0  0  0  0  0  0  0  0
   10.5911  -18.6611   28.1448 O   0  0  0  0  0  0  0  0  0  0  0  0
   10.1371  -16.4514   28.2378 O   0  0  0  0  0  0  0  0  0  0  0  0
  2  1  1  6
  2  3  1  0
  4  2  1  0
  4  5  1  6
  6  4  1  0
  6  7  2  0
  9 10  1  1
  9  8  1  0
 11  9  1  0
 12 11  1  1
 12 13  1  0
 13  6  1  0
 14 12  1  0
 15 14  2  0
 17 18  2  0
 17 16  1  0
 19 17  1  0
 20 19  1  6
 20 21  1  0
 20 22  1  0
 21 14  1  0
 22 23  1  0
 24 22  2  0
M  END
$$$$
