VLN.pdb
     RDKit          3D

 24 23  0  0  1  0  0  0  0  0999 V2000
    8.0752  -17.9549   20.9748 C   0  0  0  0  0  0  0  0  0  0  0  0
    7.3270  -16.7677   20.4594 C   0  0  2  0  0  0  0  0  0  0  0  0
    6.8426  -17.0007   19.0438 C   0  0  0  0  0  0  0  0  0  0  0  0
    8.1644  -15.5096   20.4638 C   0  0  2  0  0  0  0  0  0  0  0  0
    9.3123  -15.6432   19.6079 N   0  0  0  0  0  0  0  0  0  0  0  0
    8.5446  -15.0943   21.8346 C   0  0  0  0  0  0  0  0  0  0  0  0
    9.6746  -15.3861   22.2524 O   0  0  0  0  0  0  0  0  0  0  0  0
    8.1586  -11.9902   26.3709 C   0  0  0  0  0  0  0  0  0  0  0  0
    6.9632  -12.8832   26.0774 C   0  0  1  0  0  0  0  0  0  0  0  0
    5.7756  -12.3195   26.7888 C   0  0  0  0  0  0  0  0  0  0  0  0
    6.7893  -13.1259   24.6118 C   0  0  0  0  0  0  0  0  0  0  0  0
    7.8089  -14.0401   23.9902 C   0  0  2  0  0  0  0  0  0  0  0  0
    7.6112  -14.3792   22.6254 N   0  0  0  0  0  0  0  0  0  0  0  0
    8.1012  -15.2245   24.8031 C   0  0  0  0  0  0  0  0  0  0  0  0
    7.1960  -16.0857   24.9888 O   0  0  0  0  0  0  0  0  0  0  0  0
   11.2958  -19.6842   24.2714 N   0  0  0  0  0  0  0  0  0  0  0  0
   11.3589  -18.6524   25.2404 C   0  0  0  0  0  0  0  0  0  0  0  0
   11.8706  -18.9411   26.3500 O   0  0  0  0  0  0  0  0  0  0  0  0
   10.8249  -17.3309   24.8780 C   0  0  0  0  0  0  0  0  0  0  0  0
    9.7600  -16.8303   25.8036 C   0  0  2  0  0  0  0  0  0  0  0  0
    9.3584  -15.4808   25.4122 N   0  0  0  0  0  0  0  0  0  0  0  0
   10.1740  -16.8668   27.2278 C   0  0  0  0  0  0  0  0  0  0  0  0
   10.8417  -15.7920   27.7933 O   0  0  0  0  0  0  0  0  0  0  0  0
    9.9401  -17.8549   27.9636 O   0  0  0  0  0  0  0  0  0  0  0  0
  2  1  1  6
  2  3  1  0
  4  2  1  0
  4  5  1  6
  6  4  1  0
  6  7  2  0
  9 10  1  6
  9  8  1  0
 11  9  1  0
 12 11  1  1
 12 13  1  0
 13  6  1  0
 14 12  1  0
 15 14  2  0
 17 18  2  0
 17 16  1  0
 19 17  1  0
 20 19  1  6
 20 21  1  0
 20 22  1  0
 21 14  1  0
 22 23  1  0
 24 22  2  0
M  END
$$$$
