FCL.pdb
     RDKit          3D

 26 26  0  0  1  0  0  0  0  0999 V2000
   20.4147   -9.0287  -14.8497 N   0  0  0  0  0  0  0  0  0  0  0  0
   19.1307   -8.9561  -14.1893 C   0  0  1  0  0  0  0  0  0  0  0  0
   18.7296  -10.3623  -13.7784 C   0  0  0  0  0  0  0  0  0  0  0  0
   18.3967  -11.1721  -14.9708 C   0  0  0  0  0  0  0  0  0  0  0  0
   19.2795  -12.1396  -15.4526 C   0  0  0  0  0  0  0  0  0  0  0  0
   18.9393  -12.8662  -16.5539 C   0  0  0  0  0  0  0  0  0  0  0  0
   17.7353  -12.6623  -17.2029 C   0  0  0  0  0  0  0  0  0  0  0  0
   16.8587  -11.7100  -16.7345 C   0  0  0  0  0  0  0  0  0  0  0  0
   17.2066  -10.9838  -15.6279 C   0  0  0  0  0  0  0  0  0  0  0  0
   19.2178   -8.0242  -13.0665 C   0  0  0  0  0  0  0  0  0  0  0  0
   20.3477   -7.6156  -12.6229 O   0  0  0  0  0  0  0  0  0  0  0  0
   18.0258   -7.5558  -12.4471 N   0  0  0  0  0  0  0  0  0  0  0  0
   18.0657   -6.5471  -11.4073 C   0  0  1  0  0  0  0  0  0  0  0  0
   18.6599   -5.2439  -11.9309 C   0  0  0  0  0  0  0  0  0  0  0  0
   17.7444   -4.7725  -13.4229 S   0  0  0  0  0  0  0  0  0  0  0  0
   16.7067   -6.2195  -10.9089 C   0  0  0  0  0  0  0  0  0  0  0  0
   15.7713   -6.0355  -11.7303 O   0  0  0  0  0  0  0  0  0  0  0  0
   13.1603   -5.3336   -6.7060 C   0  0  0  0  0  0  0  0  0  0  0  0
   13.3155   -6.7083   -7.3680 C   0  0  2  0  0  0  0  0  0  0  0  0
   12.9821   -7.7562   -6.3623 C   0  0  0  0  0  0  0  0  0  0  0  0
   14.6834   -6.8039   -7.9344 C   0  0  0  0  0  0  0  0  0  0  0  0
   14.9944   -5.9000   -9.0724 C   0  0  2  0  0  0  0  0  0  0  0  0
   16.3813   -6.0965   -9.5377 N   0  0  0  0  0  0  0  0  0  0  0  0
   14.8817   -4.4945   -8.6766 C   0  0  0  0  0  0  0  0  0  0  0  0
   15.7953   -3.9416   -8.0355 O   0  0  0  0  0  0  0  0  0  0  0  0
   13.7643   -3.7574   -9.0054 O   0  0  0  0  0  0  0  0  0  0  0  0
  2  1  1  1
  2 10  1  0
  3  2  1  0
  3  4  1  0
  4  9  2  0
  5  4  1  0
  5  6  2  0
  6  7  1  0
  7  8  2  0
  9  8  1  0
 10 11  2  0
 12 13  1  0
 12 10  1  0
 13 16  1  0
 13 14  1  6
 15 14  1  0
 16 23  1  0
 16 17  2  0
 19 18  1  1
 19 20  1  0
 21 19  1  0
 22 21  1  1
 22 24  1  0
 23 22  1  0
 24 25  2  0
 24 26  1  0
M  END
$$$$
