FCL.pdb
     RDKit          3D

 26 26  0  0  1  0  0  0  0  0999 V2000
   23.4756  -22.5284  -17.7375 N   0  0  0  0  0  0  0  0  0  0  0  0
   23.4813  -21.3426  -16.9105 C   0  0  1  0  0  0  0  0  0  0  0  0
   22.0949  -21.1757  -16.3129 C   0  0  0  0  0  0  0  0  0  0  0  0
   21.2218  -20.4226  -17.2398 C   0  0  0  0  0  0  0  0  0  0  0  0
   20.2155  -21.0653  -17.9622 C   0  0  0  0  0  0  0  0  0  0  0  0
   19.4310  -20.3391  -18.8071 C   0  0  0  0  0  0  0  0  0  0  0  0
   19.6137  -18.9771  -18.9617 C   0  0  0  0  0  0  0  0  0  0  0  0
   20.6038  -18.3353  -18.2529 C   0  0  0  0  0  0  0  0  0  0  0  0
   21.3882  -19.0705  -17.4061 C   0  0  0  0  0  0  0  0  0  0  0  0
   24.5375  -21.4595  -15.9068 C   0  0  0  0  0  0  0  0  0  0  0  0
   25.0164  -22.5986  -15.5698 O   0  0  0  0  0  0  0  0  0  0  0  0
   25.0504  -20.2869  -15.2855 N   0  0  0  0  0  0  0  0  0  0  0  0
   26.0870  -20.3638  -14.2756 C   0  0  1  0  0  0  0  0  0  0  0  0
   26.8889  -19.0681  -14.2141 C   0  0  0  0  0  0  0  0  0  0  0  0
   28.0903  -19.2186  -12.8648 S   0  0  0  0  0  0  0  0  0  0  0  0
   25.5179  -20.5711  -12.9208 C   0  0  0  0  0  0  0  0  0  0  0  0
   24.3021  -20.3221  -12.7127 O   0  0  0  0  0  0  0  0  0  0  0  0
   27.6172  -20.0230   -7.2617 C   0  0  0  0  0  0  0  0  0  0  0  0
   26.3778  -20.4050   -8.0801 C   0  0  2  0  0  0  0  0  0  0  0  0
   25.6593  -21.4975   -7.3653 C   0  0  0  0  0  0  0  0  0  0  0  0
   26.8121  -20.7446   -9.4575 C   0  0  0  0  0  0  0  0  0  0  0  0
   25.7349  -21.0298  -10.4409 C   0  0  2  0  0  0  0  0  0  0  0  0
   26.2677  -21.0420  -11.8174 N   0  0  0  0  0  0  0  0  0  0  0  0
   24.6982  -19.9961  -10.4033 C   0  0  0  0  0  0  0  0  0  0  0  0
   24.9132  -18.8655  -10.8795 O   0  0  0  0  0  0  0  0  0  0  0  0
   23.4662  -20.2539   -9.8411 O   0  0  0  0  0  0  0  0  0  0  0  0
  2  1  1  1
  2 10  1  0
  3  2  1  0
  3  4  1  0
  4  9  2  0
  5  4  1  0
  5  6  2  0
  6  7  1  0
  7  8  2  0
  9  8  1  0
 10 11  2  0
 12 13  1  0
 12 10  1  0
 13 16  1  0
 13 14  1  1
 15 14  1  0
 16 23  1  0
 16 17  2  0
 19 18  1  1
 19 20  1  0
 21 19  1  0
 22 21  1  1
 22 24  1  0
 23 22  1  0
 24 25  2  0
 24 26  1  0
M  END
$$$$
