FCL.pdb
     RDKit          3D

 26 26  0  0  1  0  0  0  0  0999 V2000
   22.9501  -20.1072  -15.5810 N   0  0  0  0  0  0  0  0  0  0  0  0
   21.7420  -19.9290  -14.8074 C   0  0  1  0  0  0  0  0  0  0  0  0
   20.5545  -20.2015  -15.7145 C   0  0  0  0  0  0  0  0  0  0  0  0
   20.4524  -19.1568  -16.7569 C   0  0  0  0  0  0  0  0  0  0  0  0
   20.6742  -19.4580  -18.1014 C   0  0  0  0  0  0  0  0  0  0  0  0
   20.5719  -18.4698  -19.0338 C   0  0  0  0  0  0  0  0  0  0  0  0
   20.2521  -17.1739  -18.6722 C   0  0  0  0  0  0  0  0  0  0  0  0
   20.0316  -16.8680  -17.3484 C   0  0  0  0  0  0  0  0  0  0  0  0
   20.1361  -17.8653  -16.4170 C   0  0  0  0  0  0  0  0  0  0  0  0
   21.7885  -20.7979  -13.6328 C   0  0  0  0  0  0  0  0  0  0  0  0
   22.4951  -21.8661  -13.6192 O   0  0  0  0  0  0  0  0  0  0  0  0
   21.0354  -20.4568  -12.4751 N   0  0  0  0  0  0  0  0  0  0  0  0
   21.0781  -21.2782  -11.2819 C   0  0  1  0  0  0  0  0  0  0  0  0
   21.4532  -20.4483  -10.0588 C   0  0  0  0  0  0  0  0  0  0  0  0
   20.3696  -18.9955  -10.0160 S   0  0  0  0  0  0  0  0  0  0  0  0
   19.7571  -21.8872  -10.9881 C   0  0  0  0  0  0  0  0  0  0  0  0
   18.7061  -21.2401  -11.2337 O   0  0  0  0  0  0  0  0  0  0  0  0
   15.5326  -24.6142  -11.1507 C   0  0  0  0  0  0  0  0  0  0  0  0
   16.6852  -25.5911  -10.8880 C   0  0  2  0  0  0  0  0  0  0  0  0
   16.5117  -26.1695   -9.5256 C   0  0  0  0  0  0  0  0  0  0  0  0
   17.9659  -24.8726  -11.0992 C   0  0  0  0  0  0  0  0  0  0  0  0
   18.2617  -23.7560  -10.1642 C   0  0  2  0  0  0  0  0  0  0  0  0
   19.5930  -23.1795  -10.4363 N   0  0  0  0  0  0  0  0  0  0  0  0
   18.2839  -24.2215   -8.7759 C   0  0  0  0  0  0  0  0  0  0  0  0
   19.3538  -24.5677   -8.2406 O   0  0  0  0  0  0  0  0  0  0  0  0
   17.1228  -24.2853   -8.0355 O   0  0  0  0  0  0  0  0  0  0  0  0
  2  1  1  6
  2 10  1  0
  3  2  1  0
  3  4  1  0
  4  9  2  0
  5  4  1  0
  5  6  2  0
  6  7  1  0
  7  8  2  0
  9  8  1  0
 10 11  2  0
 12 13  1  0
 12 10  1  0
 13 16  1  0
 13 14  1  1
 15 14  1  0
 16 23  1  0
 16 17  2  0
 19 18  1  1
 19 20  1  0
 21 19  1  0
 22 21  1  6
 22 24  1  0
 23 22  1  0
 24 25  2  0
 24 26  1  0
M  END
$$$$
