FCL.pdb
     RDKit          3D

 26 26  0  0  1  0  0  0  0  0999 V2000
   24.6388  -18.9358  -15.7218 N   0  0  0  0  0  0  0  0  0  0  0  0
   23.2767  -19.3126  -16.0258 C   0  0  1  0  0  0  0  0  0  0  0  0
   23.2497  -19.9018  -17.4256 C   0  0  0  0  0  0  0  0  0  0  0  0
   23.6691  -18.8888  -18.4189 C   0  0  0  0  0  0  0  0  0  0  0  0
   24.9173  -18.9627  -19.0385 C   0  0  0  0  0  0  0  0  0  0  0  0
   25.2696  -18.0114  -19.9482 C   0  0  0  0  0  0  0  0  0  0  0  0
   24.4129  -16.9742  -20.2685 C   0  0  0  0  0  0  0  0  0  0  0  0
   23.1798  -16.8938  -19.6621 C   0  0  0  0  0  0  0  0  0  0  0  0
   22.8323  -17.8525  -18.7494 C   0  0  0  0  0  0  0  0  0  0  0  0
   22.7894  -20.2311  -14.9983 C   0  0  0  0  0  0  0  0  0  0  0  0
   23.5965  -20.8840  -14.2482 O   0  0  0  0  0  0  0  0  0  0  0  0
   21.3892  -20.4094  -14.8210 N   0  0  0  0  0  0  0  0  0  0  0  0
   20.8653  -21.2038  -13.7280 C   0  0  1  0  0  0  0  0  0  0  0  0
   21.1291  -20.5299  -12.3856 C   0  0  0  0  0  0  0  0  0  0  0  0
   20.1764  -18.9882  -12.3380 S   0  0  0  0  0  0  0  0  0  0  0  0
   19.3948  -21.3756  -13.8308 C   0  0  0  0  0  0  0  0  0  0  0  0
   18.6630  -20.3686  -14.0153 O   0  0  0  0  0  0  0  0  0  0  0  0
   16.7394  -23.8356  -16.7736 C   0  0  0  0  0  0  0  0  0  0  0  0
   17.4887  -24.5733  -15.6573 C   0  0  2  0  0  0  0  0  0  0  0  0
   17.4004  -26.0378  -15.9183 C   0  0  0  0  0  0  0  0  0  0  0  0
   16.9306  -24.1401  -14.3527 C   0  0  0  0  0  0  0  0  0  0  0  0
   17.2819  -22.7675  -13.9042 C   0  0  2  0  0  0  0  0  0  0  0  0
   18.7412  -22.6264  -13.7331 N   0  0  0  0  0  0  0  0  0  0  0  0
   16.6778  -22.4656  -12.6048 C   0  0  0  0  0  0  0  0  0  0  0  0
   17.3814  -22.3983  -11.5792 O   0  0  0  0  0  0  0  0  0  0  0  0
   15.3210  -22.2504  -12.4915 O   0  0  0  0  0  0  0  0  0  0  0  0
  2  1  1  1
  2 10  1  0
  3  2  1  0
  3  4  1  0
  4  9  2  0
  5  4  1  0
  5  6  2  0
  6  7  1  0
  7  8  2  0
  9  8  1  0
 10 11  2  0
 12 13  1  0
 12 10  1  0
 13 16  1  0
 13 14  1  1
 15 14  1  0
 16 23  1  0
 16 17  2  0
 19 18  1  6
 19 20  1  0
 21 19  1  0
 22 21  1  1
 22 24  1  0
 23 22  1  0
 24 25  2  0
 24 26  1  0
M  END
$$$$
