FCL.pdb
     RDKit          3D

 26 26  0  0  1  0  0  0  0  0999 V2000
   27.1398  -22.3756  -10.8110 N   0  0  0  0  0  0  0  0  0  0  0  0
   26.2128  -21.2912  -10.5775 C   0  0  1  0  0  0  0  0  0  0  0  0
   27.0129  -20.0091  -10.4247 C   0  0  0  0  0  0  0  0  0  0  0  0
   27.6296  -19.9439   -9.0815 C   0  0  0  0  0  0  0  0  0  0  0  0
   28.8671  -20.5373   -8.8287 C   0  0  0  0  0  0  0  0  0  0  0  0
   29.4041  -20.4574   -7.5790 C   0  0  0  0  0  0  0  0  0  0  0  0
   28.7453  -19.7991   -6.5567 C   0  0  0  0  0  0  0  0  0  0  0  0
   27.5242  -19.2111   -6.7975 C   0  0  0  0  0  0  0  0  0  0  0  0
   26.9906  -19.2950   -8.0548 C   0  0  0  0  0  0  0  0  0  0  0  0
   25.2408  -21.2440  -11.6683 C   0  0  0  0  0  0  0  0  0  0  0  0
   25.5663  -21.5540  -12.8676 O   0  0  0  0  0  0  0  0  0  0  0  0
   23.9015  -20.8460  -11.4003 N   0  0  0  0  0  0  0  0  0  0  0  0
   22.8165  -21.2139  -12.2878 C   0  0  1  0  0  0  0  0  0  0  0  0
   21.7028  -21.9246  -11.5262 C   0  0  0  0  0  0  0  0  0  0  0  0
   21.8635  -21.4949   -9.7723 S   0  0  0  0  0  0  0  0  0  0  0  0
   22.1988  -20.0225  -12.9216 C   0  0  0  0  0  0  0  0  0  0  0  0
   21.9242  -19.0163  -12.2174 O   0  0  0  0  0  0  0  0  0  0  0  0
   23.2846  -17.1147  -16.1323 C   0  0  0  0  0  0  0  0  0  0  0  0
   22.8139  -18.4500  -16.7216 C   0  0  2  0  0  0  0  0  0  0  0  0
   23.0512  -18.4260  -18.1926 C   0  0  0  0  0  0  0  0  0  0  0  0
   21.4010  -18.6658  -16.3239 C   0  0  0  0  0  0  0  0  0  0  0  0
   21.1356  -18.8026  -14.8680 C   0  0  2  0  0  0  0  0  0  0  0  0
   21.8891  -19.9373  -14.2993 N   0  0  0  0  0  0  0  0  0  0  0  0
   19.7190  -19.0717  -14.6124 C   0  0  0  0  0  0  0  0  0  0  0  0
   18.8679  -18.1734  -14.7531 O   0  0  0  0  0  0  0  0  0  0  0  0
   19.3006  -20.3226  -14.2118 O   0  0  0  0  0  0  0  0  0  0  0  0
  2  1  1  6
  2 10  1  0
  3  2  1  0
  3  4  1  0
  4  9  2  0
  5  4  1  0
  5  6  2  0
  6  7  1  0
  7  8  2  0
  9  8  1  0
 10 11  2  0
 12 13  1  0
 12 10  1  0
 13 16  1  0
 13 14  1  1
 15 14  1  0
 16 23  1  0
 16 17  2  0
 19 18  1  6
 19 20  1  0
 21 19  1  0
 22 21  1  6
 22 24  1  0
 23 22  1  0
 24 25  2  0
 24 26  1  0
M  END
$$$$
