FCL.pdb
     RDKit          3D

 26 26  0  0  1  0  0  0  0  0999 V2000
   29.3537  -22.0759  -13.9270 N   0  0  0  0  0  0  0  0  0  0  0  0
   28.3043  -21.4517  -13.1530 C   0  0  1  0  0  0  0  0  0  0  0  0
   28.9333  -20.3785  -12.2815 C   0  0  0  0  0  0  0  0  0  0  0  0
   29.7678  -20.9950  -11.2270 C   0  0  0  0  0  0  0  0  0  0  0  0
   29.2011  -21.4512  -10.0361 C   0  0  0  0  0  0  0  0  0  0  0  0
   30.0012  -22.0132   -9.0870 C   0  0  0  0  0  0  0  0  0  0  0  0
   31.3644  -22.1398   -9.2825 C   0  0  0  0  0  0  0  0  0  0  0  0
   31.9315  -21.6925  -10.4542 C   0  0  0  0  0  0  0  0  0  0  0  0
   31.1223  -21.1290  -11.4032 C   0  0  0  0  0  0  0  0  0  0  0  0
   27.2773  -20.9386  -14.0580 C   0  0  0  0  0  0  0  0  0  0  0  0
   27.5766  -20.4708  -15.2121 O   0  0  0  0  0  0  0  0  0  0  0  0
   25.9129  -20.9557  -13.6555 N   0  0  0  0  0  0  0  0  0  0  0  0
   24.8455  -20.7273  -14.6088 C   0  0  1  0  0  0  0  0  0  0  0  0
   24.7517  -21.8729  -15.6109 C   0  0  0  0  0  0  0  0  0  0  0  0
   23.3566  -21.5338  -16.7178 S   0  0  0  0  0  0  0  0  0  0  0  0
   23.5229  -20.6432  -13.9409 C   0  0  0  0  0  0  0  0  0  0  0  0
   23.1982  -21.5150  -13.0934 O   0  0  0  0  0  0  0  0  0  0  0  0
   19.7352  -17.8870  -11.3519 C   0  0  0  0  0  0  0  0  0  0  0  0
   19.5241  -17.7878  -12.8676 C   0  0  2  0  0  0  0  0  0  0  0  0
   18.4122  -18.7035  -13.2498 C   0  0  0  0  0  0  0  0  0  0  0  0
   20.8170  -18.0663  -13.5401 C   0  0  0  0  0  0  0  0  0  0  0  0
   21.3808  -19.4288  -13.3545 C   0  0  2  0  0  0  0  0  0  0  0  0
   22.5764  -19.6237  -14.1979 N   0  0  0  0  0  0  0  0  0  0  0  0
   20.4173  -20.4577  -13.7515 C   0  0  0  0  0  0  0  0  0  0  0  0
   20.2127  -20.7036  -14.9552 O   0  0  0  0  0  0  0  0  0  0  0  0
   19.7192  -21.1731  -12.8022 O   0  0  0  0  0  0  0  0  0  0  0  0
  2  1  1  6
  2 10  1  0
  3  2  1  0
  3  4  1  0
  4  9  2  0
  5  4  1  0
  5  6  2  0
  6  7  1  0
  7  8  2  0
  9  8  1  0
 10 11  2  0
 12 13  1  0
 12 10  1  0
 13 16  1  0
 13 14  1  6
 15 14  1  0
 16 23  1  0
 16 17  2  0
 19 18  1  1
 19 20  1  0
 21 19  1  0
 22 21  1  6
 22 24  1  0
 23 22  1  0
 24 25  2  0
 24 26  1  0
M  END
$$$$
