FCL.pdb
     RDKit          3D

 26 26  0  0  1  0  0  0  0  0999 V2000
   23.5568  -20.5371  -16.5714 N   0  0  0  0  0  0  0  0  0  0  0  0
   24.0340  -19.8146  -15.4137 C   0  0  1  0  0  0  0  0  0  0  0  0
   22.8304  -19.2521  -14.6775 C   0  0  0  0  0  0  0  0  0  0  0  0
   22.1011  -18.2953  -15.5383 C   0  0  0  0  0  0  0  0  0  0  0  0
   20.8630  -18.6247  -16.0917 C   0  0  0  0  0  0  0  0  0  0  0  0
   20.2206  -17.7181  -16.8803 C   0  0  0  0  0  0  0  0  0  0  0  0
   20.7729  -16.4776  -17.1422 C   0  0  0  0  0  0  0  0  0  0  0  0
   21.9936  -16.1445  -16.6004 C   0  0  0  0  0  0  0  0  0  0  0  0
   22.6335  -17.0597  -15.8093 C   0  0  0  0  0  0  0  0  0  0  0  0
   24.8540  -20.7047  -14.5938 C   0  0  0  0  0  0  0  0  0  0  0  0
   24.5547  -21.9410  -14.4448 O   0  0  0  0  0  0  0  0  0  0  0  0
   26.0118  -20.1942  -13.9435 N   0  0  0  0  0  0  0  0  0  0  0  0
   26.7926  -21.0185  -13.0428 C   0  0  1  0  0  0  0  0  0  0  0  0
   28.2841  -20.8829  -13.3304 C   0  0  0  0  0  0  0  0  0  0  0  0
   28.7456  -19.1479  -13.0795 S   0  0  0  0  0  0  0  0  0  0  0  0
   26.5990  -20.6184  -11.6269 C   0  0  0  0  0  0  0  0  0  0  0  0
   26.6303  -19.3995  -11.3158 O   0  0  0  0  0  0  0  0  0  0  0  0
   28.5937  -20.0880   -6.8204 C   0  0  0  0  0  0  0  0  0  0  0  0
   27.5481  -19.3745   -7.6862 C   0  0  2  0  0  0  0  0  0  0  0  0
   26.2532  -19.3641   -6.9488 C   0  0  0  0  0  0  0  0  0  0  0  0
   27.5031  -20.0407   -9.0110 C   0  0  0  0  0  0  0  0  0  0  0  0
   26.5410  -21.1641   -9.1558 C   0  0  2  0  0  0  0  0  0  0  0  0
   26.3758  -21.5370  -10.5744 N   0  0  0  0  0  0  0  0  0  0  0  0
   25.2131  -20.7889   -8.6652 C   0  0  0  0  0  0  0  0  0  0  0  0
   24.9248  -20.9124   -7.4599 O   0  0  0  0  0  0  0  0  0  0  0  0
   24.2581  -20.2925   -9.5264 O   0  0  0  0  0  0  0  0  0  0  0  0
  2  1  1  6
  2 10  1  0
  3  2  1  0
  3  4  1  0
  4  9  2  0
  5  4  1  0
  5  6  2  0
  6  7  1  0
  7  8  2  0
  9  8  1  0
 10 11  2  0
 12 13  1  0
 12 10  1  0
 13 16  1  0
 13 14  1  6
 15 14  1  0
 16 23  1  0
 16 17  2  0
 19 18  1  1
 19 20  1  0
 21 19  1  0
 22 21  1  6
 22 24  1  0
 23 22  1  0
 24 25  2  0
 24 26  1  0
M  END
$$$$
