FCL.pdb
     RDKit          3D

 26 26  0  0  1  0  0  0  0  0999 V2000
   24.0174  -14.4392  -18.7660 N   0  0  0  0  0  0  0  0  0  0  0  0
   23.5019  -13.1046  -18.9735 C   0  0  1  0  0  0  0  0  0  0  0  0
   22.0056  -13.2072  -19.2141 C   0  0  0  0  0  0  0  0  0  0  0  0
   21.7369  -13.8280  -20.5298 C   0  0  0  0  0  0  0  0  0  0  0  0
   21.4039  -15.1793  -20.6329 C   0  0  0  0  0  0  0  0  0  0  0  0
   21.1636  -15.7168  -21.8618 C   0  0  0  0  0  0  0  0  0  0  0  0
   21.2436  -14.9477  -23.0083 C   0  0  0  0  0  0  0  0  0  0  0  0
   21.5715  -13.6141  -22.9156 C   0  0  0  0  0  0  0  0  0  0  0  0
   21.8116  -13.0806  -21.6784 C   0  0  0  0  0  0  0  0  0  0  0  0
   23.8509  -12.2687  -17.8262 C   0  0  0  0  0  0  0  0  0  0  0  0
   23.8845  -12.7450  -16.6377 O   0  0  0  0  0  0  0  0  0  0  0  0
   24.1615  -10.8948  -18.0254 N   0  0  0  0  0  0  0  0  0  0  0  0
   24.5794  -10.0514  -16.9234 C   0  0  1  0  0  0  0  0  0  0  0  0
   25.8270   -9.2534  -17.2870 C   0  0  0  0  0  0  0  0  0  0  0  0
   27.2382  -10.3913  -17.2841 S   0  0  0  0  0  0  0  0  0  0  0  0
   23.5350   -9.0597  -16.5655 C   0  0  0  0  0  0  0  0  0  0  0  0
   22.8601   -8.5121  -17.4756 O   0  0  0  0  0  0  0  0  0  0  0  0
   19.5272   -6.8616  -14.1950 C   0  0  0  0  0  0  0  0  0  0  0  0
   20.5601   -7.0508  -13.0773 C   0  0  2  0  0  0  0  0  0  0  0  0
   21.0641   -5.7092  -12.6691 C   0  0  0  0  0  0  0  0  0  0  0  0
   21.6055   -7.9869  -13.5589 C   0  0  0  0  0  0  0  0  0  0  0  0
   22.1557   -7.7257  -14.9145 C   0  0  2  0  0  0  0  0  0  0  0  0
   23.2376   -8.6769  -15.2364 N   0  0  0  0  0  0  0  0  0  0  0  0
   22.7394   -6.3853  -14.9984 C   0  0  0  0  0  0  0  0  0  0  0  0
   23.9196   -6.1854  -14.6545 O   0  0  0  0  0  0  0  0  0  0  0  0
   21.9951   -5.3203  -15.4590 O   0  0  0  0  0  0  0  0  0  0  0  0
  2  1  1  1
  2 10  1  0
  3  2  1  0
  3  4  1  0
  4  9  2  0
  5  4  1  0
  5  6  2  0
  6  7  1  0
  7  8  2  0
  9  8  1  0
 10 11  2  0
 12 13  1  0
 12 10  1  0
 13 16  1  0
 13 14  1  6
 15 14  1  0
 16 23  1  0
 16 17  2  0
 19 18  1  6
 19 20  1  0
 21 19  1  0
 22 21  1  1
 22 24  1  0
 23 22  1  0
 24 25  2  0
 24 26  1  0
M  END
$$$$
