FCL.pdb
     RDKit          3D

 26 26  0  0  1  0  0  0  0  0999 V2000
   29.9808  -34.5608   -0.9776 N   0  0  0  0  0  0  0  0  0  0  0  0
   28.6944  -34.3478   -0.3534 C   0  0  1  0  0  0  0  0  0  0  0  0
   28.9040  -33.4894    0.8821 C   0  0  0  0  0  0  0  0  0  0  0  0
   29.4413  -34.3068    1.9920 C   0  0  0  0  0  0  0  0  0  0  0  0
   28.6097  -35.1451    2.7359 C   0  0  0  0  0  0  0  0  0  0  0  0
   29.1398  -35.8829    3.7514 C   0  0  0  0  0  0  0  0  0  0  0  0
   30.4866  -35.8161    4.0583 C   0  0  0  0  0  0  0  0  0  0  0  0
   31.3138  -34.9919    3.3297 C   0  0  0  0  0  0  0  0  0  0  0  0
   30.7750  -34.2536    2.3111 C   0  0  0  0  0  0  0  0  0  0  0  0
   27.7786  -33.7541   -1.3259 C   0  0  0  0  0  0  0  0  0  0  0  0
   28.1754  -32.8727   -2.1662 O   0  0  0  0  0  0  0  0  0  0  0  0
   26.4149  -34.1588   -1.3460 N   0  0  0  0  0  0  0  0  0  0  0  0
   25.4859  -33.6211   -2.3198 C   0  0  1  0  0  0  0  0  0  0  0  0
   25.0328  -34.6996   -3.2981 C   0  0  0  0  0  0  0  0  0  0  0  0
   23.9344  -33.9244   -4.5143 S   0  0  0  0  0  0  0  0  0  0  0  0
   24.2574  -33.0961   -1.6737 C   0  0  0  0  0  0  0  0  0  0  0  0
   23.7707  -33.6989   -0.6821 O   0  0  0  0  0  0  0  0  0  0  0  0
   22.6177  -28.7516   -0.1872 C   0  0  0  0  0  0  0  0  0  0  0  0
   22.6739  -28.9510   -1.7067 C   0  0  2  0  0  0  0  0  0  0  0  0
   22.1993  -27.7007   -2.3641 C   0  0  0  0  0  0  0  0  0  0  0  0
   21.8956  -30.1667   -2.0490 C   0  0  0  0  0  0  0  0  0  0  0  0
   22.3558  -31.4419   -1.4400 C   0  0  2  0  0  0  0  0  0  0  0  0
   23.5773  -31.9337   -2.1068 N   0  0  0  0  0  0  0  0  0  0  0  0
   21.3467  -32.4927   -1.5889 C   0  0  0  0  0  0  0  0  0  0  0  0
   20.5247  -32.7151   -0.6800 O   0  0  0  0  0  0  0  0  0  0  0  0
   21.2871  -33.2549   -2.7359 O   0  0  0  0  0  0  0  0  0  0  0  0
  2  1  1  6
  2 10  1  0
  3  2  1  0
  3  4  1  0
  4  9  2  0
  5  4  1  0
  5  6  2  0
  6  7  1  0
  7  8  2  0
  9  8  1  0
 10 11  2  0
 12 13  1  0
 12 10  1  0
 13 16  1  0
 13 14  1  6
 15 14  1  0
 16 23  1  0
 16 17  2  0
 19 18  1  1
 19 20  1  0
 21 19  1  0
 22 21  1  6
 22 24  1  0
 23 22  1  0
 24 25  2  0
 24 26  1  0
M  END
$$$$
