FCL.pdb
     RDKit          3D

 26 26  0  0  1  0  0  0  0  0999 V2000
   29.0944   -9.9405  -18.5973 N   0  0  0  0  0  0  0  0  0  0  0  0
   27.9264  -10.3350  -17.8424 C   0  0  1  0  0  0  0  0  0  0  0  0
   28.3935  -11.0595  -16.5918 C   0  0  0  0  0  0  0  0  0  0  0  0
   28.9326  -12.3925  -16.9398 C   0  0  0  0  0  0  0  0  0  0  0  0
   28.0983  -13.5086  -17.0150 C   0  0  0  0  0  0  0  0  0  0  0  0
   28.6304  -14.7207  -17.3380 C   0  0  0  0  0  0  0  0  0  0  0  0
   29.9820  -14.8649  -17.5927 C   0  0  0  0  0  0  0  0  0  0  0  0
   30.8120  -13.7692  -17.5207 C   0  0  0  0  0  0  0  0  0  0  0  0
   30.2711  -12.5549  -17.1958 C   0  0  0  0  0  0  0  0  0  0  0  0
   27.1122   -9.1540  -17.5609 C   0  0  0  0  0  0  0  0  0  0  0  0
   27.6135   -7.9756  -17.5838 O   0  0  0  0  0  0  0  0  0  0  0  0
   25.7317   -9.3082  -17.2539 N   0  0  0  0  0  0  0  0  0  0  0  0
   24.8877   -8.1598  -16.9905 C   0  0  1  0  0  0  0  0  0  0  0  0
   24.7248   -7.3016  -18.2405 C   0  0  0  0  0  0  0  0  0  0  0  0
   24.1703   -8.3789  -19.5891 S   0  0  0  0  0  0  0  0  0  0  0  0
   23.5213   -8.5668  -16.5785 C   0  0  0  0  0  0  0  0  0  0  0  0
   23.0789   -9.6939  -16.9212 O   0  0  0  0  0  0  0  0  0  0  0  0
   19.9680  -10.3774  -13.8549 C   0  0  0  0  0  0  0  0  0  0  0  0
   21.0990   -9.7945  -12.9988 C   0  0  2  0  0  0  0  0  0  0  0  0
   20.5019   -8.8673  -11.9966 C   0  0  0  0  0  0  0  0  0  0  0  0
   22.0980   -9.1728  -13.9024 C   0  0  0  0  0  0  0  0  0  0  0  0
   21.5631   -8.3179  -14.9941 C   0  0  2  0  0  0  0  0  0  0  0  0
   22.6587   -7.7537  -15.8066 N   0  0  0  0  0  0  0  0  0  0  0  0
   20.8140   -7.1806  -14.4555 C   0  0  0  0  0  0  0  0  0  0  0  0
   19.5705   -7.2134  -14.3929 O   0  0  0  0  0  0  0  0  0  0  0  0
   21.4695   -6.0535  -14.0080 O   0  0  0  0  0  0  0  0  0  0  0  0
  2  1  1  1
  2 10  1  0
  3  2  1  0
  3  4  1  0
  4  9  2  0
  5  4  1  0
  5  6  2  0
  6  7  1  0
  7  8  2  0
  9  8  1  0
 10 11  2  0
 12 13  1  0
 12 10  1  0
 13 16  1  0
 13 14  1  6
 15 14  1  0
 16 23  1  0
 16 17  2  0
 19 18  1  6
 19 20  1  0
 21 19  1  0
 22 21  1  1
 22 24  1  0
 23 22  1  0
 24 25  2  0
 24 26  1  0
M  END
$$$$
