TSF.pdb
     RDKit          3D

 25 25  0  0  1  0  0  0  0  0999 V2000
   12.8850   -8.4931   -9.1059 C   0  0  0  0  0  0  0  0  0  0  0  0
   12.4662   -9.9096   -8.8600 C   0  0  1  0  0  0  0  0  0  0  0  0
   11.3139   -9.9715   -8.0961 O   0  0  0  0  0  0  0  0  0  0  0  0
   12.2072  -10.6572  -10.1710 C   0  0  2  0  0  0  0  0  0  0  0  0
   11.9140  -12.0458   -9.8673 N   0  0  0  0  0  0  0  0  0  0  0  0
   13.4438  -10.5783  -10.9929 C   0  0  0  0  0  0  0  0  0  0  0  0
   14.3365  -11.4550  -10.8622 O   0  0  0  0  0  0  0  0  0  0  0  0
   15.7215   -9.3545  -14.8831 O   0  0  0  0  0  0  0  0  0  0  0  0
   14.5200   -9.2262  -14.1674 C   0  0  0  0  0  0  0  0  0  0  0  0
   14.8583   -9.5020  -12.7011 C   0  0  2  0  0  0  0  0  0  0  0  0
   13.6398   -9.5347  -11.9228 N   0  0  0  0  0  0  0  0  0  0  0  0
   15.7809   -8.4365  -12.2536 C   0  0  0  0  0  0  0  0  0  0  0  0
   15.2408   -7.3491  -11.9006 O   0  0  0  0  0  0  0  0  0  0  0  0
   17.1873   -8.6224  -12.2219 N   0  0  0  0  0  0  0  0  0  0  0  0
   17.9882   -7.4816  -11.7809 C   0  0  1  0  0  0  0  0  0  0  0  0
   19.2988   -8.0842  -11.2995 C   0  0  0  0  0  0  0  0  0  0  0  0
   20.2756   -7.0496  -10.8861 C   0  0  0  0  0  0  0  0  0  0  0  0
   20.3200   -6.5744   -9.5730 C   0  0  0  0  0  0  0  0  0  0  0  0
   21.2556   -5.6272   -9.2574 C   0  0  0  0  0  0  0  0  0  0  0  0
   22.1213   -5.1652  -10.2153 C   0  0  0  0  0  0  0  0  0  0  0  0
   22.0956   -5.6173  -11.5084 C   0  0  0  0  0  0  0  0  0  0  0  0
   21.1533   -6.5750  -11.8372 C   0  0  0  0  0  0  0  0  0  0  0  0
   18.2272   -6.6480  -12.9815 C   0  0  0  0  0  0  0  0  0  0  0  0
   18.3025   -7.1509  -14.1296 O   0  0  0  0  0  0  0  0  0  0  0  0
   18.3845   -5.2544  -12.9218 O   0  0  0  0  0  0  0  0  0  0  0  0
  2  1  1  6
  3  2  1  0
  4  6  1  0
  4  2  1  0
  4  5  1  1
  6  7  2  0
  9  8  1  0
 10  9  1  6
 10 12  1  0
 11 10  1  0
 11  6  1  0
 12 13  2  0
 12 14  1  0
 14 15  1  0
 15 16  1  6
 16 17  1  0
 17 18  2  0
 18 19  1  0
 20 19  2  0
 21 20  1  0
 22 17  1  0
 22 21  2  0
 23 25  1  0
 23 15  1  0
 24 23  2  0
M  END
$$$$
