TSF.pdb
     RDKit          3D

 25 25  0  0  1  0  0  0  0  0999 V2000
   21.9293  -13.9051  -18.5035 C   0  0  0  0  0  0  0  0  0  0  0  0
   21.8720  -12.4164  -18.6558 C   0  0  1  0  0  0  0  0  0  0  0  0
   21.1554  -12.0499  -19.7816 O   0  0  0  0  0  0  0  0  0  0  0  0
   21.2210  -11.7495  -17.4409 C   0  0  2  0  0  0  0  0  0  0  0  0
   19.8075  -12.0781  -17.4287 N   0  0  0  0  0  0  0  0  0  0  0  0
   21.3886  -10.2789  -17.5836 C   0  0  0  0  0  0  0  0  0  0  0  0
   22.5368   -9.7714  -17.5029 O   0  0  0  0  0  0  0  0  0  0  0  0
   18.1733   -8.0602  -18.3333 O   0  0  0  0  0  0  0  0  0  0  0  0
   19.3365   -7.4223  -18.7940 C   0  0  0  0  0  0  0  0  0  0  0  0
   20.5001   -8.0172  -17.9985 C   0  0  2  0  0  0  0  0  0  0  0  0
   20.2806   -9.4340  -17.8092 N   0  0  0  0  0  0  0  0  0  0  0  0
   20.5768   -7.2855  -16.7158 C   0  0  0  0  0  0  0  0  0  0  0  0
   19.8132   -7.6988  -15.7964 O   0  0  0  0  0  0  0  0  0  0  0  0
   21.4538   -6.1861  -16.5271 N   0  0  0  0  0  0  0  0  0  0  0  0
   21.4224   -5.5419  -15.2151 C   0  0  1  0  0  0  0  0  0  0  0  0
   22.8161   -5.7479  -14.6427 C   0  0  0  0  0  0  0  0  0  0  0  0
   23.1271   -7.1794  -14.4201 C   0  0  0  0  0  0  0  0  0  0  0  0
   23.9974   -7.8745  -15.2637 C   0  0  0  0  0  0  0  0  0  0  0  0
   24.2494   -9.1916  -14.9924 C   0  0  0  0  0  0  0  0  0  0  0  0
   23.6562   -9.8013  -13.9169 C   0  0  0  0  0  0  0  0  0  0  0  0
   22.8001   -9.1389  -13.0769 C   0  0  0  0  0  0  0  0  0  0  0  0
   22.5391   -7.8069  -13.3427 C   0  0  0  0  0  0  0  0  0  0  0  0
   21.1862   -4.1007  -15.4612 C   0  0  0  0  0  0  0  0  0  0  0  0
   21.0556   -3.6425  -16.6231 O   0  0  0  0  0  0  0  0  0  0  0  0
   21.0927   -3.1569  -14.4265 O   0  0  0  0  0  0  0  0  0  0  0  0
  2  1  1  1
  3  2  1  0
  4  6  1  0
  4  2  1  0
  4  5  1  6
  6  7  2  0
  9  8  1  0
 10  9  1  6
 10 12  1  0
 11 10  1  0
 11  6  1  0
 12 13  2  0
 12 14  1  0
 14 15  1  0
 15 16  1  6
 16 17  1  0
 17 18  2  0
 18 19  1  0
 20 19  2  0
 21 20  1  0
 22 17  1  0
 22 21  2  0
 23 25  1  0
 23 15  1  0
 24 23  2  0
M  END
$$$$
