TSF.pdb
     RDKit          3D

 25 25  0  0  1  0  0  0  0  0999 V2000
   17.8976  -13.5430  -14.9641 C   0  0  0  0  0  0  0  0  0  0  0  0
   18.6206  -12.2605  -15.2381 C   0  0  1  0  0  0  0  0  0  0  0  0
   19.9927  -12.4293  -15.1746 O   0  0  0  0  0  0  0  0  0  0  0  0
   18.2747  -11.7021  -16.6213 C   0  0  2  0  0  0  0  0  0  0  0  0
   18.6994  -12.6552  -17.6298 N   0  0  0  0  0  0  0  0  0  0  0  0
   19.0188  -10.4268  -16.7974 C   0  0  0  0  0  0  0  0  0  0  0  0
   19.9967  -10.3795  -17.5874 O   0  0  0  0  0  0  0  0  0  0  0  0
   17.6865   -7.0490  -15.0119 O   0  0  0  0  0  0  0  0  0  0  0  0
   18.3698   -6.8494  -16.2224 C   0  0  0  0  0  0  0  0  0  0  0  0
   19.3428   -8.0210  -16.3683 C   0  0  2  0  0  0  0  0  0  0  0  0
   18.6501   -9.2604  -16.0933 N   0  0  0  0  0  0  0  0  0  0  0  0
   20.4616   -7.7842  -15.4307 C   0  0  0  0  0  0  0  0  0  0  0  0
   20.3501   -8.3182  -14.2899 O   0  0  0  0  0  0  0  0  0  0  0  0
   21.5921   -7.0050  -15.7887 N   0  0  0  0  0  0  0  0  0  0  0  0
   22.5863   -6.7752  -14.7418 C   0  0  1  0  0  0  0  0  0  0  0  0
   23.9264   -7.0533  -15.4046 C   0  0  0  0  0  0  0  0  0  0  0  0
   24.2336   -8.5015  -15.4669 C   0  0  0  0  0  0  0  0  0  0  0  0
   25.2903   -9.0530  -14.7379 C   0  0  0  0  0  0  0  0  0  0  0  0
   25.5100  -10.4002  -14.8327 C   0  0  0  0  0  0  0  0  0  0  0  0
   24.7059  -11.1771  -15.6265 C   0  0  0  0  0  0  0  0  0  0  0  0
   23.6645  -10.6575  -16.3495 C   0  0  0  0  0  0  0  0  0  0  0  0
   23.4343   -9.2966  -16.2601 C   0  0  0  0  0  0  0  0  0  0  0  0
   22.4904   -5.3423  -14.3799 C   0  0  0  0  0  0  0  0  0  0  0  0
   21.8783   -4.5185  -15.1035 O   0  0  0  0  0  0  0  0  0  0  0  0
   23.0695   -4.8103  -13.2171 O   0  0  0  0  0  0  0  0  0  0  0  0
  2  1  1  6
  3  2  1  0
  4  6  1  0
  4  2  1  0
  4  5  1  6
  6  7  2  0
  9  8  1  0
 10  9  1  1
 10 12  1  0
 11 10  1  0
 11  6  1  0
 12 13  2  0
 12 14  1  0
 14 15  1  0
 15 16  1  6
 16 17  1  0
 17 18  2  0
 18 19  1  0
 20 19  2  0
 21 20  1  0
 22 17  1  0
 22 21  2  0
 23 25  1  0
 23 15  1  0
 24 23  2  0
M  END
$$$$
