TSF.pdb
     RDKit          3D

 25 25  0  0  1  0  0  0  0  0999 V2000
   28.7199  -35.6561   -5.8394 C   0  0  0  0  0  0  0  0  0  0  0  0
   27.7065  -34.8885   -5.0481 C   0  0  1  0  0  0  0  0  0  0  0  0
   27.9885  -33.5336   -5.0432 O   0  0  0  0  0  0  0  0  0  0  0  0
   26.2934  -35.0772   -5.6069 C   0  0  2  0  0  0  0  0  0  0  0  0
   26.2591  -34.5788   -6.9695 N   0  0  0  0  0  0  0  0  0  0  0  0
   25.3599  -34.2842   -4.7637 C   0  0  0  0  0  0  0  0  0  0  0  0
   24.8409  -33.2353   -5.2251 O   0  0  0  0  0  0  0  0  0  0  0  0
   24.7675  -35.1976   -0.8514 O   0  0  0  0  0  0  0  0  0  0  0  0
   23.5984  -34.7582   -1.4935 C   0  0  0  0  0  0  0  0  0  0  0  0
   24.0513  -33.9385   -2.7034 C   0  0  2  0  0  0  0  0  0  0  0  0
   25.0411  -34.6848   -3.4483 N   0  0  0  0  0  0  0  0  0  0  0  0
   24.5830  -32.6564   -2.1931 C   0  0  0  0  0  0  0  0  0  0  0  0
   25.8287  -32.4828   -2.3236 O   0  0  0  0  0  0  0  0  0  0  0  0
   23.7466  -31.6797   -1.5933 N   0  0  0  0  0  0  0  0  0  0  0  0
   24.3995  -30.4593   -1.1226 C   0  0  1  0  0  0  0  0  0  0  0  0
   23.6905  -29.3282   -1.8509 C   0  0  0  0  0  0  0  0  0  0  0  0
   24.0873  -27.9947   -1.3413 C   0  0  0  0  0  0  0  0  0  0  0  0
   23.3454  -27.3435   -0.3525 C   0  0  0  0  0  0  0  0  0  0  0  0
   23.7760  -26.1191    0.0806 C   0  0  0  0  0  0  0  0  0  0  0  0
   24.9083  -25.5574   -0.4509 C   0  0  0  0  0  0  0  0  0  0  0  0
   25.6508  -26.1781   -1.4208 C   0  0  0  0  0  0  0  0  0  0  0  0
   25.2237  -27.4163   -1.8650 C   0  0  0  0  0  0  0  0  0  0  0  0
   24.1276  -30.3721    0.3306 C   0  0  0  0  0  0  0  0  0  0  0  0
   24.9183  -29.7940    1.1164 O   0  0  0  0  0  0  0  0  0  0  0  0
   22.9813  -30.9226    0.9250 O   0  0  0  0  0  0  0  0  0  0  0  0
  2  1  1  6
  3  2  1  0
  4  6  1  0
  4  2  1  0
  4  5  1  6
  6  7  2  0
  9  8  1  0
 10  9  1  1
 10 12  1  0
 11 10  1  0
 11  6  1  0
 12 13  2  0
 12 14  1  0
 14 15  1  0
 15 16  1  6
 16 17  1  0
 17 18  2  0
 18 19  1  0
 20 19  2  0
 21 20  1  0
 22 17  1  0
 22 21  2  0
 23 25  1  0
 23 15  1  0
 24 23  2  0
M  END
$$$$
