TSF.pdb
     RDKit          3D

 25 25  0  0  1  0  0  0  0  0999 V2000
   30.7819  -11.8971  -19.9675 C   0  0  0  0  0  0  0  0  0  0  0  0
   31.7698  -12.9178  -19.4935 C   0  0  1  0  0  0  0  0  0  0  0  0
   31.3970  -14.1962  -19.8699 O   0  0  0  0  0  0  0  0  0  0  0  0
   33.1705  -12.6486  -20.0503 C   0  0  2  0  0  0  0  0  0  0  0  0
   34.0579  -13.7124  -19.6178 N   0  0  0  0  0  0  0  0  0  0  0  0
   33.6408  -11.3520  -19.4947 C   0  0  0  0  0  0  0  0  0  0  0  0
   33.9944  -11.2815  -18.2895 O   0  0  0  0  0  0  0  0  0  0  0  0
   33.6611   -8.0092  -21.8041 O   0  0  0  0  0  0  0  0  0  0  0  0
   34.6492   -8.0123  -20.8062 C   0  0  0  0  0  0  0  0  0  0  0  0
   34.1487   -8.9489  -19.7048 C   0  0  2  0  0  0  0  0  0  0  0  0
   33.6996  -10.1906  -20.2947 N   0  0  0  0  0  0  0  0  0  0  0  0
   33.0645   -8.2450  -18.9866 C   0  0  0  0  0  0  0  0  0  0  0  0
   31.9084   -8.3519  -19.4876 O   0  0  0  0  0  0  0  0  0  0  0  0
   33.3060   -7.4948  -17.8067 N   0  0  0  0  0  0  0  0  0  0  0  0
   32.1440   -6.8630  -17.1839 C   0  0  1  0  0  0  0  0  0  0  0  0
   32.2521   -7.2103  -15.7073 C   0  0  0  0  0  0  0  0  0  0  0  0
   33.5916   -6.9030  -15.1535 C   0  0  0  0  0  0  0  0  0  0  0  0
   34.6004   -7.8688  -15.1113 C   0  0  0  0  0  0  0  0  0  0  0  0
   35.8176   -7.5131  -14.5977 C   0  0  0  0  0  0  0  0  0  0  0  0
   36.0282   -6.2378  -14.1397 C   0  0  0  0  0  0  0  0  0  0  0  0
   35.0537   -5.2753  -14.1718 C   0  0  0  0  0  0  0  0  0  0  0  0
   33.8197   -5.6252  -14.6894 C   0  0  0  0  0  0  0  0  0  0  0  0
   32.3094   -5.4033  -17.3721 C   0  0  0  0  0  0  0  0  0  0  0  0
   31.4012   -4.5916  -17.0669 O   0  0  0  0  0  0  0  0  0  0  0  0
   33.4781   -4.8311  -17.8982 O   0  0  0  0  0  0  0  0  0  0  0  0
  2  1  1  6
  3  2  1  0
  4  6  1  0
  4  2  1  0
  4  5  1  1
  6  7  2  0
  9  8  1  0
 10  9  1  6
 10 12  1  0
 11 10  1  0
 11  6  1  0
 12 13  2  0
 12 14  1  0
 14 15  1  0
 15 16  1  1
 16 17  1  0
 17 18  2  0
 18 19  1  0
 20 19  2  0
 21 20  1  0
 22 17  1  0
 22 21  2  0
 23 25  1  0
 23 15  1  0
 24 23  2  0
M  END
$$$$
