TSF.pdb
     RDKit          3D

 25 25  0  0  1  0  0  0  0  0999 V2000
   34.9062  -34.2528    7.7221 C   0  0  0  0  0  0  0  0  0  0  0  0
   34.1672  -34.0443    6.4365 C   0  0  1  0  0  0  0  0  0  0  0  0
   32.8611  -33.6462    6.6621 O   0  0  0  0  0  0  0  0  0  0  0  0
   34.8425  -32.9834    5.5629 C   0  0  2  0  0  0  0  0  0  0  0  0
   34.7687  -31.7028    6.2416 N   0  0  0  0  0  0  0  0  0  0  0  0
   34.0977  -32.9091    4.2780 C   0  0  0  0  0  0  0  0  0  0  0  0
   33.2400  -32.0051    4.1059 O   0  0  0  0  0  0  0  0  0  0  0  0
   34.7423  -35.7076    1.5280 O   0  0  0  0  0  0  0  0  0  0  0  0
   34.3103  -34.5234    0.9088 C   0  0  0  0  0  0  0  0  0  0  0  0
   33.6150  -33.6973    1.9927 C   0  0  2  0  0  0  0  0  0  0  0  0
   34.3333  -33.8364    3.2403 N   0  0  0  0  0  0  0  0  0  0  0  0
   32.2216  -34.1825    2.0910 C   0  0  0  0  0  0  0  0  0  0  0  0
   31.9988  -35.0481    2.9855 O   0  0  0  0  0  0  0  0  0  0  0  0
   31.1961  -33.7062    1.2338 N   0  0  0  0  0  0  0  0  0  0  0  0
   29.8603  -34.2636    1.4393 C   0  0  1  0  0  0  0  0  0  0  0  0
   28.9424  -33.0558    1.5449 C   0  0  0  0  0  0  0  0  0  0  0  0
   28.7299  -32.6315    2.9485 C   0  0  0  0  0  0  0  0  0  0  0  0
   27.6298  -33.0784    3.6850 C   0  0  0  0  0  0  0  0  0  0  0  0
   27.5019  -32.6564    4.9803 C   0  0  0  0  0  0  0  0  0  0  0  0
   28.4368  -31.8165    5.5287 C   0  0  0  0  0  0  0  0  0  0  0  0
   29.5228  -31.3663    4.8252 C   0  0  0  0  0  0  0  0  0  0  0  0
   29.6610  -31.7875    3.5149 C   0  0  0  0  0  0  0  0  0  0  0  0
   29.5367  -35.0378    0.2189 C   0  0  0  0  0  0  0  0  0  0  0  0
   30.3063  -35.0579   -0.7731 O   0  0  0  0  0  0  0  0  0  0  0  0
   28.3618  -35.7944    0.0864 O   0  0  0  0  0  0  0  0  0  0  0  0
  2  1  1  1
  3  2  1  0
  4  6  1  0
  4  2  1  0
  4  5  1  1
  6  7  2  0
  9  8  1  0
 10  9  1  6
 10 12  1  0
 11 10  1  0
 11  6  1  0
 12 13  2  0
 12 14  1  0
 14 15  1  0
 15 16  1  6
 16 17  1  0
 17 18  2  0
 18 19  1  0
 20 19  2  0
 21 20  1  0
 22 17  1  0
 22 21  2  0
 23 25  1  0
 23 15  1  0
 24 23  2  0
M  END
$$$$
