TSF.pdb
     RDKit          3D

 25 25  0  0  1  0  0  0  0  0999 V2000
   21.5860   -8.6914  -20.4941 C   0  0  0  0  0  0  0  0  0  0  0  0
   20.1662   -9.1536  -20.3791 C   0  0  1  0  0  0  0  0  0  0  0  0
   19.7725   -9.8633  -21.5000 O   0  0  0  0  0  0  0  0  0  0  0  0
   19.9618  -10.0494  -19.1542 C   0  0  2  0  0  0  0  0  0  0  0  0
   18.5792  -10.4895  -19.1224 N   0  0  0  0  0  0  0  0  0  0  0  0
   20.2535   -9.2385  -17.9424 C   0  0  0  0  0  0  0  0  0  0  0  0
   19.4668   -8.3168  -17.6046 O   0  0  0  0  0  0  0  0  0  0  0  0
   22.6550   -8.4989  -13.8998 O   0  0  0  0  0  0  0  0  0  0  0  0
   22.3612   -9.4121  -14.9255 C   0  0  0  0  0  0  0  0  0  0  0  0
   21.6910   -8.6084  -16.0415 C   0  0  2  0  0  0  0  0  0  0  0  0
   21.4012   -9.4814  -17.1574 N   0  0  0  0  0  0  0  0  0  0  0  0
   22.6136   -7.5134  -16.4112 C   0  0  0  0  0  0  0  0  0  0  0  0
   23.5918   -7.8377  -17.1440 O   0  0  0  0  0  0  0  0  0  0  0  0
   22.4140   -6.1794  -15.9708 N   0  0  0  0  0  0  0  0  0  0  0  0
   23.4316   -5.2036  -16.3576 C   0  0  1  0  0  0  0  0  0  0  0  0
   22.7059   -4.2138  -17.2554 C   0  0  0  0  0  0  0  0  0  0  0  0
   23.5604   -3.0630  -17.6306 C   0  0  0  0  0  0  0  0  0  0  0  0
   23.3296   -1.7861  -17.1126 C   0  0  0  0  0  0  0  0  0  0  0  0
   24.1652   -0.7714  -17.4924 C   0  0  0  0  0  0  0  0  0  0  0  0
   25.1987   -1.0157  -18.3599 C   0  0  0  0  0  0  0  0  0  0  0  0
   25.4433   -2.2595  -18.8797 C   0  0  0  0  0  0  0  0  0  0  0  0
   24.6041   -3.2919  -18.5016 C   0  0  0  0  0  0  0  0  0  0  0  0
   23.8630   -4.5312  -15.1106 C   0  0  0  0  0  0  0  0  0  0  0  0
   23.0916   -4.4057  -14.1277 O   0  0  0  0  0  0  0  0  0  0  0  0
   25.1484   -3.9932  -14.9412 O   0  0  0  0  0  0  0  0  0  0  0  0
  2  1  1  6
  3  2  1  0
  4  6  1  0
  4  2  1  0
  4  5  1  1
  6  7  2  0
  9  8  1  0
 10  9  1  1
 10 12  1  0
 11 10  1  0
 11  6  1  0
 12 13  2  0
 12 14  1  0
 14 15  1  0
 15 16  1  6
 16 17  1  0
 17 18  2  0
 18 19  1  0
 20 19  2  0
 21 20  1  0
 22 17  1  0
 22 21  2  0
 23 25  1  0
 23 15  1  0
 24 23  2  0
M  END
$$$$
