TSF.pdb
     RDKit          3D

 25 25  0  0  1  0  0  0  0  0999 V2000
   20.9439   -9.1215  -20.5593 C   0  0  0  0  0  0  0  0  0  0  0  0
   19.9800  -10.1465  -20.0466 C   0  0  1  0  0  0  0  0  0  0  0  0
   19.7714  -11.1533  -20.9729 O   0  0  0  0  0  0  0  0  0  0  0  0
   20.4779  -10.7905  -18.7497 C   0  0  2  0  0  0  0  0  0  0  0  0
   19.5447  -11.8297  -18.3555 N   0  0  0  0  0  0  0  0  0  0  0  0
   20.5185   -9.7353  -17.7029 C   0  0  0  0  0  0  0  0  0  0  0  0
   19.4441   -9.2432  -17.2715 O   0  0  0  0  0  0  0  0  0  0  0  0
   24.0757   -8.3621  -16.3855 O   0  0  0  0  0  0  0  0  0  0  0  0
   23.0502   -8.1787  -15.4438 C   0  0  0  0  0  0  0  0  0  0  0  0
   21.7369   -8.1799  -16.2287 C   0  0  2  0  0  0  0  0  0  0  0  0
   21.7438   -9.2702  -17.1788 N   0  0  0  0  0  0  0  0  0  0  0  0
   21.6166   -6.8620  -16.8886 C   0  0  0  0  0  0  0  0  0  0  0  0
   22.0267   -6.8019  -18.0833 O   0  0  0  0  0  0  0  0  0  0  0  0
   21.0740   -5.7328  -16.2224 N   0  0  0  0  0  0  0  0  0  0  0  0
   21.0107   -4.4892  -16.9884 C   0  0  1  0  0  0  0  0  0  0  0  0
   19.9786   -4.7489  -18.0746 C   0  0  0  0  0  0  0  0  0  0  0  0
   19.6219   -3.5177  -18.8178 C   0  0  0  0  0  0  0  0  0  0  0  0
   18.3904   -2.8852  -18.6293 C   0  0  0  0  0  0  0  0  0  0  0  0
   18.1316   -1.7448  -19.3397 C   0  0  0  0  0  0  0  0  0  0  0  0
   19.0660   -1.2466  -20.2109 C   0  0  0  0  0  0  0  0  0  0  0  0
   20.2796   -1.8502  -20.4110 C   0  0  0  0  0  0  0  0  0  0  0  0
   20.5507   -3.0036  -19.6972 C   0  0  0  0  0  0  0  0  0  0  0  0
   20.5137   -3.4491  -16.0586 C   0  0  0  0  0  0  0  0  0  0  0  0
   19.8144   -3.7392  -15.0567 O   0  0  0  0  0  0  0  0  0  0  0  0
   20.7855   -2.0826  -16.2293 O   0  0  0  0  0  0  0  0  0  0  0  0
  2  1  1  6
  3  2  1  0
  4  6  1  0
  4  2  1  0
  4  5  1  1
  6  7  2  0
  9  8  1  0
 10  9  1  6
 10 12  1  0
 11 10  1  0
 11  6  1  0
 12 13  2  0
 12 14  1  0
 14 15  1  0
 15 16  1  6
 16 17  1  0
 17 18  2  0
 18 19  1  0
 20 19  2  0
 21 20  1  0
 22 17  1  0
 22 21  2  0
 23 25  1  0
 23 15  1  0
 24 23  2  0
M  END
$$$$
