TSF.pdb
     RDKit          3D

 25 25  0  0  1  0  0  0  0  0999 V2000
   28.9168  -18.2821  -15.9564 C   0  0  0  0  0  0  0  0  0  0  0  0
   28.1873  -18.7626  -14.7400 C   0  0  1  0  0  0  0  0  0  0  0  0
   28.7560  -18.2669  -13.5799 O   0  0  0  0  0  0  0  0  0  0  0  0
   26.7146  -18.3439  -14.7631 C   0  0  2  0  0  0  0  0  0  0  0  0
   26.6411  -16.8985  -14.8697 N   0  0  0  0  0  0  0  0  0  0  0  0
   26.0963  -18.7804  -13.4832 C   0  0  0  0  0  0  0  0  0  0  0  0
   25.6878  -17.9190  -12.6624 O   0  0  0  0  0  0  0  0  0  0  0  0
   25.6297  -22.7212  -12.7296 O   0  0  0  0  0  0  0  0  0  0  0  0
   24.5903  -21.9241  -12.2232 C   0  0  0  0  0  0  0  0  0  0  0  0
   25.1808  -20.5294  -12.0068 C   0  0  2  0  0  0  0  0  0  0  0  0
   25.9566  -20.1488  -13.1665 N   0  0  0  0  0  0  0  0  0  0  0  0
   26.0006  -20.5838  -10.7772 C   0  0  0  0  0  0  0  0  0  0  0  0
   27.2531  -20.6159  -10.9481 O   0  0  0  0  0  0  0  0  0  0  0  0
   25.4178  -20.5990   -9.4836 N   0  0  0  0  0  0  0  0  0  0  0  0
   26.3233  -20.8370   -8.3608 C   0  0  1  0  0  0  0  0  0  0  0  0
   27.0039  -19.4996   -8.1144 C   0  0  0  0  0  0  0  0  0  0  0  0
   27.7584  -19.4786   -6.8394 C   0  0  0  0  0  0  0  0  0  0  0  0
   27.1309  -19.1786   -5.6276 C   0  0  0  0  0  0  0  0  0  0  0  0
   27.8857  -19.1891   -4.4865 C   0  0  0  0  0  0  0  0  0  0  0  0
   29.2227  -19.4881   -4.5452 C   0  0  0  0  0  0  0  0  0  0  0  0
   29.8581  -19.7852   -5.7221 C   0  0  0  0  0  0  0  0  0  0  0  0
   29.1035  -19.7774   -6.8813 C   0  0  0  0  0  0  0  0  0  0  0  0
   25.4710  -21.1902   -7.2023 C   0  0  0  0  0  0  0  0  0  0  0  0
   24.2549  -20.8802   -7.1590 O   0  0  0  0  0  0  0  0  0  0  0  0
   25.9558  -21.8877   -6.0849 O   0  0  0  0  0  0  0  0  0  0  0  0
  2  1  1  6
  3  2  1  0
  4  6  1  0
  4  2  1  0
  4  5  1  1
  6  7  2  0
  9  8  1  0
 10  9  1  6
 10 12  1  0
 11 10  1  0
 11  6  1  0
 12 13  2  0
 12 14  1  0
 14 15  1  0
 15 16  1  1
 16 17  1  0
 17 18  2  0
 18 19  1  0
 20 19  2  0
 21 20  1  0
 22 17  1  0
 22 21  2  0
 23 25  1  0
 23 15  1  0
 24 23  2  0
M  END
$$$$
