TSF.pdb
     RDKit          3D

 25 25  0  0  1  0  0  0  0  0999 V2000
   19.0068  -15.5193  -18.5178 C   0  0  0  0  0  0  0  0  0  0  0  0
   19.0024  -14.0289  -18.3716 C   0  0  1  0  0  0  0  0  0  0  0  0
   18.6665  -13.4046  -19.5600 O   0  0  0  0  0  0  0  0  0  0  0  0
   18.0118  -13.5701  -17.2979 C   0  0  2  0  0  0  0  0  0  0  0  0
   16.6689  -13.6286  -17.8452 N   0  0  0  0  0  0  0  0  0  0  0  0
   18.3431  -12.1648  -16.9422 C   0  0  0  0  0  0  0  0  0  0  0  0
   19.5468  -11.8049  -16.8787 O   0  0  0  0  0  0  0  0  0  0  0  0
   15.4839   -9.5694  -15.6076 O   0  0  0  0  0  0  0  0  0  0  0  0
   16.4698   -8.9622  -16.4023 C   0  0  0  0  0  0  0  0  0  0  0  0
   17.7026   -9.8652  -16.3272 C   0  0  2  0  0  0  0  0  0  0  0  0
   17.3304  -11.2194  -16.6725 N   0  0  0  0  0  0  0  0  0  0  0  0
   18.2396   -9.7646  -14.9531 C   0  0  0  0  0  0  0  0  0  0  0  0
   17.8298  -10.6360  -14.1335 O   0  0  0  0  0  0  0  0  0  0  0  0
   19.1592   -8.7518  -14.5761 N   0  0  0  0  0  0  0  0  0  0  0  0
   19.5784   -8.7370  -13.1757 C   0  0  1  0  0  0  0  0  0  0  0  0
   21.0858   -8.5412  -13.2187 C   0  0  0  0  0  0  0  0  0  0  0  0
   21.4713   -7.2912  -13.9146 C   0  0  0  0  0  0  0  0  0  0  0  0
   21.5523   -6.0743  -13.2328 C   0  0  0  0  0  0  0  0  0  0  0  0
   21.9263   -4.9612  -13.9350 C   0  0  0  0  0  0  0  0  0  0  0  0
   22.2113   -5.0520  -15.2732 C   0  0  0  0  0  0  0  0  0  0  0  0
   22.1385   -6.2345  -15.9614 C   0  0  0  0  0  0  0  0  0  0  0  0
   21.7615   -7.3656  -15.2601 C   0  0  0  0  0  0  0  0  0  0  0  0
   18.9337   -7.5556  -12.5575 C   0  0  0  0  0  0  0  0  0  0  0  0
   18.3878   -6.6630  -13.2519 O   0  0  0  0  0  0  0  0  0  0  0  0
   18.8879   -7.3525  -11.1694 O   0  0  0  0  0  0  0  0  0  0  0  0
  2  1  1  6
  3  2  1  0
  4  6  1  0
  4  2  1  0
  4  5  1  6
  6  7  2  0
  9  8  1  0
 10  9  1  1
 10 12  1  0
 11 10  1  0
 11  6  1  0
 12 13  2  0
 12 14  1  0
 14 15  1  0
 15 16  1  6
 16 17  1  0
 17 18  2  0
 18 19  1  0
 20 19  2  0
 21 20  1  0
 22 17  1  0
 22 21  2  0
 23 25  1  0
 23 15  1  0
 24 23  2  0
M  END
$$$$
