EIV.pdb
     RDKit          3D

 25 24  0  0  1  0  0  0  0  0999 V2000
    7.8225  -14.5838   20.2073 N   0  0  0  0  0  0  0  0  0  0  0  0
    7.2792  -15.1630   21.3856 C   0  0  1  0  0  0  0  0  0  0  0  0
    7.0887  -16.6557   21.3543 C   0  0  0  0  0  0  0  0  0  0  0  0
    6.6206  -17.2526   20.0884 C   0  0  0  0  0  0  0  0  0  0  0  0
    6.2731  -18.6598   20.0678 C   0  0  0  0  0  0  0  0  0  0  0  0
    5.8625  -19.2640   19.0715 O   0  0  0  0  0  0  0  0  0  0  0  0
    8.0294  -14.8846   22.6345 C   0  0  0  0  0  0  0  0  0  0  0  0
    9.2838  -14.8538   22.5406 O   0  0  0  0  0  0  0  0  0  0  0  0
    6.4038  -19.3993   21.2411 O   0  0  0  0  0  0  0  0  0  0  0  0
    5.6981  -11.6684   26.2783 C   0  0  0  0  0  0  0  0  0  0  0  0
    6.7121  -12.3010   25.3045 C   0  0  0  0  0  0  0  0  0  0  0  0
    7.2923  -13.5025   25.9490 C   0  0  2  0  0  0  0  0  0  0  0  0
    7.9150  -13.2095   27.3000 C   0  0  0  0  0  0  0  0  0  0  0  0
    8.2263  -14.3107   25.0771 C   0  0  2  0  0  0  0  0  0  0  0  0
    7.4272  -14.6600   23.8749 N   0  0  0  0  0  0  0  0  0  0  0  0
    8.7062  -15.5515   25.6821 C   0  0  0  0  0  0  0  0  0  0  0  0
    7.8457  -16.4494   25.9990 O   0  0  0  0  0  0  0  0  0  0  0  0
   11.6040  -17.7622   24.3231 C   0  0  0  0  0  0  0  0  0  0  0  0
   11.7509  -17.6438   25.8046 C   0  0  2  0  0  0  0  0  0  0  0  0
   12.2572  -18.9509   26.3618 C   0  0  0  0  0  0  0  0  0  0  0  0
   10.4513  -17.2196   26.4378 C   0  0  2  0  0  0  0  0  0  0  0  0
   10.0408  -15.8975   25.9672 N   0  0  0  0  0  0  0  0  0  0  0  0
   10.5419  -17.2421   27.9214 C   0  0  0  0  0  0  0  0  0  0  0  0
   10.5298  -18.4178   28.6606 O   0  0  0  0  0  0  0  0  0  0  0  0
   10.6341  -16.1607   28.5532 O   0  0  0  0  0  0  0  0  0  0  0  0
  2  1  1  6
  2  3  1  0
  3  4  1  0
  4  5  1  0
  5  6  2  0
  7  2  1  0
  7  8  2  0
  9  5  1  0
 10 11  1  0
 11 12  1  0
 12 14  1  0
 12 13  1  1
 14 15  1  6
 15  7  1  0
 16 14  1  0
 17 16  2  0
 19 21  1  0
 19 18  1  6
 20 19  1  0
 21 22  1  6
 22 16  1  0
 23 21  1  0
 24 23  1  0
 25 23  2  0
M  END
$$$$
