EIV.pdb
     RDKit          3D

 25 24  0  0  1  0  0  0  0  0999 V2000
   10.2996  -17.9843   17.1768 N   0  0  0  0  0  0  0  0  0  0  0  0
    9.2844  -17.9190   18.1688 C   0  0  1  0  0  0  0  0  0  0  0  0
    8.8553  -19.2371   18.7552 C   0  0  0  0  0  0  0  0  0  0  0  0
    9.9182  -20.1872   19.1365 C   0  0  0  0  0  0  0  0  0  0  0  0
    9.5394  -21.5055   19.6058 C   0  0  0  0  0  0  0  0  0  0  0  0
    9.1420  -21.7531   20.7491 O   0  0  0  0  0  0  0  0  0  0  0  0
    9.5860  -17.0471   19.3303 C   0  0  0  0  0  0  0  0  0  0  0  0
   10.7769  -17.0456   19.7364 O   0  0  0  0  0  0  0  0  0  0  0  0
    9.6219  -22.5799   18.7230 O   0  0  0  0  0  0  0  0  0  0  0  0
    6.7428  -12.4717   19.8190 C   0  0  0  0  0  0  0  0  0  0  0  0
    7.9219  -13.4619   19.7431 C   0  0  0  0  0  0  0  0  0  0  0  0
    7.9843  -14.2133   21.0188 C   0  0  2  0  0  0  0  0  0  0  0  0
    8.0828  -13.3125   22.2344 C   0  0  0  0  0  0  0  0  0  0  0  0
    9.0195  -15.3142   21.0653 C   0  0  2  0  0  0  0  0  0  0  0  0
    8.6384  -16.2491   19.9760 N   0  0  0  0  0  0  0  0  0  0  0  0
    9.0568  -16.0651   22.3185 C   0  0  0  0  0  0  0  0  0  0  0  0
    8.0003  -16.6947   22.6852 O   0  0  0  0  0  0  0  0  0  0  0  0
   12.5470  -17.4446   24.3390 C   0  0  0  0  0  0  0  0  0  0  0  0
   11.1913  -18.0701   24.3747 C   0  0  2  0  0  0  0  0  0  0  0  0
   11.0394  -18.9994   23.1962 C   0  0  0  0  0  0  0  0  0  0  0  0
   10.1170  -17.0143   24.4099 C   0  0  2  0  0  0  0  0  0  0  0  0
   10.1456  -16.1906   23.2022 N   0  0  0  0  0  0  0  0  0  0  0  0
   10.2348  -16.1658   25.6248 C   0  0  0  0  0  0  0  0  0  0  0  0
    9.9938  -16.6445   26.9060 O   0  0  0  0  0  0  0  0  0  0  0  0
   10.5655  -14.9598   25.5089 O   0  0  0  0  0  0  0  0  0  0  0  0
  2  1  1  6
  2  3  1  0
  3  4  1  0
  4  5  1  0
  5  6  2  0
  7  2  1  0
  7  8  2  0
  9  5  1  0
 10 11  1  0
 11 12  1  0
 12 14  1  0
 12 13  1  1
 14 15  1  6
 15  7  1  0
 16 14  1  0
 17 16  2  0
 19 21  1  0
 19 18  1  6
 20 19  1  0
 21 22  1  6
 22 16  1  0
 23 21  1  0
 24 23  1  0
 25 23  2  0
M  END
$$$$
