EIV.pdb
     RDKit          3D

 25 24  0  0  1  0  0  0  0  0999 V2000
    7.6695  -15.2516   20.7465 N   0  0  0  0  0  0  0  0  0  0  0  0
    7.3369  -15.7775   22.0239 C   0  0  1  0  0  0  0  0  0  0  0  0
    7.4032  -17.2756   22.1534 C   0  0  0  0  0  0  0  0  0  0  0  0
    6.7177  -18.0760   21.1204 C   0  0  0  0  0  0  0  0  0  0  0  0
    6.8034  -19.5216   21.1877 C   0  0  0  0  0  0  0  0  0  0  0  0
    6.2958  -20.2911   20.3653 O   0  0  0  0  0  0  0  0  0  0  0  0
    8.1325  -15.2454   23.1569 C   0  0  0  0  0  0  0  0  0  0  0  0
    9.3460  -15.0055   22.9266 O   0  0  0  0  0  0  0  0  0  0  0  0
    7.5014  -20.1027   22.2440 O   0  0  0  0  0  0  0  0  0  0  0  0
    5.9764  -11.5553   26.0910 C   0  0  0  0  0  0  0  0  0  0  0  0
    7.0096  -12.3785   25.2964 C   0  0  0  0  0  0  0  0  0  0  0  0
    7.5786  -13.4089   26.1966 C   0  0  2  0  0  0  0  0  0  0  0  0
    8.2628  -12.8207   27.4151 C   0  0  0  0  0  0  0  0  0  0  0  0
    8.4526  -14.4404   25.5199 C   0  0  2  0  0  0  0  0  0  0  0  0
    7.6137  -15.0034   24.4312 N   0  0  0  0  0  0  0  0  0  0  0  0
    8.8788  -15.5404   26.3825 C   0  0  0  0  0  0  0  0  0  0  0  0
    7.9818  -16.3206   26.8660 O   0  0  0  0  0  0  0  0  0  0  0  0
   12.9293  -16.9718   26.9444 C   0  0  0  0  0  0  0  0  0  0  0  0
   11.6853  -17.7980   26.9642 C   0  0  2  0  0  0  0  0  0  0  0  0
   11.3754  -18.2665   25.5642 C   0  0  0  0  0  0  0  0  0  0  0  0
   10.5426  -17.0279   27.5734 C   0  0  2  0  0  0  0  0  0  0  0  0
   10.1963  -15.8637   26.7594 N   0  0  0  0  0  0  0  0  0  0  0  0
   10.8520  -16.6177   28.9683 C   0  0  0  0  0  0  0  0  0  0  0  0
   10.9311  -15.2889   29.3643 O   0  0  0  0  0  0  0  0  0  0  0  0
   11.0542  -17.4964   29.8425 O   0  0  0  0  0  0  0  0  0  0  0  0
  2  1  1  6
  2  3  1  0
  3  4  1  0
  4  5  1  0
  5  6  2  0
  7  2  1  0
  7  8  2  0
  9  5  1  0
 10 11  1  0
 11 12  1  0
 12 14  1  0
 12 13  1  1
 14 15  1  6
 15  7  1  0
 16 14  1  0
 17 16  2  0
 19 21  1  0
 19 18  1  6
 20 19  1  0
 21 22  1  6
 22 16  1  0
 23 21  1  0
 24 23  1  0
 25 23  2  0
M  END
$$$$
