EIV.pdb
     RDKit          3D

 25 24  0  0  1  0  0  0  0  0999 V2000
    8.1648  -17.9613   20.9240 N   0  0  0  0  0  0  0  0  0  0  0  0
    7.8992  -17.8480   22.3152 C   0  0  1  0  0  0  0  0  0  0  0  0
    8.3724  -18.9942   23.1682 C   0  0  0  0  0  0  0  0  0  0  0  0
    9.7033  -19.5571   22.8691 C   0  0  0  0  0  0  0  0  0  0  0  0
   10.4195  -20.2507   23.9215 C   0  0  0  0  0  0  0  0  0  0  0  0
   11.3502  -19.7639   24.5720 O   0  0  0  0  0  0  0  0  0  0  0  0
    8.4282  -16.6243   22.9655 C   0  0  0  0  0  0  0  0  0  0  0  0
    9.4942  -16.1531   22.4914 O   0  0  0  0  0  0  0  0  0  0  0  0
   10.0485  -21.5560   24.2363 O   0  0  0  0  0  0  0  0  0  0  0  0
    6.0250  -12.1583   26.3375 C   0  0  0  0  0  0  0  0  0  0  0  0
    7.3040  -12.6349   25.6210 C   0  0  0  0  0  0  0  0  0  0  0  0
    7.1450  -14.0695   25.2855 C   0  0  2  0  0  0  0  0  0  0  0  0
    6.6931  -14.9086   26.4647 C   0  0  0  0  0  0  0  0  0  0  0  0
    8.3266  -14.6992   24.5835 C   0  0  2  0  0  0  0  0  0  0  0  0
    7.8163  -15.9870   24.0476 N   0  0  0  0  0  0  0  0  0  0  0  0
    9.4692  -14.9860   25.4484 C   0  0  0  0  0  0  0  0  0  0  0  0
   10.6320  -14.5907   25.0758 O   0  0  0  0  0  0  0  0  0  0  0  0
    9.6507  -15.0061   29.4737 C   0  0  0  0  0  0  0  0  0  0  0  0
   10.8541  -15.0288   28.5894 C   0  0  2  0  0  0  0  0  0  0  0  0
   11.1515  -13.6279   28.1155 C   0  0  0  0  0  0  0  0  0  0  0  0
   10.6572  -15.9880   27.4443 C   0  0  2  0  0  0  0  0  0  0  0  0
    9.4520  -15.6621   26.6832 N   0  0  0  0  0  0  0  0  0  0  0  0
   10.6101  -17.3950   27.9217 C   0  0  0  0  0  0  0  0  0  0  0  0
   11.6522  -17.9901   28.6207 O   0  0  0  0  0  0  0  0  0  0  0  0
    9.5917  -18.0934   27.6930 O   0  0  0  0  0  0  0  0  0  0  0  0
  2  1  1  6
  2  3  1  0
  3  4  1  0
  4  5  1  0
  5  6  2  0
  7  2  1  0
  7  8  2  0
  9  5  1  0
 10 11  1  0
 11 12  1  0
 12 14  1  0
 12 13  1  1
 14 15  1  1
 15  7  1  0
 16 14  1  0
 17 16  2  0
 19 21  1  0
 19 18  1  6
 20 19  1  0
 21 22  1  1
 22 16  1  0
 23 21  1  0
 24 23  1  0
 25 23  2  0
M  END
$$$$
