EIV.pdb
     RDKit          3D

 25 24  0  0  1  0  0  0  0  0999 V2000
    8.0110  -14.9044   20.4311 N   0  0  0  0  0  0  0  0  0  0  0  0
    7.6041  -15.5085   21.6511 C   0  0  1  0  0  0  0  0  0  0  0  0
    7.6678  -17.0117   21.6913 C   0  0  0  0  0  0  0  0  0  0  0  0
    7.3896  -17.7355   20.4358 C   0  0  0  0  0  0  0  0  0  0  0  0
    8.2213  -18.8703   20.0861 C   0  0  0  0  0  0  0  0  0  0  0  0
    8.8917  -18.9533   19.0518 O   0  0  0  0  0  0  0  0  0  0  0  0
    8.3285  -15.0479   22.8608 C   0  0  0  0  0  0  0  0  0  0  0  0
    9.5716  -14.8917   22.7448 O   0  0  0  0  0  0  0  0  0  0  0  0
    8.2826  -19.9511   20.9629 O   0  0  0  0  0  0  0  0  0  0  0  0
    5.8253  -11.5877   26.0197 C   0  0  0  0  0  0  0  0  0  0  0  0
    6.9158  -12.2790   25.1775 C   0  0  0  0  0  0  0  0  0  0  0  0
    7.5122  -13.3673   25.9871 C   0  0  2  0  0  0  0  0  0  0  0  0
    8.1030  -12.8788   27.2953 C   0  0  0  0  0  0  0  0  0  0  0  0
    8.4808  -14.2612   25.2466 C   0  0  2  0  0  0  0  0  0  0  0  0
    7.7141  -14.7854   24.0876 N   0  0  0  0  0  0  0  0  0  0  0  0
    8.9745  -15.3994   26.0191 C   0  0  0  0  0  0  0  0  0  0  0  0
    8.1234  -16.2500   26.4656 O   0  0  0  0  0  0  0  0  0  0  0  0
   12.1887  -17.5356   25.1153 C   0  0  0  0  0  0  0  0  0  0  0  0
   12.1249  -17.3205   26.5918 C   0  0  2  0  0  0  0  0  0  0  0  0
   12.5982  -18.5664   27.2984 C   0  0  0  0  0  0  0  0  0  0  0  0
   10.7351  -16.9195   27.0133 C   0  0  2  0  0  0  0  0  0  0  0  0
   10.3134  -15.6905   26.3428 N   0  0  0  0  0  0  0  0  0  0  0  0
   10.6419  -16.7687   28.4892 C   0  0  0  0  0  0  0  0  0  0  0  0
   10.4511  -17.8439   29.3473 O   0  0  0  0  0  0  0  0  0  0  0  0
   10.7375  -15.6267   29.0029 O   0  0  0  0  0  0  0  0  0  0  0  0
  2  1  1  6
  2  3  1  0
  3  4  1  0
  4  5  1  0
  5  6  2  0
  7  2  1  0
  7  8  2  0
  9  5  1  0
 10 11  1  0
 11 12  1  0
 12 14  1  0
 12 13  1  1
 14 15  1  6
 15  7  1  0
 16 14  1  0
 17 16  2  0
 19 21  1  0
 19 18  1  6
 20 19  1  0
 21 22  1  6
 22 16  1  0
 23 21  1  0
 24 23  1  0
 25 23  2  0
M  END
$$$$
