EIV.pdb
     RDKit          3D

 25 24  0  0  1  0  0  0  0  0999 V2000
    7.6329  -13.4985   20.0843 N   0  0  0  0  0  0  0  0  0  0  0  0
    7.4045  -14.5534   21.0084 C   0  0  1  0  0  0  0  0  0  0  0  0
    7.7523  -15.9355   20.5244 C   0  0  0  0  0  0  0  0  0  0  0  0
    7.5351  -17.0558   21.4600 C   0  0  0  0  0  0  0  0  0  0  0  0
    7.7740  -18.4082   20.9957 C   0  0  0  0  0  0  0  0  0  0  0  0
    7.5365  -19.4258   21.6548 O   0  0  0  0  0  0  0  0  0  0  0  0
    8.0847  -14.4088   22.3186 C   0  0  0  0  0  0  0  0  0  0  0  0
    9.3163  -14.1533   22.2862 O   0  0  0  0  0  0  0  0  0  0  0  0
    8.3073  -18.5949   19.7224 O   0  0  0  0  0  0  0  0  0  0  0  0
    5.7547  -11.5308   25.9564 C   0  0  0  0  0  0  0  0  0  0  0  0
    6.7778  -12.2119   25.0260 C   0  0  0  0  0  0  0  0  0  0  0  0
    7.2279  -13.4697   25.6672 C   0  0  2  0  0  0  0  0  0  0  0  0
    7.7759  -13.2605   27.0654 C   0  0  0  0  0  0  0  0  0  0  0  0
    8.1609  -14.3175   24.8326 C   0  0  2  0  0  0  0  0  0  0  0  0
    7.4415  -14.5376   23.5520 N   0  0  0  0  0  0  0  0  0  0  0  0
    8.4786  -15.6231   25.4074 C   0  0  0  0  0  0  0  0  0  0  0  0
    7.5100  -16.3849   25.7660 O   0  0  0  0  0  0  0  0  0  0  0  0
   12.4282  -17.4436   25.8190 C   0  0  0  0  0  0  0  0  0  0  0  0
   11.1597  -18.1763   25.5282 C   0  0  2  0  0  0  0  0  0  0  0  0
   10.9835  -18.2955   24.0348 C   0  0  0  0  0  0  0  0  0  0  0  0
    9.9876  -17.4973   26.1878 C   0  0  2  0  0  0  0  0  0  0  0  0
    9.7586  -16.1691   25.6210 N   0  0  0  0  0  0  0  0  0  0  0  0
   10.1724  -17.4129   27.6604 C   0  0  0  0  0  0  0  0  0  0  0  0
   10.1308  -18.5250   28.4913 O   0  0  0  0  0  0  0  0  0  0  0  0
   10.3763  -16.2957   28.1966 O   0  0  0  0  0  0  0  0  0  0  0  0
  2  1  1  6
  2  3  1  0
  3  4  1  0
  4  5  1  0
  5  6  2  0
  7  2  1  0
  7  8  2  0
  9  5  1  0
 10 11  1  0
 11 12  1  0
 12 14  1  0
 12 13  1  1
 14 15  1  6
 15  7  1  0
 16 14  1  0
 17 16  2  0
 19 21  1  0
 19 18  1  6
 20 19  1  0
 21 22  1  6
 22 16  1  0
 23 21  1  0
 24 23  1  0
 25 23  2  0
M  END
$$$$
