EIV.pdb
     RDKit          3D

 25 24  0  0  1  0  0  0  0  0999 V2000
    8.4550  -15.0957   20.6379 N   0  0  0  0  0  0  0  0  0  0  0  0
    7.9264  -15.6868   21.8169 C   0  0  1  0  0  0  0  0  0  0  0  0
    7.9370  -17.1914   21.8572 C   0  0  0  0  0  0  0  0  0  0  0  0
    7.3370  -17.9041   20.7127 C   0  0  0  0  0  0  0  0  0  0  0  0
    7.1654  -19.3410   20.7986 C   0  0  0  0  0  0  0  0  0  0  0  0
    7.4851  -20.0261   21.7756 O   0  0  0  0  0  0  0  0  0  0  0  0
    8.5601  -15.2512   23.0853 C   0  0  0  0  0  0  0  0  0  0  0  0
    9.8005  -15.0431   23.0501 O   0  0  0  0  0  0  0  0  0  0  0  0
    6.6035  -20.0143   19.7162 O   0  0  0  0  0  0  0  0  0  0  0  0
    5.8332  -11.9804   26.2953 C   0  0  0  0  0  0  0  0  0  0  0  0
    6.9638  -12.6261   25.4700 C   0  0  0  0  0  0  0  0  0  0  0  0
    7.5166  -13.7629   26.2432 C   0  0  2  0  0  0  0  0  0  0  0  0
    8.0052  -13.3619   27.6215 C   0  0  0  0  0  0  0  0  0  0  0  0
    8.5485  -14.5934   25.5145 C   0  0  2  0  0  0  0  0  0  0  0  0
    7.8655  -15.0649   24.2829 N   0  0  0  0  0  0  0  0  0  0  0  0
    9.0210  -15.7643   26.2506 C   0  0  0  0  0  0  0  0  0  0  0  0
    8.1540  -16.6107   26.6737 O   0  0  0  0  0  0  0  0  0  0  0  0
   13.1638  -16.9672   26.8726 C   0  0  0  0  0  0  0  0  0  0  0  0
   12.0143  -17.8918   26.6399 C   0  0  2  0  0  0  0  0  0  0  0  0
   11.8817  -18.1606   25.1615 C   0  0  0  0  0  0  0  0  0  0  0  0
   10.7484  -17.3297   27.2327 C   0  0  2  0  0  0  0  0  0  0  0  0
   10.3545  -16.0920   26.5612 N   0  0  0  0  0  0  0  0  0  0  0  0
   10.8901  -17.1089   28.6959 C   0  0  0  0  0  0  0  0  0  0  0  0
   11.0559  -18.1472   29.6033 O   0  0  0  0  0  0  0  0  0  0  0  0
   10.8612  -15.9392   29.1519 O   0  0  0  0  0  0  0  0  0  0  0  0
  2  1  1  6
  2  3  1  0
  3  4  1  0
  4  5  1  0
  5  6  2  0
  7  2  1  0
  7  8  2  0
  9  5  1  0
 10 11  1  0
 11 12  1  0
 12 14  1  0
 12 13  1  1
 14 15  1  6
 15  7  1  0
 16 14  1  0
 17 16  2  0
 19 21  1  0
 19 18  1  6
 20 19  1  0
 21 22  1  6
 22 16  1  0
 23 21  1  0
 24 23  1  0
 25 23  2  0
M  END
$$$$
