EIV.pdb
     RDKit          3D

 25 24  0  0  1  0  0  0  0  0999 V2000
    7.5367  -14.2447   20.0792 N   0  0  0  0  0  0  0  0  0  0  0  0
    6.9692  -14.7519   21.2790 C   0  0  1  0  0  0  0  0  0  0  0  0
    6.5946  -16.2096   21.2616 C   0  0  0  0  0  0  0  0  0  0  0  0
    7.6432  -17.1741   20.8771 C   0  0  0  0  0  0  0  0  0  0  0  0
    7.2883  -18.5733   20.7434 C   0  0  0  0  0  0  0  0  0  0  0  0
    6.1298  -19.0018   20.7226 O   0  0  0  0  0  0  0  0  0  0  0  0
    7.7927  -14.5680   22.4988 C   0  0  0  0  0  0  0  0  0  0  0  0
    9.0374  -14.4944   22.3296 O   0  0  0  0  0  0  0  0  0  0  0  0
    8.3085  -19.5151   20.6292 O   0  0  0  0  0  0  0  0  0  0  0  0
    6.0370  -11.3726   26.3454 C   0  0  0  0  0  0  0  0  0  0  0  0
    6.9761  -12.0757   25.3452 C   0  0  0  0  0  0  0  0  0  0  0  0
    7.3559  -13.3931   25.9074 C   0  0  2  0  0  0  0  0  0  0  0  0
    8.0232  -13.2893   27.2649 C   0  0  0  0  0  0  0  0  0  0  0  0
    8.1428  -14.2860   24.9751 C   0  0  2  0  0  0  0  0  0  0  0  0
    7.2677  -14.4741   23.7900 N   0  0  0  0  0  0  0  0  0  0  0  0
    8.4644  -15.6041   25.5183 C   0  0  0  0  0  0  0  0  0  0  0  0
    7.4979  -16.3842   25.8414 O   0  0  0  0  0  0  0  0  0  0  0  0
   12.2561  -17.5958   25.3072 C   0  0  0  0  0  0  0  0  0  0  0  0
   10.9210  -18.2622   25.3688 C   0  0  2  0  0  0  0  0  0  0  0  0
   10.3804  -18.4266   23.9702 C   0  0  0  0  0  0  0  0  0  0  0  0
    9.9795  -17.4904   26.2566 C   0  0  2  0  0  0  0  0  0  0  0  0
    9.7462  -16.1442   25.7359 N   0  0  0  0  0  0  0  0  0  0  0  0
   10.4832  -17.4310   27.6539 C   0  0  0  0  0  0  0  0  0  0  0  0
   10.6045  -18.5547   28.4610 O   0  0  0  0  0  0  0  0  0  0  0  0
   10.8191  -16.3251   28.1452 O   0  0  0  0  0  0  0  0  0  0  0  0
  2  1  1  6
  2  3  1  0
  3  4  1  0
  4  5  1  0
  5  6  2  0
  7  2  1  0
  7  8  2  0
  9  5  1  0
 10 11  1  0
 11 12  1  0
 12 14  1  0
 12 13  1  1
 14 15  1  6
 15  7  1  0
 16 14  1  0
 17 16  2  0
 19 21  1  0
 19 18  1  6
 20 19  1  0
 21 22  1  6
 22 16  1  0
 23 21  1  0
 24 23  1  0
 25 23  2  0
M  END
$$$$
