EIV.pdb
     RDKit          3D

 25 24  0  0  1  0  0  0  0  0999 V2000
    8.4633  -16.6745   20.4711 N   0  0  0  0  0  0  0  0  0  0  0  0
    9.5262  -16.9617   21.3692 C   0  0  1  0  0  0  0  0  0  0  0  0
   10.8854  -17.1278   20.7443 C   0  0  0  0  0  0  0  0  0  0  0  0
   11.0438  -18.1987   19.7414 C   0  0  0  0  0  0  0  0  0  0  0  0
   12.3692  -18.4811   19.2264 C   0  0  0  0  0  0  0  0  0  0  0  0
   13.3995  -17.9082   19.5958 O   0  0  0  0  0  0  0  0  0  0  0  0
    9.7114  -15.9830   22.4682 C   0  0  0  0  0  0  0  0  0  0  0  0
   10.6270  -15.1337   22.3148 O   0  0  0  0  0  0  0  0  0  0  0  0
   12.5125  -19.4621   18.2477 O   0  0  0  0  0  0  0  0  0  0  0  0
    5.6213  -13.3522   24.3296 C   0  0  0  0  0  0  0  0  0  0  0  0
    7.0332  -13.7519   23.8571 C   0  0  0  0  0  0  0  0  0  0  0  0
    7.7322  -14.4160   24.9823 C   0  0  2  0  0  0  0  0  0  0  0  0
    7.7122  -13.5988   26.2592 C   0  0  0  0  0  0  0  0  0  0  0  0
    9.1256  -14.9120   24.6691 C   0  0  2  0  0  0  0  0  0  0  0  0
    8.9392  -15.9588   23.6321 N   0  0  0  0  0  0  0  0  0  0  0  0
    9.8294  -15.5116   25.8010 C   0  0  0  0  0  0  0  0  0  0  0  0
   10.0854  -16.7687   25.7648 O   0  0  0  0  0  0  0  0  0  0  0  0
   11.7154  -15.3460   30.4082 C   0  0  0  0  0  0  0  0  0  0  0  0
   11.2080  -14.6022   29.2167 C   0  0  2  0  0  0  0  0  0  0  0  0
    9.9788  -13.8184   29.6041 C   0  0  0  0  0  0  0  0  0  0  0  0
   10.9451  -15.5448   28.0710 C   0  0  2  0  0  0  0  0  0  0  0  0
   10.2796  -14.8590   26.9644 N   0  0  0  0  0  0  0  0  0  0  0  0
   10.1496  -16.7206   28.5120 C   0  0  0  0  0  0  0  0  0  0  0  0
    8.7743  -16.8089   28.3398 O   0  0  0  0  0  0  0  0  0  0  0  0
   10.7279  -17.6873   29.0671 O   0  0  0  0  0  0  0  0  0  0  0  0
  2  1  1  6
  2  3  1  0
  3  4  1  0
  4  5  1  0
  5  6  2  0
  7  2  1  0
  7  8  2  0
  9  5  1  0
 10 11  1  0
 11 12  1  0
 12 14  1  0
 12 13  1  1
 14 15  1  6
 15  7  1  0
 16 14  1  0
 17 16  2  0
 19 21  1  0
 19 18  1  1
 20 19  1  0
 21 22  1  6
 22 16  1  0
 23 21  1  0
 24 23  1  0
 25 23  2  0
M  END
$$$$
