EIV.pdb
     RDKit          3D

 25 24  0  0  1  0  0  0  0  0999 V2000
    8.2250  -15.5183   20.7358 N   0  0  0  0  0  0  0  0  0  0  0  0
    7.8847  -16.0769   21.9972 C   0  0  1  0  0  0  0  0  0  0  0  0
    8.1357  -17.5532   22.1493 C   0  0  0  0  0  0  0  0  0  0  0  0
    7.5431  -18.4491   21.1375 C   0  0  0  0  0  0  0  0  0  0  0  0
    7.7236  -19.8802   21.2822 C   0  0  0  0  0  0  0  0  0  0  0  0
    8.3796  -20.5841   20.5073 O   0  0  0  0  0  0  0  0  0  0  0  0
    8.5334  -15.4409   23.1697 C   0  0  0  0  0  0  0  0  0  0  0  0
    9.7514  -15.1497   23.0476 O   0  0  0  0  0  0  0  0  0  0  0  0
    7.1245  -20.5250   22.3621 O   0  0  0  0  0  0  0  0  0  0  0  0
    5.9526  -11.8167   25.9870 C   0  0  0  0  0  0  0  0  0  0  0  0
    7.0432  -12.6054   25.2353 C   0  0  0  0  0  0  0  0  0  0  0  0
    7.6127  -13.6134   26.1602 C   0  0  2  0  0  0  0  0  0  0  0  0
    8.1745  -13.0039   27.4298 C   0  0  0  0  0  0  0  0  0  0  0  0
    8.5933  -14.5782   25.5332 C   0  0  2  0  0  0  0  0  0  0  0  0
    7.8754  -15.1565   24.3687 N   0  0  0  0  0  0  0  0  0  0  0  0
    9.0108  -15.6761   26.4028 C   0  0  0  0  0  0  0  0  0  0  0  0
    8.1102  -16.4631   26.8683 O   0  0  0  0  0  0  0  0  0  0  0  0
   13.1117  -16.8984   27.3024 C   0  0  0  0  0  0  0  0  0  0  0  0
   11.9541  -17.8035   27.0355 C   0  0  2  0  0  0  0  0  0  0  0  0
   11.8887  -18.1077   25.5595 C   0  0  0  0  0  0  0  0  0  0  0  0
   10.6737  -17.1985   27.5499 C   0  0  2  0  0  0  0  0  0  0  0  0
   10.3230  -15.9906   26.8044 N   0  0  0  0  0  0  0  0  0  0  0  0
   10.7612  -16.9083   29.0052 C   0  0  0  0  0  0  0  0  0  0  0  0
   10.8633  -17.9036   29.9685 O   0  0  0  0  0  0  0  0  0  0  0  0
   10.7437  -15.7169   29.4019 O   0  0  0  0  0  0  0  0  0  0  0  0
  2  1  1  6
  2  3  1  0
  3  4  1  0
  4  5  1  0
  5  6  2  0
  7  2  1  0
  7  8  2  0
  9  5  1  0
 10 11  1  0
 11 12  1  0
 12 14  1  0
 12 13  1  1
 14 15  1  6
 15  7  1  0
 16 14  1  0
 17 16  2  0
 19 21  1  0
 19 18  1  6
 20 19  1  0
 21 22  1  6
 22 16  1  0
 23 21  1  0
 24 23  1  0
 25 23  2  0
M  END
$$$$
