EIV.pdb
     RDKit          3D

 25 24  0  0  1  0  0  0  0  0999 V2000
    7.9392  -14.2373   20.2421 N   0  0  0  0  0  0  0  0  0  0  0  0
    7.6237  -15.0715   21.3482 C   0  0  1  0  0  0  0  0  0  0  0  0
    7.8705  -16.5431   21.1506 C   0  0  0  0  0  0  0  0  0  0  0  0
    7.3057  -17.1683   19.9391 C   0  0  0  0  0  0  0  0  0  0  0  0
    7.4061  -18.6062   19.7851 C   0  0  0  0  0  0  0  0  0  0  0  0
    7.9162  -19.3644   20.6164 O   0  0  0  0  0  0  0  0  0  0  0  0
    8.3010  -14.7227   22.6208 C   0  0  0  0  0  0  0  0  0  0  0  0
    9.5147  -14.4008   22.5406 O   0  0  0  0  0  0  0  0  0  0  0  0
    6.8988  -19.1930   18.6279 O   0  0  0  0  0  0  0  0  0  0  0  0
    5.8982  -11.6439   26.1078 C   0  0  0  0  0  0  0  0  0  0  0  0
    6.9595  -12.3195   25.2169 C   0  0  0  0  0  0  0  0  0  0  0  0
    7.4488  -13.5336   25.9113 C   0  0  2  0  0  0  0  0  0  0  0  0
    7.9901  -13.2469   27.2983 C   0  0  0  0  0  0  0  0  0  0  0  0
    8.4077  -14.3871   25.1128 C   0  0  2  0  0  0  0  0  0  0  0  0
    7.6735  -14.7328   23.8689 N   0  0  0  0  0  0  0  0  0  0  0  0
    8.8079  -15.6313   25.7669 C   0  0  0  0  0  0  0  0  0  0  0  0
    7.8935  -16.4681   26.0999 O   0  0  0  0  0  0  0  0  0  0  0  0
   12.8627  -17.0749   26.3789 C   0  0  0  0  0  0  0  0  0  0  0  0
   11.6677  -17.9369   26.1355 C   0  0  2  0  0  0  0  0  0  0  0  0
   11.5252  -18.1856   24.6545 C   0  0  0  0  0  0  0  0  0  0  0  0
   10.4309  -17.3154   26.7305 C   0  0  2  0  0  0  0  0  0  0  0  0
   10.1165  -16.0417   26.0851 N   0  0  0  0  0  0  0  0  0  0  0  0
   10.5707  -17.1370   28.1997 C   0  0  0  0  0  0  0  0  0  0  0  0
   10.6576  -18.2038   29.0847 O   0  0  0  0  0  0  0  0  0  0  0  0
   10.6141  -15.9783   28.6821 O   0  0  0  0  0  0  0  0  0  0  0  0
  2  1  1  6
  2  3  1  0
  3  4  1  0
  4  5  1  0
  5  6  2  0
  7  2  1  0
  7  8  2  0
  9  5  1  0
 10 11  1  0
 11 12  1  0
 12 14  1  0
 12 13  1  1
 14 15  1  6
 15  7  1  0
 16 14  1  0
 17 16  2  0
 19 21  1  0
 19 18  1  6
 20 19  1  0
 21 22  1  6
 22 16  1  0
 23 21  1  0
 24 23  1  0
 25 23  2  0
M  END
$$$$
