EIV.pdb
     RDKit          3D

 25 24  0  0  1  0  0  0  0  0999 V2000
    7.9542  -14.7817   20.6215 N   0  0  0  0  0  0  0  0  0  0  0  0
    7.5420  -15.3740   21.8455 C   0  0  1  0  0  0  0  0  0  0  0  0
    7.5980  -16.8772   21.8977 C   0  0  0  0  0  0  0  0  0  0  0  0
    6.9182  -17.6185   20.8178 C   0  0  0  0  0  0  0  0  0  0  0  0
    6.9761  -19.0670   20.8229 C   0  0  0  0  0  0  0  0  0  0  0  0
    6.4344  -19.7913   19.9813 O   0  0  0  0  0  0  0  0  0  0  0  0
    8.2666  -14.9076   23.0528 C   0  0  0  0  0  0  0  0  0  0  0  0
    9.4899  -14.6510   22.9088 O   0  0  0  0  0  0  0  0  0  0  0  0
    7.6860  -19.7054   21.8374 O   0  0  0  0  0  0  0  0  0  0  0  0
    6.1076  -11.4515   26.4382 C   0  0  0  0  0  0  0  0  0  0  0  0
    7.1078  -12.2149   25.5476 C   0  0  0  0  0  0  0  0  0  0  0  0
    7.5612  -13.4202   26.2807 C   0  0  2  0  0  0  0  0  0  0  0  0
    8.1452  -13.1019   27.6433 C   0  0  0  0  0  0  0  0  0  0  0  0
    8.4650  -14.3454   25.4979 C   0  0  2  0  0  0  0  0  0  0  0  0
    7.6725  -14.7430   24.3064 N   0  0  0  0  0  0  0  0  0  0  0  0
    8.8597  -15.5597   26.2090 C   0  0  0  0  0  0  0  0  0  0  0  0
    7.9381  -16.3408   26.6424 O   0  0  0  0  0  0  0  0  0  0  0  0
   12.8793  -17.1666   26.5545 C   0  0  0  0  0  0  0  0  0  0  0  0
   11.6239  -17.9663   26.4322 C   0  0  2  0  0  0  0  0  0  0  0  0
   11.3362  -18.2235   24.9739 C   0  0  0  0  0  0  0  0  0  0  0  0
   10.4797  -17.2730   27.1251 C   0  0  2  0  0  0  0  0  0  0  0  0
   10.1697  -15.9957   26.4845 N   0  0  0  0  0  0  0  0  0  0  0  0
   10.7638  -17.0777   28.5711 C   0  0  0  0  0  0  0  0  0  0  0  0
   10.8842  -18.1331   29.4659 O   0  0  0  0  0  0  0  0  0  0  0  0
   10.9047  -15.9148   29.0237 O   0  0  0  0  0  0  0  0  0  0  0  0
  2  1  1  6
  2  3  1  0
  3  4  1  0
  4  5  1  0
  5  6  2  0
  7  2  1  0
  7  8  2  0
  9  5  1  0
 10 11  1  0
 11 12  1  0
 12 14  1  0
 12 13  1  1
 14 15  1  6
 15  7  1  0
 16 14  1  0
 17 16  2  0
 19 21  1  0
 19 18  1  6
 20 19  1  0
 21 22  1  6
 22 16  1  0
 23 21  1  0
 24 23  1  0
 25 23  2  0
M  END
$$$$
