EIV.pdb
     RDKit          3D

 25 24  0  0  1  0  0  0  0  0999 V2000
    9.6895  -16.1900   20.6549 N   0  0  0  0  0  0  0  0  0  0  0  0
    8.9608  -16.5265   21.8274 C   0  0  1  0  0  0  0  0  0  0  0  0
    9.0590  -17.9615   22.2708 C   0  0  0  0  0  0  0  0  0  0  0  0
    9.0041  -18.9996   21.2234 C   0  0  0  0  0  0  0  0  0  0  0  0
    8.9690  -20.3925   21.6235 C   0  0  0  0  0  0  0  0  0  0  0  0
    8.9473  -21.3454   20.8375 O   0  0  0  0  0  0  0  0  0  0  0  0
    9.2806  -15.7171   23.0285 C   0  0  0  0  0  0  0  0  0  0  0  0
   10.4900  -15.4122   23.1939 O   0  0  0  0  0  0  0  0  0  0  0  0
    8.9587  -20.6990   22.9824 O   0  0  0  0  0  0  0  0  0  0  0  0
    6.4521  -11.7807   26.6763 C   0  0  0  0  0  0  0  0  0  0  0  0
    7.7775  -12.5304   26.4360 C   0  0  0  0  0  0  0  0  0  0  0  0
    7.5481  -13.5654   25.4007 C   0  0  2  0  0  0  0  0  0  0  0  0
    6.2593  -14.3369   25.6075 C   0  0  0  0  0  0  0  0  0  0  0  0
    8.7131  -14.4973   25.1555 C   0  0  2  0  0  0  0  0  0  0  0  0
    8.3301  -15.2879   23.9580 N   0  0  0  0  0  0  0  0  0  0  0  0
    8.9907  -15.4285   26.2471 C   0  0  0  0  0  0  0  0  0  0  0  0
    8.1183  -16.3300   26.5179 O   0  0  0  0  0  0  0  0  0  0  0  0
   12.8543  -16.2624   27.8785 C   0  0  0  0  0  0  0  0  0  0  0  0
   11.7095  -17.2124   27.7464 C   0  0  2  0  0  0  0  0  0  0  0  0
   11.7310  -17.8314   26.3709 C   0  0  0  0  0  0  0  0  0  0  0  0
   10.4041  -16.5195   28.0391 C   0  0  2  0  0  0  0  0  0  0  0  0
   10.1365  -15.4628   27.0645 N   0  0  0  0  0  0  0  0  0  0  0  0
   10.3816  -15.9739   29.4217 C   0  0  0  0  0  0  0  0  0  0  0  0
   10.4649  -16.7773   30.5515 O   0  0  0  0  0  0  0  0  0  0  0  0
   10.2833  -14.7344   29.5975 O   0  0  0  0  0  0  0  0  0  0  0  0
  2  1  1  6
  2  3  1  0
  3  4  1  0
  4  5  1  0
  5  6  2  0
  7  2  1  0
  7  8  2  0
  9  5  1  0
 10 11  1  0
 11 12  1  0
 12 14  1  0
 12 13  1  1
 14 15  1  6
 15  7  1  0
 16 14  1  0
 17 16  2  0
 19 21  1  0
 19 18  1  6
 20 19  1  0
 21 22  1  6
 22 16  1  0
 23 21  1  0
 24 23  1  0
 25 23  2  0
M  END
$$$$
