EIV.pdb
     RDKit          3D

 25 24  0  0  1  0  0  0  0  0999 V2000
    8.6245  -15.2975   20.6688 N   0  0  0  0  0  0  0  0  0  0  0  0
    8.1366  -15.8853   21.8669 C   0  0  1  0  0  0  0  0  0  0  0  0
    8.2800  -17.3801   21.9692 C   0  0  0  0  0  0  0  0  0  0  0  0
    7.6904  -18.1929   20.8878 C   0  0  0  0  0  0  0  0  0  0  0  0
    7.6801  -19.6359   21.0266 C   0  0  0  0  0  0  0  0  0  0  0  0
    8.1408  -20.4218   20.1921 O   0  0  0  0  0  0  0  0  0  0  0  0
    8.7147  -15.3442   23.1212 C   0  0  0  0  0  0  0  0  0  0  0  0
    9.9479  -15.0950   23.1089 O   0  0  0  0  0  0  0  0  0  0  0  0
    7.1170  -20.1946   22.1718 O   0  0  0  0  0  0  0  0  0  0  0  0
    5.6409  -12.0349   25.9423 C   0  0  0  0  0  0  0  0  0  0  0  0
    6.8434  -12.6577   25.2057 C   0  0  0  0  0  0  0  0  0  0  0  0
    7.4754  -13.6546   26.1016 C   0  0  2  0  0  0  0  0  0  0  0  0
    7.9019  -13.0697   27.4338 C   0  0  0  0  0  0  0  0  0  0  0  0
    8.5875  -14.4656   25.4762 C   0  0  2  0  0  0  0  0  0  0  0  0
    7.9762  -15.1037   24.2825 N   0  0  0  0  0  0  0  0  0  0  0  0
    9.1287  -15.5208   26.3304 C   0  0  0  0  0  0  0  0  0  0  0  0
    8.3377  -16.4489   26.7305 O   0  0  0  0  0  0  0  0  0  0  0  0
   12.3370  -17.5947   25.6611 C   0  0  0  0  0  0  0  0  0  0  0  0
   12.3297  -17.1971   27.1007 C   0  0  2  0  0  0  0  0  0  0  0  0
   12.8933  -18.3227   27.9320 C   0  0  0  0  0  0  0  0  0  0  0  0
   10.9429  -16.8040   27.5391 C   0  0  2  0  0  0  0  0  0  0  0  0
   10.4558  -15.6520   26.7818 N   0  0  0  0  0  0  0  0  0  0  0  0
   10.8971  -16.5278   28.9990 C   0  0  0  0  0  0  0  0  0  0  0  0
   10.9021  -17.5325   29.9579 O   0  0  0  0  0  0  0  0  0  0  0  0
   10.8515  -15.3399   29.4040 O   0  0  0  0  0  0  0  0  0  0  0  0
  2  1  1  6
  2  3  1  0
  3  4  1  0
  4  5  1  0
  5  6  2  0
  7  2  1  0
  7  8  2  0
  9  5  1  0
 10 11  1  0
 11 12  1  0
 12 14  1  0
 12 13  1  1
 14 15  1  6
 15  7  1  0
 16 14  1  0
 17 16  2  0
 19 21  1  0
 19 18  1  6
 20 19  1  0
 21 22  1  6
 22 16  1  0
 23 21  1  0
 24 23  1  0
 25 23  2  0
M  END
$$$$
