EIV.pdb
     RDKit          3D

 25 24  0  0  1  0  0  0  0  0999 V2000
   11.2343  -17.9366   16.4410 N   0  0  0  0  0  0  0  0  0  0  0  0
   10.1927  -17.9410   17.4074 C   0  0  1  0  0  0  0  0  0  0  0  0
    9.9157  -19.2655   18.0663 C   0  0  0  0  0  0  0  0  0  0  0  0
    9.2930  -20.3169   17.2388 C   0  0  0  0  0  0  0  0  0  0  0  0
    7.8517  -20.3196   17.0835 C   0  0  0  0  0  0  0  0  0  0  0  0
    7.2533  -19.8626   16.1040 O   0  0  0  0  0  0  0  0  0  0  0  0
   10.3523  -16.9707   18.5180 C   0  0  0  0  0  0  0  0  0  0  0  0
   11.5289  -16.7502   18.9056 O   0  0  0  0  0  0  0  0  0  0  0  0
    7.0699  -20.8703   18.0964 O   0  0  0  0  0  0  0  0  0  0  0  0
    7.4357  -12.0958   20.5375 C   0  0  0  0  0  0  0  0  0  0  0  0
    8.5728  -13.0746   20.8915 C   0  0  0  0  0  0  0  0  0  0  0  0
    8.4366  -14.2781   20.0377 C   0  0  2  0  0  0  0  0  0  0  0  0
    7.0528  -14.8949   20.0972 C   0  0  0  0  0  0  0  0  0  0  0  0
    9.5127  -15.3233   20.2254 C   0  0  2  0  0  0  0  0  0  0  0  0
    9.2893  -16.3078   19.1361 N   0  0  0  0  0  0  0  0  0  0  0  0
    9.4578  -16.0343   21.5010 C   0  0  0  0  0  0  0  0  0  0  0  0
    8.5069  -16.8749   21.6916 O   0  0  0  0  0  0  0  0  0  0  0  0
   12.7103  -16.6232   24.1800 C   0  0  0  0  0  0  0  0  0  0  0  0
   11.5358  -17.5261   23.9912 C   0  0  2  0  0  0  0  0  0  0  0  0
   11.8056  -18.4613   22.8387 C   0  0  0  0  0  0  0  0  0  0  0  0
   10.2742  -16.7267   23.7930 C   0  0  2  0  0  0  0  0  0  0  0  0
   10.3506  -15.9100   22.5826 N   0  0  0  0  0  0  0  0  0  0  0  0
    9.9814  -15.8789   24.9785 C   0  0  0  0  0  0  0  0  0  0  0  0
    9.6338  -16.4056   26.2157 O   0  0  0  0  0  0  0  0  0  0  0  0
   10.0457  -14.6288   24.8777 O   0  0  0  0  0  0  0  0  0  0  0  0
  2  1  1  1
  2  3  1  0
  3  4  1  0
  4  5  1  0
  5  6  2  0
  7  2  1  0
  7  8  2  0
  9  5  1  0
 10 11  1  0
 11 12  1  0
 12 14  1  0
 12 13  1  1
 14 15  1  6
 15  7  1  0
 16 14  1  0
 17 16  2  0
 19 21  1  0
 19 18  1  6
 20 19  1  0
 21 22  1  6
 22 16  1  0
 23 21  1  0
 24 23  1  0
 25 23  2  0
M  END
$$$$
