YML.pdb
     RDKit          3D

 29 29  0  0  1  0  0  0  0  0999 V2000
    7.3209  -23.0106   29.8623 O   0  0  0  0  0  0  0  0  0  0  0  0
    7.3350  -22.0179   28.8626 C   0  0  0  0  0  0  0  0  0  0  0  0
    6.1735  -21.6872   28.1914 C   0  0  0  0  0  0  0  0  0  0  0  0
    6.1720  -20.7069   27.1998 C   0  0  0  0  0  0  0  0  0  0  0  0
    7.3281  -20.0415   26.8621 C   0  0  0  0  0  0  0  0  0  0  0  0
    7.2780  -19.0100   25.8019 C   0  0  0  0  0  0  0  0  0  0  0  0
    6.9650  -19.6063   24.4497 C   0  0  2  0  0  0  0  0  0  0  0  0
    7.5679  -20.9212   24.4181 N   0  0  0  0  0  0  0  0  0  0  0  0
    7.4793  -18.8141   23.3356 C   0  0  0  0  0  0  0  0  0  0  0  0
    8.6263  -19.1129   22.8645 O   0  0  0  0  0  0  0  0  0  0  0  0
    8.4745  -20.3866   27.5434 C   0  0  0  0  0  0  0  0  0  0  0  0
    8.4881  -21.3550   28.5266 C   0  0  0  0  0  0  0  0  0  0  0  0
    7.4011  -11.8713   20.1873 C   0  0  0  0  0  0  0  0  0  0  0  0
    6.6611  -13.2146   21.1753 S   0  0  0  0  0  0  0  0  0  0  0  0
    7.1432  -14.8406   20.4490 C   0  0  0  0  0  0  0  0  0  0  0  0
    6.5621  -15.9548   21.2396 C   0  0  0  0  0  0  0  0  0  0  0  0
    7.4148  -16.5335   22.3153 C   0  0  2  0  0  0  0  0  0  0  0  0
    6.7239  -17.7356   22.7870 N   0  0  0  0  0  0  0  0  0  0  0  0
    7.6815  -15.6744   23.4671 C   0  0  0  0  0  0  0  0  0  0  0  0
    6.7150  -15.4611   24.2806 O   0  0  0  0  0  0  0  0  0  0  0  0
    6.1313  -12.2970   26.2988 C   0  0  0  0  0  0  0  0  0  0  0  0
    6.9418  -12.8974   25.1452 C   0  0  1  0  0  0  0  0  0  0  0  0
    7.9683  -11.8090   24.7351 C   0  0  0  0  0  0  0  0  0  0  0  0
    7.7021  -14.0679   25.6927 C   0  0  0  0  0  0  0  0  0  0  0  0
    9.0045  -14.2351   25.0014 C   0  0  2  0  0  0  0  0  0  0  0  0
    8.8914  -15.0447   23.8002 N   0  0  0  0  0  0  0  0  0  0  0  0
   10.0081  -14.8341   25.8869 C   0  0  0  0  0  0  0  0  0  0  0  0
   10.4392  -16.1527   25.6167 O   0  0  0  0  0  0  0  0  0  0  0  0
   10.5180  -14.2666   26.8718 O   0  0  0  0  0  0  0  0  0  0  0  0
  2  1  1  0
  3  2  2  0
  4  3  1  0
  5  4  2  0
  5 11  1  0
  6  5  1  0
  7  9  1  0
  7  6  1  0
  7  8  1  1
  9 10  2  0
 11 12  2  0
 12  2  1  0
 14 15  1  0
 14 13  1  0
 17 16  1  6
 16 15  1  0
 18 17  1  0
 18  9  1  0
 19 20  2  0
 19 17  1  0
 22 21  1  1
 22 24  1  0
 23 22  1  0
 25 24  1  1
 25 27  1  0
 25 26  1  0
 26 19  1  0
 27 28  1  0
 29 27  2  0
M  END
$$$$
