YML.pdb
     RDKit          3D

 29 29  0  0  1  0  0  0  0  0999 V2000
   12.5192  -23.6214   18.2561 O   0  0  0  0  0  0  0  0  0  0  0  0
   12.3321  -22.4242   18.9750 C   0  0  0  0  0  0  0  0  0  0  0  0
   13.2196  -21.3757   18.8272 C   0  0  0  0  0  0  0  0  0  0  0  0
   13.0474  -20.1850   19.5319 C   0  0  0  0  0  0  0  0  0  0  0  0
   11.9881  -20.0213   20.3947 C   0  0  0  0  0  0  0  0  0  0  0  0
   11.8475  -18.7401   21.1224 C   0  0  0  0  0  0  0  0  0  0  0  0
   10.7235  -17.8971   20.5674 C   0  0  2  0  0  0  0  0  0  0  0  0
   11.0851  -17.5519   19.2098 N   0  0  0  0  0  0  0  0  0  0  0  0
   10.4886  -16.6732   21.3291 C   0  0  0  0  0  0  0  0  0  0  0  0
   11.2227  -15.6602   21.0804 O   0  0  0  0  0  0  0  0  0  0  0  0
   11.1154  -21.0788   20.5272 C   0  0  0  0  0  0  0  0  0  0  0  0
   11.2756  -22.2619   19.8349 C   0  0  0  0  0  0  0  0  0  0  0  0
    5.9427  -13.3411   25.9975 C   0  0  0  0  0  0  0  0  0  0  0  0
    7.5503  -13.2699   25.1379 S   0  0  0  0  0  0  0  0  0  0  0  0
    7.3221  -13.7748   23.3781 C   0  0  0  0  0  0  0  0  0  0  0  0
    7.7969  -15.1662   23.1718 C   0  0  0  0  0  0  0  0  0  0  0  0
    9.2698  -15.3681   23.0777 C   0  0  2  0  0  0  0  0  0  0  0  0
    9.4686  -16.6080   22.3242 N   0  0  0  0  0  0  0  0  0  0  0  0
    9.9937  -15.4775   24.3427 C   0  0  0  0  0  0  0  0  0  0  0  0
   11.0260  -14.7348   24.4980 O   0  0  0  0  0  0  0  0  0  0  0  0
   11.7449  -14.1001   28.5641 C   0  0  0  0  0  0  0  0  0  0  0  0
   10.2565  -14.4530   28.6553 C   0  0  1  0  0  0  0  0  0  0  0  0
    9.5503  -13.1816   29.1952 C   0  0  0  0  0  0  0  0  0  0  0  0
    9.7669  -14.6968   27.2592 C   0  0  0  0  0  0  0  0  0  0  0  0
   10.2068  -16.0224   26.7580 C   0  0  2  0  0  0  0  0  0  0  0  0
    9.6886  -16.3100   25.4313 N   0  0  0  0  0  0  0  0  0  0  0  0
    9.8072  -17.0994   27.6694 C   0  0  0  0  0  0  0  0  0  0  0  0
    8.5301  -17.6810   27.5009 O   0  0  0  0  0  0  0  0  0  0  0  0
   10.5123  -17.5488   28.5928 O   0  0  0  0  0  0  0  0  0  0  0  0
  2  1  1  0
  3  2  2  0
  4  3  1  0
  5  4  2  0
  5 11  1  0
  6  5  1  0
  7  9  1  0
  7  6  1  0
  7  8  1  6
  9 10  2  0
 11 12  2  0
 12  2  1  0
 14 15  1  0
 14 13  1  0
 17 16  1  1
 16 15  1  0
 18 17  1  0
 18  9  1  0
 19 20  2  0
 19 17  1  0
 22 21  1  6
 22 24  1  0
 23 22  1  0
 25 24  1  1
 25 27  1  0
 25 26  1  0
 26 19  1  0
 27 28  1  0
 29 27  2  0
M  END
$$$$
