YML.pdb
     RDKit          3D

 29 29  0  0  1  0  0  0  0  0999 V2000
    7.4128  -11.7055   26.1749 O   0  0  0  0  0  0  0  0  0  0  0  0
    7.1119  -13.0782   26.0731 C   0  0  0  0  0  0  0  0  0  0  0  0
    6.9700  -13.6711   24.8332 C   0  0  0  0  0  0  0  0  0  0  0  0
    6.6724  -15.0283   24.7166 C   0  0  0  0  0  0  0  0  0  0  0  0
    6.5114  -15.8150   25.8340 C   0  0  0  0  0  0  0  0  0  0  0  0
    6.1942  -17.2503   25.6607 C   0  0  0  0  0  0  0  0  0  0  0  0
    6.3326  -17.6883   24.2216 C   0  0  2  0  0  0  0  0  0  0  0  0
    5.8800  -19.0607   24.1524 N   0  0  0  0  0  0  0  0  0  0  0  0
    7.7027  -17.6075   23.7220 C   0  0  0  0  0  0  0  0  0  0  0  0
    8.4651  -18.6158   23.8922 O   0  0  0  0  0  0  0  0  0  0  0  0
    6.6570  -15.2040   27.0599 C   0  0  0  0  0  0  0  0  0  0  0  0
    6.9517  -13.8617   27.1876 C   0  0  0  0  0  0  0  0  0  0  0  0
    6.8758  -12.7545   20.3081 C   0  0  0  0  0  0  0  0  0  0  0  0
    8.6412  -13.1462   20.0666 S   0  0  0  0  0  0  0  0  0  0  0  0
    9.2610  -14.0873   21.5275 C   0  0  0  0  0  0  0  0  0  0  0  0
    9.3466  -15.5357   21.2133 C   0  0  0  0  0  0  0  0  0  0  0  0
    9.4682  -16.4692   22.3679 C   0  0  2  0  0  0  0  0  0  0  0  0
    8.1793  -16.4359   23.0623 N   0  0  0  0  0  0  0  0  0  0  0  0
   10.5208  -16.1716   23.3372 C   0  0  0  0  0  0  0  0  0  0  0  0
   11.4402  -17.0493   23.4979 O   0  0  0  0  0  0  0  0  0  0  0  0
   10.9924  -13.9231   28.2988 C   0  0  0  0  0  0  0  0  0  0  0  0
   10.1310  -15.1089   27.8518 C   0  0  1  0  0  0  0  0  0  0  0  0
    8.8163  -15.0117   28.6696 C   0  0  0  0  0  0  0  0  0  0  0  0
    9.7933  -14.8985   26.4061 C   0  0  0  0  0  0  0  0  0  0  0  0
   10.9782  -15.1146   25.5393 C   0  0  2  0  0  0  0  0  0  0  0  0
   10.6528  -15.0180   24.1264 N   0  0  0  0  0  0  0  0  0  0  0  0
   11.6002  -16.4172   25.7971 C   0  0  0  0  0  0  0  0  0  0  0  0
   12.9494  -16.4446   26.2171 O   0  0  0  0  0  0  0  0  0  0  0  0
   11.0274  -17.5166   25.6737 O   0  0  0  0  0  0  0  0  0  0  0  0
  2  1  1  0
  3  2  2  0
  4  3  1  0
  5  4  2  0
  5 11  1  0
  6  5  1  0
  7  9  1  0
  7  6  1  0
  7  8  1  1
  9 10  2  0
 11 12  2  0
 12  2  1  0
 14 15  1  0
 14 13  1  0
 17 16  1  6
 16 15  1  0
 18 17  1  0
 18  9  1  0
 19 20  2  0
 19 17  1  0
 22 21  1  1
 22 24  1  0
 23 22  1  0
 25 24  1  1
 25 27  1  0
 25 26  1  0
 26 19  1  0
 27 28  1  0
 29 27  2  0
M  END
$$$$
