YML.pdb
     RDKit          3D

 29 29  0  0  1  0  0  0  0  0999 V2000
    4.7685  -23.9501   24.9666 O   0  0  0  0  0  0  0  0  0  0  0  0
    5.5217  -22.7856   24.7178 C   0  0  0  0  0  0  0  0  0  0  0  0
    5.0092  -21.5423   25.0346 C   0  0  0  0  0  0  0  0  0  0  0  0
    5.7428  -20.3812   24.7942 C   0  0  0  0  0  0  0  0  0  0  0  0
    6.9983  -20.4417   24.2342 C   0  0  0  0  0  0  0  0  0  0  0  0
    7.7384  -19.1823   23.9960 C   0  0  0  0  0  0  0  0  0  0  0  0
    7.1090  -18.3578   22.8978 C   0  0  2  0  0  0  0  0  0  0  0  0
    7.2485  -19.1117   21.6708 N   0  0  0  0  0  0  0  0  0  0  0  0
    7.7310  -17.0469   22.7306 C   0  0  0  0  0  0  0  0  0  0  0  0
    8.6922  -16.9392   21.8992 O   0  0  0  0  0  0  0  0  0  0  0  0
    7.4901  -21.6908   23.9261 C   0  0  0  0  0  0  0  0  0  0  0  0
    6.7733  -22.8469   24.1596 C   0  0  0  0  0  0  0  0  0  0  0  0
    6.2081  -11.8433   26.3725 C   0  0  0  0  0  0  0  0  0  0  0  0
    5.2058  -12.1227   24.8740 S   0  0  0  0  0  0  0  0  0  0  0  0
    6.0527  -13.3584   23.7972 C   0  0  0  0  0  0  0  0  0  0  0  0
    7.3704  -13.7301   24.3711 C   0  0  0  0  0  0  0  0  0  0  0  0
    8.1599  -14.7569   23.6353 C   0  0  2  0  0  0  0  0  0  0  0  0
    7.2798  -15.9162   23.4742 N   0  0  0  0  0  0  0  0  0  0  0  0
    9.3980  -15.2040   24.2703 C   0  0  0  0  0  0  0  0  0  0  0  0
   10.5017  -14.8675   23.7136 O   0  0  0  0  0  0  0  0  0  0  0  0
   11.4808  -13.6397   28.7101 C   0  0  0  0  0  0  0  0  0  0  0  0
   11.1832  -15.1428   28.7192 C   0  0  1  0  0  0  0  0  0  0  0  0
   10.6555  -15.4633   30.1424 C   0  0  0  0  0  0  0  0  0  0  0  0
   10.0680  -15.3852   27.7467 C   0  0  0  0  0  0  0  0  0  0  0  0
   10.5915  -15.6970   26.3937 C   0  0  2  0  0  0  0  0  0  0  0  0
    9.5291  -15.9688   25.4404 N   0  0  0  0  0  0  0  0  0  0  0  0
   11.5084  -16.8409   26.4243 C   0  0  0  0  0  0  0  0  0  0  0  0
   12.8986  -16.5865   26.4081 O   0  0  0  0  0  0  0  0  0  0  0  0
   11.1558  -18.0350   26.4638 O   0  0  0  0  0  0  0  0  0  0  0  0
  2  1  1  0
  3  2  2  0
  4  3  1  0
  5  4  2  0
  5 11  1  0
  6  5  1  0
  7  9  1  0
  7  6  1  0
  7  8  1  6
  9 10  2  0
 11 12  2  0
 12  2  1  0
 14 15  1  0
 14 13  1  0
 17 16  1  1
 16 15  1  0
 18 17  1  0
 18  9  1  0
 19 20  2  0
 19 17  1  0
 22 21  1  1
 22 24  1  0
 23 22  1  0
 25 24  1  1
 25 27  1  0
 25 26  1  0
 26 19  1  0
 27 28  1  0
 29 27  2  0
M  END
$$$$
