YML.pdb
     RDKit          3D

 29 29  0  0  1  0  0  0  0  0999 V2000
    4.7615  -23.1547   28.5451 O   0  0  0  0  0  0  0  0  0  0  0  0
    5.3372  -22.1242   27.7758 C   0  0  0  0  0  0  0  0  0  0  0  0
    5.0602  -22.0233   26.4259 C   0  0  0  0  0  0  0  0  0  0  0  0
    5.6224  -21.0090   25.6518 C   0  0  0  0  0  0  0  0  0  0  0  0
    6.4693  -20.0800   26.2113 C   0  0  0  0  0  0  0  0  0  0  0  0
    7.0435  -19.0226   25.3494 C   0  0  0  0  0  0  0  0  0  0  0  0
    6.9278  -19.3661   23.8829 C   0  0  2  0  0  0  0  0  0  0  0  0
    7.4575  -20.7025   23.7191 N   0  0  0  0  0  0  0  0  0  0  0  0
    7.6605  -18.4481   23.0147 C   0  0  0  0  0  0  0  0  0  0  0  0
    8.8143  -18.8026   22.6024 O   0  0  0  0  0  0  0  0  0  0  0  0
    6.7320  -20.1989   27.5582 C   0  0  0  0  0  0  0  0  0  0  0  0
    6.1813  -21.1984   28.3344 C   0  0  0  0  0  0  0  0  0  0  0  0
    5.6974  -11.9999   21.0808 C   0  0  0  0  0  0  0  0  0  0  0  0
    6.6297  -12.9715   19.8500 S   0  0  0  0  0  0  0  0  0  0  0  0
    7.8443  -14.0527   20.7216 C   0  0  0  0  0  0  0  0  0  0  0  0
    7.1474  -15.1756   21.3979 C   0  0  0  0  0  0  0  0  0  0  0  0
    7.9915  -16.1115   22.1920 C   0  0  2  0  0  0  0  0  0  0  0  0
    7.1056  -17.1896   22.6364 N   0  0  0  0  0  0  0  0  0  0  0  0
    8.6577  -15.5503   23.3657 C   0  0  0  0  0  0  0  0  0  0  0  0
    9.7308  -14.8784   23.1701 O   0  0  0  0  0  0  0  0  0  0  0  0
    6.1100  -12.7920   26.9549 C   0  0  0  0  0  0  0  0  0  0  0  0
    7.1239  -13.3355   25.9426 C   0  0  1  0  0  0  0  0  0  0  0  0
    7.9379  -12.1080   25.4552 C   0  0  0  0  0  0  0  0  0  0  0  0
    8.0569  -14.2440   26.6857 C   0  0  0  0  0  0  0  0  0  0  0  0
    8.9724  -14.9522   25.7571 C   0  0  2  0  0  0  0  0  0  0  0  0
    8.2564  -15.6562   24.7069 N   0  0  0  0  0  0  0  0  0  0  0  0
    9.8283  -15.9048   26.4713 C   0  0  0  0  0  0  0  0  0  0  0  0
    9.7581  -17.2698   26.1114 O   0  0  0  0  0  0  0  0  0  0  0  0
   10.6230  -15.6037   27.3823 O   0  0  0  0  0  0  0  0  0  0  0  0
  2  1  1  0
  3  2  2  0
  4  3  1  0
  5  4  2  0
  5 11  1  0
  6  5  1  0
  7  9  1  0
  7  6  1  0
  7  8  1  1
  9 10  2  0
 11 12  2  0
 12  2  1  0
 14 15  1  0
 14 13  1  0
 17 16  1  1
 16 15  1  0
 18 17  1  0
 18  9  1  0
 19 20  2  0
 19 17  1  0
 22 21  1  1
 22 24  1  0
 23 22  1  0
 25 24  1  1
 25 27  1  0
 25 26  1  0
 26 19  1  0
 27 28  1  0
 29 27  2  0
M  END
$$$$
