YML.pdb
     RDKit          3D

 29 29  0  0  1  0  0  0  0  0999 V2000
    7.9651  -12.5878   16.8553 O   0  0  0  0  0  0  0  0  0  0  0  0
    7.8790  -13.3788   18.0180 C   0  0  0  0  0  0  0  0  0  0  0  0
    7.1382  -12.9478   19.1017 C   0  0  0  0  0  0  0  0  0  0  0  0
    7.0437  -13.7197   20.2590 C   0  0  0  0  0  0  0  0  0  0  0  0
    7.6862  -14.9328   20.3538 C   0  0  0  0  0  0  0  0  0  0  0  0
    7.5583  -15.7161   21.6031 C   0  0  0  0  0  0  0  0  0  0  0  0
    8.2819  -17.0392   21.5153 C   0  0  2  0  0  0  0  0  0  0  0  0
    7.2696  -18.0707   21.4480 N   0  0  0  0  0  0  0  0  0  0  0  0
    9.1563  -17.2966   22.6566 C   0  0  0  0  0  0  0  0  0  0  0  0
    9.0451  -18.4154   23.2588 O   0  0  0  0  0  0  0  0  0  0  0  0
    8.4191  -15.3435   19.2622 C   0  0  0  0  0  0  0  0  0  0  0  0
    8.5197  -14.5881   18.1115 C   0  0  0  0  0  0  0  0  0  0  0  0
   14.8742  -14.7780   22.2909 C   0  0  0  0  0  0  0  0  0  0  0  0
   15.1824  -16.2840   23.2734 S   0  0  0  0  0  0  0  0  0  0  0  0
   13.6621  -16.7093   24.2281 C   0  0  0  0  0  0  0  0  0  0  0  0
   12.4479  -16.4379   23.4182 C   0  0  0  0  0  0  0  0  0  0  0  0
   11.1330  -16.7031   24.0662 C   0  0  2  0  0  0  0  0  0  0  0  0
   10.1087  -16.3269   23.0894 N   0  0  0  0  0  0  0  0  0  0  0  0
   10.8654  -15.9875   25.3121 C   0  0  0  0  0  0  0  0  0  0  0  0
   11.7137  -16.1208   26.2630 O   0  0  0  0  0  0  0  0  0  0  0  0
    6.2020  -12.8778   26.1879 C   0  0  0  0  0  0  0  0  0  0  0  0
    7.6488  -13.3803   26.1419 C   0  0  1  0  0  0  0  0  0  0  0  0
    8.4602  -12.4243   27.0553 C   0  0  0  0  0  0  0  0  0  0  0  0
    7.6700  -14.7441   26.7644 C   0  0  0  0  0  0  0  0  0  0  0  0
    9.0535  -15.2731   26.8556 C   0  0  2  0  0  0  0  0  0  0  0  0
    9.7737  -15.1528   25.5993 N   0  0  0  0  0  0  0  0  0  0  0  0
    9.0635  -16.6772   27.2780 C   0  0  0  0  0  0  0  0  0  0  0  0
    9.6655  -17.0010   28.5151 O   0  0  0  0  0  0  0  0  0  0  0  0
    8.5777  -17.6205   26.6251 O   0  0  0  0  0  0  0  0  0  0  0  0
  2  1  1  0
  3  2  2  0
  4  3  1  0
  5  4  2  0
  5 11  1  0
  6  5  1  0
  7  9  1  0
  7  6  1  0
  7  8  1  1
  9 10  2  0
 11 12  2  0
 12  2  1  0
 14 15  1  0
 14 13  1  0
 17 16  1  6
 16 15  1  0
 18 17  1  0
 18  9  1  0
 19 20  2  0
 19 17  1  0
 22 21  1  1
 22 24  1  0
 23 22  1  0
 25 24  1  6
 25 27  1  0
 25 26  1  0
 26 19  1  0
 27 28  1  0
 29 27  2  0
M  END
$$$$
