YML.pdb
     RDKit          3D

 29 29  0  0  1  0  0  0  0  0999 V2000
    2.8853  -22.9194   23.0397 O   0  0  0  0  0  0  0  0  0  0  0  0
    4.0150  -22.0888   22.9026 C   0  0  0  0  0  0  0  0  0  0  0  0
    3.8768  -20.7935   22.4419 C   0  0  0  0  0  0  0  0  0  0  0  0
    4.9855  -19.9599   22.3010 C   0  0  0  0  0  0  0  0  0  0  0  0
    6.2488  -20.4045   22.6170 C   0  0  0  0  0  0  0  0  0  0  0  0
    7.3956  -19.4840   22.4494 C   0  0  0  0  0  0  0  0  0  0  0  0
    6.9515  -18.0983   22.0439 C   0  0  2  0  0  0  0  0  0  0  0  0
    7.1442  -17.9947   20.6137 N   0  0  0  0  0  0  0  0  0  0  0  0
    7.6991  -17.0341   22.7086 C   0  0  0  0  0  0  0  0  0  0  0  0
    8.7929  -16.6466   22.1792 O   0  0  0  0  0  0  0  0  0  0  0  0
    6.3641  -21.6987   23.0743 C   0  0  0  0  0  0  0  0  0  0  0  0
    5.2740  -22.5329   23.2179 C   0  0  0  0  0  0  0  0  0  0  0  0
    6.7760  -10.8512   27.4044 C   0  0  0  0  0  0  0  0  0  0  0  0
    6.1763  -12.5149   26.9565 S   0  0  0  0  0  0  0  0  0  0  0  0
    7.5461  -13.4621   26.1625 C   0  0  0  0  0  0  0  0  0  0  0  0
    6.9995  -14.5225   25.2788 C   0  0  0  0  0  0  0  0  0  0  0  0
    7.9867  -15.3604   24.5423 C   0  0  2  0  0  0  0  0  0  0  0  0
    7.2235  -16.4421   23.9162 N   0  0  0  0  0  0  0  0  0  0  0  0
    9.0583  -15.9547   25.3388 C   0  0  0  0  0  0  0  0  0  0  0  0
    8.7357  -16.8773   26.1672 O   0  0  0  0  0  0  0  0  0  0  0  0
   12.1417  -17.1213   23.9652 C   0  0  0  0  0  0  0  0  0  0  0  0
   13.2256  -16.2320   24.5835 C   0  0  1  0  0  0  0  0  0  0  0  0
   13.2628  -14.9439   23.7197 C   0  0  0  0  0  0  0  0  0  0  0  0
   12.7646  -15.8536   25.9592 C   0  0  0  0  0  0  0  0  0  0  0  0
   11.3663  -16.2893   26.1975 C   0  0  2  0  0  0  0  0  0  0  0  0
   10.4250  -15.6352   25.3044 N   0  0  0  0  0  0  0  0  0  0  0  0
   10.9573  -16.0434   27.5840 C   0  0  0  0  0  0  0  0  0  0  0  0
   10.9720  -14.7132   28.0614 O   0  0  0  0  0  0  0  0  0  0  0  0
   10.5933  -16.9246   28.3858 O   0  0  0  0  0  0  0  0  0  0  0  0
  2  1  1  0
  3  2  2  0
  4  3  1  0
  5  4  2  0
  5 11  1  0
  6  5  1  0
  7  9  1  0
  7  6  1  0
  7  8  1  6
  9 10  2  0
 11 12  2  0
 12  2  1  0
 14 15  1  0
 14 13  1  0
 17 16  1  1
 16 15  1  0
 18 17  1  0
 18  9  1  0
 19 20  2  0
 19 17  1  0
 22 21  1  6
 22 24  1  0
 23 22  1  0
 25 24  1  1
 25 27  1  0
 25 26  1  0
 26 19  1  0
 27 28  1  0
 29 27  2  0
M  END
$$$$
