YML.pdb
     RDKit          3D

 29 29  0  0  1  0  0  0  0  0999 V2000
   11.9834  -22.8151   17.7790 O   0  0  0  0  0  0  0  0  0  0  0  0
   11.9012  -21.7266   18.6697 C   0  0  0  0  0  0  0  0  0  0  0  0
   13.0364  -21.0162   19.0099 C   0  0  0  0  0  0  0  0  0  0  0  0
   12.9706  -19.9368   19.8900 C   0  0  0  0  0  0  0  0  0  0  0  0
   11.7725  -19.5490   20.4444 C   0  0  0  0  0  0  0  0  0  0  0  0
   11.7522  -18.3982   21.3750 C   0  0  0  0  0  0  0  0  0  0  0  0
   10.6614  -17.4123   21.0285 C   0  0  2  0  0  0  0  0  0  0  0  0
   11.1641  -16.5874   19.9515 N   0  0  0  0  0  0  0  0  0  0  0  0
   10.2766  -16.5586   22.1494 C   0  0  0  0  0  0  0  0  0  0  0  0
   10.9531  -15.4973   22.3567 O   0  0  0  0  0  0  0  0  0  0  0  0
   10.6534  -20.2706   20.0920 C   0  0  0  0  0  0  0  0  0  0  0  0
   10.7062  -21.3406   19.2220 C   0  0  0  0  0  0  0  0  0  0  0  0
    6.3049  -12.5919   26.5767 C   0  0  0  0  0  0  0  0  0  0  0  0
    7.1625  -13.4530   25.2161 S   0  0  0  0  0  0  0  0  0  0  0  0
    6.6566  -15.2272   25.2043 C   0  0  0  0  0  0  0  0  0  0  0  0
    7.3050  -15.9442   24.0776 C   0  0  0  0  0  0  0  0  0  0  0  0
    8.7937  -15.9986   24.0817 C   0  0  2  0  0  0  0  0  0  0  0  0
    9.1763  -16.8983   22.9914 N   0  0  0  0  0  0  0  0  0  0  0  0
    9.4241  -16.4727   25.3121 C   0  0  0  0  0  0  0  0  0  0  0  0
    9.7750  -17.7040   25.3587 O   0  0  0  0  0  0  0  0  0  0  0  0
    9.3973  -13.5507   29.9422 C   0  0  0  0  0  0  0  0  0  0  0  0
    9.5867  -14.2367   28.5853 C   0  0  1  0  0  0  0  0  0  0  0  0
   10.5692  -13.3388   27.7882 C   0  0  0  0  0  0  0  0  0  0  0  0
   10.2621  -15.5514   28.8376 C   0  0  0  0  0  0  0  0  0  0  0  0
   10.4286  -16.3215   27.5801 C   0  0  2  0  0  0  0  0  0  0  0  0
    9.7012  -15.7293   26.4704 N   0  0  0  0  0  0  0  0  0  0  0  0
    9.9980  -17.7136   27.7434 C   0  0  0  0  0  0  0  0  0  0  0  0
    8.7361  -18.0898   27.2298 O   0  0  0  0  0  0  0  0  0  0  0  0
   10.6639  -18.6034   28.3062 O   0  0  0  0  0  0  0  0  0  0  0  0
  2  1  1  0
  3  2  2  0
  4  3  1  0
  5  4  2  0
  5 11  1  0
  6  5  1  0
  7  9  1  0
  7  6  1  0
  7  8  1  6
  9 10  2  0
 11 12  2  0
 12  2  1  0
 14 15  1  0
 14 13  1  0
 17 16  1  1
 16 15  1  0
 18 17  1  0
 18  9  1  0
 19 20  2  0
 19 17  1  0
 22 21  1  1
 22 24  1  0
 23 22  1  0
 25 24  1  1
 25 27  1  0
 25 26  1  0
 26 19  1  0
 27 28  1  0
 29 27  2  0
M  END
$$$$
