YML.pdb
     RDKit          3D

 29 29  0  0  1  0  0  0  0  0999 V2000
    6.4921  -22.8618   17.9880 O   0  0  0  0  0  0  0  0  0  0  0  0
    7.0372  -21.9174   18.8802 C   0  0  0  0  0  0  0  0  0  0  0  0
    6.2198  -20.9953   19.5052 C   0  0  0  0  0  0  0  0  0  0  0  0
    6.7448  -20.0547   20.3905 C   0  0  0  0  0  0  0  0  0  0  0  0
    8.0924  -20.0188   20.6662 C   0  0  0  0  0  0  0  0  0  0  0  0
    8.6040  -19.0010   21.6113 C   0  0  0  0  0  0  0  0  0  0  0  0
    8.3678  -17.5961   21.1089 C   0  0  2  0  0  0  0  0  0  0  0  0
    9.1084  -17.4593   19.8735 N   0  0  0  0  0  0  0  0  0  0  0  0
    8.8034  -16.5657   22.0479 C   0  0  0  0  0  0  0  0  0  0  0  0
   10.0306  -16.2183   22.0326 O   0  0  0  0  0  0  0  0  0  0  0  0
    8.8891  -20.9467   20.0325 C   0  0  0  0  0  0  0  0  0  0  0  0
    8.3808  -21.8824   19.1545 C   0  0  0  0  0  0  0  0  0  0  0  0
    6.5573  -11.8051   27.7015 C   0  0  0  0  0  0  0  0  0  0  0  0
    7.1155  -12.0591   25.9834 S   0  0  0  0  0  0  0  0  0  0  0  0
    6.7427  -13.7922   25.4724 C   0  0  0  0  0  0  0  0  0  0  0  0
    7.1273  -14.0094   24.0551 C   0  0  0  0  0  0  0  0  0  0  0  0
    8.3295  -14.8529   23.8052 C   0  0  2  0  0  0  0  0  0  0  0  0
    7.8859  -15.9623   22.9585 N   0  0  0  0  0  0  0  0  0  0  0  0
    8.9903  -15.4095   24.9841 C   0  0  0  0  0  0  0  0  0  0  0  0
    8.5054  -16.4874   25.4784 O   0  0  0  0  0  0  0  0  0  0  0  0
   13.9257  -17.4003   25.3223 C   0  0  0  0  0  0  0  0  0  0  0  0
   13.4143  -16.5170   26.4652 C   0  0  1  0  0  0  0  0  0  0  0  0
   14.6518  -15.7436   26.9915 C   0  0  0  0  0  0  0  0  0  0  0  0
   12.4640  -15.5208   25.8715 C   0  0  0  0  0  0  0  0  0  0  0  0
   11.0674  -15.7904   26.2942 C   0  0  2  0  0  0  0  0  0  0  0  0
   10.1152  -14.9002   25.6521 N   0  0  0  0  0  0  0  0  0  0  0  0
   10.9169  -15.6799   27.7486 C   0  0  0  0  0  0  0  0  0  0  0  0
   10.1931  -14.5819   28.2663 O   0  0  0  0  0  0  0  0  0  0  0  0
   11.3824  -16.4869   28.5758 O   0  0  0  0  0  0  0  0  0  0  0  0
  2  1  1  0
  3  2  2  0
  4  3  1  0
  5  4  2  0
  5 11  1  0
  6  5  1  0
  7  9  1  0
  7  6  1  0
  7  8  1  6
  9 10  2  0
 11 12  2  0
 12  2  1  0
 14 15  1  0
 14 13  1  0
 17 16  1  1
 16 15  1  0
 18 17  1  0
 18  9  1  0
 19 20  2  0
 19 17  1  0
 22 21  1  6
 22 24  1  0
 23 22  1  0
 25 24  1  1
 25 27  1  0
 25 26  1  0
 26 19  1  0
 27 28  1  0
 29 27  2  0
M  END
$$$$
