YML.pdb
     RDKit          3D

 29 29  0  0  1  0  0  0  0  0999 V2000
   12.1600  -21.1908   16.1609 O   0  0  0  0  0  0  0  0  0  0  0  0
   11.9362  -20.2784   17.2109 C   0  0  0  0  0  0  0  0  0  0  0  0
   12.5550  -19.0430   17.2053 C   0  0  0  0  0  0  0  0  0  0  0  0
   12.3433  -18.1297   18.2373 C   0  0  0  0  0  0  0  0  0  0  0  0
   11.5118  -18.4339   19.2907 C   0  0  0  0  0  0  0  0  0  0  0  0
   11.3193  -17.4332   20.3642 C   0  0  0  0  0  0  0  0  0  0  0  0
    9.8577  -17.1312   20.5976 C   0  0  2  0  0  0  0  0  0  0  0  0
    9.3549  -16.5171   19.3879 N   0  0  0  0  0  0  0  0  0  0  0  0
    9.6261  -16.2328   21.7257 C   0  0  0  0  0  0  0  0  0  0  0  0
    9.6941  -14.9763   21.5172 O   0  0  0  0  0  0  0  0  0  0  0  0
   10.9052  -19.6704   19.2766 C   0  0  0  0  0  0  0  0  0  0  0  0
   11.1071  -20.5824   18.2606 C   0  0  0  0  0  0  0  0  0  0  0  0
    6.3069  -12.4468   26.5221 C   0  0  0  0  0  0  0  0  0  0  0  0
    7.2156  -13.2458   25.1568 S   0  0  0  0  0  0  0  0  0  0  0  0
    6.6844  -15.0074   25.0212 C   0  0  0  0  0  0  0  0  0  0  0  0
    7.4154  -15.6866   23.9220 C   0  0  0  0  0  0  0  0  0  0  0  0
    8.8901  -15.8257   24.0792 C   0  0  2  0  0  0  0  0  0  0  0  0
    9.3324  -16.7416   23.0255 N   0  0  0  0  0  0  0  0  0  0  0  0
    9.3620  -16.3397   25.3634 C   0  0  0  0  0  0  0  0  0  0  0  0
    8.9874  -17.5173   25.7013 O   0  0  0  0  0  0  0  0  0  0  0  0
    9.0892  -14.0618   27.8098 C   0  0  0  0  0  0  0  0  0  0  0  0
   10.4685  -14.2268   28.4566 C   0  0  1  0  0  0  0  0  0  0  0  0
   10.3715  -13.5427   29.8456 C   0  0  0  0  0  0  0  0  0  0  0  0
   10.6879  -15.6935   28.6775 C   0  0  0  0  0  0  0  0  0  0  0  0
   10.7992  -16.4214   27.3892 C   0  0  2  0  0  0  0  0  0  0  0  0
   10.1947  -15.6902   26.2886 N   0  0  0  0  0  0  0  0  0  0  0  0
   10.1873  -17.7515   27.4707 C   0  0  0  0  0  0  0  0  0  0  0  0
   10.8716  -18.7618   28.1839 O   0  0  0  0  0  0  0  0  0  0  0  0
    9.0983  -18.0670   26.9545 O   0  0  0  0  0  0  0  0  0  0  0  0
  2  1  1  0
  3  2  2  0
  4  3  1  0
  5  4  2  0
  5 11  1  0
  6  5  1  0
  7  9  1  0
  7  6  1  0
  7  8  1  6
  9 10  2  0
 11 12  2  0
 12  2  1  0
 14 15  1  0
 14 13  1  0
 17 16  1  1
 16 15  1  0
 18 17  1  0
 18  9  1  0
 19 20  2  0
 19 17  1  0
 22 21  1  1
 22 24  1  0
 23 22  1  0
 25 24  1  1
 25 27  1  0
 25 26  1  0
 26 19  1  0
 27 28  1  0
 29 27  2  0
M  END
$$$$
