YML.pdb
     RDKit          3D

 29 29  0  0  1  0  0  0  0  0999 V2000
    6.9698  -23.4396   29.3443 O   0  0  0  0  0  0  0  0  0  0  0  0
    7.2456  -22.3553   28.4880 C   0  0  0  0  0  0  0  0  0  0  0  0
    6.3699  -21.2896   28.4075 C   0  0  0  0  0  0  0  0  0  0  0  0
    6.6294  -20.2096   27.5647 C   0  0  0  0  0  0  0  0  0  0  0  0
    7.7656  -20.1755   26.7892 C   0  0  0  0  0  0  0  0  0  0  0  0
    7.9975  -19.0089   25.9083 C   0  0  0  0  0  0  0  0  0  0  0  0
    6.8152  -18.7388   25.0077 C   0  0  2  0  0  0  0  0  0  0  0  0
    6.7341  -19.8419   24.0750 N   0  0  0  0  0  0  0  0  0  0  0  0
    6.9293  -17.4869   24.2639 C   0  0  0  0  0  0  0  0  0  0  0  0
    7.3562  -17.5379   23.0631 O   0  0  0  0  0  0  0  0  0  0  0  0
    8.6248  -21.2478   26.8846 C   0  0  0  0  0  0  0  0  0  0  0  0
    8.3786  -22.3221   27.7153 C   0  0  0  0  0  0  0  0  0  0  0  0
    4.5804  -12.0694   26.4977 C   0  0  0  0  0  0  0  0  0  0  0  0
    6.0332  -11.2685   25.7387 S   0  0  0  0  0  0  0  0  0  0  0  0
    6.9621  -12.5125   24.7419 C   0  0  0  0  0  0  0  0  0  0  0  0
    6.5405  -13.8886   25.1059 C   0  0  0  0  0  0  0  0  0  0  0  0
    7.2330  -15.0106   24.4127 C   0  0  2  0  0  0  0  0  0  0  0  0
    6.5749  -16.2402   24.8597 N   0  0  0  0  0  0  0  0  0  0  0  0
    8.6677  -15.1411   24.6587 C   0  0  0  0  0  0  0  0  0  0  0  0
    9.4571  -14.4417   23.9314 O   0  0  0  0  0  0  0  0  0  0  0  0
   10.2883  -15.0605   29.6880 C   0  0  0  0  0  0  0  0  0  0  0  0
    9.9853  -14.8996   28.1946 C   0  0  1  0  0  0  0  0  0  0  0  0
   10.3761  -13.4417   27.8361 C   0  0  0  0  0  0  0  0  0  0  0  0
   10.9029  -15.8215   27.4487 C   0  0  0  0  0  0  0  0  0  0  0  0
   10.6868  -15.7272   25.9837 C   0  0  2  0  0  0  0  0  0  0  0  0
    9.2993  -15.9517   25.6153 N   0  0  0  0  0  0  0  0  0  0  0  0
   11.5329  -16.6776   25.2551 C   0  0  0  0  0  0  0  0  0  0  0  0
   12.9359  -16.5545   25.3743 O   0  0  0  0  0  0  0  0  0  0  0  0
   11.1089  -17.5972   24.5294 O   0  0  0  0  0  0  0  0  0  0  0  0
  2  1  1  0
  3  2  2  0
  4  3  1  0
  5  4  2  0
  5 11  1  0
  6  5  1  0
  7  9  1  0
  7  6  1  0
  7  8  1  6
  9 10  2  0
 11 12  2  0
 12  2  1  0
 14 15  1  0
 14 13  1  0
 17 16  1  1
 16 15  1  0
 18 17  1  0
 18  9  1  0
 19 20  2  0
 19 17  1  0
 22 21  1  1
 22 24  1  0
 23 22  1  0
 25 24  1  1
 25 27  1  0
 25 26  1  0
 26 19  1  0
 27 28  1  0
 29 27  2  0
M  END
$$$$
