YML.pdb
     RDKit          3D

 29 29  0  0  1  0  0  0  0  0999 V2000
    9.7799  -22.7872   18.8714 O   0  0  0  0  0  0  0  0  0  0  0  0
   10.2124  -21.6306   19.5499 C   0  0  0  0  0  0  0  0  0  0  0  0
   10.3131  -20.4260   18.8808 C   0  0  0  0  0  0  0  0  0  0  0  0
   10.7396  -19.2731   19.5389 C   0  0  0  0  0  0  0  0  0  0  0  0
   11.0723  -19.3034   20.8737 C   0  0  0  0  0  0  0  0  0  0  0  0
   11.5216  -18.0546   21.5291 C   0  0  0  0  0  0  0  0  0  0  0  0
   10.6215  -16.8880   21.1962 C   0  0  2  0  0  0  0  0  0  0  0  0
   11.3387  -16.0566   20.2541 N   0  0  0  0  0  0  0  0  0  0  0  0
   10.2562  -16.0886   22.3628 C   0  0  0  0  0  0  0  0  0  0  0  0
   11.1052  -15.2448   22.8032 O   0  0  0  0  0  0  0  0  0  0  0  0
   10.9648  -20.5141   21.5215 C   0  0  0  0  0  0  0  0  0  0  0  0
   10.5438  -21.6617   20.8807 C   0  0  0  0  0  0  0  0  0  0  0  0
    6.6433  -11.7063   26.5743 C   0  0  0  0  0  0  0  0  0  0  0  0
    7.0772  -12.5755   25.0301 S   0  0  0  0  0  0  0  0  0  0  0  0
    6.5925  -14.3498   25.1739 C   0  0  0  0  0  0  0  0  0  0  0  0
    7.1924  -15.1426   24.0713 C   0  0  0  0  0  0  0  0  0  0  0  0
    8.6528  -15.4226   24.1606 C   0  0  2  0  0  0  0  0  0  0  0  0
    8.9870  -16.2441   22.9952 N   0  0  0  0  0  0  0  0  0  0  0  0
    9.1095  -16.1199   25.3611 C   0  0  0  0  0  0  0  0  0  0  0  0
    9.0364  -17.3990   25.3644 O   0  0  0  0  0  0  0  0  0  0  0  0
   11.4102  -14.1575   27.5948 C   0  0  0  0  0  0  0  0  0  0  0  0
   10.5767  -14.3196   28.8703 C   0  0  1  0  0  0  0  0  0  0  0  0
    9.3360  -13.4065   28.6865 C   0  0  0  0  0  0  0  0  0  0  0  0
   10.1022  -15.7411   28.9185 C   0  0  0  0  0  0  0  0  0  0  0  0
   10.1894  -16.3836   27.5838 C   0  0  2  0  0  0  0  0  0  0  0  0
    9.6320  -15.5494   26.5327 N   0  0  0  0  0  0  0  0  0  0  0  0
    9.5119  -17.6839   27.5697 C   0  0  0  0  0  0  0  0  0  0  0  0
   10.1134  -18.7608   28.2598 O   0  0  0  0  0  0  0  0  0  0  0  0
    8.4343  -17.9190   26.9904 O   0  0  0  0  0  0  0  0  0  0  0  0
  2  1  1  0
  3  2  2  0
  4  3  1  0
  5  4  2  0
  5 11  1  0
  6  5  1  0
  7  9  1  0
  7  6  1  0
  7  8  1  6
  9 10  2  0
 11 12  2  0
 12  2  1  0
 14 15  1  0
 14 13  1  0
 17 16  1  1
 16 15  1  0
 18 17  1  0
 18  9  1  0
 19 20  2  0
 19 17  1  0
 22 21  1  6
 22 24  1  0
 23 22  1  0
 25 24  1  1
 25 27  1  0
 25 26  1  0
 26 19  1  0
 27 28  1  0
 29 27  2  0
M  END
$$$$
