YML.pdb
     RDKit          3D

 29 29  0  0  1  0  0  0  0  0999 V2000
    3.3804  -23.9022   25.8467 O   0  0  0  0  0  0  0  0  0  0  0  0
    4.2272  -22.8235   25.5232 C   0  0  0  0  0  0  0  0  0  0  0  0
    3.8550  -21.9104   24.5553 C   0  0  0  0  0  0  0  0  0  0  0  0
    4.6824  -20.8379   24.2246 C   0  0  0  0  0  0  0  0  0  0  0  0
    5.8932  -20.6594   24.8533 C   0  0  0  0  0  0  0  0  0  0  0  0
    6.7384  -19.5072   24.4674 C   0  0  0  0  0  0  0  0  0  0  0  0
    7.0885  -19.5321   22.9981 C   0  0  2  0  0  0  0  0  0  0  0  0
    7.7963  -20.7701   22.7535 N   0  0  0  0  0  0  0  0  0  0  0  0
    7.9258  -18.4091   22.5844 C   0  0  0  0  0  0  0  0  0  0  0  0
    9.1856  -18.5014   22.7609 O   0  0  0  0  0  0  0  0  0  0  0  0
    6.2448  -21.5810   25.8147 C   0  0  0  0  0  0  0  0  0  0  0  0
    5.4341  -22.6462   26.1506 C   0  0  0  0  0  0  0  0  0  0  0  0
    7.6968  -11.3441   18.9410 C   0  0  0  0  0  0  0  0  0  0  0  0
    7.0234  -13.0204   19.1957 S   0  0  0  0  0  0  0  0  0  0  0  0
    8.0839  -13.9248   20.4046 C   0  0  0  0  0  0  0  0  0  0  0  0
    7.4633  -15.2232   20.7694 C   0  0  0  0  0  0  0  0  0  0  0  0
    8.1982  -16.0685   21.7515 C   0  0  2  0  0  0  0  0  0  0  0  0
    7.3551  -17.2400   21.9993 N   0  0  0  0  0  0  0  0  0  0  0  0
    8.5131  -15.4482   23.0368 C   0  0  0  0  0  0  0  0  0  0  0  0
    9.4931  -14.6236   23.0697 O   0  0  0  0  0  0  0  0  0  0  0  0
    8.4429  -12.2222   26.6069 C   0  0  0  0  0  0  0  0  0  0  0  0
    7.2936  -13.1472   27.0211 C   0  0  1  0  0  0  0  0  0  0  0  0
    6.0771  -12.2216   27.2860 C   0  0  0  0  0  0  0  0  0  0  0  0
    6.9677  -14.0136   25.8416 C   0  0  0  0  0  0  0  0  0  0  0  0
    8.1492  -14.7999   25.4081 C   0  0  2  0  0  0  0  0  0  0  0  0
    7.8586  -15.6459   24.2630 N   0  0  0  0  0  0  0  0  0  0  0  0
    8.6668  -15.6339   26.4975 C   0  0  0  0  0  0  0  0  0  0  0  0
   10.0070  -15.4474   26.9060 O   0  0  0  0  0  0  0  0  0  0  0  0
    8.0115  -16.5055   27.0999 O   0  0  0  0  0  0  0  0  0  0  0  0
  2  1  1  0
  3  2  2  0
  4  3  1  0
  5  4  2  0
  5 11  1  0
  6  5  1  0
  7  9  1  0
  7  6  1  0
  7  8  1  1
  9 10  2  0
 11 12  2  0
 12  2  1  0
 14 15  1  0
 14 13  1  0
 17 16  1  6
 16 15  1  0
 18 17  1  0
 18  9  1  0
 19 20  2  0
 19 17  1  0
 22 21  1  6
 22 24  1  0
 23 22  1  0
 25 24  1  1
 25 27  1  0
 25 26  1  0
 26 19  1  0
 27 28  1  0
 29 27  2  0
M  END
$$$$
