YML.pdb
     RDKit          3D

 29 29  0  0  1  0  0  0  0  0999 V2000
    7.3437  -14.3650   14.7836 O   0  0  0  0  0  0  0  0  0  0  0  0
    7.7702  -14.2147   16.1180 C   0  0  0  0  0  0  0  0  0  0  0  0
    9.0605  -14.5506   16.4800 C   0  0  0  0  0  0  0  0  0  0  0  0
    9.4969  -14.4072   17.7965 C   0  0  0  0  0  0  0  0  0  0  0  0
    8.6538  -13.9269   18.7721 C   0  0  0  0  0  0  0  0  0  0  0  0
    9.1611  -13.7938   20.1561 C   0  0  0  0  0  0  0  0  0  0  0  0
    9.2907  -15.1344   20.8403 C   0  0  2  0  0  0  0  0  0  0  0  0
    8.0969  -15.8876   20.5231 N   0  0  0  0  0  0  0  0  0  0  0  0
    9.4241  -15.0323   22.2912 C   0  0  0  0  0  0  0  0  0  0  0  0
   10.4880  -14.5092   22.7618 O   0  0  0  0  0  0  0  0  0  0  0  0
    7.3720  -13.5981   18.3898 C   0  0  0  0  0  0  0  0  0  0  0  0
    6.9289  -13.7357   17.0899 C   0  0  0  0  0  0  0  0  0  0  0  0
    6.9316  -11.6574   26.4796 C   0  0  0  0  0  0  0  0  0  0  0  0
    5.7266  -13.0203   26.3442 S   0  0  0  0  0  0  0  0  0  0  0  0
    6.6264  -14.6310   26.3513 C   0  0  0  0  0  0  0  0  0  0  0  0
    6.9305  -15.0615   24.9635 C   0  0  0  0  0  0  0  0  0  0  0  0
    8.3627  -15.0513   24.5539 C   0  0  2  0  0  0  0  0  0  0  0  0
    8.3964  -15.5032   23.1612 N   0  0  0  0  0  0  0  0  0  0  0  0
    9.2683  -15.8935   25.3328 C   0  0  0  0  0  0  0  0  0  0  0  0
    9.5783  -17.0364   24.8438 O   0  0  0  0  0  0  0  0  0  0  0  0
   10.1061  -13.9903   27.8293 C   0  0  0  0  0  0  0  0  0  0  0  0
   11.4699  -14.4797   28.3276 C   0  0  1  0  0  0  0  0  0  0  0  0
   11.6238  -13.9184   29.7656 C   0  0  0  0  0  0  0  0  0  0  0  0
   11.4040  -15.9749   28.4191 C   0  0  0  0  0  0  0  0  0  0  0  0
   10.7188  -16.5570   27.2386 C   0  0  2  0  0  0  0  0  0  0  0  0
    9.8546  -15.5966   26.5735 N   0  0  0  0  0  0  0  0  0  0  0  0
    9.9276  -17.7357   27.6055 C   0  0  0  0  0  0  0  0  0  0  0  0
    8.5244  -17.6776   27.4463 O   0  0  0  0  0  0  0  0  0  0  0  0
   10.3991  -18.7986   28.0526 O   0  0  0  0  0  0  0  0  0  0  0  0
  2  1  1  0
  3  2  2  0
  4  3  1  0
  5  4  2  0
  5 11  1  0
  6  5  1  0
  7  9  1  0
  7  6  1  0
  7  8  1  1
  9 10  2  0
 11 12  2  0
 12  2  1  0
 14 15  1  0
 14 13  1  0
 17 16  1  1
 16 15  1  0
 18 17  1  0
 18  9  1  0
 19 20  2  0
 19 17  1  0
 22 21  1  1
 22 24  1  0
 23 22  1  0
 25 24  1  1
 25 27  1  0
 25 26  1  0
 26 19  1  0
 27 28  1  0
 29 27  2  0
M  END
$$$$
