YML.pdb
     RDKit          3D

 29 29  0  0  1  0  0  0  0  0999 V2000
    7.1624  -23.1640   29.4848 O   0  0  0  0  0  0  0  0  0  0  0  0
    7.1834  -22.0540   28.6173 C   0  0  0  0  0  0  0  0  0  0  0  0
    8.2490  -21.1747   28.6352 C   0  0  0  0  0  0  0  0  0  0  0  0
    8.2838  -20.0719   27.7827 C   0  0  0  0  0  0  0  0  0  0  0  0
    7.2570  -19.8287   26.8996 C   0  0  0  0  0  0  0  0  0  0  0  0
    7.3371  -18.6443   26.0155 C   0  0  0  0  0  0  0  0  0  0  0  0
    7.2148  -19.0200   24.5575 C   0  0  2  0  0  0  0  0  0  0  0  0
    8.0212  -20.2045   24.3575 N   0  0  0  0  0  0  0  0  0  0  0  0
    7.6690  -17.9696   23.6499 C   0  0  0  0  0  0  0  0  0  0  0  0
    8.6632  -18.2193   22.8910 O   0  0  0  0  0  0  0  0  0  0  0  0
    6.2046  -20.7174   26.8982 C   0  0  0  0  0  0  0  0  0  0  0  0
    6.1593  -21.8123   27.7372 C   0  0  0  0  0  0  0  0  0  0  0  0
    5.7022  -12.4474   26.6871 C   0  0  0  0  0  0  0  0  0  0  0  0
    6.7650  -12.8316   25.2550 S   0  0  0  0  0  0  0  0  0  0  0  0
    5.9408  -14.1103   24.2113 C   0  0  0  0  0  0  0  0  0  0  0  0
    6.7711  -14.4225   23.0209 C   0  0  0  0  0  0  0  0  0  0  0  0
    7.7682  -15.5199   23.1643 C   0  0  2  0  0  0  0  0  0  0  0  0
    7.0224  -16.6987   23.6104 N   0  0  0  0  0  0  0  0  0  0  0  0
    8.8630  -15.2857   24.1037 C   0  0  0  0  0  0  0  0  0  0  0  0
    9.8383  -14.5577   23.7035 O   0  0  0  0  0  0  0  0  0  0  0  0
   11.3885  -13.5194   28.1168 C   0  0  0  0  0  0  0  0  0  0  0  0
   11.0370  -14.9695   28.4656 C   0  0  1  0  0  0  0  0  0  0  0  0
   10.6371  -14.9614   29.9645 C   0  0  0  0  0  0  0  0  0  0  0  0
    9.8252  -15.3423   27.6653 C   0  0  0  0  0  0  0  0  0  0  0  0
   10.1494  -15.4650   26.2225 C   0  0  2  0  0  0  0  0  0  0  0  0
    8.9778  -15.7668   25.4177 N   0  0  0  0  0  0  0  0  0  0  0  0
   11.1669  -16.4944   25.9876 C   0  0  0  0  0  0  0  0  0  0  0  0
   12.4506  -16.0835   25.5622 O   0  0  0  0  0  0  0  0  0  0  0  0
   10.9884  -17.7185   26.1346 O   0  0  0  0  0  0  0  0  0  0  0  0
  2  1  1  0
  3  2  2  0
  4  3  1  0
  5  4  2  0
  5 11  1  0
  6  5  1  0
  7  9  1  0
  7  6  1  0
  7  8  1  1
  9 10  2  0
 11 12  2  0
 12  2  1  0
 14 15  1  0
 14 13  1  0
 17 16  1  1
 16 15  1  0
 18 17  1  0
 18  9  1  0
 19 20  2  0
 19 17  1  0
 22 21  1  6
 22 24  1  0
 23 22  1  0
 25 24  1  1
 25 27  1  0
 25 26  1  0
 26 19  1  0
 27 28  1  0
 29 27  2  0
M  END
$$$$
