GRI.pdb
     RDKit          3D

 24 23  0  0  1  0  0  0  0  0999 V2000
   18.7943  -20.8057  -11.7007 N   0  0  0  0  0  0  0  0  0  0  0  0
   19.7609  -20.3459  -12.6770 C   0  0  0  0  0  0  0  0  0  0  0  0
   21.0524  -21.0398  -12.5494 C   0  0  0  0  0  0  0  0  0  0  0  0
   21.5829  -21.2492  -11.4530 O   0  0  0  0  0  0  0  0  0  0  0  0
   25.7703  -24.8347  -16.7311 N   0  0  0  0  0  0  0  0  0  0  0  0
   25.0163  -25.9272  -16.2520 C   0  0  0  0  0  0  0  0  0  0  0  0
   25.6218  -26.9522  -15.7539 N   0  0  0  0  0  0  0  0  0  0  0  0
   23.5987  -25.9129  -16.3123 N   0  0  0  0  0  0  0  0  0  0  0  0
   22.9127  -24.6664  -16.6936 C   0  0  0  0  0  0  0  0  0  0  0  0
   22.4550  -23.9398  -15.4544 C   0  0  0  0  0  0  0  0  0  0  0  0
   23.2637  -22.7736  -15.0454 C   0  0  0  0  0  0  0  0  0  0  0  0
   22.9840  -22.1598  -13.7146 C   0  0  2  0  0  0  0  0  0  0  0  0
   21.7117  -21.4843  -13.7329 N   0  0  0  0  0  0  0  0  0  0  0  0
   24.0175  -21.0538  -13.5598 C   0  0  0  0  0  0  0  0  0  0  0  0
   23.7243  -19.9244  -13.9829 O   0  0  0  0  0  0  0  0  0  0  0  0
   25.1440  -27.8194  -15.4485 C   0  0  0  0  0  0  0  0  0  0  0  0
   29.2133  -21.7015  -11.0412 C   0  0  0  0  0  0  0  0  0  0  0  0
   27.8543  -21.8621  -11.6825 C   0  0  2  0  0  0  0  0  0  0  0  0
   27.0866  -20.5737  -11.4852 C   0  0  0  0  0  0  0  0  0  0  0  0
   26.1483  -20.7508  -10.3136 C   0  0  1  0  0  0  0  0  0  0  0  0
   26.2405  -20.2398  -12.6971 N   0  0  0  0  0  0  0  0  0  0  0  0
   25.2680  -21.2902  -12.9584 C   0  0  0  0  0  0  0  0  0  0  0  0
   27.1471  -20.1009  -13.8508 O   0  0  0  0  0  0  0  0  0  0  0  0
   28.0324  -19.0465  -13.9035 O   0  0  0  0  0  0  0  0  0  0  0  0
  2  1  1  0
  2  3  1  0
  3  4  2  0
  3 13  1  0
  6  7  2  0
  6  5  1  0
  8  6  1  0
  9  8  1  0
 10  9  1  0
 11 10  1  0
 12 14  1  0
 12 11  1  6
 13 12  1  0
 14 15  2  0
 16 17  1  0
 17 18  1  0
 18 19  1  6
 20 22  1  0
 20 18  1  0
 20 21  1  1
 21 14  1  0
 22 23  1  0
 24 22  2  0
M  END
$$$$
