GRI.pdb
     RDKit          3D

 24 23  0  0  1  0  0  0  0  0999 V2000
   18.2123  -22.0680  -11.6570 N   0  0  0  0  0  0  0  0  0  0  0  0
   19.3151  -22.5025  -12.4899 C   0  0  0  0  0  0  0  0  0  0  0  0
   20.1512  -21.3766  -12.9362 C   0  0  0  0  0  0  0  0  0  0  0  0
   19.8321  -20.1991  -12.7379 O   0  0  0  0  0  0  0  0  0  0  0  0
   25.0324  -24.9527  -13.8129 N   0  0  0  0  0  0  0  0  0  0  0  0
   25.3117  -24.2649  -15.0132 C   0  0  0  0  0  0  0  0  0  0  0  0
   25.2534  -24.8938  -16.1386 N   0  0  0  0  0  0  0  0  0  0  0  0
   25.6572  -22.8887  -14.9977 N   0  0  0  0  0  0  0  0  0  0  0  0
   25.7971  -22.2021  -13.7020 C   0  0  0  0  0  0  0  0  0  0  0  0
   24.4851  -21.5641  -13.3219 C   0  0  0  0  0  0  0  0  0  0  0  0
   23.5880  -21.2017  -14.4378 C   0  0  0  0  0  0  0  0  0  0  0  0
   22.2526  -20.6260  -14.1040 C   0  0  2  0  0  0  0  0  0  0  0  0
   21.3702  -21.6570  -13.6206 N   0  0  0  0  0  0  0  0  0  0  0  0
   21.6609  -20.1908  -15.4365 C   0  0  0  0  0  0  0  0  0  0  0  0
   21.0982  -21.0535  -16.1292 O   0  0  0  0  0  0  0  0  0  0  0  0
   25.3883  -24.4466  -17.0634 C   0  0  0  0  0  0  0  0  0  0  0  0
   18.4471  -15.7796  -17.7843 C   0  0  0  0  0  0  0  0  0  0  0  0
   19.4801  -16.8236  -18.1408 C   0  0  2  0  0  0  0  0  0  0  0  0
   20.1354  -17.2924  -16.8606 C   0  0  0  0  0  0  0  0  0  0  0  0
   20.8826  -16.1281  -16.2518 C   0  0  2  0  0  0  0  0  0  0  0  0
   21.1449  -18.3914  -17.1231 N   0  0  0  0  0  0  0  0  0  0  0  0
   21.7419  -18.8576  -15.8806 C   0  0  0  0  0  0  0  0  0  0  0  0
   22.1905  -17.8374  -18.0019 O   0  0  0  0  0  0  0  0  0  0  0  0
   21.9386  -17.6722  -19.3464 O   0  0  0  0  0  0  0  0  0  0  0  0
  2  1  1  0
  2  3  1  0
  3  4  2  0
  3 13  1  0
  6  7  2  0
  6  5  1  0
  8  6  1  0
  9  8  1  0
 10  9  1  0
 11 10  1  0
 12 14  1  0
 12 11  1  6
 13 12  1  0
 14 15  2  0
 16 17  1  0
 17 18  1  0
 18 19  1  1
 20 22  1  0
 20 18  1  0
 20 21  1  6
 21 14  1  0
 22 23  1  0
 24 22  2  0
M  END
$$$$
