GRI.pdb
     RDKit          3D

 24 23  0  0  1  0  0  0  0  0999 V2000
   27.0987  -16.9482  -15.5250 N   0  0  0  0  0  0  0  0  0  0  0  0
   26.9773  -18.1542  -14.7314 C   0  0  0  0  0  0  0  0  0  0  0  0
   25.8132  -18.9637  -15.1257 C   0  0  0  0  0  0  0  0  0  0  0  0
   24.8988  -18.5085  -15.8215 O   0  0  0  0  0  0  0  0  0  0  0  0
   27.3935  -25.4107  -16.3099 N   0  0  0  0  0  0  0  0  0  0  0  0
   26.3705  -25.5434  -17.2730 C   0  0  0  0  0  0  0  0  0  0  0  0
   26.6781  -25.7822  -18.5033 N   0  0  0  0  0  0  0  0  0  0  0  0
   25.0061  -25.4163  -16.9048 N   0  0  0  0  0  0  0  0  0  0  0  0
   24.6713  -25.0679  -15.5132 C   0  0  0  0  0  0  0  0  0  0  0  0
   24.1477  -23.6553  -15.4561 C   0  0  0  0  0  0  0  0  0  0  0  0
   25.1255  -22.6110  -15.0893 C   0  0  0  0  0  0  0  0  0  0  0  0
   24.6526  -21.1970  -15.0349 C   0  0  2  0  0  0  0  0  0  0  0  0
   25.7407  -20.3188  -14.6882 N   0  0  0  0  0  0  0  0  0  0  0  0
   23.7029  -21.1389  -13.8476 C   0  0  0  0  0  0  0  0  0  0  0  0
   24.1946  -21.2013  -12.7096 O   0  0  0  0  0  0  0  0  0  0  0  0
   25.9880  -26.0024  -19.2441 C   0  0  0  0  0  0  0  0  0  0  0  0
   20.1665  -18.4451  -10.7446 C   0  0  0  0  0  0  0  0  0  0  0  0
   19.6939  -19.4284  -11.7904 C   0  0  2  0  0  0  0  0  0  0  0  0
   20.7580  -19.5226  -12.8614 C   0  0  0  0  0  0  0  0  0  0  0  0
   20.1099  -19.2681  -14.2029 C   0  0  2  0  0  0  0  0  0  0  0  0
   21.3753  -20.9056  -12.9114 N   0  0  0  0  0  0  0  0  0  0  0  0
   22.3112  -21.0182  -14.0200 C   0  0  0  0  0  0  0  0  0  0  0  0
   20.2807  -21.8778  -13.0818 O   0  0  0  0  0  0  0  0  0  0  0  0
   19.4688  -22.1896  -12.0133 O   0  0  0  0  0  0  0  0  0  0  0  0
  2  1  1  0
  2  3  1  0
  3  4  2  0
  3 13  1  0
  6  7  2  0
  6  5  1  0
  8  6  1  0
  9  8  1  0
 10  9  1  0
 11 10  1  0
 12 14  1  0
 12 11  1  1
 13 12  1  0
 14 15  2  0
 16 17  1  0
 17 18  1  0
 18 19  1  1
 20 22  1  0
 20 18  1  0
 20 21  1  6
 21 14  1  0
 22 23  1  0
 24 22  2  0
M  END
$$$$
