GRI.pdb
     RDKit          3D

 24 23  0  0  1  0  0  0  0  0999 V2000
   21.9313  -26.7474  -21.1793 N   0  0  0  0  0  0  0  0  0  0  0  0
   22.0768  -25.6060  -20.2991 C   0  0  0  0  0  0  0  0  0  0  0  0
   21.9679  -25.9813  -18.8802 C   0  0  0  0  0  0  0  0  0  0  0  0
   21.1493  -26.8161  -18.4799 O   0  0  0  0  0  0  0  0  0  0  0  0
   27.9641  -28.4053  -15.8836 N   0  0  0  0  0  0  0  0  0  0  0  0
   28.0288  -27.6876  -17.0970 C   0  0  0  0  0  0  0  0  0  0  0  0
   28.5777  -28.2294  -18.1316 N   0  0  0  0  0  0  0  0  0  0  0  0
   27.4977  -26.3753  -17.1933 N   0  0  0  0  0  0  0  0  0  0  0  0
   26.7055  -25.8414  -16.0720 C   0  0  0  0  0  0  0  0  0  0  0  0
   25.3010  -26.3853  -16.1391 C   0  0  0  0  0  0  0  0  0  0  0  0
   24.2118  -25.4037  -15.9619 C   0  0  0  0  0  0  0  0  0  0  0  0
   22.8770  -25.7261  -16.5453 C   0  0  2  0  0  0  0  0  0  0  0  0
   22.8378  -25.3584  -17.9377 N   0  0  0  0  0  0  0  0  0  0  0  0
   21.9021  -24.7812  -15.8585 C   0  0  0  0  0  0  0  0  0  0  0  0
   21.9985  -23.5690  -16.1073 O   0  0  0  0  0  0  0  0  0  0  0  0
   28.5896  -27.8024  -19.0755 C   0  0  0  0  0  0  0  0  0  0  0  0
   16.7759  -25.2408  -16.1397 C   0  0  0  0  0  0  0  0  0  0  0  0
   18.1713  -24.6859  -15.9699 C   0  0  2  0  0  0  0  0  0  0  0  0
   18.5541  -24.8153  -14.5122 C   0  0  0  0  0  0  0  0  0  0  0  0
   17.6625  -23.9036  -13.7009 C   0  0  2  0  0  0  0  0  0  0  0  0
   19.9856  -24.3798  -14.2727 N   0  0  0  0  0  0  0  0  0  0  0  0
   20.9187  -25.2529  -14.9688 C   0  0  0  0  0  0  0  0  0  0  0  0
   20.2342  -24.4397  -12.8212 O   0  0  0  0  0  0  0  0  0  0  0  0
   19.8020  -23.4139  -12.0092 O   0  0  0  0  0  0  0  0  0  0  0  0
  2  1  1  0
  2  3  1  0
  3  4  2  0
  3 13  1  0
  6  7  2  0
  6  5  1  0
  8  6  1  0
  9  8  1  0
 10  9  1  0
 11 10  1  0
 12 14  1  0
 12 11  1  1
 13 12  1  0
 14 15  2  0
 16 17  1  0
 17 18  1  0
 18 19  1  1
 20 22  1  0
 20 18  1  0
 20 21  1  6
 21 14  1  0
 22 23  1  0
 24 22  2  0
M  END
$$$$
