GRI.pdb
     RDKit          3D

 24 23  0  0  1  0  0  0  0  0999 V2000
   26.9817  -19.3443  -19.8794 N   0  0  0  0  0  0  0  0  0  0  0  0
   26.1990  -18.5141  -18.9867 C   0  0  0  0  0  0  0  0  0  0  0  0
   25.7841  -19.2389  -17.7750 C   0  0  0  0  0  0  0  0  0  0  0  0
   25.0724  -20.2483  -17.8217 O   0  0  0  0  0  0  0  0  0  0  0  0
   27.1555  -20.9760   -9.8592 N   0  0  0  0  0  0  0  0  0  0  0  0
   25.7545  -20.8641   -9.9874 C   0  0  0  0  0  0  0  0  0  0  0  0
   25.0142  -20.8615   -8.9303 N   0  0  0  0  0  0  0  0  0  0  0  0
   25.1490  -20.7553  -11.2660 N   0  0  0  0  0  0  0  0  0  0  0  0
   26.0035  -20.5248  -12.4436 C   0  0  0  0  0  0  0  0  0  0  0  0
   26.0642  -19.0488  -12.7449 C   0  0  0  0  0  0  0  0  0  0  0  0
   26.4776  -18.6785  -14.1136 C   0  0  0  0  0  0  0  0  0  0  0  0
   25.7568  -19.3093  -15.2576 C   0  0  2  0  0  0  0  0  0  0  0  0
   26.2193  -18.7576  -16.5054 N   0  0  0  0  0  0  0  0  0  0  0  0
   24.3148  -18.8414  -15.1279 C   0  0  0  0  0  0  0  0  0  0  0  0
   24.0984  -17.6194  -15.1522 O   0  0  0  0  0  0  0  0  0  0  0  0
   23.9846  -20.7463   -8.9406 C   0  0  0  0  0  0  0  0  0  0  0  0
   18.8509  -19.5882  -17.1151 C   0  0  0  0  0  0  0  0  0  0  0  0
   19.5888  -19.2821  -15.8323 C   0  0  2  0  0  0  0  0  0  0  0  0
   21.0241  -19.7299  -15.9977 C   0  0  0  0  0  0  0  0  0  0  0  0
   21.0457  -21.2377  -16.1003 C   0  0  2  0  0  0  0  0  0  0  0  0
   21.8679  -19.3451  -14.7994 N   0  0  0  0  0  0  0  0  0  0  0  0
   23.2523  -19.7534  -14.9848 C   0  0  0  0  0  0  0  0  0  0  0  0
   21.3021  -20.0214  -13.6184 O   0  0  0  0  0  0  0  0  0  0  0  0
   20.1163  -19.5760  -13.0764 O   0  0  0  0  0  0  0  0  0  0  0  0
  2  1  1  0
  2  3  1  0
  3  4  2  0
  3 13  1  0
  6  7  2  0
  6  5  1  0
  8  6  1  0
  9  8  1  0
 10  9  1  0
 11 10  1  0
 12 14  1  0
 12 11  1  1
 13 12  1  0
 14 15  2  0
 16 17  1  0
 17 18  1  0
 18 19  1  6
 20 22  1  0
 20 18  1  0
 20 21  1  1
 21 14  1  0
 22 23  1  0
 24 22  2  0
M  END
$$$$
