GRI.pdb
     RDKit          3D

 24 23  0  0  1  0  0  0  0  0999 V2000
   23.0818  -26.8153  -15.6171 N   0  0  0  0  0  0  0  0  0  0  0  0
   23.3789  -25.7377  -16.5386 C   0  0  0  0  0  0  0  0  0  0  0  0
   23.5440  -24.4476  -15.8500 C   0  0  0  0  0  0  0  0  0  0  0  0
   23.1630  -24.2668  -14.6883 O   0  0  0  0  0  0  0  0  0  0  0  0
   29.2093  -22.3957  -16.1055 N   0  0  0  0  0  0  0  0  0  0  0  0
   29.4061  -22.6664  -17.4765 C   0  0  0  0  0  0  0  0  0  0  0  0
   30.2907  -23.5345  -17.8359 N   0  0  0  0  0  0  0  0  0  0  0  0
   28.6427  -21.9943  -18.4660 N   0  0  0  0  0  0  0  0  0  0  0  0
   27.5117  -21.1501  -18.0441 C   0  0  0  0  0  0  0  0  0  0  0  0
   26.5570  -21.9628  -17.2069 C   0  0  0  0  0  0  0  0  0  0  0  0
   25.3265  -21.2746  -16.7666 C   0  0  0  0  0  0  0  0  0  0  0  0
   24.3290  -22.0581  -15.9811 C   0  0  2  0  0  0  0  0  0  0  0  0
   24.1647  -23.3715  -16.5498 N   0  0  0  0  0  0  0  0  0  0  0  0
   22.9986  -21.3569  -16.2125 C   0  0  0  0  0  0  0  0  0  0  0  0
   22.5476  -21.3385  -17.3688 O   0  0  0  0  0  0  0  0  0  0  0  0
   30.4474  -23.8354  -18.8149 C   0  0  0  0  0  0  0  0  0  0  0  0
   17.4278  -21.2160  -14.8946 C   0  0  0  0  0  0  0  0  0  0  0  0
   18.5376  -20.2331  -15.1881 C   0  0  2  0  0  0  0  0  0  0  0  0
   19.8585  -20.9447  -14.9949 C   0  0  0  0  0  0  0  0  0  0  0  0
   19.9924  -21.3166  -13.5361 C   0  0  2  0  0  0  0  0  0  0  0  0
   21.0290  -20.0478  -15.3433 N   0  0  0  0  0  0  0  0  0  0  0  0
   22.2925  -20.7458  -15.1594 C   0  0  0  0  0  0  0  0  0  0  0  0
   20.9733  -18.8741  -14.4534 O   0  0  0  0  0  0  0  0  0  0  0  0
   20.0311  -17.8929  -14.6719 O   0  0  0  0  0  0  0  0  0  0  0  0
  2  1  1  0
  2  3  1  0
  3  4  2  0
  3 13  1  0
  6  7  2  0
  6  5  1  0
  8  6  1  0
  9  8  1  0
 10  9  1  0
 11 10  1  0
 12 14  1  0
 12 11  1  6
 13 12  1  0
 14 15  2  0
 16 17  1  0
 17 18  1  0
 18 19  1  6
 20 22  1  0
 20 18  1  0
 20 21  1  1
 21 14  1  0
 22 23  1  0
 24 22  2  0
M  END
$$$$
