GRI.pdb
     RDKit          3D

 24 23  0  0  1  0  0  0  0  0999 V2000
   26.3936  -23.0639  -16.2695 N   0  0  0  0  0  0  0  0  0  0  0  0
   25.8942  -22.6174  -14.9850 C   0  0  0  0  0  0  0  0  0  0  0  0
   24.4243  -22.5537  -14.9522 C   0  0  0  0  0  0  0  0  0  0  0  0
   23.7357  -22.6838  -15.9702 O   0  0  0  0  0  0  0  0  0  0  0  0
   19.0389  -24.9160  -10.0238 N   0  0  0  0  0  0  0  0  0  0  0  0
   18.0993  -24.3497  -10.9114 C   0  0  0  0  0  0  0  0  0  0  0  0
   16.9009  -24.1028  -10.5014 N   0  0  0  0  0  0  0  0  0  0  0  0
   18.4564  -24.0488  -12.2514 N   0  0  0  0  0  0  0  0  0  0  0  0
   19.8829  -23.9803  -12.6122 C   0  0  0  0  0  0  0  0  0  0  0  0
   20.5540  -22.8862  -11.8213 C   0  0  0  0  0  0  0  0  0  0  0  0
   21.9758  -22.6345  -12.1317 C   0  0  0  0  0  0  0  0  0  0  0  0
   22.3429  -22.3476  -13.5491 C   0  0  2  0  0  0  0  0  0  0  0  0
   23.7754  -22.3341  -13.7017 N   0  0  0  0  0  0  0  0  0  0  0  0
   21.9051  -20.9109  -13.7921 C   0  0  0  0  0  0  0  0  0  0  0  0
   22.3541  -20.0335  -13.0377 O   0  0  0  0  0  0  0  0  0  0  0  0
   16.1426  -23.7365  -11.1051 C   0  0  0  0  0  0  0  0  0  0  0  0
   22.6245  -18.3633  -18.0869 C   0  0  0  0  0  0  0  0  0  0  0  0
   22.3565  -18.6317  -16.6240 C   0  0  2  0  0  0  0  0  0  0  0  0
   20.8592  -18.7254  -16.4302 C   0  0  0  0  0  0  0  0  0  0  0  0
   20.2714  -17.3400  -16.5701 C   0  0  2  0  0  0  0  0  0  0  0  0
   20.5086  -19.2287  -15.0446 N   0  0  0  0  0  0  0  0  0  0  0  0
   21.0210  -20.5743  -14.8344 C   0  0  0  0  0  0  0  0  0  0  0  0
   19.0393  -19.2304  -14.9282 O   0  0  0  0  0  0  0  0  0  0  0  0
   18.3997  -18.1779  -14.3106 O   0  0  0  0  0  0  0  0  0  0  0  0
  2  1  1  0
  2  3  1  0
  3  4  2  0
  3 13  1  0
  6  7  2  0
  6  5  1  0
  8  6  1  0
  9  8  1  0
 10  9  1  0
 11 10  1  0
 12 14  1  0
 12 11  1  1
 13 12  1  0
 14 15  2  0
 16 17  1  0
 17 18  1  0
 18 19  1  6
 20 22  1  0
 20 18  1  0
 20 21  1  1
 21 14  1  0
 22 23  1  0
 24 22  2  0
M  END
$$$$
