GRI.pdb
     RDKit          3D

 24 23  0  0  1  0  0  0  0  0999 V2000
   22.4943  -15.1377  -19.1762 N   0  0  0  0  0  0  0  0  0  0  0  0
   22.1273  -15.4698  -17.8146 C   0  0  0  0  0  0  0  0  0  0  0  0
   22.1223  -16.9225  -17.5793 C   0  0  0  0  0  0  0  0  0  0  0  0
   22.0631  -17.7401  -18.5043 O   0  0  0  0  0  0  0  0  0  0  0  0
   25.7041  -22.2181  -14.3420 N   0  0  0  0  0  0  0  0  0  0  0  0
   24.9191  -22.8104  -13.3298 C   0  0  0  0  0  0  0  0  0  0  0  0
   25.0342  -24.0729  -13.0882 N   0  0  0  0  0  0  0  0  0  0  0  0
   24.0028  -22.0340  -12.5741 N   0  0  0  0  0  0  0  0  0  0  0  0
   23.8685  -20.5976  -12.8717 C   0  0  0  0  0  0  0  0  0  0  0  0
   23.1018  -20.4157  -14.1570 C   0  0  0  0  0  0  0  0  0  0  0  0
   22.9499  -19.0266  -14.6354 C   0  0  0  0  0  0  0  0  0  0  0  0
   22.1971  -18.8013  -15.9037 C   0  0  2  0  0  0  0  0  0  0  0  0
   22.1877  -17.3999  -16.2374 N   0  0  0  0  0  0  0  0  0  0  0  0
   20.7506  -19.1399  -15.5750 C   0  0  0  0  0  0  0  0  0  0  0  0
   20.1570  -18.4147  -14.7611 O   0  0  0  0  0  0  0  0  0  0  0  0
   24.4712  -24.5851  -12.3852 C   0  0  0  0  0  0  0  0  0  0  0  0
   15.8351  -20.6465  -17.6123 C   0  0  0  0  0  0  0  0  0  0  0  0
   16.6541  -21.6662  -16.8550 C   0  0  2  0  0  0  0  0  0  0  0  0
   18.1171  -21.3529  -17.0780 C   0  0  0  0  0  0  0  0  0  0  0  0
   18.8788  -22.6561  -17.1547 C   0  0  2  0  0  0  0  0  0  0  0  0
   18.6966  -20.5563  -15.9266 N   0  0  0  0  0  0  0  0  0  0  0  0
   20.0955  -20.2359  -16.1673 C   0  0  0  0  0  0  0  0  0  0  0  0
   18.5752  -21.3777  -14.7089 O   0  0  0  0  0  0  0  0  0  0  0  0
   17.5502  -21.1379  -13.8200 O   0  0  0  0  0  0  0  0  0  0  0  0
  2  1  1  0
  2  3  1  0
  3  4  2  0
  3 13  1  0
  6  7  2  0
  6  5  1  0
  8  6  1  0
  9  8  1  0
 10  9  1  0
 11 10  1  0
 12 14  1  0
 12 11  1  1
 13 12  1  0
 14 15  2  0
 16 17  1  0
 17 18  1  0
 18 19  1  1
 20 22  1  0
 20 18  1  0
 20 21  1  1
 21 14  1  0
 22 23  1  0
 24 22  2  0
M  END
$$$$
