GRI.pdb
     RDKit          3D

 24 23  0  0  1  0  0  0  0  0999 V2000
   19.4136  -19.9781  -11.1279 N   0  0  0  0  0  0  0  0  0  0  0  0
   20.1868  -20.5782  -12.1960 C   0  0  0  0  0  0  0  0  0  0  0  0
   20.8617  -19.5690  -13.0277 C   0  0  0  0  0  0  0  0  0  0  0  0
   20.6150  -18.3619  -12.9300 O   0  0  0  0  0  0  0  0  0  0  0  0
   28.3082  -21.0945  -13.1569 N   0  0  0  0  0  0  0  0  0  0  0  0
   27.1853  -21.6134  -12.4774 C   0  0  0  0  0  0  0  0  0  0  0  0
   27.3398  -22.1834  -11.3300 N   0  0  0  0  0  0  0  0  0  0  0  0
   25.8870  -21.5167  -13.0417 N   0  0  0  0  0  0  0  0  0  0  0  0
   25.7486  -21.1005  -14.4479 C   0  0  0  0  0  0  0  0  0  0  0  0
   25.0127  -19.7865  -14.5177 C   0  0  0  0  0  0  0  0  0  0  0  0
   23.7944  -19.7642  -15.3523 C   0  0  0  0  0  0  0  0  0  0  0  0
   22.5821  -19.0896  -14.8036 C   0  0  2  0  0  0  0  0  0  0  0  0
   21.8328  -20.0018  -13.9778 N   0  0  0  0  0  0  0  0  0  0  0  0
   21.6924  -18.8244  -16.0091 C   0  0  0  0  0  0  0  0  0  0  0  0
   20.9047  -19.7192  -16.3550 O   0  0  0  0  0  0  0  0  0  0  0  0
   26.5689  -22.6033  -10.7797 C   0  0  0  0  0  0  0  0  0  0  0  0
   17.9726  -15.7025  -18.5081 C   0  0  0  0  0  0  0  0  0  0  0  0
   19.4215  -15.5919  -18.9233 C   0  0  2  0  0  0  0  0  0  0  0  0
   20.2806  -15.9320  -17.7256 C   0  0  0  0  0  0  0  0  0  0  0  0
   21.4116  -14.9323  -17.6492 C   0  0  2  0  0  0  0  0  0  0  0  0
   20.9003  -17.3082  -17.8590 N   0  0  0  0  0  0  0  0  0  0  0  0
   21.7505  -17.6093  -16.7171 C   0  0  0  0  0  0  0  0  0  0  0  0
   21.7030  -17.3191  -19.0952 O   0  0  0  0  0  0  0  0  0  0  0  0
   21.0760  -17.4150  -20.3183 O   0  0  0  0  0  0  0  0  0  0  0  0
  2  1  1  0
  2  3  1  0
  3  4  2  0
  3 13  1  0
  6  7  2  0
  6  5  1  0
  8  6  1  0
  9  8  1  0
 10  9  1  0
 11 10  1  0
 12 14  1  0
 12 11  1  6
 13 12  1  0
 14 15  2  0
 16 17  1  0
 17 18  1  0
 18 19  1  1
 20 22  1  0
 20 18  1  0
 20 21  1  6
 21 14  1  0
 22 23  1  0
 24 22  2  0
M  END
$$$$
