GRI.pdb
     RDKit          3D

 24 23  0  0  1  0  0  0  0  0999 V2000
   19.8238  -27.6590  -12.9870 N   0  0  0  0  0  0  0  0  0  0  0  0
   19.2314  -26.3427  -12.8643 C   0  0  0  0  0  0  0  0  0  0  0  0
   19.5471  -25.7097  -11.5738 C   0  0  0  0  0  0  0  0  0  0  0  0
   20.2060  -26.2851  -10.7008 O   0  0  0  0  0  0  0  0  0  0  0  0
   19.6504  -19.0591  -13.4140 N   0  0  0  0  0  0  0  0  0  0  0  0
   21.0168  -19.3374  -13.1970 C   0  0  0  0  0  0  0  0  0  0  0  0
   21.8444  -19.2864  -14.1859 N   0  0  0  0  0  0  0  0  0  0  0  0
   21.4924  -19.6740  -11.9031 N   0  0  0  0  0  0  0  0  0  0  0  0
   20.5352  -20.1596  -10.8943 C   0  0  0  0  0  0  0  0  0  0  0  0
   20.0415  -21.5303  -11.2822 C   0  0  0  0  0  0  0  0  0  0  0  0
   19.1646  -22.2085  -10.3063 C   0  0  0  0  0  0  0  0  0  0  0  0
   19.3466  -23.6753  -10.1026 C   0  0  2  0  0  0  0  0  0  0  0  0
   19.0749  -24.3874  -11.3251 N   0  0  0  0  0  0  0  0  0  0  0  0
   18.2348  -24.0870   -9.1489 C   0  0  0  0  0  0  0  0  0  0  0  0
   17.0626  -23.9564   -9.5355 O   0  0  0  0  0  0  0  0  0  0  0  0
   22.8644  -19.4475  -14.1008 C   0  0  0  0  0  0  0  0  0  0  0  0
   16.5295  -28.6805   -6.8478 C   0  0  0  0  0  0  0  0  0  0  0  0
   16.3975  -27.2244   -7.2304 C   0  0  2  0  0  0  0  0  0  0  0  0
   17.5534  -26.4697   -6.6121 C   0  0  0  0  0  0  0  0  0  0  0  0
   17.4761  -26.6231   -5.1105 C   0  0  2  0  0  0  0  0  0  0  0  0
   17.4784  -24.9881   -6.9207 N   0  0  0  0  0  0  0  0  0  0  0  0
   18.5127  -24.6006   -7.8681 C   0  0  0  0  0  0  0  0  0  0  0  0
   17.6631  -24.2576   -5.6540 O   0  0  0  0  0  0  0  0  0  0  0  0
   16.6165  -24.1538   -4.7640 O   0  0  0  0  0  0  0  0  0  0  0  0
  2  1  1  0
  2  3  1  0
  3  4  2  0
  3 13  1  0
  6  7  2  0
  6  5  1  0
  8  6  1  0
  9  8  1  0
 10  9  1  0
 11 10  1  0
 12 14  1  0
 12 11  1  6
 13 12  1  0
 14 15  2  0
 16 17  1  0
 17 18  1  0
 18 19  1  6
 20 22  1  0
 20 18  1  0
 20 21  1  1
 21 14  1  0
 22 23  1  0
 24 22  2  0
M  END
$$$$
