WQK.pdb
     RDKit          3D

 33 34  0  0  1  0  0  0  0  0999 V2000
    7.0747  -17.4565   21.3773 N   0  0  0  0  0  0  0  0  0  0  0  0
    7.6568  -16.5277   22.3158 C   0  0  1  0  0  0  0  0  0  0  0  0
    6.6150  -15.9486   23.2390 C   0  0  0  0  0  0  0  0  0  0  0  0
    6.9319  -14.5331   23.5494 C   0  0  0  0  0  0  0  0  0  0  0  0
    7.4732  -13.5639   22.7328 C   0  0  0  0  0  0  0  0  0  0  0  0
    7.5814  -12.4334   23.4354 N   0  0  0  0  0  0  0  0  0  0  0  0
    7.1341  -12.6059   24.6916 C   0  0  0  0  0  0  0  0  0  0  0  0
    7.0355  -11.7543   25.7879 C   0  0  0  0  0  0  0  0  0  0  0  0
    6.5220  -12.2121   26.9870 C   0  0  0  0  0  0  0  0  0  0  0  0
    6.1091  -13.5239   27.0811 C   0  0  0  0  0  0  0  0  0  0  0  0
    6.2098  -14.3615   25.9911 C   0  0  0  0  0  0  0  0  0  0  0  0
    6.7218  -13.9292   24.7731 C   0  0  0  0  0  0  0  0  0  0  0  0
    8.7281  -17.2420   23.0775 C   0  0  0  0  0  0  0  0  0  0  0  0
    8.4392  -18.3727   23.5210 O   0  0  0  0  0  0  0  0  0  0  0  0
   15.0801  -15.0799   23.4123 N   0  0  0  0  0  0  0  0  0  0  0  0
   14.7734  -16.4415   23.6932 C   0  0  0  0  0  0  0  0  0  0  0  0
   15.5527  -17.3207   23.2588 O   0  0  0  0  0  0  0  0  0  0  0  0
   13.5573  -16.8083   24.4828 C   0  0  0  0  0  0  0  0  0  0  0  0
   12.3650  -16.3695   23.7055 C   0  0  0  0  0  0  0  0  0  0  0  0
   11.0895  -17.1531   24.0671 C   0  0  2  0  0  0  0  0  0  0  0  0
    9.9950  -16.7038   23.3005 N   0  0  0  0  0  0  0  0  0  0  0  0
   10.8971  -17.2415   25.5154 C   0  0  0  0  0  0  0  0  0  0  0  0
   10.8350  -16.2274   26.2741 O   0  0  0  0  0  0  0  0  0  0  0  0
   10.7696  -18.5093   26.1294 N   0  0  0  0  0  0  0  0  0  0  0  0
   10.5288  -18.5796   27.5930 C   0  0  1  0  0  0  0  0  0  0  0  0
    9.7297  -19.7789   27.9224 C   0  0  0  0  0  0  0  0  0  0  0  0
    8.3997  -19.9418   27.3182 C   0  0  0  0  0  0  0  0  0  0  0  0
    7.6026  -21.1421   27.6385 C   0  0  0  0  0  0  0  0  0  0  0  0
    6.2083  -21.1828   27.1087 C   0  0  0  0  0  0  0  0  0  0  0  0
    5.8648  -22.1873   26.1843 N   0  0  0  0  0  0  0  0  0  0  0  0
   11.8055  -18.4440   28.2476 C   0  0  0  0  0  0  0  0  0  0  0  0
   11.8715  -18.2543   29.4981 O   0  0  0  0  0  0  0  0  0  0  0  0
   13.0071  -18.5150   27.5822 O   0  0  0  0  0  0  0  0  0  0  0  0
  2  1  1  6
  3  2  1  0
  4  3  1  0
  4  5  2  0
  6  5  1  0
  7  6  1  0
  8  7  2  0
  9  8  1  0
 10  9  2  0
 10 11  1  0
 11 12  2  0
 12  7  1  0
 12  4  1  0
 13  2  1  0
 13 14  2  0
 15 16  1  0
 16 17  2  0
 18 19  1  0
 18 16  1  0
 20 19  1  1
 20 21  1  0
 21 13  1  0
 22 23  2  0
 22 20  1  0
 24 22  1  0
 25 26  1  6
 25 24  1  0
 26 27  1  0
 27 28  1  0
 28 29  1  0
 29 30  1  0
 31 33  1  0
 31 25  1  0
 32 31  2  0
M  END
$$$$
