WQK.pdb
     RDKit          3D

 33 34  0  0  1  0  0  0  0  0999 V2000
    6.4043  -17.7338   24.5157 N   0  0  0  0  0  0  0  0  0  0  0  0
    7.0100  -16.5405   23.9758 C   0  0  1  0  0  0  0  0  0  0  0  0
    8.0402  -15.9692   24.9167 C   0  0  0  0  0  0  0  0  0  0  0  0
    7.3838  -15.1400   25.9568 C   0  0  0  0  0  0  0  0  0  0  0  0
    6.8180  -15.5305   27.1512 C   0  0  0  0  0  0  0  0  0  0  0  0
    6.3467  -14.4445   27.7692 N   0  0  0  0  0  0  0  0  0  0  0  0
    6.5740  -13.3403   27.0362 C   0  0  0  0  0  0  0  0  0  0  0  0
    6.2846  -11.9938   27.2362 C   0  0  0  0  0  0  0  0  0  0  0  0
    6.6453  -11.0516   26.2911 C   0  0  0  0  0  0  0  0  0  0  0  0
    7.2958  -11.4648   25.1482 C   0  0  0  0  0  0  0  0  0  0  0  0
    7.5791  -12.8001   24.9570 C   0  0  0  0  0  0  0  0  0  0  0  0
    7.2287  -13.7696   25.8895 C   0  0  0  0  0  0  0  0  0  0  0  0
    7.6089  -16.8797   22.6475 C   0  0  0  0  0  0  0  0  0  0  0  0
    8.0505  -18.0398   22.5135 O   0  0  0  0  0  0  0  0  0  0  0  0
    7.5257  -12.5422   18.1036 N   0  0  0  0  0  0  0  0  0  0  0  0
    8.2053  -13.5879   17.4169 C   0  0  0  0  0  0  0  0  0  0  0  0
    8.4896  -13.4103   16.2100 O   0  0  0  0  0  0  0  0  0  0  0  0
    8.5676  -14.8588   18.1174 C   0  0  0  0  0  0  0  0  0  0  0  0
    8.0089  -14.7893   19.4963 C   0  0  0  0  0  0  0  0  0  0  0  0
    8.3385  -16.0332   20.3422 C   0  0  2  0  0  0  0  0  0  0  0  0
    7.6872  -15.9730   21.5911 N   0  0  0  0  0  0  0  0  0  0  0  0
    9.7739  -16.3200   20.3524 C   0  0  0  0  0  0  0  0  0  0  0  0
   10.5881  -15.7763   21.1583 O   0  0  0  0  0  0  0  0  0  0  0  0
   10.3100  -17.2472   19.4286 N   0  0  0  0  0  0  0  0  0  0  0  0
   11.7023  -17.7278   19.6167 C   0  0  1  0  0  0  0  0  0  0  0  0
   11.7753  -19.1859   19.3846 C   0  0  0  0  0  0  0  0  0  0  0  0
   12.8861  -19.9500   19.9702 C   0  0  0  0  0  0  0  0  0  0  0  0
   12.6534  -20.7397   21.1953 C   0  0  0  0  0  0  0  0  0  0  0  0
   13.8058  -21.5355   21.7098 C   0  0  0  0  0  0  0  0  0  0  0  0
   14.2433  -21.3172   23.0299 N   0  0  0  0  0  0  0  0  0  0  0  0
   12.5594  -16.8936   18.8126 C   0  0  0  0  0  0  0  0  0  0  0  0
   12.2675  -16.6438   17.6058 O   0  0  0  0  0  0  0  0  0  0  0  0
   13.7170  -16.3213   19.2860 O   0  0  0  0  0  0  0  0  0  0  0  0
  2  1  1  1
  3  2  1  0
  4  3  1  0
  4  5  2  0
  6  5  1  0
  7  6  1  0
  8  7  2  0
  9  8  1  0
 10  9  2  0
 10 11  1  0
 11 12  2  0
 12  7  1  0
 12  4  1  0
 13  2  1  0
 13 14  2  0
 15 16  1  0
 16 17  2  0
 18 19  1  0
 18 16  1  0
 20 19  1  1
 20 21  1  0
 21 13  1  0
 22 23  2  0
 22 20  1  0
 24 22  1  0
 25 26  1  6
 25 24  1  0
 26 27  1  0
 27 28  1  0
 28 29  1  0
 29 30  1  0
 31 33  1  0
 31 25  1  0
 32 31  2  0
M  END
$$$$
