WQK.pdb
     RDKit          3D

 33 34  0  0  1  0  0  0  0  0999 V2000
    6.7947  -17.8216   24.7188 N   0  0  0  0  0  0  0  0  0  0  0  0
    7.2214  -16.5300   24.2373 C   0  0  1  0  0  0  0  0  0  0  0  0
    8.0018  -15.7791   25.2862 C   0  0  0  0  0  0  0  0  0  0  0  0
    7.0881  -14.9598   26.1194 C   0  0  0  0  0  0  0  0  0  0  0  0
    6.1566  -15.3693   27.0487 C   0  0  0  0  0  0  0  0  0  0  0  0
    5.5634  -14.2858   27.5563 N   0  0  0  0  0  0  0  0  0  0  0  0
    6.0603  -13.1650   27.0039 C   0  0  0  0  0  0  0  0  0  0  0  0
    5.7833  -11.8139   27.1891 C   0  0  0  0  0  0  0  0  0  0  0  0
    6.4665  -10.8530   26.4671 C   0  0  0  0  0  0  0  0  0  0  0  0
    7.4258  -11.2525   25.5615 C   0  0  0  0  0  0  0  0  0  0  0  0
    7.6947  -12.5926   25.3834 C   0  0  0  0  0  0  0  0  0  0  0  0
    7.0240  -13.5807   26.0950 C   0  0  0  0  0  0  0  0  0  0  0  0
    8.0302  -16.7373   22.9959 C   0  0  0  0  0  0  0  0  0  0  0  0
    8.7438  -17.7610   22.9584 O   0  0  0  0  0  0  0  0  0  0  0  0
    7.4782  -12.5850   18.3128 N   0  0  0  0  0  0  0  0  0  0  0  0
    8.3536  -13.5257   17.6997 C   0  0  0  0  0  0  0  0  0  0  0  0
    8.6489  -13.3545   16.4946 O   0  0  0  0  0  0  0  0  0  0  0  0
    8.9024  -14.6822   18.4733 C   0  0  0  0  0  0  0  0  0  0  0  0
    8.3058  -14.6368   19.8373 C   0  0  0  0  0  0  0  0  0  0  0  0
    8.7947  -15.7802   20.7458 C   0  0  2  0  0  0  0  0  0  0  0  0
    8.0133  -15.8541   21.9170 N   0  0  0  0  0  0  0  0  0  0  0  0
   10.2484  -15.7577   20.9149 C   0  0  0  0  0  0  0  0  0  0  0  0
   10.8389  -15.0444   21.7811 O   0  0  0  0  0  0  0  0  0  0  0  0
   11.0631  -16.5628   20.0850 N   0  0  0  0  0  0  0  0  0  0  0  0
   12.5137  -16.6682   20.3843 C   0  0  1  0  0  0  0  0  0  0  0  0
   12.9049  -18.0870   20.5234 C   0  0  0  0  0  0  0  0  0  0  0  0
   14.3282  -18.4278   20.6596 C   0  0  0  0  0  0  0  0  0  0  0  0
   14.7173  -19.8361   20.8691 C   0  0  0  0  0  0  0  0  0  0  0  0
   16.1679  -20.1057   21.0908 C   0  0  0  0  0  0  0  0  0  0  0  0
   16.5959  -21.4404   21.2211 N   0  0  0  0  0  0  0  0  0  0  0  0
   13.2162  -15.8897   19.3957 C   0  0  0  0  0  0  0  0  0  0  0  0
   12.7961  -15.8335   18.2022 O   0  0  0  0  0  0  0  0  0  0  0  0
   14.3548  -15.1690   19.6709 O   0  0  0  0  0  0  0  0  0  0  0  0
  2  1  1  1
  3  2  1  0
  4  3  1  0
  4  5  2  0
  6  5  1  0
  7  6  1  0
  8  7  2  0
  9  8  1  0
 10  9  2  0
 10 11  1  0
 11 12  2  0
 12  7  1  0
 12  4  1  0
 13  2  1  0
 13 14  2  0
 15 16  1  0
 16 17  2  0
 18 19  1  0
 18 16  1  0
 20 19  1  1
 20 21  1  0
 21 13  1  0
 22 23  2  0
 22 20  1  0
 24 22  1  0
 25 26  1  6
 25 24  1  0
 26 27  1  0
 27 28  1  0
 28 29  1  0
 29 30  1  0
 31 33  1  0
 31 25  1  0
 32 31  2  0
M  END
$$$$
