WQK.pdb
     RDKit          3D

 33 34  0  0  1  0  0  0  0  0999 V2000
    6.1223  -17.7016   24.3419 N   0  0  0  0  0  0  0  0  0  0  0  0
    6.8962  -16.5197   24.0480 C   0  0  1  0  0  0  0  0  0  0  0  0
    7.6126  -16.0092   25.2724 C   0  0  0  0  0  0  0  0  0  0  0  0
    6.8102  -14.9521   25.9350 C   0  0  0  0  0  0  0  0  0  0  0  0
    5.6811  -15.0778   26.7150 C   0  0  0  0  0  0  0  0  0  0  0  0
    5.2977  -13.8582   27.1010 N   0  0  0  0  0  0  0  0  0  0  0  0
    6.1253  -12.9187   26.6105 C   0  0  0  0  0  0  0  0  0  0  0  0
    6.1572  -11.5319   26.7222 C   0  0  0  0  0  0  0  0  0  0  0  0
    7.1501  -10.8011   26.0968 C   0  0  0  0  0  0  0  0  0  0  0  0
    8.1079  -11.4656   25.3611 C   0  0  0  0  0  0  0  0  0  0  0  0
    8.0699  -12.8393   25.2549 C   0  0  0  0  0  0  0  0  0  0  0  0
    7.0839  -13.6001   25.8726 C   0  0  0  0  0  0  0  0  0  0  0  0
    7.8561  -16.8503   22.9491 C   0  0  0  0  0  0  0  0  0  0  0  0
    8.3194  -18.0096   22.9418 O   0  0  0  0  0  0  0  0  0  0  0  0
    9.2358  -16.1516   17.6968 N   0  0  0  0  0  0  0  0  0  0  0  0
    7.9667  -15.6324   18.0800 C   0  0  0  0  0  0  0  0  0  0  0  0
    6.9898  -15.8548   17.3282 O   0  0  0  0  0  0  0  0  0  0  0  0
    7.8074  -14.8457   19.3421 C   0  0  0  0  0  0  0  0  0  0  0  0
    9.1342  -14.8023   20.0175 C   0  0  0  0  0  0  0  0  0  0  0  0
    9.3156  -15.9218   21.0593 C   0  0  2  0  0  0  0  0  0  0  0  0
    8.2369  -15.9366   21.9670 N   0  0  0  0  0  0  0  0  0  0  0  0
   10.6646  -15.9237   21.6274 C   0  0  0  0  0  0  0  0  0  0  0  0
   11.2420  -14.8797   22.0568 O   0  0  0  0  0  0  0  0  0  0  0  0
   11.3860  -17.1370   21.7161 N   0  0  0  0  0  0  0  0  0  0  0  0
   12.4092  -17.2900   22.7813 C   0  0  1  0  0  0  0  0  0  0  0  0
   12.0010  -18.3437   23.7344 C   0  0  0  0  0  0  0  0  0  0  0  0
   12.9419  -18.7662   24.7816 C   0  0  0  0  0  0  0  0  0  0  0  0
   12.5698  -19.8738   25.6836 C   0  0  0  0  0  0  0  0  0  0  0  0
   13.5801  -20.2757   26.7052 C   0  0  0  0  0  0  0  0  0  0  0  0
   13.2927  -21.3652   27.5491 N   0  0  0  0  0  0  0  0  0  0  0  0
   13.6861  -17.4530   22.1332 C   0  0  0  0  0  0  0  0  0  0  0  0
   13.7989  -18.1870   21.1072 O   0  0  0  0  0  0  0  0  0  0  0  0
   14.8370  -16.8366   22.5656 O   0  0  0  0  0  0  0  0  0  0  0  0
  2  1  1  1
  3  2  1  0
  4  3  1  0
  4  5  2  0
  6  5  1  0
  7  6  1  0
  8  7  2  0
  9  8  1  0
 10  9  2  0
 10 11  1  0
 11 12  2  0
 12  7  1  0
 12  4  1  0
 13  2  1  0
 13 14  2  0
 15 16  1  0
 16 17  2  0
 18 19  1  0
 18 16  1  0
 20 19  1  1
 20 21  1  0
 21 13  1  0
 22 23  2  0
 22 20  1  0
 24 22  1  0
 25 26  1  6
 25 24  1  0
 26 27  1  0
 27 28  1  0
 28 29  1  0
 29 30  1  0
 31 33  1  0
 31 25  1  0
 32 31  2  0
M  END
$$$$
