WQK.pdb
     RDKit          3D

 33 34  0  0  1  0  0  0  0  0999 V2000
    7.1910  -17.2238   23.8321 N   0  0  0  0  0  0  0  0  0  0  0  0
    8.2016  -16.2237   23.5860 C   0  0  1  0  0  0  0  0  0  0  0  0
    8.5692  -15.4866   24.8487 C   0  0  0  0  0  0  0  0  0  0  0  0
    7.4064  -14.7146   25.3512 C   0  0  0  0  0  0  0  0  0  0  0  0
    6.2505  -15.1719   25.9460 C   0  0  0  0  0  0  0  0  0  0  0  0
    5.4819  -14.1194   26.2376 N   0  0  0  0  0  0  0  0  0  0  0  0
    6.0768  -12.9736   25.8618 C   0  0  0  0  0  0  0  0  0  0  0  0
    5.6972  -11.6372   25.9442 C   0  0  0  0  0  0  0  0  0  0  0  0
    6.5287  -10.6417   25.4661 C   0  0  0  0  0  0  0  0  0  0  0  0
    7.7390  -10.9916   24.9067 C   0  0  0  0  0  0  0  0  0  0  0  0
    8.1082  -12.3173   24.8285 C   0  0  0  0  0  0  0  0  0  0  0  0
    7.2930  -13.3394   25.3007 C   0  0  0  0  0  0  0  0  0  0  0  0
    9.3907  -16.8994   22.9798 C   0  0  0  0  0  0  0  0  0  0  0  0
    9.7651  -17.9614   23.5190 O   0  0  0  0  0  0  0  0  0  0  0  0
   13.7455  -13.4846   18.6978 N   0  0  0  0  0  0  0  0  0  0  0  0
   13.2178  -14.8001   18.5646 C   0  0  0  0  0  0  0  0  0  0  0  0
   12.8635  -15.1782   17.4242 O   0  0  0  0  0  0  0  0  0  0  0  0
   13.0914  -15.7012   19.7516 C   0  0  0  0  0  0  0  0  0  0  0  0
   11.6889  -15.6053   20.2439 C   0  0  0  0  0  0  0  0  0  0  0  0
   11.4115  -16.5199   21.4514 C   0  0  2  0  0  0  0  0  0  0  0  0
   10.0709  -16.3984   21.8704 N   0  0  0  0  0  0  0  0  0  0  0  0
   12.4452  -16.3925   22.4799 C   0  0  0  0  0  0  0  0  0  0  0  0
   12.6881  -15.3103   23.0945 O   0  0  0  0  0  0  0  0  0  0  0  0
   13.2294  -17.5168   22.8285 N   0  0  0  0  0  0  0  0  0  0  0  0
   14.2508  -17.3787   23.8974 C   0  0  1  0  0  0  0  0  0  0  0  0
   14.4663  -18.6778   24.5692 C   0  0  0  0  0  0  0  0  0  0  0  0
   13.4102  -19.2200   25.4359 C   0  0  0  0  0  0  0  0  0  0  0  0
   13.5271  -20.6028   25.9388 C   0  0  0  0  0  0  0  0  0  0  0  0
   12.3873  -21.1203   26.7507 C   0  0  0  0  0  0  0  0  0  0  0  0
   11.7071  -22.2699   26.3066 N   0  0  0  0  0  0  0  0  0  0  0  0
   15.4054  -16.7454   23.3120 C   0  0  0  0  0  0  0  0  0  0  0  0
   16.1874  -16.0476   24.0231 O   0  0  0  0  0  0  0  0  0  0  0  0
   15.7341  -16.8554   21.9810 O   0  0  0  0  0  0  0  0  0  0  0  0
  2  1  1  1
  3  2  1  0
  4  3  1  0
  4  5  2  0
  6  5  1  0
  7  6  1  0
  8  7  2  0
  9  8  1  0
 10  9  2  0
 10 11  1  0
 11 12  2  0
 12  7  1  0
 12  4  1  0
 13  2  1  0
 13 14  2  0
 15 16  1  0
 16 17  2  0
 18 19  1  0
 18 16  1  0
 20 19  1  6
 20 21  1  0
 21 13  1  0
 22 23  2  0
 22 20  1  0
 24 22  1  0
 25 26  1  6
 25 24  1  0
 26 27  1  0
 27 28  1  0
 28 29  1  0
 29 30  1  0
 31 33  1  0
 31 25  1  0
 32 31  2  0
M  END
$$$$
