WQK.pdb
     RDKit          3D

 33 34  0  0  1  0  0  0  0  0999 V2000
    6.6668  -17.3070   24.2205 N   0  0  0  0  0  0  0  0  0  0  0  0
    7.5746  -16.3019   23.7228 C   0  0  1  0  0  0  0  0  0  0  0  0
    8.1601  -15.4817   24.8442 C   0  0  0  0  0  0  0  0  0  0  0  0
    7.1122  -14.6340   25.4635 C   0  0  0  0  0  0  0  0  0  0  0  0
    5.9390  -15.0127   26.0795 C   0  0  0  0  0  0  0  0  0  0  0  0
    5.3045  -13.9118   26.4904 N   0  0  0  0  0  0  0  0  0  0  0  0
    6.0058  -12.8090   26.1743 C   0  0  0  0  0  0  0  0  0  0  0  0
    5.7801  -11.4511   26.3789 C   0  0  0  0  0  0  0  0  0  0  0  0
    6.6955  -10.5140   25.9373 C   0  0  0  0  0  0  0  0  0  0  0  0
    7.8349  -10.9439   25.2915 C   0  0  0  0  0  0  0  0  0  0  0  0
    8.0518  -12.2905   25.0923 C   0  0  0  0  0  0  0  0  0  0  0  0
    7.1493  -13.2551   25.5252 C   0  0  0  0  0  0  0  0  0  0  0  0
    8.6421  -16.9870   22.9295 C   0  0  0  0  0  0  0  0  0  0  0  0
    9.0070  -18.1095   23.3364 O   0  0  0  0  0  0  0  0  0  0  0  0
   11.1666  -14.1137   18.0578 N   0  0  0  0  0  0  0  0  0  0  0  0
   12.2472  -14.1380   18.9845 C   0  0  0  0  0  0  0  0  0  0  0  0
   13.4100  -14.0199   18.5340 O   0  0  0  0  0  0  0  0  0  0  0  0
   11.9989  -14.2999   20.4505 C   0  0  0  0  0  0  0  0  0  0  0  0
   10.6152  -14.8247   20.6188 C   0  0  0  0  0  0  0  0  0  0  0  0
   10.5570  -16.1034   21.4750 C   0  0  2  0  0  0  0  0  0  0  0  0
    9.2225  -16.4313   21.7900 N   0  0  0  0  0  0  0  0  0  0  0  0
   11.5121  -16.0605   22.5834 C   0  0  0  0  0  0  0  0  0  0  0  0
   11.4956  -15.1683   23.4842 O   0  0  0  0  0  0  0  0  0  0  0  0
   12.5160  -17.0518   22.6822 N   0  0  0  0  0  0  0  0  0  0  0  0
   13.1847  -17.2715   23.9897 C   0  0  1  0  0  0  0  0  0  0  0  0
   12.5422  -18.3908   24.7107 C   0  0  0  0  0  0  0  0  0  0  0  0
   13.1519  -18.8872   25.9526 C   0  0  0  0  0  0  0  0  0  0  0  0
   12.5138  -20.0055   26.6742 C   0  0  0  0  0  0  0  0  0  0  0  0
   13.1681  -20.4479   27.9400 C   0  0  0  0  0  0  0  0  0  0  0  0
   13.9551  -21.6149   27.9229 N   0  0  0  0  0  0  0  0  0  0  0  0
   14.5994  -17.3815   23.7380 C   0  0  0  0  0  0  0  0  0  0  0  0
   15.0268  -17.6926   22.5871 O   0  0  0  0  0  0  0  0  0  0  0  0
   15.5576  -17.1572   24.6989 O   0  0  0  0  0  0  0  0  0  0  0  0
  2  1  1  1
  3  2  1  0
  4  3  1  0
  4  5  2  0
  6  5  1  0
  7  6  1  0
  8  7  2  0
  9  8  1  0
 10  9  2  0
 10 11  1  0
 11 12  2  0
 12  7  1  0
 12  4  1  0
 13  2  1  0
 13 14  2  0
 15 16  1  0
 16 17  2  0
 18 19  1  0
 18 16  1  0
 20 19  1  1
 20 21  1  0
 21 13  1  0
 22 23  2  0
 22 20  1  0
 24 22  1  0
 25 26  1  6
 25 24  1  0
 26 27  1  0
 27 28  1  0
 28 29  1  0
 29 30  1  0
 31 33  1  0
 31 25  1  0
 32 31  2  0
M  END
$$$$
