WQK.pdb
     RDKit          3D

 33 34  0  0  1  0  0  0  0  0999 V2000
    7.7183  -17.3008   23.7735 N   0  0  0  0  0  0  0  0  0  0  0  0
    8.6674  -16.2575   23.4686 C   0  0  1  0  0  0  0  0  0  0  0  0
    9.1263  -15.5457   24.7158 C   0  0  0  0  0  0  0  0  0  0  0  0
    7.9634  -14.9840   25.4455 C   0  0  0  0  0  0  0  0  0  0  0  0
    6.8822  -15.6389   25.9943 C   0  0  0  0  0  0  0  0  0  0  0  0
    6.0803  -14.7308   26.5564 N   0  0  0  0  0  0  0  0  0  0  0  0
    6.5811  -13.4919   26.4062 C   0  0  0  0  0  0  0  0  0  0  0  0
    6.1352  -12.2349   26.8033 C   0  0  0  0  0  0  0  0  0  0  0  0
    6.8722  -11.1037   26.5062 C   0  0  0  0  0  0  0  0  0  0  0  0
    8.0549  -11.2387   25.8111 C   0  0  0  0  0  0  0  0  0  0  0  0
    8.4902  -12.4870   25.4209 C   0  0  0  0  0  0  0  0  0  0  0  0
    7.7704  -13.6417   25.7056 C   0  0  0  0  0  0  0  0  0  0  0  0
    9.8167  -16.8709   22.7330 C   0  0  0  0  0  0  0  0  0  0  0  0
   10.3807  -16.1544   21.8803 O   0  0  0  0  0  0  0  0  0  0  0  0
   12.8020  -21.2129   26.0922 N   0  0  0  0  0  0  0  0  0  0  0  0
   13.1720  -21.5838   24.7684 C   0  0  0  0  0  0  0  0  0  0  0  0
   13.6212  -22.7386   24.5859 O   0  0  0  0  0  0  0  0  0  0  0  0
   13.0279  -20.6218   23.6322 C   0  0  0  0  0  0  0  0  0  0  0  0
   11.7230  -19.9226   23.7954 C   0  0  0  0  0  0  0  0  0  0  0  0
   11.5187  -18.7852   22.7775 C   0  0  2  0  0  0  0  0  0  0  0  0
   10.2625  -18.1722   22.9613 N   0  0  0  0  0  0  0  0  0  0  0  0
   11.8638  -19.2029   21.4177 C   0  0  0  0  0  0  0  0  0  0  0  0
   11.4005  -20.2487   20.8706 O   0  0  0  0  0  0  0  0  0  0  0  0
   12.7566  -18.4200   20.6494 N   0  0  0  0  0  0  0  0  0  0  0  0
   13.1236  -18.8770   19.2850 C   0  0  1  0  0  0  0  0  0  0  0  0
   12.4892  -18.0114   18.2683 C   0  0  0  0  0  0  0  0  0  0  0  0
   11.0736  -18.2201   17.9321 C   0  0  0  0  0  0  0  0  0  0  0  0
   10.4447  -17.3767   16.8968 C   0  0  0  0  0  0  0  0  0  0  0  0
    8.9997  -17.6223   16.6177 C   0  0  0  0  0  0  0  0  0  0  0  0
    8.3639  -16.8588   15.6205 N   0  0  0  0  0  0  0  0  0  0  0  0
   14.5593  -18.9943   19.2406 C   0  0  0  0  0  0  0  0  0  0  0  0
   15.2902  -18.2291   19.9367 O   0  0  0  0  0  0  0  0  0  0  0  0
   15.2181  -19.9216   18.4674 O   0  0  0  0  0  0  0  0  0  0  0  0
  2  1  1  1
  3  2  1  0
  4  3  1  0
  4  5  2  0
  6  5  1  0
  7  6  1  0
  8  7  2  0
  9  8  1  0
 10  9  2  0
 10 11  1  0
 11 12  2  0
 12  7  1  0
 12  4  1  0
 13  2  1  0
 13 14  2  0
 15 16  1  0
 16 17  2  0
 18 19  1  0
 18 16  1  0
 20 19  1  1
 20 21  1  0
 21 13  1  0
 22 23  2  0
 22 20  1  0
 24 22  1  0
 25 26  1  6
 25 24  1  0
 26 27  1  0
 27 28  1  0
 28 29  1  0
 29 30  1  0
 31 33  1  0
 31 25  1  0
 32 31  2  0
M  END
$$$$
