WQK.pdb
     RDKit          3D

 33 34  0  0  1  0  0  0  0  0999 V2000
    6.7238  -16.8566   25.3406 N   0  0  0  0  0  0  0  0  0  0  0  0
    7.3953  -15.8500   24.5544 C   0  0  1  0  0  0  0  0  0  0  0  0
    8.6995  -15.4340   25.1861 C   0  0  0  0  0  0  0  0  0  0  0  0
    8.4481  -14.5615   26.3592 C   0  0  0  0  0  0  0  0  0  0  0  0
    8.6886  -14.8079   27.6936 C   0  0  0  0  0  0  0  0  0  0  0  0
    8.3068  -13.7375   28.3951 N   0  0  0  0  0  0  0  0  0  0  0  0
    7.8193  -12.7825   27.5838 C   0  0  0  0  0  0  0  0  0  0  0  0
    7.3054  -11.5108   27.8188 C   0  0  0  0  0  0  0  0  0  0  0  0
    6.8668  -10.7269   26.7680 C   0  0  0  0  0  0  0  0  0  0  0  0
    6.9458  -11.2228   25.4843 C   0  0  0  0  0  0  0  0  0  0  0  0
    7.4560  -12.4834   25.2592 C   0  0  0  0  0  0  0  0  0  0  0  0
    7.9044  -13.2939   26.2958 C   0  0  0  0  0  0  0  0  0  0  0  0
    7.6026  -16.3939   23.1763 C   0  0  0  0  0  0  0  0  0  0  0  0
    7.7002  -17.6344   23.0740 O   0  0  0  0  0  0  0  0  0  0  0  0
    7.4134  -12.5139   18.2425 N   0  0  0  0  0  0  0  0  0  0  0  0
    7.9834  -13.6593   17.6181 C   0  0  0  0  0  0  0  0  0  0  0  0
    8.1570  -13.6269   16.3780 O   0  0  0  0  0  0  0  0  0  0  0  0
    8.3625  -14.8633   18.4204 C   0  0  0  0  0  0  0  0  0  0  0  0
    7.9075  -14.6346   19.8201 C   0  0  0  0  0  0  0  0  0  0  0  0
    8.1953  -15.8289   20.7487 C   0  0  2  0  0  0  0  0  0  0  0  0
    7.6876  -15.5878   22.0417 N   0  0  0  0  0  0  0  0  0  0  0  0
    9.5871  -16.2716   20.6512 C   0  0  0  0  0  0  0  0  0  0  0  0
   10.1306  -16.6291   19.5628 O   0  0  0  0  0  0  0  0  0  0  0  0
   10.3925  -16.3126   21.8131 N   0  0  0  0  0  0  0  0  0  0  0  0
   11.8501  -16.5578   21.6704 C   0  0  1  0  0  0  0  0  0  0  0  0
   12.5129  -15.3726   21.0861 C   0  0  0  0  0  0  0  0  0  0  0  0
   12.7207  -15.3117   19.6323 C   0  0  0  0  0  0  0  0  0  0  0  0
   13.4580  -14.1709   19.0548 C   0  0  0  0  0  0  0  0  0  0  0  0
   14.9443  -14.2903   19.0014 C   0  0  0  0  0  0  0  0  0  0  0  0
   15.6935  -13.2023   18.5149 N   0  0  0  0  0  0  0  0  0  0  0  0
   12.3375  -17.0175   22.9463 C   0  0  0  0  0  0  0  0  0  0  0  0
   13.4177  -17.6741   23.0249 O   0  0  0  0  0  0  0  0  0  0  0  0
   11.6874  -16.7779   24.1344 O   0  0  0  0  0  0  0  0  0  0  0  0
  2  1  1  1
  3  2  1  0
  4  3  1  0
  4  5  2  0
  6  5  1  0
  7  6  1  0
  8  7  2  0
  9  8  1  0
 10  9  2  0
 10 11  1  0
 11 12  2  0
 12  7  1  0
 12  4  1  0
 13  2  1  0
 13 14  2  0
 15 16  1  0
 16 17  2  0
 18 19  1  0
 18 16  1  0
 20 19  1  6
 20 21  1  0
 21 13  1  0
 22 23  2  0
 22 20  1  0
 24 22  1  0
 25 26  1  1
 25 24  1  0
 26 27  1  0
 27 28  1  0
 28 29  1  0
 29 30  1  0
 31 33  1  0
 31 25  1  0
 32 31  2  0
M  END
$$$$
