WQK.pdb
     RDKit          3D

 33 34  0  0  1  0  0  0  0  0999 V2000
    7.3715  -14.6509   22.8990 N   0  0  0  0  0  0  0  0  0  0  0  0
    7.9876  -15.7327   23.6286 C   0  0  1  0  0  0  0  0  0  0  0  0
    7.0184  -16.3750   24.5882 C   0  0  0  0  0  0  0  0  0  0  0  0
    6.6609  -15.4262   25.6710 C   0  0  0  0  0  0  0  0  0  0  0  0
    6.1321  -15.6873   26.9165 C   0  0  0  0  0  0  0  0  0  0  0  0
    5.9736  -14.5270   27.5586 N   0  0  0  0  0  0  0  0  0  0  0  0
    6.3753  -13.4974   26.7927 C   0  0  0  0  0  0  0  0  0  0  0  0
    6.4139  -12.1216   26.9985 C   0  0  0  0  0  0  0  0  0  0  0  0
    6.8897  -11.2784   26.0117 C   0  0  0  0  0  0  0  0  0  0  0  0
    7.3254  -11.8198   24.8213 C   0  0  0  0  0  0  0  0  0  0  0  0
    7.2841  -13.1835   24.6246 C   0  0  0  0  0  0  0  0  0  0  0  0
    6.8110  -14.0555   25.5984 C   0  0  0  0  0  0  0  0  0  0  0  0
    8.5170  -16.7224   22.6395 C   0  0  0  0  0  0  0  0  0  0  0  0
    8.7772  -17.8632   23.0750 O   0  0  0  0  0  0  0  0  0  0  0  0
    8.5841  -12.7877   17.8611 N   0  0  0  0  0  0  0  0  0  0  0  0
    7.9593  -13.7910   18.6548 C   0  0  0  0  0  0  0  0  0  0  0  0
    6.9280  -13.4774   19.2927 O   0  0  0  0  0  0  0  0  0  0  0  0
    8.5193  -15.1762   18.7231 C   0  0  0  0  0  0  0  0  0  0  0  0
    9.7682  -15.1189   19.5327 C   0  0  0  0  0  0  0  0  0  0  0  0
    9.8963  -16.2901   20.5243 C   0  0  2  0  0  0  0  0  0  0  0  0
    8.7221  -16.4220   21.2934 N   0  0  0  0  0  0  0  0  0  0  0  0
   11.1672  -16.2531   21.2495 C   0  0  0  0  0  0  0  0  0  0  0  0
   11.6961  -15.1824   21.6758 O   0  0  0  0  0  0  0  0  0  0  0  0
   11.8644  -17.4572   21.5037 N   0  0  0  0  0  0  0  0  0  0  0  0
   13.1152  -17.4100   22.3027 C   0  0  1  0  0  0  0  0  0  0  0  0
   12.8694  -17.9222   23.6674 C   0  0  0  0  0  0  0  0  0  0  0  0
   12.3219  -19.2757   23.8369 C   0  0  0  0  0  0  0  0  0  0  0  0
   12.1425  -19.8175   25.1982 C   0  0  0  0  0  0  0  0  0  0  0  0
   11.5300  -21.1738   25.3054 C   0  0  0  0  0  0  0  0  0  0  0  0
   11.6214  -21.8627   26.5296 N   0  0  0  0  0  0  0  0  0  0  0  0
   14.1436  -18.0640   21.5336 C   0  0  0  0  0  0  0  0  0  0  0  0
   15.3328  -18.1216   21.9655 O   0  0  0  0  0  0  0  0  0  0  0  0
   13.9128  -18.6597   20.3156 O   0  0  0  0  0  0  0  0  0  0  0  0
  2  1  1  6
  3  2  1  0
  4  3  1  0
  4  5  2  0
  6  5  1  0
  7  6  1  0
  8  7  2  0
  9  8  1  0
 10  9  2  0
 10 11  1  0
 11 12  2  0
 12  7  1  0
 12  4  1  0
 13  2  1  0
 13 14  2  0
 15 16  1  0
 16 17  2  0
 18 19  1  0
 18 16  1  0
 20 19  1  1
 20 21  1  0
 21 13  1  0
 22 23  2  0
 22 20  1  0
 24 22  1  0
 25 26  1  1
 25 24  1  0
 26 27  1  0
 27 28  1  0
 28 29  1  0
 29 30  1  0
 31 33  1  0
 31 25  1  0
 32 31  2  0
M  END
$$$$
