WQK.pdb
     RDKit          3D

 33 34  0  0  1  0  0  0  0  0999 V2000
    6.5320  -17.6292   24.7035 N   0  0  0  0  0  0  0  0  0  0  0  0
    6.9799  -16.3714   24.1562 C   0  0  1  0  0  0  0  0  0  0  0  0
    7.7999  -15.5946   25.1548 C   0  0  0  0  0  0  0  0  0  0  0  0
    6.9202  -14.7417   25.9909 C   0  0  0  0  0  0  0  0  0  0  0  0
    5.9686  -15.1163   26.9147 C   0  0  0  0  0  0  0  0  0  0  0  0
    5.4217  -14.0113   27.4280 N   0  0  0  0  0  0  0  0  0  0  0  0
    5.9689  -12.9097   26.8847 C   0  0  0  0  0  0  0  0  0  0  0  0
    5.7507  -11.5490   27.0784 C   0  0  0  0  0  0  0  0  0  0  0  0
    6.4775  -10.6141   26.3649 C   0  0  0  0  0  0  0  0  0  0  0  0
    7.4213  -11.0491   25.4594 C   0  0  0  0  0  0  0  0  0  0  0  0
    7.6320  -12.3985   25.2729 C   0  0  0  0  0  0  0  0  0  0  0  0
    6.9164  -13.3610   25.9757 C   0  0  0  0  0  0  0  0  0  0  0  0
    7.7576  -16.6539   22.9098 C   0  0  0  0  0  0  0  0  0  0  0  0
    8.3446  -17.7544   22.8548 O   0  0  0  0  0  0  0  0  0  0  0  0
    8.4340  -12.1293   18.0271 N   0  0  0  0  0  0  0  0  0  0  0  0
    8.4215  -13.4937   17.6205 C   0  0  0  0  0  0  0  0  0  0  0  0
    7.8981  -13.7730   16.5173 O   0  0  0  0  0  0  0  0  0  0  0  0
    9.0159  -14.5589   18.4859 C   0  0  0  0  0  0  0  0  0  0  0  0
    8.2668  -14.5649   19.7733 C   0  0  0  0  0  0  0  0  0  0  0  0
    8.6444  -15.7484   20.6833 C   0  0  2  0  0  0  0  0  0  0  0  0
    7.8450  -15.7584   21.8446 N   0  0  0  0  0  0  0  0  0  0  0  0
   10.0925  -15.8510   20.8704 C   0  0  0  0  0  0  0  0  0  0  0  0
   10.7448  -15.1230   21.6781 O   0  0  0  0  0  0  0  0  0  0  0  0
   10.8296  -16.8020   20.1270 N   0  0  0  0  0  0  0  0  0  0  0  0
   12.2959  -16.9019   20.3389 C   0  0  1  0  0  0  0  0  0  0  0  0
   12.7287  -18.3132   20.2594 C   0  0  0  0  0  0  0  0  0  0  0  0
   12.7523  -19.1255   21.4842 C   0  0  0  0  0  0  0  0  0  0  0  0
   13.0665  -20.5647   21.3910 C   0  0  0  0  0  0  0  0  0  0  0  0
   13.1305  -21.3222   22.6749 C   0  0  0  0  0  0  0  0  0  0  0  0
   13.7822  -20.7344   23.7756 N   0  0  0  0  0  0  0  0  0  0  0  0
   12.9269  -15.9723   19.4364 C   0  0  0  0  0  0  0  0  0  0  0  0
   12.5551  -15.8939   18.2282 O   0  0  0  0  0  0  0  0  0  0  0  0
   13.9428  -15.1249   19.8129 O   0  0  0  0  0  0  0  0  0  0  0  0
  2  1  1  1
  3  2  1  0
  4  3  1  0
  4  5  2  0
  6  5  1  0
  7  6  1  0
  8  7  2  0
  9  8  1  0
 10  9  2  0
 10 11  1  0
 11 12  2  0
 12  7  1  0
 12  4  1  0
 13  2  1  0
 13 14  2  0
 15 16  1  0
 16 17  2  0
 18 19  1  0
 18 16  1  0
 20 19  1  1
 20 21  1  0
 21 13  1  0
 22 23  2  0
 22 20  1  0
 24 22  1  0
 25 26  1  6
 25 24  1  0
 26 27  1  0
 27 28  1  0
 28 29  1  0
 29 30  1  0
 31 33  1  0
 31 25  1  0
 32 31  2  0
M  END
$$$$
