RGK.pdb
     RDKit          3D

 25 24  0  0  1  0  0  0  0  0999 V2000
   14.5419  -22.6342   -2.0829 N   0  0  0  0  0  0  0  0  0  0  0  0
   15.3399  -23.5140   -1.3211 C   0  0  0  0  0  0  0  0  0  0  0  0
   15.3514  -24.7910   -1.4899 N   0  0  0  0  0  0  0  0  0  0  0  0
   16.1963  -23.0192   -0.2978 N   0  0  0  0  0  0  0  0  0  0  0  0
   15.7714  -22.0334    0.6236 C   0  0  0  0  0  0  0  0  0  0  0  0
   14.3035  -21.7686    0.6442 C   0  0  0  0  0  0  0  0  0  0  0  0
   13.8966  -20.7944    1.6790 C   0  0  0  0  0  0  0  0  0  0  0  0
   14.4351  -20.9704    3.0478 C   0  0  2  0  0  0  0  0  0  0  0  0
   13.9564  -22.1164    3.7651 N   0  0  0  0  0  0  0  0  0  0  0  0
   14.3493  -19.7618    3.8917 C   0  0  0  0  0  0  0  0  0  0  0  0
   13.2186  -19.3540    4.2746 O   0  0  0  0  0  0  0  0  0  0  0  0
   15.9321  -25.3693   -0.8437 N   0  0  0  0  0  0  0  0  0  0  0  0
   15.4730  -19.0120    4.3105 C   0  0  0  0  0  0  0  0  0  0  0  0
   15.3492  -17.8891    5.2297 C   0  0  0  0  0  0  0  0  0  0  0  0
   16.7156  -17.3171    5.3935 O   0  0  0  0  0  0  0  0  0  0  0  0
   17.7333  -17.7599    4.8385 N   0  0  0  0  0  0  0  0  0  0  0  0
   16.8414  -16.1747    6.2578 C   0  0  1  0  0  0  0  0  0  0  0  0
   18.1120  -15.5611    6.4395 C   0  0  0  0  0  0  0  0  0  0  0  0
   18.0782  -14.0782    6.5001 C   0  0  0  0  0  0  0  0  0  0  0  0
   19.3338  -13.3391    6.5982 C   0  0  0  0  0  0  0  0  0  0  0  0
   19.3367  -11.8528    6.5891 C   0  0  0  0  0  0  0  0  0  0  0  0
   20.8398  -11.4531    6.6243 N   0  0  0  0  0  0  0  0  0  0  0  0
   20.9734  -10.0298    6.5782 C   0  0  0  0  0  0  0  0  0  0  0  0
   18.8198  -16.1689    7.5985 O   0  0  0  0  0  0  0  0  0  0  0  0
   20.1879  -16.3633    7.5953 O   0  0  0  0  0  0  0  0  0  0  0  0
  1  2  1  0
  2  3  2  0
  4  5  1  0
  4  2  1  0
  6  7  1  0
  6  5  1  0
  7  8  1  0
  8 10  1  0
  8  9  1  1
 10 12  1  0
 11 10  2  0
 12 13  1  0
 14 15  2  0
 14 13  1  0
 16 14  1  0
 17 23  1  0
 17 16  1  0
 17 18  1  1
 19 18  1  0
 20 19  1  0
 21 20  1  0
 21 22  1  0
 23 24  1  0
 25 23  2  0
M  END
$$$$
