RGK.pdb
     RDKit          3D

 25 24  0  0  1  0  0  0  0  0999 V2000
   11.2614  -12.1438  -12.3685 N   0  0  0  0  0  0  0  0  0  0  0  0
   11.5758  -13.5167  -12.2817 C   0  0  0  0  0  0  0  0  0  0  0  0
   10.6933  -14.4395  -12.1114 N   0  0  0  0  0  0  0  0  0  0  0  0
   12.9237  -13.9628  -12.3802 N   0  0  0  0  0  0  0  0  0  0  0  0
   13.9334  -13.1718  -12.9768 C   0  0  0  0  0  0  0  0  0  0  0  0
   14.2184  -13.4739  -14.4096 C   0  0  0  0  0  0  0  0  0  0  0  0
   15.2797  -12.6238  -14.9895 C   0  0  0  0  0  0  0  0  0  0  0  0
   16.5221  -13.2843  -15.4532 C   0  0  2  0  0  0  0  0  0  0  0  0
   17.2339  -14.0410  -14.4644 N   0  0  0  0  0  0  0  0  0  0  0  0
   17.4456  -12.3922  -16.1824 C   0  0  0  0  0  0  0  0  0  0  0  0
   17.0255  -11.7548  -17.1867 O   0  0  0  0  0  0  0  0  0  0  0  0
   11.0204  -15.4275  -12.0343 N   0  0  0  0  0  0  0  0  0  0  0  0
   18.8001  -12.1982  -15.8248 C   0  0  0  0  0  0  0  0  0  0  0  0
   19.6742  -11.3083  -16.5765 C   0  0  0  0  0  0  0  0  0  0  0  0
   20.4315  -10.5053  -15.5752 O   0  0  0  0  0  0  0  0  0  0  0  0
   20.2495  -10.5599  -14.3489 N   0  0  0  0  0  0  0  0  0  0  0  0
   21.4370   -9.6129  -16.0856 C   0  0  1  0  0  0  0  0  0  0  0  0
   22.2972   -8.9260  -15.1843 C   0  0  0  0  0  0  0  0  0  0  0  0
   23.7313   -8.9412  -15.5675 C   0  0  0  0  0  0  0  0  0  0  0  0
   24.4696  -10.2002  -15.5196 C   0  0  0  0  0  0  0  0  0  0  0  0
   25.9362  -10.2240  -15.7597 C   0  0  0  0  0  0  0  0  0  0  0  0
   26.3400  -11.7213  -15.6360 N   0  0  0  0  0  0  0  0  0  0  0  0
   27.7309  -11.8833  -15.9273 C   0  0  0  0  0  0  0  0  0  0  0  0
   21.7851   -7.5537  -14.9237 O   0  0  0  0  0  0  0  0  0  0  0  0
   22.1407   -6.8471  -13.7905 O   0  0  0  0  0  0  0  0  0  0  0  0
  1  2  1  0
  2  3  2  0
  4  5  1  0
  4  2  1  0
  6  7  1  0
  6  5  1  0
  7  8  1  0
  8 10  1  0
  8  9  1  1
 10 12  1  0
 11 10  2  0
 12 13  1  0
 14 15  2  0
 14 13  1  0
 16 14  1  0
 17 23  1  0
 17 16  1  0
 17 18  1  1
 19 18  1  0
 20 19  1  0
 21 20  1  0
 21 22  1  0
 23 24  1  0
 25 23  2  0
M  END
$$$$
