RGK.pdb
     RDKit          3D

 25 24  0  0  1  0  0  0  0  0999 V2000
   23.3954  -26.7091  -16.5687 N   0  0  0  0  0  0  0  0  0  0  0  0
   24.1948  -25.9059  -15.7279 C   0  0  0  0  0  0  0  0  0  0  0  0
   25.4792  -25.8491  -15.8091 N   0  0  0  0  0  0  0  0  0  0  0  0
   23.6041  -25.0954  -14.7182 N   0  0  0  0  0  0  0  0  0  0  0  0
   22.3292  -25.3830  -14.1766 C   0  0  0  0  0  0  0  0  0  0  0  0
   21.1698  -24.9958  -15.0316 C   0  0  0  0  0  0  0  0  0  0  0  0
   19.8659  -25.4258  -14.4834 C   0  0  0  0  0  0  0  0  0  0  0  0
   19.3405  -24.7081  -13.2987 C   0  0  2  0  0  0  0  0  0  0  0  0
   20.1275  -23.6006  -12.8392 N   0  0  0  0  0  0  0  0  0  0  0  0
   18.9806  -25.5880  -12.1688 C   0  0  0  0  0  0  0  0  0  0  0  0
   19.0332  -26.8395  -12.3185 O   0  0  0  0  0  0  0  0  0  0  0  0
   25.9927  -25.2648  -15.1133 N   0  0  0  0  0  0  0  0  0  0  0  0
   18.5713  -25.1141  -10.9007 C   0  0  0  0  0  0  0  0  0  0  0  0
   18.1915  -26.0212   -9.8265 C   0  0  0  0  0  0  0  0  0  0  0  0
   18.0175  -25.1877   -8.6034 O   0  0  0  0  0  0  0  0  0  0  0  0
   18.5110  -24.0600   -8.4462 N   0  0  0  0  0  0  0  0  0  0  0  0
   17.2199  -25.7466   -7.5453 C   0  0  1  0  0  0  0  0  0  0  0  0
   17.0825  -25.0441   -6.3158 C   0  0  0  0  0  0  0  0  0  0  0  0
   15.8497  -25.3676   -5.5548 C   0  0  0  0  0  0  0  0  0  0  0  0
   15.5537  -24.6311   -4.3290 C   0  0  0  0  0  0  0  0  0  0  0  0
   14.3427  -24.9529   -3.5296 C   0  0  0  0  0  0  0  0  0  0  0  0
   14.2736  -23.8447   -2.4399 N   0  0  0  0  0  0  0  0  0  0  0  0
   13.0608  -23.9635   -1.6911 C   0  0  0  0  0  0  0  0  0  0  0  0
   18.3176  -25.1844   -5.4983 O   0  0  0  0  0  0  0  0  0  0  0  0
   18.7877  -24.1535   -4.7070 O   0  0  0  0  0  0  0  0  0  0  0  0
  1  2  1  0
  2  3  2  0
  4  5  1  0
  4  2  1  0
  6  7  1  0
  6  5  1  0
  7  8  1  0
  8 10  1  0
  8  9  1  1
 10 12  1  0
 11 10  2  0
 12 13  1  0
 14 15  2  0
 14 13  1  0
 16 14  1  0
 17 23  1  0
 17 16  1  0
 17 18  1  1
 19 18  1  0
 20 19  1  0
 21 20  1  0
 21 22  1  0
 23 24  1  0
 25 23  2  0
M  END
$$$$
