RGK.pdb
     RDKit          3D

 25 24  0  0  1  0  0  0  0  0999 V2000
   31.4786  -21.8970   -7.8021 N   0  0  0  0  0  0  0  0  0  0  0  0
   31.4846  -21.9421   -9.2124 C   0  0  0  0  0  0  0  0  0  0  0  0
   32.4246  -22.4887   -9.9030 N   0  0  0  0  0  0  0  0  0  0  0  0
   30.4211  -21.3680   -9.9640 N   0  0  0  0  0  0  0  0  0  0  0  0
   29.1852  -21.0210   -9.3695 C   0  0  0  0  0  0  0  0  0  0  0  0
   27.9841  -21.6761   -9.9639 C   0  0  0  0  0  0  0  0  0  0  0  0
   27.4195  -20.9368  -11.1128 C   0  0  0  0  0  0  0  0  0  0  0  0
   26.1714  -21.4508  -11.7233 C   0  0  2  0  0  0  0  0  0  0  0  0
   26.1628  -22.8484  -12.0452 N   0  0  0  0  0  0  0  0  0  0  0  0
   25.6861  -20.6555  -12.8689 C   0  0  0  0  0  0  0  0  0  0  0  0
   25.0413  -19.5926  -12.6548 O   0  0  0  0  0  0  0  0  0  0  0  0
   32.3541  -22.4592  -10.9438 N   0  0  0  0  0  0  0  0  0  0  0  0
   25.8989  -21.0109  -14.2212 C   0  0  0  0  0  0  0  0  0  0  0  0
   25.3866  -20.2022  -15.3187 C   0  0  0  0  0  0  0  0  0  0  0  0
   24.1583  -20.8840  -15.8161 O   0  0  0  0  0  0  0  0  0  0  0  0
   24.1450  -21.7376  -16.7168 N   0  0  0  0  0  0  0  0  0  0  0  0
   22.9144  -20.5132  -15.1970 C   0  0  1  0  0  0  0  0  0  0  0  0
   21.8884  -21.4850  -15.0324 C   0  0  0  0  0  0  0  0  0  0  0  0
   22.3470  -22.7757  -14.4601 C   0  0  0  0  0  0  0  0  0  0  0  0
   21.5578  -23.9815  -14.6958 C   0  0  0  0  0  0  0  0  0  0  0  0
   22.0423  -25.3044  -14.2225 C   0  0  0  0  0  0  0  0  0  0  0  0
   20.9187  -26.3075  -14.6120 N   0  0  0  0  0  0  0  0  0  0  0  0
   20.5453  -27.0954  -13.4783 C   0  0  0  0  0  0  0  0  0  0  0  0
   20.7376  -20.9026  -14.2908 O   0  0  0  0  0  0  0  0  0  0  0  0
   19.4405  -21.3254  -14.5114 O   0  0  0  0  0  0  0  0  0  0  0  0
  1  2  1  0
  2  3  2  0
  4  5  1  0
  4  2  1  0
  6  7  1  0
  6  5  1  0
  7  8  1  0
  8 10  1  0
  8  9  1  6
 10 12  1  0
 11 10  2  0
 12 13  1  0
 14 15  2  0
 14 13  1  0
 16 14  1  0
 17 23  1  0
 17 16  1  0
 17 18  1  6
 19 18  1  0
 20 19  1  0
 21 20  1  0
 21 22  1  0
 23 24  1  0
 25 23  2  0
M  END
$$$$
