RGK.pdb
     RDKit          3D

 25 24  0  0  1  0  0  0  0  0999 V2000
   28.4703  -22.7811  -18.4644 N   0  0  0  0  0  0  0  0  0  0  0  0
   28.7828  -22.7125  -17.0901 C   0  0  0  0  0  0  0  0  0  0  0  0
   29.4035  -23.6451  -16.4541 N   0  0  0  0  0  0  0  0  0  0  0  0
   28.4161  -21.5763  -16.3155 N   0  0  0  0  0  0  0  0  0  0  0  0
   27.4914  -21.6633  -15.2484 C   0  0  0  0  0  0  0  0  0  0  0  0
   26.3247  -22.5621  -15.4858 C   0  0  0  0  0  0  0  0  0  0  0  0
   25.0442  -22.0028  -15.0032 C   0  0  0  0  0  0  0  0  0  0  0  0
   24.8791  -21.8053  -13.5443 C   0  0  2  0  0  0  0  0  0  0  0  0
   25.4140  -22.8413  -12.7090 N   0  0  0  0  0  0  0  0  0  0  0  0
   23.5016  -21.4704  -13.1312 C   0  0  0  0  0  0  0  0  0  0  0  0
   22.8766  -22.2566  -12.3679 O   0  0  0  0  0  0  0  0  0  0  0  0
   29.4386  -23.5935  -15.4123 N   0  0  0  0  0  0  0  0  0  0  0  0
   22.8182  -20.3021  -13.5413 C   0  0  0  0  0  0  0  0  0  0  0  0
   21.5283  -19.9279  -12.9781 C   0  0  0  0  0  0  0  0  0  0  0  0
   20.4932  -20.3371  -13.9692 O   0  0  0  0  0  0  0  0  0  0  0  0
   20.7410  -20.8460  -15.0736 N   0  0  0  0  0  0  0  0  0  0  0  0
   19.1203  -20.1188  -13.6011 C   0  0  1  0  0  0  0  0  0  0  0  0
   18.0788  -20.5170  -14.4847 C   0  0  0  0  0  0  0  0  0  0  0  0
   16.7863  -20.8177  -13.8192 C   0  0  0  0  0  0  0  0  0  0  0  0
   15.6385  -21.2088  -14.6329 C   0  0  0  0  0  0  0  0  0  0  0  0
   14.2997  -21.3866  -14.0123 C   0  0  0  0  0  0  0  0  0  0  0  0
   13.3778  -21.8594  -15.1729 N   0  0  0  0  0  0  0  0  0  0  0  0
   12.0378  -22.0274  -14.7018 C   0  0  0  0  0  0  0  0  0  0  0  0
   17.9402  -19.5381  -15.5965 O   0  0  0  0  0  0  0  0  0  0  0  0
   18.2087  -18.1940  -15.4204 O   0  0  0  0  0  0  0  0  0  0  0  0
  1  2  1  0
  2  3  2  0
  4  5  1  0
  4  2  1  0
  6  7  1  0
  6  5  1  0
  7  8  1  0
  8 10  1  0
  8  9  1  1
 10 12  1  0
 11 10  2  0
 12 13  1  0
 14 15  2  0
 14 13  1  0
 16 14  1  0
 17 23  1  0
 17 16  1  0
 17 18  1  6
 19 18  1  0
 20 19  1  0
 21 20  1  0
 21 22  1  0
 23 24  1  0
 25 23  2  0
M  END
$$$$
