RGK.pdb
     RDKit          3D

 25 24  0  0  1  0  0  0  0  0999 V2000
   32.5108  -22.9818   -9.5592 N   0  0  0  0  0  0  0  0  0  0  0  0
   32.2647  -22.6998  -10.9197 C   0  0  0  0  0  0  0  0  0  0  0  0
   32.6368  -23.4682  -11.8843 N   0  0  0  0  0  0  0  0  0  0  0  0
   31.5733  -21.5170  -11.3048 N   0  0  0  0  0  0  0  0  0  0  0  0
   30.2036  -21.3199  -11.0106 C   0  0  0  0  0  0  0  0  0  0  0  0
   29.2666  -22.2859  -11.6541 C   0  0  0  0  0  0  0  0  0  0  0  0
   28.1785  -21.6328  -12.4123 C   0  0  0  0  0  0  0  0  0  0  0  0
   27.3215  -20.6590  -11.6967 C   0  0  2  0  0  0  0  0  0  0  0  0
   26.5083  -21.1970  -10.6449 N   0  0  0  0  0  0  0  0  0  0  0  0
   26.5135  -19.7981  -12.5833 C   0  0  0  0  0  0  0  0  0  0  0  0
   25.2549  -19.8730  -12.5388 O   0  0  0  0  0  0  0  0  0  0  0  0
   33.1750  -24.3309  -11.6491 N   0  0  0  0  0  0  0  0  0  0  0  0
   27.0652  -18.8737  -13.5005 C   0  0  0  0  0  0  0  0  0  0  0  0
   26.2290  -17.9725  -14.2813 C   0  0  0  0  0  0  0  0  0  0  0  0
   25.3919  -18.8271  -15.1701 O   0  0  0  0  0  0  0  0  0  0  0  0
   25.7759  -19.8860  -15.6908 N   0  0  0  0  0  0  0  0  0  0  0  0
   24.0513  -18.3759  -15.4293 C   0  0  1  0  0  0  0  0  0  0  0  0
   23.1095  -19.2604  -16.0249 C   0  0  0  0  0  0  0  0  0  0  0  0
   21.8649  -19.4562  -15.2400 C   0  0  0  0  0  0  0  0  0  0  0  0
   20.8188  -20.3287  -15.7665 C   0  0  0  0  0  0  0  0  0  0  0  0
   19.5114  -20.4443  -15.0691 C   0  0  0  0  0  0  0  0  0  0  0  0
   18.6549  -21.3780  -15.9718 N   0  0  0  0  0  0  0  0  0  0  0  0
   17.3378  -21.5149  -15.4314 C   0  0  0  0  0  0  0  0  0  0  0  0
   22.8454  -18.8634  -17.4342 O   0  0  0  0  0  0  0  0  0  0  0  0
   22.5061  -19.7913  -18.4004 O   0  0  0  0  0  0  0  0  0  0  0  0
  1  2  1  0
  2  3  2  0
  4  5  1  0
  4  2  1  0
  6  7  1  0
  6  5  1  0
  7  8  1  0
  8 10  1  0
  8  9  1  1
 10 12  1  0
 11 10  2  0
 12 13  1  0
 14 15  2  0
 14 13  1  0
 16 14  1  0
 17 23  1  0
 17 16  1  0
 17 18  1  6
 19 18  1  0
 20 19  1  0
 21 20  1  0
 21 22  1  0
 23 24  1  0
 25 23  2  0
M  END
$$$$
