RGK.pdb
     RDKit          3D

 25 24  0  0  1  0  0  0  0  0999 V2000
   26.2413  -23.5562  -16.0672 N   0  0  0  0  0  0  0  0  0  0  0  0
   25.9325  -22.8194  -17.2304 C   0  0  0  0  0  0  0  0  0  0  0  0
   26.1269  -23.2609  -18.4249 N   0  0  0  0  0  0  0  0  0  0  0  0
   25.3753  -21.5131  -17.1387 N   0  0  0  0  0  0  0  0  0  0  0  0
   24.6730  -21.0767  -15.9908 C   0  0  0  0  0  0  0  0  0  0  0  0
   23.1974  -20.9370  -16.1593 C   0  0  0  0  0  0  0  0  0  0  0  0
   22.5045  -20.4977  -14.9296 C   0  0  0  0  0  0  0  0  0  0  0  0
   22.5772  -21.3776  -13.7400 C   0  0  2  0  0  0  0  0  0  0  0  0
   22.7554  -22.7755  -14.0067 N   0  0  0  0  0  0  0  0  0  0  0  0
   21.4836  -21.1739  -12.7690 C   0  0  0  0  0  0  0  0  0  0  0  0
   21.0328  -20.0109  -12.5805 O   0  0  0  0  0  0  0  0  0  0  0  0
   25.8490  -22.6539  -19.2271 N   0  0  0  0  0  0  0  0  0  0  0  0
   20.8925  -22.2165  -12.0181 C   0  0  0  0  0  0  0  0  0  0  0  0
   19.7399  -21.9868  -11.1580 C   0  0  0  0  0  0  0  0  0  0  0  0
   19.3144  -23.3205  -10.6467 O   0  0  0  0  0  0  0  0  0  0  0  0
   19.5890  -24.4013  -11.1912 N   0  0  0  0  0  0  0  0  0  0  0  0
   18.5334  -23.3336   -9.4393 C   0  0  1  0  0  0  0  0  0  0  0  0
   18.1516  -24.5741   -8.8568 C   0  0  0  0  0  0  0  0  0  0  0  0
   17.8607  -24.5093   -7.4025 C   0  0  0  0  0  0  0  0  0  0  0  0
   17.6749  -25.7504   -6.6557 C   0  0  0  0  0  0  0  0  0  0  0  0
   17.4027  -25.7181   -5.1950 C   0  0  0  0  0  0  0  0  0  0  0  0
   17.2407  -27.2095   -4.7827 N   0  0  0  0  0  0  0  0  0  0  0  0
   17.1230  -27.3188   -3.3615 C   0  0  0  0  0  0  0  0  0  0  0  0
   17.0481  -25.1953   -9.6378 O   0  0  0  0  0  0  0  0  0  0  0  0
   17.0107  -26.5533   -9.8913 O   0  0  0  0  0  0  0  0  0  0  0  0
  1  2  1  0
  2  3  2  0
  4  5  1  0
  4  2  1  0
  6  7  1  0
  6  5  1  0
  7  8  1  0
  8 10  1  0
  8  9  1  6
 10 12  1  0
 11 10  2  0
 12 13  1  0
 14 15  2  0
 14 13  1  0
 16 14  1  0
 17 23  1  0
 17 16  1  0
 17 18  1  6
 19 18  1  0
 20 19  1  0
 21 20  1  0
 21 22  1  0
 23 24  1  0
 25 23  2  0
M  END
$$$$
