RGK.pdb
     RDKit          3D

 25 24  0  0  1  0  0  0  0  0999 V2000
   27.5843  -18.6161  -15.7225 N   0  0  0  0  0  0  0  0  0  0  0  0
   28.5480  -19.6389  -15.8502 C   0  0  0  0  0  0  0  0  0  0  0  0
   29.3837  -19.7113  -16.8279 N   0  0  0  0  0  0  0  0  0  0  0  0
   28.6467  -20.6722  -14.8766 N   0  0  0  0  0  0  0  0  0  0  0  0
   27.8384  -20.6879  -13.7156 C   0  0  0  0  0  0  0  0  0  0  0  0
   27.0830  -19.4301  -13.4461 C   0  0  0  0  0  0  0  0  0  0  0  0
   26.2580  -19.4912  -12.2210 C   0  0  0  0  0  0  0  0  0  0  0  0
   25.4398  -20.7054  -11.9951 C   0  0  2  0  0  0  0  0  0  0  0  0
   24.6094  -21.1121  -13.0914 N   0  0  0  0  0  0  0  0  0  0  0  0
   24.6626  -20.6863  -10.7397 C   0  0  0  0  0  0  0  0  0  0  0  0
   25.0530  -19.9643   -9.7817 O   0  0  0  0  0  0  0  0  0  0  0  0
   30.0827  -20.4862  -16.8237 N   0  0  0  0  0  0  0  0  0  0  0  0
   23.4833  -21.4387  -10.5318 C   0  0  0  0  0  0  0  0  0  0  0  0
   22.6871  -21.3016   -9.3201 C   0  0  0  0  0  0  0  0  0  0  0  0
   21.3616  -21.9199   -9.6063 O   0  0  0  0  0  0  0  0  0  0  0  0
   20.9926  -22.3021  -10.7278 N   0  0  0  0  0  0  0  0  0  0  0  0
   20.4640  -22.0749   -8.4934 C   0  0  1  0  0  0  0  0  0  0  0  0
   19.3019  -22.8844   -8.6289 C   0  0  0  0  0  0  0  0  0  0  0  0
   18.7195  -23.3475   -7.3444 C   0  0  0  0  0  0  0  0  0  0  0  0
   18.2802  -24.7346   -7.2188 C   0  0  0  0  0  0  0  0  0  0  0  0
   17.7556  -25.2453   -5.9254 C   0  0  0  0  0  0  0  0  0  0  0  0
   17.4239  -26.7423   -6.1886 N   0  0  0  0  0  0  0  0  0  0  0  0
   16.9510  -27.3615   -4.9891 C   0  0  0  0  0  0  0  0  0  0  0  0
   18.3038  -22.2150   -9.5058 O   0  0  0  0  0  0  0  0  0  0  0  0
   17.4678  -22.9347  -10.3383 O   0  0  0  0  0  0  0  0  0  0  0  0
  1  2  1  0
  2  3  2  0
  4  5  1  0
  4  2  1  0
  6  7  1  0
  6  5  1  0
  7  8  1  0
  8 10  1  0
  8  9  1  6
 10 12  1  0
 11 10  2  0
 12 13  1  0
 14 15  2  0
 14 13  1  0
 16 14  1  0
 17 23  1  0
 17 16  1  0
 17 18  1  6
 19 18  1  0
 20 19  1  0
 21 20  1  0
 21 22  1  0
 23 24  1  0
 25 23  2  0
M  END
$$$$
