RGK.pdb
     RDKit          3D

 25 24  0  0  1  0  0  0  0  0999 V2000
   24.8765  -10.4216  -20.1826 N   0  0  0  0  0  0  0  0  0  0  0  0
   25.7078  -11.4230  -20.7279 C   0  0  0  0  0  0  0  0  0  0  0  0
   26.3483  -11.2897  -21.8376 N   0  0  0  0  0  0  0  0  0  0  0  0
   25.8843  -12.6669  -20.0594 N   0  0  0  0  0  0  0  0  0  0  0  0
   25.2866  -12.9355  -18.8056 C   0  0  0  0  0  0  0  0  0  0  0  0
   26.0181  -12.3993  -17.6213 C   0  0  0  0  0  0  0  0  0  0  0  0
   25.3728  -12.7297  -16.3329 C   0  0  0  0  0  0  0  0  0  0  0  0
   24.6727  -14.0305  -16.2210 C   0  0  2  0  0  0  0  0  0  0  0  0
   23.2506  -13.9619  -16.0485 N   0  0  0  0  0  0  0  0  0  0  0  0
   25.2671  -14.9545  -15.2345 C   0  0  0  0  0  0  0  0  0  0  0  0
   25.3907  -14.5829  -14.0353 O   0  0  0  0  0  0  0  0  0  0  0  0
   26.9686  -12.0700  -22.1467 N   0  0  0  0  0  0  0  0  0  0  0  0
   25.7181  -16.2578  -15.5479 C   0  0  0  0  0  0  0  0  0  0  0  0
   26.0232  -17.2358  -14.5127 C   0  0  0  0  0  0  0  0  0  0  0  0
   25.1117  -18.3937  -14.7352 O   0  0  0  0  0  0  0  0  0  0  0  0
   24.1516  -18.3904  -15.5216 N   0  0  0  0  0  0  0  0  0  0  0  0
   25.3803  -19.5860  -13.9775 C   0  0  1  0  0  0  0  0  0  0  0  0
   24.5867  -20.7488  -14.1826 C   0  0  0  0  0  0  0  0  0  0  0  0
   25.2146  -22.0132  -13.7237 C   0  0  0  0  0  0  0  0  0  0  0  0
   24.5083  -23.2753  -13.9257 C   0  0  0  0  0  0  0  0  0  0  0  0
   24.9874  -24.2544  -14.9361 C   0  0  0  0  0  0  0  0  0  0  0  0
   23.9095  -25.3761  -14.9523 N   0  0  0  0  0  0  0  0  0  0  0  0
   24.1543  -26.2805  -16.0329 C   0  0  0  0  0  0  0  0  0  0  0  0
   23.2213  -20.5488  -13.6265 O   0  0  0  0  0  0  0  0  0  0  0  0
   22.1015  -21.0801  -14.2376 O   0  0  0  0  0  0  0  0  0  0  0  0
  1  2  1  0
  2  3  2  0
  4  5  1  0
  4  2  1  0
  6  7  1  0
  6  5  1  0
  7  8  1  0
  8 10  1  0
  8  9  1  1
 10 12  1  0
 11 10  2  0
 12 13  1  0
 14 15  2  0
 14 13  1  0
 16 14  1  0
 17 23  1  0
 17 16  1  0
 17 18  1  1
 19 18  1  0
 20 19  1  0
 21 20  1  0
 21 22  1  0
 23 24  1  0
 25 23  2  0
M  END
$$$$
