RGK.pdb
     RDKit          3D

 25 24  0  0  1  0  0  0  0  0999 V2000
   24.6229  -20.0763  -18.5922 N   0  0  0  0  0  0  0  0  0  0  0  0
   23.2972  -19.5947  -18.5510 C   0  0  0  0  0  0  0  0  0  0  0  0
   22.6802  -19.1201  -19.5774 N   0  0  0  0  0  0  0  0  0  0  0  0
   22.5544  -19.6092  -17.3371 N   0  0  0  0  0  0  0  0  0  0  0  0
   23.0831  -20.1494  -16.1413 C   0  0  0  0  0  0  0  0  0  0  0  0
   23.8200  -21.4375  -16.2933 C   0  0  0  0  0  0  0  0  0  0  0  0
   24.3887  -21.9423  -15.0255 C   0  0  0  0  0  0  0  0  0  0  0  0
   25.2577  -21.0322  -14.2437 C   0  0  2  0  0  0  0  0  0  0  0  0
   26.6554  -21.3535  -14.2392 N   0  0  0  0  0  0  0  0  0  0  0  0
   24.7837  -20.7758  -12.8689 C   0  0  0  0  0  0  0  0  0  0  0  0
   25.6173  -20.4593  -11.9765 O   0  0  0  0  0  0  0  0  0  0  0  0
   21.6918  -18.8070  -19.4583 N   0  0  0  0  0  0  0  0  0  0  0  0
   23.4285  -20.8625  -12.4739 C   0  0  0  0  0  0  0  0  0  0  0  0
   22.9829  -20.4343  -11.1551 C   0  0  0  0  0  0  0  0  0  0  0  0
   21.5489  -20.8235  -11.0403 O   0  0  0  0  0  0  0  0  0  0  0  0
   20.8136  -21.0873  -12.0046 N   0  0  0  0  0  0  0  0  0  0  0  0
   20.9994  -20.8919   -9.7131 C   0  0  1  0  0  0  0  0  0  0  0  0
   19.9431  -21.8022   -9.4305 C   0  0  0  0  0  0  0  0  0  0  0  0
   19.8046  -22.1606   -7.9966 C   0  0  0  0  0  0  0  0  0  0  0  0
   18.7384  -23.0710   -7.5882 C   0  0  0  0  0  0  0  0  0  0  0  0
   19.0487  -24.2867   -6.7915 C   0  0  0  0  0  0  0  0  0  0  0  0
   17.6688  -24.9499   -6.5151 N   0  0  0  0  0  0  0  0  0  0  0  0
   17.8413  -26.1531   -5.7614 C   0  0  0  0  0  0  0  0  0  0  0  0
   18.6695  -21.3198  -10.0293 O   0  0  0  0  0  0  0  0  0  0  0  0
   18.3989  -19.9727  -10.1769 O   0  0  0  0  0  0  0  0  0  0  0  0
  1  2  1  0
  2  3  2  0
  4  5  1  0
  4  2  1  0
  6  7  1  0
  6  5  1  0
  7  8  1  0
  8 10  1  0
  8  9  1  1
 10 12  1  0
 11 10  2  0
 12 13  1  0
 14 15  2  0
 14 13  1  0
 16 14  1  0
 17 23  1  0
 17 16  1  0
 17 18  1  1
 19 18  1  0
 20 19  1  0
 21 20  1  0
 21 22  1  0
 23 24  1  0
 25 23  2  0
M  END
$$$$
