RGK.pdb
     RDKit          3D

 25 24  0  0  1  0  0  0  0  0999 V2000
   25.8679  -23.9029  -15.9341 N   0  0  0  0  0  0  0  0  0  0  0  0
   26.3312  -25.1758  -16.3293 C   0  0  0  0  0  0  0  0  0  0  0  0
   27.5639  -25.5412  -16.2483 N   0  0  0  0  0  0  0  0  0  0  0  0
   25.4330  -26.1475  -16.8531 N   0  0  0  0  0  0  0  0  0  0  0  0
   24.0513  -25.8852  -17.0069 C   0  0  0  0  0  0  0  0  0  0  0  0
   23.2189  -26.1113  -15.7898 C   0  0  0  0  0  0  0  0  0  0  0  0
   21.8018  -25.7295  -15.9679 C   0  0  0  0  0  0  0  0  0  0  0  0
   21.3245  -24.4996  -15.2942 C   0  0  2  0  0  0  0  0  0  0  0  0
   22.1920  -23.3610  -15.3842 N   0  0  0  0  0  0  0  0  0  0  0  0
   20.8873  -24.7049  -13.8988 C   0  0  0  0  0  0  0  0  0  0  0  0
   20.8347  -25.8763  -13.4333 O   0  0  0  0  0  0  0  0  0  0  0  0
   27.8265  -26.4794  -16.6224 N   0  0  0  0  0  0  0  0  0  0  0  0
   20.5148  -23.6551  -13.0274 C   0  0  0  0  0  0  0  0  0  0  0  0
   19.1792  -23.0746  -13.0495 C   0  0  0  0  0  0  0  0  0  0  0  0
   18.3411  -23.8931  -12.1282 O   0  0  0  0  0  0  0  0  0  0  0  0
   17.1029  -23.8365  -12.0686 N   0  0  0  0  0  0  0  0  0  0  0  0
   19.0340  -24.8040  -11.2575 C   0  0  2  0  0  0  0  0  0  0  0  0
   18.3143  -25.5080  -10.2523 C   0  0  0  0  0  0  0  0  0  0  0  0
   18.6835  -25.1456   -8.8609 C   0  0  0  0  0  0  0  0  0  0  0  0
   18.0150  -25.8141   -7.7479 C   0  0  0  0  0  0  0  0  0  0  0  0
   18.3819  -25.4914   -6.3442 C   0  0  0  0  0  0  0  0  0  0  0  0
   17.3852  -26.3059   -5.4703 N   0  0  0  0  0  0  0  0  0  0  0  0
   17.5626  -25.9832   -4.0883 C   0  0  0  0  0  0  0  0  0  0  0  0
   16.8506  -25.4157  -10.5025 O   0  0  0  0  0  0  0  0  0  0  0  0
   16.0790  -26.5393  -10.7303 O   0  0  0  0  0  0  0  0  0  0  0  0
  1  2  1  0
  2  3  2  0
  4  5  1  0
  4  2  1  0
  6  7  1  0
  6  5  1  0
  7  8  1  0
  8 10  1  0
  8  9  1  1
 10 12  1  0
 11 10  2  0
 12 13  1  0
 14 15  2  0
 14 13  1  0
 16 14  1  0
 17 23  1  0
 17 16  1  0
 17 18  1  1
 19 18  1  0
 20 19  1  0
 21 20  1  0
 21 22  1  0
 23 24  1  0
 25 23  2  0
M  END
$$$$
