RGK.pdb
     RDKit          3D

 25 24  0  0  1  0  0  0  0  0999 V2000
   21.1373  -25.3314  -16.2700 N   0  0  0  0  0  0  0  0  0  0  0  0
   21.1381  -26.7233  -16.5015 C   0  0  0  0  0  0  0  0  0  0  0  0
   21.7451  -27.2796  -17.4923 N   0  0  0  0  0  0  0  0  0  0  0  0
   20.4472  -27.6077  -15.6263 N   0  0  0  0  0  0  0  0  0  0  0  0
   19.8459  -27.1577  -14.4274 C   0  0  0  0  0  0  0  0  0  0  0  0
   20.7677  -27.0213  -13.2625 C   0  0  0  0  0  0  0  0  0  0  0  0
   20.0990  -26.5322  -12.0382 C   0  0  0  0  0  0  0  0  0  0  0  0
   19.6370  -25.1249  -12.0147 C   0  0  2  0  0  0  0  0  0  0  0  0
   20.4927  -24.1754  -12.6653 N   0  0  0  0  0  0  0  0  0  0  0  0
   19.2507  -24.6371  -10.6756 C   0  0  0  0  0  0  0  0  0  0  0  0
   20.0944  -24.0089   -9.9792 O   0  0  0  0  0  0  0  0  0  0  0  0
   21.6630  -28.3140  -17.6040 N   0  0  0  0  0  0  0  0  0  0  0  0
   17.9707  -24.8299  -10.1060 C   0  0  0  0  0  0  0  0  0  0  0  0
   17.6518  -24.3763   -8.7592 C   0  0  0  0  0  0  0  0  0  0  0  0
   16.9030  -25.4836   -8.1004 O   0  0  0  0  0  0  0  0  0  0  0  0
   16.4628  -26.4823   -8.6910 N   0  0  0  0  0  0  0  0  0  0  0  0
   16.6864  -25.3673   -6.6835 C   0  0  1  0  0  0  0  0  0  0  0  0
   15.9181  -26.3517   -6.0018 C   0  0  0  0  0  0  0  0  0  0  0  0
   16.0918  -26.3581   -4.5275 C   0  0  0  0  0  0  0  0  0  0  0  0
   17.3584  -26.8124   -3.9601 C   0  0  0  0  0  0  0  0  0  0  0  0
   17.5111  -26.9754   -2.4907 C   0  0  0  0  0  0  0  0  0  0  0  0
   18.9588  -27.5099   -2.2934 N   0  0  0  0  0  0  0  0  0  0  0  0
   19.2262  -27.7095   -0.9026 C   0  0  0  0  0  0  0  0  0  0  0  0
   14.4906  -26.2710   -6.4132 O   0  0  0  0  0  0  0  0  0  0  0  0
   13.6993  -27.3989   -6.5209 O   0  0  0  0  0  0  0  0  0  0  0  0
  1  2  1  0
  2  3  2  0
  4  5  1  0
  4  2  1  0
  6  7  1  0
  6  5  1  0
  7  8  1  0
  8 10  1  0
  8  9  1  1
 10 12  1  0
 11 10  2  0
 12 13  1  0
 14 15  2  0
 14 13  1  0
 16 14  1  0
 17 23  1  0
 17 16  1  0
 17 18  1  1
 19 18  1  0
 20 19  1  0
 21 20  1  0
 21 22  1  0
 23 24  1  0
 25 23  2  0
M  END
$$$$
