RGK.pdb
     RDKit          3D

 25 24  0  0  1  0  0  0  0  0999 V2000
   24.8457  -24.6938  -14.1886 N   0  0  0  0  0  0  0  0  0  0  0  0
   24.5140  -24.6089  -15.5575 C   0  0  0  0  0  0  0  0  0  0  0  0
   25.1331  -25.2590  -16.4814 N   0  0  0  0  0  0  0  0  0  0  0  0
   23.4480  -23.7754  -15.9983 N   0  0  0  0  0  0  0  0  0  0  0  0
   22.5955  -23.1054  -15.0897 C   0  0  0  0  0  0  0  0  0  0  0  0
   22.3351  -23.8247  -13.8090 C   0  0  0  0  0  0  0  0  0  0  0  0
   21.4152  -23.1017  -12.9054 C   0  0  0  0  0  0  0  0  0  0  0  0
   20.0503  -22.8036  -13.3982 C   0  0  2  0  0  0  0  0  0  0  0  0
   19.9764  -22.0549  -14.6192 N   0  0  0  0  0  0  0  0  0  0  0  0
   19.1539  -22.2192  -12.3806 C   0  0  0  0  0  0  0  0  0  0  0  0
   19.0598  -20.9646  -12.2868 O   0  0  0  0  0  0  0  0  0  0  0  0
   24.8579  -25.0895  -17.4737 N   0  0  0  0  0  0  0  0  0  0  0  0
   18.3754  -22.9860  -11.4829 C   0  0  0  0  0  0  0  0  0  0  0  0
   17.5515  -22.3647  -10.4551 C   0  0  0  0  0  0  0  0  0  0  0  0
   16.9159  -23.4730   -9.6878 O   0  0  0  0  0  0  0  0  0  0  0  0
   16.0439  -24.2308  -10.1409 N   0  0  0  0  0  0  0  0  0  0  0  0
   17.3572  -23.6599   -8.3319 C   0  0  1  0  0  0  0  0  0  0  0  0
   17.4328  -24.9718   -7.7867 C   0  0  0  0  0  0  0  0  0  0  0  0
   18.2379  -25.9276   -8.5880 C   0  0  0  0  0  0  0  0  0  0  0  0
   17.6844  -27.2430   -8.8975 C   0  0  0  0  0  0  0  0  0  0  0  0
   16.7720  -27.4235  -10.0568 C   0  0  0  0  0  0  0  0  0  0  0  0
   16.4612  -28.9476  -10.0909 N   0  0  0  0  0  0  0  0  0  0  0  0
   15.5560  -29.2431  -11.1581 C   0  0  0  0  0  0  0  0  0  0  0  0
   17.8550  -24.9167   -6.3611 O   0  0  0  0  0  0  0  0  0  0  0  0
   17.4202  -25.8475   -5.4368 O   0  0  0  0  0  0  0  0  0  0  0  0
  1  2  1  0
  2  3  2  0
  4  5  1  0
  4  2  1  0
  6  7  1  0
  6  5  1  0
  7  8  1  0
  8 10  1  0
  8  9  1  6
 10 12  1  0
 11 10  2  0
 12 13  1  0
 14 15  2  0
 14 13  1  0
 16 14  1  0
 17 23  1  0
 17 16  1  0
 17 18  1  1
 19 18  1  0
 20 19  1  0
 21 20  1  0
 21 22  1  0
 23 24  1  0
 25 23  2  0
M  END
$$$$
