RGK.pdb
     RDKit          3D

 25 24  0  0  1  0  0  0  0  0999 V2000
   21.1049  -28.3067  -13.9703 N   0  0  0  0  0  0  0  0  0  0  0  0
   20.5930  -27.5149  -15.0202 C   0  0  0  0  0  0  0  0  0  0  0  0
   20.1065  -28.0039  -16.1082 N   0  0  0  0  0  0  0  0  0  0  0  0
   20.5894  -26.0949  -14.9264 N   0  0  0  0  0  0  0  0  0  0  0  0
   20.5524  -25.4261  -13.6803 C   0  0  0  0  0  0  0  0  0  0  0  0
   19.2216  -25.4035  -13.0067 C   0  0  0  0  0  0  0  0  0  0  0  0
   19.2107  -24.6202  -11.7530 C   0  0  0  0  0  0  0  0  0  0  0  0
   19.9815  -25.1434  -10.6012 C   0  0  2  0  0  0  0  0  0  0  0  0
   20.0430  -26.5718  -10.4875 N   0  0  0  0  0  0  0  0  0  0  0  0
   19.6168  -24.5387   -9.3043 C   0  0  0  0  0  0  0  0  0  0  0  0
   19.4815  -23.2872   -9.2219 O   0  0  0  0  0  0  0  0  0  0  0  0
   19.7588  -27.3409  -16.8354 N   0  0  0  0  0  0  0  0  0  0  0  0
   19.4036  -25.2825   -8.1205 C   0  0  0  0  0  0  0  0  0  0  0  0
   19.1010  -24.6370   -6.8505 C   0  0  0  0  0  0  0  0  0  0  0  0
   17.7578  -25.1270   -6.4303 O   0  0  0  0  0  0  0  0  0  0  0  0
   16.9269  -25.6409   -7.1955 N   0  0  0  0  0  0  0  0  0  0  0  0
   17.4214  -24.9853   -5.0393 C   0  0  1  0  0  0  0  0  0  0  0  0
   16.2075  -25.5386   -4.5448 C   0  0  0  0  0  0  0  0  0  0  0  0
   16.2097  -25.8288   -3.0889 C   0  0  0  0  0  0  0  0  0  0  0  0
   15.0761  -26.5366   -2.5005 C   0  0  0  0  0  0  0  0  0  0  0  0
   15.0364  -26.8159   -1.0412 C   0  0  0  0  0  0  0  0  0  0  0  0
   13.6864  -27.5533   -0.8091 N   0  0  0  0  0  0  0  0  0  0  0  0
   13.5505  -27.9124    0.5687 C   0  0  0  0  0  0  0  0  0  0  0  0
   15.0493  -24.7043   -4.9641 O   0  0  0  0  0  0  0  0  0  0  0  0
   13.7940  -25.2479   -5.1605 O   0  0  0  0  0  0  0  0  0  0  0  0
  1  2  1  0
  2  3  2  0
  4  5  1  0
  4  2  1  0
  6  7  1  0
  6  5  1  0
  7  8  1  0
  8 10  1  0
  8  9  1  1
 10 12  1  0
 11 10  2  0
 12 13  1  0
 14 15  2  0
 14 13  1  0
 16 14  1  0
 17 23  1  0
 17 16  1  0
 17 18  1  6
 19 18  1  0
 20 19  1  0
 21 20  1  0
 21 22  1  0
 23 24  1  0
 25 23  2  0
M  END
$$$$
