SPK.pdb
     RDKit          3D

 23 23  0  0  1  0  0  0  0  0999 V2000
    6.1274  -16.2086   21.2407 O   0  0  0  0  0  0  0  0  0  0  0  0
    6.7839  -15.8054   22.3843 C   0  0  0  0  0  0  0  0  0  0  0  0
    7.3245  -14.3788   22.3175 C   0  0  2  0  0  0  0  0  0  0  0  0
    8.1647  -14.3572   21.1016 N   0  0  0  0  0  0  0  0  0  0  0  0
    8.1919  -14.0797   23.4765 C   0  0  0  0  0  0  0  0  0  0  0  0
    9.4434  -14.2316   23.3037 O   0  0  0  0  0  0  0  0  0  0  0  0
    7.7603  -13.6444   24.7409 N   0  0  0  0  0  0  0  0  0  0  0  0
    6.3793  -13.3363   25.0782 C   0  0  0  0  0  0  0  0  0  0  0  0
    6.5293  -12.0658   25.8799 C   0  0  0  0  0  0  0  0  0  0  0  0
    7.8619  -12.1738   26.5462 C   0  0  0  0  0  0  0  0  0  0  0  0
    8.5005  -13.3915   25.9508 C   0  0  1  0  0  0  0  0  0  0  0  0
    8.4032  -14.5605   26.9014 C   0  0  0  0  0  0  0  0  0  0  0  0
    7.3926  -15.2986   26.7805 O   0  0  0  0  0  0  0  0  0  0  0  0
    9.3503  -14.8599   27.8851 N   0  0  0  0  0  0  0  0  0  0  0  0
    9.8297  -16.2325   28.1345 C   0  0  1  0  0  0  0  0  0  0  0  0
   10.5938  -16.6623   26.8893 C   0  0  0  0  0  0  0  0  0  0  0  0
   11.1547  -18.0392   26.9695 C   0  0  0  0  0  0  0  0  0  0  0  0
   11.9084  -18.4442   25.7231 C   0  0  0  0  0  0  0  0  0  0  0  0
   12.3691  -19.8847   25.9433 C   0  0  0  0  0  0  0  0  0  0  0  0
   13.1868  -20.2321   24.7869 N   0  0  0  0  0  0  0  0  0  0  0  0
   10.6653  -16.2709   29.3538 C   0  0  0  0  0  0  0  0  0  0  0  0
   11.4029  -15.1702   29.7506 O   0  0  0  0  0  0  0  0  0  0  0  0
   10.7188  -17.3060   30.0496 O   0  0  0  0  0  0  0  0  0  0  0  0
  1  2  1  0
  2  3  1  0
  3  5  1  0
  3  4  1  6
  5  6  2  0
  7 11  1  0
  7  5  1  0
  8  7  1  0
  9  8  1  0
  9 10  1  0
 10 11  1  0
 11 12  1  1
 12 13  2  0
 12 14  1  0
 14 15  1  0
 15 21  1  0
 15 16  1  6
 17 16  1  0
 18 19  1  0
 18 17  1  0
 20 19  1  0
 21 23  2  0
 21 22  1  0
M  END
$$$$
