SPK.pdb
     RDKit          3D

 23 23  0  0  1  0  0  0  0  0999 V2000
    8.0660  -17.6449   17.0929 O   0  0  0  0  0  0  0  0  0  0  0  0
    7.3947  -16.5619   16.5656 C   0  0  0  0  0  0  0  0  0  0  0  0
    8.2770  -15.3358   16.3416 C   0  0  2  0  0  0  0  0  0  0  0  0
    9.1934  -15.7325   15.2518 N   0  0  0  0  0  0  0  0  0  0  0  0
    9.0929  -15.0371   17.5375 C   0  0  0  0  0  0  0  0  0  0  0  0
   10.3320  -15.3175   17.4643 O   0  0  0  0  0  0  0  0  0  0  0  0
    8.6255  -14.4742   18.7371 N   0  0  0  0  0  0  0  0  0  0  0  0
    7.2264  -14.2048   19.0296 C   0  0  0  0  0  0  0  0  0  0  0  0
    7.2980  -12.8387   19.6685 C   0  0  0  0  0  0  0  0  0  0  0  0
    8.6279  -12.7889   20.3470 C   0  0  0  0  0  0  0  0  0  0  0  0
    9.3387  -14.0330   19.9085 C   0  0  1  0  0  0  0  0  0  0  0  0
    9.2967  -15.0795   20.9961 C   0  0  0  0  0  0  0  0  0  0  0  0
    8.2059  -15.6858   21.1487 O   0  0  0  0  0  0  0  0  0  0  0  0
   10.3763  -15.4031   21.8233 N   0  0  0  0  0  0  0  0  0  0  0  0
   10.4259  -16.6474   22.6141 C   0  0  1  0  0  0  0  0  0  0  0  0
   11.6898  -17.3844   22.1916 C   0  0  0  0  0  0  0  0  0  0  0  0
   11.8610  -18.7127   22.8422 C   0  0  0  0  0  0  0  0  0  0  0  0
   13.0961  -19.4468   22.3718 C   0  0  0  0  0  0  0  0  0  0  0  0
   13.0876  -20.8045   23.0733 C   0  0  0  0  0  0  0  0  0  0  0  0
   14.2684  -21.5160   22.5979 N   0  0  0  0  0  0  0  0  0  0  0  0
   10.4065  -16.3381   24.0598 C   0  0  0  0  0  0  0  0  0  0  0  0
   10.0943  -17.3081   24.9950 O   0  0  0  0  0  0  0  0  0  0  0  0
   10.6736  -15.1868   24.4623 O   0  0  0  0  0  0  0  0  0  0  0  0
  1  2  1  0
  2  3  1  0
  3  5  1  0
  3  4  1  6
  5  6  2  0
  7 11  1  0
  7  5  1  0
  8  7  1  0
  9  8  1  0
  9 10  1  0
 10 11  1  0
 11 12  1  1
 12 13  2  0
 12 14  1  0
 14 15  1  0
 15 21  1  0
 15 16  1  1
 17 16  1  0
 18 19  1  0
 18 17  1  0
 20 19  1  0
 21 23  2  0
 21 22  1  0
M  END
$$$$
