SPK.pdb
     RDKit          3D

 23 23  0  0  1  0  0  0  0  0999 V2000
    5.7681  -16.4258   22.0022 O   0  0  0  0  0  0  0  0  0  0  0  0
    7.0653  -16.0175   22.2303 C   0  0  0  0  0  0  0  0  0  0  0  0
    7.2433  -14.5008   22.2455 C   0  0  2  0  0  0  0  0  0  0  0  0
    8.0100  -14.2051   21.0169 N   0  0  0  0  0  0  0  0  0  0  0  0
    8.0533  -14.0680   23.4038 C   0  0  0  0  0  0  0  0  0  0  0  0
    9.3153  -14.0538   23.2410 O   0  0  0  0  0  0  0  0  0  0  0  0
    7.5570  -13.6725   24.6575 N   0  0  0  0  0  0  0  0  0  0  0  0
    6.1619  -13.3643   24.9305 C   0  0  0  0  0  0  0  0  0  0  0  0
    6.2769  -12.1232   25.7826 C   0  0  0  0  0  0  0  0  0  0  0  0
    7.5708  -12.2654   26.5154 C   0  0  0  0  0  0  0  0  0  0  0  0
    8.2325  -13.4674   25.9134 C   0  0  1  0  0  0  0  0  0  0  0  0
    8.0762  -14.6673   26.8164 C   0  0  0  0  0  0  0  0  0  0  0  0
    7.1294  -15.4504   26.5492 O   0  0  0  0  0  0  0  0  0  0  0  0
    8.9044  -14.9488   27.9069 N   0  0  0  0  0  0  0  0  0  0  0  0
    9.8257  -16.1006   27.9281 C   0  0  1  0  0  0  0  0  0  0  0  0
   10.7526  -15.9418   26.7303 C   0  0  0  0  0  0  0  0  0  0  0  0
   10.7761  -17.1225   25.8235 C   0  0  0  0  0  0  0  0  0  0  0  0
   11.7046  -16.9438   24.6438 C   0  0  0  0  0  0  0  0  0  0  0  0
   11.6502  -18.2469   23.8472 C   0  0  0  0  0  0  0  0  0  0  0  0
   12.5095  -18.0504   22.6856 N   0  0  0  0  0  0  0  0  0  0  0  0
   10.5599  -16.1472   29.2107 C   0  0  0  0  0  0  0  0  0  0  0  0
   10.7177  -17.3346   29.9022 O   0  0  0  0  0  0  0  0  0  0  0  0
   11.0529  -15.1068   29.6936 O   0  0  0  0  0  0  0  0  0  0  0  0
  1  2  1  0
  2  3  1  0
  3  5  1  0
  3  4  1  6
  5  6  2  0
  7 11  1  0
  7  5  1  0
  8  7  1  0
  9  8  1  0
  9 10  1  0
 10 11  1  0
 11 12  1  1
 12 13  2  0
 12 14  1  0
 14 15  1  0
 15 21  1  0
 15 16  1  6
 17 16  1  0
 18 19  1  0
 18 17  1  0
 20 19  1  0
 21 23  2  0
 21 22  1  0
M  END
$$$$
