SPK.pdb
     RDKit          3D

 23 23  0  0  1  0  0  0  0  0999 V2000
    9.0025  -17.3486   16.0876 O   0  0  0  0  0  0  0  0  0  0  0  0
    8.1144  -16.3219   15.8451 C   0  0  0  0  0  0  0  0  0  0  0  0
    8.7399  -14.9310   15.9230 C   0  0  2  0  0  0  0  0  0  0  0  0
    9.8312  -14.9588   14.9265 N   0  0  0  0  0  0  0  0  0  0  0  0
    9.3413  -14.6875   17.2512 C   0  0  0  0  0  0  0  0  0  0  0  0
   10.6118  -14.7224   17.3146 O   0  0  0  0  0  0  0  0  0  0  0  0
    8.6401  -14.4215   18.4395 N   0  0  0  0  0  0  0  0  0  0  0  0
    7.1928  -14.3112   18.5340 C   0  0  0  0  0  0  0  0  0  0  0  0
    7.0289  -13.1087   19.4322 C   0  0  0  0  0  0  0  0  0  0  0  0
    8.2259  -13.1167   20.3258 C   0  0  0  0  0  0  0  0  0  0  0  0
    9.1157  -14.1917   19.7799 C   0  0  1  0  0  0  0  0  0  0  0  0
    9.0093  -15.4443   20.6161 C   0  0  0  0  0  0  0  0  0  0  0  0
    8.2164  -16.3283   20.2031 O   0  0  0  0  0  0  0  0  0  0  0  0
    9.7250  -15.6700   21.7957 N   0  0  0  0  0  0  0  0  0  0  0  0
   10.4388  -16.9331   22.0622 C   0  0  1  0  0  0  0  0  0  0  0  0
   11.4586  -17.1039   20.9442 C   0  0  0  0  0  0  0  0  0  0  0  0
   12.2849  -18.3368   21.0630 C   0  0  0  0  0  0  0  0  0  0  0  0
   13.2616  -18.5063   19.9214 C   0  0  0  0  0  0  0  0  0  0  0  0
   13.9640  -19.8449   20.1463 C   0  0  0  0  0  0  0  0  0  0  0  0
   14.9195  -19.9920   19.0546 N   0  0  0  0  0  0  0  0  0  0  0  0
   11.0660  -16.8958   23.4007 C   0  0  0  0  0  0  0  0  0  0  0  0
   11.1988  -18.0435   24.1609 O   0  0  0  0  0  0  0  0  0  0  0  0
   11.4888  -15.8187   23.8694 O   0  0  0  0  0  0  0  0  0  0  0  0
  1  2  1  0
  2  3  1  0
  3  5  1  0
  3  4  1  6
  5  6  2  0
  7 11  1  0
  7  5  1  0
  8  7  1  0
  9  8  1  0
  9 10  1  0
 10 11  1  0
 11 12  1  1
 12 13  2  0
 12 14  1  0
 14 15  1  0
 15 21  1  0
 15 16  1  6
 17 16  1  0
 18 19  1  0
 18 17  1  0
 20 19  1  0
 21 23  2  0
 21 22  1  0
M  END
$$$$
