SPK.pdb
     RDKit          3D

 23 23  0  0  1  0  0  0  0  0999 V2000
    6.4791  -16.6377   23.4710 O   0  0  0  0  0  0  0  0  0  0  0  0
    6.8755  -16.0473   22.2895 C   0  0  0  0  0  0  0  0  0  0  0  0
    7.0564  -14.5339   22.3840 C   0  0  2  0  0  0  0  0  0  0  0  0
    7.6407  -14.1484   21.0821 N   0  0  0  0  0  0  0  0  0  0  0  0
    8.0240  -14.1750   23.4423 C   0  0  0  0  0  0  0  0  0  0  0  0
    9.2548  -14.2039   23.1203 O   0  0  0  0  0  0  0  0  0  0  0  0
    7.7074  -13.8062   24.7607 N   0  0  0  0  0  0  0  0  0  0  0  0
    6.3537  -13.6805   25.2777 C   0  0  0  0  0  0  0  0  0  0  0  0
    6.4432  -12.4058   26.0818 C   0  0  0  0  0  0  0  0  0  0  0  0
    7.8534  -12.3450   26.5706 C   0  0  0  0  0  0  0  0  0  0  0  0
    8.5594  -13.4669   25.8719 C   0  0  1  0  0  0  0  0  0  0  0  0
    8.7348  -14.6441   26.8009 C   0  0  0  0  0  0  0  0  0  0  0  0
    7.7183  -15.3566   27.0009 O   0  0  0  0  0  0  0  0  0  0  0  0
    9.9346  -14.9773   27.4364 N   0  0  0  0  0  0  0  0  0  0  0  0
   10.1994  -16.3236   27.9779 C   0  0  1  0  0  0  0  0  0  0  0  0
   11.4523  -16.8371   27.2811 C   0  0  0  0  0  0  0  0  0  0  0  0
   11.8717  -18.1977   27.7167 C   0  0  0  0  0  0  0  0  0  0  0  0
   13.1775  -18.6407   27.0969 C   0  0  0  0  0  0  0  0  0  0  0  0
   13.4830  -20.0240   27.6704 C   0  0  0  0  0  0  0  0  0  0  0  0
   14.6819  -20.4933   26.9856 N   0  0  0  0  0  0  0  0  0  0  0  0
   10.3518  -16.2651   29.4475 C   0  0  0  0  0  0  0  0  0  0  0  0
   10.3327  -17.4154   30.2152 O   0  0  0  0  0  0  0  0  0  0  0  0
   10.5010  -15.1673   30.0230 O   0  0  0  0  0  0  0  0  0  0  0  0
  1  2  1  0
  2  3  1  0
  3  5  1  0
  3  4  1  6
  5  6  2  0
  7 11  1  0
  7  5  1  0
  8  7  1  0
  9  8  1  0
  9 10  1  0
 10 11  1  0
 11 12  1  1
 12 13  2  0
 12 14  1  0
 14 15  1  0
 15 21  1  0
 15 16  1  6
 17 16  1  0
 18 19  1  0
 18 17  1  0
 20 19  1  0
 21 23  2  0
 21 22  1  0
M  END
$$$$
