SPK.pdb
     RDKit          3D

 23 23  0  0  1  0  0  0  0  0999 V2000
    6.7357  -17.0953   15.2112 O   0  0  0  0  0  0  0  0  0  0  0  0
    7.6068  -16.7590   16.2259 C   0  0  0  0  0  0  0  0  0  0  0  0
    8.2990  -15.4125   16.0267 C   0  0  2  0  0  0  0  0  0  0  0  0
    9.1480  -15.6051   14.8321 N   0  0  0  0  0  0  0  0  0  0  0  0
    9.1826  -15.0904   17.1670 C   0  0  0  0  0  0  0  0  0  0  0  0
   10.4191  -15.3524   17.0193 O   0  0  0  0  0  0  0  0  0  0  0  0
    8.7816  -14.5237   18.3887 N   0  0  0  0  0  0  0  0  0  0  0  0
    7.3997  -14.2655   18.7620 C   0  0  0  0  0  0  0  0  0  0  0  0
    7.4958  -12.8944   19.3870 C   0  0  0  0  0  0  0  0  0  0  0  0
    8.8629  -12.8276   19.9851 C   0  0  0  0  0  0  0  0  0  0  0  0
    9.5586  -14.0679   19.5131 C   0  0  1  0  0  0  0  0  0  0  0  0
    9.5913  -15.1073   20.6077 C   0  0  0  0  0  0  0  0  0  0  0  0
    8.5221  -15.7349   20.8169 O   0  0  0  0  0  0  0  0  0  0  0  0
   10.7162  -15.4029   21.3833 N   0  0  0  0  0  0  0  0  0  0  0  0
   10.7434  -16.5156   22.3515 C   0  0  1  0  0  0  0  0  0  0  0  0
   12.1567  -17.0822   22.3275 C   0  0  0  0  0  0  0  0  0  0  0  0
   12.5233  -17.7379   21.0420 C   0  0  0  0  0  0  0  0  0  0  0  0
   13.9581  -18.2133   21.0086 C   0  0  0  0  0  0  0  0  0  0  0  0
   14.2071  -18.7431   19.5969 C   0  0  0  0  0  0  0  0  0  0  0  0
   15.6041  -19.1595   19.5586 N   0  0  0  0  0  0  0  0  0  0  0  0
   10.3469  -16.0382   23.6935 C   0  0  0  0  0  0  0  0  0  0  0  0
    9.9879  -16.9258   24.6915 O   0  0  0  0  0  0  0  0  0  0  0  0
   10.3296  -14.8162   23.9488 O   0  0  0  0  0  0  0  0  0  0  0  0
  1  2  1  0
  2  3  1  0
  3  5  1  0
  3  4  1  6
  5  6  2  0
  7 11  1  0
  7  5  1  0
  8  7  1  0
  9  8  1  0
  9 10  1  0
 10 11  1  0
 11 12  1  1
 12 13  2  0
 12 14  1  0
 14 15  1  0
 15 21  1  0
 15 16  1  1
 17 16  1  0
 18 19  1  0
 18 17  1  0
 20 19  1  0
 21 23  2  0
 21 22  1  0
M  END
$$$$
