SPK.pdb
     RDKit          3D

 23 23  0  0  1  0  0  0  0  0999 V2000
    5.3150  -17.1328   23.3846 O   0  0  0  0  0  0  0  0  0  0  0  0
    4.9174  -17.9194   22.3241 C   0  0  0  0  0  0  0  0  0  0  0  0
    5.2145  -17.3100   20.9557 C   0  0  2  0  0  0  0  0  0  0  0  0
    4.8265  -18.3598   19.9902 N   0  0  0  0  0  0  0  0  0  0  0  0
    6.6596  -17.0481   20.7882 C   0  0  0  0  0  0  0  0  0  0  0  0
    7.3659  -18.0145   20.3563 O   0  0  0  0  0  0  0  0  0  0  0  0
    7.3165  -15.8360   21.0599 N   0  0  0  0  0  0  0  0  0  0  0  0
    6.6677  -14.6510   21.5987 C   0  0  0  0  0  0  0  0  0  0  0  0
    7.2753  -13.5529   20.7592 C   0  0  0  0  0  0  0  0  0  0  0  0
    8.6450  -14.0350   20.4090 C   0  0  0  0  0  0  0  0  0  0  0  0
    8.6949  -15.4547   20.8857 C   0  0  1  0  0  0  0  0  0  0  0  0
    9.4537  -15.5511   22.1875 C   0  0  0  0  0  0  0  0  0  0  0  0
    8.9577  -14.9459   23.1716 O   0  0  0  0  0  0  0  0  0  0  0  0
   10.6483  -16.2577   22.3553 N   0  0  0  0  0  0  0  0  0  0  0  0
   11.3324  -16.3631   23.6580 C   0  0  1  0  0  0  0  0  0  0  0  0
   11.3149  -17.8362   24.0436 C   0  0  0  0  0  0  0  0  0  0  0  0
    9.9475  -18.4101   24.1758 C   0  0  0  0  0  0  0  0  0  0  0  0
    9.9536  -19.9011   24.4260 C   0  0  0  0  0  0  0  0  0  0  0  0
    8.4957  -20.3137   24.6259 C   0  0  0  0  0  0  0  0  0  0  0  0
    8.5144  -21.7386   24.9355 N   0  0  0  0  0  0  0  0  0  0  0  0
   12.7037  -15.8182   23.5632 C   0  0  0  0  0  0  0  0  0  0  0  0
   13.4314  -15.5105   24.6985 O   0  0  0  0  0  0  0  0  0  0  0  0
   13.2304  -15.6256   22.4478 O   0  0  0  0  0  0  0  0  0  0  0  0
  1  2  1  0
  2  3  1  0
  3  5  1  0
  3  4  1  6
  5  6  2  0
  7 11  1  0
  7  5  1  0
  8  7  1  0
  9  8  1  0
  9 10  1  0
 10 11  1  0
 11 12  1  1
 12 13  2  0
 12 14  1  0
 14 15  1  0
 15 21  1  0
 15 16  1  6
 17 16  1  0
 18 19  1  0
 18 17  1  0
 20 19  1  0
 21 23  2  0
 21 22  1  0
M  END
$$$$
