SPK.pdb
     RDKit          3D

 23 23  0  0  1  0  0  0  0  0999 V2000
    7.0133  -18.6580   19.8684 O   0  0  0  0  0  0  0  0  0  0  0  0
    6.3366  -17.7543   19.0767 C   0  0  0  0  0  0  0  0  0  0  0  0
    7.2425  -16.9319   18.1629 C   0  0  2  0  0  0  0  0  0  0  0  0
    7.9072  -17.9325   17.3016 N   0  0  0  0  0  0  0  0  0  0  0  0
    8.2881  -16.2293   18.9363 C   0  0  0  0  0  0  0  0  0  0  0  0
    9.4719  -16.6853   18.8358 O   0  0  0  0  0  0  0  0  0  0  0  0
    8.0924  -15.1110   19.7642 N   0  0  0  0  0  0  0  0  0  0  0  0
    6.8236  -14.4183   19.9254 C   0  0  0  0  0  0  0  0  0  0  0  0
    7.2505  -12.9706   19.8851 C   0  0  0  0  0  0  0  0  0  0  0  0
    8.6329  -12.9503   20.4506 C   0  0  0  0  0  0  0  0  0  0  0  0
    9.0149  -14.3910   20.6045 C   0  0  1  0  0  0  0  0  0  0  0  0
    8.8874  -14.8229   22.0456 C   0  0  0  0  0  0  0  0  0  0  0  0
    7.7279  -15.0941   22.4490 O   0  0  0  0  0  0  0  0  0  0  0  0
    9.9603  -14.9342   22.9350 N   0  0  0  0  0  0  0  0  0  0  0  0
   10.1564  -16.1134   23.7994 C   0  0  1  0  0  0  0  0  0  0  0  0
   10.2903  -17.3162   22.8751 C   0  0  0  0  0  0  0  0  0  0  0  0
   10.6290  -18.5842   23.5783 C   0  0  0  0  0  0  0  0  0  0  0  0
   10.6594  -19.7819   22.6562 C   0  0  0  0  0  0  0  0  0  0  0  0
   11.0182  -20.9882   23.5232 C   0  0  0  0  0  0  0  0  0  0  0  0
   11.1204  -22.1256   22.6164 N   0  0  0  0  0  0  0  0  0  0  0  0
   11.3427  -15.9263   24.6618 C   0  0  0  0  0  0  0  0  0  0  0  0
   11.3404  -16.3400   25.9815 O   0  0  0  0  0  0  0  0  0  0  0  0
   12.3735  -15.3873   24.2084 O   0  0  0  0  0  0  0  0  0  0  0  0
  1  2  1  0
  2  3  1  0
  3  5  1  0
  3  4  1  6
  5  6  2  0
  7 11  1  0
  7  5  1  0
  8  7  1  0
  9  8  1  0
  9 10  1  0
 10 11  1  0
 11 12  1  1
 12 13  2  0
 12 14  1  0
 14 15  1  0
 15 21  1  0
 15 16  1  6
 17 16  1  0
 18 19  1  0
 18 17  1  0
 20 19  1  0
 21 23  2  0
 21 22  1  0
M  END
$$$$
