SPK.pdb
     RDKit          3D

 23 23  0  0  1  0  0  0  0  0999 V2000
    6.3651  -15.7097   20.9941 O   0  0  0  0  0  0  0  0  0  0  0  0
    7.0610  -14.7981   20.2286 C   0  0  0  0  0  0  0  0  0  0  0  0
    7.3185  -13.4674   20.9322 C   0  0  2  0  0  0  0  0  0  0  0  0
    8.1921  -12.7198   20.0033 N   0  0  0  0  0  0  0  0  0  0  0  0
    8.0593  -13.6642   22.1961 C   0  0  0  0  0  0  0  0  0  0  0  0
    9.3264  -13.7389   22.1063 O   0  0  0  0  0  0  0  0  0  0  0  0
    7.4928  -13.7734   23.4774 N   0  0  0  0  0  0  0  0  0  0  0  0
    6.0650  -13.7346   23.7521 C   0  0  0  0  0  0  0  0  0  0  0  0
    6.0056  -12.8491   24.9735 C   0  0  0  0  0  0  0  0  0  0  0  0
    7.2926  -13.0835   25.6946 C   0  0  0  0  0  0  0  0  0  0  0  0
    8.1125  -13.9294   24.7686 C   0  0  1  0  0  0  0  0  0  0  0  0
    8.0918  -15.3731   25.2101 C   0  0  0  0  0  0  0  0  0  0  0  0
    7.4095  -16.1636   24.5099 O   0  0  0  0  0  0  0  0  0  0  0  0
    8.7712  -15.8675   26.3274 N   0  0  0  0  0  0  0  0  0  0  0  0
    9.2671  -17.2546   26.4057 C   0  0  1  0  0  0  0  0  0  0  0  0
    9.8242  -17.4416   27.8107 C   0  0  0  0  0  0  0  0  0  0  0  0
   10.7802  -16.3793   28.2281 C   0  0  0  0  0  0  0  0  0  0  0  0
   10.4531  -15.7875   29.5803 C   0  0  0  0  0  0  0  0  0  0  0  0
   11.5383  -14.7525   29.8752 C   0  0  0  0  0  0  0  0  0  0  0  0
   11.2098  -14.1766   31.1740 N   0  0  0  0  0  0  0  0  0  0  0  0
    8.1794  -18.2070   26.0959 C   0  0  0  0  0  0  0  0  0  0  0  0
    8.4535  -19.5148   25.7390 O   0  0  0  0  0  0  0  0  0  0  0  0
    6.9867  -17.8424   26.1518 O   0  0  0  0  0  0  0  0  0  0  0  0
  1  2  1  0
  2  3  1  0
  3  5  1  0
  3  4  1  6
  5  6  2  0
  7 11  1  0
  7  5  1  0
  8  7  1  0
  9  8  1  0
  9 10  1  0
 10 11  1  0
 11 12  1  1
 12 13  2  0
 12 14  1  0
 14 15  1  0
 15 21  1  0
 15 16  1  1
 17 16  1  0
 18 19  1  0
 18 17  1  0
 20 19  1  0
 21 23  2  0
 21 22  1  0
M  END
$$$$
