SPK.pdb
     RDKit          3D

 23 23  0  0  1  0  0  0  0  0999 V2000
    6.7596  -18.0853   19.3406 O   0  0  0  0  0  0  0  0  0  0  0  0
    7.2092  -18.0488   18.0375 C   0  0  0  0  0  0  0  0  0  0  0  0
    7.5312  -16.6439   17.5329 C   0  0  2  0  0  0  0  0  0  0  0  0
    8.1446  -16.8583   16.2053 N   0  0  0  0  0  0  0  0  0  0  0  0
    8.5317  -15.9809   18.3957 C   0  0  0  0  0  0  0  0  0  0  0  0
    9.7521  -16.2618   18.1698 O   0  0  0  0  0  0  0  0  0  0  0  0
    8.2566  -15.0743   19.4334 N   0  0  0  0  0  0  0  0  0  0  0  0
    6.9308  -14.5713   19.7571 C   0  0  0  0  0  0  0  0  0  0  0  0
    7.2022  -13.1053   19.9957 C   0  0  0  0  0  0  0  0  0  0  0  0
    8.5983  -13.0426   20.5233 C   0  0  0  0  0  0  0  0  0  0  0  0
    9.1348  -14.4342   20.3794 C   0  0  1  0  0  0  0  0  0  0  0  0
    9.1160  -15.1504   21.7085 C   0  0  0  0  0  0  0  0  0  0  0  0
    7.9952  -15.5513   22.1133 O   0  0  0  0  0  0  0  0  0  0  0  0
   10.2473  -15.3857   22.4953 N   0  0  0  0  0  0  0  0  0  0  0  0
   10.2953  -16.4453   23.5205 C   0  0  1  0  0  0  0  0  0  0  0  0
   11.3215  -17.4662   23.0472 C   0  0  0  0  0  0  0  0  0  0  0  0
   11.4548  -18.6487   23.9420 C   0  0  0  0  0  0  0  0  0  0  0  0
   12.5871  -19.5676   23.5429 C   0  0  0  0  0  0  0  0  0  0  0  0
   12.5096  -20.7801   24.4700 C   0  0  0  0  0  0  0  0  0  0  0  0
   13.6691  -21.6071   24.1570 N   0  0  0  0  0  0  0  0  0  0  0  0
   10.6356  -15.8690   24.8390 C   0  0  0  0  0  0  0  0  0  0  0  0
   10.1960  -16.4562   26.0115 O   0  0  0  0  0  0  0  0  0  0  0  0
   11.3306  -14.8347   24.9150 O   0  0  0  0  0  0  0  0  0  0  0  0
  1  2  1  0
  2  3  1  0
  3  5  1  0
  3  4  1  6
  5  6  2  0
  7 11  1  0
  7  5  1  0
  8  7  1  0
  9  8  1  0
  9 10  1  0
 10 11  1  0
 11 12  1  1
 12 13  2  0
 12 14  1  0
 14 15  1  0
 15 21  1  0
 15 16  1  6
 17 16  1  0
 18 19  1  0
 18 17  1  0
 20 19  1  0
 21 23  2  0
 21 22  1  0
M  END
$$$$
