SPK.pdb
     RDKit          3D

 23 23  0  0  1  0  0  0  0  0999 V2000
    5.0679  -18.0528   21.7900 O   0  0  0  0  0  0  0  0  0  0  0  0
    4.4806  -17.0393   21.0624 C   0  0  0  0  0  0  0  0  0  0  0  0
    5.1527  -16.7733   19.7172 C   0  0  2  0  0  0  0  0  0  0  0  0
    5.0240  -18.0478   18.9798 N   0  0  0  0  0  0  0  0  0  0  0  0
    6.5932  -16.4871   19.8852 C   0  0  0  0  0  0  0  0  0  0  0  0
    7.4001  -17.4021   19.5232 O   0  0  0  0  0  0  0  0  0  0  0  0
    7.1455  -15.3035   20.4033 N   0  0  0  0  0  0  0  0  0  0  0  0
    6.3666  -14.1674   20.8705 C   0  0  0  0  0  0  0  0  0  0  0  0
    7.1339  -13.0031   20.2915 C   0  0  0  0  0  0  0  0  0  0  0  0
    8.5562  -13.4559   20.2351 C   0  0  0  0  0  0  0  0  0  0  0  0
    8.5190  -14.9110   20.5909 C   0  0  1  0  0  0  0  0  0  0  0  0
    8.9525  -15.1187   22.0222 C   0  0  0  0  0  0  0  0  0  0  0  0
    8.3177  -14.4787   22.8986 O   0  0  0  0  0  0  0  0  0  0  0  0
    9.9955  -15.9615   22.4174 N   0  0  0  0  0  0  0  0  0  0  0  0
   10.3949  -16.1231   23.8283 C   0  0  1  0  0  0  0  0  0  0  0  0
    9.9901  -17.5325   24.2391 C   0  0  0  0  0  0  0  0  0  0  0  0
    8.5325  -17.8057   24.1065 C   0  0  0  0  0  0  0  0  0  0  0  0
    8.1512  -19.2038   24.5373 C   0  0  0  0  0  0  0  0  0  0  0  0
    6.6258  -19.2759   24.4768 C   0  0  0  0  0  0  0  0  0  0  0  0
    6.2637  -20.6182   24.9166 N   0  0  0  0  0  0  0  0  0  0  0  0
   11.8456  -15.8825   23.9820 C   0  0  0  0  0  0  0  0  0  0  0  0
   12.4099  -15.6849   25.2292 O   0  0  0  0  0  0  0  0  0  0  0  0
   12.5899  -15.8534   22.9802 O   0  0  0  0  0  0  0  0  0  0  0  0
  1  2  1  0
  2  3  1  0
  3  5  1  0
  3  4  1  6
  5  6  2  0
  7 11  1  0
  7  5  1  0
  8  7  1  0
  9  8  1  0
  9 10  1  0
 10 11  1  0
 11 12  1  1
 12 13  2  0
 12 14  1  0
 14 15  1  0
 15 21  1  0
 15 16  1  6
 17 16  1  0
 18 19  1  0
 18 17  1  0
 20 19  1  0
 21 23  2  0
 21 22  1  0
M  END
$$$$
