SPK.pdb
     RDKit          3D

 23 23  0  0  1  0  0  0  0  0999 V2000
    7.1513  -18.5841   19.5981 O   0  0  0  0  0  0  0  0  0  0  0  0
    6.3002  -17.8166   18.8313 C   0  0  0  0  0  0  0  0  0  0  0  0
    7.0145  -16.9203   17.8222 C   0  0  2  0  0  0  0  0  0  0  0  0
    7.5237  -17.8519   16.7939 N   0  0  0  0  0  0  0  0  0  0  0  0
    8.1746  -16.2406   18.4364 C   0  0  0  0  0  0  0  0  0  0  0  0
    9.3240  -16.6997   18.1406 O   0  0  0  0  0  0  0  0  0  0  0  0
    8.1210  -15.1407   19.3091 N   0  0  0  0  0  0  0  0  0  0  0  0
    6.8948  -14.4741   19.7188 C   0  0  0  0  0  0  0  0  0  0  0  0
    7.2854  -13.0184   19.6292 C   0  0  0  0  0  0  0  0  0  0  0  0
    8.7488  -12.9827   19.9267 C   0  0  0  0  0  0  0  0  0  0  0  0
    9.1739  -14.4187   19.9768 C   0  0  1  0  0  0  0  0  0  0  0  0
    9.3248  -14.8779   21.4072 C   0  0  0  0  0  0  0  0  0  0  0  0
    8.2623  -15.0307   22.0619 O   0  0  0  0  0  0  0  0  0  0  0  0
   10.5499  -15.1354   22.0294 N   0  0  0  0  0  0  0  0  0  0  0  0
   10.6541  -15.8661   23.3066 C   0  0  1  0  0  0  0  0  0  0  0  0
   10.0176  -17.2313   23.0830 C   0  0  0  0  0  0  0  0  0  0  0  0
   10.7478  -18.0861   22.1067 C   0  0  0  0  0  0  0  0  0  0  0  0
   10.0914  -19.4308   21.8912 C   0  0  0  0  0  0  0  0  0  0  0  0
   10.8559  -20.1099   20.7553 C   0  0  0  0  0  0  0  0  0  0  0  0
   10.2430  -21.4213   20.5788 N   0  0  0  0  0  0  0  0  0  0  0  0
   12.0677  -15.9620   23.7294 C   0  0  0  0  0  0  0  0  0  0  0  0
   13.0888  -15.4902   22.9246 O   0  0  0  0  0  0  0  0  0  0  0  0
   12.3641  -16.4748   24.8284 O   0  0  0  0  0  0  0  0  0  0  0  0
  1  2  1  0
  2  3  1  0
  3  5  1  0
  3  4  1  6
  5  6  2  0
  7 11  1  0
  7  5  1  0
  8  7  1  0
  9  8  1  0
  9 10  1  0
 10 11  1  0
 11 12  1  1
 12 13  2  0
 12 14  1  0
 14 15  1  0
 15 21  1  0
 15 16  1  6
 17 16  1  0
 18 19  1  0
 18 17  1  0
 20 19  1  0
 21 23  2  0
 21 22  1  0
M  END
$$$$
