SPK.pdb
     RDKit          3D

 23 23  0  0  1  0  0  0  0  0999 V2000
    4.9128  -17.2229   22.1408 O   0  0  0  0  0  0  0  0  0  0  0  0
    4.6456  -17.7636   20.9007 C   0  0  0  0  0  0  0  0  0  0  0  0
    5.1370  -16.9094   19.7341 C   0  0  2  0  0  0  0  0  0  0  0  0
    4.9599  -17.7691   18.5448 N   0  0  0  0  0  0  0  0  0  0  0  0
    6.5770  -16.6020   19.8643 C   0  0  0  0  0  0  0  0  0  0  0  0
    7.3876  -17.5114   19.4963 O   0  0  0  0  0  0  0  0  0  0  0  0
    7.1252  -15.4040   20.3527 N   0  0  0  0  0  0  0  0  0  0  0  0
    6.3422  -14.2638   20.8028 C   0  0  0  0  0  0  0  0  0  0  0  0
    7.0961  -13.1065   20.1929 C   0  0  0  0  0  0  0  0  0  0  0  0
    8.5211  -13.5504   20.1335 C   0  0  0  0  0  0  0  0  0  0  0  0
    8.4974  -14.9980   20.5199 C   0  0  1  0  0  0  0  0  0  0  0  0
    8.9447  -15.1726   21.9514 C   0  0  0  0  0  0  0  0  0  0  0  0
    8.2915  -14.5450   22.8233 O   0  0  0  0  0  0  0  0  0  0  0  0
   10.0191  -15.9727   22.3514 N   0  0  0  0  0  0  0  0  0  0  0  0
   10.4251  -16.1096   23.7630 C   0  0  1  0  0  0  0  0  0  0  0  0
   10.1571  -17.5559   24.1572 C   0  0  0  0  0  0  0  0  0  0  0  0
    8.7754  -18.0195   23.8522 C   0  0  0  0  0  0  0  0  0  0  0  0
    8.5557  -19.4791   24.1790 C   0  0  0  0  0  0  0  0  0  0  0  0
    7.0907  -19.7788   23.8637 C   0  0  0  0  0  0  0  0  0  0  0  0
    6.9247  -21.2182   24.0285 N   0  0  0  0  0  0  0  0  0  0  0  0
   11.8448  -15.7309   23.9280 C   0  0  0  0  0  0  0  0  0  0  0  0
   12.6573  -15.5058   22.8316 O   0  0  0  0  0  0  0  0  0  0  0  0
   12.3363  -15.6075   25.0689 O   0  0  0  0  0  0  0  0  0  0  0  0
  1  2  1  0
  2  3  1  0
  3  5  1  0
  3  4  1  6
  5  6  2  0
  7 11  1  0
  7  5  1  0
  8  7  1  0
  9  8  1  0
  9 10  1  0
 10 11  1  0
 11 12  1  1
 12 13  2  0
 12 14  1  0
 14 15  1  0
 15 21  1  0
 15 16  1  6
 17 16  1  0
 18 19  1  0
 18 17  1  0
 20 19  1  0
 21 23  2  0
 21 22  1  0
M  END
$$$$
