SPK.pdb
     RDKit          3D

 23 23  0  0  1  0  0  0  0  0999 V2000
    5.2706  -18.2034   21.7215 O   0  0  0  0  0  0  0  0  0  0  0  0
    4.7471  -17.2908   20.8301 C   0  0  0  0  0  0  0  0  0  0  0  0
    5.6123  -17.0687   19.5916 C   0  0  2  0  0  0  0  0  0  0  0  0
    5.7133  -18.4038   18.9654 N   0  0  0  0  0  0  0  0  0  0  0  0
    6.9759  -16.6342   19.9615 C   0  0  0  0  0  0  0  0  0  0  0  0
    7.9016  -17.4981   19.8341 O   0  0  0  0  0  0  0  0  0  0  0  0
    7.3375  -15.3619   20.4356 N   0  0  0  0  0  0  0  0  0  0  0  0
    6.3982  -14.2809   20.6906 C   0  0  0  0  0  0  0  0  0  0  0  0
    7.1258  -13.0914   20.1115 C   0  0  0  0  0  0  0  0  0  0  0  0
    8.5784  -13.3949   20.2827 C   0  0  0  0  0  0  0  0  0  0  0  0
    8.6288  -14.8132   20.7633 C   0  0  1  0  0  0  0  0  0  0  0  0
    8.8772  -14.8607   22.2518 C   0  0  0  0  0  0  0  0  0  0  0  0
    7.8634  -14.7880   22.9919 O   0  0  0  0  0  0  0  0  0  0  0  0
   10.1407  -14.9771   22.8387 N   0  0  0  0  0  0  0  0  0  0  0  0
   10.4906  -16.0751   23.7596 C   0  0  1  0  0  0  0  0  0  0  0  0
   10.2963  -17.3730   22.9871 C   0  0  0  0  0  0  0  0  0  0  0  0
   10.6507  -18.5952   23.7599 C   0  0  0  0  0  0  0  0  0  0  0  0
   10.4037  -19.8734   22.9911 C   0  0  0  0  0  0  0  0  0  0  0  0
   10.7724  -21.0223   23.9291 C   0  0  0  0  0  0  0  0  0  0  0  0
    9.5745  -21.8438   24.0574 N   0  0  0  0  0  0  0  0  0  0  0  0
   11.8750  -15.9104   24.2522 C   0  0  0  0  0  0  0  0  0  0  0  0
   12.9086  -15.5942   23.3894 O   0  0  0  0  0  0  0  0  0  0  0  0
   12.1346  -16.0557   25.4647 O   0  0  0  0  0  0  0  0  0  0  0  0
  1  2  1  0
  2  3  1  0
  3  5  1  0
  3  4  1  1
  5  6  2  0
  7 11  1  0
  7  5  1  0
  8  7  1  0
  9  8  1  0
  9 10  1  0
 10 11  1  0
 11 12  1  1
 12 13  2  0
 12 14  1  0
 14 15  1  0
 15 21  1  0
 15 16  1  6
 17 16  1  0
 18 19  1  0
 18 17  1  0
 20 19  1  0
 21 23  2  0
 21 22  1  0
M  END
$$$$
