PCL.pdb
     RDKit          3D

 22 22  0  0  1  0  0  0  0  0999 V2000
   19.2182  -13.2567  -19.7109 N   0  0  0  0  0  0  0  0  0  0  0  0
   19.1483  -14.5446  -20.3847 C   0  0  0  0  0  0  0  0  0  0  0  0
   20.1374  -14.3236  -21.5256 C   0  0  0  0  0  0  0  0  0  0  0  0
   21.2510  -13.4847  -20.8991 C   0  0  0  0  0  0  0  0  0  0  0  0
   20.6474  -13.0353  -19.6125 C   0  0  1  0  0  0  0  0  0  0  0  0
   20.9338  -11.6556  -19.2209 C   0  0  0  0  0  0  0  0  0  0  0  0
   22.1702  -11.3487  -19.0904 O   0  0  0  0  0  0  0  0  0  0  0  0
   19.9121  -10.6987  -18.9941 N   0  0  0  0  0  0  0  0  0  0  0  0
   20.2786   -9.3495  -18.6348 C   0  0  1  0  0  0  0  0  0  0  0  0
   19.4168   -8.3992  -19.4718 C   0  0  0  0  0  0  0  0  0  0  0  0
   17.6674   -8.6349  -19.1059 S   0  0  0  0  0  0  0  0  0  0  0  0
   20.0759   -9.0928  -17.1852 C   0  0  0  0  0  0  0  0  0  0  0  0
   19.0971   -9.5509  -16.5610 O   0  0  0  0  0  0  0  0  0  0  0  0
   20.5518   -8.8210  -11.9122 C   0  0  0  0  0  0  0  0  0  0  0  0
   21.7733   -8.7085  -12.7543 C   0  0  1  0  0  0  0  0  0  0  0  0
   22.8060   -9.6718  -12.1471 C   0  0  0  0  0  0  0  0  0  0  0  0
   21.6538   -8.8825  -14.2069 C   0  0  0  0  0  0  0  0  0  0  0  0
   20.8223   -7.9864  -15.0220 C   0  0  2  0  0  0  0  0  0  0  0  0
   21.0050   -8.3073  -16.4613 N   0  0  0  0  0  0  0  0  0  0  0  0
   20.8975   -6.5540  -14.8554 C   0  0  0  0  0  0  0  0  0  0  0  0
   19.9300   -5.9327  -14.0190 O   0  0  0  0  0  0  0  0  0  0  0  0
   21.7260   -5.7665  -15.3655 O   0  0  0  0  0  0  0  0  0  0  0  0
  1  5  1  0
  2  3  1  0
  2  1  1  0
  3  4  1  0
  5  4  1  0
  6  8  1  0
  5  6  1  6
  7  6  2  0
  9 10  1  6
  9  8  1  0
 10 11  1  0
 12  9  1  0
 12 19  1  0
 13 12  2  0
 15 16  1  1
 15 14  1  0
 17 15  1  0
 18 19  1  0
 18 17  1  1
 20 21  1  0
 20 18  1  0
 22 20  2  0
M  END
$$$$
