PCL.pdb
     RDKit          3D

 22 22  0  0  1  0  0  0  0  0999 V2000
   27.7213  -19.5421  -15.6226 N   0  0  0  0  0  0  0  0  0  0  0  0
   28.6824  -19.3465  -16.6977 C   0  0  0  0  0  0  0  0  0  0  0  0
   29.5829  -20.5625  -16.4998 C   0  0  0  0  0  0  0  0  0  0  0  0
   28.6214  -21.6787  -16.0922 C   0  0  0  0  0  0  0  0  0  0  0  0
   27.3670  -20.9395  -15.7737 C   0  0  1  0  0  0  0  0  0  0  0  0
   26.6239  -21.4162  -14.6077 C   0  0  0  0  0  0  0  0  0  0  0  0
   25.8739  -22.4376  -14.7925 O   0  0  0  0  0  0  0  0  0  0  0  0
   26.7168  -20.7943  -13.3367 N   0  0  0  0  0  0  0  0  0  0  0  0
   25.7919  -21.1769  -12.2966 C   0  0  1  0  0  0  0  0  0  0  0  0
   26.4625  -20.8811  -10.9516 C   0  0  0  0  0  0  0  0  0  0  0  0
   25.2445  -20.8586   -9.6226 S   0  0  0  0  0  0  0  0  0  0  0  0
   24.5054  -20.4413  -12.4078 C   0  0  0  0  0  0  0  0  0  0  0  0
   24.4601  -19.2028  -12.5552 O   0  0  0  0  0  0  0  0  0  0  0  0
   19.9883  -20.5629  -15.5338 C   0  0  0  0  0  0  0  0  0  0  0  0
   21.1523  -19.7102  -15.1701 C   0  0  1  0  0  0  0  0  0  0  0  0
   20.5715  -18.4331  -14.5413 C   0  0  0  0  0  0  0  0  0  0  0  0
   22.2243  -20.2837  -14.3476 C   0  0  0  0  0  0  0  0  0  0  0  0
   22.0212  -20.5888  -12.9248 C   0  0  2  0  0  0  0  0  0  0  0  0
   23.2751  -21.1392  -12.3482 N   0  0  0  0  0  0  0  0  0  0  0  0
   20.9156  -21.4133  -12.4967 C   0  0  0  0  0  0  0  0  0  0  0  0
   19.6602  -20.7801  -12.2848 O   0  0  0  0  0  0  0  0  0  0  0  0
   20.9186  -22.6464  -12.2819 O   0  0  0  0  0  0  0  0  0  0  0  0
  1  5  1  0
  2  3  1  0
  2  1  1  0
  3  4  1  0
  5  4  1  0
  6  8  1  0
  5  6  1  1
  7  6  2  0
  9 10  1  1
  9  8  1  0
 10 11  1  0
 12  9  1  0
 12 19  1  0
 13 12  2  0
 15 16  1  1
 15 14  1  0
 17 15  1  0
 18 19  1  0
 18 17  1  6
 20 21  1  0
 20 18  1  0
 22 20  2  0
M  END
$$$$
