PCL.pdb
     RDKit          3D

 22 22  0  0  1  0  0  0  0  0999 V2000
   27.5456  -20.8291  -15.5634 N   0  0  0  0  0  0  0  0  0  0  0  0
   28.1996  -20.6954  -16.8565 C   0  0  0  0  0  0  0  0  0  0  0  0
   28.0977  -19.1883  -17.0730 C   0  0  0  0  0  0  0  0  0  0  0  0
   28.3119  -18.5942  -15.6810 C   0  0  0  0  0  0  0  0  0  0  0  0
   28.1753  -19.7792  -14.7873 C   0  0  1  0  0  0  0  0  0  0  0  0
   27.4536  -19.5543  -13.5353 C   0  0  0  0  0  0  0  0  0  0  0  0
   27.8097  -18.5315  -12.8519 O   0  0  0  0  0  0  0  0  0  0  0  0
   26.4155  -20.4106  -13.0881 N   0  0  0  0  0  0  0  0  0  0  0  0
   25.5943  -19.9991  -11.9747 C   0  0  1  0  0  0  0  0  0  0  0  0
   24.1384  -20.3093  -12.3361 C   0  0  0  0  0  0  0  0  0  0  0  0
   23.5060  -19.1089  -13.5232 S   0  0  0  0  0  0  0  0  0  0  0  0
   25.9779  -20.6988  -10.7210 C   0  0  0  0  0  0  0  0  0  0  0  0
   26.2673  -21.9126  -10.7008 O   0  0  0  0  0  0  0  0  0  0  0  0
   28.5775  -18.5870   -6.0657 C   0  0  0  0  0  0  0  0  0  0  0  0
   28.0626  -19.5177   -7.1063 C   0  0  1  0  0  0  0  0  0  0  0  0
   28.8876  -20.8084   -6.9767 C   0  0  0  0  0  0  0  0  0  0  0  0
   26.6223  -19.7948   -7.1623 C   0  0  0  0  0  0  0  0  0  0  0  0
   26.0507  -20.6867   -8.1803 C   0  0  2  0  0  0  0  0  0  0  0  0
   26.0259  -19.9936   -9.4944 N   0  0  0  0  0  0  0  0  0  0  0  0
   24.7718  -21.3236   -7.9703 C   0  0  0  0  0  0  0  0  0  0  0  0
   24.7322  -22.4683   -7.1278 O   0  0  0  0  0  0  0  0  0  0  0  0
   23.6633  -20.9901   -8.4465 O   0  0  0  0  0  0  0  0  0  0  0  0
  1  5  1  0
  2  3  1  0
  2  1  1  0
  3  4  1  0
  5  4  1  0
  6  8  1  0
  5  6  1  1
  7  6  2  0
  9 10  1  6
  9  8  1  0
 10 11  1  0
 12  9  1  0
 12 19  1  0
 13 12  2  0
 15 16  1  1
 15 14  1  0
 17 15  1  0
 18 19  1  0
 18 17  1  1
 20 21  1  0
 20 18  1  0
 22 20  2  0
M  END
$$$$
