PCL.pdb
     RDKit          3D

 22 22  0  0  1  0  0  0  0  0999 V2000
   19.5482  -16.6965  -15.7822 N   0  0  0  0  0  0  0  0  0  0  0  0
   19.2069  -18.0807  -15.4905 C   0  0  0  0  0  0  0  0  0  0  0  0
   19.6691  -18.7648  -16.7739 C   0  0  0  0  0  0  0  0  0  0  0  0
   20.9471  -18.0189  -17.1571 C   0  0  0  0  0  0  0  0  0  0  0  0
   20.9027  -16.8104  -16.2857 C   0  0  1  0  0  0  0  0  0  0  0  0
   21.3328  -15.5589  -16.9082 C   0  0  0  0  0  0  0  0  0  0  0  0
   22.5445  -15.5182  -17.3206 O   0  0  0  0  0  0  0  0  0  0  0  0
   20.4699  -14.4431  -17.0547 N   0  0  0  0  0  0  0  0  0  0  0  0
   20.9619  -13.2538  -17.7082 C   0  0  1  0  0  0  0  0  0  0  0  0
   19.8137  -12.6778  -18.5426 C   0  0  0  0  0  0  0  0  0  0  0  0
   18.2533  -12.7940  -17.6472 S   0  0  0  0  0  0  0  0  0  0  0  0
   21.4455  -12.2480  -16.7269 C   0  0  0  0  0  0  0  0  0  0  0  0
   20.8647  -12.0489  -15.6403 O   0  0  0  0  0  0  0  0  0  0  0  0
   26.7240  -10.6214  -14.4038 C   0  0  0  0  0  0  0  0  0  0  0  0
   25.3823  -10.1087  -14.7925 C   0  0  1  0  0  0  0  0  0  0  0  0
   25.6036   -8.6854  -15.3297 C   0  0  0  0  0  0  0  0  0  0  0  0
   24.5502  -10.9098  -15.6982 C   0  0  0  0  0  0  0  0  0  0  0  0
   23.1705  -10.5204  -16.0200 C   0  0  2  0  0  0  0  0  0  0  0  0
   22.5987  -11.4752  -17.0044 N   0  0  0  0  0  0  0  0  0  0  0  0
   22.8635   -9.1761  -16.4490 C   0  0  0  0  0  0  0  0  0  0  0  0
   22.5690   -8.2118  -15.4464 O   0  0  0  0  0  0  0  0  0  0  0  0
   22.8215   -8.7373  -17.6205 O   0  0  0  0  0  0  0  0  0  0  0  0
  1  5  1  0
  2  3  1  0
  2  1  1  0
  3  4  1  0
  5  4  1  0
  6  8  1  0
  5  6  1  6
  7  6  2  0
  9 10  1  1
  9  8  1  0
 10 11  1  0
 12  9  1  0
 12 19  1  0
 13 12  2  0
 15 16  1  6
 15 14  1  0
 17 15  1  0
 18 19  1  0
 18 17  1  6
 20 21  1  0
 20 18  1  0
 22 20  2  0
M  END
$$$$
