PCL.pdb
     RDKit          3D

 22 22  0  0  1  0  0  0  0  0999 V2000
   24.7223  -18.0866  -15.3887 N   0  0  0  0  0  0  0  0  0  0  0  0
   24.1396  -17.1321  -16.3199 C   0  0  0  0  0  0  0  0  0  0  0  0
   24.9191  -17.4607  -17.5900 C   0  0  0  0  0  0  0  0  0  0  0  0
   25.0778  -18.9805  -17.5498 C   0  0  0  0  0  0  0  0  0  0  0  0
   24.6939  -19.3197  -16.1501 C   0  0  1  0  0  0  0  0  0  0  0  0
   25.5010  -20.3511  -15.4992 C   0  0  0  0  0  0  0  0  0  0  0  0
   25.4726  -21.5144  -16.0341 O   0  0  0  0  0  0  0  0  0  0  0  0
   26.2771  -20.0949  -14.3404 N   0  0  0  0  0  0  0  0  0  0  0  0
   27.0187  -21.1762  -13.7367 C   0  0  1  0  0  0  0  0  0  0  0  0
   28.5088  -20.8623  -13.9024 C   0  0  0  0  0  0  0  0  0  0  0  0
   28.9133  -19.2734  -13.1529 S   0  0  0  0  0  0  0  0  0  0  0  0
   26.6796  -21.3394  -12.2990 C   0  0  0  0  0  0  0  0  0  0  0  0
   27.1134  -22.2919  -11.6192 O   0  0  0  0  0  0  0  0  0  0  0  0
   27.2782  -19.1629   -7.6626 C   0  0  0  0  0  0  0  0  0  0  0  0
   26.8486  -20.0763   -8.7558 C   0  0  1  0  0  0  0  0  0  0  0  0
   27.1196  -21.5046   -8.2559 C   0  0  0  0  0  0  0  0  0  0  0  0
   25.4946  -19.9391   -9.3059 C   0  0  0  0  0  0  0  0  0  0  0  0
   25.0432  -20.7481  -10.4462 C   0  0  2  0  0  0  0  0  0  0  0  0
   25.8403  -20.4013  -11.6513 N   0  0  0  0  0  0  0  0  0  0  0  0
   23.6473  -20.7930  -10.8135 C   0  0  0  0  0  0  0  0  0  0  0  0
   22.7159  -21.2164   -9.8261 O   0  0  0  0  0  0  0  0  0  0  0  0
   23.1367  -20.4999  -11.9180 O   0  0  0  0  0  0  0  0  0  0  0  0
  1  5  1  0
  2  3  1  0
  2  1  1  0
  3  4  1  0
  5  4  1  0
  6  8  1  0
  5  6  1  1
  7  6  2  0
  9 10  1  1
  9  8  1  0
 10 11  1  0
 12  9  1  0
 12 19  1  0
 13 12  2  0
 15 16  1  1
 15 14  1  0
 17 15  1  0
 18 19  1  0
 18 17  1  1
 20 21  1  0
 20 18  1  0
 22 20  2  0
M  END
$$$$
