PCL.pdb
     RDKit          3D

 22 22  0  0  1  0  0  0  0  0999 V2000
   15.2252  -22.4461   -1.0654 N   0  0  0  0  0  0  0  0  0  0  0  0
   15.0174  -23.3336   -2.1998 C   0  0  0  0  0  0  0  0  0  0  0  0
   13.8875  -24.2125   -1.6710 C   0  0  0  0  0  0  0  0  0  0  0  0
   13.0100  -23.2523   -0.8681 C   0  0  0  0  0  0  0  0  0  0  0  0
   13.8725  -22.0441   -0.7341 C   0  0  1  0  0  0  0  0  0  0  0  0
   13.8331  -21.3729    0.5647 C   0  0  0  0  0  0  0  0  0  0  0  0
   12.7098  -20.8598    0.9036 O   0  0  0  0  0  0  0  0  0  0  0  0
   14.9657  -21.2857    1.4136 N   0  0  0  0  0  0  0  0  0  0  0  0
   14.8588  -20.5614    2.6576 C   0  0  1  0  0  0  0  0  0  0  0  0
   14.8458  -21.5915    3.7912 C   0  0  0  0  0  0  0  0  0  0  0  0
   16.5197  -22.1417    4.1726 S   0  0  0  0  0  0  0  0  0  0  0  0
   15.9842  -19.6075    2.8363 C   0  0  0  0  0  0  0  0  0  0  0  0
   17.1411  -19.8661    2.4464 O   0  0  0  0  0  0  0  0  0  0  0  0
   18.8354  -15.1417    2.1458 C   0  0  0  0  0  0  0  0  0  0  0  0
   17.6223  -15.0618    3.0039 C   0  0  1  0  0  0  0  0  0  0  0  0
   16.9588  -13.7115    2.6879 C   0  0  0  0  0  0  0  0  0  0  0  0
   16.6549  -16.1652    2.9718 C   0  0  0  0  0  0  0  0  0  0  0  0
   16.8754  -17.4025    3.7329 C   0  0  2  0  0  0  0  0  0  0  0  0
   15.7691  -18.3575    3.4651 N   0  0  0  0  0  0  0  0  0  0  0  0
   17.1150  -17.3612    5.1564 C   0  0  0  0  0  0  0  0  0  0  0  0
   18.4497  -17.1473    5.5976 O   0  0  0  0  0  0  0  0  0  0  0  0
   16.2779  -17.4930    6.0776 O   0  0  0  0  0  0  0  0  0  0  0  0
  1  5  1  0
  2  3  1  0
  2  1  1  0
  3  4  1  0
  5  4  1  0
  6  8  1  0
  5  6  1  1
  7  6  2  0
  9 10  1  1
  9  8  1  0
 10 11  1  0
 12  9  1  0
 12 19  1  0
 13 12  2  0
 15 16  1  6
 15 14  1  0
 17 15  1  0
 18 19  1  0
 18 17  1  1
 20 21  1  0
 20 18  1  0
 22 20  2  0
M  END
$$$$
