PCL.pdb
     RDKit          3D

 22 22  0  0  1  0  0  0  0  0999 V2000
   17.0056  -24.7947   -8.1033 N   0  0  0  0  0  0  0  0  0  0  0  0
   17.8621  -24.1227   -9.0689 C   0  0  0  0  0  0  0  0  0  0  0  0
   18.7890  -23.3475   -8.1369 C   0  0  0  0  0  0  0  0  0  0  0  0
   19.0151  -24.2955   -6.9594 C   0  0  0  0  0  0  0  0  0  0  0  0
   17.9651  -25.3341   -7.1601 C   0  0  1  0  0  0  0  0  0  0  0  0
   17.2945  -25.8059   -5.9491 C   0  0  0  0  0  0  0  0  0  0  0  0
   16.0184  -25.7010   -5.9305 O   0  0  0  0  0  0  0  0  0  0  0  0
   18.0022  -26.3515   -4.8478 N   0  0  0  0  0  0  0  0  0  0  0  0
   17.2659  -26.7969   -3.6890 C   0  0  1  0  0  0  0  0  0  0  0  0
   16.2891  -27.8820   -4.1524 C   0  0  0  0  0  0  0  0  0  0  0  0
   17.1553  -29.1722   -5.0662 S   0  0  0  0  0  0  0  0  0  0  0  0
   18.1690  -27.3278   -2.6350 C   0  0  0  0  0  0  0  0  0  0  0  0
   19.3733  -27.5710   -2.8543 O   0  0  0  0  0  0  0  0  0  0  0  0
   20.0040  -24.7137    1.7691 C   0  0  0  0  0  0  0  0  0  0  0  0
   20.2930  -25.7655    0.7571 C   0  0  1  0  0  0  0  0  0  0  0  0
   20.7902  -26.9919    1.5395 C   0  0  0  0  0  0  0  0  0  0  0  0
   19.2515  -26.1237   -0.2133 C   0  0  0  0  0  0  0  0  0  0  0  0
   18.5164  -27.3923   -0.1179 C   0  0  2  0  0  0  0  0  0  0  0  0
   17.6777  -27.5759   -1.3307 N   0  0  0  0  0  0  0  0  0  0  0  0
   17.7178  -27.6975    1.0459 C   0  0  0  0  0  0  0  0  0  0  0  0
   18.2809  -28.5569    2.0288 O   0  0  0  0  0  0  0  0  0  0  0  0
   16.5629  -27.2932    1.3092 O   0  0  0  0  0  0  0  0  0  0  0  0
  1  5  1  0
  2  3  1  0
  2  1  1  0
  3  4  1  0
  5  4  1  0
  6  8  1  0
  5  6  1  1
  7  6  2  0
  9 10  1  6
  9  8  1  0
 10 11  1  0
 12  9  1  0
 12 19  1  0
 13 12  2  0
 15 16  1  1
 15 14  1  0
 17 15  1  0
 18 19  1  0
 18 17  1  1
 20 21  1  0
 20 18  1  0
 22 20  2  0
M  END
$$$$
