PCL.pdb
     RDKit          3D

 22 22  0  0  1  0  0  0  0  0999 V2000
   19.2242  -14.7801  -16.3112 N   0  0  0  0  0  0  0  0  0  0  0  0
   19.1168  -16.2077  -16.5726 C   0  0  0  0  0  0  0  0  0  0  0  0
   17.8147  -16.2548  -17.3670 C   0  0  0  0  0  0  0  0  0  0  0  0
   17.8553  -14.9929  -18.2286 C   0  0  0  0  0  0  0  0  0  0  0  0
   18.9623  -14.2053  -17.6159 C   0  0  1  0  0  0  0  0  0  0  0  0
   18.7389  -12.7636  -17.5132 C   0  0  0  0  0  0  0  0  0  0  0  0
   18.6077  -12.1304  -18.6186 O   0  0  0  0  0  0  0  0  0  0  0  0
   18.6690  -12.0887  -16.2680 N   0  0  0  0  0  0  0  0  0  0  0  0
   18.4053  -10.6696  -16.2504 C   0  0  1  0  0  0  0  0  0  0  0  0
   17.0688  -10.4579  -15.5325 C   0  0  0  0  0  0  0  0  0  0  0  0
   16.8033   -8.7098  -15.1809 S   0  0  0  0  0  0  0  0  0  0  0  0
   19.4879   -9.9182  -15.5636 C   0  0  0  0  0  0  0  0  0  0  0  0
   19.8578  -10.1983  -14.4051 O   0  0  0  0  0  0  0  0  0  0  0  0
   23.9397   -8.2297  -18.3358 C   0  0  0  0  0  0  0  0  0  0  0  0
   22.9826   -8.6738  -17.2866 C   0  0  1  0  0  0  0  0  0  0  0  0
   23.7733   -9.5952  -16.3437 C   0  0  0  0  0  0  0  0  0  0  0  0
   22.2195   -7.6618  -16.5463 C   0  0  0  0  0  0  0  0  0  0  0  0
   21.1997   -8.0394  -15.5583 C   0  0  2  0  0  0  0  0  0  0  0  0
   20.1397   -8.8452  -16.2178 N   0  0  0  0  0  0  0  0  0  0  0  0
   20.5701   -7.0398  -14.7277 C   0  0  0  0  0  0  0  0  0  0  0  0
   21.3446   -6.4614  -13.6850 O   0  0  0  0  0  0  0  0  0  0  0  0
   19.3993   -6.6046  -14.8083 O   0  0  0  0  0  0  0  0  0  0  0  0
  1  5  1  0
  2  3  1  0
  2  1  1  0
  3  4  1  0
  5  4  1  0
  6  8  1  0
  5  6  1  1
  7  6  2  0
  9 10  1  1
  9  8  1  0
 10 11  1  0
 12  9  1  0
 12 19  1  0
 13 12  2  0
 15 16  1  1
 15 14  1  0
 17 15  1  0
 18 19  1  0
 18 17  1  6
 20 21  1  0
 20 18  1  0
 22 20  2  0
M  END
$$$$
