PCL.pdb
     RDKit          3D

 22 22  0  0  1  0  0  0  0  0999 V2000
   28.2001  -20.4493  -15.8522 N   0  0  0  0  0  0  0  0  0  0  0  0
   28.6887  -19.3559  -16.6790 C   0  0  0  0  0  0  0  0  0  0  0  0
   27.5989  -18.3133  -16.4460 C   0  0  0  0  0  0  0  0  0  0  0  0
   27.2300  -18.4795  -14.9719 C   0  0  0  0  0  0  0  0  0  0  0  0
   27.8699  -19.7765  -14.6115 C   0  0  1  0  0  0  0  0  0  0  0  0
   27.0897  -20.6517  -13.7373 C   0  0  0  0  0  0  0  0  0  0  0  0
   26.5457  -21.6690  -14.2933 O   0  0  0  0  0  0  0  0  0  0  0  0
   26.9339  -20.4028  -12.3500 N   0  0  0  0  0  0  0  0  0  0  0  0
   25.8505  -21.0379  -11.6383 C   0  0  1  0  0  0  0  0  0  0  0  0
   26.0086  -20.6926  -10.1543 C   0  0  0  0  0  0  0  0  0  0  0  0
   24.5973  -21.2917   -9.2059 S   0  0  0  0  0  0  0  0  0  0  0  0
   24.5257  -20.5862  -12.1377 C   0  0  0  0  0  0  0  0  0  0  0  0
   24.2739  -19.3834  -12.3552 O   0  0  0  0  0  0  0  0  0  0  0  0
   20.9400  -20.7164  -16.2730 C   0  0  0  0  0  0  0  0  0  0  0  0
   20.8077  -21.5977  -15.0814 C   0  0  1  0  0  0  0  0  0  0  0  0
   20.1805  -22.9089  -15.5822 C   0  0  0  0  0  0  0  0  0  0  0  0
   21.9882  -21.8432  -14.2443 C   0  0  0  0  0  0  0  0  0  0  0  0
   22.1887  -21.1353  -12.9725 C   0  0  2  0  0  0  0  0  0  0  0  0
   23.4960  -21.5259  -12.3842 N   0  0  0  0  0  0  0  0  0  0  0  0
   21.1843  -21.1803  -11.9359 C   0  0  0  0  0  0  0  0  0  0  0  0
   21.1656  -22.3158  -11.0804 O   0  0  0  0  0  0  0  0  0  0  0  0
   20.3038  -20.3265  -11.6857 O   0  0  0  0  0  0  0  0  0  0  0  0
  1  5  1  0
  2  3  1  0
  2  1  1  0
  3  4  1  0
  5  4  1  0
  6  8  1  0
  5  6  1  1
  7  6  2  0
  9 10  1  1
  9  8  1  0
 10 11  1  0
 12  9  1  0
 12 19  1  0
 13 12  2  0
 15 16  1  6
 15 14  1  0
 17 15  1  0
 18 19  1  0
 18 17  1  6
 20 21  1  0
 20 18  1  0
 22 20  2  0
M  END
$$$$
