PCL.pdb
     RDKit          3D

 22 22  0  0  1  0  0  0  0  0999 V2000
   27.3621  -21.1370  -14.7119 N   0  0  0  0  0  0  0  0  0  0  0  0
   27.8943  -21.1667  -16.0660 C   0  0  0  0  0  0  0  0  0  0  0  0
   27.5961  -19.7408  -16.5208 C   0  0  0  0  0  0  0  0  0  0  0  0
   27.8436  -18.8905  -15.2749 C   0  0  0  0  0  0  0  0  0  0  0  0
   27.9189  -19.9061  -14.1866 C   0  0  1  0  0  0  0  0  0  0  0  0
   27.2735  -19.5400  -12.9263 C   0  0  0  0  0  0  0  0  0  0  0  0
   27.6142  -18.4134  -12.4216 O   0  0  0  0  0  0  0  0  0  0  0  0
   26.3220  -20.3736  -12.2855 N   0  0  0  0  0  0  0  0  0  0  0  0
   25.6690  -19.9041  -11.0869 C   0  0  1  0  0  0  0  0  0  0  0  0
   24.1751  -20.2138  -11.2243 C   0  0  0  0  0  0  0  0  0  0  0  0
   23.9257  -21.8560  -11.9251 S   0  0  0  0  0  0  0  0  0  0  0  0
   26.2232  -20.5519   -9.8697 C   0  0  0  0  0  0  0  0  0  0  0  0
   26.6045  -21.7402   -9.8660 O   0  0  0  0  0  0  0  0  0  0  0  0
   29.3541  -20.7480   -5.2844 C   0  0  0  0  0  0  0  0  0  0  0  0
   28.1727  -19.8441   -5.3235 C   0  0  1  0  0  0  0  0  0  0  0  0
   28.5577  -18.5959   -4.5129 C   0  0  0  0  0  0  0  0  0  0  0  0
   27.5903  -19.4913   -6.6238 C   0  0  0  0  0  0  0  0  0  0  0  0
   26.7913  -20.4540   -7.3942 C   0  0  2  0  0  0  0  0  0  0  0  0
   26.3353  -19.8243   -8.6605 N   0  0  0  0  0  0  0  0  0  0  0  0
   25.6719  -21.1366   -6.7889 C   0  0  0  0  0  0  0  0  0  0  0  0
   25.9497  -22.2547   -5.9557 O   0  0  0  0  0  0  0  0  0  0  0  0
   24.4557  -20.8648   -6.9057 O   0  0  0  0  0  0  0  0  0  0  0  0
  1  5  1  0
  2  3  1  0
  2  1  1  0
  3  4  1  0
  5  4  1  0
  6  8  1  0
  5  6  1  1
  7  6  2  0
  9 10  1  6
  9  8  1  0
 10 11  1  0
 12  9  1  0
 12 19  1  0
 13 12  2  0
 15 16  1  6
 15 14  1  0
 17 15  1  0
 18 19  1  0
 18 17  1  1
 20 21  1  0
 20 18  1  0
 22 20  2  0
M  END
$$$$
