HSP.pdb
     RDKit          3D

 24 25  0  0  1  0  0  0  0  0999 V2000
   20.0785  -15.5601  -17.3636 N   0  0  0  0  0  0  0  0  0  0  0  0
   19.9314  -14.7568  -16.1783 C   0  0  1  0  0  0  0  0  0  0  0  0
   20.9498  -15.1408  -15.1408 C   0  0  0  0  0  0  0  0  0  0  0  0
   20.7483  -16.5598  -14.7826 C   0  0  0  0  0  0  0  0  0  0  0  0
   19.6513  -17.0615  -14.1156 C   0  0  0  0  0  0  0  0  0  0  0  0
   19.7964  -18.3765  -13.9584 N   0  0  0  0  0  0  0  0  0  0  0  0
   20.9608  -18.7236  -14.5102 C   0  0  0  0  0  0  0  0  0  0  0  0
   21.5615  -17.6165  -15.0233 N   0  0  0  0  0  0  0  0  0  0  0  0
   20.0778  -13.2955  -16.5162 C   0  0  0  0  0  0  0  0  0  0  0  0
   21.2022  -12.8039  -16.7894 O   0  0  0  0  0  0  0  0  0  0  0  0
   17.4965   -9.1933  -17.3977 O   0  0  0  0  0  0  0  0  0  0  0  0
   17.6298  -10.5246  -17.1294 C   0  0  0  0  0  0  0  0  0  0  0  0
   19.0438  -11.0103  -16.8666 C   0  0  2  0  0  0  0  0  0  0  0  0
   18.9563  -12.4486  -16.5330 N   0  0  0  0  0  0  0  0  0  0  0  0
   19.7158  -10.3146  -15.7572 C   0  0  0  0  0  0  0  0  0  0  0  0
   19.5465  -10.8047  -14.5769 O   0  0  0  0  0  0  0  0  0  0  0  0
   20.5245   -9.1753  -15.8500 N   0  0  0  0  0  0  0  0  0  0  0  0
   20.8104   -8.5084  -17.1360 C   0  0  0  0  0  0  0  0  0  0  0  0
   21.8817   -7.5025  -16.8395 C   0  0  0  0  0  0  0  0  0  0  0  0
   22.5133   -8.0351  -15.5718 C   0  0  0  0  0  0  0  0  0  0  0  0
   21.2279   -8.4541  -14.8217 C   0  0  1  0  0  0  0  0  0  0  0  0
   20.5532   -7.1389  -14.5370 C   0  0  0  0  0  0  0  0  0  0  0  0
   20.9067   -6.3719  -13.6332 O   0  0  0  0  0  0  0  0  0  0  0  0
   19.4789   -6.7844  -15.3418 O   0  0  0  0  0  0  0  0  0  0  0  0
  2  1  1  6
  3  2  1  0
  4  3  1  0
  5  4  2  0
  6  7  1  0
  6  5  1  0
  7  8  2  0
  8  4  1  0
  9  2  1  0
  9 10  2  0
 11 12  1  0
 13 12  1  1
 13 14  1  0
 13 15  1  0
 14  9  1  0
 15 17  1  0
 16 15  2  0
 17 21  1  0
 17 18  1  0
 19 18  1  0
 20 19  1  0
 21 20  1  0
 21 22  1  6
 22 23  2  0
 22 24  1  0
M  END
$$$$
