HSP.pdb
     RDKit          3D

 24 25  0  0  1  0  0  0  0  0999 V2000
   26.7906  -22.2750  -13.4991 N   0  0  0  0  0  0  0  0  0  0  0  0
   25.9928  -21.4280  -12.6517 C   0  0  1  0  0  0  0  0  0  0  0  0
   26.7112  -20.1419  -12.3504 C   0  0  0  0  0  0  0  0  0  0  0  0
   27.9800  -20.4586  -11.6632 C   0  0  0  0  0  0  0  0  0  0  0  0
   29.2323  -20.3791  -12.2336 C   0  0  0  0  0  0  0  0  0  0  0  0
   30.1482  -20.7345  -11.3337 N   0  0  0  0  0  0  0  0  0  0  0  0
   29.5076  -21.0386  -10.2032 C   0  0  0  0  0  0  0  0  0  0  0  0
   28.1702  -20.8742  -10.3878 N   0  0  0  0  0  0  0  0  0  0  0  0
   24.6704  -21.1282  -13.3093 C   0  0  0  0  0  0  0  0  0  0  0  0
   24.5961  -20.9146  -14.5459 O   0  0  0  0  0  0  0  0  0  0  0  0
   21.1278  -20.2305  -11.1014 O   0  0  0  0  0  0  0  0  0  0  0  0
   21.1346  -21.2194  -12.0417 C   0  0  0  0  0  0  0  0  0  0  0  0
   22.1428  -21.0598  -13.1653 C   0  0  2  0  0  0  0  0  0  0  0  0
   23.4880  -21.0809  -12.5509 N   0  0  0  0  0  0  0  0  0  0  0  0
   21.9962  -19.8066  -13.9232 C   0  0  0  0  0  0  0  0  0  0  0  0
   22.6781  -18.7941  -13.5087 O   0  0  0  0  0  0  0  0  0  0  0  0
   21.1943  -19.5992  -15.0521 N   0  0  0  0  0  0  0  0  0  0  0  0
   20.4415  -20.6909  -15.7015 C   0  0  0  0  0  0  0  0  0  0  0  0
   19.9203  -20.1147  -16.9837 C   0  0  0  0  0  0  0  0  0  0  0  0
   20.8512  -18.9499  -17.2415 C   0  0  0  0  0  0  0  0  0  0  0  0
   20.9454  -18.3954  -15.8014 C   0  0  1  0  0  0  0  0  0  0  0  0
   19.5544  -17.8832  -15.5397 C   0  0  0  0  0  0  0  0  0  0  0  0
   18.7444  -18.4548  -14.7997 O   0  0  0  0  0  0  0  0  0  0  0  0
   19.1778  -16.7054  -16.1708 O   0  0  0  0  0  0  0  0  0  0  0  0
  2  1  1  6
  3  2  1  0
  4  3  1  0
  5  4  2  0
  6  7  1  0
  6  5  1  0
  7  8  2  0
  8  4  1  0
  9  2  1  0
  9 10  2  0
 11 12  1  0
 13 12  1  1
 13 14  1  0
 13 15  1  0
 14  9  1  0
 15 17  1  0
 16 15  2  0
 17 21  1  0
 17 18  1  0
 19 18  1  0
 20 19  1  0
 21 20  1  0
 21 22  1  1
 22 23  2  0
 22 24  1  0
M  END
$$$$
