HSP.pdb
     RDKit          3D

 24 25  0  0  1  0  0  0  0  0999 V2000
   23.1452  -13.1184  -17.9204 N   0  0  0  0  0  0  0  0  0  0  0  0
   23.3428  -12.3237  -16.7365 C   0  0  1  0  0  0  0  0  0  0  0  0
   24.8070  -12.1780  -16.4269 C   0  0  0  0  0  0  0  0  0  0  0  0
   25.3630  -13.5141  -16.1303 C   0  0  0  0  0  0  0  0  0  0  0  0
   26.2384  -14.2065  -16.9392 C   0  0  0  0  0  0  0  0  0  0  0  0
   26.5341  -15.3736  -16.3687 N   0  0  0  0  0  0  0  0  0  0  0  0
   25.8669  -15.4402  -15.2149 C   0  0  0  0  0  0  0  0  0  0  0  0
   25.1396  -14.3026  -15.0514 N   0  0  0  0  0  0  0  0  0  0  0  0
   22.7236  -10.9612  -16.9128 C   0  0  0  0  0  0  0  0  0  0  0  0
   23.1378  -10.1718  -17.7992 O   0  0  0  0  0  0  0  0  0  0  0  0
   19.3335   -9.8300  -14.5651 O   0  0  0  0  0  0  0  0  0  0  0  0
   19.5778   -9.3653  -15.8246 C   0  0  0  0  0  0  0  0  0  0  0  0
   21.0398   -9.2080  -16.2020 C   0  0  2  0  0  0  0  0  0  0  0  0
   21.6663  -10.5429  -16.0867 N   0  0  0  0  0  0  0  0  0  0  0  0
   21.7791   -8.2702  -15.3418 C   0  0  0  0  0  0  0  0  0  0  0  0
   22.4072   -8.7765  -14.3362 O   0  0  0  0  0  0  0  0  0  0  0  0
   21.8751   -6.8827  -15.5034 N   0  0  0  0  0  0  0  0  0  0  0  0
   21.2469   -6.1708  -16.6343 C   0  0  0  0  0  0  0  0  0  0  0  0
   21.7773   -4.7699  -16.5740 C   0  0  0  0  0  0  0  0  0  0  0  0
   23.0599   -4.9207  -15.7853 C   0  0  0  0  0  0  0  0  0  0  0  0
   22.5601   -5.9032  -14.7011 C   0  0  1  0  0  0  0  0  0  0  0  0
   21.5775   -5.0762  -13.9160 C   0  0  0  0  0  0  0  0  0  0  0  0
   20.3557   -5.1033  -14.1079 O   0  0  0  0  0  0  0  0  0  0  0  0
   22.0875   -4.2449  -12.9281 O   0  0  0  0  0  0  0  0  0  0  0  0
  2  1  1  6
  3  2  1  0
  4  3  1  0
  5  4  2  0
  6  7  1  0
  6  5  1  0
  7  8  2  0
  8  4  1  0
  9  2  1  0
  9 10  2  0
 11 12  1  0
 13 12  1  1
 13 14  1  0
 13 15  1  0
 14  9  1  0
 15 17  1  0
 16 15  2  0
 17 21  1  0
 17 18  1  0
 19 18  1  0
 20 19  1  0
 21 20  1  0
 21 22  1  1
 22 23  2  0
 22 24  1  0
M  END
$$$$
