HSP.pdb
     RDKit          3D

 24 25  0  0  1  0  0  0  0  0999 V2000
   21.3963  -19.9307  -17.5335 N   0  0  0  0  0  0  0  0  0  0  0  0
   21.7033  -19.3488  -16.2533 C   0  0  1  0  0  0  0  0  0  0  0  0
   20.5499  -19.5076  -15.3018 C   0  0  0  0  0  0  0  0  0  0  0  0
   19.4548  -18.6146  -15.7327 C   0  0  0  0  0  0  0  0  0  0  0  0
   19.5201  -17.2381  -15.7655 C   0  0  0  0  0  0  0  0  0  0  0  0
   18.3588  -16.7536  -16.2035 N   0  0  0  0  0  0  0  0  0  0  0  0
   17.5556  -17.7903  -16.4505 C   0  0  0  0  0  0  0  0  0  0  0  0
   18.2144  -18.9456  -16.1659 N   0  0  0  0  0  0  0  0  0  0  0  0
   22.9348  -19.9918  -15.6691 C   0  0  0  0  0  0  0  0  0  0  0  0
   22.8790  -21.1264  -15.1305 O   0  0  0  0  0  0  0  0  0  0  0  0
   27.7214  -19.1983  -14.7876 O   0  0  0  0  0  0  0  0  0  0  0  0
   26.5564  -19.0267  -15.4771 C   0  0  0  0  0  0  0  0  0  0  0  0
   25.3584  -19.8019  -14.9590 C   0  0  2  0  0  0  0  0  0  0  0  0
   24.1760  -19.3340  -15.7144 N   0  0  0  0  0  0  0  0  0  0  0  0
   25.1002  -19.6090  -13.5229 C   0  0  0  0  0  0  0  0  0  0  0  0
   24.3636  -18.6029  -13.1953 O   0  0  0  0  0  0  0  0  0  0  0  0
   25.5689  -20.4077  -12.4728 N   0  0  0  0  0  0  0  0  0  0  0  0
   26.4028  -21.6052  -12.6984 C   0  0  0  0  0  0  0  0  0  0  0  0
   26.4852  -22.2958  -11.3703 C   0  0  0  0  0  0  0  0  0  0  0  0
   25.2710  -21.7728  -10.6341 C   0  0  0  0  0  0  0  0  0  0  0  0
   25.3581  -20.2872  -11.0538 C   0  0  1  0  0  0  0  0  0  0  0  0
   26.6102  -19.8102  -10.3679 C   0  0  0  0  0  0  0  0  0  0  0  0
   27.7007  -19.6951  -10.9405 O   0  0  0  0  0  0  0  0  0  0  0  0
   26.5174  -19.4868   -9.0210 O   0  0  0  0  0  0  0  0  0  0  0  0
  2  1  1  6
  3  2  1  0
  4  3  1  0
  5  4  2  0
  6  7  1  0
  6  5  1  0
  7  8  2  0
  8  4  1  0
  9  2  1  0
  9 10  2  0
 11 12  1  0
 13 12  1  6
 13 14  1  0
 13 15  1  0
 14  9  1  0
 15 17  1  0
 16 15  2  0
 17 21  1  0
 17 18  1  0
 19 18  1  0
 20 19  1  0
 21 20  1  0
 21 22  1  1
 22 23  2  0
 22 24  1  0
M  END
$$$$
