HSP.pdb
     RDKit          3D

 24 25  0  0  1  0  0  0  0  0999 V2000
   24.7125  -21.0062  -10.0877 N   0  0  0  0  0  0  0  0  0  0  0  0
   24.3982  -20.9309  -11.4903 C   0  0  1  0  0  0  0  0  0  0  0  0
   23.1236  -20.1651  -11.7137 C   0  0  0  0  0  0  0  0  0  0  0  0
   21.9915  -20.9775  -11.2231 C   0  0  0  0  0  0  0  0  0  0  0  0
   21.4168  -22.0298  -11.9032 C   0  0  0  0  0  0  0  0  0  0  0  0
   20.4240  -22.5352  -11.1725 N   0  0  0  0  0  0  0  0  0  0  0  0
   20.3534  -21.8287  -10.0426 C   0  0  0  0  0  0  0  0  0  0  0  0
   21.3122  -20.8642  -10.0563 N   0  0  0  0  0  0  0  0  0  0  0  0
   25.5248  -20.2713  -12.2433 C   0  0  0  0  0  0  0  0  0  0  0  0
   26.0217  -19.1872  -11.8455 O   0  0  0  0  0  0  0  0  0  0  0  0
   27.1526  -22.1738  -15.6756 O   0  0  0  0  0  0  0  0  0  0  0  0
   27.8427  -21.2277  -14.9751 C   0  0  0  0  0  0  0  0  0  0  0  0
   27.0030  -20.1604  -14.2967 C   0  0  2  0  0  0  0  0  0  0  0  0
   26.0453  -20.8566  -13.4103 N   0  0  0  0  0  0  0  0  0  0  0  0
   26.2429  -19.3166  -15.2329 C   0  0  0  0  0  0  0  0  0  0  0  0
   25.0419  -19.6939  -15.5109 O   0  0  0  0  0  0  0  0  0  0  0  0
   26.6872  -18.1420  -15.8521 N   0  0  0  0  0  0  0  0  0  0  0  0
   28.0545  -17.6161  -15.6666 C   0  0  0  0  0  0  0  0  0  0  0  0
   28.0494  -16.2511  -16.2864 C   0  0  0  0  0  0  0  0  0  0  0  0
   26.5837  -15.8750  -16.2796 C   0  0  0  0  0  0  0  0  0  0  0  0
   25.9865  -17.2316  -16.7195 C   0  0  1  0  0  0  0  0  0  0  0  0
   26.4661  -17.3729  -18.1393 C   0  0  0  0  0  0  0  0  0  0  0  0
   26.0014  -16.7244  -19.0847 O   0  0  0  0  0  0  0  0  0  0  0  0
   27.4849  -18.2843  -18.3819 O   0  0  0  0  0  0  0  0  0  0  0  0
  2  1  1  1
  3  2  1  0
  4  3  1  0
  5  4  2  0
  6  7  1  0
  6  5  1  0
  7  8  2  0
  8  4  1  0
  9  2  1  0
  9 10  2  0
 11 12  1  0
 13 12  1  6
 13 14  1  0
 13 15  1  0
 14  9  1  0
 15 17  1  0
 16 15  2  0
 17 21  1  0
 17 18  1  0
 19 18  1  0
 20 19  1  0
 21 20  1  0
 21 22  1  6
 22 23  2  0
 22 24  1  0
M  END
$$$$
