HSP.pdb
     RDKit          3D

 24 25  0  0  1  0  0  0  0  0999 V2000
   16.3768  -19.0867    2.6309 N   0  0  0  0  0  0  0  0  0  0  0  0
   16.3893  -19.5922    3.9786 C   0  0  1  0  0  0  0  0  0  0  0  0
   16.8863  -21.0109    4.0142 C   0  0  0  0  0  0  0  0  0  0  0  0
   15.8747  -21.8825    3.3822 C   0  0  0  0  0  0  0  0  0  0  0  0
   14.7896  -22.4358    4.0276 C   0  0  0  0  0  0  0  0  0  0  0  0
   14.0875  -23.1643    3.1609 N   0  0  0  0  0  0  0  0  0  0  0  0
   14.7008  -23.0875    1.9782 C   0  0  0  0  0  0  0  0  0  0  0  0
   15.8045  -22.3015    2.0957 N   0  0  0  0  0  0  0  0  0  0  0  0
   17.2606  -18.7275    4.8527 C   0  0  0  0  0  0  0  0  0  0  0  0
   18.4345  -18.4360    4.5100 O   0  0  0  0  0  0  0  0  0  0  0  0
   17.2005  -15.8109    8.8042 O   0  0  0  0  0  0  0  0  0  0  0  0
   16.6391  -16.7053    7.9399 C   0  0  0  0  0  0  0  0  0  0  0  0
   17.5933  -17.3814    6.9720 C   0  0  2  0  0  0  0  0  0  0  0  0
   16.7773  -18.2271    6.0739 N   0  0  0  0  0  0  0  0  0  0  0  0
   18.6006  -18.2324    7.6257 C   0  0  0  0  0  0  0  0  0  0  0  0
   18.3454  -19.4948    7.6831 O   0  0  0  0  0  0  0  0  0  0  0  0
   19.8118  -17.8141    8.1902 N   0  0  0  0  0  0  0  0  0  0  0  0
   20.2676  -16.4106    8.1390 C   0  0  0  0  0  0  0  0  0  0  0  0
   21.6846  -16.4284    8.6282 C   0  0  0  0  0  0  0  0  0  0  0  0
   22.1114  -17.8615    8.3960 C   0  0  0  0  0  0  0  0  0  0  0  0
   20.8253  -18.5746    8.8735 C   0  0  1  0  0  0  0  0  0  0  0  0
   20.8020  -18.2865   10.3507 C   0  0  0  0  0  0  0  0  0  0  0  0
   20.1577  -17.3588   10.8553 O   0  0  0  0  0  0  0  0  0  0  0  0
   21.5493  -19.1164   11.1755 O   0  0  0  0  0  0  0  0  0  0  0  0
  2  1  1  6
  3  2  1  0
  4  3  1  0
  5  4  2  0
  6  7  1  0
  6  5  1  0
  7  8  2  0
  8  4  1  0
  9  2  1  0
  9 10  2  0
 11 12  1  0
 13 12  1  1
 13 14  1  0
 13 15  1  0
 14  9  1  0
 15 17  1  0
 16 15  2  0
 17 21  1  0
 17 18  1  0
 19 18  1  0
 20 19  1  0
 21 20  1  0
 21 22  1  1
 22 23  2  0
 22 24  1  0
M  END
$$$$
