HSP.pdb
     RDKit          3D

 24 25  0  0  1  0  0  0  0  0999 V2000
   23.7275  -12.2611  -15.8586 N   0  0  0  0  0  0  0  0  0  0  0  0
   23.8547  -10.8365  -16.0205 C   0  0  1  0  0  0  0  0  0  0  0  0
   24.8636  -10.5061  -17.0854 C   0  0  0  0  0  0  0  0  0  0  0  0
   26.1959  -10.9528  -16.6297 C   0  0  0  0  0  0  0  0  0  0  0  0
   27.2170  -10.1193  -16.2264 C   0  0  0  0  0  0  0  0  0  0  0  0
   28.2739  -10.8540  -15.8825 N   0  0  0  0  0  0  0  0  0  0  0  0
   27.9490  -12.1364  -16.0576 C   0  0  0  0  0  0  0  0  0  0  0  0
   26.6717  -12.2164  -16.5178 N   0  0  0  0  0  0  0  0  0  0  0  0
   22.5222  -10.2305  -16.3787 C   0  0  0  0  0  0  0  0  0  0  0  0
   21.6963  -10.8574  -17.0897 O   0  0  0  0  0  0  0  0  0  0  0  0
   19.9085   -9.0501  -14.1009 O   0  0  0  0  0  0  0  0  0  0  0  0
   19.8109   -9.0905  -15.4614 C   0  0  0  0  0  0  0  0  0  0  0  0
   20.8701   -8.3171  -16.2259 C   0  0  2  0  0  0  0  0  0  0  0  0
   22.1737   -8.9472  -15.9238 N   0  0  0  0  0  0  0  0  0  0  0  0
   20.9456   -6.8929  -15.8627 C   0  0  0  0  0  0  0  0  0  0  0  0
   21.7096   -6.5862  -14.8706 O   0  0  0  0  0  0  0  0  0  0  0  0
   20.2756   -5.8328  -16.4855 N   0  0  0  0  0  0  0  0  0  0  0  0
   19.3734   -6.0322  -17.6373 C   0  0  0  0  0  0  0  0  0  0  0  0
   19.0589   -4.6577  -18.1464 C   0  0  0  0  0  0  0  0  0  0  0  0
   20.2102   -3.8254  -17.6252 C   0  0  0  0  0  0  0  0  0  0  0  0
   20.3118   -4.4218  -16.2024 C   0  0  1  0  0  0  0  0  0  0  0  0
   19.0298   -3.9760  -15.5516 C   0  0  0  0  0  0  0  0  0  0  0  0
   18.0368   -4.7036  -15.4306 O   0  0  0  0  0  0  0  0  0  0  0  0
   18.9773   -2.6760  -15.0673 O   0  0  0  0  0  0  0  0  0  0  0  0
  2  1  1  6
  3  2  1  0
  4  3  1  0
  5  4  2  0
  6  7  1  0
  6  5  1  0
  7  8  2  0
  8  4  1  0
  9  2  1  0
  9 10  2  0
 11 12  1  0
 13 12  1  1
 13 14  1  0
 13 15  1  0
 14  9  1  0
 15 17  1  0
 16 15  2  0
 17 21  1  0
 17 18  1  0
 19 18  1  0
 20 19  1  0
 21 20  1  0
 21 22  1  1
 22 23  2  0
 22 24  1  0
M  END
$$$$
