HSP.pdb
     RDKit          3D

 24 25  0  0  1  0  0  0  0  0999 V2000
   21.3283  -12.7349  -17.7801 N   0  0  0  0  0  0  0  0  0  0  0  0
   21.9598  -11.4498  -17.9279 C   0  0  1  0  0  0  0  0  0  0  0  0
   21.9634  -11.0169  -19.3679 C   0  0  0  0  0  0  0  0  0  0  0  0
   22.8511  -11.9182  -20.1306 C   0  0  0  0  0  0  0  0  0  0  0  0
   24.0645  -11.5601  -20.6780 C   0  0  0  0  0  0  0  0  0  0  0  0
   24.5962  -12.6143  -21.2951 N   0  0  0  0  0  0  0  0  0  0  0  0
   23.7491  -13.6356  -21.1532 C   0  0  0  0  0  0  0  0  0  0  0  0
   22.6676  -13.2249  -20.4380 N   0  0  0  0  0  0  0  0  0  0  0  0
   21.2484  -10.4188  -17.0901 C   0  0  0  0  0  0  0  0  0  0  0  0
   20.0534  -10.1067  -17.3246 O   0  0  0  0  0  0  0  0  0  0  0  0
   21.1144   -8.3939  -12.7235 O   0  0  0  0  0  0  0  0  0  0  0  0
   21.5388   -9.2435  -13.7033 C   0  0  0  0  0  0  0  0  0  0  0  0
   21.2361   -8.8170  -15.1284 C   0  0  2  0  0  0  0  0  0  0  0  0
   21.9085   -9.7823  -16.0250 N   0  0  0  0  0  0  0  0  0  0  0  0
   21.7125   -7.4642  -15.4589 C   0  0  0  0  0  0  0  0  0  0  0  0
   22.9292   -7.3618  -15.8726 O   0  0  0  0  0  0  0  0  0  0  0  0
   20.9797   -6.2740  -15.3741 N   0  0  0  0  0  0  0  0  0  0  0  0
   19.5630   -6.2428  -14.9594 C   0  0  0  0  0  0  0  0  0  0  0  0
   19.0944   -4.8444  -15.2283 C   0  0  0  0  0  0  0  0  0  0  0  0
   20.0751   -4.3462  -16.2674 C   0  0  0  0  0  0  0  0  0  0  0  0
   21.3770   -4.9207  -15.6628 C   0  0  1  0  0  0  0  0  0  0  0  0
   21.5419   -4.1315  -14.3917 C   0  0  0  0  0  0  0  0  0  0  0  0
   21.2003   -4.5503  -13.2789 O   0  0  0  0  0  0  0  0  0  0  0  0
   22.1094   -2.8685  -14.4927 O   0  0  0  0  0  0  0  0  0  0  0  0
  2  1  1  6
  3  2  1  0
  4  3  1  0
  5  4  2  0
  6  7  1  0
  6  5  1  0
  7  8  2  0
  8  4  1  0
  9  2  1  0
  9 10  2  0
 11 12  1  0
 13 12  1  1
 13 14  1  0
 13 15  1  0
 14  9  1  0
 15 17  1  0
 16 15  2  0
 17 21  1  0
 17 18  1  0
 19 18  1  0
 20 19  1  0
 21 20  1  0
 21 22  1  1
 22 23  2  0
 22 24  1  0
M  END
$$$$
