HSP.pdb
     RDKit          3D

 24 25  0  0  1  0  0  0  0  0999 V2000
   19.6766  -11.9508  -17.8375 N   0  0  0  0  0  0  0  0  0  0  0  0
   20.8714  -11.1627  -17.6848 C   0  0  1  0  0  0  0  0  0  0  0  0
   21.5140  -10.8997  -19.0185 C   0  0  0  0  0  0  0  0  0  0  0  0
   22.0275  -12.1763  -19.5561 C   0  0  0  0  0  0  0  0  0  0  0  0
   23.3303  -12.6143  -19.4515 C   0  0  0  0  0  0  0  0  0  0  0  0
   23.4435  -13.8017  -20.0452 N   0  0  0  0  0  0  0  0  0  0  0  0
   22.2424  -14.1297  -20.5254 C   0  0  0  0  0  0  0  0  0  0  0  0
   21.3571  -13.1395  -20.2333 N   0  0  0  0  0  0  0  0  0  0  0  0
   20.5512   -9.8542  -17.0092 C   0  0  0  0  0  0  0  0  0  0  0  0
   19.9578   -8.9346  -17.6278 O   0  0  0  0  0  0  0  0  0  0  0  0
   20.7487   -7.5253  -12.6684 O   0  0  0  0  0  0  0  0  0  0  0  0
   20.8840   -8.6104  -13.4847 C   0  0  0  0  0  0  0  0  0  0  0  0
   20.6245   -8.3671  -14.9605 C   0  0  2  0  0  0  0  0  0  0  0  0
   20.9107   -9.6338  -15.6685 N   0  0  0  0  0  0  0  0  0  0  0  0
   21.4613   -7.3070  -15.5453 C   0  0  0  0  0  0  0  0  0  0  0  0
   22.6087   -7.6640  -16.0123 O   0  0  0  0  0  0  0  0  0  0  0  0
   21.1396   -5.9484  -15.6511 N   0  0  0  0  0  0  0  0  0  0  0  0
   19.8385   -5.4050  -15.2127 C   0  0  0  0  0  0  0  0  0  0  0  0
   19.8035   -3.9910  -15.7096 C   0  0  0  0  0  0  0  0  0  0  0  0
   20.8049   -3.9996  -16.8441 C   0  0  0  0  0  0  0  0  0  0  0  0
   21.9101   -4.8540  -16.1813 C   0  0  1  0  0  0  0  0  0  0  0  0
   22.4096   -3.9676  -15.0720 C   0  0  0  0  0  0  0  0  0  0  0  0
   23.1942   -3.0278  -15.2499 O   0  0  0  0  0  0  0  0  0  0  0  0
   21.9549   -4.2337  -13.7875 O   0  0  0  0  0  0  0  0  0  0  0  0
  2  1  1  6
  3  2  1  0
  4  3  1  0
  5  4  2  0
  6  7  1  0
  6  5  1  0
  7  8  2  0
  8  4  1  0
  9  2  1  0
  9 10  2  0
 11 12  1  0
 13 12  1  1
 13 14  1  0
 13 15  1  0
 14  9  1  0
 15 17  1  0
 16 15  2  0
 17 21  1  0
 17 18  1  0
 19 18  1  0
 20 19  1  0
 21 20  1  0
 21 22  1  1
 22 23  2  0
 22 24  1  0
M  END
$$$$
