HSP.pdb
     RDKit          3D

 24 25  0  0  1  0  0  0  0  0999 V2000
   12.6288  -24.1860   -2.2453 N   0  0  0  0  0  0  0  0  0  0  0  0
   13.8589  -23.7030   -1.6747 C   0  0  1  0  0  0  0  0  0  0  0  0
   14.5427  -22.7434   -2.6088 C   0  0  0  0  0  0  0  0  0  0  0  0
   15.0225  -23.4922   -3.7884 C   0  0  0  0  0  0  0  0  0  0  0  0
   16.2293  -24.1531   -3.8714 C   0  0  0  0  0  0  0  0  0  0  0  0
   16.3385  -24.7188   -5.0726 N   0  0  0  0  0  0  0  0  0  0  0  0
   15.2287  -24.4333   -5.7564 C   0  0  0  0  0  0  0  0  0  0  0  0
   14.4060  -23.6778   -4.9805 N   0  0  0  0  0  0  0  0  0  0  0  0
   13.5919  -23.0240   -0.3561 C   0  0  0  0  0  0  0  0  0  0  0  0
   12.7763  -22.0709   -0.2724 O   0  0  0  0  0  0  0  0  0  0  0  0
   14.7354  -23.1342    4.4381 O   0  0  0  0  0  0  0  0  0  0  0  0
   14.7808  -23.6079    3.1592 C   0  0  0  0  0  0  0  0  0  0  0  0
   14.1096  -22.7436    2.1071 C   0  0  2  0  0  0  0  0  0  0  0  0
   14.2515  -23.4435    0.8119 N   0  0  0  0  0  0  0  0  0  0  0  0
   14.6962  -21.4000    1.9776 C   0  0  0  0  0  0  0  0  0  0  0  0
   15.6829  -21.2737    1.1576 O   0  0  0  0  0  0  0  0  0  0  0  0
   14.2917  -20.2408    2.6507 N   0  0  0  0  0  0  0  0  0  0  0  0
   13.1684  -20.2314    3.6091 C   0  0  0  0  0  0  0  0  0  0  0  0
   12.9107  -18.7865    3.9146 C   0  0  0  0  0  0  0  0  0  0  0  0
   13.5058  -18.0705    2.7218 C   0  0  0  0  0  0  0  0  0  0  0  0
   14.8031  -18.8976    2.5689 C   0  0  1  0  0  0  0  0  0  0  0  0
   15.5809  -18.5474    3.8092 C   0  0  0  0  0  0  0  0  0  0  0  0
   15.6023  -19.2545    4.8240 O   0  0  0  0  0  0  0  0  0  0  0  0
   16.3070  -17.3641    3.7954 O   0  0  0  0  0  0  0  0  0  0  0  0
  2  1  1  6
  3  2  1  0
  4  3  1  0
  5  4  2  0
  6  7  1  0
  6  5  1  0
  7  8  2  0
  8  4  1  0
  9  2  1  0
  9 10  2  0
 11 12  1  0
 13 12  1  1
 13 14  1  0
 13 15  1  0
 14  9  1  0
 15 17  1  0
 16 15  2  0
 17 21  1  0
 17 18  1  0
 19 18  1  0
 20 19  1  0
 21 20  1  0
 21 22  1  1
 22 23  2  0
 22 24  1  0
M  END
$$$$
