HSP.pdb
     RDKit          3D

 24 25  0  0  1  0  0  0  0  0999 V2000
   19.1728  -15.0352  -16.6012 N   0  0  0  0  0  0  0  0  0  0  0  0
   18.3912  -13.8456  -16.3868 C   0  0  1  0  0  0  0  0  0  0  0  0
   17.6875  -13.8986  -15.0591 C   0  0  0  0  0  0  0  0  0  0  0  0
   16.6985  -14.9955  -15.0913 C   0  0  0  0  0  0  0  0  0  0  0  0
   15.4244  -14.8998  -15.6086 C   0  0  0  0  0  0  0  0  0  0  0  0
   14.8068  -16.0727  -15.4747 N   0  0  0  0  0  0  0  0  0  0  0  0
   15.6587  -16.9131  -14.8840 C   0  0  0  0  0  0  0  0  0  0  0  0
   16.8300  -16.2663  -14.6402 N   0  0  0  0  0  0  0  0  0  0  0  0
   19.2721  -12.6243  -16.4456 C   0  0  0  0  0  0  0  0  0  0  0  0
   20.2413  -12.4868  -15.6568 O   0  0  0  0  0  0  0  0  0  0  0  0
   20.0879   -8.4722  -18.9703 O   0  0  0  0  0  0  0  0  0  0  0  0
   19.4975   -9.6847  -18.7619 C   0  0  0  0  0  0  0  0  0  0  0  0
   19.8161  -10.3594  -17.4399 C   0  0  2  0  0  0  0  0  0  0  0  0
   19.0276  -11.6097  -17.3869 N   0  0  0  0  0  0  0  0  0  0  0  0
   19.4800   -9.5462  -16.2602 C   0  0  0  0  0  0  0  0  0  0  0  0
   18.3039   -9.7097  -15.7579 O   0  0  0  0  0  0  0  0  0  0  0  0
   20.3070   -8.6136  -15.6223 N   0  0  0  0  0  0  0  0  0  0  0  0
   21.6792   -8.3239  -16.0841 C   0  0  0  0  0  0  0  0  0  0  0  0
   22.2938   -7.4723  -15.0143 C   0  0  0  0  0  0  0  0  0  0  0  0
   21.4563   -7.7926  -13.7953 C   0  0  0  0  0  0  0  0  0  0  0  0
   20.0602   -7.8013  -14.4596 C   0  0  1  0  0  0  0  0  0  0  0  0
   19.8570   -6.3616  -14.8491 C   0  0  0  0  0  0  0  0  0  0  0  0
   19.9762   -5.9445  -16.0077 O   0  0  0  0  0  0  0  0  0  0  0  0
   19.5184   -5.4686  -13.8415 O   0  0  0  0  0  0  0  0  0  0  0  0
  2  1  1  1
  3  2  1  0
  4  3  1  0
  5  4  2  0
  6  7  1  0
  6  5  1  0
  7  8  2  0
  8  4  1  0
  9  2  1  0
  9 10  2  0
 11 12  1  0
 13 12  1  6
 13 14  1  0
 13 15  1  0
 14  9  1  0
 15 17  1  0
 16 15  2  0
 17 21  1  0
 17 18  1  0
 19 18  1  0
 20 19  1  0
 21 20  1  0
 21 22  1  6
 22 23  2  0
 22 24  1  0
M  END
$$$$
