HSP.pdb
     RDKit          3D

 24 25  0  0  1  0  0  0  0  0999 V2000
   27.8123  -20.1061  -17.6170 N   0  0  0  0  0  0  0  0  0  0  0  0
   27.5400  -19.5266  -16.3278 C   0  0  1  0  0  0  0  0  0  0  0  0
   27.1775  -18.0732  -16.4592 C   0  0  0  0  0  0  0  0  0  0  0  0
   28.3304  -17.3479  -17.0310 C   0  0  0  0  0  0  0  0  0  0  0  0
   28.3156  -16.6420  -18.2149 C   0  0  0  0  0  0  0  0  0  0  0  0
   29.5207  -16.1153  -18.4273 N   0  0  0  0  0  0  0  0  0  0  0  0
   30.3026  -16.4696  -17.4056 C   0  0  0  0  0  0  0  0  0  0  0  0
   29.5857  -17.2298  -16.5351 N   0  0  0  0  0  0  0  0  0  0  0  0
   26.4191  -20.2694  -15.6475 C   0  0  0  0  0  0  0  0  0  0  0  0
   25.3718  -20.5745  -16.2725 O   0  0  0  0  0  0  0  0  0  0  0  0
   26.2592  -20.6449  -11.3743 O   0  0  0  0  0  0  0  0  0  0  0  0
   25.9744  -21.6953  -12.1975 C   0  0  0  0  0  0  0  0  0  0  0  0
   25.4367  -21.3354  -13.5708 C   0  0  2  0  0  0  0  0  0  0  0  0
   26.5215  -20.6380  -14.2951 N   0  0  0  0  0  0  0  0  0  0  0  0
   24.2579  -20.4549  -13.5366 C   0  0  0  0  0  0  0  0  0  0  0  0
   24.4796  -19.1930  -13.3937 O   0  0  0  0  0  0  0  0  0  0  0  0
   22.9176  -20.8446  -13.6468 N   0  0  0  0  0  0  0  0  0  0  0  0
   22.5159  -22.2462  -13.8801 C   0  0  0  0  0  0  0  0  0  0  0  0
   21.0460  -22.2017  -14.1715 C   0  0  0  0  0  0  0  0  0  0  0  0
   20.8283  -20.7756  -14.6281 C   0  0  0  0  0  0  0  0  0  0  0  0
   21.7164  -20.0533  -13.5888 C   0  0  1  0  0  0  0  0  0  0  0  0
   20.9868  -20.2868  -12.2931 C   0  0  0  0  0  0  0  0  0  0  0  0
   21.2722  -21.1949  -11.5030 O   0  0  0  0  0  0  0  0  0  0  0  0
   19.9407  -19.4277  -11.9850 O   0  0  0  0  0  0  0  0  0  0  0  0
  2  1  1  6
  3  2  1  0
  4  3  1  0
  5  4  2  0
  6  7  1  0
  6  5  1  0
  7  8  2  0
  8  4  1  0
  9  2  1  0
  9 10  2  0
 11 12  1  0
 13 12  1  1
 13 14  1  0
 13 15  1  0
 14  9  1  0
 15 17  1  0
 16 15  2  0
 17 21  1  0
 17 18  1  0
 19 18  1  0
 20 19  1  0
 21 20  1  0
 21 22  1  1
 22 23  2  0
 22 24  1  0
M  END
$$$$
