KHL.pdb
     RDKit          3D

 28 28  0  0  1  0  0  0  0  0999 V2000
   19.9181  -12.7118  -17.4833 N   0  0  0  0  0  0  0  0  0  0  0  0
   18.9984  -11.6765  -17.9173 C   0  0  1  0  0  0  0  0  0  0  0  0
   17.5977  -12.2046  -18.0779 C   0  0  0  0  0  0  0  0  0  0  0  0
   17.6325  -13.5264  -18.7767 C   0  0  0  0  0  0  0  0  0  0  0  0
   17.0130  -14.6278  -17.9809 C   0  0  0  0  0  0  0  0  0  0  0  0
   17.0369  -15.9356  -18.7565 C   0  0  0  0  0  0  0  0  0  0  0  0
   16.5507  -16.9819  -17.8858 N   0  0  0  0  0  0  0  0  0  0  0  0
   19.0203  -10.5818  -16.9010 C   0  0  0  0  0  0  0  0  0  0  0  0
   18.1935  -10.5237  -15.9820 O   0  0  0  0  0  0  0  0  0  0  0  0
   20.0211   -9.5913  -17.0070 N   0  0  0  0  0  0  0  0  0  0  0  0
   20.1695   -8.4861  -16.0842 C   0  0  1  0  0  0  0  0  0  0  0  0
   21.5801   -8.5553  -15.5370 C   0  0  0  0  0  0  0  0  0  0  0  0
   21.8991   -7.3885  -14.6895 C   0  0  0  0  0  0  0  0  0  0  0  0
   22.6313   -6.3108  -15.1529 C   0  0  0  0  0  0  0  0  0  0  0  0
   22.7548   -5.4199  -14.1622 N   0  0  0  0  0  0  0  0  0  0  0  0
   22.1201   -5.9016  -13.0781 C   0  0  0  0  0  0  0  0  0  0  0  0
   21.6059   -7.1022  -13.4217 N   0  0  0  0  0  0  0  0  0  0  0  0
   19.9074   -7.2255  -16.7931 C   0  0  0  0  0  0  0  0  0  0  0  0
   20.1048   -7.1762  -18.0367 O   0  0  0  0  0  0  0  0  0  0  0  0
   17.3564   -4.0689  -20.0565 C   0  0  0  0  0  0  0  0  0  0  0  0
   17.5865   -3.7998  -18.5847 C   0  0  1  0  0  0  0  0  0  0  0  0
   16.2288   -3.3709  -18.0180 C   0  0  0  0  0  0  0  0  0  0  0  0
   18.0022   -5.0162  -17.8350 C   0  0  0  0  0  0  0  0  0  0  0  0
   19.0905   -4.8218  -16.8269 C   0  0  2  0  0  0  0  0  0  0  0  0
   19.4373   -6.0470  -16.1387 N   0  0  0  0  0  0  0  0  0  0  0  0
   18.9081   -3.6876  -15.9153 C   0  0  0  0  0  0  0  0  0  0  0  0
   19.2654   -2.3907  -16.2561 O   0  0  0  0  0  0  0  0  0  0  0  0
   18.4078   -3.8191  -14.7456 O   0  0  0  0  0  0  0  0  0  0  0  0
  2  1  1  1
  2  3  1  0
  3  4  1  0
  4  5  1  0
  5  6  1  0
  6  7  1  0
  8  2  1  0
  8  9  2  0
 10  8  1  0
 11 10  1  0
 11 12  1  6
 13 17  1  0
 13 12  1  0
 14 13  2  0
 15 14  1  0
 15 16  1  0
 16 17  2  0
 18 11  1  0
 19 18  2  0
 21 20  1  6
 21 22  1  0
 23 21  1  0
 24 23  1  1
 24 25  1  0
 25 18  1  0
 26 24  1  0
 27 26  1  0
 28 26  2  0
M  END
$$$$
