KHL.pdb
     RDKit          3D

 28 28  0  0  1  0  0  0  0  0999 V2000
   28.5384  -26.3981  -16.6503 N   0  0  0  0  0  0  0  0  0  0  0  0
   27.1374  -26.4660  -17.0226 C   0  0  1  0  0  0  0  0  0  0  0  0
   26.7785  -25.4179  -18.0421 C   0  0  0  0  0  0  0  0  0  0  0  0
   27.0023  -24.0555  -17.4673 C   0  0  0  0  0  0  0  0  0  0  0  0
   25.7515  -23.4225  -16.9526 C   0  0  0  0  0  0  0  0  0  0  0  0
   26.0237  -22.0111  -16.4564 C   0  0  0  0  0  0  0  0  0  0  0  0
   24.7716  -21.4443  -16.0087 N   0  0  0  0  0  0  0  0  0  0  0  0
   26.8698  -27.8289  -17.5725 C   0  0  0  0  0  0  0  0  0  0  0  0
   27.6087  -28.3525  -18.4160 O   0  0  0  0  0  0  0  0  0  0  0  0
   25.7349  -28.5273  -17.1049 N   0  0  0  0  0  0  0  0  0  0  0  0
   25.3822  -29.8696  -17.5159 C   0  0  1  0  0  0  0  0  0  0  0  0
   25.1891  -30.6810  -16.2517 C   0  0  0  0  0  0  0  0  0  0  0  0
   26.4528  -31.2919  -15.7918 C   0  0  0  0  0  0  0  0  0  0  0  0
   27.6576  -31.0837  -16.4378 C   0  0  0  0  0  0  0  0  0  0  0  0
   28.6123  -31.7634  -15.7920 N   0  0  0  0  0  0  0  0  0  0  0  0
   28.0474  -32.4002  -14.7501 C   0  0  0  0  0  0  0  0  0  0  0  0
   26.7311  -32.0990  -14.7689 N   0  0  0  0  0  0  0  0  0  0  0  0
   24.1649  -29.8196  -18.3381 C   0  0  0  0  0  0  0  0  0  0  0  0
   23.3156  -28.9169  -18.1107 O   0  0  0  0  0  0  0  0  0  0  0  0
   24.1245  -32.1644  -23.4752 C   0  0  0  0  0  0  0  0  0  0  0  0
   23.5220  -32.1966  -22.0869 C   0  0  1  0  0  0  0  0  0  0  0  0
   24.6738  -32.5393  -21.1360 C   0  0  0  0  0  0  0  0  0  0  0  0
   22.9886  -30.8745  -21.6598 C   0  0  0  0  0  0  0  0  0  0  0  0
   22.6971  -30.7288  -20.1996 C   0  0  2  0  0  0  0  0  0  0  0  0
   23.8953  -30.7489  -19.3879 N   0  0  0  0  0  0  0  0  0  0  0  0
   21.6409  -31.6027  -19.6789 C   0  0  0  0  0  0  0  0  0  0  0  0
   21.8378  -32.4487  -18.5966 O   0  0  0  0  0  0  0  0  0  0  0  0
   20.4683  -31.6431  -20.1881 O   0  0  0  0  0  0  0  0  0  0  0  0
  2  1  1  6
  2  3  1  0
  3  4  1  0
  4  5  1  0
  5  6  1  0
  6  7  1  0
  8  2  1  0
  8  9  2  0
 10  8  1  0
 11 10  1  0
 11 12  1  1
 13 17  1  0
 13 12  1  0
 14 13  2  0
 15 14  1  0
 15 16  1  0
 16 17  2  0
 18 11  1  0
 19 18  2  0
 21 20  1  6
 21 22  1  0
 23 21  1  0
 24 23  1  6
 24 25  1  0
 25 18  1  0
 26 24  1  0
 27 26  1  0
 28 26  2  0
M  END
$$$$
