KHL.pdb
     RDKit          3D

 28 28  0  0  1  0  0  0  0  0999 V2000
   28.1285  -20.5277  -15.3082 N   0  0  0  0  0  0  0  0  0  0  0  0
   28.0510  -19.1917  -14.7469 C   0  0  1  0  0  0  0  0  0  0  0  0
   27.7430  -18.1602  -15.7994 C   0  0  0  0  0  0  0  0  0  0  0  0
   28.6539  -18.3454  -16.9710 C   0  0  0  0  0  0  0  0  0  0  0  0
   28.2845  -19.5150  -17.8229 C   0  0  0  0  0  0  0  0  0  0  0  0
   27.9553  -19.0705  -19.2394 C   0  0  0  0  0  0  0  0  0  0  0  0
   27.5517  -20.2363  -19.9925 N   0  0  0  0  0  0  0  0  0  0  0  0
   26.9851  -19.1902  -13.7002 C   0  0  0  0  0  0  0  0  0  0  0  0
   26.6503  -18.1571  -13.1067 O   0  0  0  0  0  0  0  0  0  0  0  0
   26.3507  -20.4133  -13.3905 N   0  0  0  0  0  0  0  0  0  0  0  0
   25.2865  -20.5519  -12.4192 C   0  0  1  0  0  0  0  0  0  0  0  0
   24.2890  -21.5349  -12.9958 C   0  0  0  0  0  0  0  0  0  0  0  0
   23.4731  -20.9265  -14.0661 C   0  0  0  0  0  0  0  0  0  0  0  0
   22.6670  -19.8237  -13.8509 C   0  0  0  0  0  0  0  0  0  0  0  0
   22.0580  -19.5083  -14.9998 N   0  0  0  0  0  0  0  0  0  0  0  0
   22.4548  -20.3818  -15.9430 C   0  0  0  0  0  0  0  0  0  0  0  0
   23.3169  -21.2371  -15.3524 N   0  0  0  0  0  0  0  0  0  0  0  0
   25.8527  -21.0148  -11.1442 C   0  0  0  0  0  0  0  0  0  0  0  0
   27.0597  -21.3750  -11.1113 O   0  0  0  0  0  0  0  0  0  0  0  0
   28.7325  -21.1932   -7.0548 C   0  0  0  0  0  0  0  0  0  0  0  0
   27.4894  -20.3296   -7.0735 C   0  0  1  0  0  0  0  0  0  0  0  0
   27.9602  -18.9073   -6.7514 C   0  0  0  0  0  0  0  0  0  0  0  0
   26.8445  -20.2776   -8.4137 C   0  0  0  0  0  0  0  0  0  0  0  0
   25.6871  -21.2034   -8.6176 C   0  0  2  0  0  0  0  0  0  0  0  0
   25.0982  -21.0770   -9.9338 N   0  0  0  0  0  0  0  0  0  0  0  0
   24.6882  -21.2078   -7.5440 C   0  0  0  0  0  0  0  0  0  0  0  0
   24.7632  -22.0683   -6.4579 O   0  0  0  0  0  0  0  0  0  0  0  0
   23.6817  -20.4187   -7.5379 O   0  0  0  0  0  0  0  0  0  0  0  0
  2  1  1  6
  2  3  1  0
  3  4  1  0
  4  5  1  0
  5  6  1  0
  6  7  1  0
  8  2  1  0
  8  9  2  0
 10  8  1  0
 11 10  1  0
 11 12  1  6
 13 17  1  0
 13 12  1  0
 14 13  2  0
 15 14  1  0
 15 16  1  0
 16 17  2  0
 18 11  1  0
 19 18  2  0
 21 20  1  6
 21 22  1  0
 23 21  1  0
 24 23  1  1
 24 25  1  0
 25 18  1  0
 26 24  1  0
 27 26  1  0
 28 26  2  0
M  END
$$$$
