KHL.pdb
     RDKit          3D

 28 28  0  0  1  0  0  0  0  0999 V2000
   18.5640  -14.9334  -19.5993 N   0  0  0  0  0  0  0  0  0  0  0  0
   17.8670  -13.9795  -18.7566 C   0  0  1  0  0  0  0  0  0  0  0  0
   17.6011  -14.5365  -17.3834 C   0  0  0  0  0  0  0  0  0  0  0  0
   17.7221  -16.0270  -17.4100 C   0  0  0  0  0  0  0  0  0  0  0  0
   17.5989  -16.6503  -16.0585 C   0  0  0  0  0  0  0  0  0  0  0  0
   17.8918  -18.1412  -16.1214 C   0  0  0  0  0  0  0  0  0  0  0  0
   17.6827  -18.6949  -14.8026 N   0  0  0  0  0  0  0  0  0  0  0  0
   18.7079  -12.7488  -18.6566 C   0  0  0  0  0  0  0  0  0  0  0  0
   19.9412  -12.7877  -18.7514 O   0  0  0  0  0  0  0  0  0  0  0  0
   18.0598  -11.5117  -18.4472 N   0  0  0  0  0  0  0  0  0  0  0  0
   18.7375  -10.2328  -18.4348 C   0  0  1  0  0  0  0  0  0  0  0  0
   17.7101   -9.1860  -18.8124 C   0  0  0  0  0  0  0  0  0  0  0  0
   18.2919   -7.8287  -18.8388 C   0  0  0  0  0  0  0  0  0  0  0  0
   18.8586   -7.2846  -19.9768 C   0  0  0  0  0  0  0  0  0  0  0  0
   19.2953   -6.0527  -19.6900 N   0  0  0  0  0  0  0  0  0  0  0  0
   19.0217   -5.7966  -18.3979 C   0  0  0  0  0  0  0  0  0  0  0  0
   18.4103   -6.8922  -17.8984 N   0  0  0  0  0  0  0  0  0  0  0  0
   19.3065   -9.9999  -17.0998 C   0  0  0  0  0  0  0  0  0  0  0  0
   19.0705  -10.8342  -16.1854 O   0  0  0  0  0  0  0  0  0  0  0  0
   22.0674  -10.1896  -12.9768 C   0  0  0  0  0  0  0  0  0  0  0  0
   22.7749   -9.9651  -14.2960 C   0  0  1  0  0  0  0  0  0  0  0  0
   23.7311  -11.1502  -14.4679 C   0  0  0  0  0  0  0  0  0  0  0  0
   21.8462   -9.9878  -15.4587 C   0  0  0  0  0  0  0  0  0  0  0  0
   20.9739   -8.7832  -15.6212 C   0  0  2  0  0  0  0  0  0  0  0  0
   20.1185   -8.8683  -16.7857 N   0  0  0  0  0  0  0  0  0  0  0  0
   21.6586   -7.4912  -15.5098 C   0  0  0  0  0  0  0  0  0  0  0  0
   21.8569   -6.8537  -14.2933 O   0  0  0  0  0  0  0  0  0  0  0  0
   22.1179   -6.8663  -16.5268 O   0  0  0  0  0  0  0  0  0  0  0  0
  2  1  1  6
  2  3  1  0
  3  4  1  0
  4  5  1  0
  5  6  1  0
  6  7  1  0
  8  2  1  0
  8  9  2  0
 10  8  1  0
 11 10  1  0
 11 12  1  1
 13 17  1  0
 13 12  1  0
 14 13  2  0
 15 14  1  0
 15 16  1  0
 16 17  2  0
 18 11  1  0
 19 18  2  0
 21 20  1  1
 21 22  1  0
 23 21  1  0
 24 23  1  6
 24 25  1  0
 25 18  1  0
 26 24  1  0
 27 26  1  0
 28 26  2  0
M  END
$$$$
