KHL.pdb
     RDKit          3D

 28 28  0  0  1  0  0  0  0  0999 V2000
   23.8270  -19.9566  -17.8074 N   0  0  0  0  0  0  0  0  0  0  0  0
   23.1076  -19.8549  -16.5512 C   0  0  1  0  0  0  0  0  0  0  0  0
   21.7395  -20.4772  -16.6384 C   0  0  0  0  0  0  0  0  0  0  0  0
   20.9009  -19.7199  -17.6183 C   0  0  0  0  0  0  0  0  0  0  0  0
   20.6052  -18.3227  -17.1817 C   0  0  0  0  0  0  0  0  0  0  0  0
   19.7414  -17.6064  -18.2080 C   0  0  0  0  0  0  0  0  0  0  0  0
   19.5237  -16.2545  -17.7450 N   0  0  0  0  0  0  0  0  0  0  0  0
   23.9160  -20.5393  -15.4977 C   0  0  0  0  0  0  0  0  0  0  0  0
   23.4326  -21.4093  -14.7621 O   0  0  0  0  0  0  0  0  0  0  0  0
   25.2711  -20.1705  -15.3501 N   0  0  0  0  0  0  0  0  0  0  0  0
   26.1676  -20.7498  -14.3724 C   0  0  1  0  0  0  0  0  0  0  0  0
   27.5779  -20.4420  -14.8309 C   0  0  0  0  0  0  0  0  0  0  0  0
   28.0784  -21.4514  -15.7858 C   0  0  0  0  0  0  0  0  0  0  0  0
   27.3423  -22.5661  -16.1435 C   0  0  0  0  0  0  0  0  0  0  0  0
   28.0549  -23.2870  -17.0169 N   0  0  0  0  0  0  0  0  0  0  0  0
   29.2272  -22.6608  -17.2259 C   0  0  0  0  0  0  0  0  0  0  0  0
   29.2204  -21.5446  -16.4659 N   0  0  0  0  0  0  0  0  0  0  0  0
   25.8741  -20.1801  -13.0497 C   0  0  0  0  0  0  0  0  0  0  0  0
   25.7677  -18.9295  -12.9375 O   0  0  0  0  0  0  0  0  0  0  0  0
   21.7083  -21.5749  -10.2695 C   0  0  0  0  0  0  0  0  0  0  0  0
   22.9106  -20.8560  -10.8433 C   0  0  1  0  0  0  0  0  0  0  0  0
   22.5518  -19.3661  -10.8389 C   0  0  0  0  0  0  0  0  0  0  0  0
   24.1286  -21.0090  -10.0020 C   0  0  0  0  0  0  0  0  0  0  0  0
   25.3906  -20.4416  -10.5709 C   0  0  2  0  0  0  0  0  0  0  0  0
   25.7025  -20.9783  -11.8784 N   0  0  0  0  0  0  0  0  0  0  0  0
   26.5439  -20.4400   -9.6651 C   0  0  0  0  0  0  0  0  0  0  0  0
   26.5139  -19.8301   -8.4190 O   0  0  0  0  0  0  0  0  0  0  0  0
   27.6539  -21.0006   -9.9641 O   0  0  0  0  0  0  0  0  0  0  0  0
  2  1  1  6
  2  3  1  0
  3  4  1  0
  4  5  1  0
  5  6  1  0
  6  7  1  0
  8  2  1  0
  8  9  2  0
 10  8  1  0
 11 10  1  0
 11 12  1  6
 13 17  1  0
 13 12  1  0
 14 13  2  0
 15 14  1  0
 15 16  1  0
 16 17  2  0
 18 11  1  0
 19 18  2  0
 21 20  1  1
 21 22  1  0
 23 21  1  0
 24 23  1  1
 24 25  1  0
 25 18  1  0
 26 24  1  0
 27 26  1  0
 28 26  2  0
M  END
$$$$
