KHL.pdb
     RDKit          3D

 28 28  0  0  1  0  0  0  0  0999 V2000
   28.0238  -23.4330  -17.6573 N   0  0  0  0  0  0  0  0  0  0  0  0
   29.0880  -22.7868  -16.9119 C   0  0  1  0  0  0  0  0  0  0  0  0
   30.2524  -22.4286  -17.7965 C   0  0  0  0  0  0  0  0  0  0  0  0
   30.4214  -23.4699  -18.8566 C   0  0  0  0  0  0  0  0  0  0  0  0
   29.2163  -23.6250  -19.7249 C   0  0  0  0  0  0  0  0  0  0  0  0
   29.4755  -24.6304  -20.8359 C   0  0  0  0  0  0  0  0  0  0  0  0
   28.2356  -24.8398  -21.5490 N   0  0  0  0  0  0  0  0  0  0  0  0
   28.5280  -21.5556  -16.2778 C   0  0  0  0  0  0  0  0  0  0  0  0
   29.2378  -20.7619  -15.6470 O   0  0  0  0  0  0  0  0  0  0  0  0
   27.1448  -21.3048  -16.4117 N   0  0  0  0  0  0  0  0  0  0  0  0
   26.4600  -20.1865  -15.7988 C   0  0  1  0  0  0  0  0  0  0  0  0
   25.8503  -19.3739  -16.9221 C   0  0  0  0  0  0  0  0  0  0  0  0
   25.1459  -18.1783  -16.4163 C   0  0  0  0  0  0  0  0  0  0  0  0
   25.0871  -17.8634  -15.0711 C   0  0  0  0  0  0  0  0  0  0  0  0
   24.3857  -16.7330  -14.9267 N   0  0  0  0  0  0  0  0  0  0  0  0
   23.9952  -16.3185  -16.1456 C   0  0  0  0  0  0  0  0  0  0  0  0
   24.4692  -17.2138  -17.0386 N   0  0  0  0  0  0  0  0  0  0  0  0
   25.4462  -20.6940  -14.8634 C   0  0  0  0  0  0  0  0  0  0  0  0
   24.6655  -21.6045  -15.2498 O   0  0  0  0  0  0  0  0  0  0  0  0
   26.3741  -20.1762   -9.3329 C   0  0  0  0  0  0  0  0  0  0  0  0
   26.0749  -20.6639  -10.7344 C   0  0  1  0  0  0  0  0  0  0  0  0
   26.2002  -22.1903  -10.6846 C   0  0  0  0  0  0  0  0  0  0  0  0
   24.6835  -20.3589  -11.1654 C   0  0  0  0  0  0  0  0  0  0  0  0
   24.3431  -20.7205  -12.5767 C   0  0  2  0  0  0  0  0  0  0  0  0
   25.3012  -20.2034  -13.5305 N   0  0  0  0  0  0  0  0  0  0  0  0
   22.9532  -20.4710  -12.9722 C   0  0  0  0  0  0  0  0  0  0  0  0
   21.9211  -21.3468  -12.6665 O   0  0  0  0  0  0  0  0  0  0  0  0
   22.6004  -19.4295  -13.6254 O   0  0  0  0  0  0  0  0  0  0  0  0
  2  1  1  6
  2  3  1  0
  3  4  1  0
  4  5  1  0
  5  6  1  0
  6  7  1  0
  8  2  1  0
  8  9  2  0
 10  8  1  0
 11 10  1  0
 11 12  1  6
 13 17  1  0
 13 12  1  0
 14 13  2  0
 15 14  1  0
 15 16  1  0
 16 17  2  0
 18 11  1  0
 19 18  2  0
 21 20  1  1
 21 22  1  0
 23 21  1  0
 24 23  1  1
 24 25  1  0
 25 18  1  0
 26 24  1  0
 27 26  1  0
 28 26  2  0
M  END
$$$$
