KHL.pdb
     RDKit          3D

 28 28  0  0  1  0  0  0  0  0999 V2000
   31.5857  -28.5207  -20.8950 N   0  0  0  0  0  0  0  0  0  0  0  0
   31.3265  -29.8086  -20.2784 C   0  0  1  0  0  0  0  0  0  0  0  0
   32.1548  -30.0110  -19.0376 C   0  0  0  0  0  0  0  0  0  0  0  0
   33.6004  -30.1165  -19.4061 C   0  0  0  0  0  0  0  0  0  0  0  0
   34.4613  -30.5831  -18.2785 C   0  0  0  0  0  0  0  0  0  0  0  0
   35.9100  -30.7141  -18.7219 C   0  0  0  0  0  0  0  0  0  0  0  0
   36.6857  -31.1682  -17.5899 N   0  0  0  0  0  0  0  0  0  0  0  0
   29.8728  -29.8766  -19.9412 C   0  0  0  0  0  0  0  0  0  0  0  0
   29.3913  -30.8210  -19.3025 O   0  0  0  0  0  0  0  0  0  0  0  0
   29.0367  -28.8232  -20.3720 N   0  0  0  0  0  0  0  0  0  0  0  0
   27.6302  -28.7190  -20.0464 C   0  0  1  0  0  0  0  0  0  0  0  0
   27.3972  -27.3086  -19.5458 C   0  0  0  0  0  0  0  0  0  0  0  0
   27.9615  -27.1037  -18.1964 C   0  0  0  0  0  0  0  0  0  0  0  0
   27.3669  -27.6128  -17.0565 C   0  0  0  0  0  0  0  0  0  0  0  0
   28.1050  -27.2635  -15.9965 N   0  0  0  0  0  0  0  0  0  0  0  0
   29.1558  -26.5443  -16.4308 C   0  0  0  0  0  0  0  0  0  0  0  0
   29.0487  -26.4592  -17.7744 N   0  0  0  0  0  0  0  0  0  0  0  0
   26.8329  -29.0252  -21.2425 C   0  0  0  0  0  0  0  0  0  0  0  0
   27.1910  -28.5434  -22.3504 O   0  0  0  0  0  0  0  0  0  0  0  0
   24.6898  -33.9719  -22.2653 C   0  0  0  0  0  0  0  0  0  0  0  0
   25.3093  -32.5911  -22.2960 C   0  0  1  0  0  0  0  0  0  0  0  0
   26.1336  -32.5281  -23.5863 C   0  0  0  0  0  0  0  0  0  0  0  0
   24.2939  -31.5062  -22.3791 C   0  0  0  0  0  0  0  0  0  0  0  0
   24.8285  -30.1090  -22.3625 C   0  0  2  0  0  0  0  0  0  0  0  0
   25.6656  -29.8467  -21.2112 N   0  0  0  0  0  0  0  0  0  0  0  0
   23.8381  -29.0538  -22.5996 C   0  0  0  0  0  0  0  0  0  0  0  0
   23.6108  -28.0262  -21.6951 O   0  0  0  0  0  0  0  0  0  0  0  0
   23.1181  -29.0111  -23.6558 O   0  0  0  0  0  0  0  0  0  0  0  0
  2  1  1  1
  2  3  1  0
  3  4  1  0
  4  5  1  0
  5  6  1  0
  6  7  1  0
  8  2  1  0
  8  9  2  0
 10  8  1  0
 11 10  1  0
 11 12  1  6
 13 17  1  0
 13 12  1  0
 14 13  2  0
 15 14  1  0
 15 16  1  0
 16 17  2  0
 18 11  1  0
 19 18  2  0
 21 20  1  6
 21 22  1  0
 23 21  1  0
 24 23  1  1
 24 25  1  0
 25 18  1  0
 26 24  1  0
 27 26  1  0
 28 26  2  0
M  END
$$$$
