KHL.pdb
     RDKit          3D

 28 28  0  0  1  0  0  0  0  0999 V2000
   25.6071  -20.4011  -19.0186 N   0  0  0  0  0  0  0  0  0  0  0  0
   26.0515  -20.2464  -17.6458 C   0  0  1  0  0  0  0  0  0  0  0  0
   27.2903  -19.3960  -17.5518 C   0  0  0  0  0  0  0  0  0  0  0  0
   28.4927  -20.2703  -17.3885 C   0  0  0  0  0  0  0  0  0  0  0  0
   28.5882  -21.3377  -18.4285 C   0  0  0  0  0  0  0  0  0  0  0  0
   29.8403  -22.1773  -18.2291 C   0  0  0  0  0  0  0  0  0  0  0  0
   29.4372  -23.5594  -18.0999 N   0  0  0  0  0  0  0  0  0  0  0  0
   24.9404  -19.6216  -16.8669 C   0  0  0  0  0  0  0  0  0  0  0  0
   24.6853  -18.4129  -16.9426 O   0  0  0  0  0  0  0  0  0  0  0  0
   24.1677  -20.4494  -16.0232 N   0  0  0  0  0  0  0  0  0  0  0  0
   22.9874  -20.0065  -15.3118 C   0  0  1  0  0  0  0  0  0  0  0  0
   21.8209  -20.1380  -16.2688 C   0  0  0  0  0  0  0  0  0  0  0  0
   21.7321  -18.9863  -17.1892 C   0  0  0  0  0  0  0  0  0  0  0  0
   22.0290  -19.0862  -18.5361 C   0  0  0  0  0  0  0  0  0  0  0  0
   21.8573  -17.8860  -19.1021 N   0  0  0  0  0  0  0  0  0  0  0  0
   21.4583  -17.0224  -18.1508 C   0  0  0  0  0  0  0  0  0  0  0  0
   21.3886  -17.7140  -16.9929 N   0  0  0  0  0  0  0  0  0  0  0  0
   22.8140  -20.8270  -14.1048 C   0  0  0  0  0  0  0  0  0  0  0  0
   22.8709  -22.0814  -14.2102 O   0  0  0  0  0  0  0  0  0  0  0  0
   25.5770  -20.0046   -9.7856 C   0  0  0  0  0  0  0  0  0  0  0  0
   24.7260  -20.5931  -10.8904 C   0  0  1  0  0  0  0  0  0  0  0  0
   25.2506  -22.0155  -11.1136 C   0  0  0  0  0  0  0  0  0  0  0  0
   23.2926  -20.7166  -10.5095 C   0  0  0  0  0  0  0  0  0  0  0  0
   22.3492  -21.0578  -11.6193 C   0  0  2  0  0  0  0  0  0  0  0  0
   22.5828  -20.2698  -12.8108 N   0  0  0  0  0  0  0  0  0  0  0  0
   20.9327  -21.1185  -11.2445 C   0  0  0  0  0  0  0  0  0  0  0  0
   19.9660  -20.3267  -11.8480 O   0  0  0  0  0  0  0  0  0  0  0  0
   20.4948  -21.9053  -10.3362 O   0  0  0  0  0  0  0  0  0  0  0  0
  2  1  1  6
  2  3  1  0
  3  4  1  0
  4  5  1  0
  5  6  1  0
  6  7  1  0
  8  2  1  0
  8  9  2  0
 10  8  1  0
 11 10  1  0
 11 12  1  6
 13 17  1  0
 13 12  1  0
 14 13  2  0
 15 14  1  0
 15 16  1  0
 16 17  2  0
 18 11  1  0
 19 18  2  0
 21 20  1  1
 21 22  1  0
 23 21  1  0
 24 23  1  1
 24 25  1  0
 25 18  1  0
 26 24  1  0
 27 26  1  0
 28 26  2  0
M  END
$$$$
