KHL.pdb
     RDKit          3D

 28 28  0  0  1  0  0  0  0  0999 V2000
   23.0239  -37.5017   -8.6708 N   0  0  0  0  0  0  0  0  0  0  0  0
   23.7020  -38.2060   -7.5984 C   0  0  1  0  0  0  0  0  0  0  0  0
   25.0705  -38.6752   -8.0153 C   0  0  0  0  0  0  0  0  0  0  0  0
   24.9438  -39.7607   -9.0363 C   0  0  0  0  0  0  0  0  0  0  0  0
   25.6360  -39.4424  -10.3207 C   0  0  0  0  0  0  0  0  0  0  0  0
   25.5204  -40.6007  -11.2993 C   0  0  0  0  0  0  0  0  0  0  0  0
   26.1040  -40.1862  -12.5551 N   0  0  0  0  0  0  0  0  0  0  0  0
   23.8110  -37.2793   -6.4318 C   0  0  0  0  0  0  0  0  0  0  0  0
   23.9331  -36.0561   -6.5752 O   0  0  0  0  0  0  0  0  0  0  0  0
   23.7719  -37.8322   -5.1330 N   0  0  0  0  0  0  0  0  0  0  0  0
   23.7971  -37.0482   -3.9165 C   0  0  1  0  0  0  0  0  0  0  0  0
   23.6491  -38.0190   -2.7635 C   0  0  0  0  0  0  0  0  0  0  0  0
   23.4800  -37.3194   -1.4738 C   0  0  0  0  0  0  0  0  0  0  0  0
   23.4771  -35.9404   -1.3706 C   0  0  0  0  0  0  0  0  0  0  0  0
   23.3063  -35.6080   -0.0858 N   0  0  0  0  0  0  0  0  0  0  0  0
   23.2001  -36.7398    0.6339 C   0  0  0  0  0  0  0  0  0  0  0  0
   23.3088  -37.7706   -0.2318 N   0  0  0  0  0  0  0  0  0  0  0  0
   25.0574  -36.2945   -3.8529 C   0  0  0  0  0  0  0  0  0  0  0  0
   26.0641  -36.7427   -4.4641 O   0  0  0  0  0  0  0  0  0  0  0  0
   27.4937  -33.5419   -6.8635 C   0  0  0  0  0  0  0  0  0  0  0  0
   27.5425  -34.1058   -5.4595 C   0  0  1  0  0  0  0  0  0  0  0  0
   28.8757  -33.6396   -4.8648 C   0  0  0  0  0  0  0  0  0  0  0  0
   26.4670  -33.5652   -4.5842 C   0  0  0  0  0  0  0  0  0  0  0  0
   26.3459  -34.1964   -3.2332 C   0  0  2  0  0  0  0  0  0  0  0  0
   25.1983  -35.0722   -3.1287 N   0  0  0  0  0  0  0  0  0  0  0  0
   26.4674  -33.2777   -2.0966 C   0  0  0  0  0  0  0  0  0  0  0  0
   27.6902  -32.7887   -1.6592 O   0  0  0  0  0  0  0  0  0  0  0  0
   25.4542  -32.8667   -1.4331 O   0  0  0  0  0  0  0  0  0  0  0  0
  2  1  1  6
  2  3  1  0
  3  4  1  0
  4  5  1  0
  5  6  1  0
  6  7  1  0
  8  2  1  0
  8  9  2  0
 10  8  1  0
 11 10  1  0
 11 12  1  1
 13 17  1  0
 13 12  1  0
 14 13  2  0
 15 14  1  0
 15 16  1  0
 16 17  2  0
 18 11  1  0
 19 18  2  0
 21 20  1  6
 21 22  1  0
 23 21  1  0
 24 23  1  6
 24 25  1  0
 25 18  1  0
 26 24  1  0
 27 26  1  0
 28 26  2  0
M  END
$$$$
