KHL.pdb
     RDKit          3D

 28 28  0  0  1  0  0  0  0  0999 V2000
   19.3861  -13.9860  -19.4992 N   0  0  0  0  0  0  0  0  0  0  0  0
   19.1036  -12.5659  -19.5970 C   0  0  1  0  0  0  0  0  0  0  0  0
   17.7023  -12.2427  -19.1515 C   0  0  0  0  0  0  0  0  0  0  0  0
   16.9314  -13.5082  -18.9488 C   0  0  0  0  0  0  0  0  0  0  0  0
   15.5045  -13.2732  -18.5760 C   0  0  0  0  0  0  0  0  0  0  0  0
   14.7322  -14.5826  -18.5387 C   0  0  0  0  0  0  0  0  0  0  0  0
   13.3515  -14.2800  -18.2362 N   0  0  0  0  0  0  0  0  0  0  0  0
   20.0927  -11.8372  -18.7471 C   0  0  0  0  0  0  0  0  0  0  0  0
   20.0455  -11.8705  -17.5109 O   0  0  0  0  0  0  0  0  0  0  0  0
   21.1058  -11.0924  -19.3899 N   0  0  0  0  0  0  0  0  0  0  0  0
   22.0606  -10.2544  -18.6961 C   0  0  1  0  0  0  0  0  0  0  0  0
   23.0314   -9.7374  -19.7374 C   0  0  0  0  0  0  0  0  0  0  0  0
   24.1251   -8.9536  -19.1284 C   0  0  0  0  0  0  0  0  0  0  0  0
   24.2039   -8.7193  -17.7678 C   0  0  0  0  0  0  0  0  0  0  0  0
   25.2955   -7.9853  -17.5227 N   0  0  0  0  0  0  0  0  0  0  0  0
   25.9156   -7.7451  -18.6922 C   0  0  0  0  0  0  0  0  0  0  0  0
   25.1853   -8.3442  -19.6574 N   0  0  0  0  0  0  0  0  0  0  0  0
   21.3440   -9.1678  -18.0133 C   0  0  0  0  0  0  0  0  0  0  0  0
   20.3210   -8.6770  -18.5615 O   0  0  0  0  0  0  0  0  0  0  0  0
   19.5525   -8.7047  -13.0048 C   0  0  0  0  0  0  0  0  0  0  0  0
   19.9935   -9.0823  -14.4027 C   0  0  1  0  0  0  0  0  0  0  0  0
   19.0476  -10.1999  -14.8551 C   0  0  0  0  0  0  0  0  0  0  0  0
   19.8401   -7.9668  -15.3759 C   0  0  0  0  0  0  0  0  0  0  0  0
   21.0882   -7.5399  -16.0817 C   0  0  2  0  0  0  0  0  0  0  0  0
   21.7520   -8.6377  -16.7521 N   0  0  0  0  0  0  0  0  0  0  0  0
   22.0074   -6.7152  -15.2908 C   0  0  0  0  0  0  0  0  0  0  0  0
   23.3149   -7.0980  -15.0267 O   0  0  0  0  0  0  0  0  0  0  0  0
   21.6645   -5.5886  -14.7919 O   0  0  0  0  0  0  0  0  0  0  0  0
  2  1  1  1
  2  3  1  0
  3  4  1  0
  4  5  1  0
  5  6  1  0
  6  7  1  0
  8  2  1  0
  8  9  2  0
 10  8  1  0
 11 10  1  0
 11 12  1  6
 13 17  1  0
 13 12  1  0
 14 13  2  0
 15 14  1  0
 15 16  1  0
 16 17  2  0
 18 11  1  0
 19 18  2  0
 21 20  1  1
 21 22  1  0
 23 21  1  0
 24 23  1  1
 24 25  1  0
 25 18  1  0
 26 24  1  0
 27 26  1  0
 28 26  2  0
M  END
$$$$
