KHL.pdb
     RDKit          3D

 28 28  0  0  1  0  0  0  0  0999 V2000
   25.5859  -24.0618  -18.5529 N   0  0  0  0  0  0  0  0  0  0  0  0
   24.5635  -23.1177  -18.1414 C   0  0  1  0  0  0  0  0  0  0  0  0
   23.2318  -23.7896  -17.9371 C   0  0  0  0  0  0  0  0  0  0  0  0
   23.3496  -25.2491  -18.2417 C   0  0  0  0  0  0  0  0  0  0  0  0
   23.4464  -26.0986  -17.0172 C   0  0  0  0  0  0  0  0  0  0  0  0
   22.1597  -26.8784  -16.7963 C   0  0  0  0  0  0  0  0  0  0  0  0
   22.3356  -27.7114  -15.6282 N   0  0  0  0  0  0  0  0  0  0  0  0
   25.0128  -22.4730  -16.8709 C   0  0  0  0  0  0  0  0  0  0  0  0
   25.7250  -23.0661  -16.0508 O   0  0  0  0  0  0  0  0  0  0  0  0
   24.6032  -21.1463  -16.6134 N   0  0  0  0  0  0  0  0  0  0  0  0
   25.0827  -20.3502  -15.5037 C   0  0  1  0  0  0  0  0  0  0  0  0
   25.0152  -18.9012  -15.9393 C   0  0  0  0  0  0  0  0  0  0  0  0
   26.2610  -18.4681  -16.6039 C   0  0  0  0  0  0  0  0  0  0  0  0
   27.3961  -19.2570  -16.6428 C   0  0  0  0  0  0  0  0  0  0  0  0
   28.3520  -18.5985  -17.3084 N   0  0  0  0  0  0  0  0  0  0  0  0
   27.8560  -17.4092  -17.6952 C   0  0  0  0  0  0  0  0  0  0  0  0
   26.5805  -17.3507  -17.2555 N   0  0  0  0  0  0  0  0  0  0  0  0
   24.2504  -20.6169  -14.3220 C   0  0  0  0  0  0  0  0  0  0  0  0
   23.1488  -21.2088  -14.4765 O   0  0  0  0  0  0  0  0  0  0  0  0
   26.3776  -20.0203   -8.9775 C   0  0  0  0  0  0  0  0  0  0  0  0
   25.6807  -20.6794  -10.1486 C   0  0  1  0  0  0  0  0  0  0  0  0
   25.2293  -22.0560   -9.6492 C   0  0  0  0  0  0  0  0  0  0  0  0
   24.4545  -19.9509  -10.5732 C   0  0  0  0  0  0  0  0  0  0  0  0
   23.8051  -20.4418  -11.8284 C   0  0  2  0  0  0  0  0  0  0  0  0
   24.6306  -20.2362  -12.9995 N   0  0  0  0  0  0  0  0  0  0  0  0
   22.4166  -20.0137  -12.0272 C   0  0  0  0  0  0  0  0  0  0  0  0
   21.3366  -20.7266  -11.5262 O   0  0  0  0  0  0  0  0  0  0  0  0
   22.1095  -18.9552  -12.6759 O   0  0  0  0  0  0  0  0  0  0  0  0
  2  1  1  1
  2  3  1  0
  3  4  1  0
  4  5  1  0
  5  6  1  0
  6  7  1  0
  8  2  1  0
  8  9  2  0
 10  8  1  0
 11 10  1  0
 11 12  1  6
 13 17  1  0
 13 12  1  0
 14 13  2  0
 15 14  1  0
 15 16  1  0
 16 17  2  0
 18 11  1  0
 19 18  2  0
 21 20  1  1
 21 22  1  0
 23 21  1  0
 24 23  1  1
 24 25  1  0
 25 18  1  0
 26 24  1  0
 27 26  1  0
 28 26  2  0
M  END
$$$$
