KHL.pdb
     RDKit          3D

 28 28  0  0  1  0  0  0  0  0999 V2000
   23.0082  -19.2451  -17.8459 N   0  0  0  0  0  0  0  0  0  0  0  0
   22.1522  -20.0034  -16.9525 C   0  0  1  0  0  0  0  0  0  0  0  0
   21.1665  -20.8528  -17.7099 C   0  0  0  0  0  0  0  0  0  0  0  0
   20.6900  -20.1164  -18.9212 C   0  0  0  0  0  0  0  0  0  0  0  0
   19.3761  -19.4369  -18.7163 C   0  0  0  0  0  0  0  0  0  0  0  0
   18.9495  -18.6933  -19.9723 C   0  0  0  0  0  0  0  0  0  0  0  0
   17.6746  -18.0648  -19.7097 N   0  0  0  0  0  0  0  0  0  0  0  0
   23.0226  -20.8663  -16.0985 C   0  0  0  0  0  0  0  0  0  0  0  0
   22.7224  -22.0359  -15.8271 O   0  0  0  0  0  0  0  0  0  0  0  0
   24.2207  -20.3151  -15.5934 N   0  0  0  0  0  0  0  0  0  0  0  0
   25.1066  -21.0017  -14.6775 C   0  0  1  0  0  0  0  0  0  0  0  0
   26.4583  -21.0902  -15.3550 C   0  0  0  0  0  0  0  0  0  0  0  0
   26.5275  -22.2247  -16.2981 C   0  0  0  0  0  0  0  0  0  0  0  0
   26.4997  -22.0540  -17.6701 C   0  0  0  0  0  0  0  0  0  0  0  0
   26.5774  -23.2563  -18.2524 N   0  0  0  0  0  0  0  0  0  0  0  0
   26.6541  -24.1901  -17.2869 C   0  0  0  0  0  0  0  0  0  0  0  0
   26.6221  -23.5395  -16.1039 N   0  0  0  0  0  0  0  0  0  0  0  0
   25.1649  -20.2572  -13.4115 C   0  0  0  0  0  0  0  0  0  0  0  0
   24.9322  -19.0189  -13.4243 O   0  0  0  0  0  0  0  0  0  0  0  0
   22.3710  -20.5389   -9.1925 C   0  0  0  0  0  0  0  0  0  0  0  0
   22.9151  -20.3848  -10.5966 C   0  0  1  0  0  0  0  0  0  0  0  0
   21.8098  -19.6943  -11.4028 C   0  0  0  0  0  0  0  0  0  0  0  0
   24.1103  -19.5001  -10.6572 C   0  0  0  0  0  0  0  0  0  0  0  0
   25.4197  -20.1865  -10.8863 C   0  0  2  0  0  0  0  0  0  0  0  0
   25.4739  -20.8714  -12.1603 N   0  0  0  0  0  0  0  0  0  0  0  0
   25.9001  -21.0126   -9.7739 C   0  0  0  0  0  0  0  0  0  0  0  0
   26.0237  -20.5247   -8.4806 O   0  0  0  0  0  0  0  0  0  0  0  0
   26.2371  -22.2374   -9.9223 O   0  0  0  0  0  0  0  0  0  0  0  0
  2  1  1  6
  2  3  1  0
  3  4  1  0
  4  5  1  0
  5  6  1  0
  6  7  1  0
  8  2  1  0
  8  9  2  0
 10  8  1  0
 11 10  1  0
 11 12  1  6
 13 17  1  0
 13 12  1  0
 14 13  2  0
 15 14  1  0
 15 16  1  0
 16 17  2  0
 18 11  1  0
 19 18  2  0
 21 20  1  1
 21 22  1  0
 23 21  1  0
 24 23  1  1
 24 25  1  0
 25 18  1  0
 26 24  1  0
 27 26  1  0
 28 26  2  0
M  END
$$$$
