KHL.pdb
     RDKit          3D

 28 28  0  0  1  0  0  0  0  0999 V2000
  -33.1763  -42.8077 -147.6743 N   0  0  0  0  0  0  0  0  0  0  0  0
  -31.8841  -42.1595 -147.8008 C   0  0  1  0  0  0  0  0  0  0  0  0
  -31.5271  -41.3786 -146.5642 C   0  0  0  0  0  0  0  0  0  0  0  0
  -32.2865  -40.0903 -146.5427 C   0  0  0  0  0  0  0  0  0  0  0  0
  -32.5481  -39.5400 -147.9061 C   0  0  0  0  0  0  0  0  0  0  0  0
  -33.1136  -40.6128 -148.8235 C   0  0  0  0  0  0  0  0  0  0  0  0
  -32.1056  -40.9381 -149.8072 N   0  0  0  0  0  0  0  0  0  0  0  0
  -30.8587  -43.2160 -148.0538 C   0  0  0  0  0  0  0  0  0  0  0  0
  -31.1696  -44.3599 -148.4095 O   0  0  0  0  0  0  0  0  0  0  0  0
  -29.4979  -42.8826 -147.8770 N   0  0  0  0  0  0  0  0  0  0  0  0
  -28.6931  -43.3250 -146.7582 C   0  0  1  0  0  0  0  0  0  0  0  0
  -27.6809  -42.2322 -146.4841 C   0  0  0  0  0  0  0  0  0  0  0  0
  -26.8151  -41.9786 -147.6534 C   0  0  0  0  0  0  0  0  0  0  0  0
  -25.4485  -42.1882 -147.6262 C   0  0  0  0  0  0  0  0  0  0  0  0
  -24.9433  -41.8718 -148.8242 N   0  0  0  0  0  0  0  0  0  0  0  0
  -25.9528  -41.4656 -149.6154 C   0  0  0  0  0  0  0  0  0  0  0  0
  -27.0843  -41.5386 -148.8819 N   0  0  0  0  0  0  0  0  0  0  0  0
  -29.5672  -43.5781 -145.6039 C   0  0  0  0  0  0  0  0  0  0  0  0
  -30.5271  -42.7915 -145.3854 O   0  0  0  0  0  0  0  0  0  0  0  0
  -30.9184  -48.8341 -143.5682 C   0  0  0  0  0  0  0  0  0  0  0  0
  -29.7232  -48.3877 -144.3830 C   0  0  1  0  0  0  0  0  0  0  0  0
  -30.2065  -48.3179 -145.8356 C   0  0  0  0  0  0  0  0  0  0  0  0
  -29.2548  -47.0232 -144.0180 C   0  0  0  0  0  0  0  0  0  0  0  0
  -29.1618  -46.0419 -145.1435 C   0  0  2  0  0  0  0  0  0  0  0  0
  -29.3813  -44.6777 -144.7124 N   0  0  0  0  0  0  0  0  0  0  0  0
  -29.9257  -46.3899 -146.3461 C   0  0  0  0  0  0  0  0  0  0  0  0
  -30.1699  -45.4798 -147.3648 O   0  0  0  0  0  0  0  0  0  0  0  0
  -30.4175  -47.5552 -146.5351 O   0  0  0  0  0  0  0  0  0  0  0  0
  2  1  1  1
  2  3  1  0
  3  4  1  0
  4  5  1  0
  5  6  1  0
  6  7  1  0
  8  2  1  0
  8  9  2  0
 10  8  1  0
 11 10  1  0
 11 12  1  1
 13 17  1  0
 13 12  1  0
 14 13  2  0
 15 14  1  0
 15 16  1  0
 16 17  2  0
 18 11  1  0
 19 18  2  0
 21 20  1  1
 21 22  1  0
 23 21  1  0
 24 23  1  1
 24 25  1  0
 25 18  1  0
 26 24  1  0
 27 26  1  0
 28 26  2  0
M  END
$$$$
