KHL.pdb
     RDKit          3D

 28 28  0  0  1  0  0  0  0  0999 V2000
   20.1946  -18.9442  -16.7998 N   0  0  0  0  0  0  0  0  0  0  0  0
   20.4700  -19.5139  -15.4938 C   0  0  1  0  0  0  0  0  0  0  0  0
   19.4361  -20.5350  -15.1000 C   0  0  0  0  0  0  0  0  0  0  0  0
   18.0668  -20.0018  -15.3785 C   0  0  0  0  0  0  0  0  0  0  0  0
   17.2704  -20.8762  -16.2903 C   0  0  0  0  0  0  0  0  0  0  0  0
   15.9198  -20.2490  -16.5985 C   0  0  0  0  0  0  0  0  0  0  0  0
   15.0610  -20.4492  -15.4532 N   0  0  0  0  0  0  0  0  0  0  0  0
   21.8229  -20.1455  -15.5398 C   0  0  0  0  0  0  0  0  0  0  0  0
   22.0055  -21.3283  -15.2244 O   0  0  0  0  0  0  0  0  0  0  0  0
   22.9158  -19.3550  -15.9579 N   0  0  0  0  0  0  0  0  0  0  0  0
   24.2844  -19.8237  -16.0065 C   0  0  1  0  0  0  0  0  0  0  0  0
   24.9152  -19.2146  -17.2414 C   0  0  0  0  0  0  0  0  0  0  0  0
   26.3515  -19.5430  -17.3442 C   0  0  0  0  0  0  0  0  0  0  0  0
   26.8043  -20.8185  -17.6277 C   0  0  0  0  0  0  0  0  0  0  0  0
   28.1420  -20.8015  -17.6538 N   0  0  0  0  0  0  0  0  0  0  0  0
   28.5547  -19.5476  -17.3942 C   0  0  0  0  0  0  0  0  0  0  0  0
   27.4473  -18.7972  -17.2087 N   0  0  0  0  0  0  0  0  0  0  0  0
   24.9762  -19.4251  -14.7724 C   0  0  0  0  0  0  0  0  0  0  0  0
   24.3413  -18.7652  -13.9068 O   0  0  0  0  0  0  0  0  0  0  0  0
   24.2131  -21.5349  -10.7267 C   0  0  0  0  0  0  0  0  0  0  0  0
   24.9802  -20.5003  -11.5221 C   0  0  1  0  0  0  0  0  0  0  0  0
   25.8427  -19.7433  -10.5066 C   0  0  0  0  0  0  0  0  0  0  0  0
   25.9113  -21.1084  -12.5110 C   0  0  0  0  0  0  0  0  0  0  0  0
   26.8354  -20.1596  -13.2069 C   0  0  2  0  0  0  0  0  0  0  0  0
   26.3401  -19.7507  -14.5041 N   0  0  0  0  0  0  0  0  0  0  0  0
   28.2453  -20.5621  -13.2357 C   0  0  0  0  0  0  0  0  0  0  0  0
   29.1960  -20.0129  -12.3871 O   0  0  0  0  0  0  0  0  0  0  0  0
   28.6918  -21.4457  -14.0453 O   0  0  0  0  0  0  0  0  0  0  0  0
  2  1  1  6
  2  3  1  0
  3  4  1  0
  4  5  1  0
  5  6  1  0
  6  7  1  0
  8  2  1  0
  8  9  2  0
 10  8  1  0
 11 10  1  0
 11 12  1  6
 13 17  1  0
 13 12  1  0
 14 13  2  0
 15 14  1  0
 15 16  1  0
 16 17  2  0
 18 11  1  0
 19 18  2  0
 21 20  1  1
 21 22  1  0
 23 21  1  0
 24 23  1  6
 24 25  1  0
 25 18  1  0
 26 24  1  0
 27 26  1  0
 28 26  2  0
M  END
$$$$
