ITR.pdb
     RDKit          3D

 27 26  0  0  1  0  0  0  0  0999 V2000
    7.8444  -11.3393   19.7484 C   0  0  0  0  0  0  0  0  0  0  0  0
    8.1424  -12.6259   19.0572 C   0  0  0  0  0  0  0  0  0  0  0  0
    8.2419  -13.8259   19.9356 C   0  0  2  0  0  0  0  0  0  0  0  0
    9.3203  -13.5508   20.9767 C   0  0  0  0  0  0  0  0  0  0  0  0
    8.5949  -15.0291   19.0974 C   0  0  2  0  0  0  0  0  0  0  0  0
    7.5668  -15.2321   18.1018 N   0  0  0  0  0  0  0  0  0  0  0  0
    8.7085  -16.2669   19.9076 C   0  0  0  0  0  0  0  0  0  0  0  0
    7.7044  -16.8451   20.4115 O   0  0  0  0  0  0  0  0  0  0  0  0
    9.9643  -19.5186   19.0009 C   0  0  0  0  0  0  0  0  0  0  0  0
   10.8042  -19.0976   20.2016 C   0  0  1  0  0  0  0  0  0  0  0  0
   12.1033  -18.8026   19.8553 O   0  0  0  0  0  0  0  0  0  0  0  0
   10.1228  -18.0400   21.0142 C   0  0  2  0  0  0  0  0  0  0  0  0
    9.9690  -16.8708   20.1594 N   0  0  0  0  0  0  0  0  0  0  0  0
   10.8272  -17.6955   22.2558 C   0  0  0  0  0  0  0  0  0  0  0  0
   11.4534  -16.6084   22.3034 O   0  0  0  0  0  0  0  0  0  0  0  0
   10.2021  -13.8393   29.6819 N   0  0  0  0  0  0  0  0  0  0  0  0
    9.5337  -14.4318   28.5348 C   0  0  0  0  0  0  0  0  0  0  0  0
    8.5943  -13.7953   27.9864 N   0  0  0  0  0  0  0  0  0  0  0  0
    9.9275  -15.6952   28.0470 N   0  0  0  0  0  0  0  0  0  0  0  0
   11.1530  -16.0073   27.4404 C   0  0  0  0  0  0  0  0  0  0  0  0
   11.4538  -17.3901   27.0014 C   0  0  0  0  0  0  0  0  0  0  0  0
   10.6483  -17.5754   25.6834 C   0  0  0  0  0  0  0  0  0  0  0  0
   11.5632  -18.1143   24.6091 C   0  0  2  0  0  0  0  0  0  0  0  0
   10.8502  -18.5080   23.4113 N   0  0  0  0  0  0  0  0  0  0  0  0
   12.4110  -19.2135   25.1285 C   0  0  0  0  0  0  0  0  0  0  0  0
   12.0781  -20.5183   24.8841 O   0  0  0  0  0  0  0  0  0  0  0  0
   13.4398  -18.9545   25.7954 O   0  0  0  0  0  0  0  0  0  0  0  0
  2  3  1  0
  2  1  1  0
  3  4  1  1
  5  6  1  6
  5  3  1  0
  7  5  1  0
  8  7  2  0
 10  9  1  6
 10 11  1  0
 10 12  1  0
 12 13  1  6
 13  7  1  0
 14 12  1  0
 14 15  2  0
 16 17  1  0
 17 19  1  0
 17 18  2  0
 19 20  1  0
 20 21  1  0
 21 22  1  0
 23 22  1  1
 23 24  1  0
 24 14  1  0
 25 23  1  0
 26 25  1  0
 27 25  2  0
M  END
$$$$
