ITR.pdb
     RDKit          3D

 27 26  0  0  1  0  0  0  0  0999 V2000
    7.3528  -11.5229   18.9135 C   0  0  0  0  0  0  0  0  0  0  0  0
    8.0748  -12.7785   18.5616 C   0  0  0  0  0  0  0  0  0  0  0  0
    8.0749  -13.8411   19.6067 C   0  0  2  0  0  0  0  0  0  0  0  0
    8.7269  -13.2625   20.8567 C   0  0  0  0  0  0  0  0  0  0  0  0
    8.8425  -15.0370   19.1015 C   0  0  2  0  0  0  0  0  0  0  0  0
    8.2225  -15.5213   17.8889 N   0  0  0  0  0  0  0  0  0  0  0  0
    8.8687  -16.1470   20.0857 C   0  0  0  0  0  0  0  0  0  0  0  0
    7.8665  -16.8838   20.3075 O   0  0  0  0  0  0  0  0  0  0  0  0
   10.6592  -19.2194   20.1725 C   0  0  0  0  0  0  0  0  0  0  0  0
   11.0873  -18.4876   21.4397 C   0  0  1  0  0  0  0  0  0  0  0  0
   12.3756  -18.0096   21.3593 O   0  0  0  0  0  0  0  0  0  0  0  0
   10.0732  -17.4708   21.8649 C   0  0  2  0  0  0  0  0  0  0  0  0
   10.0380  -16.4398   20.8367 N   0  0  0  0  0  0  0  0  0  0  0  0
   10.3321  -16.8870   23.1872 C   0  0  0  0  0  0  0  0  0  0  0  0
   11.3416  -16.1538   23.3274 O   0  0  0  0  0  0  0  0  0  0  0  0
    7.4247  -21.1301   26.9919 N   0  0  0  0  0  0  0  0  0  0  0  0
    6.8523  -20.5398   25.7929 C   0  0  0  0  0  0  0  0  0  0  0  0
    6.8584  -21.2106   24.7260 N   0  0  0  0  0  0  0  0  0  0  0  0
    6.3030  -19.2412   25.8230 N   0  0  0  0  0  0  0  0  0  0  0  0
    7.0189  -18.0366   25.8848 C   0  0  0  0  0  0  0  0  0  0  0  0
    8.1168  -17.8540   26.8629 C   0  0  0  0  0  0  0  0  0  0  0  0
    8.6970  -16.4439   26.5542 C   0  0  0  0  0  0  0  0  0  0  0  0
    9.8828  -16.5822   25.6286 C   0  0  2  0  0  0  0  0  0  0  0  0
    9.5183  -17.0936   24.3233 N   0  0  0  0  0  0  0  0  0  0  0  0
   10.9587  -17.3884   26.2523 C   0  0  0  0  0  0  0  0  0  0  0  0
   11.3495  -18.5734   25.6899 O   0  0  0  0  0  0  0  0  0  0  0  0
   11.5186  -16.9893   27.3000 O   0  0  0  0  0  0  0  0  0  0  0  0
  2  3  1  0
  2  1  1  0
  3  4  1  1
  5  6  1  6
  5  3  1  0
  7  5  1  0
  8  7  2  0
 10  9  1  6
 10 11  1  0
 10 12  1  0
 12 13  1  6
 13  7  1  0
 14 12  1  0
 14 15  2  0
 16 17  1  0
 17 19  1  0
 17 18  2  0
 19 20  1  0
 20 21  1  0
 21 22  1  0
 23 22  1  1
 23 24  1  0
 24 14  1  0
 25 23  1  0
 26 25  1  0
 27 25  2  0
M  END
$$$$
