ITR.pdb
     RDKit          3D

 27 26  0  0  1  0  0  0  0  0999 V2000
    5.0794  -21.0573   17.0294 C   0  0  0  0  0  0  0  0  0  0  0  0
    5.2858  -19.6283   16.6588 C   0  0  0  0  0  0  0  0  0  0  0  0
    6.3664  -18.9164   17.3984 C   0  0  2  0  0  0  0  0  0  0  0  0
    5.9992  -18.9239   18.8774 C   0  0  0  0  0  0  0  0  0  0  0  0
    6.4806  -17.5055   16.8775 C   0  0  2  0  0  0  0  0  0  0  0  0
    6.8476  -17.5438   15.4799 N   0  0  0  0  0  0  0  0  0  0  0  0
    7.5048  -16.7168   17.6058 C   0  0  0  0  0  0  0  0  0  0  0  0
    8.7442  -16.8630   17.4079 O   0  0  0  0  0  0  0  0  0  0  0  0
    8.4220  -12.7376   20.4108 C   0  0  0  0  0  0  0  0  0  0  0  0
    7.5652  -13.5877   19.4793 C   0  0  1  0  0  0  0  0  0  0  0  0
    7.2846  -12.9466   18.2940 O   0  0  0  0  0  0  0  0  0  0  0  0
    8.1183  -14.9706   19.3214 C   0  0  2  0  0  0  0  0  0  0  0  0
    7.1369  -15.7454   18.5743 N   0  0  0  0  0  0  0  0  0  0  0  0
    8.4520  -15.6281   20.5912 C   0  0  0  0  0  0  0  0  0  0  0  0
    7.5203  -15.8822   21.3935 O   0  0  0  0  0  0  0  0  0  0  0  0
   13.8974  -19.3076   25.2753 N   0  0  0  0  0  0  0  0  0  0  0  0
   13.1954  -20.5728   25.1326 C   0  0  0  0  0  0  0  0  0  0  0  0
   13.4972  -21.5226   25.9040 N   0  0  0  0  0  0  0  0  0  0  0  0
   12.1979  -20.7342   24.1488 N   0  0  0  0  0  0  0  0  0  0  0  0
   11.8758  -19.8218   23.1335 C   0  0  0  0  0  0  0  0  0  0  0  0
   11.0847  -18.6040   23.4284 C   0  0  0  0  0  0  0  0  0  0  0  0
   10.8347  -17.9441   22.0420 C   0  0  0  0  0  0  0  0  0  0  0  0
   10.0224  -16.6840   22.2266 C   0  0  2  0  0  0  0  0  0  0  0  0
    9.7593  -15.9987   20.9778 N   0  0  0  0  0  0  0  0  0  0  0  0
   10.6479  -15.7841   23.2244 C   0  0  0  0  0  0  0  0  0  0  0  0
   10.5379  -16.0516   24.5621 O   0  0  0  0  0  0  0  0  0  0  0  0
   11.2827  -14.7710   22.8487 O   0  0  0  0  0  0  0  0  0  0  0  0
  2  3  1  0
  2  1  1  0
  3  4  1  1
  5  6  1  6
  5  3  1  0
  7  5  1  0
  8  7  2  0
 10  9  1  6
 10 11  1  0
 10 12  1  0
 12 13  1  1
 13  7  1  0
 14 12  1  0
 14 15  2  0
 16 17  1  0
 17 19  1  0
 17 18  2  0
 19 20  1  0
 20 21  1  0
 21 22  1  0
 23 22  1  6
 23 24  1  0
 24 14  1  0
 25 23  1  0
 26 25  1  0
 27 25  2  0
M  END
$$$$
