ITR.pdb
     RDKit          3D

 27 26  0  0  1  0  0  0  0  0999 V2000
    6.6112  -11.3008   27.6326 C   0  0  0  0  0  0  0  0  0  0  0  0
    6.0425  -12.3567   26.7475 C   0  0  0  0  0  0  0  0  0  0  0  0
    7.0353  -13.2293   26.0588 C   0  0  2  0  0  0  0  0  0  0  0  0
    7.9300  -12.3341   25.2099 C   0  0  0  0  0  0  0  0  0  0  0  0
    6.3060  -14.2331   25.2012 C   0  0  2  0  0  0  0  0  0  0  0  0
    5.3338  -14.9319   26.0110 N   0  0  0  0  0  0  0  0  0  0  0  0
    7.2222  -15.2366   24.6052 C   0  0  0  0  0  0  0  0  0  0  0  0
    7.6171  -16.2575   25.2364 O   0  0  0  0  0  0  0  0  0  0  0  0
    7.0123  -15.9099   20.7011 C   0  0  0  0  0  0  0  0  0  0  0  0
    8.4635  -15.8944   21.1683 C   0  0  1  0  0  0  0  0  0  0  0  0
    9.1606  -14.8133   20.6784 O   0  0  0  0  0  0  0  0  0  0  0  0
    8.5735  -16.0846   22.6498 C   0  0  2  0  0  0  0  0  0  0  0  0
    7.7066  -15.0967   23.2775 N   0  0  0  0  0  0  0  0  0  0  0  0
    9.9452  -15.9836   23.1639 C   0  0  0  0  0  0  0  0  0  0  0  0
   10.3483  -14.8663   23.5707 O   0  0  0  0  0  0  0  0  0  0  0  0
   11.4391  -20.2823   28.9861 N   0  0  0  0  0  0  0  0  0  0  0  0
   12.1946  -19.2391   29.6604 C   0  0  0  0  0  0  0  0  0  0  0  0
   12.8826  -19.5469   30.6705 N   0  0  0  0  0  0  0  0  0  0  0  0
   12.1565  -17.9086   29.1943 N   0  0  0  0  0  0  0  0  0  0  0  0
   11.5632  -17.4608   28.0049 C   0  0  0  0  0  0  0  0  0  0  0  0
   11.8357  -18.1400   26.7166 C   0  0  0  0  0  0  0  0  0  0  0  0
   10.9582  -17.3885   25.6747 C   0  0  0  0  0  0  0  0  0  0  0  0
   11.7203  -17.2619   24.3767 C   0  0  2  0  0  0  0  0  0  0  0  0
   10.8521  -17.0646   23.2340 N   0  0  0  0  0  0  0  0  0  0  0  0
   12.6354  -18.4106   24.1778 C   0  0  0  0  0  0  0  0  0  0  0  0
   13.8189  -18.4786   24.8618 O   0  0  0  0  0  0  0  0  0  0  0  0
   12.3306  -19.3286   23.3810 O   0  0  0  0  0  0  0  0  0  0  0  0
  2  3  1  0
  2  1  1  0
  3  4  1  6
  5  6  1  1
  5  3  1  0
  7  5  1  0
  8  7  2  0
 10  9  1  1
 10 11  1  0
 10 12  1  0
 12 13  1  1
 13  7  1  0
 14 12  1  0
 14 15  2  0
 16 17  1  0
 17 19  1  0
 17 18  2  0
 19 20  1  0
 20 21  1  0
 21 22  1  0
 23 22  1  1
 23 24  1  0
 24 14  1  0
 25 23  1  0
 26 25  1  0
 27 25  2  0
M  END
$$$$
