ITR.pdb
     RDKit          3D

 27 26  0  0  1  0  0  0  0  0999 V2000
    7.2394  -11.5106   27.0593 C   0  0  0  0  0  0  0  0  0  0  0  0
    6.8345  -12.9451   27.0640 C   0  0  0  0  0  0  0  0  0  0  0  0
    7.6742  -13.8585   26.2381 C   0  0  2  0  0  0  0  0  0  0  0  0
    7.5748  -13.3970   24.7891 C   0  0  0  0  0  0  0  0  0  0  0  0
    7.1708  -15.2721   26.3904 C   0  0  2  0  0  0  0  0  0  0  0  0
    7.1756  -15.6293   27.7910 N   0  0  0  0  0  0  0  0  0  0  0  0
    8.0105  -16.2516   25.6578 C   0  0  0  0  0  0  0  0  0  0  0  0
    9.1407  -16.6287   26.0788 O   0  0  0  0  0  0  0  0  0  0  0  0
    6.2259  -18.3983   22.5955 C   0  0  0  0  0  0  0  0  0  0  0  0
    7.5039  -18.8929   23.2639 C   0  0  1  0  0  0  0  0  0  0  0  0
    8.1306  -19.8769   22.5335 O   0  0  0  0  0  0  0  0  0  0  0  0
    8.3941  -17.7592   23.6706 C   0  0  2  0  0  0  0  0  0  0  0  0
    7.5789  -16.8214   24.4305 N   0  0  0  0  0  0  0  0  0  0  0  0
    9.0574  -17.0884   22.5453 C   0  0  0  0  0  0  0  0  0  0  0  0
    8.3983  -16.8956   21.4942 O   0  0  0  0  0  0  0  0  0  0  0  0
    7.7396  -15.1501   17.6224 N   0  0  0  0  0  0  0  0  0  0  0  0
    8.1498  -13.7558   17.5826 C   0  0  0  0  0  0  0  0  0  0  0  0
    8.3227  -13.2077   16.4611 N   0  0  0  0  0  0  0  0  0  0  0  0
    8.3521  -13.0319   18.7759 N   0  0  0  0  0  0  0  0  0  0  0  0
    8.3071  -13.5478   20.0794 C   0  0  0  0  0  0  0  0  0  0  0  0
    8.9027  -14.8671   20.3960 C   0  0  0  0  0  0  0  0  0  0  0  0
   10.1346  -14.5456   21.2900 C   0  0  0  0  0  0  0  0  0  0  0  0
   10.9377  -15.8064   21.5078 C   0  0  2  0  0  0  0  0  0  0  0  0
   10.3971  -16.6402   22.5617 N   0  0  0  0  0  0  0  0  0  0  0  0
   12.3697  -15.4979   21.7331 C   0  0  0  0  0  0  0  0  0  0  0  0
   12.9831  -15.8731   22.8976 O   0  0  0  0  0  0  0  0  0  0  0  0
   13.0290  -14.8908   20.8572 O   0  0  0  0  0  0  0  0  0  0  0  0
  2  3  1  0
  2  1  1  0
  3  4  1  6
  5  6  1  1
  5  3  1  0
  7  5  1  0
  8  7  2  0
 10  9  1  6
 10 11  1  0
 10 12  1  0
 12 13  1  6
 13  7  1  0
 14 12  1  0
 14 15  2  0
 16 17  1  0
 17 19  1  0
 17 18  2  0
 19 20  1  0
 20 21  1  0
 21 22  1  0
 23 22  1  1
 23 24  1  0
 24 14  1  0
 25 23  1  0
 26 25  1  0
 27 25  2  0
M  END
$$$$
