ITR.pdb
     RDKit          3D

 27 26  0  0  1  0  0  0  0  0999 V2000
    7.2730  -11.6006   20.0223 C   0  0  0  0  0  0  0  0  0  0  0  0
    7.7778  -12.6301   19.0698 C   0  0  0  0  0  0  0  0  0  0  0  0
    8.2706  -13.8955   19.6840 C   0  0  2  0  0  0  0  0  0  0  0  0
    9.4070  -13.5383   20.6345 C   0  0  0  0  0  0  0  0  0  0  0  0
    8.7483  -14.8244   18.5960 C   0  0  2  0  0  0  0  0  0  0  0  0
    7.6535  -15.1017   17.6939 N   0  0  0  0  0  0  0  0  0  0  0  0
    9.2455  -16.1146   19.1343 C   0  0  0  0  0  0  0  0  0  0  0  0
    8.4720  -17.0575   19.4651 O   0  0  0  0  0  0  0  0  0  0  0  0
   11.5077  -18.4533   17.5207 C   0  0  0  0  0  0  0  0  0  0  0  0
   12.1510  -18.1349   18.8657 C   0  0  1  0  0  0  0  0  0  0  0  0
   13.2867  -17.3680   18.7354 O   0  0  0  0  0  0  0  0  0  0  0  0
   11.1531  -17.6046   19.8485 C   0  0  2  0  0  0  0  0  0  0  0  0
   10.6344  -16.3562   19.3062 N   0  0  0  0  0  0  0  0  0  0  0  0
   11.6932  -17.4074   21.1996 C   0  0  0  0  0  0  0  0  0  0  0  0
   11.9129  -16.2339   21.5880 O   0  0  0  0  0  0  0  0  0  0  0  0
   10.6837  -21.7598   28.7405 N   0  0  0  0  0  0  0  0  0  0  0  0
   11.5921  -20.6893   29.1177 C   0  0  0  0  0  0  0  0  0  0  0  0
   11.8399  -20.5084   30.3401 N   0  0  0  0  0  0  0  0  0  0  0  0
   12.1827  -19.8681   28.1349 N   0  0  0  0  0  0  0  0  0  0  0  0
   11.8505  -19.8312   26.7727 C   0  0  0  0  0  0  0  0  0  0  0  0
   12.4729  -18.8393   25.8649 C   0  0  0  0  0  0  0  0  0  0  0  0
   11.8579  -19.1356   24.4669 C   0  0  0  0  0  0  0  0  0  0  0  0
   12.4565  -18.1954   23.4473 C   0  0  2  0  0  0  0  0  0  0  0  0
   11.9859  -18.4543   22.1020 N   0  0  0  0  0  0  0  0  0  0  0  0
   13.9368  -18.1974   23.5199 C   0  0  0  0  0  0  0  0  0  0  0  0
   14.5842  -17.4404   24.4585 O   0  0  0  0  0  0  0  0  0  0  0  0
   14.6060  -18.8936   22.7213 O   0  0  0  0  0  0  0  0  0  0  0  0
  2  3  1  0
  2  1  1  0
  3  4  1  1
  5  6  1  6
  5  3  1  0
  7  5  1  0
  8  7  2  0
 10  9  1  6
 10 11  1  0
 10 12  1  0
 12 13  1  6
 13  7  1  0
 14 12  1  0
 14 15  2  0
 16 17  1  0
 17 19  1  0
 17 18  2  0
 19 20  1  0
 20 21  1  0
 21 22  1  0
 23 22  1  1
 23 24  1  0
 24 14  1  0
 25 23  1  0
 26 25  1  0
 27 25  2  0
M  END
$$$$
