ITR.pdb
     RDKit          3D

 27 26  0  0  1  0  0  0  0  0999 V2000
    6.2315  -21.3009   16.6430 C   0  0  0  0  0  0  0  0  0  0  0  0
    6.0275  -19.8245   16.6616 C   0  0  0  0  0  0  0  0  0  0  0  0
    6.5134  -19.1181   17.8808 C   0  0  2  0  0  0  0  0  0  0  0  0
    5.7415  -19.6679   19.0743 C   0  0  0  0  0  0  0  0  0  0  0  0
    6.2814  -17.6362   17.7238 C   0  0  2  0  0  0  0  0  0  0  0  0
    6.1215  -17.3267   16.3209 N   0  0  0  0  0  0  0  0  0  0  0  0
    7.4094  -16.8298   18.2522 C   0  0  0  0  0  0  0  0  0  0  0  0
    8.3393  -16.3953   17.5153 O   0  0  0  0  0  0  0  0  0  0  0  0
    7.6801  -13.6897   18.9301 C   0  0  0  0  0  0  0  0  0  0  0  0
    8.0310  -14.2798   20.2914 C   0  0  1  0  0  0  0  0  0  0  0  0
    7.0101  -14.1373   21.2036 O   0  0  0  0  0  0  0  0  0  0  0  0
    8.5678  -15.6729   20.1727 C   0  0  2  0  0  0  0  0  0  0  0  0
    7.4999  -16.5023   19.6311 N   0  0  0  0  0  0  0  0  0  0  0  0
    9.0754  -16.2261   21.4347 C   0  0  0  0  0  0  0  0  0  0  0  0
    8.2507  -16.4919   22.3432 O   0  0  0  0  0  0  0  0  0  0  0  0
   16.5210  -17.7992   21.2727 N   0  0  0  0  0  0  0  0  0  0  0  0
   15.4834  -18.7851   21.0178 C   0  0  0  0  0  0  0  0  0  0  0  0
   15.7472  -19.7602   20.2642 N   0  0  0  0  0  0  0  0  0  0  0  0
   14.2062  -18.6515   21.6007 N   0  0  0  0  0  0  0  0  0  0  0  0
   13.0233  -19.2638   21.1614 C   0  0  0  0  0  0  0  0  0  0  0  0
   11.7335  -19.0027   21.8424 C   0  0  0  0  0  0  0  0  0  0  0  0
   12.0541  -17.9073   22.8996 C   0  0  0  0  0  0  0  0  0  0  0  0
   10.8902  -16.9493   22.9965 C   0  0  2  0  0  0  0  0  0  0  0  0
   10.4388  -16.4830   21.7014 N   0  0  0  0  0  0  0  0  0  0  0  0
   11.1979  -15.8220   23.9081 C   0  0  0  0  0  0  0  0  0  0  0  0
   11.2485  -14.5404   23.4307 O   0  0  0  0  0  0  0  0  0  0  0  0
   11.4136  -16.0357   25.1239 O   0  0  0  0  0  0  0  0  0  0  0  0
  2  3  1  0
  2  1  1  0
  3  4  1  1
  5  6  1  6
  5  3  1  0
  7  5  1  0
  8  7  2  0
 10  9  1  6
 10 11  1  0
 10 12  1  0
 12 13  1  1
 13  7  1  0
 14 12  1  0
 14 15  2  0
 16 17  1  0
 17 19  1  0
 17 18  2  0
 19 20  1  0
 20 21  1  0
 21 22  1  0
 23 22  1  6
 23 24  1  0
 24 14  1  0
 25 23  1  0
 26 25  1  0
 27 25  2  0
M  END
$$$$
