ITR.pdb
     RDKit          3D

 27 26  0  0  1  0  0  0  0  0999 V2000
    8.7288  -12.1947   20.2519 C   0  0  0  0  0  0  0  0  0  0  0  0
    7.6149  -13.1851   20.2460 C   0  0  0  0  0  0  0  0  0  0  0  0
    7.7497  -14.3182   21.2049 C   0  0  2  0  0  0  0  0  0  0  0  0
    8.2881  -13.7558   22.5150 C   0  0  0  0  0  0  0  0  0  0  0  0
    8.6916  -15.3470   20.6312 C   0  0  2  0  0  0  0  0  0  0  0  0
    8.2285  -15.7344   19.3179 N   0  0  0  0  0  0  0  0  0  0  0  0
    8.7754  -16.5660   21.4729 C   0  0  0  0  0  0  0  0  0  0  0  0
    8.0027  -17.5538   21.3192 O   0  0  0  0  0  0  0  0  0  0  0  0
    9.1173  -19.2936   21.3398 C   0  0  0  0  0  0  0  0  0  0  0  0
   10.2835  -18.9882   22.2732 C   0  0  1  0  0  0  0  0  0  0  0  0
   11.4610  -18.7813   21.5910 O   0  0  0  0  0  0  0  0  0  0  0  0
    9.9406  -17.9147   23.2597 C   0  0  2  0  0  0  0  0  0  0  0  0
    9.7421  -16.6838   22.5067 N   0  0  0  0  0  0  0  0  0  0  0  0
   10.9458  -17.7305   24.3142 C   0  0  0  0  0  0  0  0  0  0  0  0
   11.8899  -16.9300   24.1040 O   0  0  0  0  0  0  0  0  0  0  0  0
   13.2283  -22.0903   29.7915 N   0  0  0  0  0  0  0  0  0  0  0  0
   13.1825  -21.1590   30.9069 C   0  0  0  0  0  0  0  0  0  0  0  0
   14.0349  -21.2753   31.8278 N   0  0  0  0  0  0  0  0  0  0  0  0
   12.2020  -20.1465   30.9580 N   0  0  0  0  0  0  0  0  0  0  0  0
   12.0077  -19.1285   30.0130 C   0  0  0  0  0  0  0  0  0  0  0  0
   11.4565  -19.4315   28.6714 C   0  0  0  0  0  0  0  0  0  0  0  0
   11.3443  -18.0505   27.9639 C   0  0  0  0  0  0  0  0  0  0  0  0
   11.9296  -18.1506   26.5749 C   0  0  2  0  0  0  0  0  0  0  0  0
   10.9256  -18.3962   25.5600 N   0  0  0  0  0  0  0  0  0  0  0  0
   13.0185  -19.1546   26.5229 C   0  0  0  0  0  0  0  0  0  0  0  0
   14.2219  -18.9015   27.1237 O   0  0  0  0  0  0  0  0  0  0  0  0
   12.8438  -20.2435   25.9277 O   0  0  0  0  0  0  0  0  0  0  0  0
  2  3  1  0
  2  1  1  0
  3  4  1  1
  5  6  1  6
  5  3  1  0
  7  5  1  0
  8  7  2  0
 10  9  1  6
 10 11  1  0
 10 12  1  0
 12 13  1  6
 13  7  1  0
 14 12  1  0
 14 15  2  0
 16 17  1  0
 17 19  1  0
 17 18  2  0
 19 20  1  0
 20 21  1  0
 21 22  1  0
 23 22  1  1
 23 24  1  0
 24 14  1  0
 25 23  1  0
 26 25  1  0
 27 25  2  0
M  END
$$$$
