ITR.pdb
     RDKit          3D

 27 26  0  0  1  0  0  0  0  0999 V2000
    7.0283  -11.3517   26.8361 C   0  0  0  0  0  0  0  0  0  0  0  0
    7.5616  -12.5835   27.4843 C   0  0  0  0  0  0  0  0  0  0  0  0
    7.8379  -13.7288   26.5714 C   0  0  2  0  0  0  0  0  0  0  0  0
    9.0603  -13.3709   25.7347 C   0  0  0  0  0  0  0  0  0  0  0  0
    6.6346  -13.9686   25.6944 C   0  0  2  0  0  0  0  0  0  0  0  0
    5.4920  -14.2678   26.5277 N   0  0  0  0  0  0  0  0  0  0  0  0
    6.8363  -15.1014   24.7577 C   0  0  0  0  0  0  0  0  0  0  0  0
    5.8826  -15.6463   24.1331 O   0  0  0  0  0  0  0  0  0  0  0  0
    6.4396  -15.4494   22.4178 C   0  0  0  0  0  0  0  0  0  0  0  0
    7.8138  -16.0714   22.1968 C   0  0  1  0  0  0  0  0  0  0  0  0
    8.6592  -15.2404   21.4971 O   0  0  0  0  0  0  0  0  0  0  0  0
    8.3896  -16.6155   23.4678 C   0  0  2  0  0  0  0  0  0  0  0  0
    8.1293  -15.6359   24.5138 N   0  0  0  0  0  0  0  0  0  0  0  0
    9.8213  -16.9314   23.3869 C   0  0  0  0  0  0  0  0  0  0  0  0
   10.6395  -15.9803   23.3383 O   0  0  0  0  0  0  0  0  0  0  0  0
   16.5322  -20.4813   21.3272 N   0  0  0  0  0  0  0  0  0  0  0  0
   16.1879  -20.0718   19.9754 C   0  0  0  0  0  0  0  0  0  0  0  0
   17.0728  -20.1345   19.0802 N   0  0  0  0  0  0  0  0  0  0  0  0
   14.8897  -19.6114   19.6725 N   0  0  0  0  0  0  0  0  0  0  0  0
   13.8082  -19.5286   20.5618 C   0  0  0  0  0  0  0  0  0  0  0  0
   13.6541  -18.3644   21.4653 C   0  0  0  0  0  0  0  0  0  0  0  0
   12.1178  -18.1981   21.6449 C   0  0  0  0  0  0  0  0  0  0  0  0
   11.7459  -18.4985   23.0778 C   0  0  2  0  0  0  0  0  0  0  0  0
   10.3485  -18.2418   23.3598 N   0  0  0  0  0  0  0  0  0  0  0  0
   12.6360  -17.7847   24.0239 C   0  0  0  0  0  0  0  0  0  0  0  0
   12.9831  -16.4805   23.7968 O   0  0  0  0  0  0  0  0  0  0  0  0
   13.0768  -18.3719   25.0394 O   0  0  0  0  0  0  0  0  0  0  0  0
  2  3  1  0
  2  1  1  0
  3  4  1  6
  5  6  1  1
  5  3  1  0
  7  5  1  0
  8  7  2  0
 10  9  1  1
 10 11  1  0
 10 12  1  0
 12 13  1  1
 13  7  1  0
 14 12  1  0
 14 15  2  0
 16 17  1  0
 17 19  1  0
 17 18  2  0
 19 20  1  0
 20 21  1  0
 21 22  1  0
 23 22  1  6
 23 24  1  0
 24 14  1  0
 25 23  1  0
 26 25  1  0
 27 25  2  0
M  END
$$$$
