ITR.pdb
     RDKit          3D

 27 26  0  0  1  0  0  0  0  0999 V2000
    7.0608  -12.0814   19.2190 C   0  0  0  0  0  0  0  0  0  0  0  0
    7.4796  -13.2844   18.4448 C   0  0  0  0  0  0  0  0  0  0  0  0
    8.3810  -14.2331   19.1583 C   0  0  2  0  0  0  0  0  0  0  0  0
    9.6316  -13.4651   19.5689 C   0  0  0  0  0  0  0  0  0  0  0  0
    8.7275  -15.3777   18.2393 C   0  0  2  0  0  0  0  0  0  0  0  0
    7.5112  -15.9207   17.6779 N   0  0  0  0  0  0  0  0  0  0  0  0
    9.4423  -16.4702   18.9444 C   0  0  0  0  0  0  0  0  0  0  0  0
    8.8456  -17.3218   19.6623 O   0  0  0  0  0  0  0  0  0  0  0  0
   13.4932  -19.2680   19.1297 C   0  0  0  0  0  0  0  0  0  0  0  0
   12.6154  -18.1778   18.5252 C   0  0  1  0  0  0  0  0  0  0  0  0
   12.1240  -18.5264   17.2876 O   0  0  0  0  0  0  0  0  0  0  0  0
   11.5778  -17.6982   19.4928 C   0  0  2  0  0  0  0  0  0  0  0  0
   10.8517  -16.6143   18.8451 N   0  0  0  0  0  0  0  0  0  0  0  0
   12.1224  -17.2675   20.7867 C   0  0  0  0  0  0  0  0  0  0  0  0
   12.8543  -16.2479   20.8153 O   0  0  0  0  0  0  0  0  0  0  0  0
    8.7798  -13.6318   23.0500 N   0  0  0  0  0  0  0  0  0  0  0  0
    8.0885  -14.8899   23.2802 C   0  0  0  0  0  0  0  0  0  0  0  0
    7.1079  -15.1849   22.5456 N   0  0  0  0  0  0  0  0  0  0  0  0
    8.5062  -15.7621   24.3069 N   0  0  0  0  0  0  0  0  0  0  0  0
    9.7971  -16.2816   24.4827 C   0  0  0  0  0  0  0  0  0  0  0  0
   10.1027  -17.6906   24.1409 C   0  0  0  0  0  0  0  0  0  0  0  0
   11.6153  -17.8611   24.4624 C   0  0  0  0  0  0  0  0  0  0  0  0
   12.4323  -17.4441   23.2622 C   0  0  2  0  0  0  0  0  0  0  0  0
   11.8789  -17.9254   22.0130 N   0  0  0  0  0  0  0  0  0  0  0  0
   13.8533  -17.8349   23.4188 C   0  0  0  0  0  0  0  0  0  0  0  0
   14.3576  -18.9021   22.7260 O   0  0  0  0  0  0  0  0  0  0  0  0
   14.6034  -17.1892   24.1874 O   0  0  0  0  0  0  0  0  0  0  0  0
  2  3  1  0
  2  1  1  0
  3  4  1  6
  5  6  1  1
  5  3  1  0
  7  5  1  0
  8  7  2  0
 10  9  1  1
 10 11  1  0
 10 12  1  0
 12 13  1  6
 13  7  1  0
 14 12  1  0
 14 15  2  0
 16 17  1  0
 17 19  1  0
 17 18  2  0
 19 20  1  0
 20 21  1  0
 21 22  1  0
 23 22  1  1
 23 24  1  0
 24 14  1  0
 25 23  1  0
 26 25  1  0
 27 25  2  0
M  END
$$$$
