ITR.pdb
     RDKit          3D

 27 26  0  0  1  0  0  0  0  0999 V2000
    7.2419  -11.6645   19.9379 C   0  0  0  0  0  0  0  0  0  0  0  0
    8.1728  -12.8142   19.7553 C   0  0  0  0  0  0  0  0  0  0  0  0
    7.7976  -14.0710   20.4633 C   0  0  2  0  0  0  0  0  0  0  0  0
    7.7297  -13.7613   21.9539 C   0  0  0  0  0  0  0  0  0  0  0  0
    8.8319  -15.1311   20.1785 C   0  0  2  0  0  0  0  0  0  0  0  0
    8.8771  -15.3800   18.7553 N   0  0  0  0  0  0  0  0  0  0  0  0
    8.5308  -16.4115   20.8651 C   0  0  0  0  0  0  0  0  0  0  0  0
    7.5811  -17.1664   20.5118 O   0  0  0  0  0  0  0  0  0  0  0  0
    9.9220  -19.4633   20.8306 C   0  0  0  0  0  0  0  0  0  0  0  0
   10.0224  -19.1001   22.3080 C   0  0  1  0  0  0  0  0  0  0  0  0
   11.3099  -18.7939   22.6864 O   0  0  0  0  0  0  0  0  0  0  0  0
    9.0001  -18.0785   22.7008 C   0  0  2  0  0  0  0  0  0  0  0  0
    9.3063  -16.8574   21.9682 N   0  0  0  0  0  0  0  0  0  0  0  0
    8.9361  -17.8235   24.1455 C   0  0  0  0  0  0  0  0  0  0  0  0
    9.1557  -16.6572   24.5550 O   0  0  0  0  0  0  0  0  0  0  0  0
    3.8739  -22.1368   28.5452 N   0  0  0  0  0  0  0  0  0  0  0  0
    4.3720  -22.6289   27.2712 C   0  0  0  0  0  0  0  0  0  0  0  0
    3.5544  -23.1342   26.4561 N   0  0  0  0  0  0  0  0  0  0  0  0
    5.7438  -22.5444   26.9548 N   0  0  0  0  0  0  0  0  0  0  0  0
    6.6440  -21.5703   27.4111 C   0  0  0  0  0  0  0  0  0  0  0  0
    6.9778  -20.3927   26.5761 C   0  0  0  0  0  0  0  0  0  0  0  0
    8.0880  -19.6432   27.3673 C   0  0  0  0  0  0  0  0  0  0  0  0
    8.6128  -18.4995   26.5317 C   0  0  2  0  0  0  0  0  0  0  0  0
    8.6421  -18.8068   25.1164 N   0  0  0  0  0  0  0  0  0  0  0  0
    9.9347  -18.0407   27.0204 C   0  0  0  0  0  0  0  0  0  0  0  0
   10.0526  -17.4603   28.2542 O   0  0  0  0  0  0  0  0  0  0  0  0
   10.9544  -18.1820   26.3059 O   0  0  0  0  0  0  0  0  0  0  0  0
  2  3  1  0
  2  1  1  0
  3  4  1  1
  5  6  1  6
  5  3  1  0
  7  5  1  0
  8  7  2  0
 10  9  1  6
 10 11  1  0
 10 12  1  0
 12 13  1  6
 13  7  1  0
 14 12  1  0
 14 15  2  0
 16 17  1  0
 17 19  1  0
 17 18  2  0
 19 20  1  0
 20 21  1  0
 21 22  1  0
 23 22  1  1
 23 24  1  0
 24 14  1  0
 25 23  1  0
 26 25  1  0
 27 25  2  0
M  END
$$$$
