MVH.pdb
     RDKit          3D

 26 26  0  0  1  0  0  0  0  0999 V2000
    7.6523  -11.3409   27.3335 C   0  0  0  0  0  0  0  0  0  0  0  0
    6.1781  -11.3803   26.3434 S   0  0  0  0  0  0  0  0  0  0  0  0
    5.6980  -12.9439   25.6614 C   0  0  0  0  0  0  0  0  0  0  0  0
    6.8560  -13.8821   25.5344 C   0  0  0  0  0  0  0  0  0  0  0  0
    6.4966  -15.0616   24.7065 C   0  0  2  0  0  0  0  0  0  0  0  0
    5.5089  -15.8293   25.4578 N   0  0  0  0  0  0  0  0  0  0  0  0
    7.7110  -15.9278   24.4353 C   0  0  0  0  0  0  0  0  0  0  0  0
    7.9090  -16.8468   25.2652 O   0  0  0  0  0  0  0  0  0  0  0  0
   11.4307  -17.1873   21.4069 C   0  0  0  0  0  0  0  0  0  0  0  0
   10.2315  -16.2800   21.6333 C   0  0  1  0  0  0  0  0  0  0  0  0
    9.2477  -16.3348   20.5092 C   0  0  0  0  0  0  0  0  0  0  0  0
    9.6297  -16.5304   23.0008 C   0  0  2  0  0  0  0  0  0  0  0  0
    8.5392  -15.6883   23.3175 N   0  0  0  0  0  0  0  0  0  0  0  0
   10.6985  -16.5419   24.0266 C   0  0  0  0  0  0  0  0  0  0  0  0
   11.2489  -15.4293   24.2593 O   0  0  0  0  0  0  0  0  0  0  0  0
   11.1312  -17.6631   24.7377 N   0  0  0  0  0  0  0  0  0  0  0  0
   12.1803  -17.6569   25.7311 C   0  0  1  0  0  0  0  0  0  0  0  0
   11.6804  -18.0209   27.1040 C   0  0  0  0  0  0  0  0  0  0  0  0
   11.4513  -16.7966   27.9085 C   0  0  0  0  0  0  0  0  0  0  0  0
   11.5424  -15.4717   27.5026 C   0  0  0  0  0  0  0  0  0  0  0  0
   11.2602  -14.6476   28.5275 N   0  0  0  0  0  0  0  0  0  0  0  0
   10.9925  -15.4242   29.5734 C   0  0  0  0  0  0  0  0  0  0  0  0
   11.1061  -16.7276   29.2070 N   0  0  0  0  0  0  0  0  0  0  0  0
   13.2958  -18.4982   25.2629 C   0  0  0  0  0  0  0  0  0  0  0  0
   14.5833  -18.1507   25.6402 O   0  0  0  0  0  0  0  0  0  0  0  0
   13.1885  -19.5164   24.5434 O   0  0  0  0  0  0  0  0  0  0  0  0
  2  3  1  0
  2  1  1  0
  4  3  1  0
  4  5  1  0
  5  6  1  1
  5  7  1  0
  7  8  2  0
 10 11  1  6
 10  9  1  0
 12 10  1  0
 13  7  1  0
 12 13  1  1
 14 12  1  0
 14 15  2  0
 16 14  1  0
 17 24  1  0
 17 16  1  0
 17 18  1  1
 19 18  1  0
 19 23  1  0
 20 21  1  0
 20 19  2  0
 21 22  1  0
 22 23  2  0
 24 25  1  0
 26 24  2  0
M  END
$$$$
