MVH.pdb
     RDKit          3D

 26 26  0  0  1  0  0  0  0  0999 V2000
    7.6637  -11.2194   26.4854 C   0  0  0  0  0  0  0  0  0  0  0  0
    6.0711  -11.9419   26.7968 S   0  0  0  0  0  0  0  0  0  0  0  0
    5.6761  -13.4409   25.9382 C   0  0  0  0  0  0  0  0  0  0  0  0
    6.8832  -14.2946   25.7113 C   0  0  0  0  0  0  0  0  0  0  0  0
    6.5647  -15.4405   24.8218 C   0  0  2  0  0  0  0  0  0  0  0  0
    5.6399  -16.3046   25.5482 N   0  0  0  0  0  0  0  0  0  0  0  0
    7.8156  -16.2214   24.4695 C   0  0  0  0  0  0  0  0  0  0  0  0
    8.0288  -17.2368   25.1737 O   0  0  0  0  0  0  0  0  0  0  0  0
   11.5108  -17.0937   21.3034 C   0  0  0  0  0  0  0  0  0  0  0  0
   10.3373  -16.1950   21.6608 C   0  0  1  0  0  0  0  0  0  0  0  0
    9.3020  -16.1443   20.5838 C   0  0  0  0  0  0  0  0  0  0  0  0
    9.7955  -16.5523   23.0297 C   0  0  2  0  0  0  0  0  0  0  0  0
    8.6589  -15.8058   23.4164 N   0  0  0  0  0  0  0  0  0  0  0  0
   10.8926  -16.5366   24.0251 C   0  0  0  0  0  0  0  0  0  0  0  0
   11.2814  -15.3939   24.3965 O   0  0  0  0  0  0  0  0  0  0  0  0
   11.5126  -17.6631   24.5697 N   0  0  0  0  0  0  0  0  0  0  0  0
   12.3792  -17.6511   25.7257 C   0  0  1  0  0  0  0  0  0  0  0  0
   11.6182  -17.7482   27.0214 C   0  0  0  0  0  0  0  0  0  0  0  0
   11.3050  -16.3932   27.5358 C   0  0  0  0  0  0  0  0  0  0  0  0
   11.5484  -15.1668   26.9316 C   0  0  0  0  0  0  0  0  0  0  0  0
   11.1174  -14.1639   27.7175 N   0  0  0  0  0  0  0  0  0  0  0  0
   10.6063  -14.7310   28.8066 C   0  0  0  0  0  0  0  0  0  0  0  0
   10.7160  -16.0813   28.7045 N   0  0  0  0  0  0  0  0  0  0  0  0
   13.4144  -18.6875   25.5660 C   0  0  0  0  0  0  0  0  0  0  0  0
   14.6443  -18.4858   26.1724 O   0  0  0  0  0  0  0  0  0  0  0  0
   13.2857  -19.7530   24.9225 O   0  0  0  0  0  0  0  0  0  0  0  0
  2  3  1  0
  2  1  1  0
  4  3  1  0
  4  5  1  0
  5  6  1  1
  5  7  1  0
  7  8  2  0
 10 11  1  6
 10  9  1  0
 12 10  1  0
 13  7  1  0
 12 13  1  1
 14 12  1  0
 14 15  2  0
 16 14  1  0
 17 24  1  0
 17 16  1  0
 17 18  1  1
 19 18  1  0
 19 23  1  0
 20 21  1  0
 20 19  2  0
 21 22  1  0
 22 23  2  0
 24 25  1  0
 26 24  2  0
M  END
$$$$
