MVH.pdb
     RDKit          3D

 26 26  0  0  1  0  0  0  0  0999 V2000
    6.3980  -11.3911   25.5779 C   0  0  0  0  0  0  0  0  0  0  0  0
    5.6793  -13.0103   25.7079 S   0  0  0  0  0  0  0  0  0  0  0  0
    5.9126  -14.1157   24.3426 C   0  0  0  0  0  0  0  0  0  0  0  0
    7.0150  -15.0951   24.5932 C   0  0  0  0  0  0  0  0  0  0  0  0
    8.3304  -14.5267   24.2026 C   0  0  2  0  0  0  0  0  0  0  0  0
    8.4898  -14.7562   22.7703 N   0  0  0  0  0  0  0  0  0  0  0  0
    9.4610  -15.2037   24.9523 C   0  0  0  0  0  0  0  0  0  0  0  0
   10.2671  -15.8464   24.2386 O   0  0  0  0  0  0  0  0  0  0  0  0
   11.1504  -13.5168   28.2418 C   0  0  0  0  0  0  0  0  0  0  0  0
   10.9177  -15.0101   28.4107 C   0  0  1  0  0  0  0  0  0  0  0  0
    9.8940  -15.3188   29.4552 C   0  0  0  0  0  0  0  0  0  0  0  0
   10.6529  -15.6590   27.0676 C   0  0  2  0  0  0  0  0  0  0  0  0
    9.5683  -15.0971   26.3559 N   0  0  0  0  0  0  0  0  0  0  0  0
   10.5706  -17.1297   27.2266 C   0  0  0  0  0  0  0  0  0  0  0  0
    9.4156  -17.5962   27.4348 O   0  0  0  0  0  0  0  0  0  0  0  0
   11.6479  -18.0159   27.1645 N   0  0  0  0  0  0  0  0  0  0  0  0
   11.5561  -19.4433   27.3689 C   0  0  1  0  0  0  0  0  0  0  0  0
   12.6595  -20.1996   26.6777 C   0  0  0  0  0  0  0  0  0  0  0  0
   12.5318  -20.0642   25.2066 C   0  0  0  0  0  0  0  0  0  0  0  0
   11.4601  -19.5631   24.4793 C   0  0  0  0  0  0  0  0  0  0  0  0
   11.7274  -19.6065   23.1618 N   0  0  0  0  0  0  0  0  0  0  0  0
   12.9462  -20.1248   23.0409 C   0  0  0  0  0  0  0  0  0  0  0  0
   13.4406  -20.4049   24.2750 N   0  0  0  0  0  0  0  0  0  0  0  0
   11.4600  -19.7208   28.8128 C   0  0  0  0  0  0  0  0  0  0  0  0
   11.7430  -18.6934   29.6990 O   0  0  0  0  0  0  0  0  0  0  0  0
   11.1408  -20.8173   29.3245 O   0  0  0  0  0  0  0  0  0  0  0  0
  2  3  1  0
  2  1  1  0
  4  3  1  0
  4  5  1  0
  5  6  1  6
  5  7  1  0
  7  8  2  0
 10 11  1  1
 10  9  1  0
 12 10  1  0
 13  7  1  0
 12 13  1  1
 14 12  1  0
 14 15  2  0
 16 14  1  0
 17 24  1  0
 17 16  1  0
 17 18  1  1
 19 18  1  0
 19 23  1  0
 20 21  1  0
 20 19  2  0
 21 22  1  0
 22 23  2  0
 24 25  1  0
 26 24  2  0
M  END
$$$$
