MVH.pdb
     RDKit          3D

 26 26  0  0  1  0  0  0  0  0999 V2000
    7.5098  -11.1436   26.5315 C   0  0  0  0  0  0  0  0  0  0  0  0
    6.1545  -12.2558   26.8167 S   0  0  0  0  0  0  0  0  0  0  0  0
    6.5514  -13.9224   27.2694 C   0  0  0  0  0  0  0  0  0  0  0  0
    7.3225  -14.6280   26.1995 C   0  0  0  0  0  0  0  0  0  0  0  0
    6.4102  -15.3325   25.2629 C   0  0  2  0  0  0  0  0  0  0  0  0
    5.7809  -16.4168   26.0097 N   0  0  0  0  0  0  0  0  0  0  0  0
    7.1741  -15.9059   24.0855 C   0  0  0  0  0  0  0  0  0  0  0  0
    7.5394  -17.0985   24.2142 O   0  0  0  0  0  0  0  0  0  0  0  0
    6.6168  -14.8128   20.1127 C   0  0  0  0  0  0  0  0  0  0  0  0
    8.0634  -14.8139   20.5817 C   0  0  1  0  0  0  0  0  0  0  0  0
    8.6473  -13.4397   20.6508 C   0  0  0  0  0  0  0  0  0  0  0  0
    8.2044  -15.6159   21.8591 C   0  0  2  0  0  0  0  0  0  0  0  0
    7.4381  -15.1237   22.9404 N   0  0  0  0  0  0  0  0  0  0  0  0
    9.6386  -15.8084   22.1769 C   0  0  0  0  0  0  0  0  0  0  0  0
   10.1726  -14.9035   22.8776 O   0  0  0  0  0  0  0  0  0  0  0  0
   10.4237  -16.8891   21.7699 N   0  0  0  0  0  0  0  0  0  0  0  0
   11.8173  -17.0703   22.1055 C   0  0  1  0  0  0  0  0  0  0  0  0
   12.1011  -18.4297   22.6875 C   0  0  0  0  0  0  0  0  0  0  0  0
   11.3680  -18.6049   23.9644 C   0  0  0  0  0  0  0  0  0  0  0  0
   11.7996  -18.3100   25.2510 C   0  0  0  0  0  0  0  0  0  0  0  0
   10.8425  -18.6117   26.1466 N   0  0  0  0  0  0  0  0  0  0  0  0
    9.8142  -19.0914   25.4527 C   0  0  0  0  0  0  0  0  0  0  0  0
   10.1243  -19.0908   24.1300 N   0  0  0  0  0  0  0  0  0  0  0  0
   12.6450  -16.7425   20.9313 C   0  0  0  0  0  0  0  0  0  0  0  0
   14.0226  -16.7290   21.0824 O   0  0  0  0  0  0  0  0  0  0  0  0
   12.2135  -16.4703   19.7886 O   0  0  0  0  0  0  0  0  0  0  0  0
  2  3  1  0
  2  1  1  0
  4  3  1  0
  4  5  1  0
  5  6  1  1
  5  7  1  0
  7  8  2  0
 10 11  1  1
 10  9  1  0
 12 10  1  0
 13  7  1  0
 12 13  1  1
 14 12  1  0
 14 15  2  0
 16 14  1  0
 17 24  1  0
 17 16  1  0
 17 18  1  6
 19 18  1  0
 19 23  1  0
 20 21  1  0
 20 19  2  0
 21 22  1  0
 22 23  2  0
 24 25  1  0
 26 24  2  0
M  END
$$$$
