MVH.pdb
     RDKit          3D

 26 26  0  0  1  0  0  0  0  0999 V2000
    7.2085  -10.4491   26.1258 C   0  0  0  0  0  0  0  0  0  0  0  0
    5.8593  -11.2185   26.9878 S   0  0  0  0  0  0  0  0  0  0  0  0
    5.5188  -12.9171   26.6146 C   0  0  0  0  0  0  0  0  0  0  0  0
    6.6759  -13.5898   25.9470 C   0  0  0  0  0  0  0  0  0  0  0  0
    6.3101  -14.9581   25.5000 C   0  0  2  0  0  0  0  0  0  0  0  0
    6.0717  -15.7531   26.7002 N   0  0  0  0  0  0  0  0  0  0  0  0
    7.4293  -15.5851   24.6919 C   0  0  0  0  0  0  0  0  0  0  0  0
    8.1357  -16.4160   25.3108 O   0  0  0  0  0  0  0  0  0  0  0  0
    9.5652  -16.3149   20.2863 C   0  0  0  0  0  0  0  0  0  0  0  0
    8.5968  -15.4590   21.0876 C   0  0  1  0  0  0  0  0  0  0  0  0
    7.2257  -15.4308   20.4932 C   0  0  0  0  0  0  0  0  0  0  0  0
    8.6337  -15.8483   22.5512 C   0  0  2  0  0  0  0  0  0  0  0  0
    7.6334  -15.2348   23.3397 N   0  0  0  0  0  0  0  0  0  0  0  0
   10.0062  -15.6793   23.0827 C   0  0  0  0  0  0  0  0  0  0  0  0
   10.5077  -14.5274   22.9536 O   0  0  0  0  0  0  0  0  0  0  0  0
   10.7671  -16.6739   23.7005 N   0  0  0  0  0  0  0  0  0  0  0  0
   12.0623  -16.4664   24.3063 C   0  0  1  0  0  0  0  0  0  0  0  0
   12.2382  -17.2496   25.5802 C   0  0  0  0  0  0  0  0  0  0  0  0
   11.3274  -16.7336   26.6303 C   0  0  0  0  0  0  0  0  0  0  0  0
   10.3645  -15.7390   26.5203 C   0  0  0  0  0  0  0  0  0  0  0  0
    9.7430  -15.5566   27.6992 N   0  0  0  0  0  0  0  0  0  0  0  0
   10.2932  -16.4156   28.5526 C   0  0  0  0  0  0  0  0  0  0  0  0
   11.2539  -17.1325   27.9132 N   0  0  0  0  0  0  0  0  0  0  0  0
   13.1122  -16.7194   23.3038 C   0  0  0  0  0  0  0  0  0  0  0  0
   14.2792  -15.9751   23.3734 O   0  0  0  0  0  0  0  0  0  0  0  0
   13.0487  -17.5590   22.3780 O   0  0  0  0  0  0  0  0  0  0  0  0
  2  3  1  0
  2  1  1  0
  4  3  1  0
  4  5  1  0
  5  6  1  1
  5  7  1  0
  7  8  2  0
 10 11  1  6
 10  9  1  0
 12 10  1  0
 13  7  1  0
 12 13  1  1
 14 12  1  0
 14 15  2  0
 16 14  1  0
 17 24  1  0
 17 16  1  0
 17 18  1  1
 19 18  1  0
 19 23  1  0
 20 21  1  0
 20 19  2  0
 21 22  1  0
 22 23  2  0
 24 25  1  0
 26 24  2  0
M  END
$$$$
