MVH.pdb
     RDKit          3D

 26 26  0  0  1  0  0  0  0  0999 V2000
    2.9818  -19.1235   21.7967 C   0  0  0  0  0  0  0  0  0  0  0  0
    3.2847  -20.0292   20.2990 S   0  0  0  0  0  0  0  0  0  0  0  0
    4.1707  -19.1963   19.0099 C   0  0  0  0  0  0  0  0  0  0  0  0
    5.4176  -18.5428   19.5152 C   0  0  0  0  0  0  0  0  0  0  0  0
    6.0510  -17.7155   18.4568 C   0  0  2  0  0  0  0  0  0  0  0  0
    6.5173  -18.6289   17.4186 N   0  0  0  0  0  0  0  0  0  0  0  0
    7.2270  -16.9327   19.0073 C   0  0  0  0  0  0  0  0  0  0  0  0
    8.3405  -17.5011   18.9107 O   0  0  0  0  0  0  0  0  0  0  0  0
    6.6102  -13.3769   21.4100 C   0  0  0  0  0  0  0  0  0  0  0  0
    7.8052  -13.4948   20.4769 C   0  0  1  0  0  0  0  0  0  0  0  0
    8.9823  -12.7020   20.9458 C   0  0  0  0  0  0  0  0  0  0  0  0
    8.1092  -14.9506   20.1886 C   0  0  2  0  0  0  0  0  0  0  0  0
    7.0449  -15.6561   19.5818 N   0  0  0  0  0  0  0  0  0  0  0  0
    8.6469  -15.6031   21.4052 C   0  0  0  0  0  0  0  0  0  0  0  0
    7.7871  -16.0140   22.2340 O   0  0  0  0  0  0  0  0  0  0  0  0
    9.9994  -15.7930   21.6958 N   0  0  0  0  0  0  0  0  0  0  0  0
   10.5047  -16.5184   22.8387 C   0  0  1  0  0  0  0  0  0  0  0  0
   11.8821  -17.0802   22.6056 C   0  0  0  0  0  0  0  0  0  0  0  0
   11.8705  -18.0041   21.4459 C   0  0  0  0  0  0  0  0  0  0  0  0
   10.8745  -18.8940   21.0657 C   0  0  0  0  0  0  0  0  0  0  0  0
   11.2391  -19.5578   19.9541 N   0  0  0  0  0  0  0  0  0  0  0  0
   12.4455  -19.1059   19.6234 C   0  0  0  0  0  0  0  0  0  0  0  0
   12.8353  -18.1645   20.5220 N   0  0  0  0  0  0  0  0  0  0  0  0
   10.4061  -15.6654   24.0362 C   0  0  0  0  0  0  0  0  0  0  0  0
   10.7249  -16.2204   25.2655 O   0  0  0  0  0  0  0  0  0  0  0  0
   10.0553  -14.4643   24.0484 O   0  0  0  0  0  0  0  0  0  0  0  0
  2  3  1  0
  2  1  1  0
  4  3  1  0
  4  5  1  0
  5  6  1  6
  5  7  1  0
  7  8  2  0
 10 11  1  1
 10  9  1  0
 12 10  1  0
 13  7  1  0
 12 13  1  1
 14 12  1  0
 14 15  2  0
 16 14  1  0
 17 24  1  0
 17 16  1  0
 17 18  1  6
 19 18  1  0
 19 23  1  0
 20 21  1  0
 20 19  2  0
 21 22  1  0
 22 23  2  0
 24 25  1  0
 26 24  2  0
M  END
$$$$
