MVH.pdb
     RDKit          3D

 26 26  0  0  1  0  0  0  0  0999 V2000
    8.0192  -11.5057   18.9492 C   0  0  0  0  0  0  0  0  0  0  0  0
    7.6332  -13.1564   18.4185 S   0  0  0  0  0  0  0  0  0  0  0  0
    7.2922  -14.3564   19.6770 C   0  0  0  0  0  0  0  0  0  0  0  0
    8.3033  -14.3198   20.7787 C   0  0  0  0  0  0  0  0  0  0  0  0
    7.9794  -15.3162   21.8313 C   0  0  2  0  0  0  0  0  0  0  0  0
    6.5249  -15.4145   21.8974 N   0  0  0  0  0  0  0  0  0  0  0  0
    8.5188  -14.8800   23.1794 C   0  0  0  0  0  0  0  0  0  0  0  0
    9.7683  -14.8875   23.2838 O   0  0  0  0  0  0  0  0  0  0  0  0
    7.1799  -11.8043   25.3774 C   0  0  0  0  0  0  0  0  0  0  0  0
    7.2601  -13.0833   26.1962 C   0  0  1  0  0  0  0  0  0  0  0  0
    5.9148  -13.5916   26.6032 C   0  0  0  0  0  0  0  0  0  0  0  0
    8.1268  -14.1076   25.4929 C   0  0  2  0  0  0  0  0  0  0  0  0
    7.6467  -14.4988   24.2220 N   0  0  0  0  0  0  0  0  0  0  0  0
    8.4071  -15.2410   26.4049 C   0  0  0  0  0  0  0  0  0  0  0  0
    7.4472  -16.0375   26.6030 O   0  0  0  0  0  0  0  0  0  0  0  0
    9.6233  -15.4880   27.0451 N   0  0  0  0  0  0  0  0  0  0  0  0
   10.0000  -16.7472   27.6453 C   0  0  1  0  0  0  0  0  0  0  0  0
   11.0161  -17.4983   26.8264 C   0  0  0  0  0  0  0  0  0  0  0  0
   11.3998  -18.7560   27.5117 C   0  0  0  0  0  0  0  0  0  0  0  0
   10.6180  -19.8792   27.7480 C   0  0  0  0  0  0  0  0  0  0  0  0
   11.3292  -20.8158   28.4009 N   0  0  0  0  0  0  0  0  0  0  0  0
   12.5450  -20.3078   28.5823 C   0  0  0  0  0  0  0  0  0  0  0  0
   12.5961  -19.0603   28.0467 N   0  0  0  0  0  0  0  0  0  0  0  0
   10.4159  -16.5141   29.0395 C   0  0  0  0  0  0  0  0  0  0  0  0
   10.6484  -17.6156   29.8480 O   0  0  0  0  0  0  0  0  0  0  0  0
   10.5823  -15.3944   29.5729 O   0  0  0  0  0  0  0  0  0  0  0  0
  2  3  1  0
  2  1  1  0
  4  3  1  0
  4  5  1  0
  5  6  1  1
  5  7  1  0
  7  8  2  0
 10 11  1  6
 10  9  1  0
 12 10  1  0
 13  7  1  0
 12 13  1  6
 14 12  1  0
 14 15  2  0
 16 14  1  0
 17 24  1  0
 17 16  1  0
 17 18  1  6
 19 18  1  0
 19 23  1  0
 20 21  1  0
 20 19  2  0
 21 22  1  0
 22 23  2  0
 24 25  1  0
 26 24  2  0
M  END
$$$$
