MVH.pdb
     RDKit          3D

 26 26  0  0  1  0  0  0  0  0999 V2000
    7.5391  -11.3271   26.5384 C   0  0  0  0  0  0  0  0  0  0  0  0
    6.0353  -11.9521   25.8291 S   0  0  0  0  0  0  0  0  0  0  0  0
    6.1839  -13.0667   24.4595 C   0  0  0  0  0  0  0  0  0  0  0  0
    7.1899  -14.1434   24.7164 C   0  0  0  0  0  0  0  0  0  0  0  0
    7.4261  -14.9532   23.4940 C   0  0  2  0  0  0  0  0  0  0  0  0
    6.1178  -15.3113   22.9559 N   0  0  0  0  0  0  0  0  0  0  0  0
    8.2027  -16.2146   23.8174 C   0  0  0  0  0  0  0  0  0  0  0  0
    7.5332  -17.1350   24.3437 O   0  0  0  0  0  0  0  0  0  0  0  0
   12.0096  -19.1749   23.1220 C   0  0  0  0  0  0  0  0  0  0  0  0
   11.2213  -17.9453   22.6989 C   0  0  1  0  0  0  0  0  0  0  0  0
   10.5176  -18.1335   21.3937 C   0  0  0  0  0  0  0  0  0  0  0  0
   10.3260  -17.4771   23.8277 C   0  0  2  0  0  0  0  0  0  0  0  0
    9.5819  -16.3119   23.5324 N   0  0  0  0  0  0  0  0  0  0  0  0
   11.1047  -17.3908   25.0851 C   0  0  0  0  0  0  0  0  0  0  0  0
   12.0354  -16.5371   25.0977 O   0  0  0  0  0  0  0  0  0  0  0  0
   10.8911  -18.1634   26.2285 N   0  0  0  0  0  0  0  0  0  0  0  0
   11.8078  -18.2635   27.3408 C   0  0  1  0  0  0  0  0  0  0  0  0
   11.2472  -17.6753   28.6084 C   0  0  0  0  0  0  0  0  0  0  0  0
   11.0531  -16.2134   28.4544 C   0  0  0  0  0  0  0  0  0  0  0  0
   11.2240  -15.4389   27.3144 C   0  0  0  0  0  0  0  0  0  0  0  0
   10.9495  -14.1491   27.5792 N   0  0  0  0  0  0  0  0  0  0  0  0
   10.6084  -14.0919   28.8635 C   0  0  0  0  0  0  0  0  0  0  0  0
   10.6686  -15.3381   29.4010 N   0  0  0  0  0  0  0  0  0  0  0  0
   12.2498  -19.6623   27.4800 C   0  0  0  0  0  0  0  0  0  0  0  0
   13.2500  -19.9465   28.3963 O   0  0  0  0  0  0  0  0  0  0  0  0
   11.7987  -20.6364   26.8369 O   0  0  0  0  0  0  0  0  0  0  0  0
  2  3  1  0
  2  1  1  0
  4  3  1  0
  4  5  1  0
  5  6  1  1
  5  7  1  0
  7  8  2  0
 10 11  1  6
 10  9  1  0
 12 10  1  0
 13  7  1  0
 12 13  1  6
 14 12  1  0
 14 15  2  0
 16 14  1  0
 17 24  1  0
 17 16  1  0
 17 18  1  1
 19 18  1  0
 19 23  1  0
 20 21  1  0
 20 19  2  0
 21 22  1  0
 22 23  2  0
 24 25  1  0
 26 24  2  0
M  END
$$$$
