MVH.pdb
     RDKit          3D

 26 26  0  0  1  0  0  0  0  0999 V2000
    8.0659  -11.2315   27.7284 C   0  0  0  0  0  0  0  0  0  0  0  0
    6.3378  -11.1120   27.3352 S   0  0  0  0  0  0  0  0  0  0  0  0
    5.6004  -12.4814   26.4858 C   0  0  0  0  0  0  0  0  0  0  0  0
    6.6249  -13.3722   25.8580 C   0  0  0  0  0  0  0  0  0  0  0  0
    5.9792  -14.4874   25.1196 C   0  0  2  0  0  0  0  0  0  0  0  0
    5.3345  -15.3429   26.1106 N   0  0  0  0  0  0  0  0  0  0  0  0
    7.0034  -15.2936   24.3451 C   0  0  0  0  0  0  0  0  0  0  0  0
    7.4611  -16.2951   24.9450 O   0  0  0  0  0  0  0  0  0  0  0  0
    7.0147  -15.4137   20.2002 C   0  0  0  0  0  0  0  0  0  0  0  0
    8.3946  -15.2950   20.8283 C   0  0  1  0  0  0  0  0  0  0  0  0
    9.0466  -13.9809   20.5415 C   0  0  0  0  0  0  0  0  0  0  0  0
    8.3389  -15.6554   22.2986 C   0  0  2  0  0  0  0  0  0  0  0  0
    7.3915  -14.9146   23.0418 N   0  0  0  0  0  0  0  0  0  0  0  0
    9.7040  -15.6344   22.8741 C   0  0  0  0  0  0  0  0  0  0  0  0
   10.0962  -14.5191   23.3182 O   0  0  0  0  0  0  0  0  0  0  0  0
   10.5670  -16.7288   22.9601 N   0  0  0  0  0  0  0  0  0  0  0  0
   11.2141  -17.1772   24.1716 C   0  0  1  0  0  0  0  0  0  0  0  0
   10.2856  -17.9454   25.0743 C   0  0  0  0  0  0  0  0  0  0  0  0
   11.0278  -18.4757   26.2433 C   0  0  0  0  0  0  0  0  0  0  0  0
   11.5054  -19.7638   26.4461 C   0  0  0  0  0  0  0  0  0  0  0  0
   12.1281  -19.8505   27.6353 N   0  0  0  0  0  0  0  0  0  0  0  0
   12.0540  -18.6434   28.1888 C   0  0  0  0  0  0  0  0  0  0  0  0
   11.3890  -17.8046   27.3520 N   0  0  0  0  0  0  0  0  0  0  0  0
   12.4433  -17.9105   23.8215 C   0  0  0  0  0  0  0  0  0  0  0  0
   13.4147  -18.0673   24.7976 O   0  0  0  0  0  0  0  0  0  0  0  0
   12.6980  -18.4148   22.7049 O   0  0  0  0  0  0  0  0  0  0  0  0
  2  3  1  0
  2  1  1  0
  4  3  1  0
  4  5  1  0
  5  6  1  1
  5  7  1  0
  7  8  2  0
 10 11  1  1
 10  9  1  0
 12 10  1  0
 13  7  1  0
 12 13  1  1
 14 12  1  0
 14 15  2  0
 16 14  1  0
 17 24  1  0
 17 16  1  0
 17 18  1  6
 19 18  1  0
 19 23  1  0
 20 21  1  0
 20 19  2  0
 21 22  1  0
 22 23  2  0
 24 25  1  0
 26 24  2  0
M  END
$$$$
