MVH.pdb
     RDKit          3D

 26 26  0  0  1  0  0  0  0  0999 V2000
    7.4926  -11.5998   19.2640 C   0  0  0  0  0  0  0  0  0  0  0  0
    8.9520  -12.5935   19.4591 S   0  0  0  0  0  0  0  0  0  0  0  0
    8.7226  -14.3170   19.8011 C   0  0  0  0  0  0  0  0  0  0  0  0
    7.4049  -14.5910   20.4535 C   0  0  0  0  0  0  0  0  0  0  0  0
    7.5066  -15.7316   21.3994 C   0  0  2  0  0  0  0  0  0  0  0  0
    6.1501  -16.2122   21.6409 N   0  0  0  0  0  0  0  0  0  0  0  0
    8.1307  -15.2979   22.7113 C   0  0  0  0  0  0  0  0  0  0  0  0
    9.3649  -15.0803   22.6707 O   0  0  0  0  0  0  0  0  0  0  0  0
    7.2195  -12.3880   24.5927 C   0  0  0  0  0  0  0  0  0  0  0  0
    7.2788  -13.4676   25.6621 C   0  0  1  0  0  0  0  0  0  0  0  0
    5.9635  -13.6796   26.3398 C   0  0  0  0  0  0  0  0  0  0  0  0
    7.9033  -14.7302   25.1047 C   0  0  2  0  0  0  0  0  0  0  0  0
    7.3475  -15.1590   23.8776 N   0  0  0  0  0  0  0  0  0  0  0  0
    7.9353  -15.7798   26.1498 C   0  0  0  0  0  0  0  0  0  0  0  0
    6.8112  -16.2170   26.5243 O   0  0  0  0  0  0  0  0  0  0  0  0
    9.0870  -16.3084   26.7364 N   0  0  0  0  0  0  0  0  0  0  0  0
    9.4872  -17.6950   26.6673 C   0  0  1  0  0  0  0  0  0  0  0  0
    9.4682  -18.2342   25.2615 C   0  0  0  0  0  0  0  0  0  0  0  0
    8.2464  -19.0443   25.0386 C   0  0  0  0  0  0  0  0  0  0  0  0
    7.2522  -19.3696   25.9519 C   0  0  0  0  0  0  0  0  0  0  0  0
    6.3058  -20.1240   25.3649 N   0  0  0  0  0  0  0  0  0  0  0  0
    6.6812  -20.2824   24.0988 C   0  0  0  0  0  0  0  0  0  0  0  0
    7.8559  -19.6316   23.8929 N   0  0  0  0  0  0  0  0  0  0  0  0
   10.7831  -17.8598   27.3490 C   0  0  0  0  0  0  0  0  0  0  0  0
   11.7786  -16.9281   27.1006 O   0  0  0  0  0  0  0  0  0  0  0  0
   11.0753  -18.7788   28.1464 O   0  0  0  0  0  0  0  0  0  0  0  0
  2  3  1  0
  2  1  1  0
  4  3  1  0
  4  5  1  0
  5  6  1  1
  5  7  1  0
  7  8  2  0
 10 11  1  6
 10  9  1  0
 12 10  1  0
 13  7  1  0
 12 13  1  6
 14 12  1  0
 14 15  2  0
 16 14  1  0
 17 24  1  0
 17 16  1  0
 17 18  1  6
 19 18  1  0
 19 23  1  0
 20 21  1  0
 20 19  2  0
 21 22  1  0
 22 23  2  0
 24 25  1  0
 26 24  2  0
M  END
$$$$
