MVH.pdb
     RDKit          3D

 26 26  0  0  1  0  0  0  0  0999 V2000
   13.7113  -14.3376   21.4512 C   0  0  0  0  0  0  0  0  0  0  0  0
   13.5653  -13.9779   19.7178 S   0  0  0  0  0  0  0  0  0  0  0  0
   11.9789  -14.2228   18.9672 C   0  0  0  0  0  0  0  0  0  0  0  0
   10.8576  -13.8794   19.8957 C   0  0  0  0  0  0  0  0  0  0  0  0
    9.5671  -14.4147   19.3920 C   0  0  2  0  0  0  0  0  0  0  0  0
    8.9492  -13.3636   18.5903 N   0  0  0  0  0  0  0  0  0  0  0  0
    8.6458  -14.7844   20.5380 C   0  0  0  0  0  0  0  0  0  0  0  0
    7.9525  -13.8435   20.9923 O   0  0  0  0  0  0  0  0  0  0  0  0
    6.3182  -18.1621   23.2278 C   0  0  0  0  0  0  0  0  0  0  0  0
    7.0472  -17.7819   21.9485 C   0  0  1  0  0  0  0  0  0  0  0  0
    6.1644  -17.8407   20.7437 C   0  0  0  0  0  0  0  0  0  0  0  0
    7.7733  -16.4642   22.1253 C   0  0  2  0  0  0  0  0  0  0  0  0
    8.5973  -16.1052   21.0340 N   0  0  0  0  0  0  0  0  0  0  0  0
    8.4664  -16.4431   23.4346 C   0  0  0  0  0  0  0  0  0  0  0  0
    9.6888  -16.7595   23.4145 O   0  0  0  0  0  0  0  0  0  0  0  0
    7.8830  -16.1075   24.6581 N   0  0  0  0  0  0  0  0  0  0  0  0
    8.5794  -16.0740   25.9236 C   0  0  1  0  0  0  0  0  0  0  0  0
    7.8708  -15.2338   26.9528 C   0  0  0  0  0  0  0  0  0  0  0  0
    7.6488  -13.8631   26.4324 C   0  0  0  0  0  0  0  0  0  0  0  0
    8.5529  -13.0336   25.7822 C   0  0  0  0  0  0  0  0  0  0  0  0
    7.9704  -11.8633   25.4652 N   0  0  0  0  0  0  0  0  0  0  0  0
    6.7162  -11.9359   25.9018 C   0  0  0  0  0  0  0  0  0  0  0  0
    6.5131  -13.1440   26.4890 N   0  0  0  0  0  0  0  0  0  0  0  0
    8.8474  -17.4538   26.3658 C   0  0  0  0  0  0  0  0  0  0  0  0
    8.2734  -18.4947   25.6531 O   0  0  0  0  0  0  0  0  0  0  0  0
    9.5581  -17.7809   27.3425 O   0  0  0  0  0  0  0  0  0  0  0  0
  2  3  1  0
  2  1  1  0
  4  3  1  0
  4  5  1  0
  5  6  1  6
  5  7  1  0
  7  8  2  0
 10 11  1  6
 10  9  1  0
 12 10  1  0
 13  7  1  0
 12 13  1  6
 14 12  1  0
 14 15  2  0
 16 14  1  0
 17 24  1  0
 17 16  1  0
 17 18  1  1
 19 18  1  0
 19 23  1  0
 20 21  1  0
 20 19  2  0
 21 22  1  0
 22 23  2  0
 24 25  1  0
 26 24  2  0
M  END
$$$$
