QLR.pdb
     RDKit          3D

 29 28  0  0  1  0  0  0  0  0999 V2000
   23.7621  -24.1392  -18.1798 N   0  0  0  0  0  0  0  0  0  0  0  0
   24.3576  -25.4065  -18.3369 C   0  0  0  0  0  0  0  0  0  0  0  0
   24.3468  -26.0378  -19.3995 O   0  0  0  0  0  0  0  0  0  0  0  0
   25.0434  -26.0276  -17.1532 C   0  0  0  0  0  0  0  0  0  0  0  0
   25.0406  -25.0856  -15.9861 C   0  0  0  0  0  0  0  0  0  0  0  0
   26.0183  -23.9770  -16.1885 C   0  0  2  0  0  0  0  0  0  0  0  0
   27.3801  -24.4185  -15.8500 N   0  0  0  0  0  0  0  0  0  0  0  0
   25.6838  -22.8148  -15.3581 C   0  0  0  0  0  0  0  0  0  0  0  0
   25.3221  -22.8772  -14.1618 O   0  0  0  0  0  0  0  0  0  0  0  0
   26.6525  -18.0979  -13.7100 C   0  0  0  0  0  0  0  0  0  0  0  0
   25.8933  -17.9160  -15.0149 C   0  0  1  0  0  0  0  0  0  0  0  0
   26.3886  -16.6634  -15.7202 C   0  0  0  0  0  0  0  0  0  0  0  0
   26.1350  -19.1591  -15.8243 C   0  0  0  0  0  0  0  0  0  0  0  0
   25.4971  -20.3324  -15.1479 C   0  0  2  0  0  0  0  0  0  0  0  0
   25.7716  -21.5123  -15.9383 N   0  0  0  0  0  0  0  0  0  0  0  0
   24.0188  -20.1577  -15.0914 C   0  0  0  0  0  0  0  0  0  0  0  0
   23.3302  -20.2037  -16.1197 O   0  0  0  0  0  0  0  0  0  0  0  0
   17.9302  -21.4094  -10.9958 N   0  0  0  0  0  0  0  0  0  0  0  0
   18.7722  -22.2274  -10.1931 C   0  0  0  0  0  0  0  0  0  0  0  0
   18.3983  -23.4273   -9.9399 N   0  0  0  0  0  0  0  0  0  0  0  0
   20.0030  -21.7595   -9.6699 N   0  0  0  0  0  0  0  0  0  0  0  0
   20.6661  -20.5799  -10.1879 C   0  0  0  0  0  0  0  0  0  0  0  0
   20.9208  -20.6366  -11.6431 C   0  0  0  0  0  0  0  0  0  0  0  0
   21.6486  -19.5274  -12.2848 C   0  0  0  0  0  0  0  0  0  0  0  0
   21.9868  -19.7065  -13.7252 C   0  0  2  0  0  0  0  0  0  0  0  0
   23.4374  -19.9397  -13.8336 N   0  0  0  0  0  0  0  0  0  0  0  0
   21.6900  -18.5917  -14.6236 C   0  0  0  0  0  0  0  0  0  0  0  0
   20.5942  -18.4662  -15.2679 O   0  0  0  0  0  0  0  0  0  0  0  0
   22.6109  -17.5759  -14.8311 O   0  0  0  0  0  0  0  0  0  0  0  0
  1  2  1  0
  2  3  2  0
  4  5  1  0
  4  2  1  0
  6  8  1  0
  6  5  1  0
  6  7  1  1
  8  9  2  0
 11 10  1  1
 11 13  1  0
 12 11  1  0
 14 13  1  6
 14 16  1  0
 15 14  1  0
 15  8  1  0
 16 17  2  0
 18 19  1  0
 19 20  2  0
 19 21  1  0
 21 22  1  0
 23 22  1  0
 23 24  1  0
 25 24  1  1
 25 27  1  0
 26 25  1  0
 26 16  1  0
 27 28  2  0
 27 29  1  0
M  END
$$$$
