QLR.pdb
     RDKit          3D

 29 28  0  0  1  0  0  0  0  0999 V2000
   30.0708  -21.7205  -11.5680 N   0  0  0  0  0  0  0  0  0  0  0  0
   30.2518  -20.6239  -12.4341 C   0  0  0  0  0  0  0  0  0  0  0  0
   31.1709  -19.8060  -12.3156 O   0  0  0  0  0  0  0  0  0  0  0  0
   29.2790  -20.4345  -13.5633 C   0  0  0  0  0  0  0  0  0  0  0  0
   28.2571  -21.5324  -13.5707 C   0  0  0  0  0  0  0  0  0  0  0  0
   26.8744  -20.9797  -13.4780 C   0  0  2  0  0  0  0  0  0  0  0  0
   26.9030  -19.5089  -13.4783 N   0  0  0  0  0  0  0  0  0  0  0  0
   26.2010  -21.4339  -12.2565 C   0  0  0  0  0  0  0  0  0  0  0  0
   25.9644  -22.6310  -11.9791 O   0  0  0  0  0  0  0  0  0  0  0  0
   26.9274  -19.4109   -7.2965 C   0  0  0  0  0  0  0  0  0  0  0  0
   26.6000  -20.4057   -8.3989 C   0  0  1  0  0  0  0  0  0  0  0  0
   26.4799  -21.8003   -7.8051 C   0  0  0  0  0  0  0  0  0  0  0  0
   25.3151  -19.9399   -9.0242 C   0  0  0  0  0  0  0  0  0  0  0  0
   24.9613  -20.8326  -10.1725 C   0  0  2  0  0  0  0  0  0  0  0  0
   25.7786  -20.4558  -11.3048 N   0  0  0  0  0  0  0  0  0  0  0  0
   23.5352  -20.6409  -10.5583 C   0  0  0  0  0  0  0  0  0  0  0  0
   22.6177  -20.9387   -9.7817 O   0  0  0  0  0  0  0  0  0  0  0  0
   21.2728  -16.4112  -17.7997 N   0  0  0  0  0  0  0  0  0  0  0  0
   21.6366  -17.7678  -17.5765 C   0  0  0  0  0  0  0  0  0  0  0  0
   22.0885  -18.4502  -18.5634 N   0  0  0  0  0  0  0  0  0  0  0  0
   21.5163  -18.3823  -16.3056 N   0  0  0  0  0  0  0  0  0  0  0  0
   20.5239  -17.9662  -15.3352 C   0  0  0  0  0  0  0  0  0  0  0  0
   20.5806  -18.7269  -14.0689 C   0  0  0  0  0  0  0  0  0  0  0  0
   21.8943  -19.1253  -13.5330 C   0  0  0  0  0  0  0  0  0  0  0  0
   21.8788  -19.9170  -12.2704 C   0  0  2  0  0  0  0  0  0  0  0  0
   23.2712  -20.1122  -11.8304 N   0  0  0  0  0  0  0  0  0  0  0  0
   21.2837  -21.2515  -12.3271 C   0  0  0  0  0  0  0  0  0  0  0  0
   21.9205  -22.3030  -12.6743 O   0  0  0  0  0  0  0  0  0  0  0  0
   19.9529  -21.4556  -11.9952 O   0  0  0  0  0  0  0  0  0  0  0  0
  1  2  1  0
  2  3  2  0
  4  5  1  0
  4  2  1  0
  6  8  1  0
  6  5  1  0
  6  7  1  1
  8  9  2  0
 11 10  1  1
 11 13  1  0
 12 11  1  0
 14 13  1  1
 14 16  1  0
 15 14  1  0
 15  8  1  0
 16 17  2  0
 18 19  1  0
 19 20  2  0
 19 21  1  0
 21 22  1  0
 23 22  1  0
 23 24  1  0
 25 24  1  6
 25 27  1  0
 26 25  1  0
 26 16  1  0
 27 28  2  0
 27 29  1  0
M  END
$$$$
