QLR.pdb
     RDKit          3D

 29 28  0  0  1  0  0  0  0  0999 V2000
   23.4695   -4.4660  -14.9321 N   0  0  0  0  0  0  0  0  0  0  0  0
   22.1816   -3.9204  -15.1025 C   0  0  0  0  0  0  0  0  0  0  0  0
   21.8235   -2.8487  -14.6016 O   0  0  0  0  0  0  0  0  0  0  0  0
   21.1874   -4.6774  -15.9368 C   0  0  0  0  0  0  0  0  0  0  0  0
   21.8215   -5.8957  -16.5393 C   0  0  0  0  0  0  0  0  0  0  0  0
   21.6724   -7.0782  -15.6420 C   0  0  2  0  0  0  0  0  0  0  0  0
   22.4891   -6.9151  -14.4293 N   0  0  0  0  0  0  0  0  0  0  0  0
   22.0815   -8.3140  -16.3184 C   0  0  0  0  0  0  0  0  0  0  0  0
   21.6038   -8.7231  -17.4001 O   0  0  0  0  0  0  0  0  0  0  0  0
   27.1085  -10.2661  -15.1081 C   0  0  0  0  0  0  0  0  0  0  0  0
   25.9372   -9.8361  -15.9771 C   0  0  1  0  0  0  0  0  0  0  0  0
   26.3444   -9.8899  -17.4410 C   0  0  0  0  0  0  0  0  0  0  0  0
   24.8078  -10.7772  -15.6646 C   0  0  0  0  0  0  0  0  0  0  0  0
   23.5655  -10.3233  -16.3655 C   0  0  2  0  0  0  0  0  0  0  0  0
   23.0953   -9.1198  -15.7153 N   0  0  0  0  0  0  0  0  0  0  0  0
   22.4955  -11.3526  -16.2436 C   0  0  0  0  0  0  0  0  0  0  0  0
   21.9713  -11.6028  -15.1499 O   0  0  0  0  0  0  0  0  0  0  0  0
   16.4601  -14.4028  -21.6917 N   0  0  0  0  0  0  0  0  0  0  0  0
   15.9587  -14.5573  -20.3698 C   0  0  0  0  0  0  0  0  0  0  0  0
   14.7734  -15.0210  -20.2155 N   0  0  0  0  0  0  0  0  0  0  0  0
   16.7248  -14.2173  -19.2274 N   0  0  0  0  0  0  0  0  0  0  0  0
   17.9206  -13.4034  -19.3113 C   0  0  0  0  0  0  0  0  0  0  0  0
   18.5633  -13.1612  -18.0021 C   0  0  0  0  0  0  0  0  0  0  0  0
   19.7853  -12.3393  -17.9473 C   0  0  0  0  0  0  0  0  0  0  0  0
   20.9925  -12.9906  -17.3646 C   0  0  2  0  0  0  0  0  0  0  0  0
   22.1053  -12.0262  -17.4104 N   0  0  0  0  0  0  0  0  0  0  0  0
   21.4812  -14.2008  -18.0241 C   0  0  0  0  0  0  0  0  0  0  0  0
   22.4440  -14.2174  -18.8634 O   0  0  0  0  0  0  0  0  0  0  0  0
   20.9087  -15.4370  -17.7651 O   0  0  0  0  0  0  0  0  0  0  0  0
  1  2  1  0
  2  3  2  0
  4  5  1  0
  4  2  1  0
  6  8  1  0
  6  5  1  0
  6  7  1  1
  8  9  2  0
 11 10  1  1
 11 13  1  0
 12 11  1  0
 14 13  1  1
 14 16  1  0
 15 14  1  0
 15  8  1  0
 16 17  2  0
 18 19  1  0
 19 20  2  0
 19 21  1  0
 21 22  1  0
 23 22  1  0
 23 24  1  0
 25 24  1  6
 25 27  1  0
 26 25  1  0
 26 16  1  0
 27 28  2  0
 27 29  1  0
M  END
$$$$
