QLR.pdb
     RDKit          3D

 29 28  0  0  1  0  0  0  0  0999 V2000
   27.4099  -20.8825  -17.8078 N   0  0  0  0  0  0  0  0  0  0  0  0
   28.4694  -19.9538  -17.8256 C   0  0  0  0  0  0  0  0  0  0  0  0
   28.7771  -19.2896  -18.8215 O   0  0  0  0  0  0  0  0  0  0  0  0
   29.2707  -19.7568  -16.5700 C   0  0  0  0  0  0  0  0  0  0  0  0
   28.7164  -20.5899  -15.4528 C   0  0  0  0  0  0  0  0  0  0  0  0
   27.8673  -19.7691  -14.5410 C   0  0  2  0  0  0  0  0  0  0  0  0
   28.6021  -18.5821  -14.0771 N   0  0  0  0  0  0  0  0  0  0  0  0
   27.4424  -20.5433  -13.3697 C   0  0  0  0  0  0  0  0  0  0  0  0
   27.0465  -21.7297  -13.4080 O   0  0  0  0  0  0  0  0  0  0  0  0
   26.6171  -21.8300   -8.4377 C   0  0  0  0  0  0  0  0  0  0  0  0
   26.5106  -20.3160   -8.5291 C   0  0  1  0  0  0  0  0  0  0  0  0
   26.9950  -19.6934   -7.2293 C   0  0  0  0  0  0  0  0  0  0  0  0
   27.3478  -19.9012   -9.7065 C   0  0  0  0  0  0  0  0  0  0  0  0
   26.7927  -20.5073  -10.9576 C   0  0  2  0  0  0  0  0  0  0  0  0
   27.4763  -19.9158  -12.0867 N   0  0  0  0  0  0  0  0  0  0  0  0
   25.3429  -20.1909  -11.0883 C   0  0  0  0  0  0  0  0  0  0  0  0
   24.9209  -19.0410  -10.9060 O   0  0  0  0  0  0  0  0  0  0  0  0
   17.6392  -22.7615  -13.2163 N   0  0  0  0  0  0  0  0  0  0  0  0
   18.1033  -22.0853  -14.3781 C   0  0  0  0  0  0  0  0  0  0  0  0
   17.2489  -21.4711  -15.1106 N   0  0  0  0  0  0  0  0  0  0  0  0
   19.4713  -22.0697  -14.7465 N   0  0  0  0  0  0  0  0  0  0  0  0
   20.4955  -22.7126  -13.9483 C   0  0  0  0  0  0  0  0  0  0  0  0
   21.0694  -21.8354  -12.9058 C   0  0  0  0  0  0  0  0  0  0  0  0
   22.5290  -21.8276  -12.7027 C   0  0  0  0  0  0  0  0  0  0  0  0
   23.0347  -20.9812  -11.5852 C   0  0  2  0  0  0  0  0  0  0  0  0
   24.4759  -21.2411  -11.4243 N   0  0  0  0  0  0  0  0  0  0  0  0
   22.4381  -21.1911  -10.2668 C   0  0  0  0  0  0  0  0  0  0  0  0
   22.9138  -21.9845   -9.3859 O   0  0  0  0  0  0  0  0  0  0  0  0
   21.2868  -20.5176   -9.8875 O   0  0  0  0  0  0  0  0  0  0  0  0
  1  2  1  0
  2  3  2  0
  4  5  1  0
  4  2  1  0
  6  8  1  0
  6  5  1  0
  6  7  1  1
  8  9  2  0
 11 10  1  1
 11 13  1  0
 12 11  1  0
 14 13  1  1
 14 16  1  0
 15 14  1  0
 15  8  1  0
 16 17  2  0
 18 19  1  0
 19 20  2  0
 19 21  1  0
 21 22  1  0
 23 22  1  0
 23 24  1  0
 25 24  1  6
 25 27  1  0
 26 25  1  0
 26 16  1  0
 27 28  2  0
 27 29  1  0
M  END
$$$$
