QLR.pdb
     RDKit          3D

 29 28  0  0  1  0  0  0  0  0999 V2000
   20.2408  -23.1064  -19.1357 N   0  0  0  0  0  0  0  0  0  0  0  0
   21.0279  -24.2534  -19.3600 C   0  0  0  0  0  0  0  0  0  0  0  0
   21.5190  -24.5393  -20.4576 O   0  0  0  0  0  0  0  0  0  0  0  0
   21.2871  -25.1811  -18.2069 C   0  0  0  0  0  0  0  0  0  0  0  0
   20.5275  -24.7392  -16.9916 C   0  0  0  0  0  0  0  0  0  0  0  0
   21.4514  -24.2297  -15.9367 C   0  0  2  0  0  0  0  0  0  0  0  0
   22.3404  -25.3022  -15.4641 N   0  0  0  0  0  0  0  0  0  0  0  0
   20.7072  -23.6996  -14.7890 C   0  0  0  0  0  0  0  0  0  0  0  0
   20.6151  -24.2684  -13.6782 O   0  0  0  0  0  0  0  0  0  0  0  0
   20.5124  -18.4454  -14.4387 C   0  0  0  0  0  0  0  0  0  0  0  0
   20.5515  -19.8342  -13.8211 C   0  0  1  0  0  0  0  0  0  0  0  0
   20.9377  -19.7270  -12.3544 C   0  0  0  0  0  0  0  0  0  0  0  0
   19.1807  -20.4215  -14.0081 C   0  0  0  0  0  0  0  0  0  0  0  0
   19.2434  -21.9083  -13.8456 C   0  0  2  0  0  0  0  0  0  0  0  0
   20.0345  -22.4472  -14.9300 N   0  0  0  0  0  0  0  0  0  0  0  0
   17.8790  -22.4986  -13.9423 C   0  0  0  0  0  0  0  0  0  0  0  0
   17.2652  -22.5162  -15.0176 O   0  0  0  0  0  0  0  0  0  0  0  0
   15.9962  -27.5350   -9.8968 N   0  0  0  0  0  0  0  0  0  0  0  0
   17.1043  -26.9714   -9.2060 C   0  0  0  0  0  0  0  0  0  0  0  0
   18.1119  -27.7220   -8.9508 N   0  0  0  0  0  0  0  0  0  0  0  0
   17.1277  -25.6155   -8.7956 N   0  0  0  0  0  0  0  0  0  0  0  0
   16.0424  -24.7001   -9.0851 C   0  0  0  0  0  0  0  0  0  0  0  0
   16.2409  -23.9224  -10.3266 C   0  0  0  0  0  0  0  0  0  0  0  0
   15.8203  -24.5084  -11.6117 C   0  0  0  0  0  0  0  0  0  0  0  0
   15.9766  -23.6419  -12.8141 C   0  0  2  0  0  0  0  0  0  0  0  0
   17.3170  -23.0320  -12.7730 N   0  0  0  0  0  0  0  0  0  0  0  0
   15.0345  -22.5338  -12.9648 C   0  0  0  0  0  0  0  0  0  0  0  0
   15.2463  -21.3522  -12.5282 O   0  0  0  0  0  0  0  0  0  0  0  0
   13.8208  -22.7101  -13.6119 O   0  0  0  0  0  0  0  0  0  0  0  0
  1  2  1  0
  2  3  2  0
  4  5  1  0
  4  2  1  0
  6  8  1  0
  6  5  1  0
  6  7  1  1
  8  9  2  0
 11 10  1  1
 11 13  1  0
 12 11  1  0
 14 13  1  6
 14 16  1  0
 15 14  1  0
 15  8  1  0
 16 17  2  0
 18 19  1  0
 19 20  2  0
 19 21  1  0
 21 22  1  0
 23 22  1  0
 23 24  1  0
 25 24  1  1
 25 27  1  0
 26 25  1  0
 26 16  1  0
 27 28  2  0
 27 29  1  0
M  END
$$$$
