QLR.pdb
     RDKit          3D

 29 28  0  0  1  0  0  0  0  0999 V2000
   25.4680  -22.0331  -21.7287 N   0  0  0  0  0  0  0  0  0  0  0  0
   25.7276  -20.8419  -22.4351 C   0  0  0  0  0  0  0  0  0  0  0  0
   26.0180  -20.8110  -23.6361 O   0  0  0  0  0  0  0  0  0  0  0  0
   25.6482  -19.5375  -21.6938 C   0  0  0  0  0  0  0  0  0  0  0  0
   25.1189  -19.7491  -20.3065 C   0  0  0  0  0  0  0  0  0  0  0  0
   26.0387  -19.1669  -19.2862 C   0  0  2  0  0  0  0  0  0  0  0  0
   27.2840  -19.9460  -19.2063 N   0  0  0  0  0  0  0  0  0  0  0  0
   25.4149  -19.1452  -17.9587 C   0  0  0  0  0  0  0  0  0  0  0  0
   25.4329  -20.0997  -17.1497 O   0  0  0  0  0  0  0  0  0  0  0  0
   25.4822  -14.2957  -15.8797 C   0  0  0  0  0  0  0  0  0  0  0  0
   25.6193  -15.8050  -16.0027 C   0  0  1  0  0  0  0  0  0  0  0  0
   26.5848  -16.3151  -14.9446 C   0  0  0  0  0  0  0  0  0  0  0  0
   24.2378  -16.3726  -15.8347 C   0  0  0  0  0  0  0  0  0  0  0  0
   24.2446  -17.8272  -16.1881 C   0  0  2  0  0  0  0  0  0  0  0  0
   24.7349  -17.9597  -17.5424 N   0  0  0  0  0  0  0  0  0  0  0  0
   22.8603  -18.3765  -16.1508 C   0  0  0  0  0  0  0  0  0  0  0  0
   22.0337  -18.0856  -17.0258 O   0  0  0  0  0  0  0  0  0  0  0  0
   23.8787  -24.0727  -15.6171 N   0  0  0  0  0  0  0  0  0  0  0  0
   23.7350  -24.0094  -14.2036 C   0  0  0  0  0  0  0  0  0  0  0  0
   24.7810  -24.1493  -13.4756 N   0  0  0  0  0  0  0  0  0  0  0  0
   22.4800  -23.7972  -13.5812 N   0  0  0  0  0  0  0  0  0  0  0  0
   21.2571  -23.6322  -14.3407 C   0  0  0  0  0  0  0  0  0  0  0  0
   21.1644  -22.3307  -15.0357 C   0  0  0  0  0  0  0  0  0  0  0  0
   21.2621  -21.0904  -14.2458 C   0  0  0  0  0  0  0  0  0  0  0  0
   21.1775  -19.8137  -15.0099 C   0  0  2  0  0  0  0  0  0  0  0  0
   22.5290  -19.2330  -15.0905 N   0  0  0  0  0  0  0  0  0  0  0  0
   20.3202  -18.7637  -14.4615 C   0  0  0  0  0  0  0  0  0  0  0  0
   20.6897  -17.9396  -13.5581 O   0  0  0  0  0  0  0  0  0  0  0  0
   19.0175  -18.5987  -14.9072 O   0  0  0  0  0  0  0  0  0  0  0  0
  1  2  1  0
  2  3  2  0
  4  5  1  0
  4  2  1  0
  6  8  1  0
  6  5  1  0
  6  7  1  1
  8  9  2  0
 11 10  1  1
 11 13  1  0
 12 11  1  0
 14 13  1  6
 14 16  1  0
 15 14  1  0
 15  8  1  0
 16 17  2  0
 18 19  1  0
 19 20  2  0
 19 21  1  0
 21 22  1  0
 23 22  1  0
 23 24  1  0
 25 24  1  1
 25 27  1  0
 26 25  1  0
 26 16  1  0
 27 28  2  0
 27 29  1  0
M  END
$$$$
