QLR.pdb
     RDKit          3D

 29 28  0  0  1  0  0  0  0  0999 V2000
   21.2433  -12.6940  -21.2662 N   0  0  0  0  0  0  0  0  0  0  0  0
   20.4660  -13.8634  -21.3826 C   0  0  0  0  0  0  0  0  0  0  0  0
   20.2752  -14.4516  -22.4528 O   0  0  0  0  0  0  0  0  0  0  0  0
   19.8335  -14.4295  -20.1428 C   0  0  0  0  0  0  0  0  0  0  0  0
   20.1318  -13.5643  -18.9547 C   0  0  0  0  0  0  0  0  0  0  0  0
   21.2532  -14.1278  -18.1480 C   0  0  2  0  0  0  0  0  0  0  0  0
   20.8219  -15.3419  -17.4378 N   0  0  0  0  0  0  0  0  0  0  0  0
   21.7389  -13.1569  -17.1614 C   0  0  0  0  0  0  0  0  0  0  0  0
   21.0922  -12.7786  -16.1592 O   0  0  0  0  0  0  0  0  0  0  0  0
   25.3001  -10.6362  -14.3943 C   0  0  0  0  0  0  0  0  0  0  0  0
   25.5150  -10.2602  -15.8518 C   0  0  1  0  0  0  0  0  0  0  0  0
   26.9927   -9.9986  -16.0962 C   0  0  0  0  0  0  0  0  0  0  0  0
   24.9971  -11.4107  -16.6686 C   0  0  0  0  0  0  0  0  0  0  0  0
   23.5230  -11.5575  -16.4538 C   0  0  2  0  0  0  0  0  0  0  0  0
   23.0393  -12.5930  -17.3403 N   0  0  0  0  0  0  0  0  0  0  0  0
   22.8190  -10.2929  -16.8064 C   0  0  0  0  0  0  0  0  0  0  0  0
   22.7568   -9.9020  -17.9798 O   0  0  0  0  0  0  0  0  0  0  0  0
   16.7284   -7.1811  -19.8546 N   0  0  0  0  0  0  0  0  0  0  0  0
   16.4292   -7.9861  -18.7210 C   0  0  0  0  0  0  0  0  0  0  0  0
   15.3981   -8.7468  -18.7659 N   0  0  0  0  0  0  0  0  0  0  0  0
   17.2311   -7.9730  -17.5529 N   0  0  0  0  0  0  0  0  0  0  0  0
   18.4098   -7.1389  -17.4324 C   0  0  0  0  0  0  0  0  0  0  0  0
   19.1926   -7.3965  -16.2050 C   0  0  0  0  0  0  0  0  0  0  0  0
   20.0785   -8.5732  -16.1563 C   0  0  0  0  0  0  0  0  0  0  0  0
   21.5389   -8.2952  -16.0515 C   0  0  2  0  0  0  0  0  0  0  0  0
   22.2309   -9.5633  -15.7626 N   0  0  0  0  0  0  0  0  0  0  0  0
   21.9666   -7.3577  -15.0141 C   0  0  0  0  0  0  0  0  0  0  0  0
   22.2962   -7.7048  -13.8298 O   0  0  0  0  0  0  0  0  0  0  0  0
   22.0418   -5.9964  -15.2675 O   0  0  0  0  0  0  0  0  0  0  0  0
  1  2  1  0
  2  3  2  0
  4  5  1  0
  4  2  1  0
  6  8  1  0
  6  5  1  0
  6  7  1  1
  8  9  2  0
 11 10  1  1
 11 13  1  0
 12 11  1  0
 14 13  1  6
 14 16  1  0
 15 14  1  0
 15  8  1  0
 16 17  2  0
 18 19  1  0
 19 20  2  0
 19 21  1  0
 21 22  1  0
 23 22  1  0
 23 24  1  0
 25 24  1  1
 25 27  1  0
 26 25  1  0
 26 16  1  0
 27 28  2  0
 27 29  1  0
M  END
$$$$
