QLR.pdb
     RDKit          3D

 29 28  0  0  1  0  0  0  0  0999 V2000
   29.8937  -21.2824  -19.1970 N   0  0  0  0  0  0  0  0  0  0  0  0
   30.1030  -19.8891  -19.1793 C   0  0  0  0  0  0  0  0  0  0  0  0
   30.6315  -19.2673  -20.1076 O   0  0  0  0  0  0  0  0  0  0  0  0
   29.6620  -19.1136  -17.9703 C   0  0  0  0  0  0  0  0  0  0  0  0
   29.1359  -20.0375  -16.9125 C   0  0  0  0  0  0  0  0  0  0  0  0
   28.6337  -19.2734  -15.7335 C   0  0  2  0  0  0  0  0  0  0  0  0
   29.6310  -18.2858  -15.2929 N   0  0  0  0  0  0  0  0  0  0  0  0
   28.3325  -20.1669  -14.6098 C   0  0  0  0  0  0  0  0  0  0  0  0
   27.5778  -21.1629  -14.6769 O   0  0  0  0  0  0  0  0  0  0  0  0
   31.9278  -21.0258  -10.5895 C   0  0  0  0  0  0  0  0  0  0  0  0
   30.8488  -21.2445  -11.6383 C   0  0  1  0  0  0  0  0  0  0  0  0
   30.6049  -22.7351  -11.8127 C   0  0  0  0  0  0  0  0  0  0  0  0
   29.6264  -20.5205  -11.1480 C   0  0  0  0  0  0  0  0  0  0  0  0
   28.5326  -20.6341  -12.1637 C   0  0  2  0  0  0  0  0  0  0  0  0
   28.9338  -19.8976  -13.3422 N   0  0  0  0  0  0  0  0  0  0  0  0
   27.2791  -20.0166  -11.6474 C   0  0  0  0  0  0  0  0  0  0  0  0
   27.0345  -18.8168  -11.8328 O   0  0  0  0  0  0  0  0  0  0  0  0
   20.2011  -20.3479  -14.7498 N   0  0  0  0  0  0  0  0  0  0  0  0
   19.7620  -20.6663  -13.4351 C   0  0  0  0  0  0  0  0  0  0  0  0
   18.5118  -20.8745  -13.2415 N   0  0  0  0  0  0  0  0  0  0  0  0
   20.6584  -20.7605  -12.3419 N   0  0  0  0  0  0  0  0  0  0  0  0
   22.0388  -20.3295  -12.4332 C   0  0  0  0  0  0  0  0  0  0  0  0
   23.0088  -21.4448  -12.4062 C   0  0  0  0  0  0  0  0  0  0  0  0
   24.4481  -21.1382  -12.3290 C   0  0  0  0  0  0  0  0  0  0  0  0
   24.9384  -20.5980  -11.0294 C   0  0  2  0  0  0  0  0  0  0  0  0
   26.3888  -20.8423  -10.9453 N   0  0  0  0  0  0  0  0  0  0  0  0
   24.3631  -21.1665   -9.8112 C   0  0  0  0  0  0  0  0  0  0  0  0
   24.7009  -22.2972   -9.3222 O   0  0  0  0  0  0  0  0  0  0  0  0
   23.3886  -20.4869   -9.0960 O   0  0  0  0  0  0  0  0  0  0  0  0
  1  2  1  0
  2  3  2  0
  4  5  1  0
  4  2  1  0
  6  8  1  0
  6  5  1  0
  6  7  1  1
  8  9  2  0
 11 10  1  1
 11 13  1  0
 12 11  1  0
 14 13  1  1
 14 16  1  0
 15 14  1  0
 15  8  1  0
 16 17  2  0
 18 19  1  0
 19 20  2  0
 19 21  1  0
 21 22  1  0
 23 22  1  0
 23 24  1  0
 25 24  1  6
 25 27  1  0
 26 25  1  0
 26 16  1  0
 27 28  2  0
 27 29  1  0
M  END
$$$$
