QLR.pdb
     RDKit          3D

 29 28  0  0  1  0  0  0  0  0999 V2000
   26.6332  -18.6604  -19.5985 N   0  0  0  0  0  0  0  0  0  0  0  0
   27.8283  -19.2291  -20.0818 C   0  0  0  0  0  0  0  0  0  0  0  0
   28.3377  -18.9259  -21.1664 O   0  0  0  0  0  0  0  0  0  0  0  0
   28.5244  -20.2589  -19.2378 C   0  0  0  0  0  0  0  0  0  0  0  0
   27.6508  -20.6845  -18.0954 C   0  0  0  0  0  0  0  0  0  0  0  0
   27.9484  -19.8913  -16.8673 C   0  0  2  0  0  0  0  0  0  0  0  0
   29.2304  -19.1833  -17.0055 N   0  0  0  0  0  0  0  0  0  0  0  0
   28.0152  -20.7522  -15.6814 C   0  0  0  0  0  0  0  0  0  0  0  0
   27.4689  -21.8739  -15.5864 O   0  0  0  0  0  0  0  0  0  0  0  0
   29.7084  -22.7568  -11.2907 C   0  0  0  0  0  0  0  0  0  0  0  0
   29.6727  -21.2519  -11.0763 C   0  0  1  0  0  0  0  0  0  0  0  0
   30.7979  -20.8458  -10.1378 C   0  0  0  0  0  0  0  0  0  0  0  0
   29.8102  -20.6254  -12.4356 C   0  0  0  0  0  0  0  0  0  0  0  0
   28.6014  -20.9411  -13.2602 C   0  0  2  0  0  0  0  0  0  0  0  0
   28.7514  -20.2951  -14.5456 N   0  0  0  0  0  0  0  0  0  0  0  0
   27.3759  -20.3909  -12.6160 C   0  0  0  0  0  0  0  0  0  0  0  0
   27.1743  -19.1702  -12.5647 O   0  0  0  0  0  0  0  0  0  0  0  0
   20.0012  -18.7864  -14.6329 N   0  0  0  0  0  0  0  0  0  0  0  0
   19.6719  -19.2915  -13.3449 C   0  0  0  0  0  0  0  0  0  0  0  0
   18.4906  -19.0857  -12.8909 N   0  0  0  0  0  0  0  0  0  0  0  0
   20.6030  -20.0104  -12.5552 N   0  0  0  0  0  0  0  0  0  0  0  0
   21.9636  -20.2525  -12.9907 C   0  0  0  0  0  0  0  0  0  0  0  0
   22.6975  -21.2069  -12.1327 C   0  0  0  0  0  0  0  0  0  0  0  0
   24.1006  -21.5230  -12.4536 C   0  0  0  0  0  0  0  0  0  0  0  0
   25.1360  -20.8408  -11.6266 C   0  0  2  0  0  0  0  0  0  0  0  0
   26.4617  -21.3046  -12.0711 N   0  0  0  0  0  0  0  0  0  0  0  0
   25.0930  -21.0686  -10.1828 C   0  0  0  0  0  0  0  0  0  0  0  0
   25.7252  -22.0062   -9.5888 O   0  0  0  0  0  0  0  0  0  0  0  0
   24.3403  -20.2522   -9.3523 O   0  0  0  0  0  0  0  0  0  0  0  0
  1  2  1  0
  2  3  2  0
  4  5  1  0
  4  2  1  0
  6  8  1  0
  6  5  1  0
  6  7  1  6
  8  9  2  0
 11 10  1  6
 11 13  1  0
 12 11  1  0
 14 13  1  1
 14 16  1  0
 15 14  1  0
 15  8  1  0
 16 17  2  0
 18 19  1  0
 19 20  2  0
 19 21  1  0
 21 22  1  0
 23 22  1  0
 23 24  1  0
 25 24  1  6
 25 27  1  0
 26 25  1  0
 26 16  1  0
 27 28  2  0
 27 29  1  0
M  END
$$$$
