QLR.pdb
     RDKit          3D

 29 28  0  0  1  0  0  0  0  0999 V2000
   26.7863  -20.3982  -15.8934 N   0  0  0  0  0  0  0  0  0  0  0  0
   27.7897  -21.3171  -15.5271 C   0  0  0  0  0  0  0  0  0  0  0  0
   27.9659  -22.3983  -16.0995 O   0  0  0  0  0  0  0  0  0  0  0  0
   28.6961  -20.9689  -14.3805 C   0  0  0  0  0  0  0  0  0  0  0  0
   28.3889  -19.5956  -13.8617 C   0  0  0  0  0  0  0  0  0  0  0  0
   28.7943  -19.4583  -12.4325 C   0  0  2  0  0  0  0  0  0  0  0  0
   30.1599  -19.9662  -12.2299 N   0  0  0  0  0  0  0  0  0  0  0  0
   27.8852  -20.1962  -11.5487 C   0  0  0  0  0  0  0  0  0  0  0  0
   27.3514  -21.2916  -11.8334 O   0  0  0  0  0  0  0  0  0  0  0  0
   28.4708  -19.5168   -6.1436 C   0  0  0  0  0  0  0  0  0  0  0  0
   28.3069  -20.1364   -7.5224 C   0  0  1  0  0  0  0  0  0  0  0  0
   28.5259  -21.6384   -7.4334 C   0  0  0  0  0  0  0  0  0  0  0  0
   26.9188  -19.7891   -7.9824 C   0  0  0  0  0  0  0  0  0  0  0  0
   26.6927  -20.3352   -9.3577 C   0  0  2  0  0  0  0  0  0  0  0  0
   27.5761  -19.6414  -10.2690 N   0  0  0  0  0  0  0  0  0  0  0  0
   25.2929  -20.0744   -9.7957 C   0  0  0  0  0  0  0  0  0  0  0  0
   24.8162  -18.9319   -9.7648 O   0  0  0  0  0  0  0  0  0  0  0  0
   20.9328  -24.6000  -16.1522 N   0  0  0  0  0  0  0  0  0  0  0  0
   20.5652  -23.2286  -16.0718 C   0  0  0  0  0  0  0  0  0  0  0  0
   19.9363  -22.7050  -17.0587 N   0  0  0  0  0  0  0  0  0  0  0  0
   20.8702  -22.4303  -14.9416 N   0  0  0  0  0  0  0  0  0  0  0  0
   21.6194  -22.9419  -13.8118 C   0  0  0  0  0  0  0  0  0  0  0  0
   21.8333  -21.9426  -12.7435 C   0  0  0  0  0  0  0  0  0  0  0  0
   23.1245  -21.9209  -12.0336 C   0  0  0  0  0  0  0  0  0  0  0  0
   23.2458  -20.9431  -10.9154 C   0  0  2  0  0  0  0  0  0  0  0  0
   24.5371  -21.1682  -10.2430 N   0  0  0  0  0  0  0  0  0  0  0  0
   22.2296  -21.0010   -9.8656 C   0  0  0  0  0  0  0  0  0  0  0  0
   22.4563  -21.4009   -8.6737 O   0  0  0  0  0  0  0  0  0  0  0  0
   20.9222  -20.6112  -10.1137 O   0  0  0  0  0  0  0  0  0  0  0  0
  1  2  1  0
  2  3  2  0
  4  5  1  0
  4  2  1  0
  6  8  1  0
  6  5  1  0
  6  7  1  6
  8  9  2  0
 11 10  1  1
 11 13  1  0
 12 11  1  0
 14 13  1  1
 14 16  1  0
 15 14  1  0
 15  8  1  0
 16 17  2  0
 18 19  1  0
 19 20  2  0
 19 21  1  0
 21 22  1  0
 23 22  1  0
 23 24  1  0
 25 24  1  6
 25 27  1  0
 26 25  1  0
 26 16  1  0
 27 28  2  0
 27 29  1  0
M  END
$$$$
