QLR.pdb
     RDKit          3D

 29 28  0  0  1  0  0  0  0  0999 V2000
   25.7940   -4.8882  -20.3233 N   0  0  0  0  0  0  0  0  0  0  0  0
   26.6068   -5.3316  -21.3854 C   0  0  0  0  0  0  0  0  0  0  0  0
   27.3318   -4.5814  -22.0482 O   0  0  0  0  0  0  0  0  0  0  0  0
   26.5956   -6.7929  -21.7345 C   0  0  0  0  0  0  0  0  0  0  0  0
   25.6333   -7.5384  -20.8583 C   0  0  0  0  0  0  0  0  0  0  0  0
   26.1827   -8.8696  -20.4683 C   0  0  2  0  0  0  0  0  0  0  0  0
   26.2681   -9.7579  -21.6378 N   0  0  0  0  0  0  0  0  0  0  0  0
   25.3438   -9.5140  -19.4520 C   0  0  0  0  0  0  0  0  0  0  0  0
   24.3910  -10.2855  -19.7025 O   0  0  0  0  0  0  0  0  0  0  0  0
   27.6759  -11.5673  -15.1707 C   0  0  0  0  0  0  0  0  0  0  0  0
   26.7222  -11.3409  -16.3331 C   0  0  1  0  0  0  0  0  0  0  0  0
   25.9845  -12.6336  -16.6438 C   0  0  0  0  0  0  0  0  0  0  0  0
   25.7902  -10.2402  -15.9103 C   0  0  0  0  0  0  0  0  0  0  0  0
   24.8575   -9.9108  -17.0338 C   0  0  2  0  0  0  0  0  0  0  0  0
   25.6189   -9.2552  -18.0743 N   0  0  0  0  0  0  0  0  0  0  0  0
   23.8063   -8.9608  -16.5737 C   0  0  0  0  0  0  0  0  0  0  0  0
   24.0536   -7.7563  -16.4269 O   0  0  0  0  0  0  0  0  0  0  0  0
   14.7996   -9.9477  -16.3692 N   0  0  0  0  0  0  0  0  0  0  0  0
   15.1567   -8.6401  -15.9389 C   0  0  0  0  0  0  0  0  0  0  0  0
   14.2270   -7.7696  -15.7910 N   0  0  0  0  0  0  0  0  0  0  0  0
   16.4987   -8.2740  -15.6701 N   0  0  0  0  0  0  0  0  0  0  0  0
   17.6106   -9.1680  -15.9232 C   0  0  0  0  0  0  0  0  0  0  0  0
   18.9326   -8.5419  -15.7086 C   0  0  0  0  0  0  0  0  0  0  0  0
   20.1458   -9.2849  -16.0930 C   0  0  0  0  0  0  0  0  0  0  0  0
   21.4431   -8.5804  -15.8884 C   0  0  2  0  0  0  0  0  0  0  0  0
   22.5295   -9.4801  -16.3133 N   0  0  0  0  0  0  0  0  0  0  0  0
   21.7710   -8.1695  -14.5239 C   0  0  0  0  0  0  0  0  0  0  0  0
   22.3329   -8.9298  -13.6649 O   0  0  0  0  0  0  0  0  0  0  0  0
   21.4819   -6.8903  -14.0734 O   0  0  0  0  0  0  0  0  0  0  0  0
  1  2  1  0
  2  3  2  0
  4  5  1  0
  4  2  1  0
  6  8  1  0
  6  5  1  0
  6  7  1  6
  8  9  2  0
 11 10  1  1
 11 13  1  0
 12 11  1  0
 14 13  1  1
 14 16  1  0
 15 14  1  0
 15  8  1  0
 16 17  2  0
 18 19  1  0
 19 20  2  0
 19 21  1  0
 21 22  1  0
 23 22  1  0
 23 24  1  0
 25 24  1  1
 25 27  1  0
 26 25  1  0
 26 16  1  0
 27 28  2  0
 27 29  1  0
M  END
$$$$
