QLR.pdb
     RDKit          3D

 29 28  0  0  1  0  0  0  0  0999 V2000
   20.6016  -18.2532  -15.2772 N   0  0  0  0  0  0  0  0  0  0  0  0
   19.6647  -17.9830  -16.2943 C   0  0  0  0  0  0  0  0  0  0  0  0
   19.0114  -18.8601  -16.8701 O   0  0  0  0  0  0  0  0  0  0  0  0
   19.4443  -16.5544  -16.7043 C   0  0  0  0  0  0  0  0  0  0  0  0
   20.3654  -15.6404  -15.9523 C   0  0  0  0  0  0  0  0  0  0  0  0
   20.9223  -14.5843  -16.8470 C   0  0  2  0  0  0  0  0  0  0  0  0
   21.8281  -15.1747  -17.8445 N   0  0  0  0  0  0  0  0  0  0  0  0
   21.6632  -13.5756  -16.0819 C   0  0  0  0  0  0  0  0  0  0  0  0
   21.1985  -12.9382  -15.1105 O   0  0  0  0  0  0  0  0  0  0  0  0
   27.0165  -14.1597  -16.2330 C   0  0  0  0  0  0  0  0  0  0  0  0
   25.5944  -13.9607  -15.7329 C   0  0  1  0  0  0  0  0  0  0  0  0
   25.5316  -14.2686  -14.2452 C   0  0  0  0  0  0  0  0  0  0  0  0
   25.2331  -12.5335  -16.0353 C   0  0  0  0  0  0  0  0  0  0  0  0
   23.7855  -12.3051  -15.7302 C   0  0  2  0  0  0  0  0  0  0  0  0
   23.0113  -13.2873  -16.4569 N   0  0  0  0  0  0  0  0  0  0  0  0
   23.3630  -10.9561  -16.2001 C   0  0  0  0  0  0  0  0  0  0  0  0
   23.5231  -10.6109  -17.3786 O   0  0  0  0  0  0  0  0  0  0  0  0
   16.4941   -8.7398  -19.1351 N   0  0  0  0  0  0  0  0  0  0  0  0
   16.9717   -9.4703  -18.0122 C   0  0  0  0  0  0  0  0  0  0  0  0
   16.2515  -10.4265  -17.5532 N   0  0  0  0  0  0  0  0  0  0  0  0
   18.2106   -9.1754  -17.3913 N   0  0  0  0  0  0  0  0  0  0  0  0
   19.0723   -8.1054  -17.8520 C   0  0  0  0  0  0  0  0  0  0  0  0
   20.2659   -7.9014  -17.0039 C   0  0  0  0  0  0  0  0  0  0  0  0
   21.0516   -9.0746  -16.5821 C   0  0  0  0  0  0  0  0  0  0  0  0
   22.2191   -8.8027  -15.6967 C   0  0  2  0  0  0  0  0  0  0  0  0
   22.7788  -10.0937  -15.2606 N   0  0  0  0  0  0  0  0  0  0  0  0
   21.9664   -8.0401  -14.4749 C   0  0  0  0  0  0  0  0  0  0  0  0
   21.8575   -8.5649  -13.3154 O   0  0  0  0  0  0  0  0  0  0  0  0
   21.8278   -6.6608  -14.5087 O   0  0  0  0  0  0  0  0  0  0  0  0
  1  2  1  0
  2  3  2  0
  4  5  1  0
  4  2  1  0
  6  8  1  0
  6  5  1  0
  6  7  1  6
  8  9  2  0
 11 10  1  1
 11 13  1  0
 12 11  1  0
 14 13  1  6
 14 16  1  0
 15 14  1  0
 15  8  1  0
 16 17  2  0
 18 19  1  0
 19 20  2  0
 19 21  1  0
 21 22  1  0
 23 22  1  0
 23 24  1  0
 25 24  1  1
 25 27  1  0
 26 25  1  0
 26 16  1  0
 27 28  2  0
 27 29  1  0
M  END
$$$$
