QLR.pdb
     RDKit          3D

 29 28  0  0  1  0  0  0  0  0999 V2000
   29.9696  -18.8023  -16.6393 N   0  0  0  0  0  0  0  0  0  0  0  0
   28.7568  -18.6630  -17.3429 C   0  0  0  0  0  0  0  0  0  0  0  0
   28.6941  -18.4776  -18.5633 O   0  0  0  0  0  0  0  0  0  0  0  0
   27.4688  -18.7434  -16.5736 C   0  0  0  0  0  0  0  0  0  0  0  0
   27.7357  -18.7838  -15.0982 C   0  0  0  0  0  0  0  0  0  0  0  0
   28.1422  -20.1518  -14.6632 C   0  0  2  0  0  0  0  0  0  0  0  0
   28.2439  -21.0548  -15.8200 N   0  0  0  0  0  0  0  0  0  0  0  0
   27.1775  -20.7161  -13.7130 C   0  0  0  0  0  0  0  0  0  0  0  0
   26.3289  -21.5907  -13.9975 O   0  0  0  0  0  0  0  0  0  0  0  0
   25.5366  -22.0414   -8.8843 C   0  0  0  0  0  0  0  0  0  0  0  0
   25.5466  -20.5308   -9.0565 C   0  0  1  0  0  0  0  0  0  0  0  0
   25.7876  -19.8677   -7.7096 C   0  0  0  0  0  0  0  0  0  0  0  0
   26.6351  -20.2229  -10.0462 C   0  0  0  0  0  0  0  0  0  0  0  0
   26.2697  -20.7809  -11.3864 C   0  0  2  0  0  0  0  0  0  0  0  0
   27.1929  -20.2472  -12.3637 N   0  0  0  0  0  0  0  0  0  0  0  0
   24.8983  -20.3462  -11.7728 C   0  0  0  0  0  0  0  0  0  0  0  0
   24.6357  -19.1503  -11.9587 O   0  0  0  0  0  0  0  0  0  0  0  0
   21.5775  -20.4577  -18.0084 N   0  0  0  0  0  0  0  0  0  0  0  0
   20.3908  -19.9708  -17.3942 C   0  0  0  0  0  0  0  0  0  0  0  0
   19.3719  -19.7330  -18.1351 N   0  0  0  0  0  0  0  0  0  0  0  0
   20.3018  -19.7433  -15.9986 N   0  0  0  0  0  0  0  0  0  0  0  0
   21.3760  -20.0855  -15.0883 C   0  0  0  0  0  0  0  0  0  0  0  0
   21.2883  -21.4645  -14.5629 C   0  0  0  0  0  0  0  0  0  0  0  0
   22.2936  -21.9228  -13.5876 C   0  0  0  0  0  0  0  0  0  0  0  0
   22.5950  -20.9911  -12.4641 C   0  0  2  0  0  0  0  0  0  0  0  0
   23.9181  -21.3391  -11.9177 N   0  0  0  0  0  0  0  0  0  0  0  0
   21.6754  -20.9977  -11.3272 C   0  0  0  0  0  0  0  0  0  0  0  0
   21.9126  -21.5899  -10.2205 O   0  0  0  0  0  0  0  0  0  0  0  0
   20.4567  -20.3391  -11.3895 O   0  0  0  0  0  0  0  0  0  0  0  0
  1  2  1  0
  2  3  2  0
  4  5  1  0
  4  2  1  0
  6  8  1  0
  6  5  1  0
  6  7  1  6
  8  9  2  0
 11 10  1  1
 11 13  1  0
 12 11  1  0
 14 13  1  1
 14 16  1  0
 15 14  1  0
 15  8  1  0
 16 17  2  0
 18 19  1  0
 19 20  2  0
 19 21  1  0
 21 22  1  0
 23 22  1  0
 23 24  1  0
 25 24  1  6
 25 27  1  0
 26 25  1  0
 26 16  1  0
 27 28  2  0
 27 29  1  0
M  END
$$$$
