QLR.pdb
     RDKit          3D

 29 28  0  0  1  0  0  0  0  0999 V2000
   28.4105  -16.4738  -17.2393 N   0  0  0  0  0  0  0  0  0  0  0  0
   27.4104  -17.3422  -17.7197 C   0  0  0  0  0  0  0  0  0  0  0  0
   26.9745  -17.3069  -18.8758 O   0  0  0  0  0  0  0  0  0  0  0  0
   26.8404  -18.3675  -16.7809 C   0  0  0  0  0  0  0  0  0  0  0  0
   27.4289  -18.2143  -15.4099 C   0  0  0  0  0  0  0  0  0  0  0  0
   27.9121  -19.5240  -14.8835 C   0  0  2  0  0  0  0  0  0  0  0  0
   28.5469  -20.3101  -15.9527 N   0  0  0  0  0  0  0  0  0  0  0  0
   26.8097  -20.3090  -14.3176 C   0  0  0  0  0  0  0  0  0  0  0  0
   26.3138  -21.3256  -14.8529 O   0  0  0  0  0  0  0  0  0  0  0  0
   26.3544  -20.2880   -8.8106 C   0  0  0  0  0  0  0  0  0  0  0  0
   26.5036  -20.7022  -10.2659 C   0  0  1  0  0  0  0  0  0  0  0  0
   26.7602  -22.1988  -10.3442 C   0  0  0  0  0  0  0  0  0  0  0  0
   25.2274  -20.3060  -10.9538 C   0  0  0  0  0  0  0  0  0  0  0  0
   25.2772  -20.7273  -12.3893 C   0  0  2  0  0  0  0  0  0  0  0  0
   26.2503  -19.9001  -13.0683 N   0  0  0  0  0  0  0  0  0  0  0  0
   23.9569  -20.5033  -13.0418 C   0  0  0  0  0  0  0  0  0  0  0  0
   23.6167  -19.3760  -13.4250 O   0  0  0  0  0  0  0  0  0  0  0  0
   18.7550  -27.0218  -15.8222 N   0  0  0  0  0  0  0  0  0  0  0  0
   19.6793  -26.6424  -14.8102 C   0  0  0  0  0  0  0  0  0  0  0  0
   20.1551  -27.5533  -14.0436 N   0  0  0  0  0  0  0  0  0  0  0  0
   20.0873  -25.2981  -14.6260 N   0  0  0  0  0  0  0  0  0  0  0  0
   19.5256  -24.2062  -15.3953 C   0  0  0  0  0  0  0  0  0  0  0  0
   20.0804  -22.8838  -15.0360 C   0  0  0  0  0  0  0  0  0  0  0  0
   21.3912  -22.8170  -14.3660 C   0  0  0  0  0  0  0  0  0  0  0  0
   21.8347  -21.4665  -13.9180 C   0  0  2  0  0  0  0  0  0  0  0  0
   23.1157  -21.6138  -13.2053 N   0  0  0  0  0  0  0  0  0  0  0  0
   20.9489  -20.7414  -13.0082 C   0  0  0  0  0  0  0  0  0  0  0  0
   21.0911  -20.7204  -11.7389 O   0  0  0  0  0  0  0  0  0  0  0  0
   19.8719  -20.0121  -13.4889 O   0  0  0  0  0  0  0  0  0  0  0  0
  1  2  1  0
  2  3  2  0
  4  5  1  0
  4  2  1  0
  6  8  1  0
  6  5  1  0
  6  7  1  6
  8  9  2  0
 11 10  1  1
 11 13  1  0
 12 11  1  0
 14 13  1  1
 14 16  1  0
 15 14  1  0
 15  8  1  0
 16 17  2  0
 18 19  1  0
 19 20  2  0
 19 21  1  0
 21 22  1  0
 23 22  1  0
 23 24  1  0
 25 24  1  1
 25 27  1  0
 26 25  1  0
 26 16  1  0
 27 28  2  0
 27 29  1  0
M  END
$$$$
