QLR.pdb
     RDKit          3D

 29 28  0  0  1  0  0  0  0  0999 V2000
   28.7640  -26.3766  -16.2321 N   0  0  0  0  0  0  0  0  0  0  0  0
   28.3399  -26.2456  -17.5694 C   0  0  0  0  0  0  0  0  0  0  0  0
   28.5300  -27.1095  -18.4326 O   0  0  0  0  0  0  0  0  0  0  0  0
   27.6175  -24.9913  -17.9723 C   0  0  0  0  0  0  0  0  0  0  0  0
   27.3698  -24.1172  -16.7789 C   0  0  0  0  0  0  0  0  0  0  0  0
   27.9312  -22.7509  -16.9882 C   0  0  2  0  0  0  0  0  0  0  0  0
   29.3643  -22.7229  -16.6570 N   0  0  0  0  0  0  0  0  0  0  0  0
   27.2400  -21.7590  -16.1574 C   0  0  0  0  0  0  0  0  0  0  0  0
   27.4428  -21.5921  -14.9339 O   0  0  0  0  0  0  0  0  0  0  0  0
   27.6445  -16.9452  -17.4112 C   0  0  0  0  0  0  0  0  0  0  0  0
   27.3875  -18.1596  -16.5330 C   0  0  1  0  0  0  0  0  0  0  0  0
   27.6671  -17.8047  -15.0812 C   0  0  0  0  0  0  0  0  0  0  0  0
   25.9541  -18.5514  -16.7581 C   0  0  0  0  0  0  0  0  0  0  0  0
   25.6608  -19.8271  -16.0320 C   0  0  2  0  0  0  0  0  0  0  0  0
   26.2639  -20.9149  -16.7703 N   0  0  0  0  0  0  0  0  0  0  0  0
   24.1919  -20.0707  -15.9839 C   0  0  0  0  0  0  0  0  0  0  0  0
   23.5911  -20.5473  -16.9563 O   0  0  0  0  0  0  0  0  0  0  0  0
   25.0573  -19.7000  -10.9024 N   0  0  0  0  0  0  0  0  0  0  0  0
   24.3707  -20.3160   -9.8200 C   0  0  0  0  0  0  0  0  0  0  0  0
   25.0458  -20.6676   -8.7883 N   0  0  0  0  0  0  0  0  0  0  0  0
   22.9736  -20.5500   -9.8475 N   0  0  0  0  0  0  0  0  0  0  0  0
   22.1013  -19.9162  -10.8156 C   0  0  0  0  0  0  0  0  0  0  0  0
   22.4492  -20.2289  -12.2179 C   0  0  0  0  0  0  0  0  0  0  0  0
   21.6412  -19.6431  -13.3022 C   0  0  0  0  0  0  0  0  0  0  0  0
   22.0655  -19.9722  -14.6925 C   0  0  2  0  0  0  0  0  0  0  0  0
   23.5165  -19.7407  -14.7996 N   0  0  0  0  0  0  0  0  0  0  0  0
   21.4541  -19.2038  -15.7759 C   0  0  0  0  0  0  0  0  0  0  0  0
   21.8493  -18.0452  -16.1408 O   0  0  0  0  0  0  0  0  0  0  0  0
   20.3779  -19.7074  -16.4908 O   0  0  0  0  0  0  0  0  0  0  0  0
  1  2  1  0
  2  3  2  0
  4  5  1  0
  4  2  1  0
  6  8  1  0
  6  5  1  0
  6  7  1  1
  8  9  2  0
 11 10  1  6
 11 13  1  0
 12 11  1  0
 14 13  1  6
 14 16  1  0
 15 14  1  0
 15  8  1  0
 16 17  2  0
 18 19  1  0
 19 20  2  0
 19 21  1  0
 21 22  1  0
 23 22  1  0
 23 24  1  0
 25 24  1  1
 25 27  1  0
 26 25  1  0
 26 16  1  0
 27 28  2  0
 27 29  1  0
M  END
$$$$
