VSE.pdb
     RDKit          3D

 23 22  0  0  1  0  0  0  0  0999 V2000
   16.1887  -10.2872  -16.9325 C   0  0  0  0  0  0  0  0  0  0  0  0
   17.5065  -10.7360  -17.5203 C   0  0  2  0  0  0  0  0  0  0  0  0
   17.2145  -11.6289  -18.7129 C   0  0  0  0  0  0  0  0  0  0  0  0
   18.2753  -11.5749  -16.5197 C   0  0  2  0  0  0  0  0  0  0  0  0
   17.3069  -12.2392  -15.6699 N   0  0  0  0  0  0  0  0  0  0  0  0
   19.1941  -10.7866  -15.6926 C   0  0  0  0  0  0  0  0  0  0  0  0
   18.7658  -10.1262  -14.7330 O   0  0  0  0  0  0  0  0  0  0  0  0
   23.3154  -10.3497  -16.5705 O   0  0  0  0  0  0  0  0  0  0  0  0
   22.9101  -10.2602  -15.2376 C   0  0  0  0  0  0  0  0  0  0  0  0
   21.4744   -9.8602  -15.2078 C   0  0  2  0  0  0  0  0  0  0  0  0
   20.6020  -10.7305  -15.9327 N   0  0  0  0  0  0  0  0  0  0  0  0
   21.3454   -8.4342  -15.6704 C   0  0  0  0  0  0  0  0  0  0  0  0
   20.9932   -8.1858  -16.8382 O   0  0  0  0  0  0  0  0  0  0  0  0
   21.6140   -7.3637  -14.8124 N   0  0  0  0  0  0  0  0  0  0  0  0
   21.5536   -5.9615  -15.1726 C   0  0  1  0  0  0  0  0  0  0  0  0
   20.2358   -5.5405  -15.7078 C   0  0  0  0  0  0  0  0  0  0  0  0
   19.2581   -5.0498  -14.6674 C   0  0  0  0  0  0  0  0  0  0  0  0
   17.9912   -4.5826  -15.3500 C   0  0  0  0  0  0  0  0  0  0  0  0
   17.8899   -4.5799  -16.5988 O   0  0  0  0  0  0  0  0  0  0  0  0
   22.0623   -5.1142  -14.0664 C   0  0  0  0  0  0  0  0  0  0  0  0
   22.2992   -5.6650  -12.7860 O   0  0  0  0  0  0  0  0  0  0  0  0
   16.9220   -4.1498  -14.6031 O   0  0  0  0  0  0  0  0  0  0  0  0
   22.3208   -3.8907  -14.1461 O   0  0  0  0  0  0  0  0  0  0  0  0
  2  1  1  1
  2  3  1  0
  4  2  1  0
  4  6  1  0
  4  5  1  1
  6  7  2  0
  9  8  1  0
 10  9  1  6
 11  6  1  0
 11 10  1  0
 12 10  1  0
 12 14  1  0
 13 12  2  0
 15 20  1  0
 15 14  1  0
 15 16  1  1
 17 16  1  0
 17 18  1  0
 18 19  2  0
 18 22  1  0
 20 21  1  0
 23 20  2  0
M  END
$$$$
