VSE.pdb
     RDKit          3D

 23 22  0  0  1  0  0  0  0  0999 V2000
   16.7684  -11.4859  -15.8947 C   0  0  0  0  0  0  0  0  0  0  0  0
   17.9799  -11.8580  -16.7177 C   0  0  2  0  0  0  0  0  0  0  0  0
   18.9337  -12.6390  -15.8316 C   0  0  0  0  0  0  0  0  0  0  0  0
   18.7172  -10.6134  -17.1689 C   0  0  2  0  0  0  0  0  0  0  0  0
   19.5924  -10.9945  -18.2598 N   0  0  0  0  0  0  0  0  0  0  0  0
   19.5068   -9.9928  -16.1008 C   0  0  0  0  0  0  0  0  0  0  0  0
   18.9630   -9.6378  -15.0431 O   0  0  0  0  0  0  0  0  0  0  0  0
   23.0910  -10.7551  -14.5388 O   0  0  0  0  0  0  0  0  0  0  0  0
   23.0736   -9.4670  -15.0768 C   0  0  0  0  0  0  0  0  0  0  0  0
   21.6539   -9.0370  -15.2235 C   0  0  2  0  0  0  0  0  0  0  0  0
   20.9136   -9.7637  -16.2073 N   0  0  0  0  0  0  0  0  0  0  0  0
   21.6066   -7.5546  -15.4766 C   0  0  0  0  0  0  0  0  0  0  0  0
   21.8237   -7.1085  -16.6183 O   0  0  0  0  0  0  0  0  0  0  0  0
   21.3211   -6.6498  -14.4499 N   0  0  0  0  0  0  0  0  0  0  0  0
   21.2298   -5.2113  -14.5978 C   0  0  1  0  0  0  0  0  0  0  0  0
   19.8461   -4.6881  -14.4880 C   0  0  0  0  0  0  0  0  0  0  0  0
   19.7284   -3.1861  -14.5848 C   0  0  0  0  0  0  0  0  0  0  0  0
   18.2728   -2.7885  -14.4720 C   0  0  0  0  0  0  0  0  0  0  0  0
   17.3753   -3.6485  -14.3152 O   0  0  0  0  0  0  0  0  0  0  0  0
   22.2114   -4.5309  -13.7180 C   0  0  0  0  0  0  0  0  0  0  0  0
   22.7458   -3.2708  -14.0723 O   0  0  0  0  0  0  0  0  0  0  0  0
   17.9097   -1.4649  -14.5406 O   0  0  0  0  0  0  0  0  0  0  0  0
   22.6453   -4.9763  -12.6302 O   0  0  0  0  0  0  0  0  0  0  0  0
  2  1  1  1
  2  3  1  0
  4  2  1  0
  4  6  1  0
  4  5  1  6
  6  7  2  0
  9  8  1  0
 10  9  1  6
 11  6  1  0
 11 10  1  0
 12 10  1  0
 12 14  1  0
 13 12  2  0
 15 20  1  0
 15 14  1  0
 15 16  1  1
 17 16  1  0
 17 18  1  0
 18 19  2  0
 18 22  1  0
 20 21  1  0
 23 20  2  0
M  END
$$$$
