VSE.pdb
     RDKit          3D

 23 22  0  0  1  0  0  0  0  0999 V2000
   15.3010  -10.7256  -17.1729 C   0  0  0  0  0  0  0  0  0  0  0  0
   15.4565  -12.0924  -17.7983 C   0  0  2  0  0  0  0  0  0  0  0  0
   14.0715  -12.6375  -18.0978 C   0  0  0  0  0  0  0  0  0  0  0  0
   16.1056  -13.0518  -16.8215 C   0  0  2  0  0  0  0  0  0  0  0  0
   15.1384  -13.3374  -15.7802 N   0  0  0  0  0  0  0  0  0  0  0  0
   17.3314  -12.5187  -16.2191 C   0  0  0  0  0  0  0  0  0  0  0  0
   17.2927  -11.9466  -15.1183 O   0  0  0  0  0  0  0  0  0  0  0  0
   21.1316  -12.8178  -18.0427 O   0  0  0  0  0  0  0  0  0  0  0  0
   21.0525  -12.8227  -16.6490 C   0  0  0  0  0  0  0  0  0  0  0  0
   19.8065  -12.1109  -16.2456 C   0  0  2  0  0  0  0  0  0  0  0  0
   18.6126  -12.6211  -16.8441 N   0  0  0  0  0  0  0  0  0  0  0  0
   19.9698  -10.6373  -16.5023 C   0  0  0  0  0  0  0  0  0  0  0  0
   19.4142  -10.1087  -17.4829 O   0  0  0  0  0  0  0  0  0  0  0  0
   20.7398   -9.8324  -15.6576 N   0  0  0  0  0  0  0  0  0  0  0  0
   21.0243   -8.4267  -15.8645 C   0  0  1  0  0  0  0  0  0  0  0  0
   21.4422   -7.7161  -14.6314 C   0  0  0  0  0  0  0  0  0  0  0  0
   21.7800   -6.2575  -14.8256 C   0  0  0  0  0  0  0  0  0  0  0  0
   22.2957   -5.6841  -13.5239 C   0  0  0  0  0  0  0  0  0  0  0  0
   22.4053   -6.3965  -12.4990 O   0  0  0  0  0  0  0  0  0  0  0  0
   21.9408   -8.2418  -17.0161 C   0  0  0  0  0  0  0  0  0  0  0  0
   21.7908   -7.1386  -17.8876 O   0  0  0  0  0  0  0  0  0  0  0  0
   22.6552   -4.3602  -13.4452 O   0  0  0  0  0  0  0  0  0  0  0  0
   22.8903   -9.0007  -17.3201 O   0  0  0  0  0  0  0  0  0  0  0  0
  2  1  1  1
  2  3  1  0
  4  2  1  0
  4  6  1  0
  4  5  1  1
  6  7  2  0
  9  8  1  0
 10  9  1  6
 11  6  1  0
 11 10  1  0
 12 10  1  0
 12 14  1  0
 13 12  2  0
 15 20  1  0
 15 14  1  0
 15 16  1  1
 17 16  1  0
 17 18  1  0
 18 19  2  0
 18 22  1  0
 20 21  1  0
 23 20  2  0
M  END
$$$$
