VSE.pdb
     RDKit          3D

 23 22  0  0  1  0  0  0  0  0999 V2000
   17.1646  -10.1679  -17.9481 C   0  0  0  0  0  0  0  0  0  0  0  0
   18.4064  -10.8016  -18.5310 C   0  0  2  0  0  0  0  0  0  0  0  0
   17.9747  -11.8796  -19.5089 C   0  0  0  0  0  0  0  0  0  0  0  0
   19.2108  -11.4879  -17.4457 C   0  0  2  0  0  0  0  0  0  0  0  0
   18.4300  -12.6113  -16.9664 N   0  0  0  0  0  0  0  0  0  0  0  0
   19.5365  -10.6027  -16.3232 C   0  0  0  0  0  0  0  0  0  0  0  0
   18.6760  -10.3237  -15.4734 O   0  0  0  0  0  0  0  0  0  0  0  0
   23.3685   -9.8716  -15.0209 O   0  0  0  0  0  0  0  0  0  0  0  0
   22.2719   -9.6147  -14.1961 C   0  0  0  0  0  0  0  0  0  0  0  0
   21.1392   -9.1538  -15.0485 C   0  0  2  0  0  0  0  0  0  0  0  0
   20.8295  -10.0213  -16.1418 N   0  0  0  0  0  0  0  0  0  0  0  0
   21.4066   -7.7482  -15.5141 C   0  0  0  0  0  0  0  0  0  0  0  0
   21.9841   -7.5486  -16.5986 O   0  0  0  0  0  0  0  0  0  0  0  0
   21.0188   -6.6427  -14.7513 N   0  0  0  0  0  0  0  0  0  0  0  0
   21.3240   -5.2600  -15.0587 C   0  0  1  0  0  0  0  0  0  0  0  0
   20.1270   -4.3864  -15.1239 C   0  0  0  0  0  0  0  0  0  0  0  0
   19.2117   -4.6539  -16.2944 C   0  0  0  0  0  0  0  0  0  0  0  0
   17.9919   -3.7647  -16.1911 C   0  0  0  0  0  0  0  0  0  0  0  0
   17.5342   -3.1715  -17.1953 O   0  0  0  0  0  0  0  0  0  0  0  0
   22.4026   -4.7528  -14.1756 C   0  0  0  0  0  0  0  0  0  0  0  0
   23.2111   -3.6644  -14.5763 O   0  0  0  0  0  0  0  0  0  0  0  0
   17.3614   -3.5926  -14.9824 O   0  0  0  0  0  0  0  0  0  0  0  0
   22.6939   -5.2099  -13.0459 O   0  0  0  0  0  0  0  0  0  0  0  0
  2  1  1  1
  2  3  1  0
  4  2  1  0
  4  6  1  0
  4  5  1  1
  6  7  2  0
  9  8  1  0
 10  9  1  6
 11  6  1  0
 11 10  1  0
 12 10  1  0
 12 14  1  0
 13 12  2  0
 15 20  1  0
 15 14  1  0
 15 16  1  1
 17 16  1  0
 17 18  1  0
 18 19  2  0
 18 22  1  0
 20 21  1  0
 23 20  2  0
M  END
$$$$
