VSE.pdb
     RDKit          3D

 23 22  0  0  1  0  0  0  0  0999 V2000
   16.3267   -7.1254  -14.0052 C   0  0  0  0  0  0  0  0  0  0  0  0
   16.8325   -8.5445  -14.1230 C   0  0  2  0  0  0  0  0  0  0  0  0
   15.6556   -9.4848  -13.9346 C   0  0  0  0  0  0  0  0  0  0  0  0
   17.8211   -8.8487  -13.0157 C   0  0  2  0  0  0  0  0  0  0  0  0
   17.1180   -8.7226  -11.7544 N   0  0  0  0  0  0  0  0  0  0  0  0
   18.9838   -7.9555  -13.0203 C   0  0  0  0  0  0  0  0  0  0  0  0
   18.9958   -6.9368  -12.3113 O   0  0  0  0  0  0  0  0  0  0  0  0
   22.1580   -8.4204  -15.7127 O   0  0  0  0  0  0  0  0  0  0  0  0
   22.4809   -7.8371  -14.4862 C   0  0  0  0  0  0  0  0  0  0  0  0
   21.2359   -7.2742  -13.8901 C   0  0  2  0  0  0  0  0  0  0  0  0
   20.1444   -8.1948  -13.8193 N   0  0  0  0  0  0  0  0  0  0  0  0
   20.8555   -6.0182  -14.6263 C   0  0  0  0  0  0  0  0  0  0  0  0
   19.9943   -6.0570  -15.5243 O   0  0  0  0  0  0  0  0  0  0  0  0
   21.4511   -4.7897  -14.3255 N   0  0  0  0  0  0  0  0  0  0  0  0
   21.1526   -3.5291  -14.9746 C   0  0  1  0  0  0  0  0  0  0  0  0
   21.3930   -2.3449  -14.1142 C   0  0  0  0  0  0  0  0  0  0  0  0
   21.0593   -1.0193  -14.7551 C   0  0  0  0  0  0  0  0  0  0  0  0
   21.2912    0.0935  -13.7565 C   0  0  0  0  0  0  0  0  0  0  0  0
   21.1618    1.2961  -14.0831 O   0  0  0  0  0  0  0  0  0  0  0  0
   21.8027   -3.4586  -16.3060 C   0  0  0  0  0  0  0  0  0  0  0  0
   21.1447   -2.8490  -17.3988 O   0  0  0  0  0  0  0  0  0  0  0  0
   21.6509   -0.2011  -12.4634 O   0  0  0  0  0  0  0  0  0  0  0  0
   22.9390   -3.9065  -16.5860 O   0  0  0  0  0  0  0  0  0  0  0  0
  2  1  1  1
  2  3  1  0
  4  2  1  0
  4  6  1  0
  4  5  1  1
  6  7  2  0
  9  8  1  0
 10  9  1  6
 11  6  1  0
 11 10  1  0
 12 10  1  0
 12 14  1  0
 13 12  2  0
 15 20  1  0
 15 14  1  0
 15 16  1  1
 17 16  1  0
 17 18  1  0
 18 19  2  0
 18 22  1  0
 20 21  1  0
 23 20  2  0
M  END
$$$$
