VSE.pdb
     RDKit          3D

 23 22  0  0  1  0  0  0  0  0999 V2000
   16.5833   -6.9983  -16.0016 C   0  0  0  0  0  0  0  0  0  0  0  0
   17.1904   -8.2398  -16.6129 C   0  0  2  0  0  0  0  0  0  0  0  0
   16.1384   -8.9029  -17.4838 C   0  0  0  0  0  0  0  0  0  0  0  0
   17.5601   -9.2362  -15.5329 C   0  0  2  0  0  0  0  0  0  0  0  0
   16.3505   -9.5579  -14.8016 N   0  0  0  0  0  0  0  0  0  0  0  0
   18.5743   -8.7286  -14.6037 C   0  0  0  0  0  0  0  0  0  0  0  0
   18.2432   -8.2912  -13.4904 O   0  0  0  0  0  0  0  0  0  0  0  0
   22.2261   -9.9169  -13.6026 O   0  0  0  0  0  0  0  0  0  0  0  0
   22.2958   -8.6259  -14.1294 C   0  0  0  0  0  0  0  0  0  0  0  0
   20.9299   -8.0299  -14.0976 C   0  0  2  0  0  0  0  0  0  0  0  0
   19.9695   -8.7059  -14.9129 N   0  0  0  0  0  0  0  0  0  0  0  0
   21.0170   -6.5673  -14.4400 C   0  0  0  0  0  0  0  0  0  0  0  0
   21.6820   -5.7966  -13.7234 O   0  0  0  0  0  0  0  0  0  0  0  0
   20.3623   -6.0412  -15.5575 N   0  0  0  0  0  0  0  0  0  0  0  0
   20.3951   -4.6544  -15.9758 C   0  0  1  0  0  0  0  0  0  0  0  0
   20.5386   -4.4779  -17.4416 C   0  0  0  0  0  0  0  0  0  0  0  0
   20.5186   -3.0431  -17.9109 C   0  0  0  0  0  0  0  0  0  0  0  0
   20.6685   -3.0052  -19.4160 C   0  0  0  0  0  0  0  0  0  0  0  0
   20.0049   -3.7701  -20.1538 O   0  0  0  0  0  0  0  0  0  0  0  0
   19.2666   -3.9000  -15.3776 C   0  0  0  0  0  0  0  0  0  0  0  0
   19.4614   -2.5974  -14.8636 O   0  0  0  0  0  0  0  0  0  0  0  0
   21.5433   -2.1224  -20.0023 O   0  0  0  0  0  0  0  0  0  0  0  0
   18.0889   -4.3145  -15.2712 O   0  0  0  0  0  0  0  0  0  0  0  0
  2  1  1  1
  2  3  1  0
  4  2  1  0
  4  6  1  0
  4  5  1  1
  6  7  2  0
  9  8  1  0
 10  9  1  6
 11  6  1  0
 11 10  1  0
 12 10  1  0
 12 14  1  0
 13 12  2  0
 15 20  1  0
 15 14  1  0
 15 16  1  6
 17 16  1  0
 17 18  1  0
 18 19  2  0
 18 22  1  0
 20 21  1  0
 23 20  2  0
M  END
$$$$
