VSE.pdb
     RDKit          3D

 23 22  0  0  1  0  0  0  0  0999 V2000
   15.7852  -10.7016  -16.6768 C   0  0  0  0  0  0  0  0  0  0  0  0
   16.6538  -11.9007  -16.9793 C   0  0  2  0  0  0  0  0  0  0  0  0
   15.7469  -13.0913  -17.2340 C   0  0  0  0  0  0  0  0  0  0  0  0
   17.5124  -12.2495  -15.7805 C   0  0  2  0  0  0  0  0  0  0  0  0
   16.6266  -12.6903  -14.7211 N   0  0  0  0  0  0  0  0  0  0  0  0
   18.3227  -11.1237  -15.3053 C   0  0  0  0  0  0  0  0  0  0  0  0
   17.8497  -10.3047  -14.5015 O   0  0  0  0  0  0  0  0  0  0  0  0
   22.4675   -8.6787  -15.0684 O   0  0  0  0  0  0  0  0  0  0  0  0
   21.8645   -9.8040  -15.6333 C   0  0  0  0  0  0  0  0  0  0  0  0
   20.3935   -9.7118  -15.4108 C   0  0  2  0  0  0  0  0  0  0  0  0
   19.6708  -10.9043  -15.7261 N   0  0  0  0  0  0  0  0  0  0  0  0
   19.8513   -8.5214  -16.1545 C   0  0  0  0  0  0  0  0  0  0  0  0
   19.1188   -8.6859  -17.1474 O   0  0  0  0  0  0  0  0  0  0  0  0
   20.1516   -7.2156  -15.7557 N   0  0  0  0  0  0  0  0  0  0  0  0
   19.5851   -6.0105  -16.3271 C   0  0  1  0  0  0  0  0  0  0  0  0
   18.1021   -5.9849  -16.3127 C   0  0  0  0  0  0  0  0  0  0  0  0
   17.4872   -4.6915  -16.7906 C   0  0  0  0  0  0  0  0  0  0  0  0
   15.9804   -4.8283  -16.8073 C   0  0  0  0  0  0  0  0  0  0  0  0
   15.4249   -5.9214  -16.5499 O   0  0  0  0  0  0  0  0  0  0  0  0
   20.2223   -4.8046  -15.7436 C   0  0  0  0  0  0  0  0  0  0  0  0
   19.9902   -3.5256  -16.2995 O   0  0  0  0  0  0  0  0  0  0  0  0
   15.1906   -3.7447  -17.1081 O   0  0  0  0  0  0  0  0  0  0  0  0
   20.9895   -4.7937  -14.7530 O   0  0  0  0  0  0  0  0  0  0  0  0
  2  1  1  1
  2  3  1  0
  4  2  1  0
  4  6  1  0
  4  5  1  1
  6  7  2  0
  9  8  1  0
 10  9  1  6
 11  6  1  0
 11 10  1  0
 12 10  1  0
 12 14  1  0
 13 12  2  0
 15 20  1  0
 15 14  1  0
 15 16  1  1
 17 16  1  0
 17 18  1  0
 18 19  2  0
 18 22  1  0
 20 21  1  0
 23 20  2  0
M  END
$$$$
