VSE.pdb
     RDKit          3D

 23 22  0  0  1  0  0  0  0  0999 V2000
   12.1212   -8.0356   -7.8504 C   0  0  0  0  0  0  0  0  0  0  0  0
   13.5996   -8.2875   -7.6645 C   0  0  2  0  0  0  0  0  0  0  0  0
   14.2340   -7.0159   -7.1303 C   0  0  0  0  0  0  0  0  0  0  0  0
   14.2589   -8.5829   -8.9964 C   0  0  2  0  0  0  0  0  0  0  0  0
   15.6845   -8.7019   -8.7622 N   0  0  0  0  0  0  0  0  0  0  0  0
   14.0124   -7.5461  -10.0035 C   0  0  0  0  0  0  0  0  0  0  0  0
   12.8515   -7.2259  -10.3039 O   0  0  0  0  0  0  0  0  0  0  0  0
   14.0208   -3.4618  -11.4668 O   0  0  0  0  0  0  0  0  0  0  0  0
   14.3467   -4.5106  -10.6050 C   0  0  0  0  0  0  0  0  0  0  0  0
   14.8474   -5.6527  -11.4215 C   0  0  2  0  0  0  0  0  0  0  0  0
   15.0642   -6.8580  -10.6838 N   0  0  0  0  0  0  0  0  0  0  0  0
   16.0839   -5.2278  -12.1661 C   0  0  0  0  0  0  0  0  0  0  0  0
   17.1758   -5.1537  -11.5728 O   0  0  0  0  0  0  0  0  0  0  0  0
   16.0408   -4.9091  -13.5266 N   0  0  0  0  0  0  0  0  0  0  0  0
   17.1866   -4.5789  -14.3498 C   0  0  1  0  0  0  0  0  0  0  0  0
   17.2170   -5.3012  -15.6450 C   0  0  0  0  0  0  0  0  0  0  0  0
   17.4253   -6.7923  -15.5330 C   0  0  0  0  0  0  0  0  0  0  0  0
   17.3207   -7.4183  -16.9065 C   0  0  0  0  0  0  0  0  0  0  0  0
   17.1165   -6.7179  -17.9252 O   0  0  0  0  0  0  0  0  0  0  0  0
   17.3410   -3.1082  -14.4670 C   0  0  0  0  0  0  0  0  0  0  0  0
   18.5784   -2.5409  -14.8486 O   0  0  0  0  0  0  0  0  0  0  0  0
   17.4493   -8.7779  -17.0589 O   0  0  0  0  0  0  0  0  0  0  0  0
   16.4418   -2.2624  -14.2524 O   0  0  0  0  0  0  0  0  0  0  0  0
  2  1  1  6
  2  3  1  0
  4  2  1  0
  4  6  1  0
  4  5  1  1
  6  7  2  0
  9  8  1  0
 10  9  1  1
 11  6  1  0
 11 10  1  0
 12 10  1  0
 12 14  1  0
 13 12  2  0
 15 20  1  0
 15 14  1  0
 15 16  1  6
 17 16  1  0
 17 18  1  0
 18 19  2  0
 18 22  1  0
 20 21  1  0
 23 20  2  0
M  END
$$$$
