VSE.pdb
     RDKit          3D

 23 22  0  0  1  0  0  0  0  0999 V2000
   18.4227  -13.4543  -15.2236 C   0  0  0  0  0  0  0  0  0  0  0  0
   17.4755  -12.5354  -15.9598 C   0  0  2  0  0  0  0  0  0  0  0  0
   16.7644  -13.3451  -17.0293 C   0  0  0  0  0  0  0  0  0  0  0  0
   18.2446  -11.4422  -16.6735 C   0  0  2  0  0  0  0  0  0  0  0  0
   19.0627  -12.0745  -17.6895 N   0  0  0  0  0  0  0  0  0  0  0  0
   19.0977  -10.6578  -15.7754 C   0  0  0  0  0  0  0  0  0  0  0  0
   18.5970   -9.9982  -14.8509 O   0  0  0  0  0  0  0  0  0  0  0  0
   23.2540  -10.2858  -16.3332 O   0  0  0  0  0  0  0  0  0  0  0  0
   22.7706  -10.1540  -15.0302 C   0  0  0  0  0  0  0  0  0  0  0  0
   21.3368   -9.7519  -15.0982 C   0  0  2  0  0  0  0  0  0  0  0  0
   20.5201  -10.6046  -15.9043 N   0  0  0  0  0  0  0  0  0  0  0  0
   21.2431   -8.3160  -15.5382 C   0  0  0  0  0  0  0  0  0  0  0  0
   20.8793   -8.0400  -16.6962 O   0  0  0  0  0  0  0  0  0  0  0  0
   21.5577   -7.2668  -14.6697 N   0  0  0  0  0  0  0  0  0  0  0  0
   21.4428   -5.8558  -14.9790 C   0  0  1  0  0  0  0  0  0  0  0  0
   20.0857   -5.4517  -15.4207 C   0  0  0  0  0  0  0  0  0  0  0  0
   19.9447   -3.9908  -15.7748 C   0  0  0  0  0  0  0  0  0  0  0  0
   18.5132   -3.7073  -16.1745 C   0  0  0  0  0  0  0  0  0  0  0  0
   17.6494   -4.6148  -16.1819 O   0  0  0  0  0  0  0  0  0  0  0  0
   21.9971   -5.0313  -13.8774 C   0  0  0  0  0  0  0  0  0  0  0  0
   22.2998   -3.6654  -14.0806 O   0  0  0  0  0  0  0  0  0  0  0  0
   18.1352   -2.4374  -16.5391 O   0  0  0  0  0  0  0  0  0  0  0  0
   22.2413   -5.4360  -12.7170 O   0  0  0  0  0  0  0  0  0  0  0  0
  2  1  1  6
  2  3  1  0
  4  2  1  0
  4  6  1  0
  4  5  1  6
  6  7  2  0
  9  8  1  0
 10  9  1  6
 11  6  1  0
 11 10  1  0
 12 10  1  0
 12 14  1  0
 13 12  2  0
 15 20  1  0
 15 14  1  0
 15 16  1  1
 17 16  1  0
 17 18  1  0
 18 19  2  0
 18 22  1  0
 20 21  1  0
 23 20  2  0
M  END
$$$$
