VSE.pdb
     RDKit          3D

 23 22  0  0  1  0  0  0  0  0999 V2000
   14.2992  -13.8174  -14.7978 C   0  0  0  0  0  0  0  0  0  0  0  0
   14.6224  -13.6355  -16.2628 C   0  0  2  0  0  0  0  0  0  0  0  0
   15.1336  -14.9587  -16.8037 C   0  0  0  0  0  0  0  0  0  0  0  0
   15.7394  -12.6268  -16.4381 C   0  0  2  0  0  0  0  0  0  0  0  0
   16.9334  -13.1871  -15.8368 N   0  0  0  0  0  0  0  0  0  0  0  0
   15.4445  -11.3284  -15.8244 C   0  0  0  0  0  0  0  0  0  0  0  0
   14.4397  -10.6855  -16.1673 O   0  0  0  0  0  0  0  0  0  0  0  0
   17.7440   -9.7617  -12.7424 O   0  0  0  0  0  0  0  0  0  0  0  0
   16.4941   -9.1724  -12.9408 C   0  0  0  0  0  0  0  0  0  0  0  0
   16.0865   -9.3979  -14.3567 C   0  0  2  0  0  0  0  0  0  0  0  0
   16.2725  -10.7374  -14.8204 N   0  0  0  0  0  0  0  0  0  0  0  0
   16.7873   -8.4023  -15.2409 C   0  0  0  0  0  0  0  0  0  0  0  0
   17.7496   -8.7606  -15.9446 O   0  0  0  0  0  0  0  0  0  0  0  0
   16.3820   -7.0655  -15.2954 N   0  0  0  0  0  0  0  0  0  0  0  0
   16.9717   -6.0414  -16.1339 C   0  0  1  0  0  0  0  0  0  0  0  0
   16.0371   -4.9419  -16.4771 C   0  0  0  0  0  0  0  0  0  0  0  0
   15.9845   -3.8188  -15.4696 C   0  0  0  0  0  0  0  0  0  0  0  0
   14.9772   -2.7848  -15.9228 C   0  0  0  0  0  0  0  0  0  0  0  0
   14.0244   -2.4401  -15.1858 O   0  0  0  0  0  0  0  0  0  0  0  0
   18.2682   -5.5881  -15.5734 C   0  0  0  0  0  0  0  0  0  0  0  0
   19.2519   -5.0093  -16.4078 O   0  0  0  0  0  0  0  0  0  0  0  0
   15.0932   -2.2024  -17.1620 O   0  0  0  0  0  0  0  0  0  0  0  0
   18.6083   -5.6661  -14.3700 O   0  0  0  0  0  0  0  0  0  0  0  0
  2  1  1  1
  2  3  1  0
  4  2  1  0
  4  6  1  0
  4  5  1  1
  6  7  2  0
  9  8  1  0
 10  9  1  1
 11  6  1  0
 11 10  1  0
 12 10  1  0
 12 14  1  0
 13 12  2  0
 15 20  1  0
 15 14  1  0
 15 16  1  1
 17 16  1  0
 17 18  1  0
 18 19  2  0
 18 22  1  0
 20 21  1  0
 23 20  2  0
M  END
$$$$
