VSE.pdb
     RDKit          3D

 23 22  0  0  1  0  0  0  0  0999 V2000
   23.1795  -12.1496  -15.5071 C   0  0  0  0  0  0  0  0  0  0  0  0
   22.7131  -10.9395  -16.2827 C   0  0  2  0  0  0  0  0  0  0  0  0
   23.8673   -9.9568  -16.3678 C   0  0  0  0  0  0  0  0  0  0  0  0
   21.5905  -10.2376  -15.5458 C   0  0  2  0  0  0  0  0  0  0  0  0
   20.5463  -11.2142  -15.3066 N   0  0  0  0  0  0  0  0  0  0  0  0
   21.0373   -9.1003  -16.2876 C   0  0  0  0  0  0  0  0  0  0  0  0
   21.7439   -8.1115  -16.5396 O   0  0  0  0  0  0  0  0  0  0  0  0
   17.0084   -8.8719  -17.3416 O   0  0  0  0  0  0  0  0  0  0  0  0
   17.8937   -8.2508  -18.2244 C   0  0  0  0  0  0  0  0  0  0  0  0
   19.1586   -7.9556  -17.4930 C   0  0  2  0  0  0  0  0  0  0  0  0
   19.6870   -9.0596  -16.7541 N   0  0  0  0  0  0  0  0  0  0  0  0
   18.9575   -6.7479  -16.6183 C   0  0  0  0  0  0  0  0  0  0  0  0
   18.5145   -6.8805  -15.4626 O   0  0  0  0  0  0  0  0  0  0  0  0
   19.2588   -5.4611  -17.0739 N   0  0  0  0  0  0  0  0  0  0  0  0
   19.1099   -4.2409  -16.3067 C   0  0  1  0  0  0  0  0  0  0  0  0
   19.8993   -4.2273  -15.0509 C   0  0  0  0  0  0  0  0  0  0  0  0
   21.3941   -4.1423  -15.2444 C   0  0  0  0  0  0  0  0  0  0  0  0
   22.0905   -4.7604  -14.0517 C   0  0  0  0  0  0  0  0  0  0  0  0
   23.3218   -4.9918  -14.0671 O   0  0  0  0  0  0  0  0  0  0  0  0
   19.3143   -3.0515  -17.1693 C   0  0  0  0  0  0  0  0  0  0  0  0
   19.1940   -1.7465  -16.6390 O   0  0  0  0  0  0  0  0  0  0  0  0
   21.3759   -5.0804  -12.9225 O   0  0  0  0  0  0  0  0  0  0  0  0
   19.5989   -3.0773  -18.3893 O   0  0  0  0  0  0  0  0  0  0  0  0
  2  1  1  1
  2  3  1  0
  4  2  1  0
  4  6  1  0
  4  5  1  6
  6  7  2  0
  9  8  1  0
 10  9  1  1
 11  6  1  0
 11 10  1  0
 12 10  1  0
 12 14  1  0
 13 12  2  0
 15 20  1  0
 15 14  1  0
 15 16  1  1
 17 16  1  0
 17 18  1  0
 18 19  2  0
 18 22  1  0
 20 21  1  0
 23 20  2  0
M  END
$$$$
