VSE.pdb
     RDKit          3D

 23 22  0  0  1  0  0  0  0  0999 V2000
   19.6184  -13.6448  -15.5318 C   0  0  0  0  0  0  0  0  0  0  0  0
   18.5009  -12.7773  -16.0629 C   0  0  2  0  0  0  0  0  0  0  0  0
   17.6835  -13.6024  -17.0406 C   0  0  0  0  0  0  0  0  0  0  0  0
   19.0636  -11.6041  -16.8393 C   0  0  2  0  0  0  0  0  0  0  0  0
   19.6941  -12.1314  -18.0333 N   0  0  0  0  0  0  0  0  0  0  0  0
   20.0396  -10.8220  -16.0742 C   0  0  0  0  0  0  0  0  0  0  0  0
   19.7265  -10.3226  -14.9820 O   0  0  0  0  0  0  0  0  0  0  0  0
   24.1757  -11.0947  -15.7831 O   0  0  0  0  0  0  0  0  0  0  0  0
   23.7068   -9.8668  -16.2535 C   0  0  0  0  0  0  0  0  0  0  0  0
   22.2811   -9.7192  -15.8444 C   0  0  2  0  0  0  0  0  0  0  0  0
   21.3761  -10.5918  -16.5253 N   0  0  0  0  0  0  0  0  0  0  0  0
   21.8708   -8.2780  -15.9811 C   0  0  0  0  0  0  0  0  0  0  0  0
   21.3687   -7.8696  -17.0445 O   0  0  0  0  0  0  0  0  0  0  0  0
   22.0400   -7.3705  -14.9313 N   0  0  0  0  0  0  0  0  0  0  0  0
   21.6128   -5.9859  -14.9394 C   0  0  1  0  0  0  0  0  0  0  0  0
   20.1628   -5.8118  -15.1993 C   0  0  0  0  0  0  0  0  0  0  0  0
   19.6871   -4.3789  -15.1948 C   0  0  0  0  0  0  0  0  0  0  0  0
   18.2051   -4.3412  -15.4976 C   0  0  0  0  0  0  0  0  0  0  0  0
   17.3600   -4.1861  -14.5858 O   0  0  0  0  0  0  0  0  0  0  0  0
   22.1061   -5.2785  -13.7325 C   0  0  0  0  0  0  0  0  0  0  0  0
   22.3317   -3.8830  -13.7560 O   0  0  0  0  0  0  0  0  0  0  0  0
   17.7593   -4.4779  -16.7903 O   0  0  0  0  0  0  0  0  0  0  0  0
   22.3600   -5.8132  -12.6281 O   0  0  0  0  0  0  0  0  0  0  0  0
  2  1  1  6
  2  3  1  0
  4  2  1  0
  4  6  1  0
  4  5  1  6
  6  7  2  0
  9  8  1  0
 10  9  1  6
 11  6  1  0
 11 10  1  0
 12 10  1  0
 12 14  1  0
 13 12  2  0
 15 20  1  0
 15 14  1  0
 15 16  1  1
 17 16  1  0
 17 18  1  0
 18 19  2  0
 18 22  1  0
 20 21  1  0
 23 20  2  0
M  END
$$$$
