HYL.pdb
     RDKit          3D

 31 32  0  0  1  0  0  0  0  0999 V2000
   26.4541  -20.9562  -17.1362 N   0  0  0  0  0  0  0  0  0  0  0  0
   27.2603  -21.0588  -15.9464 C   0  0  1  0  0  0  0  0  0  0  0  0
   28.5506  -20.2801  -16.2345 C   0  0  0  0  0  0  0  0  0  0  0  0
   29.2985  -21.0596  -17.2544 C   0  0  0  0  0  0  0  0  0  0  0  0
   29.9787  -22.2635  -17.0295 C   0  0  0  0  0  0  0  0  0  0  0  0
   30.5308  -22.6665  -18.1831 N   0  0  0  0  0  0  0  0  0  0  0  0
   30.2300  -21.7695  -19.1305 C   0  0  0  0  0  0  0  0  0  0  0  0
   29.4821  -20.7970  -18.5606 N   0  0  0  0  0  0  0  0  0  0  0  0
   26.5831  -20.4796  -14.7527 C   0  0  0  0  0  0  0  0  0  0  0  0
   26.5785  -19.2271  -14.6533 O   0  0  0  0  0  0  0  0  0  0  0  0
   20.8733  -18.8538  -17.0212 O   0  0  0  0  0  0  0  0  0  0  0  0
   21.5879  -19.4201  -15.9625 C   0  0  0  0  0  0  0  0  0  0  0  0
   22.2312  -20.6367  -16.0797 C   0  0  0  0  0  0  0  0  0  0  0  0
   22.9431  -21.2254  -15.0623 C   0  0  0  0  0  0  0  0  0  0  0  0
   23.0326  -20.5807  -13.8463 C   0  0  0  0  0  0  0  0  0  0  0  0
   23.7958  -21.2181  -12.7652 C   0  0  0  0  0  0  0  0  0  0  0  0
   25.2505  -20.8476  -12.6943 C   0  0  2  0  0  0  0  0  0  0  0  0
   25.9941  -21.3438  -13.8146 N   0  0  0  0  0  0  0  0  0  0  0  0
   25.8534  -21.1737  -11.4043 C   0  0  0  0  0  0  0  0  0  0  0  0
   25.9529  -22.3620  -11.0290 O   0  0  0  0  0  0  0  0  0  0  0  0
   22.3990  -19.3655  -13.7054 C   0  0  0  0  0  0  0  0  0  0  0  0
   21.6952  -18.7996  -14.7354 C   0  0  0  0  0  0  0  0  0  0  0  0
   28.0564  -18.5034   -6.1310 C   0  0  0  0  0  0  0  0  0  0  0  0
   27.7005  -19.7063   -6.9491 C   0  0  2  0  0  0  0  0  0  0  0  0
   28.9027  -20.6630   -6.8587 C   0  0  0  0  0  0  0  0  0  0  0  0
   27.4733  -19.4654   -8.3956 C   0  0  0  0  0  0  0  0  0  0  0  0
   26.6138  -20.4376   -9.1219 C   0  0  2  0  0  0  0  0  0  0  0  0
   26.3634  -20.1725  -10.4959 N   0  0  0  0  0  0  0  0  0  0  0  0
   25.3750  -20.7891   -8.3599 C   0  0  0  0  0  0  0  0  0  0  0  0
   24.3568  -20.0704   -8.4634 O   0  0  0  0  0  0  0  0  0  0  0  0
   25.3068  -21.8952   -7.5309 O   0  0  0  0  0  0  0  0  0  0  0  0
  2  1  1  6
  2  3  1  0
  3  4  1  0
  4  5  2  0
  5  6  1  0
  7  6  1  0
  8  4  1  0
  8  7  2  0
  9 18  1  0
  9  2  1  0
 10  9  2  0
 11 12  1  0
 12 13  2  0
 13 14  1  0
 15 16  1  0
 15 14  2  0
 17 16  1  1
 17 18  1  0
 19 17  1  0
 20 19  2  0
 21 15  1  0
 22 21  2  0
 22 12  1  0
 24 23  1  1
 24 26  1  0
 25 24  1  0
 27 26  1  1
 27 29  1  0
 27 28  1  0
 28 19  1  0
 29 31  1  0
 30 29  2  0
M  END
$$$$
