HYL.pdb
     RDKit          3D

 31 32  0  0  1  0  0  0  0  0999 V2000
   28.5331  -22.0918  -18.9718 N   0  0  0  0  0  0  0  0  0  0  0  0
   28.2280  -22.1901  -17.5669 C   0  0  1  0  0  0  0  0  0  0  0  0
   29.5106  -21.7986  -16.8214 C   0  0  0  0  0  0  0  0  0  0  0  0
   30.4828  -22.9003  -17.0408 C   0  0  0  0  0  0  0  0  0  0  0  0
   31.6307  -22.8333  -17.8411 C   0  0  0  0  0  0  0  0  0  0  0  0
   32.2564  -24.0183  -17.7942 N   0  0  0  0  0  0  0  0  0  0  0  0
   31.5544  -24.8346  -16.9982 C   0  0  0  0  0  0  0  0  0  0  0  0
   30.4795  -24.1502  -16.5443 N   0  0  0  0  0  0  0  0  0  0  0  0
   27.1187  -21.2811  -17.1643 C   0  0  0  0  0  0  0  0  0  0  0  0
   27.0323  -20.1851  -17.7724 O   0  0  0  0  0  0  0  0  0  0  0  0
   19.2504  -18.1026  -15.8301 O   0  0  0  0  0  0  0  0  0  0  0  0
   20.4585  -18.7454  -16.1123 C   0  0  0  0  0  0  0  0  0  0  0  0
   20.5909  -20.1188  -16.0481 C   0  0  0  0  0  0  0  0  0  0  0  0
   21.7611  -20.7868  -16.3181 C   0  0  0  0  0  0  0  0  0  0  0  0
   22.8793  -20.0627  -16.6755 C   0  0  0  0  0  0  0  0  0  0  0  0
   24.1252  -20.7859  -16.9621 C   0  0  0  0  0  0  0  0  0  0  0  0
   25.0757  -20.9211  -15.8059 C   0  0  2  0  0  0  0  0  0  0  0  0
   26.2404  -21.6848  -16.1448 N   0  0  0  0  0  0  0  0  0  0  0  0
   24.4166  -21.3749  -14.5838 C   0  0  0  0  0  0  0  0  0  0  0  0
   23.9025  -22.5127  -14.5214 O   0  0  0  0  0  0  0  0  0  0  0  0
   22.7716  -18.6910  -16.7462 C   0  0  0  0  0  0  0  0  0  0  0  0
   21.5931  -18.0487  -16.4721 C   0  0  0  0  0  0  0  0  0  0  0  0
   26.2390  -22.3291  -10.8823 C   0  0  0  0  0  0  0  0  0  0  0  0
   25.7850  -20.9031  -10.8232 C   0  0  2  0  0  0  0  0  0  0  0  0
   26.2096  -20.3699   -9.4432 C   0  0  0  0  0  0  0  0  0  0  0  0
   24.3207  -20.6821  -10.9177 C   0  0  0  0  0  0  0  0  0  0  0  0
   23.6640  -21.0087  -12.2114 C   0  0  2  0  0  0  0  0  0  0  0  0
   24.3153  -20.5624  -13.3935 N   0  0  0  0  0  0  0  0  0  0  0  0
   22.1984  -20.7072  -12.2029 C   0  0  0  0  0  0  0  0  0  0  0  0
   21.7574  -19.7480  -12.8735 O   0  0  0  0  0  0  0  0  0  0  0  0
   21.2942  -21.4576  -11.4718 O   0  0  0  0  0  0  0  0  0  0  0  0
  2  1  1  6
  2  3  1  0
  3  4  1  0
  4  5  2  0
  5  6  1  0
  7  6  1  0
  8  4  1  0
  8  7  2  0
  9 18  1  0
  9  2  1  0
 10  9  2  0
 11 12  1  0
 12 13  2  0
 13 14  1  0
 15 16  1  0
 15 14  2  0
 17 16  1  6
 17 18  1  0
 19 17  1  0
 20 19  2  0
 21 15  1  0
 22 21  2  0
 22 12  1  0
 24 23  1  1
 24 26  1  0
 25 24  1  0
 27 26  1  1
 27 29  1  0
 27 28  1  0
 28 19  1  0
 29 31  1  0
 30 29  2  0
M  END
$$$$
