HYL.pdb
     RDKit          3D

 31 32  0  0  1  0  0  0  0  0999 V2000
   22.6998  -20.0044  -15.2318 N   0  0  0  0  0  0  0  0  0  0  0  0
   22.7269  -18.9283  -16.1896 C   0  0  1  0  0  0  0  0  0  0  0  0
   21.7171  -19.3018  -17.2827 C   0  0  0  0  0  0  0  0  0  0  0  0
   22.3793  -20.3148  -18.1445 C   0  0  0  0  0  0  0  0  0  0  0  0
   21.9488  -21.6338  -18.3380 C   0  0  0  0  0  0  0  0  0  0  0  0
   22.7968  -22.2431  -19.1793 N   0  0  0  0  0  0  0  0  0  0  0  0
   23.7472  -21.3668  -19.5279 C   0  0  0  0  0  0  0  0  0  0  0  0
   23.4881  -20.1987  -18.8967 N   0  0  0  0  0  0  0  0  0  0  0  0
   22.3463  -17.6219  -15.5832 C   0  0  0  0  0  0  0  0  0  0  0  0
   21.5520  -17.6563  -14.6104 O   0  0  0  0  0  0  0  0  0  0  0  0
   28.4872  -15.4846  -18.2276 O   0  0  0  0  0  0  0  0  0  0  0  0
   27.3441  -15.2161  -17.4701 C   0  0  0  0  0  0  0  0  0  0  0  0
   27.0481  -15.9151  -16.3162 C   0  0  0  0  0  0  0  0  0  0  0  0
   25.9350  -15.6804  -15.5453 C   0  0  0  0  0  0  0  0  0  0  0  0
   25.0499  -14.6944  -15.9285 C   0  0  0  0  0  0  0  0  0  0  0  0
   23.8631  -14.4511  -15.0978 C   0  0  0  0  0  0  0  0  0  0  0  0
   22.6108  -15.1569  -15.5359 C   0  0  2  0  0  0  0  0  0  0  0  0
   22.8829  -16.4384  -16.1173 N   0  0  0  0  0  0  0  0  0  0  0  0
   21.7475  -14.3146  -16.3600 C   0  0  0  0  0  0  0  0  0  0  0  0
   21.8212  -14.3535  -17.6074 O   0  0  0  0  0  0  0  0  0  0  0  0
   25.3241  -13.9834  -17.0763 C   0  0  0  0  0  0  0  0  0  0  0  0
   26.4411  -14.2368  -17.8276 C   0  0  0  0  0  0  0  0  0  0  0  0
   16.2569  -12.3266  -17.5676 C   0  0  0  0  0  0  0  0  0  0  0  0
   17.7324  -12.1312  -17.7344 C   0  0  2  0  0  0  0  0  0  0  0  0
   18.0438  -12.4233  -19.2131 C   0  0  0  0  0  0  0  0  0  0  0  0
   18.6021  -13.0366  -16.9434 C   0  0  0  0  0  0  0  0  0  0  0  0
   19.9694  -12.5531  -16.6143 C   0  0  2  0  0  0  0  0  0  0  0  0
   20.7740  -13.4019  -15.8062 N   0  0  0  0  0  0  0  0  0  0  0  0
   19.9792  -11.1290  -16.1553 C   0  0  0  0  0  0  0  0  0  0  0  0
   19.9574  -10.8702  -14.9319 O   0  0  0  0  0  0  0  0  0  0  0  0
   20.0121  -10.0673  -17.0425 O   0  0  0  0  0  0  0  0  0  0  0  0
  2  1  1  1
  2  3  1  0
  3  4  1  0
  4  5  2  0
  5  6  1  0
  7  6  1  0
  8  4  1  0
  8  7  2  0
  9 18  1  0
  9  2  1  0
 10  9  2  0
 11 12  1  0
 12 13  2  0
 13 14  1  0
 15 16  1  0
 15 14  2  0
 17 16  1  6
 17 18  1  0
 19 17  1  0
 20 19  2  0
 21 15  1  0
 22 21  2  0
 22 12  1  0
 24 23  1  6
 24 26  1  0
 25 24  1  0
 27 26  1  1
 27 29  1  0
 27 28  1  0
 28 19  1  0
 29 31  1  0
 30 29  2  0
M  END
$$$$
