HYL.pdb
     RDKit          3D

 31 32  0  0  1  0  0  0  0  0999 V2000
   25.4661  -19.4245  -19.3355 N   0  0  0  0  0  0  0  0  0  0  0  0
   25.2099  -20.3626  -18.2721 C   0  0  1  0  0  0  0  0  0  0  0  0
   26.5720  -20.9527  -17.8838 C   0  0  0  0  0  0  0  0  0  0  0  0
   26.9408  -21.9119  -18.9566 C   0  0  0  0  0  0  0  0  0  0  0  0
   26.6279  -23.2773  -18.9785 C   0  0  0  0  0  0  0  0  0  0  0  0
   27.1259  -23.8138  -20.1020 N   0  0  0  0  0  0  0  0  0  0  0  0
   27.7414  -22.8470  -20.7941 C   0  0  0  0  0  0  0  0  0  0  0  0
   27.6256  -21.6955  -20.0937 N   0  0  0  0  0  0  0  0  0  0  0  0
   24.5892  -19.7140  -17.0833 C   0  0  0  0  0  0  0  0  0  0  0  0
   25.1781  -18.7097  -16.6109 O   0  0  0  0  0  0  0  0  0  0  0  0
   21.7338  -14.4789  -19.2434 O   0  0  0  0  0  0  0  0  0  0  0  0
   21.6549  -15.5861  -18.3947 C   0  0  0  0  0  0  0  0  0  0  0  0
   21.5074  -16.8715  -18.8781 C   0  0  0  0  0  0  0  0  0  0  0  0
   21.4262  -17.9845  -18.0761 C   0  0  0  0  0  0  0  0  0  0  0  0
   21.4938  -17.8308  -16.7071 C   0  0  0  0  0  0  0  0  0  0  0  0
   21.4060  -19.0265  -15.8585 C   0  0  0  0  0  0  0  0  0  0  0  0
   22.7210  -19.6317  -15.4549 C   0  0  2  0  0  0  0  0  0  0  0  0
   23.3995  -20.2456  -16.5582 N   0  0  0  0  0  0  0  0  0  0  0  0
   22.6074  -20.4991  -14.2851 C   0  0  0  0  0  0  0  0  0  0  0  0
   22.1683  -21.6644  -14.3955 O   0  0  0  0  0  0  0  0  0  0  0  0
   21.6409  -16.5577  -16.2013 C   0  0  0  0  0  0  0  0  0  0  0  0
   21.7195  -15.4641  -17.0224 C   0  0  0  0  0  0  0  0  0  0  0  0
   25.8857  -21.8454  -11.5203 C   0  0  0  0  0  0  0  0  0  0  0  0
   25.2135  -20.5941  -11.0453 C   0  0  2  0  0  0  0  0  0  0  0  0
   25.9353  -20.1788   -9.7510 C   0  0  0  0  0  0  0  0  0  0  0  0
   23.7773  -20.7203  -10.6939 C   0  0  0  0  0  0  0  0  0  0  0  0
   22.8161  -20.9124  -11.8123 C   0  0  2  0  0  0  0  0  0  0  0  0
   22.9845  -20.0824  -12.9541 N   0  0  0  0  0  0  0  0  0  0  0  0
   21.3967  -20.9796  -11.3435 C   0  0  0  0  0  0  0  0  0  0  0  0
   21.0605  -21.8407  -10.5013 O   0  0  0  0  0  0  0  0  0  0  0  0
   20.4229  -20.1142  -11.8106 O   0  0  0  0  0  0  0  0  0  0  0  0
  2  1  1  6
  2  3  1  0
  3  4  1  0
  4  5  2  0
  5  6  1  0
  7  6  1  0
  8  4  1  0
  8  7  2  0
  9 18  1  0
  9  2  1  0
 10  9  2  0
 11 12  1  0
 12 13  2  0
 13 14  1  0
 15 16  1  0
 15 14  2  0
 17 16  1  6
 17 18  1  0
 19 17  1  0
 20 19  2  0
 21 15  1  0
 22 21  2  0
 22 12  1  0
 24 23  1  1
 24 26  1  0
 25 24  1  0
 27 26  1  1
 27 29  1  0
 27 28  1  0
 28 19  1  0
 29 31  1  0
 30 29  2  0
M  END
$$$$
