HYL.pdb
     RDKit          3D

 31 32  0  0  1  0  0  0  0  0999 V2000
   24.3597  -21.1107  -18.2602 N   0  0  0  0  0  0  0  0  0  0  0  0
   23.9387  -20.5873  -16.9854 C   0  0  1  0  0  0  0  0  0  0  0  0
   22.7475  -21.4465  -16.5416 C   0  0  0  0  0  0  0  0  0  0  0  0
   21.5630  -20.9480  -17.2870 C   0  0  0  0  0  0  0  0  0  0  0  0
   20.6813  -19.9499  -16.8522 C   0  0  0  0  0  0  0  0  0  0  0  0
   19.7389  -19.7717  -17.7894 N   0  0  0  0  0  0  0  0  0  0  0  0
   19.9851  -20.6142  -18.8004 C   0  0  0  0  0  0  0  0  0  0  0  0
   21.0931  -21.3251  -18.4894 N   0  0  0  0  0  0  0  0  0  0  0  0
   25.0170  -20.6603  -15.9602 C   0  0  0  0  0  0  0  0  0  0  0  0
   25.8553  -21.5881  -16.0816 O   0  0  0  0  0  0  0  0  0  0  0  0
   28.8241  -16.0485  -18.7198 O   0  0  0  0  0  0  0  0  0  0  0  0
   28.2784  -16.5658  -17.5420 C   0  0  0  0  0  0  0  0  0  0  0  0
   28.9501  -17.4911  -16.7672 C   0  0  0  0  0  0  0  0  0  0  0  0
   28.4470  -18.0223  -15.6039 C   0  0  0  0  0  0  0  0  0  0  0  0
   27.2015  -17.6216  -15.1676 C   0  0  0  0  0  0  0  0  0  0  0  0
   26.6726  -18.1952  -13.9230 C   0  0  0  0  0  0  0  0  0  0  0  0
   26.1544  -19.6019  -14.0277 C   0  0  2  0  0  0  0  0  0  0  0  0
   25.0440  -19.7077  -14.9279 N   0  0  0  0  0  0  0  0  0  0  0  0
   25.9067  -20.2104  -12.7230 C   0  0  0  0  0  0  0  0  0  0  0  0
   24.7389  -20.4137  -12.3255 O   0  0  0  0  0  0  0  0  0  0  0  0
   26.5122  -16.6992  -15.9240 C   0  0  0  0  0  0  0  0  0  0  0  0
   27.0359  -16.1845  -17.0804 C   0  0  0  0  0  0  0  0  0  0  0  0
   26.6051  -20.3086   -7.4119 C   0  0  0  0  0  0  0  0  0  0  0  0
   27.5931  -21.1960   -8.1043 C   0  0  2  0  0  0  0  0  0  0  0  0
   28.9316  -21.0127   -7.3670 C   0  0  0  0  0  0  0  0  0  0  0  0
   27.8616  -20.8829   -9.5297 C   0  0  0  0  0  0  0  0  0  0  0  0
   26.7245  -21.0048  -10.4805 C   0  0  2  0  0  0  0  0  0  0  0  0
   26.9654  -20.6092  -11.8244 N   0  0  0  0  0  0  0  0  0  0  0  0
   25.4514  -20.4467   -9.9268 C   0  0  0  0  0  0  0  0  0  0  0  0
   24.6212  -21.2102   -9.3868 O   0  0  0  0  0  0  0  0  0  0  0  0
   25.1483  -19.0977   -9.9878 O   0  0  0  0  0  0  0  0  0  0  0  0
  2  1  1  6
  2  3  1  0
  3  4  1  0
  4  5  2  0
  5  6  1  0
  7  6  1  0
  8  4  1  0
  8  7  2  0
  9 18  1  0
  9  2  1  0
 10  9  2  0
 11 12  1  0
 12 13  2  0
 13 14  1  0
 15 16  1  0
 15 14  2  0
 17 16  1  1
 17 18  1  0
 19 17  1  0
 20 19  2  0
 21 15  1  0
 22 21  2  0
 22 12  1  0
 24 23  1  1
 24 26  1  0
 25 24  1  0
 27 26  1  1
 27 29  1  0
 27 28  1  0
 28 19  1  0
 29 31  1  0
 30 29  2  0
M  END
$$$$
