HYL.pdb
     RDKit          3D

 31 32  0  0  1  0  0  0  0  0999 V2000
   27.9566  -19.5983  -19.2091 N   0  0  0  0  0  0  0  0  0  0  0  0
   27.7574  -18.7804  -18.0396 C   0  0  1  0  0  0  0  0  0  0  0  0
   26.8944  -17.5938  -18.4883 C   0  0  0  0  0  0  0  0  0  0  0  0
   27.7416  -16.7684  -19.3873 C   0  0  0  0  0  0  0  0  0  0  0  0
   28.8107  -15.9557  -18.9883 C   0  0  0  0  0  0  0  0  0  0  0  0
   29.3319  -15.3679  -20.0750 N   0  0  0  0  0  0  0  0  0  0  0  0
   28.6391  -15.7730  -21.1467 C   0  0  0  0  0  0  0  0  0  0  0  0
   27.6756  -16.6226  -20.7227 N   0  0  0  0  0  0  0  0  0  0  0  0
   27.0642  -19.5170  -16.9459 C   0  0  0  0  0  0  0  0  0  0  0  0
   26.0853  -20.2330  -17.2739 O   0  0  0  0  0  0  0  0  0  0  0  0
   24.7610  -21.3172   -8.5412 O   0  0  0  0  0  0  0  0  0  0  0  0
   25.4589  -20.9455   -9.6932 C   0  0  0  0  0  0  0  0  0  0  0  0
   25.9446  -21.8778  -10.5892 C   0  0  0  0  0  0  0  0  0  0  0  0
   26.6349  -21.5516  -11.7318 C   0  0  0  0  0  0  0  0  0  0  0  0
   26.8667  -20.2225  -12.0187 C   0  0  0  0  0  0  0  0  0  0  0  0
   27.6054  -19.8841  -13.2424 C   0  0  0  0  0  0  0  0  0  0  0  0
   26.8006  -19.9063  -14.5113 C   0  0  2  0  0  0  0  0  0  0  0  0
   27.5287  -19.3783  -15.6273 N   0  0  0  0  0  0  0  0  0  0  0  0
   25.4746  -19.3156  -14.3486 C   0  0  0  0  0  0  0  0  0  0  0  0
   25.3222  -18.0749  -14.3698 O   0  0  0  0  0  0  0  0  0  0  0  0
   26.3917  -19.2742  -11.1394 C   0  0  0  0  0  0  0  0  0  0  0  0
   25.7061  -19.6254  -10.0067 C   0  0  0  0  0  0  0  0  0  0  0  0
   22.3890  -18.3004  -17.5843 C   0  0  0  0  0  0  0  0  0  0  0  0
   22.6710  -19.2531  -16.4636 C   0  0  2  0  0  0  0  0  0  0  0  0
   21.7015  -20.4346  -16.6448 C   0  0  0  0  0  0  0  0  0  0  0  0
   22.4362  -18.7338  -15.0935 C   0  0  0  0  0  0  0  0  0  0  0  0
   22.9971  -19.5183  -13.9615 C   0  0  2  0  0  0  0  0  0  0  0  0
   24.2782  -20.1026  -14.1570 N   0  0  0  0  0  0  0  0  0  0  0  0
   22.0035  -20.4721  -13.3766 C   0  0  0  0  0  0  0  0  0  0  0  0
   20.8708  -20.0615  -13.0413 O   0  0  0  0  0  0  0  0  0  0  0  0
   22.2897  -21.8129  -13.1876 O   0  0  0  0  0  0  0  0  0  0  0  0
  2  1  1  6
  2  3  1  0
  3  4  1  0
  4  5  2  0
  5  6  1  0
  7  6  1  0
  8  4  1  0
  8  7  2  0
  9 18  1  0
  9  2  1  0
 10  9  2  0
 11 12  1  0
 12 13  2  0
 13 14  1  0
 15 16  1  0
 15 14  2  0
 17 16  1  1
 17 18  1  0
 19 17  1  0
 20 19  2  0
 21 15  1  0
 22 21  2  0
 22 12  1  0
 24 23  1  6
 24 26  1  0
 25 24  1  0
 27 26  1  6
 27 29  1  0
 27 28  1  0
 28 19  1  0
 29 31  1  0
 30 29  2  0
M  END
$$$$
