HYL.pdb
     RDKit          3D

 31 32  0  0  1  0  0  0  0  0999 V2000
   27.4937  -36.7470   -7.0405 N   0  0  0  0  0  0  0  0  0  0  0  0
   26.6893  -36.7617   -5.8451 C   0  0  1  0  0  0  0  0  0  0  0  0
   25.8984  -38.0761   -5.8768 C   0  0  0  0  0  0  0  0  0  0  0  0
   24.9302  -38.0166   -4.7515 C   0  0  0  0  0  0  0  0  0  0  0  0
   23.5628  -37.7321   -4.8608 C   0  0  0  0  0  0  0  0  0  0  0  0
   23.0176  -37.7682   -3.6363 N   0  0  0  0  0  0  0  0  0  0  0  0
   23.9809  -38.0634   -2.7544 C   0  0  0  0  0  0  0  0  0  0  0  0
   25.1389  -38.2129   -3.4375 N   0  0  0  0  0  0  0  0  0  0  0  0
   27.5154  -36.7054   -4.6068 C   0  0  0  0  0  0  0  0  0  0  0  0
   28.4674  -37.5208   -4.5206 O   0  0  0  0  0  0  0  0  0  0  0  0
   33.1714  -35.3848   -6.3847 O   0  0  0  0  0  0  0  0  0  0  0  0
   32.1566  -35.1631   -5.4501 C   0  0  0  0  0  0  0  0  0  0  0  0
   30.9996  -34.4809   -5.7719 C   0  0  0  0  0  0  0  0  0  0  0  0
   29.9802  -34.2434   -4.8813 C   0  0  0  0  0  0  0  0  0  0  0  0
   30.0998  -34.7042   -3.5869 C   0  0  0  0  0  0  0  0  0  0  0  0
   29.0049  -34.4452   -2.6426 C   0  0  0  0  0  0  0  0  0  0  0  0
   28.0262  -35.5713   -2.4618 C   0  0  2  0  0  0  0  0  0  0  0  0
   27.1970  -35.7626   -3.6151 N   0  0  0  0  0  0  0  0  0  0  0  0
   27.2740  -35.4699   -1.2137 C   0  0  0  0  0  0  0  0  0  0  0  0
   26.2667  -34.7336   -1.1342 O   0  0  0  0  0  0  0  0  0  0  0  0
   31.2453  -35.3877   -3.2423 C   0  0  0  0  0  0  0  0  0  0  0  0
   32.2475  -35.6117   -4.1490 C   0  0  0  0  0  0  0  0  0  0  0  0
   24.9700  -38.5803    1.0242 C   0  0  0  0  0  0  0  0  0  0  0  0
   26.3987  -38.5515    1.4725 C   0  0  2  0  0  0  0  0  0  0  0  0
   26.5296  -39.6203    2.5721 C   0  0  0  0  0  0  0  0  0  0  0  0
   26.8654  -37.2791    2.0769 C   0  0  0  0  0  0  0  0  0  0  0  0
   26.9010  -36.0797    1.1984 C   0  0  2  0  0  0  0  0  0  0  0  0
   27.6317  -36.1939   -0.0156 N   0  0  0  0  0  0  0  0  0  0  0  0
   27.2137  -34.8256    1.9523 C   0  0  0  0  0  0  0  0  0  0  0  0
   28.1593  -34.0965    1.5807 O   0  0  0  0  0  0  0  0  0  0  0  0
   26.4881  -34.4312    3.0629 O   0  0  0  0  0  0  0  0  0  0  0  0
  2  1  1  6
  2  3  1  0
  3  4  1  0
  4  5  2  0
  5  6  1  0
  7  6  1  0
  8  4  1  0
  8  7  2  0
  9 18  1  0
  9  2  1  0
 10  9  2  0
 11 12  1  0
 12 13  2  0
 13 14  1  0
 15 16  1  0
 15 14  2  0
 17 16  1  6
 17 18  1  0
 19 17  1  0
 20 19  2  0
 21 15  1  0
 22 21  2  0
 22 12  1  0
 24 23  1  1
 24 26  1  0
 25 24  1  0
 27 26  1  1
 27 29  1  0
 27 28  1  0
 28 19  1  0
 29 31  1  0
 30 29  2  0
M  END
$$$$
