HYL.pdb
     RDKit          3D

 31 32  0  0  1  0  0  0  0  0999 V2000
   26.2699  -22.2949  -19.2814 N   0  0  0  0  0  0  0  0  0  0  0  0
   25.6911  -21.1710  -18.5900 C   0  0  1  0  0  0  0  0  0  0  0  0
   24.5102  -20.7010  -19.4494 C   0  0  0  0  0  0  0  0  0  0  0  0
   25.0910  -19.9851  -20.6144 C   0  0  0  0  0  0  0  0  0  0  0  0
   24.8985  -20.3195  -21.9612 C   0  0  0  0  0  0  0  0  0  0  0  0
   25.5780  -19.4484  -22.7211 N   0  0  0  0  0  0  0  0  0  0  0  0
   26.1935  -18.5754  -21.9139 C   0  0  0  0  0  0  0  0  0  0  0  0
   25.8940  -18.9065  -20.6370 N   0  0  0  0  0  0  0  0  0  0  0  0
   25.2056  -21.5333  -17.2290 C   0  0  0  0  0  0  0  0  0  0  0  0
   24.6245  -22.6407  -17.1086 O   0  0  0  0  0  0  0  0  0  0  0  0
   24.2095  -21.2621   -8.4235 O   0  0  0  0  0  0  0  0  0  0  0  0
   24.5682  -20.9842   -9.7450 C   0  0  0  0  0  0  0  0  0  0  0  0
   25.5956  -21.6523  -10.3820 C   0  0  0  0  0  0  0  0  0  0  0  0
   25.9774  -21.4073  -11.6792 C   0  0  0  0  0  0  0  0  0  0  0  0
   25.3091  -20.4429  -12.4041 C   0  0  0  0  0  0  0  0  0  0  0  0
   25.7248  -20.1885  -13.7898 C   0  0  0  0  0  0  0  0  0  0  0  0
   24.9326  -20.9072  -14.8454 C   0  0  2  0  0  0  0  0  0  0  0  0
   25.4166  -20.6378  -16.1673 N   0  0  0  0  0  0  0  0  0  0  0  0
   23.4922  -20.7111  -14.7010 C   0  0  0  0  0  0  0  0  0  0  0  0
   22.9792  -19.5872  -14.8927 O   0  0  0  0  0  0  0  0  0  0  0  0
   24.2803  -19.7629  -11.7898 C   0  0  0  0  0  0  0  0  0  0  0  0
   23.9188  -20.0259  -10.4949 C   0  0  0  0  0  0  0  0  0  0  0  0
   19.5411  -20.8850  -16.7726 C   0  0  0  0  0  0  0  0  0  0  0  0
   20.1631  -22.1802  -16.3501 C   0  0  2  0  0  0  0  0  0  0  0  0
   19.2601  -23.2961  -16.9050 C   0  0  0  0  0  0  0  0  0  0  0  0
   20.2529  -22.4121  -14.8871 C   0  0  0  0  0  0  0  0  0  0  0  0
   21.1959  -21.5572  -14.1179 C   0  0  2  0  0  0  0  0  0  0  0  0
   22.5838  -21.7737  -14.3363 N   0  0  0  0  0  0  0  0  0  0  0  0
   20.8395  -21.4715  -12.6672 C   0  0  0  0  0  0  0  0  0  0  0  0
   19.7332  -20.9986  -12.3260 O   0  0  0  0  0  0  0  0  0  0  0  0
   21.6971  -21.9009  -11.6694 O   0  0  0  0  0  0  0  0  0  0  0  0
  2  1  1  6
  2  3  1  0
  3  4  1  0
  4  5  2  0
  5  6  1  0
  7  6  1  0
  8  4  1  0
  8  7  2  0
  9 18  1  0
  9  2  1  0
 10  9  2  0
 11 12  1  0
 12 13  2  0
 13 14  1  0
 15 16  1  0
 15 14  2  0
 17 16  1  1
 17 18  1  0
 19 17  1  0
 20 19  2  0
 21 15  1  0
 22 21  2  0
 22 12  1  0
 24 23  1  1
 24 26  1  0
 25 24  1  0
 27 26  1  1
 27 29  1  0
 27 28  1  0
 28 19  1  0
 29 31  1  0
 30 29  2  0
M  END
$$$$
