HYL.pdb
     RDKit          3D

 31 32  0  0  1  0  0  0  0  0999 V2000
   25.2801  -19.6003  -15.2112 N   0  0  0  0  0  0  0  0  0  0  0  0
   26.3404  -19.4796  -14.2430 C   0  0  1  0  0  0  0  0  0  0  0  0
   27.1096  -18.2028  -14.6067 C   0  0  0  0  0  0  0  0  0  0  0  0
   27.9196  -18.5231  -15.8102 C   0  0  0  0  0  0  0  0  0  0  0  0
   27.7472  -17.9695  -17.0855 C   0  0  0  0  0  0  0  0  0  0  0  0
   28.6612  -18.4999  -17.9109 N   0  0  0  0  0  0  0  0  0  0  0  0
   29.4063  -19.3667  -17.2137 C   0  0  0  0  0  0  0  0  0  0  0  0
   28.9513  -19.3761  -15.9398 N   0  0  0  0  0  0  0  0  0  0  0  0
   25.8243  -19.3722  -12.8497 C   0  0  0  0  0  0  0  0  0  0  0  0
   25.2166  -18.3147  -12.5482 O   0  0  0  0  0  0  0  0  0  0  0  0
   19.7987  -19.5456  -13.6349 O   0  0  0  0  0  0  0  0  0  0  0  0
   20.8849  -19.9676  -12.8637 C   0  0  0  0  0  0  0  0  0  0  0  0
   21.8140  -20.8724  -13.3388 C   0  0  0  0  0  0  0  0  0  0  0  0
   22.8942  -21.3110  -12.6113 C   0  0  0  0  0  0  0  0  0  0  0  0
   23.0793  -20.8323  -11.3310 C   0  0  0  0  0  0  0  0  0  0  0  0
   24.2370  -21.3071  -10.5616 C   0  0  0  0  0  0  0  0  0  0  0  0
   25.4659  -20.4461  -10.6437 C   0  0  2  0  0  0  0  0  0  0  0  0
   26.0375  -20.4367  -11.9580 N   0  0  0  0  0  0  0  0  0  0  0  0
   26.4332  -20.7418   -9.5897 C   0  0  0  0  0  0  0  0  0  0  0  0
   27.2591  -21.6706   -9.7244 O   0  0  0  0  0  0  0  0  0  0  0  0
   22.1652  -19.9285  -10.8353 C   0  0  0  0  0  0  0  0  0  0  0  0
   21.0963  -19.5069  -11.5810 C   0  0  0  0  0  0  0  0  0  0  0  0
   29.9910  -20.0268   -6.5577 C   0  0  0  0  0  0  0  0  0  0  0  0
   28.8359  -19.0793   -6.4526 C   0  0  2  0  0  0  0  0  0  0  0  0
   29.1695  -18.1153   -5.3002 C   0  0  0  0  0  0  0  0  0  0  0  0
   27.5247  -19.6868   -6.1153 C   0  0  0  0  0  0  0  0  0  0  0  0
   26.9125  -20.5914   -7.1246 C   0  0  2  0  0  0  0  0  0  0  0  0
   26.5015  -20.0014   -8.3509 N   0  0  0  0  0  0  0  0  0  0  0  0
   25.8742  -21.4918   -6.5330 C   0  0  0  0  0  0  0  0  0  0  0  0
   26.1536  -22.1901   -5.5338 O   0  0  0  0  0  0  0  0  0  0  0  0
   24.5953  -21.5865   -7.0535 O   0  0  0  0  0  0  0  0  0  0  0  0
  2  1  1  6
  2  3  1  0
  3  4  1  0
  4  5  2  0
  5  6  1  0
  7  6  1  0
  8  4  1  0
  8  7  2  0
  9 18  1  0
  9  2  1  0
 10  9  2  0
 11 12  1  0
 12 13  2  0
 13 14  1  0
 15 16  1  0
 15 14  2  0
 17 16  1  6
 17 18  1  0
 19 17  1  0
 20 19  2  0
 21 15  1  0
 22 21  2  0
 22 12  1  0
 24 23  1  1
 24 26  1  0
 25 24  1  0
 27 26  1  1
 27 29  1  0
 27 28  1  0
 28 19  1  0
 29 31  1  0
 30 29  2  0
M  END
$$$$
