HYL.pdb
     RDKit          3D

 31 32  0  0  1  0  0  0  0  0999 V2000
   28.9481  -21.8376  -17.7019 N   0  0  0  0  0  0  0  0  0  0  0  0
   28.0372  -22.4655  -16.7787 C   0  0  1  0  0  0  0  0  0  0  0  0
   28.8692  -22.8439  -15.5463 C   0  0  0  0  0  0  0  0  0  0  0  0
   29.6625  -24.0428  -15.9212 C   0  0  0  0  0  0  0  0  0  0  0  0
   31.0584  -24.1026  -16.0244 C   0  0  0  0  0  0  0  0  0  0  0  0
   31.4093  -25.3459  -16.3839 N   0  0  0  0  0  0  0  0  0  0  0  0
   30.2956  -26.0776  -16.5132 C   0  0  0  0  0  0  0  0  0  0  0  0
   29.2392  -25.2812  -16.2311 N   0  0  0  0  0  0  0  0  0  0  0  0
   26.9280  -21.5576  -16.3730 C   0  0  0  0  0  0  0  0  0  0  0  0
   27.2523  -20.4482  -15.8805 O   0  0  0  0  0  0  0  0  0  0  0  0
   18.7747  -18.1403  -15.8462 O   0  0  0  0  0  0  0  0  0  0  0  0
   19.9418  -18.8248  -16.1950 C   0  0  0  0  0  0  0  0  0  0  0  0
   20.0036  -20.2045  -16.2181 C   0  0  0  0  0  0  0  0  0  0  0  0
   21.1318  -20.9129  -16.5555 C   0  0  0  0  0  0  0  0  0  0  0  0
   22.2789  -20.2258  -16.8936 C   0  0  0  0  0  0  0  0  0  0  0  0
   23.4795  -20.9921  -17.2526 C   0  0  0  0  0  0  0  0  0  0  0  0
   24.4895  -21.1652  -16.1534 C   0  0  2  0  0  0  0  0  0  0  0  0
   25.5998  -21.9769  -16.5569 N   0  0  0  0  0  0  0  0  0  0  0  0
   23.8847  -21.5900  -14.8934 C   0  0  0  0  0  0  0  0  0  0  0  0
   23.4702  -22.7604  -14.7476 O   0  0  0  0  0  0  0  0  0  0  0  0
   22.2415  -18.8486  -16.8776 C   0  0  0  0  0  0  0  0  0  0  0  0
   21.1038  -18.1656  -16.5376 C   0  0  0  0  0  0  0  0  0  0  0  0
   26.0791  -21.9240  -11.8591 C   0  0  0  0  0  0  0  0  0  0  0  0
   25.2532  -20.7682  -11.3847 C   0  0  2  0  0  0  0  0  0  0  0  0
   25.7223  -20.4594   -9.9518 C   0  0  0  0  0  0  0  0  0  0  0  0
   23.7910  -21.0059  -11.2974 C   0  0  0  0  0  0  0  0  0  0  0  0
   23.0376  -21.0975  -12.5763 C   0  0  2  0  0  0  0  0  0  0  0  0
   23.7274  -20.7109  -13.7577 N   0  0  0  0  0  0  0  0  0  0  0  0
   21.6679  -20.5029  -12.4790 C   0  0  0  0  0  0  0  0  0  0  0  0
   21.3748  -19.5015  -13.1683 O   0  0  0  0  0  0  0  0  0  0  0  0
   20.6945  -21.0233  -11.6440 O   0  0  0  0  0  0  0  0  0  0  0  0
  2  1  1  6
  2  3  1  0
  3  4  1  0
  4  5  2  0
  5  6  1  0
  7  6  1  0
  8  4  1  0
  8  7  2  0
  9 18  1  0
  9  2  1  0
 10  9  2  0
 11 12  1  0
 12 13  2  0
 13 14  1  0
 15 16  1  0
 15 14  2  0
 17 16  1  6
 17 18  1  0
 19 17  1  0
 20 19  2  0
 21 15  1  0
 22 21  2  0
 22 12  1  0
 24 23  1  1
 24 26  1  0
 25 24  1  0
 27 26  1  1
 27 29  1  0
 27 28  1  0
 28 19  1  0
 29 31  1  0
 30 29  2  0
M  END
$$$$
