HYL.pdb
     RDKit          3D

 31 32  0  0  1  0  0  0  0  0999 V2000
   26.8600  -20.6815  -18.9884 N   0  0  0  0  0  0  0  0  0  0  0  0
   26.5210  -19.7011  -17.9883 C   0  0  1  0  0  0  0  0  0  0  0  0
   25.4338  -18.8140  -18.6090 C   0  0  0  0  0  0  0  0  0  0  0  0
   26.0804  -18.0598  -19.7136 C   0  0  0  0  0  0  0  0  0  0  0  0
   25.7749  -18.1782  -21.0758 C   0  0  0  0  0  0  0  0  0  0  0  0
   26.5630  -17.3419  -21.7667 N   0  0  0  0  0  0  0  0  0  0  0  0
   27.3557  -16.6977  -20.9011 C   0  0  0  0  0  0  0  0  0  0  0  0
   27.0579  -17.1378  -19.6571 N   0  0  0  0  0  0  0  0  0  0  0  0
   26.0038  -20.3243  -16.7380 C   0  0  0  0  0  0  0  0  0  0  0  0
   25.2258  -21.3020  -16.8695 O   0  0  0  0  0  0  0  0  0  0  0  0
   24.5710  -21.2413   -7.9922 O   0  0  0  0  0  0  0  0  0  0  0  0
   25.1096  -20.9509   -9.2483 C   0  0  0  0  0  0  0  0  0  0  0  0
   25.0738  -19.6788   -9.7853 C   0  0  0  0  0  0  0  0  0  0  0  0
   25.5923  -19.3544  -11.0159 C   0  0  0  0  0  0  0  0  0  0  0  0
   26.1867  -20.3412  -11.7743 C   0  0  0  0  0  0  0  0  0  0  0  0
   26.7378  -19.9843  -13.0883 C   0  0  0  0  0  0  0  0  0  0  0  0
   25.8474  -20.2737  -14.2638 C   0  0  2  0  0  0  0  0  0  0  0  0
   26.4026  -19.7996  -15.4973 N   0  0  0  0  0  0  0  0  0  0  0  0
   24.4673  -19.8481  -14.0444 C   0  0  0  0  0  0  0  0  0  0  0  0
   24.1543  -18.6396  -14.1118 O   0  0  0  0  0  0  0  0  0  0  0  0
   26.2343  -21.6182  -11.2595 C   0  0  0  0  0  0  0  0  0  0  0  0
   25.7100  -21.9160  -10.0295 C   0  0  0  0  0  0  0  0  0  0  0  0
   21.5407  -20.9112  -16.9437 C   0  0  0  0  0  0  0  0  0  0  0  0
   20.9666  -21.1366  -15.5789 C   0  0  2  0  0  0  0  0  0  0  0  0
   19.4428  -21.2498  -15.7629 C   0  0  0  0  0  0  0  0  0  0  0  0
   21.1831  -20.0479  -14.5941 C   0  0  0  0  0  0  0  0  0  0  0  0
   22.0751  -20.3394  -13.4404 C   0  0  2  0  0  0  0  0  0  0  0  0
   23.3961  -20.7692  -13.7421 N   0  0  0  0  0  0  0  0  0  0  0  0
   21.4096  -21.1839  -12.3998 C   0  0  0  0  0  0  0  0  0  0  0  0
   21.7814  -22.3654  -12.2274 O   0  0  0  0  0  0  0  0  0  0  0  0
   20.3820  -20.7048  -11.6062 O   0  0  0  0  0  0  0  0  0  0  0  0
  2  1  1  6
  2  3  1  0
  3  4  1  0
  4  5  2  0
  5  6  1  0
  7  6  1  0
  8  4  1  0
  8  7  2  0
  9 18  1  0
  9  2  1  0
 10  9  2  0
 11 12  1  0
 12 13  2  0
 13 14  1  0
 15 16  1  0
 15 14  2  0
 17 16  1  1
 17 18  1  0
 19 17  1  0
 20 19  2  0
 21 15  1  0
 22 21  2  0
 22 12  1  0
 24 23  1  6
 24 26  1  0
 25 24  1  0
 27 26  1  6
 27 29  1  0
 27 28  1  0
 28 19  1  0
 29 31  1  0
 30 29  2  0
M  END
$$$$
