HYL.pdb
     RDKit          3D

 31 32  0  0  1  0  0  0  0  0999 V2000
   27.9419  -21.6959  -16.6298 N   0  0  0  0  0  0  0  0  0  0  0  0
   26.5454  -22.0162  -16.4759 C   0  0  1  0  0  0  0  0  0  0  0  0
   26.4913  -23.3223  -15.6727 C   0  0  0  0  0  0  0  0  0  0  0  0
   27.0277  -24.3880  -16.5580 C   0  0  0  0  0  0  0  0  0  0  0  0
   27.9584  -25.3683  -16.1898 C   0  0  0  0  0  0  0  0  0  0  0  0
   28.2004  -26.1508  -17.2514 N   0  0  0  0  0  0  0  0  0  0  0  0
   27.4628  -25.7090  -18.2777 C   0  0  0  0  0  0  0  0  0  0  0  0
   26.7535  -24.6393  -17.8505 N   0  0  0  0  0  0  0  0  0  0  0  0
   25.7978  -20.9518  -15.7498 C   0  0  0  0  0  0  0  0  0  0  0  0
   26.2748  -20.5695  -14.6522 O   0  0  0  0  0  0  0  0  0  0  0  0
   29.1217  -15.8552  -16.8146 O   0  0  0  0  0  0  0  0  0  0  0  0
   27.8454  -16.4165  -16.7232 C   0  0  0  0  0  0  0  0  0  0  0  0
   27.0161  -16.1806  -15.6442 C   0  0  0  0  0  0  0  0  0  0  0  0
   25.7559  -16.7139  -15.5184 C   0  0  0  0  0  0  0  0  0  0  0  0
   25.2726  -17.5346  -16.5161 C   0  0  0  0  0  0  0  0  0  0  0  0
   23.9244  -18.0997  -16.3724 C   0  0  0  0  0  0  0  0  0  0  0  0
   23.8490  -19.4212  -15.6608 C   0  0  2  0  0  0  0  0  0  0  0  0
   24.6194  -20.4371  -16.3157 N   0  0  0  0  0  0  0  0  0  0  0  0
   22.4764  -19.8277  -15.3697 C   0  0  0  0  0  0  0  0  0  0  0  0
   21.7493  -20.3065  -16.2669 O   0  0  0  0  0  0  0  0  0  0  0  0
   26.0818  -17.7846  -17.6027 C   0  0  0  0  0  0  0  0  0  0  0  0
   27.3349  -17.2406  -17.7043 C   0  0  0  0  0  0  0  0  0  0  0  0
   21.5096  -22.8570  -13.4103 C   0  0  0  0  0  0  0  0  0  0  0  0
   20.5437  -22.2919  -12.4151 C   0  0  2  0  0  0  0  0  0  0  0  0
   19.1758  -22.9217  -12.7327 C   0  0  0  0  0  0  0  0  0  0  0  0
   20.3426  -20.8225  -12.4657 C   0  0  0  0  0  0  0  0  0  0  0  0
   20.5582  -20.1494  -13.7742 C   0  0  2  0  0  0  0  0  0  0  0  0
   21.8790  -19.7080  -14.0597 N   0  0  0  0  0  0  0  0  0  0  0  0
   19.5203  -19.1111  -14.0631 C   0  0  0  0  0  0  0  0  0  0  0  0
   19.8514  -17.9082  -14.1479 O   0  0  0  0  0  0  0  0  0  0  0  0
   18.1859  -19.4309  -14.2436 O   0  0  0  0  0  0  0  0  0  0  0  0
  2  1  1  1
  2  3  1  0
  3  4  1  0
  4  5  2  0
  5  6  1  0
  7  6  1  0
  8  4  1  0
  8  7  2  0
  9 18  1  0
  9  2  1  0
 10  9  2  0
 11 12  1  0
 12 13  2  0
 13 14  1  0
 15 16  1  0
 15 14  2  0
 17 16  1  6
 17 18  1  0
 19 17  1  0
 20 19  2  0
 21 15  1  0
 22 21  2  0
 22 12  1  0
 24 23  1  6
 24 26  1  0
 25 24  1  0
 27 26  1  1
 27 29  1  0
 27 28  1  0
 28 19  1  0
 29 31  1  0
 30 29  2  0
M  END
$$$$
