HYL.pdb
     RDKit          3D

 31 32  0  0  1  0  0  0  0  0999 V2000
   24.8858  -16.0524  -20.3096 N   0  0  0  0  0  0  0  0  0  0  0  0
   25.6256  -15.3980  -19.2604 C   0  0  1  0  0  0  0  0  0  0  0  0
   27.0981  -15.4301  -19.6901 C   0  0  0  0  0  0  0  0  0  0  0  0
   27.4983  -16.8603  -19.7289 C   0  0  0  0  0  0  0  0  0  0  0  0
   27.8861  -17.5723  -20.8714 C   0  0  0  0  0  0  0  0  0  0  0  0
   28.1730  -18.8327  -20.5149 N   0  0  0  0  0  0  0  0  0  0  0  0
   27.9837  -18.9509  -19.1947 C   0  0  0  0  0  0  0  0  0  0  0  0
   27.5744  -17.7507  -18.7238 N   0  0  0  0  0  0  0  0  0  0  0  0
   25.1942  -13.9863  -19.0602 C   0  0  0  0  0  0  0  0  0  0  0  0
   24.9229  -13.3227  -20.0919 O   0  0  0  0  0  0  0  0  0  0  0  0
   21.4022   -6.9641  -15.3925 O   0  0  0  0  0  0  0  0  0  0  0  0
   21.9475   -8.2257  -15.6439 C   0  0  0  0  0  0  0  0  0  0  0  0
   23.1194   -8.6500  -15.0485 C   0  0  0  0  0  0  0  0  0  0  0  0
   23.6862   -9.8820  -15.2704 C   0  0  0  0  0  0  0  0  0  0  0  0
   23.0651  -10.7601  -16.1338 C   0  0  0  0  0  0  0  0  0  0  0  0
   23.6790  -12.0746  -16.3643 C   0  0  0  0  0  0  0  0  0  0  0  0
   24.6688  -12.1376  -17.4934 C   0  0  2  0  0  0  0  0  0  0  0  0
   25.1131  -13.4752  -17.7541 N   0  0  0  0  0  0  0  0  0  0  0  0
   25.7613  -11.1802  -17.3398 C   0  0  0  0  0  0  0  0  0  0  0  0
   26.6368  -11.3469  -16.4630 O   0  0  0  0  0  0  0  0  0  0  0  0
   21.8947  -10.3591  -16.7398 C   0  0  0  0  0  0  0  0  0  0  0  0
   21.3497   -9.1251  -16.5019 C   0  0  0  0  0  0  0  0  0  0  0  0
   29.6856  -10.5566  -16.9733 C   0  0  0  0  0  0  0  0  0  0  0  0
   28.9886  -10.9140  -18.2498 C   0  0  2  0  0  0  0  0  0  0  0  0
   30.0857  -11.3602  -19.2326 C   0  0  0  0  0  0  0  0  0  0  0  0
   28.2565   -9.8120  -18.9219 C   0  0  0  0  0  0  0  0  0  0  0  0
   27.0931   -9.2281  -18.2028 C   0  0  2  0  0  0  0  0  0  0  0  0
   25.9031  -10.0051  -18.1683 N   0  0  0  0  0  0  0  0  0  0  0  0
   26.8471   -7.7997  -18.5743 C   0  0  0  0  0  0  0  0  0  0  0  0
   25.8345   -7.4970  -19.2430 O   0  0  0  0  0  0  0  0  0  0  0  0
   27.7075   -6.7813  -18.2029 O   0  0  0  0  0  0  0  0  0  0  0  0
  2  1  1  6
  2  3  1  0
  3  4  1  0
  4  5  2  0
  5  6  1  0
  7  6  1  0
  8  4  1  0
  8  7  2  0
  9 18  1  0
  9  2  1  0
 10  9  2  0
 11 12  1  0
 12 13  2  0
 13 14  1  0
 15 16  1  0
 15 14  2  0
 17 16  1  1
 17 18  1  0
 19 17  1  0
 20 19  2  0
 21 15  1  0
 22 21  2  0
 22 12  1  0
 24 23  1  1
 24 26  1  0
 25 24  1  0
 27 26  1  6
 27 29  1  0
 27 28  1  0
 28 19  1  0
 29 31  1  0
 30 29  2  0
M  END
$$$$
