HYL.pdb
     RDKit          3D

 31 32  0  0  1  0  0  0  0  0999 V2000
   26.5099  -20.2282  -17.5493 N   0  0  0  0  0  0  0  0  0  0  0  0
   27.3194  -20.4010  -16.3699 C   0  0  1  0  0  0  0  0  0  0  0  0
   28.5476  -19.5007  -16.5574 C   0  0  0  0  0  0  0  0  0  0  0  0
   29.2947  -20.0386  -17.7235 C   0  0  0  0  0  0  0  0  0  0  0  0
   29.6077  -19.3332  -18.8927 C   0  0  0  0  0  0  0  0  0  0  0  0
   30.2864  -20.1459  -19.7156 N   0  0  0  0  0  0  0  0  0  0  0  0
   30.4173  -21.3370  -19.1183 C   0  0  0  0  0  0  0  0  0  0  0  0
   29.8135  -21.2653  -17.9099 N   0  0  0  0  0  0  0  0  0  0  0  0
   26.5981  -20.0097  -15.1266 C   0  0  0  0  0  0  0  0  0  0  0  0
   26.6579  -18.8004  -14.7911 O   0  0  0  0  0  0  0  0  0  0  0  0
   21.4070  -17.4622  -17.5321 O   0  0  0  0  0  0  0  0  0  0  0  0
   21.9545  -18.3112  -16.5667 C   0  0  0  0  0  0  0  0  0  0  0  0
   22.0389  -17.9506  -15.2361 C   0  0  0  0  0  0  0  0  0  0  0  0
   22.5701  -18.7572  -14.2585 C   0  0  0  0  0  0  0  0  0  0  0  0
   23.0522  -20.0021  -14.6051 C   0  0  0  0  0  0  0  0  0  0  0  0
   23.6180  -20.8567  -13.5529 C   0  0  0  0  0  0  0  0  0  0  0  0
   25.0816  -20.6583  -13.2752 C   0  0  2  0  0  0  0  0  0  0  0  0
   25.9000  -20.9914  -14.4038 N   0  0  0  0  0  0  0  0  0  0  0  0
   25.5121  -21.2976  -12.0343 C   0  0  0  0  0  0  0  0  0  0  0  0
   25.7494  -22.5246  -11.9981 O   0  0  0  0  0  0  0  0  0  0  0  0
   22.9788  -20.3839  -15.9268 C   0  0  0  0  0  0  0  0  0  0  0  0
   22.4444  -19.5611  -16.8827 C   0  0  0  0  0  0  0  0  0  0  0  0
   29.0346  -19.3693   -9.0466 C   0  0  0  0  0  0  0  0  0  0  0  0
   27.6100  -19.6309   -8.6656 C   0  0  2  0  0  0  0  0  0  0  0  0
   27.4996  -19.3215   -7.1620 C   0  0  0  0  0  0  0  0  0  0  0  0
   27.1372  -21.0273   -8.8348 C   0  0  0  0  0  0  0  0  0  0  0  0
   25.8443  -21.2285   -9.5416 C   0  0  2  0  0  0  0  0  0  0  0  0
   25.6890  -20.5763  -10.7951 N   0  0  0  0  0  0  0  0  0  0  0  0
   24.6637  -21.0493   -8.6399 C   0  0  0  0  0  0  0  0  0  0  0  0
   24.5949  -21.6942   -7.5707 O   0  0  0  0  0  0  0  0  0  0  0  0
   23.6264  -20.1851   -8.9443 O   0  0  0  0  0  0  0  0  0  0  0  0
  2  1  1  6
  2  3  1  0
  3  4  1  0
  4  5  2  0
  5  6  1  0
  7  6  1  0
  8  4  1  0
  8  7  2  0
  9 18  1  0
  9  2  1  0
 10  9  2  0
 11 12  1  0
 12 13  2  0
 13 14  1  0
 15 16  1  0
 15 14  2  0
 17 16  1  6
 17 18  1  0
 19 17  1  0
 20 19  2  0
 21 15  1  0
 22 21  2  0
 22 12  1  0
 24 23  1  1
 24 26  1  0
 25 24  1  0
 27 26  1  1
 27 29  1  0
 27 28  1  0
 28 19  1  0
 29 31  1  0
 30 29  2  0
M  END
$$$$
