TYI.pdb
     RDKit          3D

 28 28  0  0  1  0  0  0  0  0999 V2000
   11.5921  -19.6380   19.8089 C   0  0  0  0  0  0  0  0  0  0  0  0
   11.3324  -18.6729   20.9445 C   0  0  1  0  0  0  0  0  0  0  0  0
   12.4263  -18.7389   21.7978 O   0  0  0  0  0  0  0  0  0  0  0  0
   11.2161  -17.2453   20.4483 C   0  0  2  0  0  0  0  0  0  0  0  0
   12.5062  -16.7946   19.9091 N   0  0  0  0  0  0  0  0  0  0  0  0
   10.7766  -16.3289   21.5245 C   0  0  0  0  0  0  0  0  0  0  0  0
   11.6553  -15.6698   22.1407 O   0  0  0  0  0  0  0  0  0  0  0  0
    5.6726  -11.7657   27.0525 O   0  0  0  0  0  0  0  0  0  0  0  0
    6.1047  -12.6699   26.0782 C   0  0  0  0  0  0  0  0  0  0  0  0
    6.8162  -12.1384   25.0255 C   0  0  0  0  0  0  0  0  0  0  0  0
    7.2559  -12.9985   24.0503 C   0  0  0  0  0  0  0  0  0  0  0  0
    7.0119  -14.3590   24.0896 C   0  0  0  0  0  0  0  0  0  0  0  0
    7.5454  -15.1709   22.9699 C   0  0  0  0  0  0  0  0  0  0  0  0
    9.0390  -15.3798   23.0813 C   0  0  2  0  0  0  0  0  0  0  0  0
    9.4466  -16.1369   21.9125 N   0  0  0  0  0  0  0  0  0  0  0  0
    9.2800  -16.1260   24.3364 C   0  0  0  0  0  0  0  0  0  0  0  0
    9.2304  -17.3757   24.2987 O   0  0  0  0  0  0  0  0  0  0  0  0
    6.3057  -14.8543   25.1431 C   0  0  0  0  0  0  0  0  0  0  0  0
    5.8425  -14.0145   26.1523 C   0  0  0  0  0  0  0  0  0  0  0  0
   10.9095  -13.1341   28.8587 C   0  0  0  0  0  0  0  0  0  0  0  0
   10.9694  -13.9826   27.6050 C   0  0  0  0  0  0  0  0  0  0  0  0
   10.2267  -15.2590   27.8848 C   0  0  2  0  0  0  0  0  0  0  0  0
   11.0393  -16.0546   28.8859 C   0  0  0  0  0  0  0  0  0  0  0  0
   10.0572  -16.1244   26.6613 C   0  0  2  0  0  0  0  0  0  0  0  0
    9.5562  -15.4146   25.5280 N   0  0  0  0  0  0  0  0  0  0  0  0
    9.0893  -17.1876   27.0186 C   0  0  0  0  0  0  0  0  0  0  0  0
    7.8417  -17.0543   26.9141 O   0  0  0  0  0  0  0  0  0  0  0  0
    9.5544  -18.3964   27.4933 O   0  0  0  0  0  0  0  0  0  0  0  0
  2  1  1  6
  3  2  1  0
  4  2  1  0
  4  6  1  0
  4  5  1  1
  6 15  1  0
  7  6  2  0
  9  8  1  0
 10  9  2  0
 11 10  1  0
 12 11  2  0
 12 18  1  0
 13 12  1  0
 14 16  1  0
 14 13  1  6
 15 14  1  0
 16 25  1  0
 17 16  2  0
 18 19  2  0
 19  9  1  0
 21 20  1  0
 22 21  1  0
 22 24  1  0
 22 23  1  1
 24 26  1  0
 24 25  1  6
 26 27  2  0
 26 28  1  0
M  END
$$$$
