TYI.pdb
     RDKit          3D

 28 28  0  0  1  0  0  0  0  0999 V2000
    6.3146  -17.7628   18.5895 C   0  0  0  0  0  0  0  0  0  0  0  0
    6.5544  -17.5033   20.0604 C   0  0  1  0  0  0  0  0  0  0  0  0
    6.1921  -16.1858   20.3093 O   0  0  0  0  0  0  0  0  0  0  0  0
    5.6923  -18.3946   20.9323 C   0  0  2  0  0  0  0  0  0  0  0  0
    4.2763  -18.2228   20.5806 N   0  0  0  0  0  0  0  0  0  0  0  0
    5.8890  -18.1040   22.3703 C   0  0  0  0  0  0  0  0  0  0  0  0
    5.0229  -17.4054   22.9602 O   0  0  0  0  0  0  0  0  0  0  0  0
    8.9432  -18.4362   30.6141 O   0  0  0  0  0  0  0  0  0  0  0  0
    8.8223  -18.5843   29.2295 C   0  0  0  0  0  0  0  0  0  0  0  0
    7.7053  -19.2551   28.7831 C   0  0  0  0  0  0  0  0  0  0  0  0
    7.5550  -19.4185   27.4285 C   0  0  0  0  0  0  0  0  0  0  0  0
    8.4733  -18.9394   26.5125 C   0  0  0  0  0  0  0  0  0  0  0  0
    8.1858  -19.1865   25.0793 C   0  0  0  0  0  0  0  0  0  0  0  0
    7.2078  -18.1806   24.5148 C   0  0  2  0  0  0  0  0  0  0  0  0
    6.9738  -18.5513   23.1316 N   0  0  0  0  0  0  0  0  0  0  0  0
    7.8405  -16.8478   24.6318 C   0  0  0  0  0  0  0  0  0  0  0  0
    8.7396  -16.5478   23.8149 O   0  0  0  0  0  0  0  0  0  0  0  0
    9.5673  -18.2805   26.9847 C   0  0  0  0  0  0  0  0  0  0  0  0
    9.7557  -18.0944   28.3515 C   0  0  0  0  0  0  0  0  0  0  0  0
    6.4883  -11.2134   25.6856 C   0  0  0  0  0  0  0  0  0  0  0  0
    7.5435  -12.2060   26.1289 C   0  0  0  0  0  0  0  0  0  0  0  0
    6.9463  -13.5813   26.0228 C   0  0  2  0  0  0  0  0  0  0  0  0
    6.3495  -13.9294   27.3712 C   0  0  0  0  0  0  0  0  0  0  0  0
    7.9656  -14.6448   25.6994 C   0  0  2  0  0  0  0  0  0  0  0  0
    7.4167  -15.9621   25.6506 N   0  0  0  0  0  0  0  0  0  0  0  0
    8.9882  -14.5985   26.7704 C   0  0  0  0  0  0  0  0  0  0  0  0
    9.7910  -13.6406   26.9228 O   0  0  0  0  0  0  0  0  0  0  0  0
    9.0862  -15.6480   27.6602 O   0  0  0  0  0  0  0  0  0  0  0  0
  2  1  1  6
  3  2  1  0
  4  2  1  0
  4  6  1  0
  4  5  1  6
  6 15  1  0
  7  6  2  0
  9  8  1  0
 10  9  2  0
 11 10  1  0
 12 11  2  0
 12 18  1  0
 13 12  1  0
 14 16  1  0
 14 13  1  6
 15 14  1  0
 16 25  1  0
 17 16  2  0
 18 19  2  0
 19  9  1  0
 21 20  1  0
 22 21  1  0
 22 24  1  0
 22 23  1  1
 24 26  1  0
 24 25  1  1
 26 27  2  0
 26 28  1  0
M  END
$$$$
