TYI.pdb
     RDKit          3D

 28 28  0  0  1  0  0  0  0  0999 V2000
    7.9281  -17.4355   18.6693 C   0  0  0  0  0  0  0  0  0  0  0  0
    7.5118  -17.0539   20.0727 C   0  0  1  0  0  0  0  0  0  0  0  0
    6.4859  -16.1247   19.9584 O   0  0  0  0  0  0  0  0  0  0  0  0
    6.9749  -18.2463   20.8394 C   0  0  2  0  0  0  0  0  0  0  0  0
    5.7345  -18.7268   20.2160 N   0  0  0  0  0  0  0  0  0  0  0  0
    6.7239  -17.9124   22.2594 C   0  0  0  0  0  0  0  0  0  0  0  0
    5.5599  -17.5655   22.5925 O   0  0  0  0  0  0  0  0  0  0  0  0
    4.8828  -23.3247   25.6854 O   0  0  0  0  0  0  0  0  0  0  0  0
    5.6886  -22.1884   25.5720 C   0  0  0  0  0  0  0  0  0  0  0  0
    5.6954  -21.3351   26.6532 C   0  0  0  0  0  0  0  0  0  0  0  0
    6.4762  -20.2089   26.5755 C   0  0  0  0  0  0  0  0  0  0  0  0
    7.2437  -19.9078   25.4653 C   0  0  0  0  0  0  0  0  0  0  0  0
    8.0397  -18.6583   25.5164 C   0  0  0  0  0  0  0  0  0  0  0  0
    7.4468  -17.5715   24.6480 C   0  0  2  0  0  0  0  0  0  0  0  0
    7.6904  -17.9539   23.2697 N   0  0  0  0  0  0  0  0  0  0  0  0
    8.1342  -16.3097   25.0026 C   0  0  0  0  0  0  0  0  0  0  0  0
    9.2782  -16.1100   24.5367 O   0  0  0  0  0  0  0  0  0  0  0  0
    7.2159  -20.7708   24.4126 C   0  0  0  0  0  0  0  0  0  0  0  0
    6.4367  -21.9238   24.4528 C   0  0  0  0  0  0  0  0  0  0  0  0
    5.3874  -11.6006   26.0913 C   0  0  0  0  0  0  0  0  0  0  0  0
    6.3627  -12.6058   25.5138 C   0  0  0  0  0  0  0  0  0  0  0  0
    7.2597  -13.0613   26.6306 C   0  0  2  0  0  0  0  0  0  0  0  0
    8.1349  -11.8893   27.0253 C   0  0  0  0  0  0  0  0  0  0  0  0
    8.1788  -14.1874   26.2284 C   0  0  2  0  0  0  0  0  0  0  0  0
    7.4871  -15.3771   25.8474 N   0  0  0  0  0  0  0  0  0  0  0  0
    9.0265  -14.4902   27.4051 C   0  0  0  0  0  0  0  0  0  0  0  0
    8.7122  -15.3290   28.2898 O   0  0  0  0  0  0  0  0  0  0  0  0
   10.2284  -13.8315   27.5624 O   0  0  0  0  0  0  0  0  0  0  0  0
  2  1  1  6
  3  2  1  0
  4  2  1  0
  4  6  1  0
  4  5  1  6
  6 15  1  0
  7  6  2  0
  9  8  1  0
 10  9  2  0
 11 10  1  0
 12 11  2  0
 12 18  1  0
 13 12  1  0
 14 16  1  0
 14 13  1  1
 15 14  1  0
 16 25  1  0
 17 16  2  0
 18 19  2  0
 19  9  1  0
 21 20  1  0
 22 21  1  0
 22 24  1  0
 22 23  1  6
 24 26  1  0
 24 25  1  1
 26 27  2  0
 26 28  1  0
M  END
$$$$
