TYI.pdb
     RDKit          3D

 28 28  0  0  1  0  0  0  0  0999 V2000
    7.8455  -12.2031   18.0858 C   0  0  0  0  0  0  0  0  0  0  0  0
    8.6330  -13.2815   18.7965 C   0  0  1  0  0  0  0  0  0  0  0  0
    7.7430  -14.3007   19.1102 O   0  0  0  0  0  0  0  0  0  0  0  0
    9.7112  -13.8649   17.9050 C   0  0  2  0  0  0  0  0  0  0  0  0
    9.1008  -14.5056   16.7323 N   0  0  0  0  0  0  0  0  0  0  0  0
   10.5471  -14.8464   18.6323 C   0  0  0  0  0  0  0  0  0  0  0  0
   10.3435  -16.0717   18.4239 O   0  0  0  0  0  0  0  0  0  0  0  0
   16.1093  -15.9583   15.3668 O   0  0  0  0  0  0  0  0  0  0  0  0
   15.4937  -15.6731   16.5887 C   0  0  0  0  0  0  0  0  0  0  0  0
   15.5050  -16.6811   17.5272 C   0  0  0  0  0  0  0  0  0  0  0  0
   14.9090  -16.4349   18.7390 C   0  0  0  0  0  0  0  0  0  0  0  0
   14.3075  -15.2276   19.0432 C   0  0  0  0  0  0  0  0  0  0  0  0
   13.7020  -15.0981   20.3901 C   0  0  0  0  0  0  0  0  0  0  0  0
   12.2367  -15.4720   20.3923 C   0  0  2  0  0  0  0  0  0  0  0  0
   11.5562  -14.5134   19.5418 N   0  0  0  0  0  0  0  0  0  0  0  0
   11.7718  -15.3957   21.7953 C   0  0  0  0  0  0  0  0  0  0  0  0
   12.3567  -14.6047   22.5685 O   0  0  0  0  0  0  0  0  0  0  0  0
   14.3126  -14.2507   18.0948 C   0  0  0  0  0  0  0  0  0  0  0  0
   14.9068  -14.4617   16.8535 C   0  0  0  0  0  0  0  0  0  0  0  0
    7.0606  -13.9979   23.0418 C   0  0  0  0  0  0  0  0  0  0  0  0
    8.5500  -14.2739   23.0138 C   0  0  0  0  0  0  0  0  0  0  0  0
    8.7727  -15.6260   23.6316 C   0  0  2  0  0  0  0  0  0  0  0  0
    8.4139  -15.5260   25.1001 C   0  0  0  0  0  0  0  0  0  0  0  0
   10.2084  -16.0816   23.5544 C   0  0  2  0  0  0  0  0  0  0  0  0
   10.6933  -16.2087   22.2173 N   0  0  0  0  0  0  0  0  0  0  0  0
   10.2728  -17.4093   24.2086 C   0  0  0  0  0  0  0  0  0  0  0  0
   10.2157  -17.5723   25.4557 O   0  0  0  0  0  0  0  0  0  0  0  0
   10.4020  -18.5422   23.4321 O   0  0  0  0  0  0  0  0  0  0  0  0
  2  1  1  6
  3  2  1  0
  4  2  1  0
  4  6  1  0
  4  5  1  6
  6 15  1  0
  7  6  2  0
  9  8  1  0
 10  9  2  0
 11 10  1  0
 12 11  2  0
 12 18  1  0
 13 12  1  0
 14 16  1  0
 14 13  1  1
 15 14  1  0
 16 25  1  0
 17 16  2  0
 18 19  2  0
 19  9  1  0
 21 20  1  0
 22 21  1  0
 22 24  1  0
 22 23  1  1
 24 26  1  0
 24 25  1  6
 26 27  2  0
 26 28  1  0
M  END
$$$$
