TYI.pdb
     RDKit          3D

 28 28  0  0  1  0  0  0  0  0999 V2000
    8.5436  -12.8177   20.0266 C   0  0  0  0  0  0  0  0  0  0  0  0
    8.0353  -13.6899   18.9000 C   0  0  1  0  0  0  0  0  0  0  0  0
    8.6044  -13.2161   17.7249 O   0  0  0  0  0  0  0  0  0  0  0  0
    8.4641  -15.1334   19.0744 C   0  0  2  0  0  0  0  0  0  0  0  0
    7.9045  -15.9573   17.9944 N   0  0  0  0  0  0  0  0  0  0  0  0
    8.0397  -15.6728   20.3858 C   0  0  0  0  0  0  0  0  0  0  0  0
    6.8364  -16.0171   20.5265 O   0  0  0  0  0  0  0  0  0  0  0  0
   14.4249  -18.1939   21.6741 O   0  0  0  0  0  0  0  0  0  0  0  0
   13.0514  -18.0856   21.9088 C   0  0  0  0  0  0  0  0  0  0  0  0
   12.6678  -17.9256   23.2220 C   0  0  0  0  0  0  0  0  0  0  0  0
   11.3258  -17.8158   23.4885 C   0  0  0  0  0  0  0  0  0  0  0  0
   10.3620  -17.8599   22.4979 C   0  0  0  0  0  0  0  0  0  0  0  0
    8.9493  -17.7288   22.9274 C   0  0  0  0  0  0  0  0  0  0  0  0
    8.4429  -16.3106   22.7888 C   0  0  2  0  0  0  0  0  0  0  0  0
    8.8817  -15.8316   21.4913 N   0  0  0  0  0  0  0  0  0  0  0  0
    9.0348  -15.5286   23.8972 C   0  0  0  0  0  0  0  0  0  0  0  0
   10.1178  -14.9371   23.6894 O   0  0  0  0  0  0  0  0  0  0  0  0
   10.7725  -18.0189   21.2095 C   0  0  0  0  0  0  0  0  0  0  0  0
   12.1247  -18.1340   20.8983 C   0  0  0  0  0  0  0  0  0  0  0  0
    6.0564  -11.8628   26.0779 C   0  0  0  0  0  0  0  0  0  0  0  0
    7.1995  -12.6733   25.5020 C   0  0  0  0  0  0  0  0  0  0  0  0
    7.6863  -13.6011   26.5797 C   0  0  2  0  0  0  0  0  0  0  0  0
    8.2501  -12.7504   27.6995 C   0  0  0  0  0  0  0  0  0  0  0  0
    8.7920  -14.5164   26.1165 C   0  0  2  0  0  0  0  0  0  0  0  0
    8.3684  -15.4725   25.1441 N   0  0  0  0  0  0  0  0  0  0  0  0
    9.2771  -15.2427   27.3131 C   0  0  0  0  0  0  0  0  0  0  0  0
    9.9295  -14.6952   28.2405 O   0  0  0  0  0  0  0  0  0  0  0  0
    9.0130  -16.5905   27.4416 O   0  0  0  0  0  0  0  0  0  0  0  0
  2  1  1  1
  3  2  1  0
  4  2  1  0
  4  6  1  0
  4  5  1  6
  6 15  1  0
  7  6  2  0
  9  8  1  0
 10  9  2  0
 11 10  1  0
 12 11  2  0
 12 18  1  0
 13 12  1  0
 14 16  1  0
 14 13  1  1
 15 14  1  0
 16 25  1  0
 17 16  2  0
 18 19  2  0
 19  9  1  0
 21 20  1  0
 22 21  1  0
 22 24  1  0
 22 23  1  1
 24 26  1  0
 24 25  1  6
 26 27  2  0
 26 28  1  0
M  END
$$$$
