TYI.pdb
     RDKit          3D

 28 28  0  0  1  0  0  0  0  0999 V2000
   11.0548  -19.7767   19.3893 C   0  0  0  0  0  0  0  0  0  0  0  0
   10.9642  -18.9112   20.6266 C   0  0  1  0  0  0  0  0  0  0  0  0
   12.1751  -19.0252   21.2972 O   0  0  0  0  0  0  0  0  0  0  0  0
   10.7652  -17.4506   20.2728 C   0  0  2  0  0  0  0  0  0  0  0  0
   11.9292  -16.9513   19.5285 N   0  0  0  0  0  0  0  0  0  0  0  0
   10.5514  -16.6221   21.4807 C   0  0  0  0  0  0  0  0  0  0  0  0
   11.5555  -16.0876   22.0211 O   0  0  0  0  0  0  0  0  0  0  0  0
    6.1213  -11.6830   27.4019 O   0  0  0  0  0  0  0  0  0  0  0  0
    6.5375  -12.5139   26.3580 C   0  0  0  0  0  0  0  0  0  0  0  0
    5.9897  -13.7773   26.3287 C   0  0  0  0  0  0  0  0  0  0  0  0
    6.3766  -14.6200   25.3166 C   0  0  0  0  0  0  0  0  0  0  0  0
    7.2836  -14.2479   24.3414 C   0  0  0  0  0  0  0  0  0  0  0  0
    7.6116  -15.2580   23.3071 C   0  0  0  0  0  0  0  0  0  0  0  0
    9.0992  -15.5135   23.2145 C   0  0  2  0  0  0  0  0  0  0  0  0
    9.3066  -16.3847   22.0728 N   0  0  0  0  0  0  0  0  0  0  0  0
    9.5086  -16.1560   24.4833 C   0  0  0  0  0  0  0  0  0  0  0  0
    9.4354  -17.4026   24.5639 O   0  0  0  0  0  0  0  0  0  0  0  0
    7.8076  -12.9925   24.3973 C   0  0  0  0  0  0  0  0  0  0  0  0
    7.4405  -12.1083   25.4081 C   0  0  0  0  0  0  0  0  0  0  0  0
   10.3814  -12.9888   29.0787 C   0  0  0  0  0  0  0  0  0  0  0  0
   10.8041  -13.7583   27.8440 C   0  0  0  0  0  0  0  0  0  0  0  0
   10.2820  -15.1610   27.9824 C   0  0  2  0  0  0  0  0  0  0  0  0
   11.0690  -15.8384   29.0857 C   0  0  0  0  0  0  0  0  0  0  0  0
   10.4662  -15.9860   26.7334 C   0  0  2  0  0  0  0  0  0  0  0  0
    9.9654  -15.3533   25.5553 N   0  0  0  0  0  0  0  0  0  0  0  0
    9.7243  -17.2513   26.9419 C   0  0  0  0  0  0  0  0  0  0  0  0
   10.2847  -18.3540   27.1772 O   0  0  0  0  0  0  0  0  0  0  0  0
    8.3463  -17.2474   26.8800 O   0  0  0  0  0  0  0  0  0  0  0  0
  2  1  1  6
  3  2  1  0
  4  2  1  0
  4  6  1  0
  4  5  1  1
  6 15  1  0
  7  6  2  0
  9  8  1  0
 10  9  2  0
 11 10  1  0
 12 11  2  0
 12 18  1  0
 13 12  1  0
 14 16  1  0
 14 13  1  1
 15 14  1  0
 16 25  1  0
 17 16  2  0
 18 19  2  0
 19  9  1  0
 21 20  1  0
 22 21  1  0
 22 24  1  0
 22 23  1  1
 24 26  1  0
 24 25  1  6
 26 27  2  0
 26 28  1  0
M  END
$$$$
