TYI.pdb
     RDKit          3D

 28 28  0  0  1  0  0  0  0  0999 V2000
   11.1045  -19.5456   21.8026 C   0  0  0  0  0  0  0  0  0  0  0  0
   12.0707  -18.7169   20.9852 C   0  0  1  0  0  0  0  0  0  0  0  0
   12.5126  -19.5153   19.9381 O   0  0  0  0  0  0  0  0  0  0  0  0
   11.3945  -17.4992   20.3872 C   0  0  2  0  0  0  0  0  0  0  0  0
   12.3055  -16.8287   19.4498 N   0  0  0  0  0  0  0  0  0  0  0  0
   10.9645  -16.5457   21.4346 C   0  0  0  0  0  0  0  0  0  0  0  0
   11.8365  -15.8020   21.9566 O   0  0  0  0  0  0  0  0  0  0  0  0
    5.5795  -12.4048   27.1647 O   0  0  0  0  0  0  0  0  0  0  0  0
    6.1589  -13.0562   26.0724 C   0  0  0  0  0  0  0  0  0  0  0  0
    5.8770  -14.3982   25.9428 C   0  0  0  0  0  0  0  0  0  0  0  0
    6.4299  -15.0693   24.8807 C   0  0  0  0  0  0  0  0  0  0  0  0
    7.2475  -14.4522   23.9518 C   0  0  0  0  0  0  0  0  0  0  0  0
    7.7766  -15.2971   22.8546 C   0  0  0  0  0  0  0  0  0  0  0  0
    9.2591  -15.5565   23.0021 C   0  0  2  0  0  0  0  0  0  0  0  0
    9.6503  -16.4061   21.8928 N   0  0  0  0  0  0  0  0  0  0  0  0
    9.4546  -16.2252   24.3078 C   0  0  0  0  0  0  0  0  0  0  0  0
    9.3873  -17.4740   24.3470 O   0  0  0  0  0  0  0  0  0  0  0  0
    7.5076  -13.1248   24.1070 C   0  0  0  0  0  0  0  0  0  0  0  0
    6.9657  -12.4090   25.1710 C   0  0  0  0  0  0  0  0  0  0  0  0
   10.5897  -13.0047   28.8427 C   0  0  0  0  0  0  0  0  0  0  0  0
   10.8386  -13.8754   27.6282 C   0  0  0  0  0  0  0  0  0  0  0  0
   10.1472  -15.1894   27.8621 C   0  0  2  0  0  0  0  0  0  0  0  0
   10.8938  -15.9128   28.9642 C   0  0  0  0  0  0  0  0  0  0  0  0
   10.1610  -16.0882   26.6511 C   0  0  2  0  0  0  0  0  0  0  0  0
    9.7086  -15.4438   25.4598 N   0  0  0  0  0  0  0  0  0  0  0  0
    9.2549  -17.2220   26.9482 C   0  0  0  0  0  0  0  0  0  0  0  0
    8.0106  -17.1843   26.7594 O   0  0  0  0  0  0  0  0  0  0  0  0
    9.7776  -18.3918   27.4594 O   0  0  0  0  0  0  0  0  0  0  0  0
  2  1  1  1
  3  2  1  0
  4  2  1  0
  4  6  1  0
  4  5  1  6
  6 15  1  0
  7  6  2  0
  9  8  1  0
 10  9  2  0
 11 10  1  0
 12 11  2  0
 12 18  1  0
 13 12  1  0
 14 16  1  0
 14 13  1  6
 15 14  1  0
 16 25  1  0
 17 16  2  0
 18 19  2  0
 19  9  1  0
 21 20  1  0
 22 21  1  0
 22 24  1  0
 22 23  1  1
 24 26  1  0
 24 25  1  6
 26 27  2  0
 26 28  1  0
M  END
$$$$
