TYI.pdb
     RDKit          3D

 28 28  0  0  1  0  0  0  0  0999 V2000
    4.8415  -19.3528   23.2886 C   0  0  0  0  0  0  0  0  0  0  0  0
    6.0864  -18.4936   23.3097 C   0  0  1  0  0  0  0  0  0  0  0  0
    7.1090  -19.2654   23.8461 O   0  0  0  0  0  0  0  0  0  0  0  0
    6.5020  -18.0786   21.9122 C   0  0  2  0  0  0  0  0  0  0  0  0
    6.7624  -19.2690   21.0916 N   0  0  0  0  0  0  0  0  0  0  0  0
    7.7039  -17.2149   21.9356 C   0  0  0  0  0  0  0  0  0  0  0  0
    8.8126  -17.7296   21.6320 O   0  0  0  0  0  0  0  0  0  0  0  0
    7.4711  -13.8709   16.2219 O   0  0  0  0  0  0  0  0  0  0  0  0
    7.8054  -13.8183   17.5780 C   0  0  0  0  0  0  0  0  0  0  0  0
    6.7553  -13.8731   18.4676 C   0  0  0  0  0  0  0  0  0  0  0  0
    7.0478  -13.8238   19.8078 C   0  0  0  0  0  0  0  0  0  0  0  0
    8.3412  -13.7225   20.2862 C   0  0  0  0  0  0  0  0  0  0  0  0
    8.5127  -13.6790   21.7580 C   0  0  0  0  0  0  0  0  0  0  0  0
    8.8917  -15.0284   22.3257 C   0  0  2  0  0  0  0  0  0  0  0  0
    7.7019  -15.8572   22.2717 N   0  0  0  0  0  0  0  0  0  0  0  0
    9.3465  -14.8019   23.7157 C   0  0  0  0  0  0  0  0  0  0  0  0
   10.4580  -14.2544   23.8910 O   0  0  0  0  0  0  0  0  0  0  0  0
    9.3579  -13.6704   19.3820 C   0  0  0  0  0  0  0  0  0  0  0  0
    9.1022  -13.7177   18.0143 C   0  0  0  0  0  0  0  0  0  0  0  0
    6.1492  -12.3654   26.8600 C   0  0  0  0  0  0  0  0  0  0  0  0
    7.2498  -13.0019   26.0362 C   0  0  0  0  0  0  0  0  0  0  0  0
    7.8830  -14.0752   26.8767 C   0  0  2  0  0  0  0  0  0  0  0  0
    8.5961  -13.3972   28.0287 C   0  0  0  0  0  0  0  0  0  0  0  0
    8.9145  -14.8810   26.1273 C   0  0  2  0  0  0  0  0  0  0  0  0
    8.5228  -15.2055   24.7930 N   0  0  0  0  0  0  0  0  0  0  0  0
    9.1065  -16.1408   26.8830 C   0  0  0  0  0  0  0  0  0  0  0  0
    8.5194  -17.2175   26.5981 O   0  0  0  0  0  0  0  0  0  0  0  0
    9.9687  -16.1610   27.9596 O   0  0  0  0  0  0  0  0  0  0  0  0
  2  1  1  6
  3  2  1  0
  4  2  1  0
  4  6  1  0
  4  5  1  6
  6 15  1  0
  7  6  2  0
  9  8  1  0
 10  9  2  0
 11 10  1  0
 12 11  2  0
 12 18  1  0
 13 12  1  0
 14 16  1  0
 14 13  1  1
 15 14  1  0
 16 25  1  0
 17 16  2  0
 18 19  2  0
 19  9  1  0
 21 20  1  0
 22 21  1  0
 22 24  1  0
 22 23  1  1
 24 26  1  0
 24 25  1  6
 26 27  2  0
 26 28  1  0
M  END
$$$$
