TYI.pdb
     RDKit          3D

 28 28  0  0  1  0  0  0  0  0999 V2000
    7.8525  -15.2321   20.6653 C   0  0  0  0  0  0  0  0  0  0  0  0
    6.8031  -16.1587   20.0920 C   0  0  1  0  0  0  0  0  0  0  0  0
    7.0989  -16.3313   18.7459 O   0  0  0  0  0  0  0  0  0  0  0  0
    6.8401  -17.5218   20.7540 C   0  0  2  0  0  0  0  0  0  0  0  0
    5.7612  -18.3666   20.2244 N   0  0  0  0  0  0  0  0  0  0  0  0
    6.7159  -17.4162   22.2252 C   0  0  0  0  0  0  0  0  0  0  0  0
    5.5875  -17.1347   22.7085 O   0  0  0  0  0  0  0  0  0  0  0  0
    4.9880  -22.4612   27.2963 O   0  0  0  0  0  0  0  0  0  0  0  0
    5.8190  -21.4982   26.7171 C   0  0  0  0  0  0  0  0  0  0  0  0
    6.4734  -20.6544   27.5871 C   0  0  0  0  0  0  0  0  0  0  0  0
    7.2979  -19.6964   27.0519 C   0  0  0  0  0  0  0  0  0  0  0  0
    7.4900  -19.5531   25.6901 C   0  0  0  0  0  0  0  0  0  0  0  0
    8.4085  -18.4760   25.2498 C   0  0  0  0  0  0  0  0  0  0  0  0
    7.6737  -17.3524   24.5538 C   0  0  2  0  0  0  0  0  0  0  0  0
    7.7665  -17.6079   23.1285 N   0  0  0  0  0  0  0  0  0  0  0  0
    8.3479  -16.0914   24.9356 C   0  0  0  0  0  0  0  0  0  0  0  0
    9.4596  -15.8374   24.4206 O   0  0  0  0  0  0  0  0  0  0  0  0
    6.8293  -20.4023   24.8557 C   0  0  0  0  0  0  0  0  0  0  0  0
    5.9841  -21.3871   25.3597 C   0  0  0  0  0  0  0  0  0  0  0  0
    5.5915  -11.4917   26.4984 C   0  0  0  0  0  0  0  0  0  0  0  0
    6.5215  -12.4608   25.7974 C   0  0  0  0  0  0  0  0  0  0  0  0
    7.4990  -12.9712   26.8189 C   0  0  2  0  0  0  0  0  0  0  0  0
    8.3730  -11.8080   27.2413 C   0  0  0  0  0  0  0  0  0  0  0  0
    8.4138  -14.0415   26.2781 C   0  0  2  0  0  0  0  0  0  0  0  0
    7.7246  -15.2202   25.8601 N   0  0  0  0  0  0  0  0  0  0  0  0
    9.3457  -14.4020   27.3719 C   0  0  0  0  0  0  0  0  0  0  0  0
    9.1205  -15.3226   28.2007 O   0  0  0  0  0  0  0  0  0  0  0  0
   10.5293  -13.7072   27.5108 O   0  0  0  0  0  0  0  0  0  0  0  0
  2  1  1  1
  3  2  1  0
  4  2  1  0
  4  6  1  0
  4  5  1  6
  6 15  1  0
  7  6  2  0
  9  8  1  0
 10  9  2  0
 11 10  1  0
 12 11  2  0
 12 18  1  0
 13 12  1  0
 14 16  1  0
 14 13  1  1
 15 14  1  0
 16 25  1  0
 17 16  2  0
 18 19  2  0
 19  9  1  0
 21 20  1  0
 22 21  1  0
 22 24  1  0
 22 23  1  6
 24 26  1  0
 24 25  1  1
 26 27  2  0
 26 28  1  0
M  END
$$$$
