TYI.pdb
     RDKit          3D

 28 28  0  0  1  0  0  0  0  0999 V2000
    8.8109  -13.7420   20.3742 C   0  0  0  0  0  0  0  0  0  0  0  0
    7.5934  -14.2700   19.6481 C   0  0  1  0  0  0  0  0  0  0  0  0
    7.8413  -14.1465   18.2870 O   0  0  0  0  0  0  0  0  0  0  0  0
    7.3584  -15.7376   19.9459 C   0  0  2  0  0  0  0  0  0  0  0  0
    6.1571  -16.2066   19.2423 N   0  0  0  0  0  0  0  0  0  0  0  0
    7.2144  -15.9821   21.3986 C   0  0  0  0  0  0  0  0  0  0  0  0
    6.1251  -15.6714   21.9493 O   0  0  0  0  0  0  0  0  0  0  0  0
    7.9292  -19.8005   29.2209 O   0  0  0  0  0  0  0  0  0  0  0  0
    8.2083  -19.3606   27.9239 C   0  0  0  0  0  0  0  0  0  0  0  0
    7.1969  -19.5049   27.0002 C   0  0  0  0  0  0  0  0  0  0  0  0
    7.4371  -19.0830   25.7162 C   0  0  0  0  0  0  0  0  0  0  0  0
    8.6416  -18.5271   25.3263 C   0  0  0  0  0  0  0  0  0  0  0  0
    8.7645  -18.1148   23.9077 C   0  0  0  0  0  0  0  0  0  0  0  0
    8.0355  -16.8198   23.6275 C   0  0  2  0  0  0  0  0  0  0  0  0
    8.2053  -16.5382   22.2143 N   0  0  0  0  0  0  0  0  0  0  0  0
    8.6563  -15.7799   24.4781 C   0  0  0  0  0  0  0  0  0  0  0  0
    9.8223  -15.4151   24.2077 O   0  0  0  0  0  0  0  0  0  0  0  0
    9.6219  -18.3977   26.2623 C   0  0  0  0  0  0  0  0  0  0  0  0
    9.4171  -18.8136   27.5751 C   0  0  0  0  0  0  0  0  0  0  0  0
    5.7523  -11.5051   26.1224 C   0  0  0  0  0  0  0  0  0  0  0  0
    6.7980  -12.4480   25.5633 C   0  0  0  0  0  0  0  0  0  0  0  0
    7.4687  -13.1234   26.7266 C   0  0  2  0  0  0  0  0  0  0  0  0
    8.2095  -12.0603   27.5117 C   0  0  0  0  0  0  0  0  0  0  0  0
    8.4854  -14.1547   26.3052 C   0  0  2  0  0  0  0  0  0  0  0  0
    7.9236  -15.2348   25.5590 N   0  0  0  0  0  0  0  0  0  0  0  0
    9.0841  -14.6989   27.5463 C   0  0  0  0  0  0  0  0  0  0  0  0
    8.6397  -15.7138   28.1444 O   0  0  0  0  0  0  0  0  0  0  0  0
   10.1872  -14.0788   28.0954 O   0  0  0  0  0  0  0  0  0  0  0  0
  2  1  1  1
  3  2  1  0
  4  2  1  0
  4  6  1  0
  4  5  1  6
  6 15  1  0
  7  6  2  0
  9  8  1  0
 10  9  2  0
 11 10  1  0
 12 11  2  0
 12 18  1  0
 13 12  1  0
 14 16  1  0
 14 13  1  1
 15 14  1  0
 16 25  1  0
 17 16  2  0
 18 19  2  0
 19  9  1  0
 21 20  1  0
 22 21  1  0
 22 24  1  0
 22 23  1  6
 24 26  1  0
 24 25  1  1
 26 27  2  0
 26 28  1  0
M  END
$$$$
