TYI.pdb
     RDKit          3D

 28 28  0  0  1  0  0  0  0  0999 V2000
    8.8655  -12.6043   20.3049 C   0  0  0  0  0  0  0  0  0  0  0  0
    7.9535  -13.4292   19.4239 C   0  0  1  0  0  0  0  0  0  0  0  0
    8.0657  -12.9281   18.1334 O   0  0  0  0  0  0  0  0  0  0  0  0
    8.3732  -14.8855   19.3945 C   0  0  2  0  0  0  0  0  0  0  0  0
    7.5287  -15.6324   18.4526 N   0  0  0  0  0  0  0  0  0  0  0  0
    8.2911  -15.5030   20.7372 C   0  0  0  0  0  0  0  0  0  0  0  0
    7.1678  -15.9066   21.1391 O   0  0  0  0  0  0  0  0  0  0  0  0
    9.3711  -21.6991   19.4567 O   0  0  0  0  0  0  0  0  0  0  0  0
    9.6726  -20.5930   20.2562 C   0  0  0  0  0  0  0  0  0  0  0  0
    9.1438  -20.5975   21.5279 C   0  0  0  0  0  0  0  0  0  0  0  0
    9.4201  -19.5261   22.3404 C   0  0  0  0  0  0  0  0  0  0  0  0
   10.1992  -18.4599   21.9303 C   0  0  0  0  0  0  0  0  0  0  0  0
   10.4170  -17.3695   22.9107 C   0  0  0  0  0  0  0  0  0  0  0  0
    9.3001  -16.3503   22.8839 C   0  0  2  0  0  0  0  0  0  0  0  0
    9.3770  -15.6749   21.6020 N   0  0  0  0  0  0  0  0  0  0  0  0
    9.5322  -15.4228   24.0136 C   0  0  0  0  0  0  0  0  0  0  0  0
   10.5415  -14.6843   23.9728 O   0  0  0  0  0  0  0  0  0  0  0  0
   10.7077  -18.4845   20.6676 C   0  0  0  0  0  0  0  0  0  0  0  0
   10.4502  -19.5532   19.8132 C   0  0  0  0  0  0  0  0  0  0  0  0
    6.0021  -11.9945   25.8806 C   0  0  0  0  0  0  0  0  0  0  0  0
    7.1982  -12.7882   25.3961 C   0  0  0  0  0  0  0  0  0  0  0  0
    7.6579  -13.6564   26.5338 C   0  0  2  0  0  0  0  0  0  0  0  0
    8.0744  -12.7445   27.6697 C   0  0  0  0  0  0  0  0  0  0  0  0
    8.8542  -14.5053   26.1832 C   0  0  2  0  0  0  0  0  0  0  0  0
    8.6183  -15.3975   25.0936 N   0  0  0  0  0  0  0  0  0  0  0  0
    9.1800  -15.3052   27.3869 C   0  0  0  0  0  0  0  0  0  0  0  0
    8.7088  -16.4518   27.6069 O   0  0  0  0  0  0  0  0  0  0  0  0
   10.0427  -14.7886   28.3313 O   0  0  0  0  0  0  0  0  0  0  0  0
  2  1  1  1
  3  2  1  0
  4  2  1  0
  4  6  1  0
  4  5  1  6
  6 15  1  0
  7  6  2  0
  9  8  1  0
 10  9  2  0
 11 10  1  0
 12 11  2  0
 12 18  1  0
 13 12  1  0
 14 16  1  0
 14 13  1  6
 15 14  1  0
 16 25  1  0
 17 16  2  0
 18 19  2  0
 19  9  1  0
 21 20  1  0
 22 21  1  0
 22 24  1  0
 22 23  1  1
 24 26  1  0
 24 25  1  6
 26 27  2  0
 26 28  1  0
M  END
$$$$
