SDG.pdb
     RDKit          3D

 19 18  0  0  1  0  0  0  0  0999 V2000
   -2.0188  -27.6417   33.1490 O   0  0  0  0  0  0  0  0  0  0  0  0
   -2.6171  -26.5924   32.4310 C   0  0  0  0  0  0  0  0  0  0  0  0
   -2.1850  -26.7143   30.9708 C   0  0  2  0  0  0  0  0  0  0  0  0
   -0.8341  -26.2547   30.7872 N   0  0  0  0  0  0  0  0  0  0  0  0
   -3.0715  -25.8165   30.1555 C   0  0  0  0  0  0  0  0  0  0  0  0
   -2.7525  -24.6421   29.8689 O   0  0  0  0  0  0  0  0  0  0  0  0
   -4.2875  -26.3337   29.7148 N   0  0  0  0  0  0  0  0  0  0  0  0
   -5.2125  -25.5613   28.8092 C   0  0  1  0  0  0  0  0  0  0  0  0
   -5.8676  -26.6690   28.0307 C   0  0  0  0  0  0  0  0  0  0  0  0
   -5.3113  -27.0189   26.7365 C   0  0  0  0  0  0  0  0  0  0  0  0
   -5.9006  -27.2985   25.6739 O   0  0  0  0  0  0  0  0  0  0  0  0
   -6.1239  -24.8920   29.7841 C   0  0  0  0  0  0  0  0  0  0  0  0
   -6.6233  -25.5484   30.7782 O   0  0  0  0  0  0  0  0  0  0  0  0
   -3.8913  -27.0641   26.6072 O   0  0  0  0  0  0  0  0  0  0  0  0
   -6.5123  -23.5405   29.7279 N   0  0  0  0  0  0  0  0  0  0  0  0
   -7.4030  -22.9692   30.7251 C   0  0  0  0  0  0  0  0  0  0  0  0
   -7.6029  -21.5293   30.4495 C   0  0  0  0  0  0  0  0  0  0  0  0
   -8.5098  -20.7495   31.1387 O   0  0  0  0  0  0  0  0  0  0  0  0
   -6.9233  -20.9651   29.5458 O   0  0  0  0  0  0  0  0  0  0  0  0
  1  2  1  0
  2  3  1  0
  3  4  1  1
  5  3  1  0
  5  6  2  0
  7  5  1  0
  8  7  1  0
  8  9  1  6
 10  9  1  0
 10 14  1  0
 11 10  2  0
 12  8  1  0
 13 12  2  0
 15 12  1  0
 16 15  1  0
 17 16  1  0
 17 18  1  0
 19 17  2  0
M  END
$$$$
