SDG.pdb
     RDKit          3D

 19 18  0  0  1  0  0  0  0  0999 V2000
    0.6780  -26.0920   29.8641 O   0  0  0  0  0  0  0  0  0  0  0  0
   -0.5438  -25.9016   29.1966 C   0  0  0  0  0  0  0  0  0  0  0  0
   -1.6161  -25.6201   30.2476 C   0  0  2  0  0  0  0  0  0  0  0  0
   -1.8496  -26.7734   31.0755 N   0  0  0  0  0  0  0  0  0  0  0  0
   -2.8998  -25.3288   29.5239 C   0  0  0  0  0  0  0  0  0  0  0  0
   -3.0042  -24.3999   28.6937 O   0  0  0  0  0  0  0  0  0  0  0  0
   -3.9995  -26.1365   29.8052 N   0  0  0  0  0  0  0  0  0  0  0  0
   -5.3613  -25.8813   29.2114 C   0  0  1  0  0  0  0  0  0  0  0  0
   -5.9872  -27.2465   29.2931 C   0  0  0  0  0  0  0  0  0  0  0  0
   -5.7171  -28.1893   28.2230 C   0  0  0  0  0  0  0  0  0  0  0  0
   -5.6198  -27.9845   26.9970 O   0  0  0  0  0  0  0  0  0  0  0  0
   -5.9443  -24.8951   30.1688 C   0  0  0  0  0  0  0  0  0  0  0  0
   -5.8341  -25.0691   31.4439 O   0  0  0  0  0  0  0  0  0  0  0  0
   -5.5280  -29.5602   28.5692 O   0  0  0  0  0  0  0  0  0  0  0  0
   -6.6374  -23.7269   29.8008 N   0  0  0  0  0  0  0  0  0  0  0  0
   -7.1456  -22.8036   30.8025 C   0  0  0  0  0  0  0  0  0  0  0  0
   -7.7525  -21.6296   30.1372 C   0  0  0  0  0  0  0  0  0  0  0  0
   -8.3510  -20.5970   30.8308 O   0  0  0  0  0  0  0  0  0  0  0  0
   -7.7341  -21.5462   28.8764 O   0  0  0  0  0  0  0  0  0  0  0  0
  1  2  1  0
  2  3  1  0
  3  4  1  1
  5  3  1  0
  5  6  2  0
  7  5  1  0
  8  7  1  0
  8  9  1  1
 10  9  1  0
 10 14  1  0
 11 10  2  0
 12  8  1  0
 13 12  2  0
 15 12  1  0
 16 15  1  0
 17 16  1  0
 17 18  1  0
 19 17  2  0
M  END
$$$$
