SDG.pdb
     RDKit          3D

 19 18  0  0  1  0  0  0  0  0999 V2000
    8.5197  -12.5909   16.7417 O   0  0  0  0  0  0  0  0  0  0  0  0
    8.5785  -13.5522   17.7650 C   0  0  0  0  0  0  0  0  0  0  0  0
    8.8100  -14.9163   17.1172 C   0  0  2  0  0  0  0  0  0  0  0  0
    7.6697  -15.3244   16.3406 N   0  0  0  0  0  0  0  0  0  0  0  0
    8.9768  -15.9231   18.2195 C   0  0  0  0  0  0  0  0  0  0  0  0
    8.0018  -16.4671   18.7822 O   0  0  0  0  0  0  0  0  0  0  0  0
   10.2742  -16.2456   18.6112 N   0  0  0  0  0  0  0  0  0  0  0  0
   10.5628  -17.2363   19.7101 C   0  0  1  0  0  0  0  0  0  0  0  0
   11.6153  -18.0992   19.0701 C   0  0  0  0  0  0  0  0  0  0  0  0
   12.0920  -19.2569   19.8046 C   0  0  0  0  0  0  0  0  0  0  0  0
   12.2545  -19.4001   21.0325 O   0  0  0  0  0  0  0  0  0  0  0  0
   11.0862  -16.3582   20.7983 C   0  0  0  0  0  0  0  0  0  0  0  0
   11.7155  -15.2654   20.5190 O   0  0  0  0  0  0  0  0  0  0  0  0
   12.4383  -20.4254   19.0631 O   0  0  0  0  0  0  0  0  0  0  0  0
   10.9516  -16.6141   22.1756 N   0  0  0  0  0  0  0  0  0  0  0  0
   11.4877  -15.6979   23.1694 C   0  0  0  0  0  0  0  0  0  0  0  0
   11.9094  -16.4539   24.3693 C   0  0  0  0  0  0  0  0  0  0  0  0
   12.5282  -15.8629   25.4526 O   0  0  0  0  0  0  0  0  0  0  0  0
   11.7041  -17.6994   24.4281 O   0  0  0  0  0  0  0  0  0  0  0  0
  1  2  1  0
  2  3  1  0
  3  4  1  6
  5  3  1  0
  5  6  2  0
  7  5  1  0
  8  7  1  0
  8  9  1  6
 10  9  1  0
 10 14  1  0
 11 10  2  0
 12  8  1  0
 13 12  2  0
 15 12  1  0
 16 15  1  0
 17 16  1  0
 17 18  1  0
 19 17  2  0
M  END
$$$$
