SDG.pdb
     RDKit          3D

 19 18  0  0  1  0  0  0  0  0999 V2000
   -4.4797  -27.2017   29.1242 O   0  0  0  0  0  0  0  0  0  0  0  0
   -5.2663  -27.6399   30.2030 C   0  0  0  0  0  0  0  0  0  0  0  0
   -6.6250  -28.0688   29.6519 C   0  0  2  0  0  0  0  0  0  0  0  0
   -6.4755  -28.9787   28.5475 N   0  0  0  0  0  0  0  0  0  0  0  0
   -7.3115  -26.8417   29.1232 C   0  0  0  0  0  0  0  0  0  0  0  0
   -7.5764  -26.6932   27.9104 O   0  0  0  0  0  0  0  0  0  0  0  0
   -7.6552  -25.8476   30.0366 N   0  0  0  0  0  0  0  0  0  0  0  0
   -8.4703  -24.6408   29.6474 C   0  0  1  0  0  0  0  0  0  0  0  0
   -9.5973  -24.7040   30.6412 C   0  0  0  0  0  0  0  0  0  0  0  0
  -10.5301  -23.5931   30.6911 C   0  0  0  0  0  0  0  0  0  0  0  0
  -10.5144  -22.5205   30.0555 O   0  0  0  0  0  0  0  0  0  0  0  0
   -7.5145  -23.5205   29.8937 C   0  0  0  0  0  0  0  0  0  0  0  0
   -6.9122  -23.4052   31.0305 O   0  0  0  0  0  0  0  0  0  0  0  0
  -11.6427  -23.6911   31.5786 O   0  0  0  0  0  0  0  0  0  0  0  0
   -7.1820  -22.5237   28.9576 N   0  0  0  0  0  0  0  0  0  0  0  0
   -6.2499  -21.4580   29.2888 C   0  0  0  0  0  0  0  0  0  0  0  0
   -4.9796  -21.6608   28.5580 C   0  0  0  0  0  0  0  0  0  0  0  0
   -3.9516  -20.7394   28.5647 O   0  0  0  0  0  0  0  0  0  0  0  0
   -4.8043  -22.7189   27.8897 O   0  0  0  0  0  0  0  0  0  0  0  0
  1  2  1  0
  2  3  1  0
  3  4  1  6
  5  3  1  0
  5  6  2  0
  7  5  1  0
  8  7  1  0
  8  9  1  1
 10  9  1  0
 10 14  1  0
 11 10  2  0
 12  8  1  0
 13 12  2  0
 15 12  1  0
 16 15  1  0
 17 16  1  0
 17 18  1  0
 19 17  2  0
M  END
$$$$
