SDG.pdb
     RDKit          3D

 19 18  0  0  1  0  0  0  0  0999 V2000
    6.8097  -18.6324   14.5945 O   0  0  0  0  0  0  0  0  0  0  0  0
    6.2683  -17.5558   15.3173 C   0  0  0  0  0  0  0  0  0  0  0  0
    7.4272  -16.7074   15.8377 C   0  0  2  0  0  0  0  0  0  0  0  0
    8.3461  -16.3765   14.7812 N   0  0  0  0  0  0  0  0  0  0  0  0
    8.1842  -17.5328   16.8388 C   0  0  0  0  0  0  0  0  0  0  0  0
    9.2690  -18.0899   16.5634 O   0  0  0  0  0  0  0  0  0  0  0  0
    7.6372  -17.6678   18.1128 N   0  0  0  0  0  0  0  0  0  0  0  0
    8.3534  -18.3884   19.2265 C   0  0  1  0  0  0  0  0  0  0  0  0
    8.4290  -17.3175   20.2798 C   0  0  0  0  0  0  0  0  0  0  0  0
    9.2432  -17.5684   21.4549 C   0  0  0  0  0  0  0  0  0  0  0  0
   10.3730  -18.0897   21.5353 O   0  0  0  0  0  0  0  0  0  0  0  0
    7.3997  -19.4888   19.5561 C   0  0  0  0  0  0  0  0  0  0  0  0
    6.1567  -19.4092   19.2139 O   0  0  0  0  0  0  0  0  0  0  0  0
    8.7229  -17.1826   22.7260 O   0  0  0  0  0  0  0  0  0  0  0  0
    7.7389  -20.6728   20.2371 N   0  0  0  0  0  0  0  0  0  0  0  0
    7.8473  -21.9420   19.5360 C   0  0  0  0  0  0  0  0  0  0  0  0
    8.2549  -23.0026   20.4838 C   0  0  0  0  0  0  0  0  0  0  0  0
    7.3530  -23.7237   21.2402 O   0  0  0  0  0  0  0  0  0  0  0  0
    9.4799  -23.2789   20.6244 O   0  0  0  0  0  0  0  0  0  0  0  0
  1  2  1  0
  2  3  1  0
  3  4  1  6
  5  3  1  0
  5  6  2  0
  7  5  1  0
  8  7  1  0
  8  9  1  1
 10  9  1  0
 10 14  1  0
 11 10  2  0
 12  8  1  0
 13 12  2  0
 15 12  1  0
 16 15  1  0
 17 16  1  0
 17 18  1  0
 19 17  2  0
M  END
$$$$
