SDG.pdb
     RDKit          3D

 19 18  0  0  1  0  0  0  0  0999 V2000
    7.6567  -13.1218   20.6701 O   0  0  0  0  0  0  0  0  0  0  0  0
    8.4272  -12.2355   19.8985 C   0  0  0  0  0  0  0  0  0  0  0  0
    8.5980  -12.8468   18.5089 C   0  0  2  0  0  0  0  0  0  0  0  0
    7.3353  -13.2784   17.9709 N   0  0  0  0  0  0  0  0  0  0  0  0
    9.4588  -14.0696   18.6503 C   0  0  0  0  0  0  0  0  0  0  0  0
    8.9914  -15.2277   18.5913 O   0  0  0  0  0  0  0  0  0  0  0  0
   10.8239  -13.8806   18.8539 N   0  0  0  0  0  0  0  0  0  0  0  0
   11.7937  -15.0313   18.9426 C   0  0  1  0  0  0  0  0  0  0  0  0
   12.6549  -14.7945   17.7325 C   0  0  0  0  0  0  0  0  0  0  0  0
   13.5410  -15.8608   17.3028 C   0  0  0  0  0  0  0  0  0  0  0  0
   13.2602  -17.0128   16.9175 O   0  0  0  0  0  0  0  0  0  0  0  0
   12.4882  -14.7608   20.2363 C   0  0  0  0  0  0  0  0  0  0  0  0
   13.0509  -13.6193   20.4570 O   0  0  0  0  0  0  0  0  0  0  0  0
   14.9448  -15.6068   17.3025 O   0  0  0  0  0  0  0  0  0  0  0  0
   12.5939  -15.6749   21.3012 N   0  0  0  0  0  0  0  0  0  0  0  0
   13.2448  -15.3083   22.5487 C   0  0  0  0  0  0  0  0  0  0  0  0
   14.6255  -15.8395   22.5662 C   0  0  0  0  0  0  0  0  0  0  0  0
   15.1532  -16.5298   23.6389 O   0  0  0  0  0  0  0  0  0  0  0  0
   15.3755  -15.6656   21.5641 O   0  0  0  0  0  0  0  0  0  0  0  0
  1  2  1  0
  2  3  1  0
  3  4  1  1
  5  3  1  0
  5  6  2  0
  7  5  1  0
  8  7  1  0
  8  9  1  6
 10  9  1  0
 10 14  1  0
 11 10  2  0
 12  8  1  0
 13 12  2  0
 15 12  1  0
 16 15  1  0
 17 16  1  0
 17 18  1  0
 19 17  2  0
M  END
$$$$
