SDG.pdb
     RDKit          3D

 19 18  0  0  1  0  0  0  0  0999 V2000
    6.7734  -13.8902   19.8865 O   0  0  0  0  0  0  0  0  0  0  0  0
    7.6371  -12.7885   19.7640 C   0  0  0  0  0  0  0  0  0  0  0  0
    8.3877  -12.9232   18.4403 C   0  0  2  0  0  0  0  0  0  0  0  0
    7.4806  -13.1588   17.3486 N   0  0  0  0  0  0  0  0  0  0  0  0
    9.2794  -14.1278   18.5412 C   0  0  0  0  0  0  0  0  0  0  0  0
    9.1036  -15.1509   17.8446 O   0  0  0  0  0  0  0  0  0  0  0  0
   10.3332  -14.0790   19.4510 N   0  0  0  0  0  0  0  0  0  0  0  0
   11.3318  -15.1997   19.5903 C   0  0  1  0  0  0  0  0  0  0  0  0
   12.5699  -14.5752   19.0078 C   0  0  0  0  0  0  0  0  0  0  0  0
   13.6008  -15.4544   18.4870 C   0  0  0  0  0  0  0  0  0  0  0  0
   14.0780  -15.5160   17.3368 O   0  0  0  0  0  0  0  0  0  0  0  0
   11.3929  -15.3869   21.0703 C   0  0  0  0  0  0  0  0  0  0  0  0
   11.6401  -14.3888   21.8519 O   0  0  0  0  0  0  0  0  0  0  0  0
   14.1851  -16.4035   19.3774 O   0  0  0  0  0  0  0  0  0  0  0  0
   11.1931  -16.6100   21.7371 N   0  0  0  0  0  0  0  0  0  0  0  0
   11.2021  -16.6883   23.1890 C   0  0  0  0  0  0  0  0  0  0  0  0
   12.5459  -17.0913   23.6589 C   0  0  0  0  0  0  0  0  0  0  0  0
   13.6094  -17.3051   22.8052 O   0  0  0  0  0  0  0  0  0  0  0  0
   12.7539  -17.2533   24.8948 O   0  0  0  0  0  0  0  0  0  0  0  0
  1  2  1  0
  2  3  1  0
  3  4  1  6
  5  3  1  0
  5  6  2  0
  7  5  1  0
  8  7  1  0
  8  9  1  1
 10  9  1  0
 10 14  1  0
 11 10  2  0
 12  8  1  0
 13 12  2  0
 15 12  1  0
 16 15  1  0
 17 16  1  0
 17 18  1  0
 19 17  2  0
M  END
$$$$
