SDG.pdb
     RDKit          3D

 19 18  0  0  1  0  0  0  0  0999 V2000
   -3.0372  -24.5039   25.7953 O   0  0  0  0  0  0  0  0  0  0  0  0
   -4.4414  -24.5031   25.8465 C   0  0  0  0  0  0  0  0  0  0  0  0
   -4.9023  -23.0719   26.1168 C   0  0  2  0  0  0  0  0  0  0  0  0
   -3.8441  -22.1286   25.8708 N   0  0  0  0  0  0  0  0  0  0  0  0
   -5.2527  -22.9722   27.5741 C   0  0  0  0  0  0  0  0  0  0  0  0
   -4.5897  -22.2790   28.3759 O   0  0  0  0  0  0  0  0  0  0  0  0
   -6.3603  -23.6872   28.0242 N   0  0  0  0  0  0  0  0  0  0  0  0
   -6.8225  -23.6409   29.4583 C   0  0  1  0  0  0  0  0  0  0  0  0
   -8.3071  -23.4668   29.2918 C   0  0  0  0  0  0  0  0  0  0  0  0
   -8.8167  -22.1305   29.0437 C   0  0  0  0  0  0  0  0  0  0  0  0
   -9.6138  -21.7400   28.1681 O   0  0  0  0  0  0  0  0  0  0  0  0
   -6.4288  -24.9904   29.9614 C   0  0  0  0  0  0  0  0  0  0  0  0
   -6.7477  -26.0573   29.3068 O   0  0  0  0  0  0  0  0  0  0  0  0
   -8.3734  -21.0751   29.8951 O   0  0  0  0  0  0  0  0  0  0  0  0
   -5.7006  -25.2301   31.1415 N   0  0  0  0  0  0  0  0  0  0  0  0
   -5.3832  -26.5825   31.5710 C   0  0  0  0  0  0  0  0  0  0  0  0
   -6.5497  -27.1732   32.2634 C   0  0  0  0  0  0  0  0  0  0  0  0
   -6.4721  -28.3246   33.0209 O   0  0  0  0  0  0  0  0  0  0  0  0
   -7.6799  -26.6155   32.1718 O   0  0  0  0  0  0  0  0  0  0  0  0
  1  2  1  0
  2  3  1  0
  3  4  1  1
  5  3  1  0
  5  6  2  0
  7  5  1  0
  8  7  1  0
  8  9  1  6
 10  9  1  0
 10 14  1  0
 11 10  2  0
 12  8  1  0
 13 12  2  0
 15 12  1  0
 16 15  1  0
 17 16  1  0
 17 18  1  0
 19 17  2  0
M  END
$$$$
