SDG.pdb
     RDKit          3D

 19 18  0  0  1  0  0  0  0  0999 V2000
   10.0209  -17.7715   19.7180 O   0  0  0  0  0  0  0  0  0  0  0  0
   11.0869  -17.4353   20.5696 C   0  0  0  0  0  0  0  0  0  0  0  0
   12.3665  -18.0233   19.9773 C   0  0  2  0  0  0  0  0  0  0  0  0
   12.1446  -19.3527   19.4738 N   0  0  0  0  0  0  0  0  0  0  0  0
   13.3744  -18.1335   21.0857 C   0  0  0  0  0  0  0  0  0  0  0  0
   13.5376  -19.1865   21.7396 O   0  0  0  0  0  0  0  0  0  0  0  0
   14.1425  -17.0084   21.3769 N   0  0  0  0  0  0  0  0  0  0  0  0
   15.1615  -16.9921   22.4876 C   0  0  1  0  0  0  0  0  0  0  0  0
   16.2304  -16.1096   21.9040 C   0  0  0  0  0  0  0  0  0  0  0  0
   17.2443  -16.7239   21.0664 C   0  0  0  0  0  0  0  0  0  0  0  0
   17.8278  -17.8168   21.2069 O   0  0  0  0  0  0  0  0  0  0  0  0
   14.4017  -16.3565   23.6048 C   0  0  0  0  0  0  0  0  0  0  0  0
   15.0018  -15.9992   24.6913 O   0  0  0  0  0  0  0  0  0  0  0  0
   17.6707  -16.0175   19.9026 O   0  0  0  0  0  0  0  0  0  0  0  0
   13.0201  -16.0889   23.5905 N   0  0  0  0  0  0  0  0  0  0  0  0
   12.3606  -15.4644   24.7259 C   0  0  0  0  0  0  0  0  0  0  0  0
   12.1310  -16.4711   25.7856 C   0  0  0  0  0  0  0  0  0  0  0  0
   11.5086  -16.1765   26.9820 O   0  0  0  0  0  0  0  0  0  0  0  0
   12.5136  -17.6626   25.6100 O   0  0  0  0  0  0  0  0  0  0  0  0
  1  2  1  0
  2  3  1  0
  3  4  1  1
  5  3  1  0
  5  6  2  0
  7  5  1  0
  8  7  1  0
  8  9  1  6
 10  9  1  0
 10 14  1  0
 11 10  2  0
 12  8  1  0
 13 12  2  0
 15 12  1  0
 16 15  1  0
 17 16  1  0
 17 18  1  0
 19 17  2  0
M  END
$$$$
