SDG.pdb
     RDKit          3D

 19 18  0  0  1  0  0  0  0  0999 V2000
    4.0302  -20.5478   20.8270 O   0  0  0  0  0  0  0  0  0  0  0  0
    4.8190  -21.6507   21.1956 C   0  0  0  0  0  0  0  0  0  0  0  0
    4.2927  -22.1824   22.5275 C   0  0  2  0  0  0  0  0  0  0  0  0
    2.8542  -22.1883   22.5542 N   0  0  0  0  0  0  0  0  0  0  0  0
    4.7504  -21.2435   23.6072 C   0  0  0  0  0  0  0  0  0  0  0  0
    4.0211  -20.3323   24.0552 O   0  0  0  0  0  0  0  0  0  0  0  0
    6.0379  -21.4145   24.1111 N   0  0  0  0  0  0  0  0  0  0  0  0
    6.6223  -20.5018   25.1588 C   0  0  1  0  0  0  0  0  0  0  0  0
    6.9317  -21.4718   26.2659 C   0  0  0  0  0  0  0  0  0  0  0  0
    7.8083  -21.0330   27.3363 C   0  0  0  0  0  0  0  0  0  0  0  0
    7.6003  -20.1897   28.2308 O   0  0  0  0  0  0  0  0  0  0  0  0
    7.8355  -19.9676   24.4720 C   0  0  0  0  0  0  0  0  0  0  0  0
    8.1365  -20.3469   23.2745 O   0  0  0  0  0  0  0  0  0  0  0  0
    9.1061  -21.6190   27.4228 O   0  0  0  0  0  0  0  0  0  0  0  0
    8.7325  -19.0365   25.0280 N   0  0  0  0  0  0  0  0  0  0  0  0
    9.5995  -18.2281   24.1859 C   0  0  0  0  0  0  0  0  0  0  0  0
   10.3761  -17.2890   25.0249 C   0  0  0  0  0  0  0  0  0  0  0  0
   11.3193  -16.4225   24.5100 O   0  0  0  0  0  0  0  0  0  0  0  0
   10.1843  -17.2605   26.2737 O   0  0  0  0  0  0  0  0  0  0  0  0
  1  2  1  0
  2  3  1  0
  3  4  1  6
  5  3  1  0
  5  6  2  0
  7  5  1  0
  8  7  1  0
  8  9  1  1
 10  9  1  0
 10 14  1  0
 11 10  2  0
 12  8  1  0
 13 12  2  0
 15 12  1  0
 16 15  1  0
 17 16  1  0
 17 18  1  0
 19 17  2  0
M  END
$$$$
