SDG.pdb
     RDKit          3D

 19 18  0  0  1  0  0  0  0  0999 V2000
    6.9484  -12.2010   18.5731 O   0  0  0  0  0  0  0  0  0  0  0  0
    7.8265  -13.1996   19.0274 C   0  0  0  0  0  0  0  0  0  0  0  0
    8.6417  -13.6896   17.8319 C   0  0  2  0  0  0  0  0  0  0  0  0
    7.8171  -14.4118   16.9000 N   0  0  0  0  0  0  0  0  0  0  0  0
    9.6737  -14.6522   18.3464 C   0  0  0  0  0  0  0  0  0  0  0  0
    9.5368  -15.8917   18.2561 O   0  0  0  0  0  0  0  0  0  0  0  0
   10.8155  -14.1206   18.9416 N   0  0  0  0  0  0  0  0  0  0  0  0
   11.9100  -14.9893   19.5070 C   0  0  1  0  0  0  0  0  0  0  0  0
   13.1414  -14.2315   19.0930 C   0  0  0  0  0  0  0  0  0  0  0  0
   14.4364  -14.7758   19.4587 C   0  0  0  0  0  0  0  0  0  0  0  0
   15.5033  -14.1782   19.7020 O   0  0  0  0  0  0  0  0  0  0  0  0
   11.6341  -14.9320   20.9732 C   0  0  0  0  0  0  0  0  0  0  0  0
   11.1853  -13.8503   21.5182 O   0  0  0  0  0  0  0  0  0  0  0  0
   14.5610  -16.1926   19.5694 O   0  0  0  0  0  0  0  0  0  0  0  0
   11.8205  -15.9995   21.8710 N   0  0  0  0  0  0  0  0  0  0  0  0
   11.4945  -15.8649   23.2817 C   0  0  0  0  0  0  0  0  0  0  0  0
   11.8492  -17.1105   23.9970 C   0  0  0  0  0  0  0  0  0  0  0  0
   11.7268  -17.2544   25.3645 O   0  0  0  0  0  0  0  0  0  0  0  0
   12.2865  -18.1023   23.3473 O   0  0  0  0  0  0  0  0  0  0  0  0
  1  2  1  0
  2  3  1  0
  3  4  1  6
  5  3  1  0
  5  6  2  0
  7  5  1  0
  8  7  1  0
  8  9  1  1
 10  9  1  0
 10 14  1  0
 11 10  2  0
 12  8  1  0
 13 12  2  0
 15 12  1  0
 16 15  1  0
 17 16  1  0
 17 18  1  0
 19 17  2  0
M  END
$$$$
