SDG.pdb
     RDKit          3D

 19 18  0  0  1  0  0  0  0  0999 V2000
   -4.8194  -25.9142   32.6980 O   0  0  0  0  0  0  0  0  0  0  0  0
   -5.1335  -25.2356   31.5083 C   0  0  0  0  0  0  0  0  0  0  0  0
   -6.2722  -25.9888   30.8229 C   0  0  2  0  0  0  0  0  0  0  0  0
   -5.8344  -27.2739   30.3466 N   0  0  0  0  0  0  0  0  0  0  0  0
   -6.6892  -25.1909   29.6204 C   0  0  0  0  0  0  0  0  0  0  0  0
   -6.2273  -25.4092   28.4793 O   0  0  0  0  0  0  0  0  0  0  0  0
   -7.6251  -24.1765   29.8091 N   0  0  0  0  0  0  0  0  0  0  0  0
   -8.2464  -23.4272   28.6580 C   0  0  1  0  0  0  0  0  0  0  0  0
   -9.5673  -23.0122   29.2454 C   0  0  0  0  0  0  0  0  0  0  0  0
  -10.6355  -23.9940   29.2915 C   0  0  0  0  0  0  0  0  0  0  0  0
  -11.0317  -24.7712   28.4007 O   0  0  0  0  0  0  0  0  0  0  0  0
   -7.2924  -22.2949   28.4657 C   0  0  0  0  0  0  0  0  0  0  0  0
   -6.9968  -21.5076   29.4461 O   0  0  0  0  0  0  0  0  0  0  0  0
  -11.3694  -24.1297   30.5073 O   0  0  0  0  0  0  0  0  0  0  0  0
   -6.6431  -21.9842   27.2564 N   0  0  0  0  0  0  0  0  0  0  0  0
   -5.6918  -20.8879   27.1706 C   0  0  0  0  0  0  0  0  0  0  0  0
   -5.0143  -20.9166   25.8556 C   0  0  0  0  0  0  0  0  0  0  0  0
   -4.1371  -19.9356   25.4389 O   0  0  0  0  0  0  0  0  0  0  0  0
   -5.2330  -21.8737   25.0599 O   0  0  0  0  0  0  0  0  0  0  0  0
  1  2  1  0
  2  3  1  0
  3  4  1  6
  5  3  1  0
  5  6  2  0
  7  5  1  0
  8  7  1  0
  8  9  1  1
 10  9  1  0
 10 14  1  0
 11 10  2  0
 12  8  1  0
 13 12  2  0
 15 12  1  0
 16 15  1  0
 17 16  1  0
 17 18  1  0
 19 17  2  0
M  END
$$$$
