FTN.pdb
     RDKit          3D

 27 27  0  0  1  0  0  0  0  0999 V2000
    6.5158  -16.0942   25.9751 N   0  0  0  0  0  0  0  0  0  0  0  0
    6.9133  -15.3508   24.7949 C   0  0  1  0  0  0  0  0  0  0  0  0
    7.7938  -14.2310   25.3083 C   0  0  0  0  0  0  0  0  0  0  0  0
    7.1052  -13.2261   26.1154 C   0  0  0  0  0  0  0  0  0  0  0  0
    5.9214  -12.6622   25.7422 C   0  0  0  0  0  0  0  0  0  0  0  0
    5.2672  -11.7078   26.5273 C   0  0  0  0  0  0  0  0  0  0  0  0
    5.8070  -11.3030   27.7184 C   0  0  0  0  0  0  0  0  0  0  0  0
    7.0105  -11.8819   28.0910 C   0  0  0  0  0  0  0  0  0  0  0  0
    7.6585  -12.8253   27.3174 C   0  0  0  0  0  0  0  0  0  0  0  0
    7.6733  -16.1510   23.8363 C   0  0  0  0  0  0  0  0  0  0  0  0
    8.0680  -17.2977   24.1627 O   0  0  0  0  0  0  0  0  0  0  0  0
    6.7308  -15.9814   20.1159 C   0  0  0  0  0  0  0  0  0  0  0  0
    8.2209  -15.9281   20.1924 C   0  0  1  0  0  0  0  0  0  0  0  0
    8.6945  -14.6281   20.0331 O   0  0  0  0  0  0  0  0  0  0  0  0
    8.7245  -16.4128   21.5589 C   0  0  2  0  0  0  0  0  0  0  0  0
    7.9716  -15.6565   22.5471 N   0  0  0  0  0  0  0  0  0  0  0  0
   10.1439  -16.0465   21.7181 C   0  0  0  0  0  0  0  0  0  0  0  0
   10.5183  -14.9559   22.2749 O   0  0  0  0  0  0  0  0  0  0  0  0
   14.6381  -17.7701   23.5796 N   0  0  0  0  0  0  0  0  0  0  0  0
   13.3130  -17.8981   24.0794 C   0  0  0  0  0  0  0  0  0  0  0  0
   13.1422  -18.3109   25.2906 O   0  0  0  0  0  0  0  0  0  0  0  0
   12.0799  -17.5983   23.3365 C   0  0  0  0  0  0  0  0  0  0  0  0
   12.3950  -17.0393   21.9465 C   0  0  2  0  0  0  0  0  0  0  0  0
   11.1386  -16.9303   21.2401 N   0  0  0  0  0  0  0  0  0  0  0  0
   13.2598  -17.9886   21.1808 C   0  0  0  0  0  0  0  0  0  0  0  0
   12.7723  -19.0537   20.7387 O   0  0  0  0  0  0  0  0  0  0  0  0
   14.5990  -17.7013   20.9548 O   0  0  0  0  0  0  0  0  0  0  0  0
  2  1  1  1
  2 10  1  0
  3  2  1  0
  4  3  1  0
  4  5  2  0
  6  5  1  0
  7  6  2  0
  8  9  2  0
  8  7  1  0
  9  4  1  0
 10 16  1  0
 10 11  2  0
 13 12  1  1
 14 13  1  0
 15 17  1  0
 15 13  1  0
 15 16  1  1
 17 18  2  0
 19 20  1  0
 20 22  1  0
 21 20  2  0
 23 22  1  1
 24 23  1  0
 24 17  1  0
 25 23  1  0
 25 27  1  0
 26 25  2  0
M  END
$$$$
