FTN.pdb
     RDKit          3D

 27 27  0  0  1  0  0  0  0  0999 V2000
    5.5468  -16.2618   25.4287 N   0  0  0  0  0  0  0  0  0  0  0  0
    6.4670  -15.4628   24.6424 C   0  0  1  0  0  0  0  0  0  0  0  0
    7.3975  -14.8212   25.6501 C   0  0  0  0  0  0  0  0  0  0  0  0
    7.0012  -13.4859   26.0920 C   0  0  0  0  0  0  0  0  0  0  0  0
    7.3799  -12.3490   25.4418 C   0  0  0  0  0  0  0  0  0  0  0  0
    6.9871  -11.0769   25.8692 C   0  0  0  0  0  0  0  0  0  0  0  0
    6.1941  -10.9322   26.9757 C   0  0  0  0  0  0  0  0  0  0  0  0
    5.8127  -12.0933   27.6305 C   0  0  0  0  0  0  0  0  0  0  0  0
    6.1992  -13.3511   27.2101 C   0  0  0  0  0  0  0  0  0  0  0  0
    7.2586  -16.2520   23.7003 C   0  0  0  0  0  0  0  0  0  0  0  0
    7.5847  -17.4274   23.9988 O   0  0  0  0  0  0  0  0  0  0  0  0
    7.0488  -15.2754   19.8456 C   0  0  0  0  0  0  0  0  0  0  0  0
    8.4531  -15.6267   20.2111 C   0  0  1  0  0  0  0  0  0  0  0  0
    9.2262  -14.4876   20.4226 O   0  0  0  0  0  0  0  0  0  0  0  0
    8.5019  -16.4366   21.5140 C   0  0  2  0  0  0  0  0  0  0  0  0
    7.6635  -15.7148   22.4582 N   0  0  0  0  0  0  0  0  0  0  0  0
    9.8752  -16.4225   22.0507 C   0  0  0  0  0  0  0  0  0  0  0  0
   10.3272  -15.4632   22.7685 O   0  0  0  0  0  0  0  0  0  0  0  0
   10.6409  -20.3930   23.9430 N   0  0  0  0  0  0  0  0  0  0  0  0
   11.6124  -19.3557   23.8937 C   0  0  0  0  0  0  0  0  0  0  0  0
   11.8601  -18.6839   24.9678 O   0  0  0  0  0  0  0  0  0  0  0  0
   12.3886  -18.9587   22.7095 C   0  0  0  0  0  0  0  0  0  0  0  0
   12.0765  -17.5160   22.3032 C   0  0  2  0  0  0  0  0  0  0  0  0
   10.7342  -17.5089   21.7669 N   0  0  0  0  0  0  0  0  0  0  0  0
   12.9972  -17.0644   21.2153 C   0  0  0  0  0  0  0  0  0  0  0  0
   14.0191  -16.4005   21.5026 O   0  0  0  0  0  0  0  0  0  0  0  0
   12.7305  -17.3734   19.8884 O   0  0  0  0  0  0  0  0  0  0  0  0
  2  1  1  1
  2 10  1  0
  3  2  1  0
  4  3  1  0
  4  5  2  0
  6  5  1  0
  7  6  2  0
  8  9  2  0
  8  7  1  0
  9  4  1  0
 10 16  1  0
 10 11  2  0
 13 12  1  1
 14 13  1  0
 15 17  1  0
 15 13  1  0
 15 16  1  1
 17 18  2  0
 19 20  1  0
 20 22  1  0
 21 20  2  0
 23 22  1  6
 24 23  1  0
 24 17  1  0
 25 23  1  0
 25 27  1  0
 26 25  2  0
M  END
$$$$
