FTN.pdb
     RDKit          3D

 27 27  0  0  1  0  0  0  0  0999 V2000
    5.9739  -15.5526   22.4172 N   0  0  0  0  0  0  0  0  0  0  0  0
    7.2472  -15.4184   23.0985 C   0  0  1  0  0  0  0  0  0  0  0  0
    6.9014  -15.3009   24.5680 C   0  0  0  0  0  0  0  0  0  0  0  0
    7.0014  -13.9510   25.1187 C   0  0  0  0  0  0  0  0  0  0  0  0
    6.0818  -13.4349   25.9829 C   0  0  0  0  0  0  0  0  0  0  0  0
    6.1929  -12.1446   26.5103 C   0  0  0  0  0  0  0  0  0  0  0  0
    7.2499  -11.3450   26.1676 C   0  0  0  0  0  0  0  0  0  0  0  0
    8.1809  -11.8777   25.2892 C   0  0  0  0  0  0  0  0  0  0  0  0
    8.0736  -13.1522   24.7671 C   0  0  0  0  0  0  0  0  0  0  0  0
    8.1287  -16.5689   22.9086 C   0  0  0  0  0  0  0  0  0  0  0  0
    7.8146  -17.4591   22.0803 O   0  0  0  0  0  0  0  0  0  0  0  0
    9.9339  -17.4371   20.8901 C   0  0  0  0  0  0  0  0  0  0  0  0
   10.9376  -17.2921   21.9858 C   0  0  1  0  0  0  0  0  0  0  0  0
   11.3635  -15.9726   22.1173 O   0  0  0  0  0  0  0  0  0  0  0  0
   10.3424  -17.6968   23.3414 C   0  0  2  0  0  0  0  0  0  0  0  0
    9.3296  -16.6969   23.6413 N   0  0  0  0  0  0  0  0  0  0  0  0
   11.3796  -17.5936   24.3844 C   0  0  0  0  0  0  0  0  0  0  0  0
   11.7540  -16.4731   24.8786 O   0  0  0  0  0  0  0  0  0  0  0  0
   10.0209  -20.5530   26.9245 N   0  0  0  0  0  0  0  0  0  0  0  0
   11.1295  -19.8023   27.4035 C   0  0  0  0  0  0  0  0  0  0  0  0
   10.9399  -18.9517   28.3558 O   0  0  0  0  0  0  0  0  0  0  0  0
   12.5120  -19.8994   26.9118 C   0  0  0  0  0  0  0  0  0  0  0  0
   12.8636  -18.7097   26.0146 C   0  0  2  0  0  0  0  0  0  0  0  0
   11.9900  -18.7749   24.8648 N   0  0  0  0  0  0  0  0  0  0  0  0
   14.2691  -18.8221   25.5177 C   0  0  0  0  0  0  0  0  0  0  0  0
   15.2217  -18.7413   26.3261 O   0  0  0  0  0  0  0  0  0  0  0  0
   14.5295  -19.0150   24.1678 O   0  0  0  0  0  0  0  0  0  0  0  0
  2  1  1  6
  2 10  1  0
  3  2  1  0
  4  3  1  0
  4  5  2  0
  6  5  1  0
  7  6  2  0
  8  9  2  0
  8  7  1  0
  9  4  1  0
 10 16  1  0
 10 11  2  0
 13 12  1  6
 14 13  1  0
 15 17  1  0
 15 13  1  0
 15 16  1  1
 17 18  2  0
 19 20  1  0
 20 22  1  0
 21 20  2  0
 23 22  1  1
 24 23  1  0
 24 17  1  0
 25 23  1  0
 25 27  1  0
 26 25  2  0
M  END
$$$$
