FTN.pdb
     RDKit          3D

 27 27  0  0  1  0  0  0  0  0999 V2000
    5.6360  -16.1664   23.9334 N   0  0  0  0  0  0  0  0  0  0  0  0
    7.0208  -15.8347   24.2090 C   0  0  1  0  0  0  0  0  0  0  0  0
    7.0432  -15.3931   25.6572 C   0  0  0  0  0  0  0  0  0  0  0  0
    6.9004  -13.9537   25.8649 C   0  0  0  0  0  0  0  0  0  0  0  0
    7.0639  -13.0423   24.8642 C   0  0  0  0  0  0  0  0  0  0  0  0
    6.9161  -11.6676   25.0732 C   0  0  0  0  0  0  0  0  0  0  0  0
    6.5962  -11.1862   26.3141 C   0  0  0  0  0  0  0  0  0  0  0  0
    6.4308  -12.1196   27.3259 C   0  0  0  0  0  0  0  0  0  0  0  0
    6.5759  -13.4782   27.1219 C   0  0  0  0  0  0  0  0  0  0  0  0
    7.9305  -16.9669   24.0436 C   0  0  0  0  0  0  0  0  0  0  0  0
    7.4997  -18.1355   24.2045 O   0  0  0  0  0  0  0  0  0  0  0  0
    9.6715  -17.7558   21.0091 C   0  0  0  0  0  0  0  0  0  0  0  0
   10.7525  -17.6235   22.0303 C   0  0  1  0  0  0  0  0  0  0  0  0
   11.3045  -16.3448   22.0272 O   0  0  0  0  0  0  0  0  0  0  0  0
   10.2111  -17.8627   23.4464 C   0  0  2  0  0  0  0  0  0  0  0  0
    9.2876  -16.7692   23.7051 N   0  0  0  0  0  0  0  0  0  0  0  0
   11.3117  -17.7439   24.4204 C   0  0  0  0  0  0  0  0  0  0  0  0
   11.6186  -16.6363   24.9851 O   0  0  0  0  0  0  0  0  0  0  0  0
   12.0686  -18.5052   28.6400 N   0  0  0  0  0  0  0  0  0  0  0  0
   11.9724  -19.6556   27.8097 C   0  0  0  0  0  0  0  0  0  0  0  0
   11.0099  -20.4913   28.0138 O   0  0  0  0  0  0  0  0  0  0  0  0
   12.8833  -20.0009   26.7081 C   0  0  0  0  0  0  0  0  0  0  0  0
   13.0876  -18.8106   25.7671 C   0  0  2  0  0  0  0  0  0  0  0  0
   12.0633  -18.8949   24.7506 N   0  0  0  0  0  0  0  0  0  0  0  0
   14.4117  -18.9043   25.0793 C   0  0  0  0  0  0  0  0  0  0  0  0
   14.4930  -19.4651   23.9628 O   0  0  0  0  0  0  0  0  0  0  0  0
   15.5533  -18.3757   25.6662 O   0  0  0  0  0  0  0  0  0  0  0  0
  2  1  1  1
  2 10  1  0
  3  2  1  0
  4  3  1  0
  4  5  2  0
  6  5  1  0
  7  6  2  0
  8  9  2  0
  8  7  1  0
  9  4  1  0
 10 16  1  0
 10 11  2  0
 13 12  1  6
 14 13  1  0
 15 17  1  0
 15 13  1  0
 15 16  1  1
 17 18  2  0
 19 20  1  0
 20 22  1  0
 21 20  2  0
 23 22  1  1
 24 23  1  0
 24 17  1  0
 25 23  1  0
 25 27  1  0
 26 25  2  0
M  END
$$$$
