FTN.pdb
     RDKit          3D

 27 27  0  0  1  0  0  0  0  0999 V2000
    6.3172  -15.4696   24.9464 N   0  0  0  0  0  0  0  0  0  0  0  0
    7.3690  -15.3582   23.9541 C   0  0  1  0  0  0  0  0  0  0  0  0
    8.0870  -14.0652   24.2792 C   0  0  0  0  0  0  0  0  0  0  0  0
    7.4792  -13.2745   25.3473 C   0  0  0  0  0  0  0  0  0  0  0  0
    6.1869  -12.8422   25.3036 C   0  0  0  0  0  0  0  0  0  0  0  0
    5.6135  -12.0934   26.3360 C   0  0  0  0  0  0  0  0  0  0  0  0
    6.3476  -11.7656   27.4440 C   0  0  0  0  0  0  0  0  0  0  0  0
    7.6605  -12.2098   27.4809 C   0  0  0  0  0  0  0  0  0  0  0  0
    8.2291  -12.9499   26.4625 C   0  0  0  0  0  0  0  0  0  0  0  0
    8.3290  -16.4596   24.0028 C   0  0  0  0  0  0  0  0  0  0  0  0
    8.1732  -17.3794   24.8435 O   0  0  0  0  0  0  0  0  0  0  0  0
    9.7482  -17.6686   20.5209 C   0  0  0  0  0  0  0  0  0  0  0  0
   10.8390  -17.6008   21.5380 C   0  0  1  0  0  0  0  0  0  0  0  0
   11.5404  -16.4004   21.4557 O   0  0  0  0  0  0  0  0  0  0  0  0
   10.2751  -17.6810   22.9633 C   0  0  2  0  0  0  0  0  0  0  0  0
    9.4301  -16.5075   23.1193 N   0  0  0  0  0  0  0  0  0  0  0  0
   11.3767  -17.5578   23.9356 C   0  0  0  0  0  0  0  0  0  0  0  0
   11.8163  -16.4260   24.3426 O   0  0  0  0  0  0  0  0  0  0  0  0
   10.3768  -20.3064   27.2333 N   0  0  0  0  0  0  0  0  0  0  0  0
   11.6163  -19.6131   27.3048 C   0  0  0  0  0  0  0  0  0  0  0  0
   11.7739  -18.7131   28.2167 O   0  0  0  0  0  0  0  0  0  0  0  0
   12.7726  -19.8233   26.4209 C   0  0  0  0  0  0  0  0  0  0  0  0
   12.9761  -18.6290   25.4848 C   0  0  2  0  0  0  0  0  0  0  0  0
   11.9770  -18.7320   24.4452 N   0  0  0  0  0  0  0  0  0  0  0  0
   14.3171  -18.6977   24.8274 C   0  0  0  0  0  0  0  0  0  0  0  0
   14.4487  -19.3203   23.7491 O   0  0  0  0  0  0  0  0  0  0  0  0
   15.4191  -18.0780   25.4006 O   0  0  0  0  0  0  0  0  0  0  0  0
  2  1  1  1
  2 10  1  0
  3  2  1  0
  4  3  1  0
  4  5  2  0
  6  5  1  0
  7  6  2  0
  8  9  2  0
  8  7  1  0
  9  4  1  0
 10 16  1  0
 10 11  2  0
 13 12  1  6
 14 13  1  0
 15 17  1  0
 15 13  1  0
 15 16  1  1
 17 18  2  0
 19 20  1  0
 20 22  1  0
 21 20  2  0
 23 22  1  1
 24 23  1  0
 24 17  1  0
 25 23  1  0
 25 27  1  0
 26 25  2  0
M  END
$$$$
