FTN.pdb
     RDKit          3D

 27 27  0  0  1  0  0  0  0  0999 V2000
    5.7233  -17.7486   25.6596 N   0  0  0  0  0  0  0  0  0  0  0  0
    6.2872  -16.5155   25.1448 C   0  0  1  0  0  0  0  0  0  0  0  0
    7.1814  -15.9953   26.2506 C   0  0  0  0  0  0  0  0  0  0  0  0
    7.0725  -14.5609   26.5078 C   0  0  0  0  0  0  0  0  0  0  0  0
    5.8767  -13.9294   26.6813 C   0  0  0  0  0  0  0  0  0  0  0  0
    5.7855  -12.5575   26.9357 C   0  0  0  0  0  0  0  0  0  0  0  0
    6.9173  -11.7920   27.0200 C   0  0  0  0  0  0  0  0  0  0  0  0
    8.1292  -12.4420   26.8433 C   0  0  0  0  0  0  0  0  0  0  0  0
    8.2220  -13.7973   26.5923 C   0  0  0  0  0  0  0  0  0  0  0  0
    7.0878  -16.7059   23.9367 C   0  0  0  0  0  0  0  0  0  0  0  0
    6.7099  -17.5297   23.0673 O   0  0  0  0  0  0  0  0  0  0  0  0
    7.5880  -13.9681   21.8455 C   0  0  0  0  0  0  0  0  0  0  0  0
    7.9939  -15.3489   21.4486 C   0  0  1  0  0  0  0  0  0  0  0  0
    8.6332  -15.3577   20.2113 O   0  0  0  0  0  0  0  0  0  0  0  0
    8.9840  -15.9482   22.4567 C   0  0  2  0  0  0  0  0  0  0  0  0
    8.2807  -15.9782   23.7295 N   0  0  0  0  0  0  0  0  0  0  0  0
   10.1346  -15.0397   22.6155 C   0  0  0  0  0  0  0  0  0  0  0  0
   10.0310  -13.8792   23.1466 O   0  0  0  0  0  0  0  0  0  0  0  0
   12.8746  -17.4236   26.3812 N   0  0  0  0  0  0  0  0  0  0  0  0
   12.9899  -17.2928   24.9698 C   0  0  0  0  0  0  0  0  0  0  0  0
   14.1085  -17.6042   24.4057 O   0  0  0  0  0  0  0  0  0  0  0  0
   11.9336  -16.8267   24.0592 C   0  0  0  0  0  0  0  0  0  0  0  0
   12.4519  -15.7257   23.1302 C   0  0  2  0  0  0  0  0  0  0  0  0
   11.4078  -15.4597   22.1666 N   0  0  0  0  0  0  0  0  0  0  0  0
   13.6520  -16.1969   22.3734 C   0  0  0  0  0  0  0  0  0  0  0  0
   14.7986  -15.9506   22.8120 O   0  0  0  0  0  0  0  0  0  0  0  0
   13.5085  -16.9051   21.1881 O   0  0  0  0  0  0  0  0  0  0  0  0
  2  1  1  1
  2 10  1  0
  3  2  1  0
  4  3  1  0
  4  5  2  0
  6  5  1  0
  7  6  2  0
  8  9  2  0
  8  7  1  0
  9  4  1  0
 10 16  1  0
 10 11  2  0
 13 12  1  1
 14 13  1  0
 15 17  1  0
 15 13  1  0
 15 16  1  1
 17 18  2  0
 19 20  1  0
 20 22  1  0
 21 20  2  0
 23 22  1  1
 24 23  1  0
 24 17  1  0
 25 23  1  0
 25 27  1  0
 26 25  2  0
M  END
$$$$
