FTN.pdb
     RDKit          3D

 27 27  0  0  1  0  0  0  0  0999 V2000
    5.8015  -17.0549   25.4040 N   0  0  0  0  0  0  0  0  0  0  0  0
    6.7778  -16.1261   24.8677 C   0  0  1  0  0  0  0  0  0  0  0  0
    7.4062  -15.4672   26.0775 C   0  0  0  0  0  0  0  0  0  0  0  0
    7.0400  -14.0666   26.2764 C   0  0  0  0  0  0  0  0  0  0  0  0
    7.7562  -13.0330   25.7496 C   0  0  0  0  0  0  0  0  0  0  0  0
    7.3909  -11.6967   25.9393 C   0  0  0  0  0  0  0  0  0  0  0  0
    6.2805  -11.3800   26.6747 C   0  0  0  0  0  0  0  0  0  0  0  0
    5.5573  -12.4368   27.2061 C   0  0  0  0  0  0  0  0  0  0  0  0
    5.9159  -13.7578   27.0197 C   0  0  0  0  0  0  0  0  0  0  0  0
    7.8257  -16.7774   24.0837 C   0  0  0  0  0  0  0  0  0  0  0  0
    8.1979  -17.9369   24.3906 O   0  0  0  0  0  0  0  0  0  0  0  0
   10.4540  -16.4598   19.8772 C   0  0  0  0  0  0  0  0  0  0  0  0
    9.3869  -15.9860   20.8077 C   0  0  1  0  0  0  0  0  0  0  0  0
    8.1167  -16.1875   20.2733 O   0  0  0  0  0  0  0  0  0  0  0  0
    9.4287  -16.7521   22.1370 C   0  0  2  0  0  0  0  0  0  0  0  0
    8.4276  -16.1246   22.9851 N   0  0  0  0  0  0  0  0  0  0  0  0
   10.7384  -16.5460   22.7824 C   0  0  0  0  0  0  0  0  0  0  0  0
   11.1282  -15.4020   23.2055 O   0  0  0  0  0  0  0  0  0  0  0  0
   11.2360  -19.9003   25.6136 N   0  0  0  0  0  0  0  0  0  0  0  0
   12.3085  -18.9720   25.5125 C   0  0  0  0  0  0  0  0  0  0  0  0
   12.5673  -18.2084   26.5207 O   0  0  0  0  0  0  0  0  0  0  0  0
   13.1805  -18.7879   24.3429 C   0  0  0  0  0  0  0  0  0  0  0  0
   12.8688  -17.4728   23.6236 C   0  0  2  0  0  0  0  0  0  0  0  0
   11.6047  -17.6513   22.9457 N   0  0  0  0  0  0  0  0  0  0  0  0
   13.9010  -17.1855   22.5808 C   0  0  0  0  0  0  0  0  0  0  0  0
   13.9343  -17.8724   21.5345 O   0  0  0  0  0  0  0  0  0  0  0  0
   14.8239  -16.1642   22.7607 O   0  0  0  0  0  0  0  0  0  0  0  0
  2  1  1  1
  2 10  1  0
  3  2  1  0
  4  3  1  0
  4  5  2  0
  6  5  1  0
  7  6  2  0
  8  9  2  0
  8  7  1  0
  9  4  1  0
 10 16  1  0
 10 11  2  0
 13 12  1  6
 14 13  1  0
 15 17  1  0
 15 13  1  0
 15 16  1  1
 17 18  2  0
 19 20  1  0
 20 22  1  0
 21 20  2  0
 23 22  1  6
 24 23  1  0
 24 17  1  0
 25 23  1  0
 25 27  1  0
 26 25  2  0
M  END
$$$$
