FTN.pdb
     RDKit          3D

 27 27  0  0  1  0  0  0  0  0999 V2000
    6.2651  -15.4808   24.3220 N   0  0  0  0  0  0  0  0  0  0  0  0
    7.3823  -15.2758   23.4202 C   0  0  1  0  0  0  0  0  0  0  0  0
    8.1304  -14.0835   23.9786 C   0  0  0  0  0  0  0  0  0  0  0  0
    7.4140  -13.3333   25.0079 C   0  0  0  0  0  0  0  0  0  0  0  0
    8.0156  -12.3939   25.7917 C   0  0  0  0  0  0  0  0  0  0  0  0
    7.3175  -11.6760   26.7677 C   0  0  0  0  0  0  0  0  0  0  0  0
    5.9821  -11.8995   26.9693 C   0  0  0  0  0  0  0  0  0  0  0  0
    5.3778  -12.8557   26.1675 C   0  0  0  0  0  0  0  0  0  0  0  0
    6.0651  -13.5659   25.2023 C   0  0  0  0  0  0  0  0  0  0  0  0
    8.2910  -16.4190   23.3562 C   0  0  0  0  0  0  0  0  0  0  0  0
    7.8871  -17.5042   22.8699 O   0  0  0  0  0  0  0  0  0  0  0  0
    9.4697  -17.4575   21.2585 C   0  0  0  0  0  0  0  0  0  0  0  0
   10.7728  -17.1329   21.9108 C   0  0  1  0  0  0  0  0  0  0  0  0
   11.1717  -15.8276   21.6339 O   0  0  0  0  0  0  0  0  0  0  0  0
   10.6725  -17.2450   23.4382 C   0  0  2  0  0  0  0  0  0  0  0  0
    9.6176  -16.3244   23.8323 N   0  0  0  0  0  0  0  0  0  0  0  0
   11.9241  -16.7620   24.0501 C   0  0  0  0  0  0  0  0  0  0  0  0
   12.4190  -15.6091   23.7937 O   0  0  0  0  0  0  0  0  0  0  0  0
   11.2975  -15.5718   28.9725 N   0  0  0  0  0  0  0  0  0  0  0  0
   11.3379  -16.8534   28.3578 C   0  0  0  0  0  0  0  0  0  0  0  0
   11.3991  -17.9018   29.1086 O   0  0  0  0  0  0  0  0  0  0  0  0
   11.3148  -17.1154   26.9110 C   0  0  0  0  0  0  0  0  0  0  0  0
   12.7339  -17.2009   26.3428 C   0  0  2  0  0  0  0  0  0  0  0  0
   12.6116  -17.5990   24.9586 N   0  0  0  0  0  0  0  0  0  0  0  0
   13.5201  -18.2599   27.0469 C   0  0  0  0  0  0  0  0  0  0  0  0
   13.4029  -19.4562   26.6966 O   0  0  0  0  0  0  0  0  0  0  0  0
   14.3795  -17.9304   28.0862 O   0  0  0  0  0  0  0  0  0  0  0  0
  2  1  1  1
  2 10  1  0
  3  2  1  0
  4  3  1  0
  4  5  2  0
  6  5  1  0
  7  6  2  0
  8  9  2  0
  8  7  1  0
  9  4  1  0
 10 16  1  0
 10 11  2  0
 13 12  1  6
 14 13  1  0
 15 17  1  0
 15 13  1  0
 15 16  1  1
 17 18  2  0
 19 20  1  0
 20 22  1  0
 21 20  2  0
 23 22  1  1
 24 23  1  0
 24 17  1  0
 25 23  1  0
 25 27  1  0
 26 25  2  0
M  END
$$$$
