FTN.pdb
     RDKit          3D

 27 27  0  0  1  0  0  0  0  0999 V2000
    7.2126  -13.9276   20.4659 N   0  0  0  0  0  0  0  0  0  0  0  0
    7.7393  -13.8611   21.8155 C   0  0  1  0  0  0  0  0  0  0  0  0
    6.6252  -13.2623   22.6480 C   0  0  0  0  0  0  0  0  0  0  0  0
    6.9320  -13.1075   24.0683 C   0  0  0  0  0  0  0  0  0  0  0  0
    6.5855  -14.0354   25.0052 C   0  0  0  0  0  0  0  0  0  0  0  0
    6.8923  -13.8804   26.3605 C   0  0  0  0  0  0  0  0  0  0  0  0
    7.5637  -12.7697   26.7960 C   0  0  0  0  0  0  0  0  0  0  0  0
    7.9132  -11.8314   25.8369 C   0  0  0  0  0  0  0  0  0  0  0  0
    7.6115  -11.9824   24.4973 C   0  0  0  0  0  0  0  0  0  0  0  0
    8.0912  -15.1697   22.3640 C   0  0  0  0  0  0  0  0  0  0  0  0
    7.3190  -16.1437   22.1850 O   0  0  0  0  0  0  0  0  0  0  0  0
   11.9468  -17.9392   23.4525 C   0  0  0  0  0  0  0  0  0  0  0  0
   11.2576  -16.6949   22.9990 C   0  0  1  0  0  0  0  0  0  0  0  0
   11.2347  -16.6009   21.6096 O   0  0  0  0  0  0  0  0  0  0  0  0
    9.7949  -16.6694   23.4632 C   0  0  2  0  0  0  0  0  0  0  0  0
    9.2867  -15.3580   23.0926 N   0  0  0  0  0  0  0  0  0  0  0  0
    9.7441  -16.7572   24.9342 C   0  0  0  0  0  0  0  0  0  0  0  0
    9.9981  -15.7593   25.6955 O   0  0  0  0  0  0  0  0  0  0  0  0
    6.5404  -17.9091   26.2390 N   0  0  0  0  0  0  0  0  0  0  0  0
    7.0483  -19.0839   26.8589 C   0  0  0  0  0  0  0  0  0  0  0  0
    6.2451  -20.0720   27.0713 O   0  0  0  0  0  0  0  0  0  0  0  0
    8.4367  -19.2959   27.2947 C   0  0  0  0  0  0  0  0  0  0  0  0
    9.3072  -18.0773   26.9767 C   0  0  2  0  0  0  0  0  0  0  0  0
    9.4011  -17.9892   25.5370 N   0  0  0  0  0  0  0  0  0  0  0  0
   10.6924  -18.2671   27.5063 C   0  0  0  0  0  0  0  0  0  0  0  0
   10.9878  -17.8315   28.6423 O   0  0  0  0  0  0  0  0  0  0  0  0
   11.6557  -18.9217   26.7507 O   0  0  0  0  0  0  0  0  0  0  0  0
  2  1  1  6
  2 10  1  0
  3  2  1  0
  4  3  1  0
  4  5  2  0
  6  5  1  0
  7  6  2  0
  8  9  2  0
  8  7  1  0
  9  4  1  0
 10 16  1  0
 10 11  2  0
 13 12  1  6
 14 13  1  0
 15 17  1  0
 15 13  1  0
 15 16  1  1
 17 18  2  0
 19 20  1  0
 20 22  1  0
 21 20  2  0
 23 22  1  6
 24 23  1  0
 24 17  1  0
 25 23  1  0
 25 27  1  0
 26 25  2  0
M  END
$$$$
