FTN.pdb
     RDKit          3D

 27 27  0  0  1  0  0  0  0  0999 V2000
    5.4830  -17.1589   24.6062 N   0  0  0  0  0  0  0  0  0  0  0  0
    6.6472  -16.3575   24.2808 C   0  0  1  0  0  0  0  0  0  0  0  0
    7.1716  -15.8597   25.6113 C   0  0  0  0  0  0  0  0  0  0  0  0
    7.0288  -14.4221   25.8311 C   0  0  0  0  0  0  0  0  0  0  0  0
    7.1453  -13.8471   27.0618 C   0  0  0  0  0  0  0  0  0  0  0  0
    7.0153  -12.4688   27.2585 C   0  0  0  0  0  0  0  0  0  0  0  0
    6.7623  -11.6389   26.1996 C   0  0  0  0  0  0  0  0  0  0  0  0
    6.6462  -12.2315   24.9516 C   0  0  0  0  0  0  0  0  0  0  0  0
    6.7746  -13.5927   24.7546 C   0  0  0  0  0  0  0  0  0  0  0  0
    7.7011  -17.1151   23.6084 C   0  0  0  0  0  0  0  0  0  0  0  0
    7.3987  -18.1278   22.9300 O   0  0  0  0  0  0  0  0  0  0  0  0
   10.8284  -16.7049   20.4365 C   0  0  0  0  0  0  0  0  0  0  0  0
    9.7381  -16.5014   21.4359 C   0  0  1  0  0  0  0  0  0  0  0  0
    8.5396  -17.0662   21.0067 O   0  0  0  0  0  0  0  0  0  0  0  0
   10.0809  -17.1680   22.7752 C   0  0  2  0  0  0  0  0  0  0  0  0
    9.0558  -16.7274   23.7083 N   0  0  0  0  0  0  0  0  0  0  0  0
   11.3705  -16.6492   23.2670 C   0  0  0  0  0  0  0  0  0  0  0  0
   11.4533  -15.6846   24.1052 O   0  0  0  0  0  0  0  0  0  0  0  0
   11.1480  -18.8958   26.4097 N   0  0  0  0  0  0  0  0  0  0  0  0
   12.4082  -18.6285   25.8074 C   0  0  0  0  0  0  0  0  0  0  0  0
   13.3171  -18.0332   26.5046 O   0  0  0  0  0  0  0  0  0  0  0  0
   12.7947  -18.9723   24.4309 C   0  0  0  0  0  0  0  0  0  0  0  0
   13.5036  -17.7999   23.7475 C   0  0  2  0  0  0  0  0  0  0  0  0
   12.5693  -17.2354   22.8000 N   0  0  0  0  0  0  0  0  0  0  0  0
   14.6909  -18.2798   22.9760 C   0  0  0  0  0  0  0  0  0  0  0  0
   15.8269  -17.8222   23.2365 O   0  0  0  0  0  0  0  0  0  0  0  0
   14.5469  -19.2282   21.9725 O   0  0  0  0  0  0  0  0  0  0  0  0
  2  1  1  1
  2 10  1  0
  3  2  1  0
  4  3  1  0
  4  5  2  0
  6  5  1  0
  7  6  2  0
  8  9  2  0
  8  7  1  0
  9  4  1  0
 10 16  1  0
 10 11  2  0
 13 12  1  6
 14 13  1  0
 15 17  1  0
 15 13  1  0
 15 16  1  1
 17 18  2  0
 19 20  1  0
 20 22  1  0
 21 20  2  0
 23 22  1  6
 24 23  1  0
 24 17  1  0
 25 23  1  0
 25 27  1  0
 26 25  2  0
M  END
$$$$
