FTN.pdb
     RDKit          3D

 27 27  0  0  1  0  0  0  0  0999 V2000
    7.3073  -14.3032   20.7735 N   0  0  0  0  0  0  0  0  0  0  0  0
    7.8225  -14.0985   22.1137 C   0  0  1  0  0  0  0  0  0  0  0  0
    6.6938  -13.4379   22.8770 C   0  0  0  0  0  0  0  0  0  0  0  0
    6.9697  -13.1859   24.2896 C   0  0  0  0  0  0  0  0  0  0  0  0
    6.2158  -13.7133   25.2958 C   0  0  0  0  0  0  0  0  0  0  0  0
    6.4949  -13.4722   26.6446 C   0  0  0  0  0  0  0  0  0  0  0  0
    7.5551  -12.6834   27.0023 C   0  0  0  0  0  0  0  0  0  0  0  0
    8.3171  -12.1518   25.9731 C   0  0  0  0  0  0  0  0  0  0  0  0
    8.0437  -12.3889   24.6399 C   0  0  0  0  0  0  0  0  0  0  0  0
    8.1880  -15.3425   22.7889 C   0  0  0  0  0  0  0  0  0  0  0  0
    7.5340  -16.3888   22.5550 O   0  0  0  0  0  0  0  0  0  0  0  0
    9.3318  -17.6331   21.9058 C   0  0  0  0  0  0  0  0  0  0  0  0
   10.4410  -17.2740   22.8384 C   0  0  1  0  0  0  0  0  0  0  0  0
   11.3118  -16.3505   22.2650 O   0  0  0  0  0  0  0  0  0  0  0  0
    9.9007  -16.6276   24.1213 C   0  0  2  0  0  0  0  0  0  0  0  0
    9.2658  -15.3884   23.7009 N   0  0  0  0  0  0  0  0  0  0  0  0
   11.0269  -16.2641   25.0009 C   0  0  0  0  0  0  0  0  0  0  0  0
   11.3585  -15.0493   25.2333 O   0  0  0  0  0  0  0  0  0  0  0  0
   11.8867  -17.4429   29.9124 N   0  0  0  0  0  0  0  0  0  0  0  0
   10.6815  -17.4326   29.1576 C   0  0  0  0  0  0  0  0  0  0  0  0
    9.5541  -17.4718   29.7853 O   0  0  0  0  0  0  0  0  0  0  0  0
   10.5844  -17.3786   27.6913 C   0  0  0  0  0  0  0  0  0  0  0  0
   11.9705  -17.2726   27.0498 C   0  0  2  0  0  0  0  0  0  0  0  0
   11.7759  -17.2925   25.6176 N   0  0  0  0  0  0  0  0  0  0  0  0
   12.8076  -18.4590   27.4058 C   0  0  0  0  0  0  0  0  0  0  0  0
   13.6728  -18.3608   28.3056 O   0  0  0  0  0  0  0  0  0  0  0  0
   12.6359  -19.6696   26.7485 O   0  0  0  0  0  0  0  0  0  0  0  0
  2  1  1  6
  2 10  1  0
  3  2  1  0
  4  3  1  0
  4  5  2  0
  6  5  1  0
  7  6  2  0
  8  9  2  0
  8  7  1  0
  9  4  1  0
 10 16  1  0
 10 11  2  0
 13 12  1  6
 14 13  1  0
 15 17  1  0
 15 13  1  0
 15 16  1  6
 17 18  2  0
 19 20  1  0
 20 22  1  0
 21 20  2  0
 23 22  1  1
 24 23  1  0
 24 17  1  0
 25 23  1  0
 25 27  1  0
 26 25  2  0
M  END
$$$$
