FTN.pdb
     RDKit          3D

 27 27  0  0  1  0  0  0  0  0999 V2000
    7.6634  -17.4997   19.8494 N   0  0  0  0  0  0  0  0  0  0  0  0
    8.4057  -16.8856   20.9336 C   0  0  1  0  0  0  0  0  0  0  0  0
    7.4094  -15.9910   21.6407 C   0  0  0  0  0  0  0  0  0  0  0  0
    7.5127  -14.5714   21.3101 C   0  0  0  0  0  0  0  0  0  0  0  0
    7.2527  -14.0813   20.0647 C   0  0  0  0  0  0  0  0  0  0  0  0
    7.3465  -12.7193   19.7624 C   0  0  0  0  0  0  0  0  0  0  0  0
    7.7095  -11.8190   20.7277 C   0  0  0  0  0  0  0  0  0  0  0  0
    7.9712  -12.3254   21.9916 C   0  0  0  0  0  0  0  0  0  0  0  0
    7.8789  -13.6704   22.2928 C   0  0  0  0  0  0  0  0  0  0  0  0
    8.9379  -17.8535   21.8910 C   0  0  0  0  0  0  0  0  0  0  0  0
    8.2475  -18.8533   22.2089 O   0  0  0  0  0  0  0  0  0  0  0  0
   11.2844  -20.1452   21.3274 C   0  0  0  0  0  0  0  0  0  0  0  0
   11.9136  -19.3576   22.4287 C   0  0  1  0  0  0  0  0  0  0  0  0
   12.7196  -18.3368   21.9308 O   0  0  0  0  0  0  0  0  0  0  0  0
   10.8505  -18.6858   23.3086 C   0  0  2  0  0  0  0  0  0  0  0  0
   10.2171  -17.6839   22.4656 N   0  0  0  0  0  0  0  0  0  0  0  0
   11.5096  -17.9702   24.4166 C   0  0  0  0  0  0  0  0  0  0  0  0
   11.6326  -16.6958   24.4404 O   0  0  0  0  0  0  0  0  0  0  0  0
   10.6897  -15.8804   28.8929 N   0  0  0  0  0  0  0  0  0  0  0  0
   10.4754  -17.2379   28.5277 C   0  0  0  0  0  0  0  0  0  0  0  0
   10.1559  -18.0862   29.4468 O   0  0  0  0  0  0  0  0  0  0  0  0
   10.5820  -17.7913   27.1695 C   0  0  0  0  0  0  0  0  0  0  0  0
   12.0339  -18.1343   26.8256 C   0  0  2  0  0  0  0  0  0  0  0  0
   12.0289  -18.7136   25.5013 N   0  0  0  0  0  0  0  0  0  0  0  0
   12.5677  -19.1672   27.7655 C   0  0  0  0  0  0  0  0  0  0  0  0
   12.2274  -20.3645   27.6306 O   0  0  0  0  0  0  0  0  0  0  0  0
   13.4377  -18.8123   28.7875 O   0  0  0  0  0  0  0  0  0  0  0  0
  2  1  1  6
  2 10  1  0
  3  2  1  0
  4  3  1  0
  4  5  2  0
  6  5  1  0
  7  6  2  0
  8  9  2  0
  8  7  1  0
  9  4  1  0
 10 16  1  0
 10 11  2  0
 13 12  1  6
 14 13  1  0
 15 17  1  0
 15 13  1  0
 15 16  1  6
 17 18  2  0
 19 20  1  0
 20 22  1  0
 21 20  2  0
 23 22  1  1
 24 23  1  0
 24 17  1  0
 25 23  1  0
 25 27  1  0
 26 25  2  0
M  END
$$$$
