FTN.pdb
     RDKit          3D

 27 27  0  0  1  0  0  0  0  0999 V2000
    6.3087  -16.1181   25.7844 N   0  0  0  0  0  0  0  0  0  0  0  0
    7.0155  -15.4318   24.7200 C   0  0  1  0  0  0  0  0  0  0  0  0
    7.9925  -14.5112   25.4207 C   0  0  0  0  0  0  0  0  0  0  0  0
    7.3788  -13.4258   26.1826 C   0  0  0  0  0  0  0  0  0  0  0  0
    6.3033  -12.7206   25.7299 C   0  0  0  0  0  0  0  0  0  0  0  0
    5.7190  -11.6896   26.4720 C   0  0  0  0  0  0  0  0  0  0  0  0
    6.2195  -11.3507   27.7003 C   0  0  0  0  0  0  0  0  0  0  0  0
    7.3125  -12.0732   28.1536 C   0  0  0  0  0  0  0  0  0  0  0  0
    7.8914  -13.0925   27.4226 C   0  0  0  0  0  0  0  0  0  0  0  0
    7.7590  -16.3349   23.8434 C   0  0  0  0  0  0  0  0  0  0  0  0
    8.0494  -17.4884   24.2462 O   0  0  0  0  0  0  0  0  0  0  0  0
    7.0834  -16.3288   19.9972 C   0  0  0  0  0  0  0  0  0  0  0  0
    8.5580  -16.3049   20.2295 C   0  0  1  0  0  0  0  0  0  0  0  0
    9.0725  -15.0158   20.1143 O   0  0  0  0  0  0  0  0  0  0  0  0
    8.9054  -16.7898   21.6437 C   0  0  2  0  0  0  0  0  0  0  0  0
    8.1568  -15.9324   22.5492 N   0  0  0  0  0  0  0  0  0  0  0  0
   10.3375  -16.5561   21.9058 C   0  0  0  0  0  0  0  0  0  0  0  0
   10.7557  -15.6304   22.6855 O   0  0  0  0  0  0  0  0  0  0  0  0
   14.9326  -18.3517   23.3486 N   0  0  0  0  0  0  0  0  0  0  0  0
   13.6384  -18.6741   23.8417 C   0  0  0  0  0  0  0  0  0  0  0  0
   13.5397  -19.3093   24.9612 O   0  0  0  0  0  0  0  0  0  0  0  0
   12.3621  -18.3471   23.1885 C   0  0  0  0  0  0  0  0  0  0  0  0
   12.5902  -17.5712   21.8885 C   0  0  2  0  0  0  0  0  0  0  0  0
   11.2947  -17.3839   21.2754 N   0  0  0  0  0  0  0  0  0  0  0  0
   13.4254  -18.3686   20.9390 C   0  0  0  0  0  0  0  0  0  0  0  0
   14.5464  -17.9374   20.5854 O   0  0  0  0  0  0  0  0  0  0  0  0
   12.9706  -19.5834   20.4444 O   0  0  0  0  0  0  0  0  0  0  0  0
  2  1  1  1
  2 10  1  0
  3  2  1  0
  4  3  1  0
  4  5  2  0
  6  5  1  0
  7  6  2  0
  8  9  2  0
  8  7  1  0
  9  4  1  0
 10 16  1  0
 10 11  2  0
 13 12  1  1
 14 13  1  0
 15 17  1  0
 15 13  1  0
 15 16  1  1
 17 18  2  0
 19 20  1  0
 20 22  1  0
 21 20  2  0
 23 22  1  1
 24 23  1  0
 24 17  1  0
 25 23  1  0
 25 27  1  0
 26 25  2  0
M  END
$$$$
