FTN.pdb
     RDKit          3D

 27 27  0  0  1  0  0  0  0  0999 V2000
    6.1296  -16.6583   26.1208 N   0  0  0  0  0  0  0  0  0  0  0  0
    6.7072  -15.7453   25.1532 C   0  0  1  0  0  0  0  0  0  0  0  0
    7.6008  -14.8255   25.9584 C   0  0  0  0  0  0  0  0  0  0  0  0
    7.0349  -13.5082   26.2407 C   0  0  0  0  0  0  0  0  0  0  0  0
    6.8506  -12.5608   25.2777 C   0  0  0  0  0  0  0  0  0  0  0  0
    6.2999  -11.3065   25.5583 C   0  0  0  0  0  0  0  0  0  0  0  0
    5.9216  -10.9860   26.8343 C   0  0  0  0  0  0  0  0  0  0  0  0
    6.1115  -11.9552   27.8074 C   0  0  0  0  0  0  0  0  0  0  0  0
    6.6550  -13.1952   27.5326 C   0  0  0  0  0  0  0  0  0  0  0  0
    7.5118  -16.4163   24.1337 C   0  0  0  0  0  0  0  0  0  0  0  0
    7.9834  -17.5562   24.3688 O   0  0  0  0  0  0  0  0  0  0  0  0
    6.7973  -15.0007   20.5639 C   0  0  0  0  0  0  0  0  0  0  0  0
    8.1618  -15.6064   20.5444 C   0  0  1  0  0  0  0  0  0  0  0  0
    9.1546  -14.6301   20.5738 O   0  0  0  0  0  0  0  0  0  0  0  0
    8.3905  -16.4998   21.7713 C   0  0  2  0  0  0  0  0  0  0  0  0
    7.7683  -15.8041   22.8868 N   0  0  0  0  0  0  0  0  0  0  0  0
    9.8345  -16.5808   22.0584 C   0  0  0  0  0  0  0  0  0  0  0  0
   10.4644  -15.6680   22.6986 O   0  0  0  0  0  0  0  0  0  0  0  0
   13.2021  -18.0971   19.4390 N   0  0  0  0  0  0  0  0  0  0  0  0
   13.3136  -16.8945   20.1896 C   0  0  0  0  0  0  0  0  0  0  0  0
   14.0103  -15.9215   19.7055 O   0  0  0  0  0  0  0  0  0  0  0  0
   12.6971  -16.6368   21.4996 C   0  0  0  0  0  0  0  0  0  0  0  0
   11.9425  -17.8688   22.0064 C   0  0  2  0  0  0  0  0  0  0  0  0
   10.5607  -17.7092   21.6133 N   0  0  0  0  0  0  0  0  0  0  0  0
   11.9803  -17.9320   23.4996 C   0  0  0  0  0  0  0  0  0  0  0  0
   12.4942  -18.9232   24.0662 O   0  0  0  0  0  0  0  0  0  0  0  0
   11.4507  -16.9023   24.2655 O   0  0  0  0  0  0  0  0  0  0  0  0
  2  1  1  1
  2 10  1  0
  3  2  1  0
  4  3  1  0
  4  5  2  0
  6  5  1  0
  7  6  2  0
  8  9  2  0
  8  7  1  0
  9  4  1  0
 10 16  1  0
 10 11  2  0
 13 12  1  1
 14 13  1  0
 15 17  1  0
 15 13  1  0
 15 16  1  1
 17 18  2  0
 19 20  1  0
 20 22  1  0
 21 20  2  0
 23 22  1  1
 24 23  1  0
 24 17  1  0
 25 23  1  0
 25 27  1  0
 26 25  2  0
M  END
$$$$
