SIL.pdb
     RDKit          3D

 23 22  0  0  1  0  0  0  0  0999 V2000
    6.1218  -19.1577   24.6660 O   0  0  0  0  0  0  0  0  0  0  0  0
    5.4394  -18.0962   24.0878 C   0  0  0  0  0  0  0  0  0  0  0  0
    5.6185  -18.1078   22.5695 C   0  0  2  0  0  0  0  0  0  0  0  0
    5.6950  -19.4655   22.1161 N   0  0  0  0  0  0  0  0  0  0  0  0
    6.8426  -17.3914   22.2079 C   0  0  0  0  0  0  0  0  0  0  0  0
    7.8840  -18.0361   21.9151 O   0  0  0  0  0  0  0  0  0  0  0  0
    6.9235  -12.5150   19.6265 C   0  0  0  0  0  0  0  0  0  0  0  0
    7.2173  -13.9164   20.0647 C   0  0  0  0  0  0  0  0  0  0  0  0
    7.9111  -13.8988   21.3950 C   0  0  2  0  0  0  0  0  0  0  0  0
    9.2584  -13.2264   21.3269 C   0  0  0  0  0  0  0  0  0  0  0  0
    8.0912  -15.2912   21.9558 C   0  0  2  0  0  0  0  0  0  0  0  0
    6.8644  -15.9730   22.1848 N   0  0  0  0  0  0  0  0  0  0  0  0
    8.8125  -15.1953   23.2742 C   0  0  0  0  0  0  0  0  0  0  0  0
   10.0357  -14.8958   23.3396 O   0  0  0  0  0  0  0  0  0  0  0  0
    7.9133  -11.9862   26.3033 C   0  0  0  0  0  0  0  0  0  0  0  0
    7.0077  -13.1431   26.1357 C   0  0  2  0  0  0  0  0  0  0  0  0
    5.6973  -12.9109   26.9279 C   0  0  0  0  0  0  0  0  0  0  0  0
    7.4762  -14.4822   26.4973 C   0  0  0  0  0  0  0  0  0  0  0  0
    8.6260  -15.1149   25.8079 C   0  0  2  0  0  0  0  0  0  0  0  0
    8.0847  -15.4507   24.4571 N   0  0  0  0  0  0  0  0  0  0  0  0
    9.0839  -16.3893   26.3582 C   0  0  0  0  0  0  0  0  0  0  0  0
    9.7257  -16.4169   27.4708 O   0  0  0  0  0  0  0  0  0  0  0  0
    8.8918  -17.6450   25.7926 O   0  0  0  0  0  0  0  0  0  0  0  0
  1  2  1  0
  2  3  1  0
  3  4  1  1
  3  5  1  0
  5  6  2  0
  7  8  1  0
  8  9  1  0
  9 11  1  0
  9 10  1  6
 11 13  1  0
 12  5  1  0
 11 12  1  1
 13 14  2  0
 16 17  1  1
 16 15  1  0
 18 16  1  0
 19 18  1  1
 19 21  1  0
 20 13  1  0
 20 19  1  0
 21 22  2  0
 21 23  1  0
M  END
$$$$
