SIL.pdb
     RDKit          3D

 23 22  0  0  1  0  0  0  0  0999 V2000
    5.1626  -19.9720   22.7623 O   0  0  0  0  0  0  0  0  0  0  0  0
    6.2753  -19.1437   22.7108 C   0  0  0  0  0  0  0  0  0  0  0  0
    6.3546  -18.4372   21.3572 C   0  0  2  0  0  0  0  0  0  0  0  0
    6.5797  -19.4124   20.3311 N   0  0  0  0  0  0  0  0  0  0  0  0
    7.4471  -17.4632   21.3682 C   0  0  0  0  0  0  0  0  0  0  0  0
    8.6139  -17.8253   21.0625 O   0  0  0  0  0  0  0  0  0  0  0  0
    6.9030  -12.4030   19.4534 C   0  0  0  0  0  0  0  0  0  0  0  0
    7.3912  -13.7712   19.8169 C   0  0  0  0  0  0  0  0  0  0  0  0
    7.8366  -13.7888   21.2496 C   0  0  2  0  0  0  0  0  0  0  0  0
    8.9667  -12.8254   21.5075 C   0  0  0  0  0  0  0  0  0  0  0  0
    8.2660  -15.1699   21.6899 C   0  0  2  0  0  0  0  0  0  0  0  0
    7.2007  -16.1114   21.7214 N   0  0  0  0  0  0  0  0  0  0  0  0
    8.8374  -15.0816   23.0804 C   0  0  0  0  0  0  0  0  0  0  0  0
   10.0514  -14.8053   23.2810 O   0  0  0  0  0  0  0  0  0  0  0  0
    8.4348  -12.0378   26.2736 C   0  0  0  0  0  0  0  0  0  0  0  0
    7.2923  -12.9223   25.9590 C   0  0  2  0  0  0  0  0  0  0  0  0
    6.0223  -12.4324   26.6978 C   0  0  0  0  0  0  0  0  0  0  0  0
    7.3978  -14.3576   26.2280 C   0  0  0  0  0  0  0  0  0  0  0  0
    8.4428  -15.1924   25.5889 C   0  0  2  0  0  0  0  0  0  0  0  0
    7.9775  -15.3172   24.1754 N   0  0  0  0  0  0  0  0  0  0  0  0
    8.5526  -16.5675   26.0727 C   0  0  0  0  0  0  0  0  0  0  0  0
    7.9008  -17.5089   25.4903 O   0  0  0  0  0  0  0  0  0  0  0  0
    9.3257  -17.0025   27.1434 O   0  0  0  0  0  0  0  0  0  0  0  0
  1  2  1  0
  2  3  1  0
  3  4  1  6
  3  5  1  0
  5  6  2  0
  7  8  1  0
  8  9  1  0
  9 11  1  0
  9 10  1  6
 11 13  1  0
 12  5  1  0
 11 12  1  1
 13 14  2  0
 16 17  1  1
 16 15  1  0
 18 16  1  0
 19 18  1  1
 19 21  1  0
 20 13  1  0
 20 19  1  0
 21 22  2  0
 21 23  1  0
M  END
$$$$
