SIL.pdb
     RDKit          3D

 23 22  0  0  1  0  0  0  0  0999 V2000
    4.4373  -19.5315   23.2278 O   0  0  0  0  0  0  0  0  0  0  0  0
    5.6471  -18.8561   23.1437 C   0  0  0  0  0  0  0  0  0  0  0  0
    5.8758  -18.3427   21.7218 C   0  0  2  0  0  0  0  0  0  0  0  0
    6.0567  -19.4601   20.8425 N   0  0  0  0  0  0  0  0  0  0  0  0
    7.0608  -17.4842   21.6879 C   0  0  0  0  0  0  0  0  0  0  0  0
    8.1998  -17.9931   21.5161 O   0  0  0  0  0  0  0  0  0  0  0  0
    6.9101  -12.4011   19.5527 C   0  0  0  0  0  0  0  0  0  0  0  0
    7.2701  -13.8071   19.9216 C   0  0  0  0  0  0  0  0  0  0  0  0
    7.8023  -13.8451   21.3239 C   0  0  2  0  0  0  0  0  0  0  0  0
    9.0529  -13.0185   21.4820 C   0  0  0  0  0  0  0  0  0  0  0  0
    8.0930  -15.2572   21.7789 C   0  0  2  0  0  0  0  0  0  0  0  0
    6.9353  -16.0800   21.8477 N   0  0  0  0  0  0  0  0  0  0  0  0
    8.7008  -15.2094   23.1559 C   0  0  0  0  0  0  0  0  0  0  0  0
    9.9335  -15.0079   23.3289 O   0  0  0  0  0  0  0  0  0  0  0  0
    8.0073  -12.0769   26.5142 C   0  0  0  0  0  0  0  0  0  0  0  0
    6.9875  -13.0611   26.0924 C   0  0  2  0  0  0  0  0  0  0  0  0
    5.6246  -12.7279   26.7483 C   0  0  0  0  0  0  0  0  0  0  0  0
    7.2216  -14.4867   26.3296 C   0  0  0  0  0  0  0  0  0  0  0  0
    8.3351  -15.2107   25.6712 C   0  0  2  0  0  0  0  0  0  0  0  0
    7.8536  -15.3971   24.2699 N   0  0  0  0  0  0  0  0  0  0  0  0
    8.6026  -16.5617   26.1611 C   0  0  0  0  0  0  0  0  0  0  0  0
    7.9671  -17.5631   25.6676 O   0  0  0  0  0  0  0  0  0  0  0  0
    9.5176  -16.9117   27.1478 O   0  0  0  0  0  0  0  0  0  0  0  0
  1  2  1  0
  2  3  1  0
  3  4  1  6
  3  5  1  0
  5  6  2  0
  7  8  1  0
  8  9  1  0
  9 11  1  0
  9 10  1  6
 11 13  1  0
 12  5  1  0
 11 12  1  1
 13 14  2  0
 16 17  1  1
 16 15  1  0
 18 16  1  0
 19 18  1  1
 19 21  1  0
 20 13  1  0
 20 19  1  0
 21 22  2  0
 21 23  1  0
M  END
$$$$
