SIL.pdb
     RDKit          3D

 23 22  0  0  1  0  0  0  0  0999 V2000
    6.4282  -19.0244   24.5450 O   0  0  0  0  0  0  0  0  0  0  0  0
    5.4344  -18.1480   24.1315 C   0  0  0  0  0  0  0  0  0  0  0  0
    5.4715  -17.9744   22.6130 C   0  0  2  0  0  0  0  0  0  0  0  0
    5.3910  -19.2632   21.9909 N   0  0  0  0  0  0  0  0  0  0  0  0
    6.7132  -17.3070   22.2192 C   0  0  0  0  0  0  0  0  0  0  0  0
    7.6608  -17.9797   21.7342 O   0  0  0  0  0  0  0  0  0  0  0  0
    6.8110  -12.4201   19.8726 C   0  0  0  0  0  0  0  0  0  0  0  0
    7.1132  -13.8386   20.2455 C   0  0  0  0  0  0  0  0  0  0  0  0
    7.9203  -13.8716   21.5099 C   0  0  2  0  0  0  0  0  0  0  0  0
    9.2849  -13.2566   21.3319 C   0  0  0  0  0  0  0  0  0  0  0  0
    8.0870  -15.2790   22.0362 C   0  0  2  0  0  0  0  0  0  0  0  0
    6.8572  -15.9047   22.3803 N   0  0  0  0  0  0  0  0  0  0  0  0
    8.9396  -15.2368   23.2768 C   0  0  0  0  0  0  0  0  0  0  0  0
   10.1801  -15.0168   23.2205 O   0  0  0  0  0  0  0  0  0  0  0  0
    7.2938  -12.0118   26.1797 C   0  0  0  0  0  0  0  0  0  0  0  0
    7.3255  -13.4667   25.9170 C   0  0  2  0  0  0  0  0  0  0  0  0
    5.9624  -14.1028   26.2862 C   0  0  0  0  0  0  0  0  0  0  0  0
    8.3521  -14.2914   26.5568 C   0  0  0  0  0  0  0  0  0  0  0  0
    9.0696  -15.3538   25.8126 C   0  0  2  0  0  0  0  0  0  0  0  0
    8.3174  -15.4513   24.5261 N   0  0  0  0  0  0  0  0  0  0  0  0
    9.0079  -16.6961   26.3882 C   0  0  0  0  0  0  0  0  0  0  0  0
    9.6336  -16.9582   27.4791 O   0  0  0  0  0  0  0  0  0  0  0  0
    8.3094  -17.7810   25.8700 O   0  0  0  0  0  0  0  0  0  0  0  0
  1  2  1  0
  2  3  1  0
  3  4  1  6
  3  5  1  0
  5  6  2  0
  7  8  1  0
  8  9  1  0
  9 11  1  0
  9 10  1  6
 11 13  1  0
 12  5  1  0
 11 12  1  1
 13 14  2  0
 16 17  1  1
 16 15  1  0
 18 16  1  0
 19 18  1  1
 19 21  1  0
 20 13  1  0
 20 19  1  0
 21 22  2  0
 21 23  1  0
M  END
$$$$
