SIL.pdb
     RDKit          3D

 23 22  0  0  1  0  0  0  0  0999 V2000
    8.1305  -15.5260   20.0633 O   0  0  0  0  0  0  0  0  0  0  0  0
    8.3313  -16.8984   20.1165 C   0  0  0  0  0  0  0  0  0  0  0  0
    7.0794  -17.6028   20.6400 C   0  0  2  0  0  0  0  0  0  0  0  0
    5.9512  -17.2029   19.8515 N   0  0  0  0  0  0  0  0  0  0  0  0
    6.8589  -17.2474   22.0426 C   0  0  0  0  0  0  0  0  0  0  0  0
    5.8924  -16.5040   22.3573 O   0  0  0  0  0  0  0  0  0  0  0  0
    6.7315  -21.0244   25.7181 C   0  0  0  0  0  0  0  0  0  0  0  0
    6.5245  -19.7910   24.8945 C   0  0  0  0  0  0  0  0  0  0  0  0
    7.5313  -18.7471   25.2792 C   0  0  2  0  0  0  0  0  0  0  0  0
    7.4120  -18.3458   26.7272 C   0  0  0  0  0  0  0  0  0  0  0  0
    7.4152  -17.5080   24.4209 C   0  0  2  0  0  0  0  0  0  0  0  0
    7.7280  -17.7352   23.0524 N   0  0  0  0  0  0  0  0  0  0  0  0
    8.3700  -16.4654   24.9397 C   0  0  0  0  0  0  0  0  0  0  0  0
    9.5849  -16.4534   24.6016 O   0  0  0  0  0  0  0  0  0  0  0  0
    7.5323  -12.0195   24.6891 C   0  0  0  0  0  0  0  0  0  0  0  0
    6.9482  -12.7506   25.8342 C   0  0  2  0  0  0  0  0  0  0  0  0
    5.9934  -11.8227   26.6254 C   0  0  0  0  0  0  0  0  0  0  0  0
    7.8352  -13.3681   26.8218 C   0  0  0  0  0  0  0  0  0  0  0  0
    8.7652  -14.4621   26.4535 C   0  0  2  0  0  0  0  0  0  0  0  0
    7.8750  -15.4842   25.8264 N   0  0  0  0  0  0  0  0  0  0  0  0
    9.4131  -15.1569   27.5644 C   0  0  0  0  0  0  0  0  0  0  0  0
   10.4486  -14.6459   28.1274 O   0  0  0  0  0  0  0  0  0  0  0  0
    9.0166  -16.3689   28.1187 O   0  0  0  0  0  0  0  0  0  0  0  0
  1  2  1  0
  2  3  1  0
  3  4  1  6
  3  5  1  0
  5  6  2  0
  7  8  1  0
  8  9  1  0
  9 11  1  0
  9 10  1  1
 11 13  1  0
 12  5  1  0
 11 12  1  6
 13 14  2  0
 16 17  1  1
 16 15  1  0
 18 16  1  0
 19 18  1  1
 19 21  1  0
 20 13  1  0
 20 19  1  0
 21 22  2  0
 21 23  1  0
M  END
$$$$
