SIL.pdb
     RDKit          3D

 23 22  0  0  1  0  0  0  0  0999 V2000
    9.3993  -18.1849   21.1193 O   0  0  0  0  0  0  0  0  0  0  0  0
    8.2052  -17.5234   20.8671 C   0  0  0  0  0  0  0  0  0  0  0  0
    8.4387  -16.0156   20.7694 C   0  0  2  0  0  0  0  0  0  0  0  0
    9.4088  -15.7560   19.7466 N   0  0  0  0  0  0  0  0  0  0  0  0
    8.9182  -15.5027   22.0536 C   0  0  0  0  0  0  0  0  0  0  0  0
   10.1322  -15.1987   22.1943 O   0  0  0  0  0  0  0  0  0  0  0  0
    5.6370  -12.4917   25.4051 C   0  0  0  0  0  0  0  0  0  0  0  0
    6.8423  -12.9292   24.6316 C   0  0  0  0  0  0  0  0  0  0  0  0
    7.3907  -14.1969   25.2176 C   0  0  2  0  0  0  0  0  0  0  0  0
    7.9174  -13.9978   26.6158 C   0  0  0  0  0  0  0  0  0  0  0  0
    8.4914  -14.7834   24.3632 C   0  0  2  0  0  0  0  0  0  0  0  0
    8.0235  -15.3452   23.1434 N   0  0  0  0  0  0  0  0  0  0  0  0
    9.1763  -15.8791   25.1365 C   0  0  0  0  0  0  0  0  0  0  0  0
    8.9394  -17.0969   24.9102 O   0  0  0  0  0  0  0  0  0  0  0  0
   10.5050  -13.6010   28.8831 C   0  0  0  0  0  0  0  0  0  0  0  0
   10.6264  -15.0729   28.9571 C   0  0  2  0  0  0  0  0  0  0  0  0
   11.1029  -15.4962   30.3687 C   0  0  0  0  0  0  0  0  0  0  0  0
   11.4894  -15.7727   28.0036 C   0  0  0  0  0  0  0  0  0  0  0  0
   10.9283  -16.5296   26.8593 C   0  0  2  0  0  0  0  0  0  0  0  0
   10.1043  -15.5152   26.1367 N   0  0  0  0  0  0  0  0  0  0  0  0
    9.9955  -17.6041   27.1942 C   0  0  0  0  0  0  0  0  0  0  0  0
   10.4397  -18.7676   27.5094 O   0  0  0  0  0  0  0  0  0  0  0  0
    8.6085  -17.5098   27.2194 O   0  0  0  0  0  0  0  0  0  0  0  0
  1  2  1  0
  2  3  1  0
  3  4  1  6
  3  5  1  0
  5  6  2  0
  7  8  1  0
  8  9  1  0
  9 11  1  0
  9 10  1  1
 11 13  1  0
 12  5  1  0
 11 12  1  6
 13 14  2  0
 16 17  1  1
 16 15  1  0
 18 16  1  0
 19 18  1  1
 19 21  1  0
 20 13  1  0
 20 19  1  0
 21 22  2  0
 21 23  1  0
M  END
$$$$
