SIL.pdb
     RDKit          3D

 23 22  0  0  1  0  0  0  0  0999 V2000
    5.8552  -19.0369   23.6431 O   0  0  0  0  0  0  0  0  0  0  0  0
    5.0015  -18.2684   22.8636 C   0  0  0  0  0  0  0  0  0  0  0  0
    5.6105  -18.0257   21.4825 C   0  0  2  0  0  0  0  0  0  0  0  0
    5.9876  -19.2836   20.9079 N   0  0  0  0  0  0  0  0  0  0  0  0
    6.7846  -17.1599   21.6021 C   0  0  0  0  0  0  0  0  0  0  0  0
    7.9395  -17.6498   21.4926 O   0  0  0  0  0  0  0  0  0  0  0  0
    7.3807  -12.7491   18.8592 C   0  0  0  0  0  0  0  0  0  0  0  0
    7.5445  -14.0143   19.6434 C   0  0  0  0  0  0  0  0  0  0  0  0
    7.7068  -13.6929   21.1000 C   0  0  2  0  0  0  0  0  0  0  0  0
    8.9299  -12.8530   21.3659 C   0  0  0  0  0  0  0  0  0  0  0  0
    7.7819  -14.9420   21.9483 C   0  0  2  0  0  0  0  0  0  0  0  0
    6.6306  -15.7699   21.8411 N   0  0  0  0  0  0  0  0  0  0  0  0
    7.9221  -14.5413   23.3931 C   0  0  0  0  0  0  0  0  0  0  0  0
    7.3081  -13.5470   23.8671 O   0  0  0  0  0  0  0  0  0  0  0  0
    7.9190  -12.1750   26.7094 C   0  0  0  0  0  0  0  0  0  0  0  0
    7.1203  -13.2165   26.0282 C   0  0  2  0  0  0  0  0  0  0  0  0
    5.6592  -13.1853   26.5409 C   0  0  0  0  0  0  0  0  0  0  0  0
    7.5515  -14.6140   26.0967 C   0  0  0  0  0  0  0  0  0  0  0  0
    8.9135  -15.0273   25.6827 C   0  0  2  0  0  0  0  0  0  0  0  0
    8.7669  -15.3100   24.2236 N   0  0  0  0  0  0  0  0  0  0  0  0
    9.4105  -16.2748   26.2604 C   0  0  0  0  0  0  0  0  0  0  0  0
    9.0666  -17.4026   25.7504 O   0  0  0  0  0  0  0  0  0  0  0  0
   10.2629  -16.3920   27.3527 O   0  0  0  0  0  0  0  0  0  0  0  0
  1  2  1  0
  2  3  1  0
  3  4  1  1
  3  5  1  0
  5  6  2  0
  7  8  1  0
  8  9  1  0
  9 11  1  0
  9 10  1  6
 11 13  1  0
 12  5  1  0
 11 12  1  1
 13 14  2  0
 16 17  1  1
 16 15  1  0
 18 16  1  0
 19 18  1  1
 19 21  1  0
 20 13  1  0
 20 19  1  0
 21 22  2  0
 21 23  1  0
M  END
$$$$
