SIL.pdb
     RDKit          3D

 23 22  0  0  1  0  0  0  0  0999 V2000
    8.7457  -19.4507   23.8164 O   0  0  0  0  0  0  0  0  0  0  0  0
    7.4037  -19.1841   24.0505 C   0  0  0  0  0  0  0  0  0  0  0  0
    6.8854  -18.1384   23.0629 C   0  0  2  0  0  0  0  0  0  0  0  0
    7.1435  -18.5865   21.7260 N   0  0  0  0  0  0  0  0  0  0  0  0
    7.5545  -16.8581   23.2979 C   0  0  0  0  0  0  0  0  0  0  0  0
    8.6225  -16.5868   22.6882 O   0  0  0  0  0  0  0  0  0  0  0  0
    6.6725  -11.4425   26.1825 C   0  0  0  0  0  0  0  0  0  0  0  0
    7.5026  -12.3548   25.3334 C   0  0  0  0  0  0  0  0  0  0  0  0
    6.8732  -13.7159   25.2827 C   0  0  2  0  0  0  0  0  0  0  0  0
    6.7361  -14.3323   26.6514 C   0  0  0  0  0  0  0  0  0  0  0  0
    7.6508  -14.6644   24.3988 C   0  0  2  0  0  0  0  0  0  0  0  0
    7.0076  -15.9185   24.2095 N   0  0  0  0  0  0  0  0  0  0  0  0
    8.9913  -14.9306   25.0312 C   0  0  0  0  0  0  0  0  0  0  0  0
   10.0008  -14.2229   24.7660 O   0  0  0  0  0  0  0  0  0  0  0  0
   10.0970  -14.5177   30.2683 C   0  0  0  0  0  0  0  0  0  0  0  0
   10.5762  -14.8360   28.9060 C   0  0  2  0  0  0  0  0  0  0  0  0
   10.5515  -13.5634   28.0236 C   0  0  0  0  0  0  0  0  0  0  0  0
    9.9074  -15.8855   28.1347 C   0  0  0  0  0  0  0  0  0  0  0  0
   10.3336  -16.2274   26.7567 C   0  0  2  0  0  0  0  0  0  0  0  0
    9.1020  -16.0040   25.9420 N   0  0  0  0  0  0  0  0  0  0  0  0
   10.6923  -17.6250   26.5226 C   0  0  0  0  0  0  0  0  0  0  0  0
    9.7748  -18.4980   26.3073 O   0  0  0  0  0  0  0  0  0  0  0  0
   11.9798  -18.1497   26.4979 O   0  0  0  0  0  0  0  0  0  0  0  0
  1  2  1  0
  2  3  1  0
  3  4  1  6
  3  5  1  0
  5  6  2  0
  7  8  1  0
  8  9  1  0
  9 11  1  0
  9 10  1  1
 11 13  1  0
 12  5  1  0
 11 12  1  1
 13 14  2  0
 16 17  1  6
 16 15  1  0
 18 16  1  0
 19 18  1  1
 19 21  1  0
 20 13  1  0
 20 19  1  0
 21 22  2  0
 21 23  1  0
M  END
$$$$
