SIL.pdb
     RDKit          3D

 23 22  0  0  1  0  0  0  0  0999 V2000
    7.7727  -18.1526   20.0501 O   0  0  0  0  0  0  0  0  0  0  0  0
    8.2950  -17.5433   21.1827 C   0  0  0  0  0  0  0  0  0  0  0  0
    8.2996  -16.0232   21.0189 C   0  0  2  0  0  0  0  0  0  0  0  0
    9.1631  -15.6708   19.9305 N   0  0  0  0  0  0  0  0  0  0  0  0
    8.7693  -15.3918   22.2530 C   0  0  0  0  0  0  0  0  0  0  0  0
    9.9763  -15.0501   22.3632 O   0  0  0  0  0  0  0  0  0  0  0  0
    5.6336  -12.2361   25.6018 C   0  0  0  0  0  0  0  0  0  0  0  0
    6.7795  -12.7632   24.7947 C   0  0  0  0  0  0  0  0  0  0  0  0
    7.3122  -14.0164   25.4249 C   0  0  2  0  0  0  0  0  0  0  0  0
    7.8867  -13.7657   26.7957 C   0  0  0  0  0  0  0  0  0  0  0  0
    8.3702  -14.6732   24.5677 C   0  0  2  0  0  0  0  0  0  0  0  0
    7.8727  -15.1614   23.3282 N   0  0  0  0  0  0  0  0  0  0  0  0
    8.9484  -15.8430   25.3194 C   0  0  0  0  0  0  0  0  0  0  0  0
    8.5481  -17.0219   25.1190 O   0  0  0  0  0  0  0  0  0  0  0  0
   10.1255  -13.8734   28.7231 C   0  0  0  0  0  0  0  0  0  0  0  0
   10.6018  -15.2249   29.0880 C   0  0  2  0  0  0  0  0  0  0  0  0
   11.4899  -15.1510   30.3547 C   0  0  0  0  0  0  0  0  0  0  0  0
   11.3483  -16.0143   28.1066 C   0  0  0  0  0  0  0  0  0  0  0  0
   10.6675  -16.7013   26.9833 C   0  0  2  0  0  0  0  0  0  0  0  0
    9.9636  -15.5947   26.2689 N   0  0  0  0  0  0  0  0  0  0  0  0
    9.6126  -17.6443   27.3505 C   0  0  0  0  0  0  0  0  0  0  0  0
    8.3824  -17.2753   27.3271 O   0  0  0  0  0  0  0  0  0  0  0  0
    9.7919  -18.9676   27.7378 O   0  0  0  0  0  0  0  0  0  0  0  0
  1  2  1  0
  2  3  1  0
  3  4  1  6
  3  5  1  0
  5  6  2  0
  7  8  1  0
  8  9  1  0
  9 11  1  0
  9 10  1  1
 11 13  1  0
 12  5  1  0
 11 12  1  6
 13 14  2  0
 16 17  1  1
 16 15  1  0
 18 16  1  0
 19 18  1  1
 19 21  1  0
 20 13  1  0
 20 19  1  0
 21 22  2  0
 21 23  1  0
M  END
$$$$
