SIL.pdb
     RDKit          3D

 23 22  0  0  1  0  0  0  0  0999 V2000
   12.0875  -19.2226   21.9059 O   0  0  0  0  0  0  0  0  0  0  0  0
   11.4171  -18.7672   20.7790 C   0  0  0  0  0  0  0  0  0  0  0  0
   11.8950  -17.3647   20.4020 C   0  0  2  0  0  0  0  0  0  0  0  0
   13.3231  -17.3101   20.5111 N   0  0  0  0  0  0  0  0  0  0  0  0
   11.2882  -16.3762   21.2947 C   0  0  0  0  0  0  0  0  0  0  0  0
   12.0204  -15.6521   22.0196 O   0  0  0  0  0  0  0  0  0  0  0  0
    6.8688  -13.4983   19.9002 C   0  0  0  0  0  0  0  0  0  0  0  0
    8.1979  -13.9299   20.4383 C   0  0  0  0  0  0  0  0  0  0  0  0
    8.0070  -14.6843   21.7212 C   0  0  2  0  0  0  0  0  0  0  0  0
    7.4059  -13.8253   22.8041 C   0  0  0  0  0  0  0  0  0  0  0  0
    9.3048  -15.2694   22.2300 C   0  0  2  0  0  0  0  0  0  0  0  0
    9.8783  -16.2275   21.3494 N   0  0  0  0  0  0  0  0  0  0  0  0
    9.0465  -15.9562   23.5450 C   0  0  0  0  0  0  0  0  0  0  0  0
    8.7893  -17.1892   23.6088 O   0  0  0  0  0  0  0  0  0  0  0  0
   10.5298  -15.5186   28.9600 C   0  0  0  0  0  0  0  0  0  0  0  0
   10.2867  -14.4914   27.9243 C   0  0  2  0  0  0  0  0  0  0  0  0
   10.1161  -13.1011   28.5851 C   0  0  0  0  0  0  0  0  0  0  0  0
    9.1603  -14.6509   27.0028 C   0  0  0  0  0  0  0  0  0  0  0  0
    9.0682  -15.8093   26.0825 C   0  0  2  0  0  0  0  0  0  0  0  0
    9.0977  -15.1844   24.7265 N   0  0  0  0  0  0  0  0  0  0  0  0
    7.8173  -16.5647   26.1226 C   0  0  0  0  0  0  0  0  0  0  0  0
    6.7789  -16.1239   25.5081 O   0  0  0  0  0  0  0  0  0  0  0  0
    7.6079  -17.7731   26.7778 O   0  0  0  0  0  0  0  0  0  0  0  0
  1  2  1  0
  2  3  1  0
  3  4  1  1
  3  5  1  0
  5  6  2  0
  7  8  1  0
  8  9  1  0
  9 11  1  0
  9 10  1  1
 11 13  1  0
 12  5  1  0
 11 12  1  6
 13 14  2  0
 16 17  1  1
 16 15  1  0
 18 16  1  0
 19 18  1  1
 19 21  1  0
 20 13  1  0
 20 19  1  0
 21 22  2  0
 21 23  1  0
M  END
$$$$
