SIL.pdb
     RDKit          3D

 23 22  0  0  1  0  0  0  0  0999 V2000
    8.9084  -19.1731   20.3013 O   0  0  0  0  0  0  0  0  0  0  0  0
    9.0533  -18.3375   21.4002 C   0  0  0  0  0  0  0  0  0  0  0  0
    8.9806  -16.8717   20.9716 C   0  0  2  0  0  0  0  0  0  0  0  0
    9.9157  -16.6463   19.9089 N   0  0  0  0  0  0  0  0  0  0  0  0
    9.2981  -16.0053   22.1077 C   0  0  0  0  0  0  0  0  0  0  0  0
   10.4498  -15.5073   22.2147 O   0  0  0  0  0  0  0  0  0  0  0  0
    6.6470  -12.1150   25.9532 C   0  0  0  0  0  0  0  0  0  0  0  0
    7.8345  -12.9592   25.6073 C   0  0  0  0  0  0  0  0  0  0  0  0
    7.4350  -14.0223   24.6267 C   0  0  2  0  0  0  0  0  0  0  0  0
    6.4026  -14.9627   25.1939 C   0  0  0  0  0  0  0  0  0  0  0  0
    8.6226  -14.8313   24.1569 C   0  0  2  0  0  0  0  0  0  0  0  0
    8.3158  -15.7218   23.0914 N   0  0  0  0  0  0  0  0  0  0  0  0
    9.1351  -15.6567   25.3074 C   0  0  0  0  0  0  0  0  0  0  0  0
    8.6174  -16.7665   25.6085 O   0  0  0  0  0  0  0  0  0  0  0  0
   10.1177  -13.2204   28.3510 C   0  0  0  0  0  0  0  0  0  0  0  0
    9.5477  -14.5721   28.5374 C   0  0  2  0  0  0  0  0  0  0  0  0
    8.9729  -14.7132   29.9687 C   0  0  0  0  0  0  0  0  0  0  0  0
   10.3929  -15.7467   28.3149 C   0  0  0  0  0  0  0  0  0  0  0  0
   11.0020  -16.0255   26.9925 C   0  0  2  0  0  0  0  0  0  0  0  0
   10.2236  -15.1597   26.0572 N   0  0  0  0  0  0  0  0  0  0  0  0
   10.8315  -17.3836   26.4794 C   0  0  0  0  0  0  0  0  0  0  0  0
   11.5830  -18.3331   26.9084 O   0  0  0  0  0  0  0  0  0  0  0  0
    9.8974  -17.7937   25.5345 O   0  0  0  0  0  0  0  0  0  0  0  0
  1  2  1  0
  2  3  1  0
  3  4  1  6
  3  5  1  0
  5  6  2  0
  7  8  1  0
  8  9  1  0
  9 11  1  0
  9 10  1  1
 11 13  1  0
 12  5  1  0
 11 12  1  6
 13 14  2  0
 16 17  1  1
 16 15  1  0
 18 16  1  0
 19 18  1  1
 19 21  1  0
 20 13  1  0
 20 19  1  0
 21 22  2  0
 21 23  1  0
M  END
$$$$
