SIL.pdb
     RDKit          3D

 23 22  0  0  1  0  0  0  0  0999 V2000
   12.0765  -19.0572   22.0499 O   0  0  0  0  0  0  0  0  0  0  0  0
   11.6154  -18.5794   20.8309 C   0  0  0  0  0  0  0  0  0  0  0  0
   11.9884  -17.1069   20.6572 C   0  0  2  0  0  0  0  0  0  0  0  0
   13.4076  -16.9624   20.7969 N   0  0  0  0  0  0  0  0  0  0  0  0
   11.3028  -16.2982   21.6663 C   0  0  0  0  0  0  0  0  0  0  0  0
   11.9571  -15.7923   22.6159 O   0  0  0  0  0  0  0  0  0  0  0  0
    6.7943  -13.4304   20.1808 C   0  0  0  0  0  0  0  0  0  0  0  0
    8.1332  -13.8489   20.7050 C   0  0  0  0  0  0  0  0  0  0  0  0
    7.9612  -14.6318   21.9733 C   0  0  2  0  0  0  0  0  0  0  0  0
    7.3192  -13.8149   23.0654 C   0  0  0  0  0  0  0  0  0  0  0  0
    9.2764  -15.1757   22.4833 C   0  0  2  0  0  0  0  0  0  0  0  0
    9.9034  -16.0797   21.5822 N   0  0  0  0  0  0  0  0  0  0  0  0
    9.0306  -15.9143   23.7724 C   0  0  0  0  0  0  0  0  0  0  0  0
    8.8034  -17.1545   23.7920 O   0  0  0  0  0  0  0  0  0  0  0  0
   11.1280  -14.2123   28.0980 C   0  0  0  0  0  0  0  0  0  0  0  0
    9.8881  -13.7599   27.4313 C   0  0  2  0  0  0  0  0  0  0  0  0
    9.3013  -12.5351   28.1759 C   0  0  0  0  0  0  0  0  0  0  0  0
    8.7821  -14.7023   27.2523 C   0  0  0  0  0  0  0  0  0  0  0  0
    8.8777  -15.8414   26.3086 C   0  0  2  0  0  0  0  0  0  0  0  0
    9.0589  -15.1833   24.9803 N   0  0  0  0  0  0  0  0  0  0  0  0
    7.6747  -16.6591   26.1634 C   0  0  0  0  0  0  0  0  0  0  0  0
    7.4703  -17.6500   26.9549 O   0  0  0  0  0  0  0  0  0  0  0  0
    6.6671  -16.4784   25.2224 O   0  0  0  0  0  0  0  0  0  0  0  0
  1  2  1  0
  2  3  1  0
  3  4  1  1
  3  5  1  0
  5  6  2  0
  7  8  1  0
  8  9  1  0
  9 11  1  0
  9 10  1  1
 11 13  1  0
 12  5  1  0
 11 12  1  6
 13 14  2  0
 16 17  1  1
 16 15  1  0
 18 16  1  0
 19 18  1  1
 19 21  1  0
 20 13  1  0
 20 19  1  0
 21 22  2  0
 21 23  1  0
M  END
$$$$
