SIL.pdb
     RDKit          3D

 23 22  0  0  1  0  0  0  0  0999 V2000
   11.5553  -19.1551   21.5638 O   0  0  0  0  0  0  0  0  0  0  0  0
   10.5993  -19.1037   20.5586 C   0  0  0  0  0  0  0  0  0  0  0  0
   10.7603  -17.8279   19.7315 C   0  0  2  0  0  0  0  0  0  0  0  0
   12.1255  -17.7102   19.3108 N   0  0  0  0  0  0  0  0  0  0  0  0
   10.3836  -16.6639   20.5348 C   0  0  0  0  0  0  0  0  0  0  0  0
   11.2764  -15.9543   21.0689 O   0  0  0  0  0  0  0  0  0  0  0  0
    8.1358  -12.6635   19.9358 C   0  0  0  0  0  0  0  0  0  0  0  0
    7.3120  -13.1260   21.0976 C   0  0  0  0  0  0  0  0  0  0  0  0
    7.3048  -14.6254   21.1518 C   0  0  2  0  0  0  0  0  0  0  0  0
    6.3068  -15.1554   22.1493 C   0  0  0  0  0  0  0  0  0  0  0  0
    8.6691  -15.1844   21.4862 C   0  0  2  0  0  0  0  0  0  0  0  0
    9.0171  -16.3283   20.7164 N   0  0  0  0  0  0  0  0  0  0  0  0
    8.6873  -15.5884   22.9368 C   0  0  0  0  0  0  0  0  0  0  0  0
    8.8375  -16.7904   23.2875 O   0  0  0  0  0  0  0  0  0  0  0  0
    6.1970  -12.6774   25.9325 C   0  0  0  0  0  0  0  0  0  0  0  0
    7.3713  -13.1367   26.7049 C   0  0  2  0  0  0  0  0  0  0  0  0
    7.7825  -12.0584   27.7377 C   0  0  0  0  0  0  0  0  0  0  0  0
    8.5949  -13.5168   25.9964 C   0  0  0  0  0  0  0  0  0  0  0  0
    8.7459  -14.8511   25.3686 C   0  0  2  0  0  0  0  0  0  0  0  0
    8.5307  -14.5825   23.9154 N   0  0  0  0  0  0  0  0  0  0  0  0
    7.7351  -15.8463   25.7220 C   0  0  0  0  0  0  0  0  0  0  0  0
    6.6355  -15.9100   25.0608 O   0  0  0  0  0  0  0  0  0  0  0  0
    7.8300  -16.7877   26.7409 O   0  0  0  0  0  0  0  0  0  0  0  0
  1  2  1  0
  2  3  1  0
  3  4  1  1
  3  5  1  0
  5  6  2  0
  7  8  1  0
  8  9  1  0
  9 11  1  0
  9 10  1  1
 11 13  1  0
 12  5  1  0
 11 12  1  6
 13 14  2  0
 16 17  1  1
 16 15  1  0
 18 16  1  0
 19 18  1  1
 19 21  1  0
 20 13  1  0
 20 19  1  0
 21 22  2  0
 21 23  1  0
M  END
$$$$
