SIL.pdb
     RDKit          3D

 23 22  0  0  1  0  0  0  0  0999 V2000
    6.5324  -18.6339   24.4828 O   0  0  0  0  0  0  0  0  0  0  0  0
    5.3694  -18.2046   23.8582 C   0  0  0  0  0  0  0  0  0  0  0  0
    5.5630  -18.1540   22.3425 C   0  0  2  0  0  0  0  0  0  0  0  0
    5.5177  -19.4874   21.8186 N   0  0  0  0  0  0  0  0  0  0  0  0
    6.8522  -17.5373   22.0264 C   0  0  0  0  0  0  0  0  0  0  0  0
    7.8301  -18.2598   21.6985 O   0  0  0  0  0  0  0  0  0  0  0  0
    7.4312  -12.0051   20.6927 C   0  0  0  0  0  0  0  0  0  0  0  0
    7.5872  -13.1549   21.6393 C   0  0  0  0  0  0  0  0  0  0  0  0
    8.1973  -14.3241   20.9237 C   0  0  2  0  0  0  0  0  0  0  0  0
    7.4429  -14.6817   19.6687 C   0  0  0  0  0  0  0  0  0  0  0  0
    8.2763  -15.5479   21.8079 C   0  0  2  0  0  0  0  0  0  0  0  0
    7.0085  -16.1284   22.0868 N   0  0  0  0  0  0  0  0  0  0  0  0
    8.8987  -15.1588   23.1228 C   0  0  0  0  0  0  0  0  0  0  0  0
   10.0994  -14.7815   23.2012 O   0  0  0  0  0  0  0  0  0  0  0  0
    7.9406  -11.8041   26.1771 C   0  0  0  0  0  0  0  0  0  0  0  0
    7.0361  -12.9624   26.0130 C   0  0  2  0  0  0  0  0  0  0  0  0
    5.7374  -12.7417   26.8275 C   0  0  0  0  0  0  0  0  0  0  0  0
    7.5144  -14.3033   26.3551 C   0  0  0  0  0  0  0  0  0  0  0  0
    8.6552  -14.9259   25.6422 C   0  0  2  0  0  0  0  0  0  0  0  0
    8.1026  -15.2244   24.2873 N   0  0  0  0  0  0  0  0  0  0  0  0
    9.1084  -16.2166   26.1574 C   0  0  0  0  0  0  0  0  0  0  0  0
    9.7471  -16.2774   27.2704 O   0  0  0  0  0  0  0  0  0  0  0  0
    8.9146  -17.4552   25.5560 O   0  0  0  0  0  0  0  0  0  0  0  0
  1  2  1  0
  2  3  1  0
  3  4  1  1
  3  5  1  0
  5  6  2  0
  7  8  1  0
  8  9  1  0
  9 11  1  0
  9 10  1  6
 11 13  1  0
 12  5  1  0
 11 12  1  1
 13 14  2  0
 16 17  1  1
 16 15  1  0
 18 16  1  0
 19 18  1  1
 19 21  1  0
 20 13  1  0
 20 19  1  0
 21 22  2  0
 21 23  1  0
M  END
$$$$
