SIL.pdb
     RDKit          3D

 23 22  0  0  1  0  0  0  0  0999 V2000
    6.9361  -17.4721   21.7939 O   0  0  0  0  0  0  0  0  0  0  0  0
    5.9904  -16.4792   21.5781 C   0  0  0  0  0  0  0  0  0  0  0  0
    6.6613  -15.1072   21.5073 C   0  0  2  0  0  0  0  0  0  0  0  0
    7.3817  -14.9999   20.2728 N   0  0  0  0  0  0  0  0  0  0  0  0
    7.5785  -14.9435   22.6361 C   0  0  0  0  0  0  0  0  0  0  0  0
    8.8218  -15.0167   22.4503 O   0  0  0  0  0  0  0  0  0  0  0  0
    6.1322  -11.3889   26.4399 C   0  0  0  0  0  0  0  0  0  0  0  0
    6.8447  -12.2032   25.4048 C   0  0  0  0  0  0  0  0  0  0  0  0
    7.3928  -13.4528   26.0287 C   0  0  2  0  0  0  0  0  0  0  0  0
    8.4465  -13.1580   27.0655 C   0  0  0  0  0  0  0  0  0  0  0  0
    7.9767  -14.3898   24.9958 C   0  0  2  0  0  0  0  0  0  0  0  0
    7.0759  -14.7026   23.9409 N   0  0  0  0  0  0  0  0  0  0  0  0
    8.3556  -15.6820   25.6699 C   0  0  0  0  0  0  0  0  0  0  0  0
    7.4861  -16.4538   26.1583 O   0  0  0  0  0  0  0  0  0  0  0  0
   10.7111  -18.7575   23.4992 C   0  0  0  0  0  0  0  0  0  0  0  0
   11.5243  -17.7171   24.1646 C   0  0  2  0  0  0  0  0  0  0  0  0
   13.0195  -17.9010   23.8049 C   0  0  0  0  0  0  0  0  0  0  0  0
   11.4647  -17.5788   25.6209 C   0  0  0  0  0  0  0  0  0  0  0  0
   10.1859  -17.3198   26.3244 C   0  0  2  0  0  0  0  0  0  0  0  0
    9.7239  -16.0219   25.7479 N   0  0  0  0  0  0  0  0  0  0  0  0
   10.2803  -17.0810   27.7634 C   0  0  0  0  0  0  0  0  0  0  0  0
   10.3404  -15.8796   28.2142 O   0  0  0  0  0  0  0  0  0  0  0  0
   10.3085  -18.0529   28.7575 O   0  0  0  0  0  0  0  0  0  0  0  0
  1  2  1  0
  2  3  1  0
  3  4  1  6
  3  5  1  0
  5  6  2  0
  7  8  1  0
  8  9  1  0
  9 11  1  0
  9 10  1  1
 11 13  1  0
 12  5  1  0
 11 12  1  6
 13 14  2  0
 16 17  1  1
 16 15  1  0
 18 16  1  0
 19 18  1  6
 19 21  1  0
 20 13  1  0
 20 19  1  0
 21 22  2  0
 21 23  1  0
M  END
$$$$
