SIL.pdb
     RDKit          3D

 23 22  0  0  1  0  0  0  0  0999 V2000
    6.1514  -18.7948   24.2806 O   0  0  0  0  0  0  0  0  0  0  0  0
    5.2256  -18.0376   23.5761 C   0  0  0  0  0  0  0  0  0  0  0  0
    5.5814  -18.0041   22.0896 C   0  0  2  0  0  0  0  0  0  0  0  0
    5.7169  -19.3476   21.6088 N   0  0  0  0  0  0  0  0  0  0  0  0
    6.8359  -17.2757   21.8951 C   0  0  0  0  0  0  0  0  0  0  0  0
    7.8984  -17.9081   21.6565 O   0  0  0  0  0  0  0  0  0  0  0  0
    7.1592  -12.3993   19.3908 C   0  0  0  0  0  0  0  0  0  0  0  0
    7.4281  -13.7977   19.8541 C   0  0  0  0  0  0  0  0  0  0  0  0
    7.9483  -13.7766   21.2613 C   0  0  2  0  0  0  0  0  0  0  0  0
    9.2723  -13.0643   21.3694 C   0  0  0  0  0  0  0  0  0  0  0  0
    8.0991  -15.1700   21.8280 C   0  0  2  0  0  0  0  0  0  0  0  0
    6.8638  -15.8593   21.9737 N   0  0  0  0  0  0  0  0  0  0  0  0
    8.7315  -15.0751   23.1914 C   0  0  0  0  0  0  0  0  0  0  0  0
    9.9767  -14.9369   23.3355 O   0  0  0  0  0  0  0  0  0  0  0  0
    5.7064  -12.4482   26.8586 C   0  0  0  0  0  0  0  0  0  0  0  0
    7.0648  -13.0297   26.8005 C   0  0  2  0  0  0  0  0  0  0  0  0
    7.9412  -12.2329   25.8026 C   0  0  0  0  0  0  0  0  0  0  0  0
    7.2285  -14.4431   26.4557 C   0  0  0  0  0  0  0  0  0  0  0  0
    8.4138  -14.9277   25.7089 C   0  0  2  0  0  0  0  0  0  0  0  0
    7.8937  -15.1446   24.3259 N   0  0  0  0  0  0  0  0  0  0  0  0
    8.9462  -16.2257   26.1196 C   0  0  0  0  0  0  0  0  0  0  0  0
    9.7071  -16.3125   27.1510 O   0  0  0  0  0  0  0  0  0  0  0  0
    8.7091  -17.4456   25.4957 O   0  0  0  0  0  0  0  0  0  0  0  0
  1  2  1  0
  2  3  1  0
  3  4  1  1
  3  5  1  0
  5  6  2  0
  7  8  1  0
  8  9  1  0
  9 11  1  0
  9 10  1  6
 11 13  1  0
 12  5  1  0
 11 12  1  1
 13 14  2  0
 16 17  1  6
 16 15  1  0
 18 16  1  0
 19 18  1  1
 19 21  1  0
 20 13  1  0
 20 19  1  0
 21 22  2  0
 21 23  1  0
M  END
$$$$
