HAK.pdb
     RDKit          3D

 25 25  0  0  1  0  0  0  0  0999 V2000
   22.5573  -13.5541  -18.3850 N   0  0  0  0  0  0  0  0  0  0  0  0
   22.9990  -12.1829  -18.5141 C   0  0  1  0  0  0  0  0  0  0  0  0
   22.1009  -11.5200  -19.5367 C   0  0  0  0  0  0  0  0  0  0  0  0
   22.3833  -12.1821  -20.8439 C   0  0  0  0  0  0  0  0  0  0  0  0
   21.5345  -13.0602  -21.4666 C   0  0  0  0  0  0  0  0  0  0  0  0
   22.1439  -13.4429  -22.6275 N   0  0  0  0  0  0  0  0  0  0  0  0
   23.3262  -12.8312  -22.7305 C   0  0  0  0  0  0  0  0  0  0  0  0
   23.4622  -12.0656  -21.6390 N   0  0  0  0  0  0  0  0  0  0  0  0
   22.9698  -11.4784  -17.2041 C   0  0  0  0  0  0  0  0  0  0  0  0
   21.9289  -11.3382  -16.5357 O   0  0  0  0  0  0  0  0  0  0  0  0
   25.6476  -10.1741  -14.9904 C   0  0  0  0  0  0  0  0  0  0  0  0
   24.1999  -10.1834  -15.4837 C   0  0  2  0  0  0  0  0  0  0  0  0
   24.1993  -10.9499  -16.7141 N   0  0  0  0  0  0  0  0  0  0  0  0
   23.7595   -8.7986  -15.8301 C   0  0  0  0  0  0  0  0  0  0  0  0
   24.1479   -8.3202  -16.9204 O   0  0  0  0  0  0  0  0  0  0  0  0
   22.9393   -8.0312  -14.9874 N   0  0  0  0  0  0  0  0  0  0  0  0
   22.5259   -6.6987  -15.4009 C   0  0  1  0  0  0  0  0  0  0  0  0
   21.1615   -6.8421  -15.9966 C   0  0  0  0  0  0  0  0  0  0  0  0
   20.5043   -5.5758  -16.3940 C   0  0  0  0  0  0  0  0  0  0  0  0
   19.1483   -5.7465  -16.9599 C   0  0  0  0  0  0  0  0  0  0  0  0
   18.1651   -4.8796  -16.1620 C   0  0  0  0  0  0  0  0  0  0  0  0
   16.8382   -4.9981  -16.6962 N   0  0  0  0  0  0  0  0  0  0  0  0
   22.7470   -5.6923  -14.3815 C   0  0  0  0  0  0  0  0  0  0  0  0
   22.6765   -5.9800  -13.1614 O   0  0  0  0  0  0  0  0  0  0  0  0
   23.0458   -4.3529  -14.6520 O   0  0  0  0  0  0  0  0  0  0  0  0
  2  9  1  0
  2  1  1  1
  3  2  1  0
  4  3  1  0
  5  4  2  0
  6  7  1  0
  6  5  1  0
  7  8  2  0
  8  4  1  0
  9 10  2  0
 12 11  1  6
 13 12  1  0
 13  9  1  0
 14 15  2  0
 14 12  1  0
 16 14  1  0
 17 16  1  0
 18 19  1  0
 17 18  1  1
 19 20  1  0
 20 21  1  0
 21 22  1  0
 23 17  1  0
 23 25  1  0
 24 23  2  0
M  END
$$$$
