HAK.pdb
     RDKit          3D

 25 25  0  0  1  0  0  0  0  0999 V2000
   25.9978  -22.3721  -12.3328 N   0  0  0  0  0  0  0  0  0  0  0  0
   25.3249  -21.0964  -12.2247 C   0  0  1  0  0  0  0  0  0  0  0  0
   25.9227  -20.3770  -11.0344 C   0  0  0  0  0  0  0  0  0  0  0  0
   25.1851  -20.8605   -9.8305 C   0  0  0  0  0  0  0  0  0  0  0  0
   24.1746  -21.7864   -9.8615 C   0  0  0  0  0  0  0  0  0  0  0  0
   23.7600  -21.9621   -8.5721 N   0  0  0  0  0  0  0  0  0  0  0  0
   24.4795  -21.1794   -7.7642 C   0  0  0  0  0  0  0  0  0  0  0  0
   25.3446  -20.5127   -8.5408 N   0  0  0  0  0  0  0  0  0  0  0  0
   25.4556  -20.3067  -13.4787 C   0  0  0  0  0  0  0  0  0  0  0  0
   26.5566  -19.9862  -13.9634 O   0  0  0  0  0  0  0  0  0  0  0  0
   23.7711  -20.1046  -16.4591 C   0  0  0  0  0  0  0  0  0  0  0  0
   24.3373  -19.1774  -15.3825 C   0  0  2  0  0  0  0  0  0  0  0  0
   24.2539  -19.9116  -14.1352 N   0  0  0  0  0  0  0  0  0  0  0  0
   23.4773  -17.9649  -15.2354 C   0  0  0  0  0  0  0  0  0  0  0  0
   22.3908  -18.0927  -14.6255 O   0  0  0  0  0  0  0  0  0  0  0  0
   23.8420  -16.7102  -15.7497 N   0  0  0  0  0  0  0  0  0  0  0  0
   22.9407  -15.5780  -15.5968 C   0  0  1  0  0  0  0  0  0  0  0  0
   23.7916  -14.3485  -15.6352 C   0  0  0  0  0  0  0  0  0  0  0  0
   23.0634  -13.0662  -15.4980 C   0  0  0  0  0  0  0  0  0  0  0  0
   23.9368  -11.8731  -15.4565 C   0  0  0  0  0  0  0  0  0  0  0  0
   23.0769  -10.6394  -15.1504 C   0  0  0  0  0  0  0  0  0  0  0  0
   23.8656   -9.4425  -15.2249 N   0  0  0  0  0  0  0  0  0  0  0  0
   21.7773  -15.6565  -16.4577 C   0  0  0  0  0  0  0  0  0  0  0  0
   20.6287  -15.4021  -16.0190 O   0  0  0  0  0  0  0  0  0  0  0  0
   21.8232  -16.0133  -17.8094 O   0  0  0  0  0  0  0  0  0  0  0  0
  2  9  1  0
  2  1  1  6
  3  2  1  0
  4  3  1  0
  5  4  2  0
  6  7  1  0
  6  5  1  0
  7  8  2  0
  8  4  1  0
  9 10  2  0
 12 11  1  6
 13 12  1  0
 13  9  1  0
 14 15  2  0
 14 12  1  0
 16 14  1  0
 17 16  1  0
 18 19  1  0
 17 18  1  6
 19 20  1  0
 20 21  1  0
 21 22  1  0
 23 17  1  0
 23 25  1  0
 24 23  2  0
M  END
$$$$
