HAK.pdb
     RDKit          3D

 25 25  0  0  1  0  0  0  0  0999 V2000
   26.1918  -11.8010  -20.3097 N   0  0  0  0  0  0  0  0  0  0  0  0
   25.7784  -10.4348  -20.0762 C   0  0  1  0  0  0  0  0  0  0  0  0
   24.2744  -10.3900  -20.2416 C   0  0  0  0  0  0  0  0  0  0  0  0
   23.9896  -10.7810  -21.6534 C   0  0  0  0  0  0  0  0  0  0  0  0
   24.4817  -10.1261  -22.7526 C   0  0  0  0  0  0  0  0  0  0  0  0
   24.0000  -10.7800  -23.8507 N   0  0  0  0  0  0  0  0  0  0  0  0
   23.2370  -11.8032  -23.4585 C   0  0  0  0  0  0  0  0  0  0  0  0
   23.2374  -11.7948  -22.1183 N   0  0  0  0  0  0  0  0  0  0  0  0
   26.2075   -9.9608  -18.7329 C   0  0  0  0  0  0  0  0  0  0  0  0
   25.9690   -8.8130  -18.3137 O   0  0  0  0  0  0  0  0  0  0  0  0
   27.3111  -11.6985  -15.7072 C   0  0  0  0  0  0  0  0  0  0  0  0
   27.3635  -10.4542  -16.5951 C   0  0  2  0  0  0  0  0  0  0  0  0
   26.9210  -10.8787  -17.9087 N   0  0  0  0  0  0  0  0  0  0  0  0
   28.7718   -9.9776  -16.7401 C   0  0  0  0  0  0  0  0  0  0  0  0
   29.3458   -9.5390  -15.7170 O   0  0  0  0  0  0  0  0  0  0  0  0
   29.4591  -10.0056  -17.9643 N   0  0  0  0  0  0  0  0  0  0  0  0
   30.8510   -9.5850  -18.0202 C   0  0  1  0  0  0  0  0  0  0  0  0
   31.4891  -10.3701  -19.1218 C   0  0  0  0  0  0  0  0  0  0  0  0
   31.7548  -11.7947  -18.8165 C   0  0  0  0  0  0  0  0  0  0  0  0
   32.5217  -12.5072  -19.8616 C   0  0  0  0  0  0  0  0  0  0  0  0
   32.6881  -13.9738  -19.4418 C   0  0  0  0  0  0  0  0  0  0  0  0
   33.5305  -14.6728  -20.3700 N   0  0  0  0  0  0  0  0  0  0  0  0
   31.0115   -8.1447  -17.9977 C   0  0  0  0  0  0  0  0  0  0  0  0
   30.3703   -7.4091  -18.7878 O   0  0  0  0  0  0  0  0  0  0  0  0
   31.8679   -7.4633  -17.1265 O   0  0  0  0  0  0  0  0  0  0  0  0
  2  9  1  0
  2  1  1  1
  3  2  1  0
  4  3  1  0
  5  4  2  0
  6  7  1  0
  6  5  1  0
  7  8  2  0
  8  4  1  0
  9 10  2  0
 12 11  1  1
 13 12  1  0
 13  9  1  0
 14 15  2  0
 14 12  1  0
 16 14  1  0
 17 16  1  0
 18 19  1  0
 17 18  1  6
 19 20  1  0
 20 21  1  0
 21 22  1  0
 23 17  1  0
 23 25  1  0
 24 23  2  0
M  END
$$$$
