HAK.pdb
     RDKit          3D

 25 25  0  0  1  0  0  0  0  0999 V2000
   19.6753  -18.8140  -17.2638 N   0  0  0  0  0  0  0  0  0  0  0  0
   19.6206  -17.6645  -16.3875 C   0  0  1  0  0  0  0  0  0  0  0  0
   21.0456  -17.2027  -16.1692 C   0  0  0  0  0  0  0  0  0  0  0  0
   21.7746  -18.3491  -15.5514 C   0  0  0  0  0  0  0  0  0  0  0  0
   21.4487  -18.9149  -14.3461 C   0  0  0  0  0  0  0  0  0  0  0  0
   22.3415  -19.9256  -14.1298 N   0  0  0  0  0  0  0  0  0  0  0  0
   23.1931  -19.9925  -15.1560 C   0  0  0  0  0  0  0  0  0  0  0  0
   22.8390  -19.0279  -16.0163 N   0  0  0  0  0  0  0  0  0  0  0  0
   18.7654  -16.5888  -16.9572 C   0  0  0  0  0  0  0  0  0  0  0  0
   19.0491  -15.9861  -18.0089 O   0  0  0  0  0  0  0  0  0  0  0  0
   15.2884  -15.5875  -16.2012 C   0  0  0  0  0  0  0  0  0  0  0  0
   16.6509  -15.2989  -16.8336 C   0  0  2  0  0  0  0  0  0  0  0  0
   17.5747  -16.2516  -16.2502 N   0  0  0  0  0  0  0  0  0  0  0  0
   17.1252  -13.9360  -16.4477 C   0  0  0  0  0  0  0  0  0  0  0  0
   17.8080  -13.8318  -15.4029 O   0  0  0  0  0  0  0  0  0  0  0  0
   16.8351  -12.7900  -17.2054 N   0  0  0  0  0  0  0  0  0  0  0  0
   17.3084  -11.4892  -16.7564 C   0  0  1  0  0  0  0  0  0  0  0  0
   18.1165  -10.9197  -17.8787 C   0  0  0  0  0  0  0  0  0  0  0  0
   18.6875   -9.5753  -17.6335 C   0  0  0  0  0  0  0  0  0  0  0  0
   19.4916   -9.0430  -18.7550 C   0  0  0  0  0  0  0  0  0  0  0  0
   20.0899   -7.6924  -18.3392 C   0  0  0  0  0  0  0  0  0  0  0  0
   20.9595   -7.1879  -19.3635 N   0  0  0  0  0  0  0  0  0  0  0  0
   16.2655  -10.6797  -16.1582 C   0  0  0  0  0  0  0  0  0  0  0  0
   15.0562  -10.8739  -16.4343 O   0  0  0  0  0  0  0  0  0  0  0  0
   16.5005   -9.6408  -15.2515 O   0  0  0  0  0  0  0  0  0  0  0  0
  2  9  1  0
  2  1  1  6
  3  2  1  0
  4  3  1  0
  5  4  2  0
  6  7  1  0
  6  5  1  0
  7  8  2  0
  8  4  1  0
  9 10  2  0
 12 11  1  1
 13 12  1  0
 13  9  1  0
 14 15  2  0
 14 12  1  0
 16 14  1  0
 17 16  1  0
 18 19  1  0
 17 18  1  6
 19 20  1  0
 20 21  1  0
 21 22  1  0
 23 17  1  0
 23 25  1  0
 24 23  2  0
M  END
$$$$
