HAK.pdb
     RDKit          3D

 25 25  0  0  1  0  0  0  0  0999 V2000
   21.7597  -15.0371  -16.1678 N   0  0  0  0  0  0  0  0  0  0  0  0
   21.6383  -13.6216  -16.4390 C   0  0  1  0  0  0  0  0  0  0  0  0
   20.1616  -13.3204  -16.5816 C   0  0  0  0  0  0  0  0  0  0  0  0
   19.6530  -14.1945  -17.6791 C   0  0  0  0  0  0  0  0  0  0  0  0
   18.3627  -14.6478  -17.7732 C   0  0  0  0  0  0  0  0  0  0  0  0
   18.2933  -15.4105  -18.9040 N   0  0  0  0  0  0  0  0  0  0  0  0
   19.4898  -15.4358  -19.4962 C   0  0  0  0  0  0  0  0  0  0  0  0
   20.3107  -14.6921  -18.7419 N   0  0  0  0  0  0  0  0  0  0  0  0
   22.2739  -12.8080  -15.3679 C   0  0  0  0  0  0  0  0  0  0  0  0
   21.8207  -12.7429  -14.2102 O   0  0  0  0  0  0  0  0  0  0  0  0
   25.5333  -11.1022  -15.0888 C   0  0  0  0  0  0  0  0  0  0  0  0
   24.0534  -11.2080  -14.7171 C   0  0  2  0  0  0  0  0  0  0  0  0
   23.4518  -12.0804  -15.7063 N   0  0  0  0  0  0  0  0  0  0  0  0
   23.3885   -9.8764  -14.8452 C   0  0  0  0  0  0  0  0  0  0  0  0
   23.7829   -8.9546  -14.0948 O   0  0  0  0  0  0  0  0  0  0  0  0
   22.3547   -9.6308  -15.7633 N   0  0  0  0  0  0  0  0  0  0  0  0
   21.7926   -8.2933  -15.8762 C   0  0  1  0  0  0  0  0  0  0  0  0
   20.9294   -8.2962  -17.0976 C   0  0  0  0  0  0  0  0  0  0  0  0
   20.2082   -7.0317  -17.3701 C   0  0  0  0  0  0  0  0  0  0  0  0
   19.2755   -7.0991  -18.5161 C   0  0  0  0  0  0  0  0  0  0  0  0
   18.6084   -5.7285  -18.6940 C   0  0  0  0  0  0  0  0  0  0  0  0
   17.5609   -5.7994  -19.6727 N   0  0  0  0  0  0  0  0  0  0  0  0
   21.2456   -7.7988  -14.6285 C   0  0  0  0  0  0  0  0  0  0  0  0
   20.4836   -8.5099  -13.9284 O   0  0  0  0  0  0  0  0  0  0  0  0
   21.5037   -6.5267  -14.1072 O   0  0  0  0  0  0  0  0  0  0  0  0
  2  9  1  0
  2  1  1  1
  3  2  1  0
  4  3  1  0
  5  4  2  0
  6  7  1  0
  6  5  1  0
  7  8  2  0
  8  4  1  0
  9 10  2  0
 12 11  1  6
 13 12  1  0
 13  9  1  0
 14 15  2  0
 14 12  1  0
 16 14  1  0
 17 16  1  0
 18 19  1  0
 17 18  1  6
 19 20  1  0
 20 21  1  0
 21 22  1  0
 23 17  1  0
 23 25  1  0
 24 23  2  0
M  END
$$$$
