HAK.pdb
     RDKit          3D

 25 25  0  0  1  0  0  0  0  0999 V2000
   24.6387  -31.8331  -17.1951 N   0  0  0  0  0  0  0  0  0  0  0  0
   25.1276  -30.6125  -17.7978 C   0  0  1  0  0  0  0  0  0  0  0  0
   24.2235  -29.4919  -17.3307 C   0  0  0  0  0  0  0  0  0  0  0  0
   22.8934  -29.7253  -17.9657 C   0  0  0  0  0  0  0  0  0  0  0  0
   22.6447  -29.6059  -19.3085 C   0  0  0  0  0  0  0  0  0  0  0  0
   21.3232  -29.8973  -19.4931 N   0  0  0  0  0  0  0  0  0  0  0  0
   20.7643  -30.1878  -18.3158 C   0  0  0  0  0  0  0  0  0  0  0  0
   21.7294  -30.0801  -17.3922 N   0  0  0  0  0  0  0  0  0  0  0  0
   26.5516  -30.3662  -17.4446 C   0  0  0  0  0  0  0  0  0  0  0  0
   27.1407  -29.3034  -17.7155 O   0  0  0  0  0  0  0  0  0  0  0  0
   28.9765  -32.1986  -15.3297 C   0  0  0  0  0  0  0  0  0  0  0  0
   28.6622  -31.2425  -16.4815 C   0  0  2  0  0  0  0  0  0  0  0  0
   27.2505  -31.4071  -16.7669 N   0  0  0  0  0  0  0  0  0  0  0  0
   29.4079  -31.6466  -17.7112 C   0  0  0  0  0  0  0  0  0  0  0  0
   28.8751  -32.4958  -18.4619 O   0  0  0  0  0  0  0  0  0  0  0  0
   30.6636  -31.1143  -18.0453 N   0  0  0  0  0  0  0  0  0  0  0  0
   31.3388  -31.5623  -19.2539 C   0  0  1  0  0  0  0  0  0  0  0  0
   32.1566  -30.4071  -19.7376 C   0  0  0  0  0  0  0  0  0  0  0  0
   32.9622  -30.6627  -20.9538 C   0  0  0  0  0  0  0  0  0  0  0  0
   33.7678  -29.5064  -21.4030 C   0  0  0  0  0  0  0  0  0  0  0  0
   34.5895  -29.9213  -22.6309 C   0  0  0  0  0  0  0  0  0  0  0  0
   35.3752  -28.8195  -23.1092 N   0  0  0  0  0  0  0  0  0  0  0  0
   31.9697  -32.8587  -19.1061 C   0  0  0  0  0  0  0  0  0  0  0  0
   31.8929  -33.7236  -20.0131 O   0  0  0  0  0  0  0  0  0  0  0  0
   32.6948  -33.2552  -17.9776 O   0  0  0  0  0  0  0  0  0  0  0  0
  2  9  1  0
  2  1  1  1
  3  2  1  0
  4  3  1  0
  5  4  2  0
  6  7  1  0
  6  5  1  0
  7  8  2  0
  8  4  1  0
  9 10  2  0
 12 11  1  1
 13 12  1  0
 13  9  1  0
 14 15  2  0
 14 12  1  0
 16 14  1  0
 17 16  1  0
 18 19  1  0
 17 18  1  1
 19 20  1  0
 20 21  1  0
 21 22  1  0
 23 17  1  0
 23 25  1  0
 24 23  2  0
M  END
$$$$
