HAK.pdb
     RDKit          3D

 25 25  0  0  1  0  0  0  0  0999 V2000
   19.0811  -12.3519  -15.8160 N   0  0  0  0  0  0  0  0  0  0  0  0
   17.9619  -11.4360  -15.8386 C   0  0  1  0  0  0  0  0  0  0  0  0
   16.8690  -12.0471  -14.9880 C   0  0  0  0  0  0  0  0  0  0  0  0
   16.3342  -13.2110  -15.7539 C   0  0  0  0  0  0  0  0  0  0  0  0
   15.4608  -13.1105  -16.8058 C   0  0  0  0  0  0  0  0  0  0  0  0
   15.2116  -14.3827  -17.2353 N   0  0  0  0  0  0  0  0  0  0  0  0
   15.8993  -15.2470  -16.4851 C   0  0  0  0  0  0  0  0  0  0  0  0
   16.5797  -14.5229  -15.5859 N   0  0  0  0  0  0  0  0  0  0  0  0
   18.3570  -10.0855  -15.3556 C   0  0  0  0  0  0  0  0  0  0  0  0
   18.7109   -9.8644  -14.1827 O   0  0  0  0  0  0  0  0  0  0  0  0
   19.3350   -7.0044  -17.0708 C   0  0  0  0  0  0  0  0  0  0  0  0
   18.6857   -7.6801  -15.8620 C   0  0  2  0  0  0  0  0  0  0  0  0
   18.3206   -9.0145  -16.2953 N   0  0  0  0  0  0  0  0  0  0  0  0
   17.4202   -6.9783  -15.4913 C   0  0  0  0  0  0  0  0  0  0  0  0
   16.3401   -7.4896  -15.8663 O   0  0  0  0  0  0  0  0  0  0  0  0
   17.4041   -5.7860  -14.7498 N   0  0  0  0  0  0  0  0  0  0  0  0
   16.1443   -5.0935  -14.5241 C   0  0  1  0  0  0  0  0  0  0  0  0
   15.3793   -5.9133  -13.5343 C   0  0  0  0  0  0  0  0  0  0  0  0
   14.2141   -5.2402  -12.9158 C   0  0  0  0  0  0  0  0  0  0  0  0
   12.9578   -6.0182  -12.9813 C   0  0  0  0  0  0  0  0  0  0  0  0
   11.8263   -5.1861  -12.3629 C   0  0  0  0  0  0  0  0  0  0  0  0
   10.5773   -5.8881  -12.4493 N   0  0  0  0  0  0  0  0  0  0  0  0
   16.3105   -3.6738  -14.2840 C   0  0  0  0  0  0  0  0  0  0  0  0
   15.4009   -2.8575  -14.5717 O   0  0  0  0  0  0  0  0  0  0  0  0
   17.4603   -3.1000  -13.7317 O   0  0  0  0  0  0  0  0  0  0  0  0
  2  9  1  0
  2  1  1  1
  3  2  1  0
  4  3  1  0
  5  4  2  0
  6  7  1  0
  6  5  1  0
  7  8  2  0
  8  4  1  0
  9 10  2  0
 12 11  1  6
 13 12  1  0
 13  9  1  0
 14 15  2  0
 14 12  1  0
 16 14  1  0
 17 16  1  0
 18 19  1  0
 17 18  1  1
 19 20  1  0
 20 21  1  0
 21 22  1  0
 23 17  1  0
 23 25  1  0
 24 23  2  0
M  END
$$$$
