HAK.pdb
     RDKit          3D

 25 25  0  0  1  0  0  0  0  0999 V2000
   32.8464  -33.8446   -7.0653 N   0  0  0  0  0  0  0  0  0  0  0  0
   32.4613  -34.8001   -6.0500 C   0  0  1  0  0  0  0  0  0  0  0  0
   33.7362  -35.3990   -5.4955 C   0  0  0  0  0  0  0  0  0  0  0  0
   34.2527  -36.3374   -6.5347 C   0  0  0  0  0  0  0  0  0  0  0  0
   33.5972  -37.4663   -6.9532 C   0  0  0  0  0  0  0  0  0  0  0  0
   34.3845  -38.0509   -7.9037 N   0  0  0  0  0  0  0  0  0  0  0  0
   35.4888  -37.3203   -8.0758 C   0  0  0  0  0  0  0  0  0  0  0  0
   35.3985  -36.2789   -7.2371 N   0  0  0  0  0  0  0  0  0  0  0  0
   31.6363  -34.1612   -4.9896 C   0  0  0  0  0  0  0  0  0  0  0  0
   32.0694  -33.2598   -4.2482 O   0  0  0  0  0  0  0  0  0  0  0  0
   28.0134  -34.2635   -4.2533 C   0  0  0  0  0  0  0  0  0  0  0  0
   29.4581  -34.0230   -3.8122 C   0  0  2  0  0  0  0  0  0  0  0  0
   30.2952  -34.6180   -4.8353 N   0  0  0  0  0  0  0  0  0  0  0  0
   29.7406  -34.7494   -2.5378 C   0  0  0  0  0  0  0  0  0  0  0  0
   30.1118  -35.9428   -2.6184 O   0  0  0  0  0  0  0  0  0  0  0  0
   29.6055  -34.1473   -1.2765 N   0  0  0  0  0  0  0  0  0  0  0  0
   29.6974  -34.9623   -0.0744 C   0  0  1  0  0  0  0  0  0  0  0  0
   30.0409  -34.0320    1.0453 C   0  0  0  0  0  0  0  0  0  0  0  0
   30.2329  -34.6710    2.3674 C   0  0  0  0  0  0  0  0  0  0  0  0
   30.6442  -33.7381    3.4391 C   0  0  0  0  0  0  0  0  0  0  0  0
   30.8463  -34.5317    4.7370 C   0  0  0  0  0  0  0  0  0  0  0  0
   31.3574  -33.6820    5.7746 N   0  0  0  0  0  0  0  0  0  0  0  0
   28.5800  -35.8717    0.0834 C   0  0  0  0  0  0  0  0  0  0  0  0
   28.7025  -36.9427    0.7271 O   0  0  0  0  0  0  0  0  0  0  0  0
   27.3061  -35.6508   -0.4506 O   0  0  0  0  0  0  0  0  0  0  0  0
  2  9  1  0
  2  1  1  6
  3  2  1  0
  4  3  1  0
  5  4  2  0
  6  7  1  0
  6  5  1  0
  7  8  2  0
  8  4  1  0
  9 10  2  0
 12 11  1  6
 13 12  1  0
 13  9  1  0
 14 15  2  0
 14 12  1  0
 16 14  1  0
 17 16  1  0
 18 19  1  0
 17 18  1  1
 19 20  1  0
 20 21  1  0
 21 22  1  0
 23 17  1  0
 23 25  1  0
 24 23  2  0
M  END
$$$$
