HAK.pdb
     RDKit          3D

 25 25  0  0  1  0  0  0  0  0999 V2000
   27.8061  -20.5397  -17.4060 N   0  0  0  0  0  0  0  0  0  0  0  0
   27.7582  -19.6561  -16.2619 C   0  0  1  0  0  0  0  0  0  0  0  0
   26.6043  -18.7018  -16.4840 C   0  0  0  0  0  0  0  0  0  0  0  0
   27.0041  -17.8049  -17.6078 C   0  0  0  0  0  0  0  0  0  0  0  0
   28.1269  -17.0184  -17.6090 C   0  0  0  0  0  0  0  0  0  0  0  0
   28.1420  -16.3531  -18.8016 N   0  0  0  0  0  0  0  0  0  0  0  0
   27.0735  -16.7063  -19.5202 C   0  0  0  0  0  0  0  0  0  0  0  0
   26.3871  -17.5910  -18.7839 N   0  0  0  0  0  0  0  0  0  0  0  0
   27.6159  -20.4197  -14.9930 C   0  0  0  0  0  0  0  0  0  0  0  0
   26.7340  -21.2807  -14.8181 O   0  0  0  0  0  0  0  0  0  0  0  0
   29.7170  -20.5457  -11.9173 C   0  0  0  0  0  0  0  0  0  0  0  0
   28.4361  -20.8557  -12.6936 C   0  0  2  0  0  0  0  0  0  0  0  0
   28.5413  -20.1352  -13.9471 N   0  0  0  0  0  0  0  0  0  0  0  0
   27.2465  -20.3103  -11.9733 C   0  0  0  0  0  0  0  0  0  0  0  0
   26.8349  -19.1752  -12.3061 O   0  0  0  0  0  0  0  0  0  0  0  0
   26.5879  -21.0170  -10.9542 N   0  0  0  0  0  0  0  0  0  0  0  0
   25.2520  -20.6127  -10.5429 C   0  0  1  0  0  0  0  0  0  0  0  0
   24.3413  -20.9255  -11.6874 C   0  0  0  0  0  0  0  0  0  0  0  0
   22.9058  -20.6463  -11.4531 C   0  0  0  0  0  0  0  0  0  0  0  0
   22.0237  -21.0113  -12.5829 C   0  0  0  0  0  0  0  0  0  0  0  0
   20.5733  -20.6795  -12.2071 C   0  0  0  0  0  0  0  0  0  0  0  0
   19.7038  -20.8660  -13.3337 N   0  0  0  0  0  0  0  0  0  0  0  0
   24.9002  -21.0772   -9.2158 C   0  0  0  0  0  0  0  0  0  0  0  0
   23.8962  -20.6215   -8.6151 O   0  0  0  0  0  0  0  0  0  0  0  0
   25.6225  -22.0404   -8.5037 O   0  0  0  0  0  0  0  0  0  0  0  0
  2  9  1  0
  2  1  1  6
  3  2  1  0
  4  3  1  0
  5  4  2  0
  6  7  1  0
  6  5  1  0
  7  8  2  0
  8  4  1  0
  9 10  2  0
 12 11  1  1
 13 12  1  0
 13  9  1  0
 14 15  2  0
 14 12  1  0
 16 14  1  0
 17 16  1  0
 18 19  1  0
 17 18  1  6
 19 20  1  0
 20 21  1  0
 21 22  1  0
 23 17  1  0
 23 25  1  0
 24 23  2  0
M  END
$$$$
