HAK.pdb
     RDKit          3D

 25 25  0  0  1  0  0  0  0  0999 V2000
   22.8480  -18.7463  -17.2845 N   0  0  0  0  0  0  0  0  0  0  0  0
   21.5110  -18.8815  -16.7497 C   0  0  1  0  0  0  0  0  0  0  0  0
   20.6944  -19.6357  -17.7773 C   0  0  0  0  0  0  0  0  0  0  0  0
   20.5290  -18.7206  -18.9445 C   0  0  0  0  0  0  0  0  0  0  0  0
   21.2401  -18.8187  -20.1124 C   0  0  0  0  0  0  0  0  0  0  0  0
   20.8052  -17.8114  -20.9257 N   0  0  0  0  0  0  0  0  0  0  0  0
   19.8602  -17.1093  -20.2957 C   0  0  0  0  0  0  0  0  0  0  0  0
   19.6997  -17.6714  -19.0898 N   0  0  0  0  0  0  0  0  0  0  0  0
   21.5218  -19.5688  -15.4303 C   0  0  0  0  0  0  0  0  0  0  0  0
   22.3676  -20.4293  -15.1239 O   0  0  0  0  0  0  0  0  0  0  0  0
   20.2024  -18.5977  -12.2125 C   0  0  0  0  0  0  0  0  0  0  0  0
   20.5648  -19.7508  -13.1497 C   0  0  2  0  0  0  0  0  0  0  0  0
   20.5099  -19.2093  -14.4933 N   0  0  0  0  0  0  0  0  0  0  0  0
   19.5345  -20.8295  -13.0697 C   0  0  0  0  0  0  0  0  0  0  0  0
   18.4576  -20.6522  -13.6841 O   0  0  0  0  0  0  0  0  0  0  0  0
   19.7321  -22.0135  -12.3411 N   0  0  0  0  0  0  0  0  0  0  0  0
   18.6208  -22.9315  -12.1408 C   0  0  1  0  0  0  0  0  0  0  0  0
   19.1725  -24.1150  -11.4114 C   0  0  0  0  0  0  0  0  0  0  0  0
   18.2001  -25.1936  -11.1212 C   0  0  0  0  0  0  0  0  0  0  0  0
   18.7216  -26.2606  -10.2394 C   0  0  0  0  0  0  0  0  0  0  0  0
   17.5905  -27.2537   -9.9401 C   0  0  0  0  0  0  0  0  0  0  0  0
   18.0605  -28.3160   -9.0970 N   0  0  0  0  0  0  0  0  0  0  0  0
   17.4307  -22.2812  -11.6295 C   0  0  0  0  0  0  0  0  0  0  0  0
   17.5103  -21.3584  -10.7819 O   0  0  0  0  0  0  0  0  0  0  0  0
   16.1276  -22.6113  -12.0165 O   0  0  0  0  0  0  0  0  0  0  0  0
  2  9  1  0
  2  1  1  6
  3  2  1  0
  4  3  1  0
  5  4  2  0
  6  7  1  0
  6  5  1  0
  7  8  2  0
  8  4  1  0
  9 10  2  0
 12 11  1  1
 13 12  1  0
 13  9  1  0
 14 15  2  0
 14 12  1  0
 16 14  1  0
 17 16  1  0
 18 19  1  0
 17 18  1  1
 19 20  1  0
 20 21  1  0
 21 22  1  0
 23 17  1  0
 23 25  1  0
 24 23  2  0
M  END
$$$$
