ILI.pdb
     RDKit          3D

 25 24  0  0  1  0  0  0  0  0999 V2000
   21.0741  -21.3141  -17.2057 C   0  0  0  0  0  0  0  0  0  0  0  0
   21.5178  -20.2863  -16.2012 C   0  0  0  0  0  0  0  0  0  0  0  0
   22.4937  -20.8902  -15.2470 C   0  0  2  0  0  0  0  0  0  0  0  0
   21.9046  -22.1469  -14.5899 C   0  0  0  0  0  0  0  0  0  0  0  0
   22.9650  -19.9534  -14.1542 C   0  0  2  0  0  0  0  0  0  0  0  0
   23.5638  -18.7768  -14.8431 N   0  0  0  0  0  0  0  0  0  0  0  0
   24.0282  -20.5086  -13.2948 C   0  0  0  0  0  0  0  0  0  0  0  0
   23.7295  -21.4665  -12.4862 O   0  0  0  0  0  0  0  0  0  0  0  0
   30.1432  -20.1522  -12.5324 C   0  0  0  0  0  0  0  0  0  0  0  0
   28.8412  -20.7276  -11.9310 C   0  0  2  0  0  0  0  0  0  0  0  0
   29.1104  -22.1859  -11.7223 C   0  0  0  0  0  0  0  0  0  0  0  0
   27.6807  -20.4140  -12.7955 C   0  0  0  0  0  0  0  0  0  0  0  0
   26.3240  -20.7256  -12.2765 C   0  0  2  0  0  0  0  0  0  0  0  0
   25.3731  -20.1180  -13.2421 N   0  0  0  0  0  0  0  0  0  0  0  0
   25.9826  -20.2367  -10.9503 C   0  0  0  0  0  0  0  0  0  0  0  0
   25.5569  -19.0299  -10.8639 O   0  0  0  0  0  0  0  0  0  0  0  0
   22.3683  -21.6357   -7.5097 C   0  0  0  0  0  0  0  0  0  0  0  0
   23.4077  -20.8360   -8.2578 C   0  0  0  0  0  0  0  0  0  0  0  0
   24.7810  -20.9329   -7.6493 C   0  0  2  0  0  0  0  0  0  0  0  0
   24.7551  -20.5238   -6.2167 C   0  0  0  0  0  0  0  0  0  0  0  0
   25.8609  -20.2722   -8.4625 C   0  0  2  0  0  0  0  0  0  0  0  0
   26.0576  -20.9266   -9.7333 N   0  0  0  0  0  0  0  0  0  0  0  0
   27.1320  -20.0536   -7.7351 C   0  0  0  0  0  0  0  0  0  0  0  0
   28.2615  -20.8715   -7.9416 O   0  0  0  0  0  0  0  0  0  0  0  0
   27.3209  -19.1464   -6.8900 O   0  0  0  0  0  0  0  0  0  0  0  0
  2  1  1  0
  3  2  1  0
  3  4  1  1
  5  7  1  0
  5  3  1  0
  5  6  1  6
  7  8  2  0
 10  9  1  6
 11 10  1  0
 12 10  1  0
 13 12  1  6
 14 13  1  0
 14  7  1  0
 15 13  1  0
 15 16  2  0
 17 18  1  0
 18 19  1  0
 19 21  1  0
 19 20  1  1
 21 22  1  6
 21 23  1  0
 22 15  1  0
 23 24  1  0
 25 23  2  0
M  END
$$$$
