ILI.pdb
     RDKit          3D

 25 24  0  0  1  0  0  0  0  0999 V2000
   20.8224  -21.4926  -13.9056 C   0  0  0  0  0  0  0  0  0  0  0  0
   21.5699  -20.4306  -13.1471 C   0  0  0  0  0  0  0  0  0  0  0  0
   22.6038  -21.0576  -12.2721 C   0  0  2  0  0  0  0  0  0  0  0  0
   21.9630  -22.0756  -11.3175 C   0  0  0  0  0  0  0  0  0  0  0  0
   23.4126  -20.0740  -11.4521 C   0  0  2  0  0  0  0  0  0  0  0  0
   23.9379  -19.0637  -12.4117 N   0  0  0  0  0  0  0  0  0  0  0  0
   24.5931  -20.6614  -10.7898 C   0  0  0  0  0  0  0  0  0  0  0  0
   24.4107  -21.5913   -9.9166 O   0  0  0  0  0  0  0  0  0  0  0  0
   30.7086  -21.0104  -11.3514 C   0  0  0  0  0  0  0  0  0  0  0  0
   29.5163  -21.3490  -10.4285 C   0  0  2  0  0  0  0  0  0  0  0  0
   29.6048  -22.8248  -10.1902 C   0  0  0  0  0  0  0  0  0  0  0  0
   28.2439  -20.8773  -11.0209 C   0  0  0  0  0  0  0  0  0  0  0  0
   27.0233  -20.9285  -10.1756 C   0  0  2  0  0  0  0  0  0  0  0  0
   25.9392  -20.3298  -10.9954 N   0  0  0  0  0  0  0  0  0  0  0  0
   27.0567  -20.2259   -8.9029 C   0  0  0  0  0  0  0  0  0  0  0  0
   26.4671  -19.0882   -8.8477 O   0  0  0  0  0  0  0  0  0  0  0  0
   24.8660  -21.5048   -4.4737 C   0  0  0  0  0  0  0  0  0  0  0  0
   25.5123  -20.7173   -5.5881 C   0  0  0  0  0  0  0  0  0  0  0  0
   26.9804  -20.4710   -5.3653 C   0  0  2  0  0  0  0  0  0  0  0  0
   27.2121  -19.8046   -4.0528 C   0  0  0  0  0  0  0  0  0  0  0  0
   27.6753  -19.8115   -6.5258 C   0  0  2  0  0  0  0  0  0  0  0  0
   27.6585  -20.6394   -7.7073 N   0  0  0  0  0  0  0  0  0  0  0  0
   29.0268  -19.2907   -6.2181 C   0  0  0  0  0  0  0  0  0  0  0  0
   29.2316  -17.9818   -5.7363 O   0  0  0  0  0  0  0  0  0  0  0  0
   30.0886  -19.9445   -6.3525 O   0  0  0  0  0  0  0  0  0  0  0  0
  2  1  1  0
  3  2  1  0
  3  4  1  1
  5  7  1  0
  5  3  1  0
  5  6  1  6
  7  8  2  0
 10  9  1  6
 11 10  1  0
 12 10  1  0
 13 12  1  6
 14 13  1  0
 14  7  1  0
 15 13  1  0
 15 16  2  0
 17 18  1  0
 18 19  1  0
 19 21  1  0
 19 20  1  1
 21 22  1  6
 21 23  1  0
 22 15  1  0
 23 24  1  0
 25 23  2  0
M  END
$$$$
