ILI.pdb
     RDKit          3D

 25 24  0  0  1  0  0  0  0  0999 V2000
   19.5281  -21.0192  -18.5259 C   0  0  0  0  0  0  0  0  0  0  0  0
   19.9334  -20.1348  -17.3789 C   0  0  0  0  0  0  0  0  0  0  0  0
   21.1110  -20.7193  -16.6724 C   0  0  2  0  0  0  0  0  0  0  0  0
   20.8015  -22.1427  -16.1861 C   0  0  0  0  0  0  0  0  0  0  0  0
   21.6031  -19.9059  -15.4933 C   0  0  2  0  0  0  0  0  0  0  0  0
   21.9621  -18.5650  -16.0325 N   0  0  0  0  0  0  0  0  0  0  0  0
   22.8271  -20.4331  -14.8601 C   0  0  0  0  0  0  0  0  0  0  0  0
   22.7662  -21.5667  -14.2503 O   0  0  0  0  0  0  0  0  0  0  0  0
   28.8998  -19.4468  -14.7810 C   0  0  0  0  0  0  0  0  0  0  0  0
   27.7564  -20.2117  -14.0770 C   0  0  2  0  0  0  0  0  0  0  0  0
   28.1929  -21.6440  -14.0522 C   0  0  0  0  0  0  0  0  0  0  0  0
   26.4620  -19.9545  -14.7484 C   0  0  0  0  0  0  0  0  0  0  0  0
   25.2269  -20.4508  -14.0885 C   0  0  2  0  0  0  0  0  0  0  0  0
   24.0974  -19.8413  -14.8358 N   0  0  0  0  0  0  0  0  0  0  0  0
   25.0458  -20.1400  -12.6795 C   0  0  0  0  0  0  0  0  0  0  0  0
   24.8161  -18.9152  -12.3761 O   0  0  0  0  0  0  0  0  0  0  0  0
   21.2239  -21.0217   -9.6403 C   0  0  0  0  0  0  0  0  0  0  0  0
   22.4976  -20.5059  -10.2659 C   0  0  0  0  0  0  0  0  0  0  0  0
   23.7388  -20.9739   -9.5546 C   0  0  2  0  0  0  0  0  0  0  0  0
   23.6729  -20.6445   -8.1029 C   0  0  0  0  0  0  0  0  0  0  0  0
   25.0220  -20.5637  -10.2250 C   0  0  2  0  0  0  0  0  0  0  0  0
   25.0884  -21.0216  -11.5916 N   0  0  0  0  0  0  0  0  0  0  0  0
   26.2470  -20.8876   -9.4589 C   0  0  0  0  0  0  0  0  0  0  0  0
   26.8083  -19.9869   -8.5309 O   0  0  0  0  0  0  0  0  0  0  0  0
   26.8848  -21.9629   -9.5587 O   0  0  0  0  0  0  0  0  0  0  0  0
  2  1  1  0
  3  2  1  0
  3  4  1  1
  5  7  1  0
  5  3  1  0
  5  6  1  6
  7  8  2  0
 10  9  1  6
 11 10  1  0
 12 10  1  0
 13 12  1  6
 14 13  1  0
 14  7  1  0
 15 13  1  0
 15 16  2  0
 17 18  1  0
 18 19  1  0
 19 21  1  0
 19 20  1  1
 21 22  1  6
 21 23  1  0
 22 15  1  0
 23 24  1  0
 25 23  2  0
M  END
$$$$
