ILI.pdb
     RDKit          3D

 25 24  0  0  1  0  0  0  0  0999 V2000
   22.4130  -21.0540  -15.2326 C   0  0  0  0  0  0  0  0  0  0  0  0
   22.3959  -20.6767  -13.7768 C   0  0  0  0  0  0  0  0  0  0  0  0
   23.6263  -21.1845  -13.1014 C   0  0  2  0  0  0  0  0  0  0  0  0
   23.7572  -22.7040  -13.2812 C   0  0  0  0  0  0  0  0  0  0  0  0
   23.7068  -20.8677  -11.6225 C   0  0  2  0  0  0  0  0  0  0  0  0
   23.6164  -19.3857  -11.5080 N   0  0  0  0  0  0  0  0  0  0  0  0
   24.9829  -21.2497  -10.9880 C   0  0  0  0  0  0  0  0  0  0  0  0
   25.1780  -22.4890  -10.6937 O   0  0  0  0  0  0  0  0  0  0  0  0
   30.8588  -20.4314  -11.2196 C   0  0  0  0  0  0  0  0  0  0  0  0
   29.7533  -21.0004  -10.3020 C   0  0  2  0  0  0  0  0  0  0  0  0
   29.9832  -22.4799  -10.2731 C   0  0  0  0  0  0  0  0  0  0  0  0
   28.4139  -20.5755  -10.7689 C   0  0  0  0  0  0  0  0  0  0  0  0
   27.2425  -20.9170   -9.9212 C   0  0  2  0  0  0  0  0  0  0  0  0
   26.0536  -20.4098  -10.6526 N   0  0  0  0  0  0  0  0  0  0  0  0
   27.2033  -20.3674   -8.5755 C   0  0  0  0  0  0  0  0  0  0  0  0
   26.2999  -19.4912   -8.3281 O   0  0  0  0  0  0  0  0  0  0  0  0
   29.9978  -22.5414   -4.1842 C   0  0  0  0  0  0  0  0  0  0  0  0
   28.8675  -21.9931   -5.0217 C   0  0  0  0  0  0  0  0  0  0  0  0
   28.9562  -20.5058   -5.2360 C   0  0  2  0  0  0  0  0  0  0  0  0
   28.9592  -19.7826   -3.9332 C   0  0  0  0  0  0  0  0  0  0  0  0
   27.9708  -19.9702   -6.2392 C   0  0  2  0  0  0  0  0  0  0  0  0
   28.0381  -20.6787   -7.4943 N   0  0  0  0  0  0  0  0  0  0  0  0
   28.0098  -18.5006   -6.4155 C   0  0  0  0  0  0  0  0  0  0  0  0
   27.1010  -17.6449   -5.7603 O   0  0  0  0  0  0  0  0  0  0  0  0
   28.8309  -17.8931   -7.1432 O   0  0  0  0  0  0  0  0  0  0  0  0
  2  1  1  0
  3  2  1  0
  3  4  1  1
  5  7  1  0
  5  3  1  0
  5  6  1  6
  7  8  2  0
 10  9  1  6
 11 10  1  0
 12 10  1  0
 13 12  1  6
 14 13  1  0
 14  7  1  0
 15 13  1  0
 15 16  2  0
 17 18  1  0
 18 19  1  0
 19 21  1  0
 19 20  1  1
 21 22  1  6
 21 23  1  0
 22 15  1  0
 23 24  1  0
 25 23  2  0
M  END
$$$$
