ILI.pdb
     RDKit          3D

 25 24  0  0  1  0  0  0  0  0999 V2000
   28.9721  -17.4406  -16.6488 C   0  0  0  0  0  0  0  0  0  0  0  0
   27.7559  -18.3244  -16.6922 C   0  0  0  0  0  0  0  0  0  0  0  0
   27.0950  -18.3526  -15.3543 C   0  0  2  0  0  0  0  0  0  0  0  0
   28.0950  -18.7610  -14.2627 C   0  0  0  0  0  0  0  0  0  0  0  0
   25.8907  -19.2670  -15.2681 C   0  0  2  0  0  0  0  0  0  0  0  0
   24.9015  -18.7477  -16.2527 N   0  0  0  0  0  0  0  0  0  0  0  0
   25.2101  -19.2536  -13.9590 C   0  0  0  0  0  0  0  0  0  0  0  0
   24.6774  -18.1528  -13.5527 O   0  0  0  0  0  0  0  0  0  0  0  0
   21.6331  -18.9996  -12.7411 C   0  0  0  0  0  0  0  0  0  0  0  0
   22.1249  -20.4359  -13.0294 C   0  0  2  0  0  0  0  0  0  0  0  0
   20.8826  -21.2530  -13.2072 C   0  0  0  0  0  0  0  0  0  0  0  0
   23.0425  -20.9000  -11.9640 C   0  0  0  0  0  0  0  0  0  0  0  0
   24.3236  -20.1696  -11.7842 C   0  0  2  0  0  0  0  0  0  0  0  0
   25.0587  -20.3228  -13.0656 N   0  0  0  0  0  0  0  0  0  0  0  0
   25.2034  -20.6086  -10.7128 C   0  0  0  0  0  0  0  0  0  0  0  0
   25.9275  -21.6429  -10.9380 O   0  0  0  0  0  0  0  0  0  0  0  0
   27.7921  -17.4676   -7.1812 C   0  0  0  0  0  0  0  0  0  0  0  0
   27.5403  -18.6588   -8.0741 C   0  0  0  0  0  0  0  0  0  0  0  0
   26.6995  -19.7223   -7.4202 C   0  0  2  0  0  0  0  0  0  0  0  0
   27.4332  -20.3555   -6.2883 C   0  0  0  0  0  0  0  0  0  0  0  0
   26.0870  -20.7006   -8.3856 C   0  0  2  0  0  0  0  0  0  0  0  0
   25.3668  -20.0361   -9.4447 N   0  0  0  0  0  0  0  0  0  0  0  0
   25.2938  -21.7772   -7.7501 C   0  0  0  0  0  0  0  0  0  0  0  0
   23.8847  -21.7477   -7.7172 O   0  0  0  0  0  0  0  0  0  0  0  0
   25.7844  -22.7897   -7.1959 O   0  0  0  0  0  0  0  0  0  0  0  0
  2  1  1  0
  3  2  1  0
  3  4  1  1
  5  7  1  0
  5  3  1  0
  5  6  1  6
  7  8  2  0
 10  9  1  1
 11 10  1  0
 12 10  1  0
 13 12  1  6
 14 13  1  0
 14  7  1  0
 15 13  1  0
 15 16  2  0
 17 18  1  0
 18 19  1  0
 19 21  1  0
 19 20  1  1
 21 22  1  6
 21 23  1  0
 22 15  1  0
 23 24  1  0
 25 23  2  0
M  END
$$$$
