ILI.pdb
     RDKit          3D

 25 24  0  0  1  0  0  0  0  0999 V2000
   17.0320  -14.1764  -18.9387 C   0  0  0  0  0  0  0  0  0  0  0  0
   18.4532  -14.4534  -18.5320 C   0  0  0  0  0  0  0  0  0  0  0  0
   19.0113  -13.2840  -17.7913 C   0  0  2  0  0  0  0  0  0  0  0  0
   18.9369  -12.0119  -18.6484 C   0  0  0  0  0  0  0  0  0  0  0  0
   20.4399  -13.4625  -17.3207 C   0  0  2  0  0  0  0  0  0  0  0  0
   20.4287  -14.6197  -16.3835 N   0  0  0  0  0  0  0  0  0  0  0  0
   20.9742  -12.3207  -16.5540 C   0  0  0  0  0  0  0  0  0  0  0  0
   20.4519  -12.0499  -15.4075 O   0  0  0  0  0  0  0  0  0  0  0  0
   24.6380  -11.2812  -14.0528 C   0  0  0  0  0  0  0  0  0  0  0  0
   24.7928  -11.3118  -15.5900 C   0  0  2  0  0  0  0  0  0  0  0  0
   26.2630  -11.1827  -15.8440 C   0  0  0  0  0  0  0  0  0  0  0  0
   23.9461  -10.2752  -16.2233 C   0  0  0  0  0  0  0  0  0  0  0  0
   22.4760  -10.3654  -16.0288 C   0  0  2  0  0  0  0  0  0  0  0  0
   22.0172  -11.4598  -16.9218 N   0  0  0  0  0  0  0  0  0  0  0  0
   21.6839   -9.1841  -16.3317 C   0  0  0  0  0  0  0  0  0  0  0  0
   21.3185   -9.0222  -17.5505 O   0  0  0  0  0  0  0  0  0  0  0  0
   17.0245   -6.7157  -17.5674 C   0  0  0  0  0  0  0  0  0  0  0  0
   18.3011   -6.2835  -16.8868 C   0  0  0  0  0  0  0  0  0  0  0  0
   19.1375   -7.4393  -16.4072 C   0  0  2  0  0  0  0  0  0  0  0  0
   18.3570   -8.3103  -15.4840 C   0  0  0  0  0  0  0  0  0  0  0  0
   20.4924   -7.0423  -15.8866 C   0  0  2  0  0  0  0  0  0  0  0  0
   21.2587   -8.1835  -15.4482 N   0  0  0  0  0  0  0  0  0  0  0  0
   20.4708   -5.9547  -14.8822 C   0  0  0  0  0  0  0  0  0  0  0  0
   20.9238   -6.1480  -13.5613 O   0  0  0  0  0  0  0  0  0  0  0  0
   20.0596   -4.7906  -15.1030 O   0  0  0  0  0  0  0  0  0  0  0  0
  2  1  1  0
  3  2  1  0
  3  4  1  6
  5  7  1  0
  5  3  1  0
  5  6  1  1
  7  8  2  0
 10  9  1  1
 11 10  1  0
 12 10  1  0
 13 12  1  6
 14 13  1  0
 14  7  1  0
 15 13  1  0
 15 16  2  0
 17 18  1  0
 18 19  1  0
 19 21  1  0
 19 20  1  1
 21 22  1  1
 21 23  1  0
 22 15  1  0
 23 24  1  0
 25 23  2  0
M  END
$$$$
