ILI.pdb
     RDKit          3D

 25 24  0  0  1  0  0  0  0  0999 V2000
   17.6410  -17.2059  -18.9580 C   0  0  0  0  0  0  0  0  0  0  0  0
   18.1124  -16.5106  -17.7105 C   0  0  0  0  0  0  0  0  0  0  0  0
   18.1076  -15.0321  -17.9150 C   0  0  2  0  0  0  0  0  0  0  0  0
   18.9997  -14.6450  -19.1035 C   0  0  0  0  0  0  0  0  0  0  0  0
   18.5435  -14.2298  -16.7066 C   0  0  2  0  0  0  0  0  0  0  0  0
   17.5830  -14.5606  -15.6177 N   0  0  0  0  0  0  0  0  0  0  0  0
   18.4673  -12.7675  -16.8885 C   0  0  0  0  0  0  0  0  0  0  0  0
   19.2991  -12.2027  -17.6946 O   0  0  0  0  0  0  0  0  0  0  0  0
   16.5589   -7.7214  -17.5198 C   0  0  0  0  0  0  0  0  0  0  0  0
   15.7222   -9.0203  -17.4961 C   0  0  2  0  0  0  0  0  0  0  0  0
   14.3009   -8.5748  -17.3406 C   0  0  0  0  0  0  0  0  0  0  0  0
   16.2160   -9.9434  -16.4489 C   0  0  0  0  0  0  0  0  0  0  0  0
   17.6203  -10.4179  -16.5475 C   0  0  2  0  0  0  0  0  0  0  0  0
   17.5729  -11.8777  -16.2783 N   0  0  0  0  0  0  0  0  0  0  0  0
   18.5938   -9.8309  -15.6406 C   0  0  0  0  0  0  0  0  0  0  0  0
   18.3399   -9.9014  -14.3854 O   0  0  0  0  0  0  0  0  0  0  0  0
   23.2735  -11.4995  -14.9694 C   0  0  0  0  0  0  0  0  0  0  0  0
   21.9292  -10.8230  -14.8477 C   0  0  0  0  0  0  0  0  0  0  0  0
   22.0101   -9.3229  -14.9413 C   0  0  2  0  0  0  0  0  0  0  0  0
   22.9621   -8.7802  -13.9316 C   0  0  0  0  0  0  0  0  0  0  0  0
   20.6714   -8.6360  -14.9621 C   0  0  2  0  0  0  0  0  0  0  0  0
   19.7956   -9.1890  -15.9665 N   0  0  0  0  0  0  0  0  0  0  0  0
   20.7393   -7.1581  -15.0213 C   0  0  0  0  0  0  0  0  0  0  0  0
   20.3260   -6.4358  -16.1593 O   0  0  0  0  0  0  0  0  0  0  0  0
   21.1588   -6.4275  -14.0921 O   0  0  0  0  0  0  0  0  0  0  0  0
  2  1  1  0
  3  2  1  0
  3  4  1  6
  5  7  1  0
  5  3  1  0
  5  6  1  1
  7  8  2  0
 10  9  1  1
 11 10  1  0
 12 10  1  0
 13 12  1  1
 14 13  1  0
 14  7  1  0
 15 13  1  0
 15 16  2  0
 17 18  1  0
 18 19  1  0
 19 21  1  0
 19 20  1  1
 21 22  1  6
 21 23  1  0
 22 15  1  0
 23 24  1  0
 25 23  2  0
M  END
$$$$
