ILI.pdb
     RDKit          3D

 25 24  0  0  1  0  0  0  0  0999 V2000
   25.4682  -18.8444  -18.5202 C   0  0  0  0  0  0  0  0  0  0  0  0
   26.7687  -19.4465  -18.0639 C   0  0  0  0  0  0  0  0  0  0  0  0
   26.6279  -19.9795  -16.6769 C   0  0  2  0  0  0  0  0  0  0  0  0
   26.1040  -18.8920  -15.7275 C   0  0  0  0  0  0  0  0  0  0  0  0
   27.9019  -20.5534  -16.0926 C   0  0  2  0  0  0  0  0  0  0  0  0
   28.1982  -21.7881  -16.8705 N   0  0  0  0  0  0  0  0  0  0  0  0
   27.7875  -20.9757  -14.6834 C   0  0  0  0  0  0  0  0  0  0  0  0
   27.1218  -22.0454  -14.4128 O   0  0  0  0  0  0  0  0  0  0  0  0
   30.5126  -22.7210  -11.1824 C   0  0  0  0  0  0  0  0  0  0  0  0
   30.5986  -21.2792  -11.7317 C   0  0  2  0  0  0  0  0  0  0  0  0
   31.8535  -20.7061  -11.1491 C   0  0  0  0  0  0  0  0  0  0  0  0
   29.3586  -20.5282  -11.4305 C   0  0  0  0  0  0  0  0  0  0  0  0
   28.1307  -20.8829  -12.1878 C   0  0  2  0  0  0  0  0  0  0  0  0
   28.3309  -20.3433  -13.5569 N   0  0  0  0  0  0  0  0  0  0  0  0
   26.8630  -20.3723  -11.6907 C   0  0  0  0  0  0  0  0  0  0  0  0
   26.3480  -19.3779  -12.3159 O   0  0  0  0  0  0  0  0  0  0  0  0
   23.3526  -20.1612  -13.9466 C   0  0  0  0  0  0  0  0  0  0  0  0
   24.2055  -19.8294  -12.7458 C   0  0  0  0  0  0  0  0  0  0  0  0
   23.8659  -20.6525  -11.5322 C   0  0  2  0  0  0  0  0  0  0  0  0
   22.4103  -20.5672  -11.2252 C   0  0  0  0  0  0  0  0  0  0  0  0
   24.7635  -20.4032  -10.3505 C   0  0  2  0  0  0  0  0  0  0  0  0
   26.1173  -20.8361  -10.5992 N   0  0  0  0  0  0  0  0  0  0  0  0
   24.2363  -20.9048   -9.0610 C   0  0  0  0  0  0  0  0  0  0  0  0
   24.8963  -21.9086   -8.3233 O   0  0  0  0  0  0  0  0  0  0  0  0
   23.1827  -20.4969   -8.5164 O   0  0  0  0  0  0  0  0  0  0  0  0
  2  1  1  0
  3  2  1  0
  3  4  1  1
  5  7  1  0
  5  3  1  0
  5  6  1  6
  7  8  2  0
 10  9  1  1
 11 10  1  0
 12 10  1  0
 13 12  1  1
 14 13  1  0
 14  7  1  0
 15 13  1  0
 15 16  2  0
 17 18  1  0
 18 19  1  0
 19 21  1  0
 19 20  1  1
 21 22  1  6
 21 23  1  0
 22 15  1  0
 23 24  1  0
 25 23  2  0
M  END
$$$$
