ILI.pdb
     RDKit          3D

 25 24  0  0  1  0  0  0  0  0999 V2000
   21.5490  -20.9726  -15.7090 C   0  0  0  0  0  0  0  0  0  0  0  0
   21.5221  -20.8601  -14.2095 C   0  0  0  0  0  0  0  0  0  0  0  0
   22.8751  -21.1495  -13.6496 C   0  0  2  0  0  0  0  0  0  0  0  0
   23.3855  -22.5127  -14.1389 C   0  0  0  0  0  0  0  0  0  0  0  0
   22.9469  -21.1251  -12.1369 C   0  0  2  0  0  0  0  0  0  0  0  0
   22.4622  -19.7807  -11.7180 N   0  0  0  0  0  0  0  0  0  0  0  0
   24.3115  -21.2560  -11.5913 C   0  0  0  0  0  0  0  0  0  0  0  0
   24.8720  -22.4163  -11.6051 O   0  0  0  0  0  0  0  0  0  0  0  0
   28.2438  -21.4464  -12.9322 C   0  0  0  0  0  0  0  0  0  0  0  0
   27.5654  -20.0610  -12.8404 C   0  0  2  0  0  0  0  0  0  0  0  0
   28.4238  -19.1434  -13.6550 C   0  0  0  0  0  0  0  0  0  0  0  0
   27.3744  -19.6631  -11.4270 C   0  0  0  0  0  0  0  0  0  0  0  0
   26.4968  -20.5109  -10.5795 C   0  0  2  0  0  0  0  0  0  0  0  0
   25.1106  -20.2446  -11.0410 N   0  0  0  0  0  0  0  0  0  0  0  0
   26.5356  -20.2927   -9.1423 C   0  0  0  0  0  0  0  0  0  0  0  0
   25.5417  -19.6743   -8.6180 O   0  0  0  0  0  0  0  0  0  0  0  0
   29.4919  -21.4985   -3.7584 C   0  0  0  0  0  0  0  0  0  0  0  0
   28.4556  -20.7479   -4.5598 C   0  0  0  0  0  0  0  0  0  0  0  0
   28.5411  -21.0167   -6.0384 C   0  0  2  0  0  0  0  0  0  0  0  0
   29.9450  -20.8843   -6.5200 C   0  0  0  0  0  0  0  0  0  0  0  0
   27.5311  -20.2613   -6.8591 C   0  0  2  0  0  0  0  0  0  0  0  0
   27.5350  -20.6796   -8.2400 N   0  0  0  0  0  0  0  0  0  0  0  0
   27.5967  -18.7894   -6.7129 C   0  0  0  0  0  0  0  0  0  0  0  0
   28.1323  -17.9613   -7.7203 O   0  0  0  0  0  0  0  0  0  0  0  0
   27.1940  -18.1557   -5.7082 O   0  0  0  0  0  0  0  0  0  0  0  0
  2  1  1  0
  3  2  1  0
  3  4  1  1
  5  7  1  0
  5  3  1  0
  5  6  1  6
  7  8  2  0
 10  9  1  1
 11 10  1  0
 12 10  1  0
 13 12  1  6
 14 13  1  0
 14  7  1  0
 15 13  1  0
 15 16  2  0
 17 18  1  0
 18 19  1  0
 19 21  1  0
 19 20  1  6
 21 22  1  6
 21 23  1  0
 22 15  1  0
 23 24  1  0
 25 23  2  0
M  END
$$$$
