ILI.pdb
     RDKit          3D

 25 24  0  0  1  0  0  0  0  0999 V2000
   21.1860  -18.6775  -12.8366 C   0  0  0  0  0  0  0  0  0  0  0  0
   20.9375  -20.1180  -12.4828 C   0  0  0  0  0  0  0  0  0  0  0  0
   22.0645  -20.6449  -11.6582 C   0  0  2  0  0  0  0  0  0  0  0  0
   22.1515  -19.9006  -10.3178 C   0  0  0  0  0  0  0  0  0  0  0  0
   23.4194  -20.5796  -12.3320 C   0  0  2  0  0  0  0  0  0  0  0  0
   23.3621  -21.5304  -13.4767 N   0  0  0  0  0  0  0  0  0  0  0  0
   24.5414  -21.0271  -11.4847 C   0  0  0  0  0  0  0  0  0  0  0  0
   24.5632  -22.2529  -11.0878 O   0  0  0  0  0  0  0  0  0  0  0  0
   30.3583  -21.0725  -11.6665 C   0  0  0  0  0  0  0  0  0  0  0  0
   29.2141  -21.3510  -10.6660 C   0  0  2  0  0  0  0  0  0  0  0  0
   29.2435  -22.8295  -10.4300 C   0  0  0  0  0  0  0  0  0  0  0  0
   27.9307  -20.8150  -11.1741 C   0  0  0  0  0  0  0  0  0  0  0  0
   26.7486  -20.8760  -10.2764 C   0  0  2  0  0  0  0  0  0  0  0  0
   25.6304  -20.2654  -11.0395 N   0  0  0  0  0  0  0  0  0  0  0  0
   26.8394  -20.1903   -8.9973 C   0  0  0  0  0  0  0  0  0  0  0  0
   26.3930  -18.9890   -8.9452 O   0  0  0  0  0  0  0  0  0  0  0  0
   26.7155  -22.3300   -3.8106 C   0  0  0  0  0  0  0  0  0  0  0  0
   26.5013  -21.4378   -5.0096 C   0  0  0  0  0  0  0  0  0  0  0  0
   27.7205  -20.6346   -5.3759 C   0  0  2  0  0  0  0  0  0  0  0  0
   28.2056  -19.8465   -4.2081 C   0  0  0  0  0  0  0  0  0  0  0  0
   27.5719  -19.8365   -6.6429 C   0  0  2  0  0  0  0  0  0  0  0  0
   27.3586  -20.6818   -7.7925 N   0  0  0  0  0  0  0  0  0  0  0  0
   28.6384  -18.8341   -6.8670 C   0  0  0  0  0  0  0  0  0  0  0  0
   28.5080  -17.4962   -6.4421 O   0  0  0  0  0  0  0  0  0  0  0  0
   29.7287  -19.0714   -7.4395 O   0  0  0  0  0  0  0  0  0  0  0  0
  2  1  1  0
  3  2  1  0
  3  4  1  1
  5  7  1  0
  5  3  1  0
  5  6  1  6
  7  8  2  0
 10  9  1  6
 11 10  1  0
 12 10  1  0
 13 12  1  6
 14 13  1  0
 14  7  1  0
 15 13  1  0
 15 16  2  0
 17 18  1  0
 18 19  1  0
 19 21  1  0
 19 20  1  1
 21 22  1  6
 21 23  1  0
 22 15  1  0
 23 24  1  0
 25 23  2  0
M  END
$$$$
