ILI.pdb
     RDKit          3D

 25 24  0  0  1  0  0  0  0  0999 V2000
   33.2192  -22.6612   -9.5042 C   0  0  0  0  0  0  0  0  0  0  0  0
   32.6816  -22.8299  -10.8987 C   0  0  0  0  0  0  0  0  0  0  0  0
   31.4758  -21.9714  -11.0904 C   0  0  2  0  0  0  0  0  0  0  0  0
   30.3681  -22.3615  -10.1009 C   0  0  0  0  0  0  0  0  0  0  0  0
   30.9002  -22.0011  -12.4911 C   0  0  2  0  0  0  0  0  0  0  0  0
   31.9971  -21.5712  -13.4019 N   0  0  0  0  0  0  0  0  0  0  0  0
   29.7905  -21.0540  -12.7120 C   0  0  0  0  0  0  0  0  0  0  0  0
   30.0174  -19.7940  -12.5654 O   0  0  0  0  0  0  0  0  0  0  0  0
   25.3926  -19.4660  -16.2706 C   0  0  0  0  0  0  0  0  0  0  0  0
   25.8331  -19.3044  -14.7983 C   0  0  2  0  0  0  0  0  0  0  0  0
   26.0551  -17.8356  -14.6087 C   0  0  0  0  0  0  0  0  0  0  0  0
   27.0005  -20.1659  -14.5024 C   0  0  0  0  0  0  0  0  0  0  0  0
   27.4075  -20.3200  -13.0819 C   0  0  2  0  0  0  0  0  0  0  0  0
   28.4716  -21.3560  -13.0771 N   0  0  0  0  0  0  0  0  0  0  0  0
   26.3865  -20.7282  -12.1303 C   0  0  0  0  0  0  0  0  0  0  0  0
   26.0865  -21.9746  -12.0938 O   0  0  0  0  0  0  0  0  0  0  0  0
   26.8744  -19.6313   -7.1375 C   0  0  0  0  0  0  0  0  0  0  0  0
   26.5108  -20.2760   -8.4535 C   0  0  0  0  0  0  0  0  0  0  0  0
   25.0840  -20.0252   -8.8620 C   0  0  2  0  0  0  0  0  0  0  0  0
   24.1402  -20.5277   -7.8243 C   0  0  0  0  0  0  0  0  0  0  0  0
   24.7590  -20.4703  -10.2622 C   0  0  2  0  0  0  0  0  0  0  0  0
   25.6772  -19.9218  -11.2307 N   0  0  0  0  0  0  0  0  0  0  0  0
   23.3435  -20.2829  -10.6542 C   0  0  0  0  0  0  0  0  0  0  0  0
   22.3638  -21.2668  -10.4102 O   0  0  0  0  0  0  0  0  0  0  0  0
   22.8927  -19.2609  -11.2245 O   0  0  0  0  0  0  0  0  0  0  0  0
  2  1  1  0
  3  2  1  0
  3  4  1  1
  5  7  1  0
  5  3  1  0
  5  6  1  6
  7  8  2  0
 10  9  1  6
 11 10  1  0
 12 10  1  0
 13 12  1  6
 14 13  1  0
 14  7  1  0
 15 13  1  0
 15 16  2  0
 17 18  1  0
 18 19  1  0
 19 21  1  0
 19 20  1  1
 21 22  1  6
 21 23  1  0
 22 15  1  0
 23 24  1  0
 25 23  2  0
M  END
$$$$
