ILI.pdb
     RDKit          3D

 25 24  0  0  1  0  0  0  0  0999 V2000
   28.6271  -21.6475  -16.5347 C   0  0  0  0  0  0  0  0  0  0  0  0
   27.3029  -22.3242  -16.7602 C   0  0  0  0  0  0  0  0  0  0  0  0
   26.2176  -21.5705  -16.0661 C   0  0  2  0  0  0  0  0  0  0  0  0
   26.5261  -21.4295  -14.5683 C   0  0  0  0  0  0  0  0  0  0  0  0
   24.8375  -22.1760  -16.2168 C   0  0  2  0  0  0  0  0  0  0  0  0
   24.5950  -22.3021  -17.6806 N   0  0  0  0  0  0  0  0  0  0  0  0
   23.7445  -21.3348  -15.6923 C   0  0  0  0  0  0  0  0  0  0  0  0
   23.6650  -21.1510  -14.4193 O   0  0  0  0  0  0  0  0  0  0  0  0
   22.5227  -17.1348  -14.7635 C   0  0  0  0  0  0  0  0  0  0  0  0
   22.5768  -17.5782  -16.2429 C   0  0  2  0  0  0  0  0  0  0  0  0
   22.4237  -16.3201  -17.0407 C   0  0  0  0  0  0  0  0  0  0  0  0
   21.5678  -18.6276  -16.5132 C   0  0  0  0  0  0  0  0  0  0  0  0
   21.6715  -19.9020  -15.7566 C   0  0  2  0  0  0  0  0  0  0  0  0
   22.7440  -20.6820  -16.4251 N   0  0  0  0  0  0  0  0  0  0  0  0
   20.4870  -20.7428  -15.6900 C   0  0  0  0  0  0  0  0  0  0  0  0
   20.2690  -21.5250  -16.6827 O   0  0  0  0  0  0  0  0  0  0  0  0
   19.1299  -24.6722  -12.6165 C   0  0  0  0  0  0  0  0  0  0  0  0
   19.2630  -23.6608  -13.7295 C   0  0  0  0  0  0  0  0  0  0  0  0
   18.1855  -22.6100  -13.7074 C   0  0  2  0  0  0  0  0  0  0  0  0
   16.8365  -23.2370  -13.6211 C   0  0  0  0  0  0  0  0  0  0  0  0
   18.3178  -21.5721  -14.7888 C   0  0  2  0  0  0  0  0  0  0  0  0
   19.5376  -20.8118  -14.6621 N   0  0  0  0  0  0  0  0  0  0  0  0
   17.1275  -20.7086  -14.9616 C   0  0  0  0  0  0  0  0  0  0  0  0
   16.0489  -21.0796  -15.7901 O   0  0  0  0  0  0  0  0  0  0  0  0
   16.9685  -19.5965  -14.4040 O   0  0  0  0  0  0  0  0  0  0  0  0
  2  1  1  0
  3  2  1  0
  3  4  1  1
  5  7  1  0
  5  3  1  0
  5  6  1  6
  7  8  2  0
 10  9  1  1
 11 10  1  0
 12 10  1  0
 13 12  1  6
 14 13  1  0
 14  7  1  0
 15 13  1  0
 15 16  2  0
 17 18  1  0
 18 19  1  0
 19 21  1  0
 19 20  1  6
 21 22  1  1
 21 23  1  0
 22 15  1  0
 23 24  1  0
 25 23  2  0
M  END
$$$$
