ILI.pdb
     RDKit          3D

 25 24  0  0  1  0  0  0  0  0999 V2000
   19.7096  -19.3284  -13.2609 C   0  0  0  0  0  0  0  0  0  0  0  0
   21.0886  -19.5767  -13.8074 C   0  0  0  0  0  0  0  0  0  0  0  0
   21.9427  -20.2238  -12.7684 C   0  0  2  0  0  0  0  0  0  0  0  0
   22.0176  -19.3520  -11.5064 C   0  0  0  0  0  0  0  0  0  0  0  0
   23.3541  -20.5354  -13.2208 C   0  0  2  0  0  0  0  0  0  0  0  0
   23.2288  -21.5254  -14.3261 N   0  0  0  0  0  0  0  0  0  0  0  0
   24.1945  -21.1764  -12.1912 C   0  0  0  0  0  0  0  0  0  0  0  0
   23.9936  -22.4196  -11.9182 O   0  0  0  0  0  0  0  0  0  0  0  0
   29.2277  -21.4309  -12.8913 C   0  0  0  0  0  0  0  0  0  0  0  0
   28.1121  -20.7941  -12.0323 C   0  0  2  0  0  0  0  0  0  0  0  0
   28.8215  -19.9255  -11.0399 C   0  0  0  0  0  0  0  0  0  0  0  0
   27.2373  -21.8378  -11.4509 C   0  0  0  0  0  0  0  0  0  0  0  0
   26.1185  -21.3986  -10.5777 C   0  0  2  0  0  0  0  0  0  0  0  0
   25.2244  -20.5888  -11.4439 N   0  0  0  0  0  0  0  0  0  0  0  0
   26.4509  -20.5971   -9.4108 C   0  0  0  0  0  0  0  0  0  0  0  0
   26.1986  -19.3411   -9.4733 O   0  0  0  0  0  0  0  0  0  0  0  0
   24.6832  -21.5037   -4.5053 C   0  0  0  0  0  0  0  0  0  0  0  0
   25.1933  -20.8832   -5.7838 C   0  0  0  0  0  0  0  0  0  0  0  0
   26.6886  -20.7120   -5.8039 C   0  0  2  0  0  0  0  0  0  0  0  0
   27.1575  -20.0103   -4.5758 C   0  0  0  0  0  0  0  0  0  0  0  0
   27.2235  -20.1376   -7.0876 C   0  0  2  0  0  0  0  0  0  0  0  0
   27.0191  -21.0276   -8.2047 N   0  0  0  0  0  0  0  0  0  0  0  0
   28.6162  -19.6414   -7.0062 C   0  0  0  0  0  0  0  0  0  0  0  0
   28.9329  -18.3941   -6.4307 O   0  0  0  0  0  0  0  0  0  0  0  0
   29.6192  -20.2647   -7.4289 O   0  0  0  0  0  0  0  0  0  0  0  0
  2  1  1  0
  3  2  1  0
  3  4  1  1
  5  7  1  0
  5  3  1  0
  5  6  1  6
  7  8  2  0
 10  9  1  1
 11 10  1  0
 12 10  1  0
 13 12  1  6
 14 13  1  0
 14  7  1  0
 15 13  1  0
 15 16  2  0
 17 18  1  0
 18 19  1  0
 19 21  1  0
 19 20  1  1
 21 22  1  6
 21 23  1  0
 22 15  1  0
 23 24  1  0
 25 23  2  0
M  END
$$$$
