RIH.pdb
     RDKit          3D

 30 30  0  0  1  0  0  0  0  0999 V2000
   29.5113  -21.9847  -18.0893 N   0  0  0  0  0  0  0  0  0  0  0  0
   30.0371  -20.7159  -18.4998 C   0  0  0  0  0  0  0  0  0  0  0  0
   30.5245  -20.5926  -19.6680 N   0  0  0  0  0  0  0  0  0  0  0  0
   29.9963  -19.6254  -17.5807 N   0  0  0  0  0  0  0  0  0  0  0  0
   28.7410  -18.9914  -17.3314 C   0  0  0  0  0  0  0  0  0  0  0  0
   27.6103  -19.7681  -16.8260 C   0  0  0  0  0  0  0  0  0  0  0  0
   27.2150  -19.8356  -15.4252 C   0  0  0  0  0  0  0  0  0  0  0  0
   27.8881  -20.8354  -14.5609 C   0  0  2  0  0  0  0  0  0  0  0  0
   28.2370  -22.0051  -15.3022 N   0  0  0  0  0  0  0  0  0  0  0  0
   26.9223  -21.2810  -13.4577 C   0  0  0  0  0  0  0  0  0  0  0  0
   26.0268  -22.0545  -13.8013 O   0  0  0  0  0  0  0  0  0  0  0  0
   31.0428  -19.7813  -20.0239 C   0  0  0  0  0  0  0  0  0  0  0  0
   26.2599  -20.5480   -7.3149 C   0  0  0  0  0  0  0  0  0  0  0  0
   25.6393  -21.1517   -8.5890 C   0  0  2  0  0  0  0  0  0  0  0  0
   26.5458  -20.8146   -9.7036 C   0  0  0  0  0  0  0  0  0  0  0  0
   26.8384  -19.3083   -9.5982 C   0  0  2  0  0  0  0  0  0  0  0  0
   26.1013  -21.0528  -11.0894 N   0  0  0  0  0  0  0  0  0  0  0  0
   27.0688  -20.8193  -12.1297 C   0  0  0  0  0  0  0  0  0  0  0  0
   24.7262  -20.5959  -11.4245 O   0  0  0  0  0  0  0  0  0  0  0  0
   24.5077  -19.4594  -11.9359 N   0  0  0  0  0  0  0  0  0  0  0  0
   23.6015  -21.4020  -11.1866 C   0  0  1  0  0  0  0  0  0  0  0  0
   22.2645  -21.1125  -11.6650 C   0  0  0  0  0  0  0  0  0  0  0  0
   21.8620  -21.9188  -12.8339 C   0  0  0  0  0  0  0  0  0  0  0  0
   20.5025  -21.5646  -13.2714 C   0  0  0  0  0  0  0  0  0  0  0  0
   19.3407  -22.1774  -12.8087 N   0  0  0  0  0  0  0  0  0  0  0  0
   18.2683  -21.6233  -13.4055 C   0  0  0  0  0  0  0  0  0  0  0  0
   18.7282  -20.6741  -14.2348 N   0  0  0  0  0  0  0  0  0  0  0  0
   20.0671  -20.6474  -14.1464 C   0  0  0  0  0  0  0  0  0  0  0  0
   21.2873  -21.2587  -10.5664 O   0  0  0  0  0  0  0  0  0  0  0  0
   21.7334  -21.8026   -9.3420 O   0  0  0  0  0  0  0  0  0  0  0  0
  1  2  1  0
  2  4  1  0
  2  3  2  0
  4  5  1  0
  5  6  1  0
  7  8  1  0
  7  6  1  0
  8 10  1  0
  8  9  1  6
 10 11  2  0
 12 13  1  0
 14 13  1  0
 14 16  1  0
 14 15  1  6
 16 18  1  0
 16 17  1  6
 17 10  1  0
 18 20  1  0
 19 18  2  0
 20 21  1  0
 21 22  1  1
 22 23  1  0
 23 24  2  0
 24 25  1  0
 26 25  1  0
 27 23  1  0
 27 26  2  0
 28 29  1  0
 28 21  1  0
 30 28  2  0
M  END
$$$$
