RIH.pdb
     RDKit          3D

 30 30  0  0  1  0  0  0  0  0999 V2000
   23.3414  -26.9558  -15.5962 N   0  0  0  0  0  0  0  0  0  0  0  0
   22.1161  -26.2254  -15.7366 C   0  0  0  0  0  0  0  0  0  0  0  0
   21.0221  -26.7722  -15.3882 N   0  0  0  0  0  0  0  0  0  0  0  0
   22.1626  -24.9006  -16.2646 N   0  0  0  0  0  0  0  0  0  0  0  0
   23.0058  -23.9416  -15.6250 C   0  0  0  0  0  0  0  0  0  0  0  0
   22.8700  -23.6793  -14.1933 C   0  0  0  0  0  0  0  0  0  0  0  0
   23.4795  -22.5529  -13.4985 C   0  0  0  0  0  0  0  0  0  0  0  0
   24.6001  -21.8481  -14.1674 C   0  0  2  0  0  0  0  0  0  0  0  0
   25.8196  -22.0174  -13.4439 N   0  0  0  0  0  0  0  0  0  0  0  0
   24.3059  -20.3445  -14.1955 C   0  0  0  0  0  0  0  0  0  0  0  0
   24.0853  -19.8149  -13.1050 O   0  0  0  0  0  0  0  0  0  0  0  0
   20.0834  -26.3736  -15.5048 C   0  0  0  0  0  0  0  0  0  0  0  0
   26.6153  -16.6931  -17.9502 C   0  0  0  0  0  0  0  0  0  0  0  0
   25.5207  -17.7020  -17.5538 C   0  0  2  0  0  0  0  0  0  0  0  0
   25.1796  -17.4265  -16.1448 C   0  0  0  0  0  0  0  0  0  0  0  0
   26.4514  -17.6882  -15.3204 C   0  0  1  0  0  0  0  0  0  0  0  0
   24.1033  -18.2018  -15.5005 N   0  0  0  0  0  0  0  0  0  0  0  0
   24.2936  -19.6262  -15.4130 C   0  0  0  0  0  0  0  0  0  0  0  0
   22.7122  -17.7938  -15.8327 O   0  0  0  0  0  0  0  0  0  0  0  0
   21.9403  -18.5408  -16.5013 N   0  0  0  0  0  0  0  0  0  0  0  0
   22.1874  -16.5573  -15.4237 C   0  0  1  0  0  0  0  0  0  0  0  0
   20.8248  -16.1228  -15.6578 C   0  0  0  0  0  0  0  0  0  0  0  0
   20.4473  -14.9119  -14.9031 C   0  0  0  0  0  0  0  0  0  0  0  0
   19.0391  -14.5613  -15.1459 C   0  0  0  0  0  0  0  0  0  0  0  0
   18.5724  -13.9202  -16.2908 N   0  0  0  0  0  0  0  0  0  0  0  0
   17.2403  -13.7457  -16.2005 C   0  0  0  0  0  0  0  0  0  0  0  0
   16.8562  -14.2627  -15.0234 N   0  0  0  0  0  0  0  0  0  0  0  0
   17.9411  -14.7483  -14.4004 C   0  0  0  0  0  0  0  0  0  0  0  0
   20.5923  -15.9320  -17.1045 O   0  0  0  0  0  0  0  0  0  0  0  0
   19.3562  -16.3497  -17.6444 O   0  0  0  0  0  0  0  0  0  0  0  0
  1  2  1  0
  2  4  1  0
  2  3  2  0
  4  5  1  0
  5  6  1  0
  7  8  1  0
  7  6  1  0
  8 10  1  0
  8  9  1  1
 10 11  2  0
 12 13  1  0
 14 13  1  0
 14 16  1  0
 14 15  1  1
 16 18  1  0
 16 17  1  6
 17 10  1  0
 18 20  1  0
 19 18  2  0
 20 21  1  0
 21 22  1  6
 22 23  1  0
 23 24  2  0
 24 25  1  0
 26 25  1  0
 27 23  1  0
 27 26  2  0
 28 29  1  0
 28 21  1  0
 30 28  2  0
M  END
$$$$
