RIH.pdb
     RDKit          3D

 30 30  0  0  1  0  0  0  0  0999 V2000
   34.4252  -29.3639  -19.5672 N   0  0  0  0  0  0  0  0  0  0  0  0
   34.0882  -28.5933  -18.4064 C   0  0  0  0  0  0  0  0  0  0  0  0
   34.4482  -27.3753  -18.3418 N   0  0  0  0  0  0  0  0  0  0  0  0
   33.3547  -29.2198  -17.3551 N   0  0  0  0  0  0  0  0  0  0  0  0
   33.0384  -30.6071  -17.4780 C   0  0  0  0  0  0  0  0  0  0  0  0
   31.8079  -31.0262  -18.1467 C   0  0  0  0  0  0  0  0  0  0  0  0
   30.4835  -30.9855  -17.5407 C   0  0  0  0  0  0  0  0  0  0  0  0
   30.0693  -32.1340  -16.6986 C   0  0  2  0  0  0  0  0  0  0  0  0
   30.6846  -33.3446  -17.1403 N   0  0  0  0  0  0  0  0  0  0  0  0
   28.5553  -32.3335  -16.8262 C   0  0  0  0  0  0  0  0  0  0  0  0
   28.1854  -33.1472  -17.6744 O   0  0  0  0  0  0  0  0  0  0  0  0
   34.3292  -26.7521  -17.5349 C   0  0  0  0  0  0  0  0  0  0  0  0
   25.2914  -34.2821  -13.3141 C   0  0  0  0  0  0  0  0  0  0  0  0
   26.1079  -33.8297  -14.5395 C   0  0  2  0  0  0  0  0  0  0  0  0
   25.6057  -32.4936  -14.9145 C   0  0  0  0  0  0  0  0  0  0  0  0
   24.1188  -32.6616  -15.2701 C   0  0  2  0  0  0  0  0  0  0  0  0
   26.2243  -31.7856  -16.0506 N   0  0  0  0  0  0  0  0  0  0  0  0
   27.6533  -31.6157  -16.0080 C   0  0  0  0  0  0  0  0  0  0  0  0
   25.4865  -30.6014  -16.5654 O   0  0  0  0  0  0  0  0  0  0  0  0
   25.7085  -29.4355  -16.1268 N   0  0  0  0  0  0  0  0  0  0  0  0
   24.5040  -30.7188  -17.5616 C   0  0  2  0  0  0  0  0  0  0  0  0
   23.8055  -29.6018  -18.1654 C   0  0  0  0  0  0  0  0  0  0  0  0
   23.2825  -28.6272  -17.1882 C   0  0  0  0  0  0  0  0  0  0  0  0
   22.2188  -29.2276  -16.3678 C   0  0  0  0  0  0  0  0  0  0  0  0
   21.3515  -30.2245  -16.8078 N   0  0  0  0  0  0  0  0  0  0  0  0
   20.4996  -30.5524  -15.8179 C   0  0  0  0  0  0  0  0  0  0  0  0
   20.8105  -29.7841  -14.7627 N   0  0  0  0  0  0  0  0  0  0  0  0
   21.8412  -28.9948  -15.1030 C   0  0  0  0  0  0  0  0  0  0  0  0
   24.6735  -28.9344  -19.1576 O   0  0  0  0  0  0  0  0  0  0  0  0
   24.1746  -27.7933  -19.8231 O   0  0  0  0  0  0  0  0  0  0  0  0
  1  2  1  0
  2  4  1  0
  2  3  2  0
  4  5  1  0
  5  6  1  0
  7  8  1  0
  7  6  1  0
  8 10  1  0
  8  9  1  6
 10 11  2  0
 12 13  1  0
 14 13  1  0
 14 16  1  0
 14 15  1  1
 16 18  1  0
 16 17  1  6
 17 10  1  0
 18 20  1  0
 19 18  2  0
 20 21  1  0
 21 22  1  1
 22 23  1  0
 23 24  2  0
 24 25  1  0
 26 25  1  0
 27 23  1  0
 27 26  2  0
 28 29  1  0
 28 21  1  0
 30 28  2  0
M  END
$$$$
