RIH.pdb
     RDKit          3D

 30 30  0  0  1  0  0  0  0  0999 V2000
   26.6007  -18.2194  -15.4634 N   0  0  0  0  0  0  0  0  0  0  0  0
   27.2456  -17.0465  -15.9764 C   0  0  0  0  0  0  0  0  0  0  0  0
   27.9615  -17.1375  -17.0236 N   0  0  0  0  0  0  0  0  0  0  0  0
   27.0625  -15.8073  -15.2934 N   0  0  0  0  0  0  0  0  0  0  0  0
   25.7978  -15.1521  -15.3984 C   0  0  0  0  0  0  0  0  0  0  0  0
   25.6162  -14.0461  -16.3369 C   0  0  0  0  0  0  0  0  0  0  0  0
   24.4117  -13.2316  -16.4305 C   0  0  0  0  0  0  0  0  0  0  0  0
   23.1231  -13.9229  -16.6783 C   0  0  2  0  0  0  0  0  0  0  0  0
   23.1409  -14.6121  -17.9289 N   0  0  0  0  0  0  0  0  0  0  0  0
   22.0001  -12.8835  -16.7605 C   0  0  0  0  0  0  0  0  0  0  0  0
   22.0442  -12.1127  -17.7208 O   0  0  0  0  0  0  0  0  0  0  0  0
   28.5309  -16.3881  -17.4332 C   0  0  0  0  0  0  0  0  0  0  0  0
   18.4635  -14.8417  -15.8085 C   0  0  0  0  0  0  0  0  0  0  0  0
   17.9945  -13.4973  -16.3964 C   0  0  2  0  0  0  0  0  0  0  0  0
   18.5449  -12.4390  -15.5275 C   0  0  0  0  0  0  0  0  0  0  0  0
   17.5739  -11.2488  -15.6077 C   0  0  2  0  0  0  0  0  0  0  0  0
   19.8861  -11.8976  -15.8150 N   0  0  0  0  0  0  0  0  0  0  0  0
   20.9825  -12.8300  -15.7807 C   0  0  0  0  0  0  0  0  0  0  0  0
   20.1983  -10.5702  -15.2214 O   0  0  0  0  0  0  0  0  0  0  0  0
   20.7018  -10.4586  -14.0660 N   0  0  0  0  0  0  0  0  0  0  0  0
   19.9466   -9.3742  -15.9127 C   0  0  1  0  0  0  0  0  0  0  0  0
   20.1222   -8.0480  -15.3554 C   0  0  0  0  0  0  0  0  0  0  0  0
   21.1041   -7.2208  -16.0832 C   0  0  0  0  0  0  0  0  0  0  0  0
   21.2107   -5.8826  -15.4806 C   0  0  0  0  0  0  0  0  0  0  0  0
   22.0530   -5.5608  -14.4193 N   0  0  0  0  0  0  0  0  0  0  0  0
   21.9110   -4.2585  -14.1077 C   0  0  0  0  0  0  0  0  0  0  0  0
   20.9972   -3.7516  -14.9494 N   0  0  0  0  0  0  0  0  0  0  0  0
   20.5848   -4.7326  -15.7670 C   0  0  0  0  0  0  0  0  0  0  0  0
   18.8194   -7.3567  -15.2651 O   0  0  0  0  0  0  0  0  0  0  0  0
   18.5290   -6.6268  -14.0916 O   0  0  0  0  0  0  0  0  0  0  0  0
  1  2  1  0
  2  4  1  0
  2  3  2  0
  4  5  1  0
  5  6  1  0
  7  8  1  0
  7  6  1  0
  8 10  1  0
  8  9  1  6
 10 11  2  0
 12 13  1  0
 14 13  1  0
 14 16  1  0
 14 15  1  6
 16 18  1  0
 16 17  1  6
 17 10  1  0
 18 20  1  0
 19 18  2  0
 20 21  1  0
 21 22  1  1
 22 23  1  0
 23 24  2  0
 24 25  1  0
 26 25  1  0
 27 23  1  0
 27 26  2  0
 28 29  1  0
 28 21  1  0
 30 28  2  0
M  END
$$$$
