RIH.pdb
     RDKit          3D

 30 30  0  0  1  0  0  0  0  0999 V2000
   28.6021  -28.8531  -16.9266 N   0  0  0  0  0  0  0  0  0  0  0  0
   28.0056  -28.5811  -18.2013 C   0  0  0  0  0  0  0  0  0  0  0  0
   27.3447  -29.4961  -18.7873 N   0  0  0  0  0  0  0  0  0  0  0  0
   28.1720  -27.2855  -18.7754 N   0  0  0  0  0  0  0  0  0  0  0  0
   28.9037  -26.3036  -18.0403 C   0  0  0  0  0  0  0  0  0  0  0  0
   28.3710  -25.7729  -16.7866 C   0  0  0  0  0  0  0  0  0  0  0  0
   27.8053  -24.4396  -16.6283 C   0  0  0  0  0  0  0  0  0  0  0  0
   28.7010  -23.2758  -16.8357 C   0  0  2  0  0  0  0  0  0  0  0  0
   30.0363  -23.5747  -16.4270 N   0  0  0  0  0  0  0  0  0  0  0  0
   28.2217  -22.1084  -15.9664 C   0  0  0  0  0  0  0  0  0  0  0  0
   28.4874  -22.1822  -14.7654 O   0  0  0  0  0  0  0  0  0  0  0  0
   26.9704  -29.4541  -19.7421 C   0  0  0  0  0  0  0  0  0  0  0  0
   27.6412  -16.1603  -16.0203 C   0  0  0  0  0  0  0  0  0  0  0  0
   26.9506  -17.3960  -15.4129 C   0  0  2  0  0  0  0  0  0  0  0  0
   27.4155  -18.5646  -16.1850 C   0  0  0  0  0  0  0  0  0  0  0  0
   26.8951  -18.3839  -17.6210 C   0  0  2  0  0  0  0  0  0  0  0  0
   27.0024  -19.9159  -15.7633 N   0  0  0  0  0  0  0  0  0  0  0  0
   27.5174  -21.0201  -16.5302 C   0  0  0  0  0  0  0  0  0  0  0  0
   25.5802  -20.0695  -15.3561 O   0  0  0  0  0  0  0  0  0  0  0  0
   24.6798  -20.3863  -16.1866 N   0  0  0  0  0  0  0  0  0  0  0  0
   25.1655  -19.8670  -14.0300 C   0  0  2  0  0  0  0  0  0  0  0  0
   23.8030  -20.0203  -13.5605 C   0  0  0  0  0  0  0  0  0  0  0  0
   23.6227  -19.6855  -12.1345 C   0  0  0  0  0  0  0  0  0  0  0  0
   22.2262  -19.8939  -11.7201 C   0  0  0  0  0  0  0  0  0  0  0  0
   21.2259  -20.4001  -12.5464 N   0  0  0  0  0  0  0  0  0  0  0  0
   20.0663  -20.4654  -11.8651 C   0  0  0  0  0  0  0  0  0  0  0  0
   20.3131  -20.0113  -10.6268 N   0  0  0  0  0  0  0  0  0  0  0  0
   21.6093  -19.6721  -10.5511 C   0  0  0  0  0  0  0  0  0  0  0  0
   22.8815  -19.2316  -14.4044 O   0  0  0  0  0  0  0  0  0  0  0  0
   21.7401  -19.8749  -14.9310 O   0  0  0  0  0  0  0  0  0  0  0  0
  1  2  1  0
  2  4  1  0
  2  3  2  0
  4  5  1  0
  5  6  1  0
  7  8  1  0
  7  6  1  0
  8 10  1  0
  8  9  1  1
 10 11  2  0
 12 13  1  0
 14 13  1  0
 14 16  1  0
 14 15  1  1
 16 18  1  0
 16 17  1  1
 17 10  1  0
 18 20  1  0
 19 18  2  0
 20 21  1  0
 21 22  1  6
 22 23  1  0
 23 24  2  0
 24 25  1  0
 26 25  1  0
 27 23  1  0
 27 26  2  0
 28 29  1  0
 28 21  1  0
 30 28  2  0
M  END
$$$$
