RIH.pdb
     RDKit          3D

 30 30  0  0  1  0  0  0  0  0999 V2000
   26.6499  -18.8479  -21.4828 N   0  0  0  0  0  0  0  0  0  0  0  0
   25.4499  -19.6271  -21.5697 C   0  0  0  0  0  0  0  0  0  0  0  0
   24.5733  -19.3250  -22.4401 N   0  0  0  0  0  0  0  0  0  0  0  0
   25.2761  -20.7234  -20.6732 N   0  0  0  0  0  0  0  0  0  0  0  0
   25.4725  -20.4988  -19.2765 C   0  0  0  0  0  0  0  0  0  0  0  0
   26.8155  -20.2630  -18.7494 C   0  0  0  0  0  0  0  0  0  0  0  0
   27.1179  -19.9933  -17.3499 C   0  0  0  0  0  0  0  0  0  0  0  0
   27.5626  -21.1277  -16.5041 C   0  0  2  0  0  0  0  0  0  0  0  0
   27.7676  -22.3042  -17.2872 N   0  0  0  0  0  0  0  0  0  0  0  0
   26.4664  -21.4581  -15.4855 C   0  0  0  0  0  0  0  0  0  0  0  0
   25.8432  -22.5032  -15.6798 O   0  0  0  0  0  0  0  0  0  0  0  0
   23.7245  -19.8611  -22.6541 C   0  0  0  0  0  0  0  0  0  0  0  0
   25.5375  -20.9882   -9.5637 C   0  0  0  0  0  0  0  0  0  0  0  0
   24.7979  -21.2560  -10.8882 C   0  0  2  0  0  0  0  0  0  0  0  0
   25.7160  -20.8618  -11.9743 C   0  0  0  0  0  0  0  0  0  0  0  0
   26.1435  -19.4119  -11.6902 C   0  0  2  0  0  0  0  0  0  0  0  0
   25.2335  -20.8844  -13.3676 N   0  0  0  0  0  0  0  0  0  0  0  0
   26.2023  -20.5999  -14.3938 C   0  0  0  0  0  0  0  0  0  0  0  0
   23.8970  -20.2780  -13.6085 O   0  0  0  0  0  0  0  0  0  0  0  0
   23.4403  -19.3571  -12.8708 N   0  0  0  0  0  0  0  0  0  0  0  0
   23.0739  -20.7000  -14.6649 C   0  0  2  0  0  0  0  0  0  0  0  0
   21.7058  -21.1533  -14.5127 C   0  0  0  0  0  0  0  0  0  0  0  0
   21.5701  -22.3756  -13.6967 C   0  0  0  0  0  0  0  0  0  0  0  0
   20.1622  -22.7950  -13.6119 C   0  0  0  0  0  0  0  0  0  0  0  0
   19.0924  -22.0762  -14.1394 N   0  0  0  0  0  0  0  0  0  0  0  0
   17.9417  -22.7303  -13.8917 C   0  0  0  0  0  0  0  0  0  0  0  0
   18.2623  -23.8464  -13.2193 N   0  0  0  0  0  0  0  0  0  0  0  0
   19.5942  -23.8749  -13.0574 C   0  0  0  0  0  0  0  0  0  0  0  0
   20.8660  -20.0653  -13.9701 O   0  0  0  0  0  0  0  0  0  0  0  0
   21.4234  -19.2147  -12.9905 O   0  0  0  0  0  0  0  0  0  0  0  0
  1  2  1  0
  2  4  1  0
  2  3  2  0
  4  5  1  0
  5  6  1  0
  7  8  1  0
  7  6  1  0
  8 10  1  0
  8  9  1  6
 10 11  2  0
 12 13  1  0
 14 13  1  0
 14 16  1  0
 14 15  1  6
 16 18  1  0
 16 17  1  6
 17 10  1  0
 18 20  1  0
 19 18  2  0
 20 21  1  0
 21 22  1  1
 22 23  1  0
 23 24  2  0
 24 25  1  0
 26 25  1  0
 27 23  1  0
 27 26  2  0
 28 29  1  0
 28 21  1  0
 30 28  2  0
M  END
$$$$
