RIH.pdb
     RDKit          3D

 30 30  0  0  1  0  0  0  0  0999 V2000
   25.0635  -17.1653  -17.3233 N   0  0  0  0  0  0  0  0  0  0  0  0
   25.9989  -16.1464  -17.6995 C   0  0  0  0  0  0  0  0  0  0  0  0
   25.6544  -15.2702  -18.5545 N   0  0  0  0  0  0  0  0  0  0  0  0
   27.2933  -16.1464  -17.0993 N   0  0  0  0  0  0  0  0  0  0  0  0
   27.6587  -17.2490  -16.2682 C   0  0  0  0  0  0  0  0  0  0  0  0
   27.9404  -18.5560  -16.8592 C   0  0  0  0  0  0  0  0  0  0  0  0
   27.2522  -19.7896  -16.5021 C   0  0  0  0  0  0  0  0  0  0  0  0
   27.7001  -20.5074  -15.2840 C   0  0  2  0  0  0  0  0  0  0  0  0
   28.4862  -21.6513  -15.6203 N   0  0  0  0  0  0  0  0  0  0  0  0
   26.4743  -21.0203  -14.5207 C   0  0  0  0  0  0  0  0  0  0  0  0
   25.8892  -21.9833  -15.0194 O   0  0  0  0  0  0  0  0  0  0  0  0
   26.1959  -14.4397  -18.8203 C   0  0  0  0  0  0  0  0  0  0  0  0
   26.4709  -20.4332   -9.1520 C   0  0  0  0  0  0  0  0  0  0  0  0
   26.1994  -21.3124  -10.3874 C   0  0  2  0  0  0  0  0  0  0  0  0
   25.0338  -20.7266  -11.0775 C   0  0  0  0  0  0  0  0  0  0  0  0
   23.7839  -21.4068  -10.4938 C   0  0  2  0  0  0  0  0  0  0  0  0
   24.9268  -20.8539  -12.5427 N   0  0  0  0  0  0  0  0  0  0  0  0
   26.0567  -20.4094  -13.3163 C   0  0  0  0  0  0  0  0  0  0  0  0
   23.6086  -20.5050  -13.1366 O   0  0  0  0  0  0  0  0  0  0  0  0
   23.1232  -19.3403  -13.0438 N   0  0  0  0  0  0  0  0  0  0  0  0
   22.8355  -21.4523  -13.8269 C   0  0  1  0  0  0  0  0  0  0  0  0
   21.5184  -21.1983  -14.3758 C   0  0  0  0  0  0  0  0  0  0  0  0
   21.0910  -22.1893  -15.3825 C   0  0  0  0  0  0  0  0  0  0  0  0
   19.8211  -21.7867  -16.0074 C   0  0  0  0  0  0  0  0  0  0  0  0
   19.3485  -20.4777  -16.0599 N   0  0  0  0  0  0  0  0  0  0  0  0
   18.1626  -20.4501  -16.6971 C   0  0  0  0  0  0  0  0  0  0  0  0
   17.8766  -21.7132  -17.0479 N   0  0  0  0  0  0  0  0  0  0  0  0
   18.8764  -22.5050  -16.6301 C   0  0  0  0  0  0  0  0  0  0  0  0
   20.5243  -21.0948  -13.2876 O   0  0  0  0  0  0  0  0  0  0  0  0
   20.5902  -22.0280  -12.2299 O   0  0  0  0  0  0  0  0  0  0  0  0
  1  2  1  0
  2  4  1  0
  2  3  2  0
  4  5  1  0
  5  6  1  0
  7  8  1  0
  7  6  1  0
  8 10  1  0
  8  9  1  6
 10 11  2  0
 12 13  1  0
 14 13  1  0
 14 16  1  0
 14 15  1  6
 16 18  1  0
 16 17  1  6
 17 10  1  0
 18 20  1  0
 19 18  2  0
 20 21  1  0
 21 22  1  1
 22 23  1  0
 23 24  2  0
 24 25  1  0
 26 25  1  0
 27 23  1  0
 27 26  2  0
 28 29  1  0
 28 21  1  0
 30 28  2  0
M  END
$$$$
