RIH.pdb
     RDKit          3D

 30 30  0  0  1  0  0  0  0  0999 V2000
   21.4049  -19.8531  -17.5807 N   0  0  0  0  0  0  0  0  0  0  0  0
   21.1351  -18.4528  -17.7254 C   0  0  0  0  0  0  0  0  0  0  0  0
   21.3479  -17.8904  -18.8460 N   0  0  0  0  0  0  0  0  0  0  0  0
   20.6328  -17.7302  -16.6023 N   0  0  0  0  0  0  0  0  0  0  0  0
   20.6208  -18.3745  -15.3278 C   0  0  0  0  0  0  0  0  0  0  0  0
   21.8699  -18.8299  -14.7201 C   0  0  0  0  0  0  0  0  0  0  0  0
   21.9655  -19.4922  -13.4259 C   0  0  0  0  0  0  0  0  0  0  0  0
   23.3178  -19.8089  -12.9057 C   0  0  2  0  0  0  0  0  0  0  0  0
   24.0599  -20.5899  -13.8431 N   0  0  0  0  0  0  0  0  0  0  0  0
   23.1846  -20.6518  -11.6329 C   0  0  0  0  0  0  0  0  0  0  0  0
   22.8628  -21.8302  -11.7944 O   0  0  0  0  0  0  0  0  0  0  0  0
   21.6164  -18.3619  -19.7174 C   0  0  0  0  0  0  0  0  0  0  0  0
   26.3020  -19.6370   -7.1269 C   0  0  0  0  0  0  0  0  0  0  0  0
   25.6592  -20.3692   -8.3201 C   0  0  2  0  0  0  0  0  0  0  0  0
   24.2141  -20.4587   -8.0348 C   0  0  0  0  0  0  0  0  0  0  0  0
   24.0415  -21.5342   -6.9489 C   0  0  2  0  0  0  0  0  0  0  0  0
   23.2870  -20.8189   -9.1236 N   0  0  0  0  0  0  0  0  0  0  0  0
   23.4220  -20.0899  -10.3577 C   0  0  0  0  0  0  0  0  0  0  0  0
   21.8789  -21.0838   -8.7250 O   0  0  0  0  0  0  0  0  0  0  0  0
   21.0854  -20.1469   -8.4193 N   0  0  0  0  0  0  0  0  0  0  0  0
   21.3609  -22.3874   -8.6647 C   0  0  1  0  0  0  0  0  0  0  0  0
   20.0018  -22.7171   -8.2849 C   0  0  0  0  0  0  0  0  0  0  0  0
   19.3871  -23.7667   -9.1207 C   0  0  0  0  0  0  0  0  0  0  0  0
   17.9946  -24.0120   -8.7134 C   0  0  0  0  0  0  0  0  0  0  0  0
   17.3610  -23.3762   -7.6487 N   0  0  0  0  0  0  0  0  0  0  0  0
   16.0956  -23.8241   -7.5424 C   0  0  0  0  0  0  0  0  0  0  0  0
   15.9169  -24.7288   -8.5170 N   0  0  0  0  0  0  0  0  0  0  0  0
   17.0602  -24.8334   -9.2121 C   0  0  0  0  0  0  0  0  0  0  0  0
   19.9478  -23.0873   -6.8554 O   0  0  0  0  0  0  0  0  0  0  0  0
   21.0245  -23.8226   -6.3134 O   0  0  0  0  0  0  0  0  0  0  0  0
  1  2  1  0
  2  4  1  0
  2  3  2  0
  4  5  1  0
  5  6  1  0
  7  8  1  0
  7  6  1  0
  8 10  1  0
  8  9  1  6
 10 11  2  0
 12 13  1  0
 14 13  1  0
 14 16  1  0
 14 15  1  6
 16 18  1  0
 16 17  1  6
 17 10  1  0
 18 20  1  0
 19 18  2  0
 20 21  1  0
 21 22  1  1
 22 23  1  0
 23 24  2  0
 24 25  1  0
 26 25  1  0
 27 23  1  0
 27 26  2  0
 28 29  1  0
 28 21  1  0
 30 28  2  0
M  END
$$$$
