RIH.pdb
     RDKit          3D

 30 30  0  0  1  0  0  0  0  0999 V2000
   27.2217  -21.5130  -18.4927 N   0  0  0  0  0  0  0  0  0  0  0  0
   27.3977  -20.1679  -18.9558 C   0  0  0  0  0  0  0  0  0  0  0  0
   27.2684  -19.9144  -20.1953 N   0  0  0  0  0  0  0  0  0  0  0  0
   27.7131  -19.1502  -18.0068 N   0  0  0  0  0  0  0  0  0  0  0  0
   27.1054  -19.2108  -16.7157 C   0  0  0  0  0  0  0  0  0  0  0  0
   25.6661  -19.4320  -16.5881 C   0  0  0  0  0  0  0  0  0  0  0  0
   25.0540  -20.3701  -15.6564 C   0  0  0  0  0  0  0  0  0  0  0  0
   25.8745  -20.8562  -14.5205 C   0  0  2  0  0  0  0  0  0  0  0  0
   26.6279  -22.0125  -14.8875 N   0  0  0  0  0  0  0  0  0  0  0  0
   24.9498  -21.2751  -13.3725 C   0  0  0  0  0  0  0  0  0  0  0  0
   24.2337  -22.2555  -13.5835 O   0  0  0  0  0  0  0  0  0  0  0  0
   27.4453  -19.0108  -20.6489 C   0  0  0  0  0  0  0  0  0  0  0  0
   26.5336  -20.0189   -8.2586 C   0  0  0  0  0  0  0  0  0  0  0  0
   26.0693  -20.9759   -9.3729 C   0  0  2  0  0  0  0  0  0  0  0  0
   24.6714  -20.6191   -9.6838 C   0  0  0  0  0  0  0  0  0  0  0  0
   23.7867  -21.3655   -8.6710 C   0  0  2  0  0  0  0  0  0  0  0  0
   24.1283  -20.9349  -11.0179 N   0  0  0  0  0  0  0  0  0  0  0  0
   24.9355  -20.5641  -12.1508 C   0  0  0  0  0  0  0  0  0  0  0  0
   22.6720  -20.6983  -11.2056 O   0  0  0  0  0  0  0  0  0  0  0  0
   22.1438  -19.5731  -10.9697 N   0  0  0  0  0  0  0  0  0  0  0  0
   21.8101  -21.7134  -11.6509 C   0  0  2  0  0  0  0  0  0  0  0  0
   20.3632  -21.6395  -11.6162 C   0  0  0  0  0  0  0  0  0  0  0  0
   19.8219  -21.1495  -10.3336 C   0  0  0  0  0  0  0  0  0  0  0  0
   19.6391  -22.2588   -9.3843 C   0  0  0  0  0  0  0  0  0  0  0  0
   19.9992  -23.5802   -9.6371 N   0  0  0  0  0  0  0  0  0  0  0  0
   19.6993  -24.3432   -8.5689 C   0  0  0  0  0  0  0  0  0  0  0  0
   19.1577  -23.5319   -7.6475 N   0  0  0  0  0  0  0  0  0  0  0  0
   19.1266  -22.2864   -8.1462 C   0  0  0  0  0  0  0  0  0  0  0  0
   19.8678  -20.8195  -12.7412 O   0  0  0  0  0  0  0  0  0  0  0  0
   18.4854  -20.5393  -12.8072 O   0  0  0  0  0  0  0  0  0  0  0  0
  1  2  1  0
  2  4  1  0
  2  3  2  0
  4  5  1  0
  5  6  1  0
  7  8  1  0
  7  6  1  0
  8 10  1  0
  8  9  1  6
 10 11  2  0
 12 13  1  0
 14 13  1  0
 14 16  1  0
 14 15  1  6
 16 18  1  0
 16 17  1  6
 17 10  1  0
 18 20  1  0
 19 18  2  0
 20 21  1  0
 21 22  1  1
 22 23  1  0
 23 24  2  0
 24 25  1  0
 26 25  1  0
 27 23  1  0
 27 26  2  0
 28 29  1  0
 28 21  1  0
 30 28  2  0
M  END
$$$$
