RIH.pdb
     RDKit          3D

 30 30  0  0  1  0  0  0  0  0999 V2000
   25.7893  -19.4026  -17.3205 N   0  0  0  0  0  0  0  0  0  0  0  0
   26.6694  -18.4689  -17.9595 C   0  0  0  0  0  0  0  0  0  0  0  0
   26.7769  -18.4820  -19.2266 N   0  0  0  0  0  0  0  0  0  0  0  0
   27.4000  -17.5488  -17.1500 N   0  0  0  0  0  0  0  0  0  0  0  0
   27.1953  -17.5733  -15.7367 C   0  0  0  0  0  0  0  0  0  0  0  0
   27.6849  -18.6972  -14.9404 C   0  0  0  0  0  0  0  0  0  0  0  0
   27.1134  -19.1191  -13.6682 C   0  0  0  0  0  0  0  0  0  0  0  0
   27.8173  -20.1806  -12.9084 C   0  0  2  0  0  0  0  0  0  0  0  0
   28.1758  -21.2706  -13.7585 N   0  0  0  0  0  0  0  0  0  0  0  0
   26.8764  -20.7437  -11.8379 C   0  0  0  0  0  0  0  0  0  0  0  0
   26.3352  -21.8184  -12.1030 O   0  0  0  0  0  0  0  0  0  0  0  0
   27.3470  -17.8418  -19.7913 C   0  0  0  0  0  0  0  0  0  0  0  0
   27.7182  -19.6759   -6.3904 C   0  0  0  0  0  0  0  0  0  0  0  0
   27.5882  -20.3495   -7.7697 C   0  0  2  0  0  0  0  0  0  0  0  0
   26.1833  -20.1861   -8.1912 C   0  0  0  0  0  0  0  0  0  0  0  0
   25.3363  -21.0798   -7.2696 C   0  0  2  0  0  0  0  0  0  0  0  0
   25.8012  -20.5369   -9.5716 N   0  0  0  0  0  0  0  0  0  0  0  0
   26.6568  -20.0537  -10.6238 C   0  0  0  0  0  0  0  0  0  0  0  0
   24.3497  -20.4667   -9.8880 O   0  0  0  0  0  0  0  0  0  0  0  0
   23.4653  -20.7240   -9.0205 N   0  0  0  0  0  0  0  0  0  0  0  0
   23.8886  -20.1146  -11.1666 C   0  0  2  0  0  0  0  0  0  0  0  0
   22.4930  -19.9587  -11.5249 C   0  0  0  0  0  0  0  0  0  0  0  0
   22.2592  -19.8506  -12.9782 C   0  0  0  0  0  0  0  0  0  0  0  0
   20.8436  -19.5658  -13.2612 C   0  0  0  0  0  0  0  0  0  0  0  0
   20.1203  -18.5212  -12.6910 N   0  0  0  0  0  0  0  0  0  0  0  0
   18.8573  -18.5377  -13.1578 C   0  0  0  0  0  0  0  0  0  0  0  0
   18.7680  -19.5701  -14.0101 N   0  0  0  0  0  0  0  0  0  0  0  0
   19.9629  -20.1786  -14.0645 C   0  0  0  0  0  0  0  0  0  0  0  0
   21.6924  -21.0574  -10.9460 O   0  0  0  0  0  0  0  0  0  0  0  0
   20.2953  -20.8828  -10.8385 O   0  0  0  0  0  0  0  0  0  0  0  0
  1  2  1  0
  2  4  1  0
  2  3  2  0
  4  5  1  0
  5  6  1  0
  7  8  1  0
  7  6  1  0
  8 10  1  0
  8  9  1  6
 10 11  2  0
 12 13  1  0
 14 13  1  0
 14 16  1  0
 14 15  1  6
 16 18  1  0
 16 17  1  6
 17 10  1  0
 18 20  1  0
 19 18  2  0
 20 21  1  0
 21 22  1  6
 22 23  1  0
 23 24  2  0
 24 25  1  0
 26 25  1  0
 27 23  1  0
 27 26  2  0
 28 29  1  0
 28 21  1  0
 30 28  2  0
M  END
$$$$
