RIH.pdb
     RDKit          3D

 30 30  0  0  1  0  0  0  0  0999 V2000
   30.2577  -20.9953  -18.7338 N   0  0  0  0  0  0  0  0  0  0  0  0
   30.3209  -19.6261  -19.1533 C   0  0  0  0  0  0  0  0  0  0  0  0
   30.9297  -19.3327  -20.2306 N   0  0  0  0  0  0  0  0  0  0  0  0
   29.6950  -18.6304  -18.3455 N   0  0  0  0  0  0  0  0  0  0  0  0
   28.8491  -19.0541  -17.2756 C   0  0  0  0  0  0  0  0  0  0  0  0
   27.7813  -20.0224  -17.5192 C   0  0  0  0  0  0  0  0  0  0  0  0
   26.8441  -20.4907  -16.5066 C   0  0  0  0  0  0  0  0  0  0  0  0
   27.3873  -21.2563  -15.3583 C   0  0  2  0  0  0  0  0  0  0  0  0
   27.8648  -22.5366  -15.7730 N   0  0  0  0  0  0  0  0  0  0  0  0
   26.2667  -21.5080  -14.3438 C   0  0  0  0  0  0  0  0  0  0  0  0
   25.4589  -22.3912  -14.6366 O   0  0  0  0  0  0  0  0  0  0  0  0
   31.0498  -18.3903  -20.6194 C   0  0  0  0  0  0  0  0  0  0  0  0
   26.7562  -20.4428   -8.7840 C   0  0  0  0  0  0  0  0  0  0  0  0
   26.5601  -21.1755  -10.1248 C   0  0  2  0  0  0  0  0  0  0  0  0
   25.4171  -20.5293  -10.7986 C   0  0  0  0  0  0  0  0  0  0  0  0
   24.1630  -20.8795   -9.9800 C   0  0  2  0  0  0  0  0  0  0  0  0
   25.1108  -20.8860  -12.1963 N   0  0  0  0  0  0  0  0  0  0  0  0
   26.1836  -20.7590  -13.1478 C   0  0  0  0  0  0  0  0  0  0  0  0
   23.7869  -20.4446  -12.7104 O   0  0  0  0  0  0  0  0  0  0  0  0
   23.4579  -19.2233  -12.7427 N   0  0  0  0  0  0  0  0  0  0  0  0
   22.8345  -21.3620  -13.1825 C   0  0  1  0  0  0  0  0  0  0  0  0
   21.5252  -21.0027  -13.6895 C   0  0  0  0  0  0  0  0  0  0  0  0
   20.9295  -22.0208  -14.5766 C   0  0  0  0  0  0  0  0  0  0  0  0
   19.6662  -21.5366  -15.1552 C   0  0  0  0  0  0  0  0  0  0  0  0
   19.0443  -20.3415  -14.8022 N   0  0  0  0  0  0  0  0  0  0  0  0
   17.9100  -20.1946  -15.5128 C   0  0  0  0  0  0  0  0  0  0  0  0
   17.8025  -21.2711  -16.3065 N   0  0  0  0  0  0  0  0  0  0  0  0
   18.8593  -22.0679  -16.0842 C   0  0  0  0  0  0  0  0  0  0  0  0
   20.6145  -20.6863  -12.5697 O   0  0  0  0  0  0  0  0  0  0  0  0
   19.6902  -19.6318  -12.7364 O   0  0  0  0  0  0  0  0  0  0  0  0
  1  2  1  0
  2  4  1  0
  2  3  2  0
  4  5  1  0
  5  6  1  0
  7  8  1  0
  7  6  1  0
  8 10  1  0
  8  9  1  6
 10 11  2  0
 12 13  1  0
 14 13  1  0
 14 16  1  0
 14 15  1  6
 16 18  1  0
 16 17  1  6
 17 10  1  0
 18 20  1  0
 19 18  2  0
 20 21  1  0
 21 22  1  1
 22 23  1  0
 23 24  2  0
 24 25  1  0
 26 25  1  0
 27 23  1  0
 27 26  2  0
 28 29  1  0
 28 21  1  0
 30 28  2  0
M  END
$$$$
