RIH.pdb
     RDKit          3D

 30 30  0  0  1  0  0  0  0  0999 V2000
   17.1601  -13.3611  -23.1715 N   0  0  0  0  0  0  0  0  0  0  0  0
   18.5012  -13.6503  -22.7562 C   0  0  0  0  0  0  0  0  0  0  0  0
   19.2259  -14.4081  -23.4758 N   0  0  0  0  0  0  0  0  0  0  0  0
   18.9838  -13.0752  -21.5429 N   0  0  0  0  0  0  0  0  0  0  0  0
   18.8468  -13.8223  -20.3333 C   0  0  0  0  0  0  0  0  0  0  0  0
   18.0154  -13.3146  -19.2434 C   0  0  0  0  0  0  0  0  0  0  0  0
   18.4829  -12.4123  -18.1993 C   0  0  0  0  0  0  0  0  0  0  0  0
   19.5326  -12.9047  -17.2744 C   0  0  2  0  0  0  0  0  0  0  0  0
   19.0045  -13.8689  -16.3629 N   0  0  0  0  0  0  0  0  0  0  0  0
   20.0519  -11.7351  -16.4313 C   0  0  0  0  0  0  0  0  0  0  0  0
   19.3306  -11.3770  -15.4986 O   0  0  0  0  0  0  0  0  0  0  0  0
   20.2435  -14.5201  -23.4008 C   0  0  0  0  0  0  0  0  0  0  0  0
   25.4109  -11.0281  -15.0874 C   0  0  0  0  0  0  0  0  0  0  0  0
   23.8880  -11.2580  -15.1149 C   0  0  2  0  0  0  0  0  0  0  0  0
   23.2868  -10.0490  -15.7106 C   0  0  0  0  0  0  0  0  0  0  0  0
   23.5753   -8.8874  -14.7446 C   0  0  2  0  0  0  0  0  0  0  0  0
   21.8352  -10.0202  -15.9688 N   0  0  0  0  0  0  0  0  0  0  0  0
   21.2893  -11.1176  -16.7241 C   0  0  0  0  0  0  0  0  0  0  0  0
   21.2576   -8.6950  -16.3183 O   0  0  0  0  0  0  0  0  0  0  0  0
   21.5202   -8.1219  -17.4153 N   0  0  0  0  0  0  0  0  0  0  0  0
   20.3947   -8.0122  -15.4462 C   0  0  1  0  0  0  0  0  0  0  0  0
   19.8244   -6.7057  -15.7072 C   0  0  0  0  0  0  0  0  0  0  0  0
   18.4853   -6.5113  -15.1180 C   0  0  0  0  0  0  0  0  0  0  0  0
   17.9511   -5.1831  -15.4585 C   0  0  0  0  0  0  0  0  0  0  0  0
   18.0178   -4.0693  -14.6252 N   0  0  0  0  0  0  0  0  0  0  0  0
   17.4388   -3.0154  -15.2312 C   0  0  0  0  0  0  0  0  0  0  0  0
   17.0081   -3.4401  -16.4290 N   0  0  0  0  0  0  0  0  0  0  0  0
   17.3202   -4.7393  -16.5545 C   0  0  0  0  0  0  0  0  0  0  0  0
   20.7522   -5.6462  -15.2601 O   0  0  0  0  0  0  0  0  0  0  0  0
   20.8947   -4.4967  -16.0678 O   0  0  0  0  0  0  0  0  0  0  0  0
  1  2  1  0
  2  4  1  0
  2  3  2  0
  4  5  1  0
  5  6  1  0
  7  8  1  0
  7  6  1  0
  8 10  1  0
  8  9  1  1
 10 11  2  0
 12 13  1  0
 14 13  1  0
 14 16  1  0
 14 15  1  6
 16 18  1  0
 16 17  1  1
 17 10  1  0
 18 20  1  0
 19 18  2  0
 20 21  1  0
 21 22  1  1
 22 23  1  0
 23 24  2  0
 24 25  1  0
 26 25  1  0
 27 23  1  0
 27 26  2  0
 28 29  1  0
 28 21  1  0
 30 28  2  0
M  END
$$$$
