RIH.pdb
     RDKit          3D

 30 30  0  0  1  0  0  0  0  0999 V2000
   33.7575   -9.5751  -17.5394 N   0  0  0  0  0  0  0  0  0  0  0  0
   33.3301   -8.2069  -17.5388 C   0  0  0  0  0  0  0  0  0  0  0  0
   34.1823   -7.2885  -17.7573 N   0  0  0  0  0  0  0  0  0  0  0  0
   31.9550   -7.9167  -17.2928 N   0  0  0  0  0  0  0  0  0  0  0  0
   31.0233   -8.9990  -17.2738 C   0  0  0  0  0  0  0  0  0  0  0  0
   30.0715   -9.1716  -18.3698 C   0  0  0  0  0  0  0  0  0  0  0  0
   29.0102  -10.1697  -18.3926 C   0  0  0  0  0  0  0  0  0  0  0  0
   29.2516  -11.4565  -17.6958 C   0  0  2  0  0  0  0  0  0  0  0  0
   30.2878  -12.2020  -18.3360 N   0  0  0  0  0  0  0  0  0  0  0  0
   27.9826  -12.3128  -17.7627 C   0  0  0  0  0  0  0  0  0  0  0  0
   27.8308  -12.9775  -18.7890 O   0  0  0  0  0  0  0  0  0  0  0  0
   33.9907   -6.2805  -17.7848 C   0  0  0  0  0  0  0  0  0  0  0  0
   26.3943  -16.3004  -14.7101 C   0  0  0  0  0  0  0  0  0  0  0  0
   26.7996  -15.2488  -15.7603 C   0  0  2  0  0  0  0  0  0  0  0  0
   25.7496  -14.2119  -15.7500 C   0  0  0  0  0  0  0  0  0  0  0  0
   24.4183  -14.9250  -16.0409 C   0  0  2  0  0  0  0  0  0  0  0  0
   25.8354  -13.0920  -16.7056 N   0  0  0  0  0  0  0  0  0  0  0  0
   27.0535  -12.3247  -16.6973 C   0  0  0  0  0  0  0  0  0  0  0  0
   24.6036  -12.2750  -16.8705 O   0  0  0  0  0  0  0  0  0  0  0  0
   24.1932  -11.4970  -15.9610 N   0  0  0  0  0  0  0  0  0  0  0  0
   23.8327  -12.3293  -18.0428 C   0  0  1  0  0  0  0  0  0  0  0  0
   22.5829  -11.6227  -18.2403 C   0  0  0  0  0  0  0  0  0  0  0  0
   22.5083  -10.8894  -19.5190 C   0  0  0  0  0  0  0  0  0  0  0  0
   23.3876   -9.7098  -19.4983 C   0  0  0  0  0  0  0  0  0  0  0  0
   23.9968   -9.2006  -18.3542 N   0  0  0  0  0  0  0  0  0  0  0  0
   24.7327   -8.1199  -18.6763 C   0  0  0  0  0  0  0  0  0  0  0  0
   24.6011   -7.9361  -19.9989 N   0  0  0  0  0  0  0  0  0  0  0  0
   23.7938   -8.8937  -20.4809 C   0  0  0  0  0  0  0  0  0  0  0  0
   21.4439  -12.5539  -18.1032 O   0  0  0  0  0  0  0  0  0  0  0  0
   20.1362  -12.0233  -18.1507 O   0  0  0  0  0  0  0  0  0  0  0  0
  1  2  1  0
  2  4  1  0
  2  3  2  0
  4  5  1  0
  5  6  1  0
  7  8  1  0
  7  6  1  0
  8 10  1  0
  8  9  1  6
 10 11  2  0
 12 13  1  0
 14 13  1  0
 14 16  1  0
 14 15  1  1
 16 18  1  0
 16 17  1  6
 17 10  1  0
 18 20  1  0
 19 18  2  0
 20 21  1  0
 21 22  1  1
 22 23  1  0
 23 24  2  0
 24 25  1  0
 26 25  1  0
 27 23  1  0
 27 26  2  0
 28 29  1  0
 28 21  1  0
 30 28  2  0
M  END
$$$$
