RIH.pdb
     RDKit          3D

 30 30  0  0  1  0  0  0  0  0999 V2000
   27.8023  -28.9579  -16.6777 N   0  0  0  0  0  0  0  0  0  0  0  0
   28.8276  -28.8705  -17.6756 C   0  0  0  0  0  0  0  0  0  0  0  0
   28.9466  -29.8056  -18.5293 N   0  0  0  0  0  0  0  0  0  0  0  0
   29.6862  -27.7310  -17.6806 N   0  0  0  0  0  0  0  0  0  0  0  0
   29.2037  -26.5121  -17.1139 C   0  0  0  0  0  0  0  0  0  0  0  0
   27.9639  -25.9117  -17.6030 C   0  0  0  0  0  0  0  0  0  0  0  0
   27.4013  -24.6612  -17.1105 C   0  0  0  0  0  0  0  0  0  0  0  0
   28.3244  -23.5198  -16.8990 C   0  0  2  0  0  0  0  0  0  0  0  0
   29.5022  -23.9322  -16.2048 N   0  0  0  0  0  0  0  0  0  0  0  0
   27.6361  -22.4698  -16.0203 C   0  0  0  0  0  0  0  0  0  0  0  0
   27.7239  -22.6399  -14.8030 O   0  0  0  0  0  0  0  0  0  0  0  0
   29.6862  -29.8879  -19.2363 C   0  0  0  0  0  0  0  0  0  0  0  0
   28.8821  -17.9904  -17.0255 C   0  0  0  0  0  0  0  0  0  0  0  0
   28.3941  -18.8075  -15.8142 C   0  0  2  0  0  0  0  0  0  0  0  0
   26.9366  -18.9743  -15.9740 C   0  0  0  0  0  0  0  0  0  0  0  0
   26.2687  -18.0908  -14.9067 C   0  0  2  0  0  0  0  0  0  0  0  0
   26.3459  -20.3174  -15.8265 N   0  0  0  0  0  0  0  0  0  0  0  0
   26.9463  -21.3774  -16.5938 C   0  0  0  0  0  0  0  0  0  0  0  0
   24.8612  -20.3775  -15.7647 O   0  0  0  0  0  0  0  0  0  0  0  0
   24.1389  -20.0347  -16.7454 N   0  0  0  0  0  0  0  0  0  0  0  0
   24.1868  -20.8146  -14.6133 C   0  0  2  0  0  0  0  0  0  0  0  0
   22.7483  -20.9519  -14.5034 C   0  0  0  0  0  0  0  0  0  0  0  0
   22.2995  -21.5072  -13.2117 C   0  0  0  0  0  0  0  0  0  0  0  0
   20.8505  -21.7631  -13.2268 C   0  0  0  0  0  0  0  0  0  0  0  0
   20.2308  -22.7418  -13.9998 N   0  0  0  0  0  0  0  0  0  0  0  0
   18.9020  -22.7150  -13.7838 C   0  0  0  0  0  0  0  0  0  0  0  0
   18.6697  -21.7405  -12.8912 N   0  0  0  0  0  0  0  0  0  0  0  0
   19.8432  -21.1773  -12.5645 C   0  0  0  0  0  0  0  0  0  0  0  0
   22.0908  -19.6565  -14.7734 O   0  0  0  0  0  0  0  0  0  0  0  0
   20.9546  -19.6446  -15.6119 O   0  0  0  0  0  0  0  0  0  0  0  0
  1  2  1  0
  2  4  1  0
  2  3  2  0
  4  5  1  0
  5  6  1  0
  7  8  1  0
  7  6  1  0
  8 10  1  0
  8  9  1  1
 10 11  2  0
 12 13  1  0
 14 13  1  0
 14 16  1  0
 14 15  1  6
 16 18  1  0
 16 17  1  1
 17 10  1  0
 18 20  1  0
 19 18  2  0
 20 21  1  0
 21 22  1  1
 22 23  1  0
 23 24  2  0
 24 25  1  0
 26 25  1  0
 27 23  1  0
 27 26  2  0
 28 29  1  0
 28 21  1  0
 30 28  2  0
M  END
$$$$
