RIH.pdb
     RDKit          3D

 30 30  0  0  1  0  0  0  0  0999 V2000
   26.7666  -24.5021  -18.0224 N   0  0  0  0  0  0  0  0  0  0  0  0
   26.3969  -23.3249  -18.7520 C   0  0  0  0  0  0  0  0  0  0  0  0
   25.4416  -23.3858  -19.5892 N   0  0  0  0  0  0  0  0  0  0  0  0
   27.1153  -22.1153  -18.5141 N   0  0  0  0  0  0  0  0  0  0  0  0
   28.0892  -22.0956  -17.4696 C   0  0  0  0  0  0  0  0  0  0  0  0
   27.6685  -22.0584  -16.0701 C   0  0  0  0  0  0  0  0  0  0  0  0
   27.7396  -20.8791  -15.2173 C   0  0  0  0  0  0  0  0  0  0  0  0
   28.4995  -20.9845  -13.9480 C   0  0  2  0  0  0  0  0  0  0  0  0
   29.5945  -21.8920  -14.0774 N   0  0  0  0  0  0  0  0  0  0  0  0
   27.5833  -21.5475  -12.8562 C   0  0  0  0  0  0  0  0  0  0  0  0
   26.9493  -22.5623  -13.1508 O   0  0  0  0  0  0  0  0  0  0  0  0
   25.0954  -22.6123  -20.1683 C   0  0  0  0  0  0  0  0  0  0  0  0
   25.7203  -20.5722   -7.0468 C   0  0  0  0  0  0  0  0  0  0  0  0
   25.2508  -20.8630   -8.4848 C   0  0  2  0  0  0  0  0  0  0  0  0
   26.4291  -20.6969   -9.3578 C   0  0  0  0  0  0  0  0  0  0  0  0
   26.9375  -19.2604   -9.1494 C   0  0  2  0  0  0  0  0  0  0  0  0
   26.2759  -20.8734  -10.8138 N   0  0  0  0  0  0  0  0  0  0  0  0
   27.4863  -20.9232  -11.5917 C   0  0  0  0  0  0  0  0  0  0  0  0
   25.1728  -20.1088  -11.4545 O   0  0  0  0  0  0  0  0  0  0  0  0
   25.3820  -19.0172  -12.0590 N   0  0  0  0  0  0  0  0  0  0  0  0
   23.8432  -20.5588  -11.4172 C   0  0  1  0  0  0  0  0  0  0  0  0
   22.8992  -20.4306  -12.5093 C   0  0  0  0  0  0  0  0  0  0  0  0
   23.0052  -21.5029  -13.5178 C   0  0  0  0  0  0  0  0  0  0  0  0
   22.0058  -21.3212  -14.5824 C   0  0  0  0  0  0  0  0  0  0  0  0
   21.0882  -20.2748  -14.6320 N   0  0  0  0  0  0  0  0  0  0  0  0
   20.3186  -20.3995  -15.7299 C   0  0  0  0  0  0  0  0  0  0  0  0
   20.7307  -21.5020  -16.3742 N   0  0  0  0  0  0  0  0  0  0  0  0
   21.7412  -22.0458  -15.6784 C   0  0  0  0  0  0  0  0  0  0  0  0
   21.5212  -20.3401  -11.9837 O   0  0  0  0  0  0  0  0  0  0  0  0
   21.2899  -20.7197  -10.6434 O   0  0  0  0  0  0  0  0  0  0  0  0
  1  2  1  0
  2  4  1  0
  2  3  2  0
  4  5  1  0
  5  6  1  0
  7  8  1  0
  7  6  1  0
  8 10  1  0
  8  9  1  6
 10 11  2  0
 12 13  1  0
 14 13  1  0
 14 16  1  0
 14 15  1  6
 16 18  1  0
 16 17  1  6
 17 10  1  0
 18 20  1  0
 19 18  2  0
 20 21  1  0
 21 22  1  1
 22 23  1  0
 23 24  2  0
 24 25  1  0
 26 25  1  0
 27 23  1  0
 27 26  2  0
 28 29  1  0
 28 21  1  0
 30 28  2  0
M  END
$$$$
