RIH.pdb
     RDKit          3D

 30 30  0  0  1  0  0  0  0  0999 V2000
   27.8527  -25.8566  -16.2888 N   0  0  0  0  0  0  0  0  0  0  0  0
   26.8120  -25.3081  -17.1079 C   0  0  0  0  0  0  0  0  0  0  0  0
   26.8830  -25.4336  -18.3714 N   0  0  0  0  0  0  0  0  0  0  0  0
   25.7230  -24.6361  -16.4767 N   0  0  0  0  0  0  0  0  0  0  0  0
   25.3766  -25.0055  -15.1413 C   0  0  0  0  0  0  0  0  0  0  0  0
   24.2555  -24.3563  -14.4641 C   0  0  0  0  0  0  0  0  0  0  0  0
   24.0661  -22.9143  -14.3772 C   0  0  0  0  0  0  0  0  0  0  0  0
   25.1416  -22.1089  -13.7494 C   0  0  2  0  0  0  0  0  0  0  0  0
   25.2357  -22.3774  -12.3500 N   0  0  0  0  0  0  0  0  0  0  0  0
   24.8077  -20.6203  -13.8940 C   0  0  0  0  0  0  0  0  0  0  0  0
   24.2027  -20.1065  -12.9515 O   0  0  0  0  0  0  0  0  0  0  0  0
   26.1795  -25.1205  -19.0502 C   0  0  0  0  0  0  0  0  0  0  0  0
   28.1630  -17.1011  -16.7038 C   0  0  0  0  0  0  0  0  0  0  0  0
   27.3668  -17.9185  -15.6690 C   0  0  2  0  0  0  0  0  0  0  0  0
   25.9380  -17.7268  -15.9849 C   0  0  0  0  0  0  0  0  0  0  0  0
   25.6239  -16.2415  -15.7384 C   0  0  2  0  0  0  0  0  0  0  0  0
   24.9263  -18.4928  -15.2338 N   0  0  0  0  0  0  0  0  0  0  0  0
   25.1816  -19.8977  -15.0501 C   0  0  0  0  0  0  0  0  0  0  0  0
   23.5054  -18.1667  -15.5279 O   0  0  0  0  0  0  0  0  0  0  0  0
   22.9346  -18.5667  -16.5838 N   0  0  0  0  0  0  0  0  0  0  0  0
   22.7275  -17.3953  -14.6496 C   0  0  2  0  0  0  0  0  0  0  0  0
   21.3298  -17.0719  -14.8546 C   0  0  0  0  0  0  0  0  0  0  0  0
   20.6088  -16.7292  -13.6132 C   0  0  0  0  0  0  0  0  0  0  0  0
   19.1752  -16.5297  -13.8782 C   0  0  0  0  0  0  0  0  0  0  0  0
   18.2895  -17.5457  -14.2285 N   0  0  0  0  0  0  0  0  0  0  0  0
   17.0568  -17.0318  -14.4008 C   0  0  0  0  0  0  0  0  0  0  0  0
   17.1455  -15.7136  -14.1668 N   0  0  0  0  0  0  0  0  0  0  0  0
   18.4182  -15.4240  -13.8547 C   0  0  0  0  0  0  0  0  0  0  0  0
   21.1982  -15.9901  -15.8524 O   0  0  0  0  0  0  0  0  0  0  0  0
   20.1836  -16.0996  -16.8284 O   0  0  0  0  0  0  0  0  0  0  0  0
  1  2  1  0
  2  4  1  0
  2  3  2  0
  4  5  1  0
  5  6  1  0
  7  8  1  0
  7  6  1  0
  8 10  1  0
  8  9  1  1
 10 11  2  0
 12 13  1  0
 14 13  1  0
 14 16  1  0
 14 15  1  6
 16 18  1  0
 16 17  1  1
 17 10  1  0
 18 20  1  0
 19 18  2  0
 20 21  1  0
 21 22  1  6
 22 23  1  0
 23 24  2  0
 24 25  1  0
 26 25  1  0
 27 23  1  0
 27 26  2  0
 28 29  1  0
 28 21  1  0
 30 28  2  0
M  END
$$$$
