RIH.pdb
     RDKit          3D

 30 30  0  0  1  0  0  0  0  0999 V2000
   28.6855  -25.9759  -17.0772 N   0  0  0  0  0  0  0  0  0  0  0  0
   28.1567  -26.6662  -18.2167 C   0  0  0  0  0  0  0  0  0  0  0  0
   28.8849  -27.5133  -18.8245 N   0  0  0  0  0  0  0  0  0  0  0  0
   26.8227  -26.3807  -18.6349 N   0  0  0  0  0  0  0  0  0  0  0  0
   25.9209  -25.8046  -17.6891 C   0  0  0  0  0  0  0  0  0  0  0  0
   24.7225  -26.5323  -17.2752 C   0  0  0  0  0  0  0  0  0  0  0  0
   23.7042  -26.0037  -16.3772 C   0  0  0  0  0  0  0  0  0  0  0  0
   23.9472  -26.1007  -14.9173 C   0  0  2  0  0  0  0  0  0  0  0  0
   23.2573  -27.2168  -14.3537 N   0  0  0  0  0  0  0  0  0  0  0  0
   23.3980  -24.8462  -14.2296 C   0  0  0  0  0  0  0  0  0  0  0  0
   22.2577  -24.9348  -13.7709 O   0  0  0  0  0  0  0  0  0  0  0  0
   28.6387  -28.0139  -19.6861 C   0  0  0  0  0  0  0  0  0  0  0  0
   26.7659  -21.4464  -11.3249 C   0  0  0  0  0  0  0  0  0  0  0  0
   25.7097  -22.4628  -11.7986 C   0  0  2  0  0  0  0  0  0  0  0  0
   24.8010  -21.7382  -12.7080 C   0  0  0  0  0  0  0  0  0  0  0  0
   24.0713  -20.6834  -11.8591 C   0  0  2  0  0  0  0  0  0  0  0  0
   23.7530  -22.4879  -13.4251 N   0  0  0  0  0  0  0  0  0  0  0  0
   24.1717  -23.6667  -14.1376 C   0  0  0  0  0  0  0  0  0  0  0  0
   22.7384  -21.6717  -14.1437 O   0  0  0  0  0  0  0  0  0  0  0  0
   23.0119  -21.0646  -15.2196 N   0  0  0  0  0  0  0  0  0  0  0  0
   21.4270  -21.5315  -13.6618 C   0  0  1  0  0  0  0  0  0  0  0  0
   20.3890  -20.7566  -14.3118 C   0  0  0  0  0  0  0  0  0  0  0  0
   19.0410  -21.3451  -14.1897 C   0  0  0  0  0  0  0  0  0  0  0  0
   18.0726  -20.6125  -15.0206 C   0  0  0  0  0  0  0  0  0  0  0  0
   18.3904  -19.5204  -15.8242 N   0  0  0  0  0  0  0  0  0  0  0  0
   17.2822  -19.0822  -16.4512 C   0  0  0  0  0  0  0  0  0  0  0  0
   16.2719  -19.8741  -16.0606 N   0  0  0  0  0  0  0  0  0  0  0  0
   16.7564  -20.7868  -15.2043 C   0  0  0  0  0  0  0  0  0  0  0  0
   20.4012  -19.3667  -13.8103 O   0  0  0  0  0  0  0  0  0  0  0  0
   20.2660  -18.3169  -14.7449 O   0  0  0  0  0  0  0  0  0  0  0  0
  1  2  1  0
  2  4  1  0
  2  3  2  0
  4  5  1  0
  5  6  1  0
  7  8  1  0
  7  6  1  0
  8 10  1  0
  8  9  1  1
 10 11  2  0
 12 13  1  0
 14 13  1  0
 14 16  1  0
 14 15  1  6
 16 18  1  0
 16 17  1  1
 17 10  1  0
 18 20  1  0
 19 18  2  0
 20 21  1  0
 21 22  1  1
 22 23  1  0
 23 24  2  0
 24 25  1  0
 26 25  1  0
 27 23  1  0
 27 26  2  0
 28 29  1  0
 28 21  1  0
 30 28  2  0
M  END
$$$$
