LVV.pdb
     RDKit          3D

 23 22  0  0  1  0  0  0  0  0999 V2000
   28.1239  -20.2922   -6.8091 C   0  0  0  0  0  0  0  0  0  0  0  0
   26.7731  -19.9028   -7.3705 C   0  0  1  0  0  0  0  0  0  0  0  0
   26.5953  -18.4129   -7.5172 C   0  0  0  0  0  0  0  0  0  0  0  0
   26.3582  -20.7059   -8.5502 C   0  0  0  0  0  0  0  0  0  0  0  0
   25.0198  -20.3425   -9.1000 C   0  0  2  0  0  0  0  0  0  0  0  0
   23.9022  -20.9369   -8.4306 N   0  0  0  0  0  0  0  0  0  0  0  0
   24.9404  -20.6624  -10.5444 C   0  0  0  0  0  0  0  0  0  0  0  0
   25.0204  -21.8792  -10.8687 O   0  0  0  0  0  0  0  0  0  0  0  0
   22.1049  -19.7761  -12.5991 C   0  0  0  0  0  0  0  0  0  0  0  0
   23.2060  -20.7316  -12.9668 C   0  0  2  0  0  0  0  0  0  0  0  0
   23.1165  -22.0257  -12.1920 C   0  0  0  0  0  0  0  0  0  0  0  0
   24.5893  -20.1519  -12.9602 C   0  0  2  0  0  0  0  0  0  0  0  0
   24.7836  -19.7058  -11.5498 N   0  0  0  0  0  0  0  0  0  0  0  0
   24.8154  -19.0260  -13.8600 C   0  0  0  0  0  0  0  0  0  0  0  0
   24.3835  -17.8779  -13.5595 O   0  0  0  0  0  0  0  0  0  0  0  0
   27.7249  -19.2188  -17.1138 C   0  0  0  0  0  0  0  0  0  0  0  0
   27.2847  -18.0166  -16.3238 C   0  0  2  0  0  0  0  0  0  0  0  0
   28.1925  -17.8421  -15.1200 C   0  0  0  0  0  0  0  0  0  0  0  0
   25.8379  -18.0563  -15.9475 C   0  0  2  0  0  0  0  0  0  0  0  0
   25.5072  -19.1591  -15.0700 N   0  0  0  0  0  0  0  0  0  0  0  0
   25.0392  -18.0788  -17.1976 C   0  0  0  0  0  0  0  0  0  0  0  0
   24.9852  -17.1463  -18.0331 O   0  0  0  0  0  0  0  0  0  0  0  0
   24.2986  -19.2220  -17.4545 O   0  0  0  0  0  0  0  0  0  0  0  0
  2  1  1  6
  2  3  1  0
  4  2  1  0
  4  5  1  0
  5  6  1  1
  7  8  2  0
  7  5  1  0
 10 12  1  0
 10  9  1  1
 11 10  1  0
 12 13  1  1
 13  7  1  0
 14 20  1  0
 14 12  1  0
 15 14  2  0
 17 19  1  0
 17 16  1  1
 18 17  1  0
 19 21  1  0
 19 20  1  1
 21 23  1  0
 22 21  2  0
M  END
$$$$
