LVV.pdb
     RDKit          3D

 23 22  0  0  1  0  0  0  0  0999 V2000
   24.8570  -13.8484  -15.4043 C   0  0  0  0  0  0  0  0  0  0  0  0
   24.2616  -15.0567  -16.0949 C   0  0  1  0  0  0  0  0  0  0  0  0
   25.2048  -15.7093  -17.0733 C   0  0  0  0  0  0  0  0  0  0  0  0
   23.5626  -15.9913  -15.1747 C   0  0  0  0  0  0  0  0  0  0  0  0
   23.1442  -17.2763  -15.8065 C   0  0  2  0  0  0  0  0  0  0  0  0
   21.8398  -17.2707  -16.3972 N   0  0  0  0  0  0  0  0  0  0  0  0
   23.2265  -18.3913  -14.8344 C   0  0  0  0  0  0  0  0  0  0  0  0
   22.2797  -18.5042  -14.0081 O   0  0  0  0  0  0  0  0  0  0  0  0
   23.1778  -22.0096  -15.4515 C   0  0  0  0  0  0  0  0  0  0  0  0
   24.3756  -21.6568  -14.6138 C   0  0  2  0  0  0  0  0  0  0  0  0
   24.8749  -22.8364  -13.8124 C   0  0  0  0  0  0  0  0  0  0  0  0
   24.2366  -20.4152  -13.7840 C   0  0  2  0  0  0  0  0  0  0  0  0
   24.2778  -19.3094  -14.7846 N   0  0  0  0  0  0  0  0  0  0  0  0
   25.2718  -20.1982  -12.7790 C   0  0  0  0  0  0  0  0  0  0  0  0
   26.3860  -19.7065  -13.1131 O   0  0  0  0  0  0  0  0  0  0  0  0
   26.6345  -20.1302   -7.9858 C   0  0  0  0  0  0  0  0  0  0  0  0
   25.5788  -20.3966   -9.0241 C   0  0  2  0  0  0  0  0  0  0  0  0
   24.8241  -21.6635   -8.6647 C   0  0  0  0  0  0  0  0  0  0  0  0
   26.1185  -20.4289  -10.4183 C   0  0  2  0  0  0  0  0  0  0  0  0
   25.0846  -20.5143  -11.4280 N   0  0  0  0  0  0  0  0  0  0  0  0
   27.0831  -21.5524  -10.5109 C   0  0  0  0  0  0  0  0  0  0  0  0
   26.7830  -22.7364  -10.7916 O   0  0  0  0  0  0  0  0  0  0  0  0
   28.4165  -21.2630  -10.2671 O   0  0  0  0  0  0  0  0  0  0  0  0
  2  1  1  1
  2  3  1  0
  4  2  1  0
  4  5  1  0
  5  6  1  1
  7  8  2  0
  7  5  1  0
 10 12  1  0
 10  9  1  1
 11 10  1  0
 12 13  1  6
 13  7  1  0
 14 20  1  0
 14 12  1  0
 15 14  2  0
 17 19  1  0
 17 16  1  1
 18 17  1  0
 19 21  1  0
 19 20  1  6
 21 23  1  0
 22 21  2  0
M  END
$$$$
