LVV.pdb
     RDKit          3D

 23 22  0  0  1  0  0  0  0  0999 V2000
   27.6403  -17.5260  -17.7143 C   0  0  0  0  0  0  0  0  0  0  0  0
   28.1764  -18.5318  -16.7181 C   0  0  1  0  0  0  0  0  0  0  0  0
   29.1888  -17.9469  -15.7664 C   0  0  0  0  0  0  0  0  0  0  0  0
   27.1247  -19.3682  -16.0831 C   0  0  0  0  0  0  0  0  0  0  0  0
   27.6375  -20.3307  -15.0652 C   0  0  2  0  0  0  0  0  0  0  0  0
   28.4611  -21.3832  -15.5795 N   0  0  0  0  0  0  0  0  0  0  0  0
   26.5206  -20.9270  -14.2959 C   0  0  0  0  0  0  0  0  0  0  0  0
   26.0136  -21.9898  -14.7493 O   0  0  0  0  0  0  0  0  0  0  0  0
   25.1482  -19.6705  -10.3277 C   0  0  0  0  0  0  0  0  0  0  0  0
   25.2557  -21.0230  -10.9757 C   0  0  2  0  0  0  0  0  0  0  0  0
   26.5892  -21.6789  -10.7023 C   0  0  0  0  0  0  0  0  0  0  0  0
   24.8768  -21.0730  -12.4260 C   0  0  2  0  0  0  0  0  0  0  0  0
   26.0074  -20.3856  -13.1152 N   0  0  0  0  0  0  0  0  0  0  0  0
   23.6224  -20.4190  -12.7825 C   0  0  0  0  0  0  0  0  0  0  0  0
   23.5113  -19.1649  -12.6836 O   0  0  0  0  0  0  0  0  0  0  0  0
   20.8000  -22.1894  -15.4787 C   0  0  0  0  0  0  0  0  0  0  0  0
   20.9737  -20.7385  -15.1207 C   0  0  2  0  0  0  0  0  0  0  0  0
   22.0219  -20.1163  -16.0250 C   0  0  0  0  0  0  0  0  0  0  0  0
   21.2678  -20.5206  -13.6707 C   0  0  2  0  0  0  0  0  0  0  0  0
   22.5084  -21.1315  -13.2426 N   0  0  0  0  0  0  0  0  0  0  0  0
   20.1058  -21.0095  -12.8884 C   0  0  0  0  0  0  0  0  0  0  0  0
   18.9581  -20.5068  -12.9155 O   0  0  0  0  0  0  0  0  0  0  0  0
   20.3129  -22.1066  -12.0669 O   0  0  0  0  0  0  0  0  0  0  0  0
  2  1  1  1
  2  3  1  0
  4  2  1  0
  4  5  1  0
  5  6  1  6
  7  8  2  0
  7  5  1  0
 10 12  1  0
 10  9  1  6
 11 10  1  0
 12 13  1  6
 13  7  1  0
 14 20  1  0
 14 12  1  0
 15 14  2  0
 17 19  1  0
 17 16  1  1
 18 17  1  0
 19 21  1  0
 19 20  1  1
 21 23  1  0
 22 21  2  0
M  END
$$$$
