LVV.pdb
     RDKit          3D

 23 22  0  0  1  0  0  0  0  0999 V2000
   27.3960  -17.0678  -17.6643 C   0  0  0  0  0  0  0  0  0  0  0  0
   28.1223  -18.0743  -16.7978 C   0  0  1  0  0  0  0  0  0  0  0  0
   29.1117  -17.4427  -15.8517 C   0  0  0  0  0  0  0  0  0  0  0  0
   27.2318  -19.0962  -16.1882 C   0  0  0  0  0  0  0  0  0  0  0  0
   27.9237  -20.0392  -15.2621 C   0  0  2  0  0  0  0  0  0  0  0  0
   28.7888  -20.9904  -15.8925 N   0  0  0  0  0  0  0  0  0  0  0  0
   26.9430  -20.7650  -14.4217 C   0  0  0  0  0  0  0  0  0  0  0  0
   26.4861  -21.8489  -14.8781 O   0  0  0  0  0  0  0  0  0  0  0  0
   24.9750  -21.7225  -10.0369 C   0  0  0  0  0  0  0  0  0  0  0  0
   25.8275  -20.9496  -11.0048 C   0  0  2  0  0  0  0  0  0  0  0  0
   25.9903  -19.5059  -10.5900 C   0  0  0  0  0  0  0  0  0  0  0  0
   25.4521  -21.0940  -12.4497 C   0  0  2  0  0  0  0  0  0  0  0  0
   26.5047  -20.3218  -13.1718 N   0  0  0  0  0  0  0  0  0  0  0  0
   24.1364  -20.5858  -12.8227 C   0  0  0  0  0  0  0  0  0  0  0  0
   23.9230  -19.3414  -12.8524 O   0  0  0  0  0  0  0  0  0  0  0  0
   22.2684  -21.6564  -16.0386 C   0  0  0  0  0  0  0  0  0  0  0  0
   21.3326  -21.7525  -14.8646 C   0  0  2  0  0  0  0  0  0  0  0  0
   19.9324  -21.3613  -15.3003 C   0  0  0  0  0  0  0  0  0  0  0  0
   21.7987  -20.9761  -13.6745 C   0  0  2  0  0  0  0  0  0  0  0  0
   23.0728  -21.4314  -13.1600 N   0  0  0  0  0  0  0  0  0  0  0  0
   20.7307  -21.0280  -12.6459 C   0  0  0  0  0  0  0  0  0  0  0  0
   19.7169  -20.2915  -12.6243 O   0  0  0  0  0  0  0  0  0  0  0  0
   20.8716  -21.9653  -11.6345 O   0  0  0  0  0  0  0  0  0  0  0  0
  2  1  1  1
  2  3  1  0
  4  2  1  0
  4  5  1  0
  5  6  1  6
  7  8  2  0
  7  5  1  0
 10 12  1  0
 10  9  1  1
 11 10  1  0
 12 13  1  6
 13  7  1  0
 14 20  1  0
 14 12  1  0
 15 14  2  0
 17 19  1  0
 17 16  1  6
 18 17  1  0
 19 21  1  0
 19 20  1  1
 21 23  1  0
 22 21  2  0
M  END
$$$$
