LVV.pdb
     RDKit          3D

 23 22  0  0  1  0  0  0  0  0999 V2000
   20.6053  -32.5049  -18.4488 C   0  0  0  0  0  0  0  0  0  0  0  0
   21.4803  -31.2738  -18.3483 C   0  0  1  0  0  0  0  0  0  0  0  0
   21.0449  -30.1565  -19.2621 C   0  0  0  0  0  0  0  0  0  0  0  0
   21.7833  -30.8640  -16.9522 C   0  0  0  0  0  0  0  0  0  0  0  0
   22.6334  -29.6430  -16.8418 C   0  0  2  0  0  0  0  0  0  0  0  0
   24.0422  -29.8656  -16.9688 N   0  0  0  0  0  0  0  0  0  0  0  0
   22.3720  -28.9340  -15.5675 C   0  0  0  0  0  0  0  0  0  0  0  0
   23.0295  -29.3068  -14.5572 O   0  0  0  0  0  0  0  0  0  0  0  0
   21.0114  -24.8314  -13.2940 C   0  0  0  0  0  0  0  0  0  0  0  0
   21.3127  -25.7577  -14.4393 C   0  0  2  0  0  0  0  0  0  0  0  0
   20.4801  -25.4407  -15.6597 C   0  0  0  0  0  0  0  0  0  0  0  0
   21.3067  -27.2193  -14.1029 C   0  0  2  0  0  0  0  0  0  0  0  0
   21.4528  -27.8919  -15.4266 N   0  0  0  0  0  0  0  0  0  0  0  0
   20.1085  -27.7173  -13.4359 C   0  0  0  0  0  0  0  0  0  0  0  0
   19.0664  -27.9632  -14.1056 O   0  0  0  0  0  0  0  0  0  0  0  0
   17.9694  -29.5949   -9.3451 C   0  0  0  0  0  0  0  0  0  0  0  0
   19.1947  -29.1265  -10.0817 C   0  0  2  0  0  0  0  0  0  0  0  0
   20.0711  -28.3177   -9.1428 C   0  0  0  0  0  0  0  0  0  0  0  0
   18.8777  -28.3900  -11.3441 C   0  0  2  0  0  0  0  0  0  0  0  0
   20.0570  -27.9438  -12.0552 N   0  0  0  0  0  0  0  0  0  0  0  0
   17.9722  -27.2651  -11.0038 C   0  0  0  0  0  0  0  0  0  0  0  0
   18.3413  -26.0905  -10.7700 O   0  0  0  0  0  0  0  0  0  0  0  0
   16.6154  -27.5418  -10.9416 O   0  0  0  0  0  0  0  0  0  0  0  0
  2  1  1  1
  2  3  1  0
  4  2  1  0
  4  5  1  0
  5  6  1  1
  7  8  2  0
  7  5  1  0
 10 12  1  0
 10  9  1  1
 11 10  1  0
 12 13  1  6
 13  7  1  0
 14 20  1  0
 14 12  1  0
 15 14  2  0
 17 19  1  0
 17 16  1  1
 18 17  1  0
 19 21  1  0
 19 20  1  1
 21 23  1  0
 22 21  2  0
M  END
$$$$
