LVV.pdb
     RDKit          3D

 23 22  0  0  1  0  0  0  0  0999 V2000
   32.5534  -21.7836  -11.5574 C   0  0  0  0  0  0  0  0  0  0  0  0
   31.8458  -21.8109  -12.8953 C   0  0  1  0  0  0  0  0  0  0  0  0
   31.6745  -23.2018  -13.4511 C   0  0  0  0  0  0  0  0  0  0  0  0
   30.6310  -20.9564  -12.9504 C   0  0  0  0  0  0  0  0  0  0  0  0
   29.9209  -20.9831  -14.2622 C   0  0  2  0  0  0  0  0  0  0  0  0
   30.6641  -20.4629  -15.3701 N   0  0  0  0  0  0  0  0  0  0  0  0
   28.6265  -20.2680  -14.1737 C   0  0  0  0  0  0  0  0  0  0  0  0
   28.6707  -19.0144  -14.0377 O   0  0  0  0  0  0  0  0  0  0  0  0
   25.1303  -20.9837  -16.0930 C   0  0  0  0  0  0  0  0  0  0  0  0
   25.5901  -19.7946  -15.2959 C   0  0  2  0  0  0  0  0  0  0  0  0
   26.4927  -18.8875  -16.0995 C   0  0  0  0  0  0  0  0  0  0  0  0
   26.1487  -20.1068  -13.9395 C   0  0  2  0  0  0  0  0  0  0  0  0
   27.3804  -20.8960  -14.2327 N   0  0  0  0  0  0  0  0  0  0  0  0
   25.2817  -20.8737  -13.0515 C   0  0  0  0  0  0  0  0  0  0  0  0
   25.1546  -22.1201  -13.2110 O   0  0  0  0  0  0  0  0  0  0  0  0
   23.6782  -19.2901   -9.2955 C   0  0  0  0  0  0  0  0  0  0  0  0
   23.8968  -20.7274   -9.6823 C   0  0  2  0  0  0  0  0  0  0  0  0
   25.2800  -21.1663   -9.2376 C   0  0  0  0  0  0  0  0  0  0  0  0
   23.6529  -20.9906  -11.1340 C   0  0  2  0  0  0  0  0  0  0  0  0
   24.5673  -20.2809  -12.0035 N   0  0  0  0  0  0  0  0  0  0  0  0
   22.2360  -20.6633  -11.4279 C   0  0  0  0  0  0  0  0  0  0  0  0
   21.8529  -19.7296  -12.1709 O   0  0  0  0  0  0  0  0  0  0  0  0
   21.2671  -21.4552  -10.8315 O   0  0  0  0  0  0  0  0  0  0  0  0
  2  1  1  1
  2  3  1  0
  4  2  1  0
  4  5  1  0
  5  6  1  6
  7  8  2  0
  7  5  1  0
 10 12  1  0
 10  9  1  6
 11 10  1  0
 12 13  1  6
 13  7  1  0
 14 20  1  0
 14 12  1  0
 15 14  2  0
 17 19  1  0
 17 16  1  6
 18 17  1  0
 19 21  1  0
 19 20  1  6
 21 23  1  0
 22 21  2  0
M  END
$$$$
