LVV.pdb
     RDKit          3D

 23 22  0  0  1  0  0  0  0  0999 V2000
   26.9363  -17.9161  -15.9912 C   0  0  0  0  0  0  0  0  0  0  0  0
   27.1976  -19.1118  -15.1004 C   0  0  1  0  0  0  0  0  0  0  0  0
   28.5907  -19.6697  -15.2447 C   0  0  0  0  0  0  0  0  0  0  0  0
   26.7333  -18.9311  -13.7002 C   0  0  0  0  0  0  0  0  0  0  0  0
   27.2162  -19.9782  -12.7536 C   0  0  2  0  0  0  0  0  0  0  0  0
   26.8835  -21.3246  -13.1099 N   0  0  0  0  0  0  0  0  0  0  0  0
   26.7291  -19.7104  -11.3803 C   0  0  0  0  0  0  0  0  0  0  0  0
   26.5276  -18.5048  -11.0671 O   0  0  0  0  0  0  0  0  0  0  0  0
   23.6561  -20.7509   -9.9579 C   0  0  0  0  0  0  0  0  0  0  0  0
   24.7055  -21.0658   -8.9281 C   0  0  2  0  0  0  0  0  0  0  0  0
   24.1565  -21.0053   -7.5217 C   0  0  0  0  0  0  0  0  0  0  0  0
   25.9957  -20.3152   -9.0746 C   0  0  2  0  0  0  0  0  0  0  0  0
   26.4840  -20.7038  -10.4298 N   0  0  0  0  0  0  0  0  0  0  0  0
   27.0252  -20.6132   -8.0847 C   0  0  0  0  0  0  0  0  0  0  0  0
   27.5769  -21.7491   -8.0665 O   0  0  0  0  0  0  0  0  0  0  0  0
   30.2981  -19.0688   -4.7067 C   0  0  0  0  0  0  0  0  0  0  0  0
   29.1854  -18.7496   -5.6677 C   0  0  2  0  0  0  0  0  0  0  0  0
   28.3092  -17.6572   -5.0824 C   0  0  0  0  0  0  0  0  0  0  0  0
   28.3995  -19.9531   -6.0800 C   0  0  2  0  0  0  0  0  0  0  0  0
   27.4434  -19.6770   -7.1313 N   0  0  0  0  0  0  0  0  0  0  0  0
   27.7510  -20.5144   -4.8693 C   0  0  0  0  0  0  0  0  0  0  0  0
   26.5205  -20.4851   -4.6337 O   0  0  0  0  0  0  0  0  0  0  0  0
   28.5756  -21.1157   -3.9313 O   0  0  0  0  0  0  0  0  0  0  0  0
  2  1  1  1
  2  3  1  0
  4  2  1  0
  4  5  1  0
  5  6  1  6
  7  8  2  0
  7  5  1  0
 10 12  1  0
 10  9  1  6
 11 10  1  0
 12 13  1  6
 13  7  1  0
 14 20  1  0
 14 12  1  0
 15 14  2  0
 17 19  1  0
 17 16  1  1
 18 17  1  0
 19 21  1  0
 19 20  1  6
 21 23  1  0
 22 21  2  0
M  END
$$$$
