LVV.pdb
     RDKit          3D

 23 22  0  0  1  0  0  0  0  0999 V2000
   28.4456  -18.5611   -5.6279 C   0  0  0  0  0  0  0  0  0  0  0  0
   28.0054  -19.7836   -6.4046 C   0  0  1  0  0  0  0  0  0  0  0  0
   27.2784  -20.7977   -5.5585 C   0  0  0  0  0  0  0  0  0  0  0  0
   27.3588  -19.4687   -7.7052 C   0  0  0  0  0  0  0  0  0  0  0  0
   27.0077  -20.6669   -8.5219 C   0  0  2  0  0  0  0  0  0  0  0  0
   28.1158  -21.4827   -8.9180 N   0  0  0  0  0  0  0  0  0  0  0  0
   26.2441  -20.2745   -9.7293 C   0  0  0  0  0  0  0  0  0  0  0  0
   26.7809  -19.4320  -10.5000 O   0  0  0  0  0  0  0  0  0  0  0  0
   25.3083  -22.6400  -12.3766 C   0  0  0  0  0  0  0  0  0  0  0  0
   25.3500  -21.1371  -12.3548 C   0  0  2  0  0  0  0  0  0  0  0  0
   26.7602  -20.6104  -12.2251 C   0  0  0  0  0  0  0  0  0  0  0  0
   24.4007  -20.4815  -11.3964 C   0  0  2  0  0  0  0  0  0  0  0  0
   24.9833  -20.7791  -10.0556 N   0  0  0  0  0  0  0  0  0  0  0  0
   23.0205  -20.9520  -11.4404 C   0  0  0  0  0  0  0  0  0  0  0  0
   22.6293  -21.8442  -10.6366 O   0  0  0  0  0  0  0  0  0  0  0  0
   19.0994  -18.6581  -12.6793 C   0  0  0  0  0  0  0  0  0  0  0  0
   20.0097  -19.3169  -11.6789 C   0  0  2  0  0  0  0  0  0  0  0  0
   21.0274  -18.3077  -11.1795 C   0  0  0  0  0  0  0  0  0  0  0  0
   20.6496  -20.5652  -12.1971 C   0  0  2  0  0  0  0  0  0  0  0  0
   22.0842  -20.4486  -12.3515 N   0  0  0  0  0  0  0  0  0  0  0  0
   19.9792  -20.9303  -13.4693 C   0  0  0  0  0  0  0  0  0  0  0  0
   18.8093  -21.3695  -13.5652 O   0  0  0  0  0  0  0  0  0  0  0  0
   20.7086  -20.7709  -14.6371 O   0  0  0  0  0  0  0  0  0  0  0  0
  2  1  1  1
  2  3  1  0
  4  2  1  0
  4  5  1  0
  5  6  1  6
  7  8  2  0
  7  5  1  0
 10 12  1  0
 10  9  1  1
 11 10  1  0
 12 13  1  1
 13  7  1  0
 14 20  1  0
 14 12  1  0
 15 14  2  0
 17 19  1  0
 17 16  1  6
 18 17  1  0
 19 21  1  0
 19 20  1  6
 21 23  1  0
 22 21  2  0
M  END
$$$$
