LVV.pdb
     RDKit          3D

 23 22  0  0  1  0  0  0  0  0999 V2000
   13.9248  -13.1207  -14.0872 C   0  0  0  0  0  0  0  0  0  0  0  0
   13.8243  -12.4314  -12.7433 C   0  0  1  0  0  0  0  0  0  0  0  0
   12.8392  -13.0871  -11.8091 C   0  0  0  0  0  0  0  0  0  0  0  0
   15.1405  -12.0986  -12.1385 C   0  0  0  0  0  0  0  0  0  0  0  0
   16.0833  -11.4054  -13.0637 C   0  0  2  0  0  0  0  0  0  0  0  0
   17.2071  -12.1848  -13.4880 N   0  0  0  0  0  0  0  0  0  0  0  0
   16.5735  -10.1420  -12.4651 C   0  0  0  0  0  0  0  0  0  0  0  0
   17.4164  -10.2377  -11.5311 O   0  0  0  0  0  0  0  0  0  0  0  0
   18.6546   -7.5197  -13.8298 C   0  0  0  0  0  0  0  0  0  0  0  0
   17.3878   -6.9070  -13.2999 C   0  0  2  0  0  0  0  0  0  0  0  0
   17.5592   -5.4413  -12.9750 C   0  0  0  0  0  0  0  0  0  0  0  0
   16.7200   -7.6672  -12.1928 C   0  0  2  0  0  0  0  0  0  0  0  0
   16.1603   -8.8716  -12.8726 N   0  0  0  0  0  0  0  0  0  0  0  0
   15.6506   -6.9666  -11.4901 C   0  0  0  0  0  0  0  0  0  0  0  0
   14.5647   -6.7108  -12.0821 O   0  0  0  0  0  0  0  0  0  0  0  0
   15.7280   -6.4042   -7.1797 C   0  0  0  0  0  0  0  0  0  0  0  0
   14.5049   -6.4480   -8.0546 C   0  0  2  0  0  0  0  0  0  0  0  0
   13.9715   -7.8681   -8.1077 C   0  0  0  0  0  0  0  0  0  0  0  0
   14.7330   -5.8721   -9.4156 C   0  0  2  0  0  0  0  0  0  0  0  0
   15.7715   -6.5554  -10.1572 N   0  0  0  0  0  0  0  0  0  0  0  0
   15.0192   -4.4247   -9.2592 C   0  0  0  0  0  0  0  0  0  0  0  0
   16.1484   -3.8970   -9.3891 O   0  0  0  0  0  0  0  0  0  0  0  0
   13.9510   -3.5990   -8.9453 O   0  0  0  0  0  0  0  0  0  0  0  0
  2  1  1  6
  2  3  1  0
  4  2  1  0
  4  5  1  0
  5  6  1  1
  7  8  2  0
  7  5  1  0
 10 12  1  0
 10  9  1  1
 11 10  1  0
 12 13  1  6
 13  7  1  0
 14 20  1  0
 14 12  1  0
 15 14  2  0
 17 19  1  0
 17 16  1  1
 18 17  1  0
 19 21  1  0
 19 20  1  1
 21 23  1  0
 22 21  2  0
M  END
$$$$
