LVV.pdb
     RDKit          3D

 23 22  0  0  1  0  0  0  0  0999 V2000
   28.1960  -17.2975  -16.7587 C   0  0  0  0  0  0  0  0  0  0  0  0
   27.2016  -16.6774  -15.8005 C   0  0  1  0  0  0  0  0  0  0  0  0
   27.4098  -15.1978  -15.5999 C   0  0  0  0  0  0  0  0  0  0  0  0
   25.7943  -17.0880  -16.0456 C   0  0  0  0  0  0  0  0  0  0  0  0
   25.5585  -18.5580  -15.9498 C   0  0  2  0  0  0  0  0  0  0  0  0
   24.6380  -19.0930  -16.9075 N   0  0  0  0  0  0  0  0  0  0  0  0
   25.1063  -18.9302  -14.5890 C   0  0  0  0  0  0  0  0  0  0  0  0
   24.1302  -18.2884  -14.1122 O   0  0  0  0  0  0  0  0  0  0  0  0
   23.6611  -22.2797  -11.6907 C   0  0  0  0  0  0  0  0  0  0  0  0
   24.3769  -21.6304  -12.8427 C   0  0  2  0  0  0  0  0  0  0  0  0
   25.2830  -22.5991  -13.5663 C   0  0  0  0  0  0  0  0  0  0  0  0
   25.0582  -20.3321  -12.5268 C   0  0  2  0  0  0  0  0  0  0  0  0
   25.6920  -19.9371  -13.8184 N   0  0  0  0  0  0  0  0  0  0  0  0
   26.0759  -20.3811  -11.4826 C   0  0  0  0  0  0  0  0  0  0  0  0
   27.1757  -20.9639  -11.6965 O   0  0  0  0  0  0  0  0  0  0  0  0
   27.9087  -18.8610   -7.1509 C   0  0  0  0  0  0  0  0  0  0  0  0
   26.8462  -18.7624   -8.2115 C   0  0  2  0  0  0  0  0  0  0  0  0
   25.5078  -18.4644   -7.5606 C   0  0  0  0  0  0  0  0  0  0  0  0
   26.7929  -19.9602   -9.1052 C   0  0  2  0  0  0  0  0  0  0  0  0
   25.8889  -19.7970  -10.2240 N   0  0  0  0  0  0  0  0  0  0  0  0
   26.4443  -21.1382   -8.2733 C   0  0  0  0  0  0  0  0  0  0  0  0
   25.3189  -21.6889   -8.2425 O   0  0  0  0  0  0  0  0  0  0  0  0
   27.4448  -21.6646   -7.4713 O   0  0  0  0  0  0  0  0  0  0  0  0
  2  1  1  6
  2  3  1  0
  4  2  1  0
  4  5  1  0
  5  6  1  6
  7  8  2  0
  7  5  1  0
 10 12  1  0
 10  9  1  1
 11 10  1  0
 12 13  1  6
 13  7  1  0
 14 20  1  0
 14 12  1  0
 15 14  2  0
 17 19  1  0
 17 16  1  1
 18 17  1  0
 19 21  1  0
 19 20  1  6
 21 23  1  0
 22 21  2  0
M  END
$$$$
