LVV.pdb
     RDKit          3D

 23 22  0  0  1  0  0  0  0  0999 V2000
   28.9000  -20.7828   -4.5611 C   0  0  0  0  0  0  0  0  0  0  0  0
   27.9379  -19.9976   -5.4266 C   0  0  1  0  0  0  0  0  0  0  0  0
   28.1755  -18.5094   -5.3835 C   0  0  0  0  0  0  0  0  0  0  0  0
   27.7515  -20.5666   -6.7869 C   0  0  0  0  0  0  0  0  0  0  0  0
   26.7864  -19.8139   -7.6400 C   0  0  2  0  0  0  0  0  0  0  0  0
   25.4199  -19.8743   -7.2162 N   0  0  0  0  0  0  0  0  0  0  0  0
   26.8723  -20.2601   -9.0501 C   0  0  0  0  0  0  0  0  0  0  0  0
   28.0141  -20.5761   -9.4842 O   0  0  0  0  0  0  0  0  0  0  0  0
   25.4464  -22.7798  -12.7570 C   0  0  0  0  0  0  0  0  0  0  0  0
   25.2780  -22.0664  -11.4442 C   0  0  2  0  0  0  0  0  0  0  0  0
   23.8279  -21.9769  -11.0289 C   0  0  0  0  0  0  0  0  0  0  0  0
   25.9908  -20.7517  -11.3307 C   0  0  2  0  0  0  0  0  0  0  0  0
   25.7756  -20.3493   -9.9103 N   0  0  0  0  0  0  0  0  0  0  0  0
   25.5183  -19.6896  -12.2123 C   0  0  0  0  0  0  0  0  0  0  0  0
   24.5394  -18.9695  -11.8687 O   0  0  0  0  0  0  0  0  0  0  0  0
   27.7101  -18.5198  -15.8260 C   0  0  0  0  0  0  0  0  0  0  0  0
   26.8417  -17.6355  -14.9731 C   0  0  2  0  0  0  0  0  0  0  0  0
   27.7020  -16.9168  -13.9499 C   0  0  0  0  0  0  0  0  0  0  0  0
   25.6957  -18.3634  -14.3460 C   0  0  2  0  0  0  0  0  0  0  0  0
   26.1136  -19.4214  -13.4508 N   0  0  0  0  0  0  0  0  0  0  0  0
   24.8209  -18.8658  -15.4339 C   0  0  0  0  0  0  0  0  0  0  0  0
   24.7039  -20.0689  -15.7647 O   0  0  0  0  0  0  0  0  0  0  0  0
   24.0792  -17.9269  -16.1337 O   0  0  0  0  0  0  0  0  0  0  0  0
  2  1  1  6
  2  3  1  0
  4  2  1  0
  4  5  1  0
  5  6  1  1
  7  8  2  0
  7  5  1  0
 10 12  1  0
 10  9  1  6
 11 10  1  0
 12 13  1  1
 13  7  1  0
 14 20  1  0
 14 12  1  0
 15 14  2  0
 17 19  1  0
 17 16  1  1
 18 17  1  0
 19 21  1  0
 19 20  1  6
 21 23  1  0
 22 21  2  0
M  END
$$$$
