LVV.pdb
     RDKit          3D

 23 22  0  0  1  0  0  0  0  0999 V2000
   27.1870  -15.0186  -15.6868 C   0  0  0  0  0  0  0  0  0  0  0  0
   25.7420  -15.4320  -15.8672 C   0  0  1  0  0  0  0  0  0  0  0  0
   25.1497  -16.0797  -14.6414 C   0  0  0  0  0  0  0  0  0  0  0  0
   24.8933  -14.3897  -16.5014 C   0  0  0  0  0  0  0  0  0  0  0  0
   23.4568  -14.7683  -16.6392 C   0  0  2  0  0  0  0  0  0  0  0  0
   23.2012  -15.9027  -17.4747 N   0  0  0  0  0  0  0  0  0  0  0  0
   22.6557  -13.6217  -17.1275 C   0  0  0  0  0  0  0  0  0  0  0  0
   22.7799  -13.3106  -18.3439 O   0  0  0  0  0  0  0  0  0  0  0  0
   18.9942  -12.6258  -15.6738 C   0  0  0  0  0  0  0  0  0  0  0  0
   19.6107  -12.2656  -16.9970 C   0  0  2  0  0  0  0  0  0  0  0  0
   19.4428  -13.3654  -18.0194 C   0  0  0  0  0  0  0  0  0  0  0  0
   21.0180  -11.7509  -16.9319 C   0  0  2  0  0  0  0  0  0  0  0  0
   21.7841  -12.8794  -16.3274 N   0  0  0  0  0  0  0  0  0  0  0  0
   21.2221  -10.5454  -16.1360 C   0  0  0  0  0  0  0  0  0  0  0  0
   21.4602  -10.6355  -14.8990 O   0  0  0  0  0  0  0  0  0  0  0  0
   22.1912   -5.6664  -16.0134 C   0  0  0  0  0  0  0  0  0  0  0  0
   21.9508   -6.9342  -16.7868 C   0  0  2  0  0  0  0  0  0  0  0  0
   21.0856   -6.6323  -17.9968 C   0  0  0  0  0  0  0  0  0  0  0  0
   21.3941   -8.0397  -15.9477 C   0  0  2  0  0  0  0  0  0  0  0  0
   21.1678   -9.2611  -16.6911 N   0  0  0  0  0  0  0  0  0  0  0  0
   20.1555   -7.5439  -15.2987 C   0  0  0  0  0  0  0  0  0  0  0  0
   18.9902   -7.8156  -15.6714 O   0  0  0  0  0  0  0  0  0  0  0  0
   20.3064   -6.7173  -14.1963 O   0  0  0  0  0  0  0  0  0  0  0  0
  2  1  1  1
  2  3  1  0
  4  2  1  0
  4  5  1  0
  5  6  1  6
  7  8  2  0
  7  5  1  0
 10 12  1  0
 10  9  1  1
 11 10  1  0
 12 13  1  1
 13  7  1  0
 14 20  1  0
 14 12  1  0
 15 14  2  0
 17 19  1  0
 17 16  1  1
 18 17  1  0
 19 21  1  0
 19 20  1  6
 21 23  1  0
 22 21  2  0
M  END
$$$$
