YMQ.pdb
     RDKit          3D

 30 30  0  0  1  0  0  0  0  0999 V2000
   29.5990  -15.2692  -18.2612 O   0  0  0  0  0  0  0  0  0  0  0  0
   28.8849  -16.2050  -17.5301 C   0  0  0  0  0  0  0  0  0  0  0  0
   28.4328  -15.9413  -16.2555 C   0  0  0  0  0  0  0  0  0  0  0  0
   27.7216  -16.8651  -15.5192 C   0  0  0  0  0  0  0  0  0  0  0  0
   27.4305  -18.1119  -16.0418 C   0  0  0  0  0  0  0  0  0  0  0  0
   26.6761  -19.1245  -15.2896 C   0  0  0  0  0  0  0  0  0  0  0  0
   27.5774  -19.8467  -14.3123 C   0  0  2  0  0  0  0  0  0  0  0  0
   28.4451  -20.7127  -15.0905 N   0  0  0  0  0  0  0  0  0  0  0  0
   26.7882  -20.6308  -13.3232 C   0  0  0  0  0  0  0  0  0  0  0  0
   26.3844  -21.8020  -13.6172 O   0  0  0  0  0  0  0  0  0  0  0  0
   27.8861  -18.3718  -17.3212 C   0  0  0  0  0  0  0  0  0  0  0  0
   28.5959  -17.4591  -18.0644 C   0  0  0  0  0  0  0  0  0  0  0  0
   26.5329  -18.8726   -7.3762 C   0  0  0  0  0  0  0  0  0  0  0  0
   27.1515  -20.5757   -7.3438 S   0  0  0  0  0  0  0  0  0  0  0  0
   26.9182  -21.2441   -9.0541 C   0  0  0  0  0  0  0  0  0  0  0  0
   25.8433  -20.4648   -9.7295 C   0  0  0  0  0  0  0  0  0  0  0  0
   25.5367  -20.8765  -11.1299 C   0  0  2  0  0  0  0  0  0  0  0  0
   26.4480  -20.1475  -12.0436 N   0  0  0  0  0  0  0  0  0  0  0  0
   24.1467  -20.6943  -11.5843 C   0  0  0  0  0  0  0  0  0  0  0  0
   23.7152  -19.5347  -11.9004 O   0  0  0  0  0  0  0  0  0  0  0  0
   20.5535  -24.8488  -14.5717 N   0  0  0  0  0  0  0  0  0  0  0  0
   19.6373  -23.7926  -14.3757 C   0  0  0  0  0  0  0  0  0  0  0  0
   18.5012  -23.8618  -14.8816 O   0  0  0  0  0  0  0  0  0  0  0  0
   20.0538  -22.6078  -13.5603 C   0  0  0  0  0  0  0  0  0  0  0  0
   21.4508  -22.7657  -13.0412 C   0  0  0  0  0  0  0  0  0  0  0  0
   21.8994  -21.5641  -12.3062 C   0  0  2  0  0  0  0  0  0  0  0  0
   23.2204  -21.7286  -11.7130 N   0  0  0  0  0  0  0  0  0  0  0  0
   20.9451  -21.1650  -11.2810 C   0  0  0  0  0  0  0  0  0  0  0  0
   21.0472  -21.3227  -10.0416 O   0  0  0  0  0  0  0  0  0  0  0  0
   19.7493  -20.5213  -11.6682 O   0  0  0  0  0  0  0  0  0  0  0  0
  2  1  1  0
  3  2  2  0
  4  3  1  0
  5  4  2  0
  5 11  1  0
  6  5  1  0
  7  6  1  0
  7  8  1  6
  9  7  1  0
  9 10  2  0
 11 12  2  0
 12  2  1  0
 14 13  1  0
 14 15  1  0
 15 16  1  0
 17 16  1  1
 17 19  1  0
 17 18  1  0
 18  9  1  0
 19 20  2  0
 22 24  1  0
 22 21  1  0
 23 22  2  0
 24 25  1  0
 26 25  1  1
 26 28  1  0
 27 26  1  0
 27 19  1  0
 28 29  2  0
 28 30  1  0
M  END
$$$$
