YMQ.pdb
     RDKit          3D

 30 30  0  0  1  0  0  0  0  0999 V2000
   15.2321  -16.0930  -19.3923 O   0  0  0  0  0  0  0  0  0  0  0  0
   16.1098  -15.1433  -18.8944 C   0  0  0  0  0  0  0  0  0  0  0  0
   17.2077  -14.7209  -19.6118 C   0  0  0  0  0  0  0  0  0  0  0  0
   18.0875  -13.7767  -19.1261 C   0  0  0  0  0  0  0  0  0  0  0  0
   17.8972  -13.2090  -17.8796 C   0  0  0  0  0  0  0  0  0  0  0  0
   18.8119  -12.2006  -17.3255 C   0  0  0  0  0  0  0  0  0  0  0  0
   20.1331  -12.8298  -16.9419 C   0  0  2  0  0  0  0  0  0  0  0  0
   19.8479  -13.8536  -15.9525 N   0  0  0  0  0  0  0  0  0  0  0  0
   21.0813  -11.8164  -16.4037 C   0  0  0  0  0  0  0  0  0  0  0  0
   20.9294  -11.3683  -15.2216 O   0  0  0  0  0  0  0  0  0  0  0  0
   16.7941  -13.6360  -17.1636 C   0  0  0  0  0  0  0  0  0  0  0  0
   15.9105  -14.5762  -17.6373 C   0  0  0  0  0  0  0  0  0  0  0  0
   27.9033  -11.0723  -15.6402 C   0  0  0  0  0  0  0  0  0  0  0  0
   26.3179  -10.3741  -15.1077 S   0  0  0  0  0  0  0  0  0  0  0  0
   25.5357   -9.6511  -16.6215 C   0  0  0  0  0  0  0  0  0  0  0  0
   24.4695  -10.5762  -17.0971 C   0  0  0  0  0  0  0  0  0  0  0  0
   23.0969  -10.2867  -16.5901 C   0  0  2  0  0  0  0  0  0  0  0  0
   22.1696  -11.3043  -17.1388 N   0  0  0  0  0  0  0  0  0  0  0  0
   22.5595   -8.9423  -16.8650 C   0  0  0  0  0  0  0  0  0  0  0  0
   22.2265   -8.6080  -18.0516 O   0  0  0  0  0  0  0  0  0  0  0  0
   17.8102   -5.9988  -15.2539 N   0  0  0  0  0  0  0  0  0  0  0  0
   18.5159   -4.9019  -15.7944 C   0  0  0  0  0  0  0  0  0  0  0  0
   17.9372   -3.8082  -15.9373 O   0  0  0  0  0  0  0  0  0  0  0  0
   19.9505   -5.0788  -16.1853 C   0  0  0  0  0  0  0  0  0  0  0  0
   20.4386   -6.4584  -15.8621 C   0  0  0  0  0  0  0  0  0  0  0  0
   21.8721   -6.6200  -16.1847 C   0  0  2  0  0  0  0  0  0  0  0  0
   22.3660   -7.9601  -15.8943 N   0  0  0  0  0  0  0  0  0  0  0  0
   22.6981   -5.6323  -15.5043 C   0  0  0  0  0  0  0  0  0  0  0  0
   23.5343   -5.8354  -14.5926 O   0  0  0  0  0  0  0  0  0  0  0  0
   22.5883   -4.2733  -15.8724 O   0  0  0  0  0  0  0  0  0  0  0  0
  2  1  1  0
  3  2  2  0
  4  3  1  0
  5  4  2  0
  5 11  1  0
  6  5  1  0
  7  6  1  0
  7  8  1  1
  9  7  1  0
  9 10  2  0
 11 12  2  0
 12  2  1  0
 14 13  1  0
 14 15  1  0
 15 16  1  0
 17 16  1  6
 17 19  1  0
 17 18  1  0
 18  9  1  0
 19 20  2  0
 22 24  1  0
 22 21  1  0
 23 22  2  0
 24 25  1  0
 26 25  1  1
 26 28  1  0
 27 26  1  0
 27 19  1  0
 28 29  2  0
 28 30  1  0
M  END
$$$$
