YMQ.pdb
     RDKit          3D

 30 30  0  0  1  0  0  0  0  0999 V2000
   29.1498  -19.9300   -4.8899 O   0  0  0  0  0  0  0  0  0  0  0  0
   28.3345  -20.0397   -6.0050 C   0  0  0  0  0  0  0  0  0  0  0  0
   28.1410  -21.2423   -6.6490 C   0  0  0  0  0  0  0  0  0  0  0  0
   27.3322  -21.3628   -7.7592 C   0  0  0  0  0  0  0  0  0  0  0  0
   26.6737  -20.2621   -8.2763 C   0  0  0  0  0  0  0  0  0  0  0  0
   25.8037  -20.3482   -9.4578 C   0  0  0  0  0  0  0  0  0  0  0  0
   26.5341  -20.9949  -10.6142 C   0  0  2  0  0  0  0  0  0  0  0  0
   27.7582  -20.2420  -10.8215 N   0  0  0  0  0  0  0  0  0  0  0  0
   25.6988  -21.0059  -11.8462 C   0  0  0  0  0  0  0  0  0  0  0  0
   25.4217  -19.9120  -12.4362 O   0  0  0  0  0  0  0  0  0  0  0  0
   26.8709  -19.0576   -7.6265 C   0  0  0  0  0  0  0  0  0  0  0  0
   27.6746  -18.9254   -6.5194 C   0  0  0  0  0  0  0  0  0  0  0  0
   24.3596  -26.4143  -15.2361 C   0  0  0  0  0  0  0  0  0  0  0  0
   24.6218  -25.1718  -16.5291 S   0  0  0  0  0  0  0  0  0  0  0  0
   24.1323  -23.5459  -15.7920 C   0  0  0  0  0  0  0  0  0  0  0  0
   24.7329  -23.4369  -14.4333 C   0  0  0  0  0  0  0  0  0  0  0  0
   24.4144  -22.1832  -13.6906 C   0  0  2  0  0  0  0  0  0  0  0  0
   25.1781  -22.1832  -12.4204 N   0  0  0  0  0  0  0  0  0  0  0  0
   22.9921  -21.9283  -13.4012 C   0  0  0  0  0  0  0  0  0  0  0  0
   22.4434  -22.4257  -12.3609 O   0  0  0  0  0  0  0  0  0  0  0  0
   20.8118  -20.3659  -10.5161 N   0  0  0  0  0  0  0  0  0  0  0  0
   19.4636  -20.5057  -10.9113 C   0  0  0  0  0  0  0  0  0  0  0  0
   18.6042  -20.8194  -10.0661 O   0  0  0  0  0  0  0  0  0  0  0  0
   19.0956  -20.2726  -12.3439 C   0  0  0  0  0  0  0  0  0  0  0  0
   20.3001  -19.9355  -13.1694 C   0  0  0  0  0  0  0  0  0  0  0  0
   20.7111  -21.0694  -14.0241 C   0  0  2  0  0  0  0  0  0  0  0  0
   22.1560  -21.1472  -14.1983 N   0  0  0  0  0  0  0  0  0  0  0  0
   20.0591  -21.0345  -15.3259 C   0  0  0  0  0  0  0  0  0  0  0  0
   20.5873  -20.7934  -16.4369 O   0  0  0  0  0  0  0  0  0  0  0  0
   18.6737  -21.2953  -15.4079 O   0  0  0  0  0  0  0  0  0  0  0  0
  2  1  1  0
  3  2  2  0
  4  3  1  0
  5  4  2  0
  5 11  1  0
  6  5  1  0
  7  6  1  0
  7  8  1  6
  9  7  1  0
  9 10  2  0
 11 12  2  0
 12  2  1  0
 14 13  1  0
 14 15  1  0
 15 16  1  0
 17 16  1  1
 17 19  1  0
 17 18  1  0
 18  9  1  0
 19 20  2  0
 22 24  1  0
 22 21  1  0
 23 22  2  0
 24 25  1  0
 26 25  1  6
 26 28  1  0
 27 26  1  0
 27 19  1  0
 28 29  2  0
 28 30  1  0
M  END
$$$$
