YMQ.pdb
     RDKit          3D

 30 30  0  0  1  0  0  0  0  0999 V2000
   22.9234  -17.8933  -18.0986 O   0  0  0  0  0  0  0  0  0  0  0  0
   22.9688  -18.4325  -16.8229 C   0  0  0  0  0  0  0  0  0  0  0  0
   23.4388  -17.7134  -15.7457 C   0  0  0  0  0  0  0  0  0  0  0  0
   23.4885  -18.2401  -14.4723 C   0  0  0  0  0  0  0  0  0  0  0  0
   23.0610  -19.5317  -14.2249 C   0  0  0  0  0  0  0  0  0  0  0  0
   23.0983  -20.1302  -12.8830 C   0  0  0  0  0  0  0  0  0  0  0  0
   24.5254  -20.3867  -12.4509 C   0  0  2  0  0  0  0  0  0  0  0  0
   25.0551  -21.4232  -13.3188 N   0  0  0  0  0  0  0  0  0  0  0  0
   24.5945  -20.7993  -11.0224 C   0  0  0  0  0  0  0  0  0  0  0  0
   24.0634  -21.8953  -10.6509 O   0  0  0  0  0  0  0  0  0  0  0  0
   22.5901  -20.2493  -15.3090 C   0  0  0  0  0  0  0  0  0  0  0  0
   22.5359  -19.7350  -16.5825 C   0  0  0  0  0  0  0  0  0  0  0  0
   27.9385  -19.8939   -4.0411 C   0  0  0  0  0  0  0  0  0  0  0  0
   27.9417  -19.6045   -5.8302 S   0  0  0  0  0  0  0  0  0  0  0  0
   26.1748  -19.7005   -6.3736 C   0  0  0  0  0  0  0  0  0  0  0  0
   26.1154  -19.4880   -7.8467 C   0  0  0  0  0  0  0  0  0  0  0  0
   25.2322  -20.4287   -8.5948 C   0  0  2  0  0  0  0  0  0  0  0  0
   25.2283  -20.0334  -10.0232 N   0  0  0  0  0  0  0  0  0  0  0  0
   23.8419  -20.5497   -8.1213 C   0  0  0  0  0  0  0  0  0  0  0  0
   22.9845  -19.6427   -8.3911 O   0  0  0  0  0  0  0  0  0  0  0  0
   20.0125  -25.3095   -7.8878 N   0  0  0  0  0  0  0  0  0  0  0  0
   19.3225  -24.4166   -7.0393 C   0  0  0  0  0  0  0  0  0  0  0  0
   18.1943  -24.7236   -6.6100 O   0  0  0  0  0  0  0  0  0  0  0  0
   19.9655  -23.1150   -6.6726 C   0  0  0  0  0  0  0  0  0  0  0  0
   21.3533  -23.0152   -7.2295 C   0  0  0  0  0  0  0  0  0  0  0  0
   21.9846  -21.7213   -6.8941 C   0  0  2  0  0  0  0  0  0  0  0  0
   23.3566  -21.6236   -7.3759 N   0  0  0  0  0  0  0  0  0  0  0  0
   21.9442  -21.4502   -5.4638 C   0  0  0  0  0  0  0  0  0  0  0  0
   22.9009  -21.4825   -4.6544 O   0  0  0  0  0  0  0  0  0  0  0  0
   20.7131  -21.1053   -4.8640 O   0  0  0  0  0  0  0  0  0  0  0  0
  2  1  1  0
  3  2  2  0
  4  3  1  0
  5  4  2  0
  5 11  1  0
  6  5  1  0
  7  6  1  0
  7  8  1  6
  9  7  1  0
  9 10  2  0
 11 12  2  0
 12  2  1  0
 14 13  1  0
 14 15  1  0
 15 16  1  0
 17 16  1  1
 17 19  1  0
 17 18  1  0
 18  9  1  0
 19 20  2  0
 22 24  1  0
 22 21  1  0
 23 22  2  0
 24 25  1  0
 26 25  1  1
 26 28  1  0
 27 26  1  0
 27 19  1  0
 28 29  2  0
 28 30  1  0
M  END
$$$$
