YMQ.pdb
     RDKit          3D

 30 30  0  0  1  0  0  0  0  0999 V2000
   14.4846  -10.4520  -22.9787 O   0  0  0  0  0  0  0  0  0  0  0  0
   15.3338  -10.0336  -21.9667 C   0  0  0  0  0  0  0  0  0  0  0  0
   16.7020  -10.0118  -22.1280 C   0  0  0  0  0  0  0  0  0  0  0  0
   17.5561   -9.5976  -21.1279 C   0  0  0  0  0  0  0  0  0  0  0  0
   17.0627   -9.1816  -19.9049 C   0  0  0  0  0  0  0  0  0  0  0  0
   17.9391   -8.7337  -18.8132 C   0  0  0  0  0  0  0  0  0  0  0  0
   18.7270   -9.8954  -18.2487 C   0  0  2  0  0  0  0  0  0  0  0  0
   17.8096  -10.6846  -17.4463 N   0  0  0  0  0  0  0  0  0  0  0  0
   19.8801   -9.4245  -17.4335 C   0  0  0  0  0  0  0  0  0  0  0  0
   19.7332   -9.2146  -16.1862 O   0  0  0  0  0  0  0  0  0  0  0  0
   15.6891   -9.2052  -19.7478 C   0  0  0  0  0  0  0  0  0  0  0  0
   14.8281   -9.6159  -20.7373 C   0  0  0  0  0  0  0  0  0  0  0  0
   26.3567   -9.9632  -14.5119 C   0  0  0  0  0  0  0  0  0  0  0  0
   24.8403  -10.3922  -15.4068 S   0  0  0  0  0  0  0  0  0  0  0  0
   24.7934   -9.2995  -16.9002 C   0  0  0  0  0  0  0  0  0  0  0  0
   23.5251   -9.5537  -17.6388 C   0  0  0  0  0  0  0  0  0  0  0  0
   22.3270   -8.8304  -17.1229 C   0  0  2  0  0  0  0  0  0  0  0  0
   21.1629   -9.1882  -17.9675 N   0  0  0  0  0  0  0  0  0  0  0  0
   22.4278   -7.3629  -17.0324 C   0  0  0  0  0  0  0  0  0  0  0  0
   22.5753   -6.6575  -18.0866 O   0  0  0  0  0  0  0  0  0  0  0  0
   18.1854   -3.2323  -15.7225 N   0  0  0  0  0  0  0  0  0  0  0  0
   19.4590   -3.3763  -15.1305 C   0  0  0  0  0  0  0  0  0  0  0  0
   19.9548   -2.4244  -14.4984 O   0  0  0  0  0  0  0  0  0  0  0  0
   20.1883   -4.6759  -15.2763 C   0  0  0  0  0  0  0  0  0  0  0  0
   21.6073   -4.5615  -14.8081 C   0  0  0  0  0  0  0  0  0  0  0  0
   22.5474   -5.1999  -15.7535 C   0  0  2  0  0  0  0  0  0  0  0  0
   22.3646   -6.6432  -15.8397 N   0  0  0  0  0  0  0  0  0  0  0  0
   23.9347   -4.8976  -15.4297 C   0  0  0  0  0  0  0  0  0  0  0  0
   24.5066   -3.7837  -15.4907 O   0  0  0  0  0  0  0  0  0  0  0  0
   24.7808   -5.9394  -14.9901 O   0  0  0  0  0  0  0  0  0  0  0  0
  2  1  1  0
  3  2  2  0
  4  3  1  0
  5  4  2  0
  5 11  1  0
  6  5  1  0
  7  6  1  0
  7  8  1  1
  9  7  1  0
  9 10  2  0
 11 12  2  0
 12  2  1  0
 14 13  1  0
 14 15  1  0
 15 16  1  0
 17 16  1  6
 17 19  1  0
 17 18  1  0
 18  9  1  0
 19 20  2  0
 22 24  1  0
 22 21  1  0
 23 22  2  0
 24 25  1  0
 26 25  1  1
 26 28  1  0
 27 26  1  0
 27 19  1  0
 28 29  2  0
 28 30  1  0
M  END
$$$$
