YMQ.pdb
     RDKit          3D

 30 30  0  0  1  0  0  0  0  0999 V2000
    9.4570  -10.8088   -9.4219 O   0  0  0  0  0  0  0  0  0  0  0  0
   10.7780  -10.3974   -9.3458 C   0  0  0  0  0  0  0  0  0  0  0  0
   11.8227  -11.2949   -9.3867 C   0  0  0  0  0  0  0  0  0  0  0  0
   13.1407  -10.8965   -9.3117 C   0  0  0  0  0  0  0  0  0  0  0  0
   13.4685   -9.5586   -9.1907 C   0  0  0  0  0  0  0  0  0  0  0  0
   14.8601   -9.0931   -9.1069 C   0  0  0  0  0  0  0  0  0  0  0  0
   15.5962   -9.3714  -10.3991 C   0  0  2  0  0  0  0  0  0  0  0  0
   16.0562  -10.7474  -10.3413 N   0  0  0  0  0  0  0  0  0  0  0  0
   16.7373   -8.4342  -10.5868 C   0  0  0  0  0  0  0  0  0  0  0  0
   17.7047   -8.4367   -9.7589 O   0  0  0  0  0  0  0  0  0  0  0  0
   12.4168   -8.6618   -9.1502 C   0  0  0  0  0  0  0  0  0  0  0  0
   11.0994   -9.0470   -9.2240 C   0  0  0  0  0  0  0  0  0  0  0  0
   21.3552   -6.5988  -11.2405 C   0  0  0  0  0  0  0  0  0  0  0  0
   21.2268   -6.1935  -13.0022 S   0  0  0  0  0  0  0  0  0  0  0  0
   19.5554   -5.4337  -13.2384 C   0  0  0  0  0  0  0  0  0  0  0  0
   18.5189   -6.4805  -13.0181 C   0  0  0  0  0  0  0  0  0  0  0  0
   17.8284   -6.4307  -11.6970 C   0  0  2  0  0  0  0  0  0  0  0  0
   16.8201   -7.5160  -11.6530 N   0  0  0  0  0  0  0  0  0  0  0  0
   17.1846   -5.1556  -11.3342 C   0  0  0  0  0  0  0  0  0  0  0  0
   16.1100   -4.7842  -11.9154 O   0  0  0  0  0  0  0  0  0  0  0  0
   14.3452   -0.2968   -8.0336 N   0  0  0  0  0  0  0  0  0  0  0  0
   15.2920   -1.2956   -7.7192 C   0  0  0  0  0  0  0  0  0  0  0  0
   14.9921   -2.1954   -6.9118 O   0  0  0  0  0  0  0  0  0  0  0  0
   16.6415   -1.2509   -8.3665 C   0  0  0  0  0  0  0  0  0  0  0  0
   17.1671   -2.6294   -8.6298 C   0  0  0  0  0  0  0  0  0  0  0  0
   17.0611   -2.9905  -10.0594 C   0  0  2  0  0  0  0  0  0  0  0  0
   17.6654   -4.2824  -10.3592 N   0  0  0  0  0  0  0  0  0  0  0  0
   17.6325   -1.9669  -10.9234 C   0  0  0  0  0  0  0  0  0  0  0  0
   18.8257   -1.8597  -11.2924 O   0  0  0  0  0  0  0  0  0  0  0  0
   16.7936   -0.9528  -11.4354 O   0  0  0  0  0  0  0  0  0  0  0  0
  2  1  1  0
  3  2  2  0
  4  3  1  0
  5  4  2  0
  5 11  1  0
  6  5  1  0
  7  6  1  0
  7  8  1  1
  9  7  1  0
  9 10  2  0
 11 12  2  0
 12  2  1  0
 14 13  1  0
 14 15  1  0
 15 16  1  0
 17 16  1  6
 17 19  1  0
 17 18  1  0
 18  9  1  0
 19 20  2  0
 22 24  1  0
 22 21  1  0
 23 22  2  0
 24 25  1  0
 26 25  1  1
 26 28  1  0
 27 26  1  0
 27 19  1  0
 28 29  2  0
 28 30  1  0
M  END
$$$$
