YMQ.pdb
     RDKit          3D

 30 30  0  0  1  0  0  0  0  0999 V2000
   28.3451  -39.2885  -16.6931 O   0  0  0  0  0  0  0  0  0  0  0  0
   28.0240  -37.9630  -16.4476 C   0  0  0  0  0  0  0  0  0  0  0  0
   28.2507  -37.3748  -15.2224 C   0  0  0  0  0  0  0  0  0  0  0  0
   27.9351  -36.0570  -14.9671 C   0  0  0  0  0  0  0  0  0  0  0  0
   27.3697  -35.2632  -15.9482 C   0  0  0  0  0  0  0  0  0  0  0  0
   27.0179  -33.8551  -15.7163 C   0  0  0  0  0  0  0  0  0  0  0  0
   28.1150  -32.9404  -16.2149 C   0  0  2  0  0  0  0  0  0  0  0  0
   29.1229  -32.8736  -15.1719 N   0  0  0  0  0  0  0  0  0  0  0  0
   27.5884  -31.5857  -16.5364 C   0  0  0  0  0  0  0  0  0  0  0  0
   27.7329  -30.6334  -15.7035 O   0  0  0  0  0  0  0  0  0  0  0  0
   27.1442  -35.8580  -17.1760 C   0  0  0  0  0  0  0  0  0  0  0  0
   27.4546  -37.1702  -17.4420 C   0  0  0  0  0  0  0  0  0  0  0  0
   27.3834  -29.1967  -22.4817 C   0  0  0  0  0  0  0  0  0  0  0  0
   27.7708  -27.8034  -21.3895 S   0  0  0  0  0  0  0  0  0  0  0  0
   26.8532  -28.1113  -19.8117 C   0  0  0  0  0  0  0  0  0  0  0  0
   27.1723  -29.4854  -19.3335 C   0  0  0  0  0  0  0  0  0  0  0  0
   26.4806  -29.9044  -18.0801 C   0  0  2  0  0  0  0  0  0  0  0  0
   26.9197  -31.2781  -17.7385 N   0  0  0  0  0  0  0  0  0  0  0  0
   25.0078  -29.8540  -18.0882 C   0  0  0  0  0  0  0  0  0  0  0  0
   24.3295  -30.8126  -18.5900 O   0  0  0  0  0  0  0  0  0  0  0  0
   21.0208  -26.1612  -14.8055 N   0  0  0  0  0  0  0  0  0  0  0  0
   20.1532  -27.0065  -15.5306 C   0  0  0  0  0  0  0  0  0  0  0  0
   18.9266  -26.9554  -15.3204 O   0  0  0  0  0  0  0  0  0  0  0  0
   20.7296  -27.9497  -16.5408 C   0  0  0  0  0  0  0  0  0  0  0  0
   22.2267  -27.8832  -16.5584 C   0  0  0  0  0  0  0  0  0  0  0  0
   22.7994  -28.7474  -17.6122 C   0  0  2  0  0  0  0  0  0  0  0  0
   24.2548  -28.8044  -17.5629 N   0  0  0  0  0  0  0  0  0  0  0  0
   22.3669  -28.3430  -18.9427 C   0  0  0  0  0  0  0  0  0  0  0  0
   22.8509  -27.4348  -19.6586 O   0  0  0  0  0  0  0  0  0  0  0  0
   21.2827  -29.0163  -19.5473 O   0  0  0  0  0  0  0  0  0  0  0  0
  2  1  1  0
  3  2  2  0
  4  3  1  0
  5  4  2  0
  5 11  1  0
  6  5  1  0
  7  6  1  0
  7  8  1  1
  9  7  1  0
  9 10  2  0
 11 12  2  0
 12  2  1  0
 14 13  1  0
 14 15  1  0
 15 16  1  0
 17 16  1  6
 17 19  1  0
 17 18  1  0
 18  9  1  0
 19 20  2  0
 22 24  1  0
 22 21  1  0
 23 22  2  0
 24 25  1  0
 26 25  1  1
 26 28  1  0
 27 26  1  0
 27 19  1  0
 28 29  2  0
 28 30  1  0
M  END
$$$$
