YMQ.pdb
     RDKit          3D

 30 30  0  0  1  0  0  0  0  0999 V2000
   21.9792  -16.3168  -18.6320 O   0  0  0  0  0  0  0  0  0  0  0  0
   22.0065  -17.1610  -17.5335 C   0  0  0  0  0  0  0  0  0  0  0  0
   21.7292  -18.5062  -17.6430 C   0  0  0  0  0  0  0  0  0  0  0  0
   21.7534  -19.3552  -16.5567 C   0  0  0  0  0  0  0  0  0  0  0  0
   22.0622  -18.8798  -15.2954 C   0  0  0  0  0  0  0  0  0  0  0  0
   22.0979  -19.7511  -14.1122 C   0  0  0  0  0  0  0  0  0  0  0  0
   23.5222  -19.9686  -13.6506 C   0  0  2  0  0  0  0  0  0  0  0  0
   24.2018  -20.7121  -14.6963 N   0  0  0  0  0  0  0  0  0  0  0  0
   23.5675  -20.7036  -12.3569 C   0  0  0  0  0  0  0  0  0  0  0  0
   23.3824  -21.9632  -12.3346 O   0  0  0  0  0  0  0  0  0  0  0  0
   22.3398  -17.5293  -15.1906 C   0  0  0  0  0  0  0  0  0  0  0  0
   22.3187  -16.6736  -16.2660 C   0  0  0  0  0  0  0  0  0  0  0  0
   27.4220  -19.2799   -7.9363 C   0  0  0  0  0  0  0  0  0  0  0  0
   26.3295  -19.9808   -6.6716 S   0  0  0  0  0  0  0  0  0  0  0  0
   24.9492  -20.8123   -7.5826 C   0  0  0  0  0  0  0  0  0  0  0  0
   24.8285  -20.1963   -8.9334 C   0  0  0  0  0  0  0  0  0  0  0  0
   23.8180  -20.8215   -9.8349 C   0  0  2  0  0  0  0  0  0  0  0  0
   23.8090  -20.0781  -11.1170 N   0  0  0  0  0  0  0  0  0  0  0  0
   22.4405  -20.9170   -9.3200 C   0  0  0  0  0  0  0  0  0  0  0  0
   21.7009  -19.8783   -9.2521 O   0  0  0  0  0  0  0  0  0  0  0  0
   17.2589  -25.5502   -7.1798 N   0  0  0  0  0  0  0  0  0  0  0  0
   18.4308  -25.2793   -7.9190 C   0  0  0  0  0  0  0  0  0  0  0  0
   19.1532  -26.2221   -8.2943 O   0  0  0  0  0  0  0  0  0  0  0  0
   18.7804  -23.8584   -8.2368 C   0  0  0  0  0  0  0  0  0  0  0  0
   20.1805  -23.5325   -7.8130 C   0  0  0  0  0  0  0  0  0  0  0  0
   20.5613  -22.1569   -8.1977 C   0  0  2  0  0  0  0  0  0  0  0  0
   21.8437  -22.1009   -8.8878 N   0  0  0  0  0  0  0  0  0  0  0  0
   20.5777  -21.2561   -7.0535 C   0  0  0  0  0  0  0  0  0  0  0  0
   21.5747  -20.8812   -6.3925 O   0  0  0  0  0  0  0  0  0  0  0  0
   19.3602  -20.7104   -6.5908 O   0  0  0  0  0  0  0  0  0  0  0  0
  2  1  1  0
  3  2  2  0
  4  3  1  0
  5  4  2  0
  5 11  1  0
  6  5  1  0
  7  6  1  0
  7  8  1  6
  9  7  1  0
  9 10  2  0
 11 12  2  0
 12  2  1  0
 14 13  1  0
 14 15  1  0
 15 16  1  0
 17 16  1  1
 17 19  1  0
 17 18  1  0
 18  9  1  0
 19 20  2  0
 22 24  1  0
 22 21  1  0
 23 22  2  0
 24 25  1  0
 26 25  1  1
 26 28  1  0
 27 26  1  0
 27 19  1  0
 28 29  2  0
 28 30  1  0
M  END
$$$$
