YMQ.pdb
     RDKit          3D

 30 30  0  0  1  0  0  0  0  0999 V2000
   21.5814  -20.9291  -13.0408 O   0  0  0  0  0  0  0  0  0  0  0  0
   20.7099  -21.5646  -12.1707 C   0  0  0  0  0  0  0  0  0  0  0  0
   19.5671  -22.1925  -12.6157 C   0  0  0  0  0  0  0  0  0  0  0  0
   18.6931  -22.8276  -11.7589 C   0  0  0  0  0  0  0  0  0  0  0  0
   18.9354  -22.8584  -10.3978 C   0  0  0  0  0  0  0  0  0  0  0  0
   18.0288  -23.5237   -9.4513 C   0  0  0  0  0  0  0  0  0  0  0  0
   18.5609  -24.8874   -9.0691 C   0  0  2  0  0  0  0  0  0  0  0  0
   18.4886  -25.7222  -10.2550 N   0  0  0  0  0  0  0  0  0  0  0  0
   17.7797  -25.4810   -7.9497 C   0  0  0  0  0  0  0  0  0  0  0  0
   16.5722  -25.8392   -8.1369 O   0  0  0  0  0  0  0  0  0  0  0  0
   20.0835  -22.2271   -9.9561 C   0  0  0  0  0  0  0  0  0  0  0  0
   20.9619  -21.5909  -10.8005 C   0  0  0  0  0  0  0  0  0  0  0  0
   20.1613  -26.6392   -1.7081 C   0  0  0  0  0  0  0  0  0  0  0  0
   18.9209  -27.9025   -2.0950 S   0  0  0  0  0  0  0  0  0  0  0  0
   17.6798  -27.0883   -3.2009 C   0  0  0  0  0  0  0  0  0  0  0  0
   18.3502  -26.7127   -4.4769 C   0  0  0  0  0  0  0  0  0  0  0  0
   17.4655  -26.0986   -5.5090 C   0  0  2  0  0  0  0  0  0  0  0  0
   18.3043  -25.6787   -6.6565 N   0  0  0  0  0  0  0  0  0  0  0  0
   16.6324  -24.9628   -5.0759 C   0  0  0  0  0  0  0  0  0  0  0  0
   17.1222  -23.7848   -5.0188 O   0  0  0  0  0  0  0  0  0  0  0  0
   10.5314  -24.0879   -5.9044 N   0  0  0  0  0  0  0  0  0  0  0  0
   10.8692  -22.9528   -5.1359 C   0  0  0  0  0  0  0  0  0  0  0  0
   10.0081  -22.0800   -4.9162 O   0  0  0  0  0  0  0  0  0  0  0  0
   12.2613  -22.8230   -4.5997 C   0  0  0  0  0  0  0  0  0  0  0  0
   13.0823  -24.0373   -4.9119 C   0  0  0  0  0  0  0  0  0  0  0  0
   14.4529  -23.9240   -4.3698 C   0  0  2  0  0  0  0  0  0  0  0  0
   15.2897  -25.0664   -4.7140 N   0  0  0  0  0  0  0  0  0  0  0  0
   14.4533  -23.7301   -2.9264 C   0  0  0  0  0  0  0  0  0  0  0  0
   14.5969  -24.6045   -2.0397 O   0  0  0  0  0  0  0  0  0  0  0  0
   14.2766  -22.4285   -2.4076 O   0  0  0  0  0  0  0  0  0  0  0  0
  2  1  1  0
  3  2  2  0
  4  3  1  0
  5  4  2  0
  5 11  1  0
  6  5  1  0
  7  6  1  0
  7  8  1  6
  9  7  1  0
  9 10  2  0
 11 12  2  0
 12  2  1  0
 14 13  1  0
 14 15  1  0
 15 16  1  0
 17 16  1  1
 17 19  1  0
 17 18  1  0
 18  9  1  0
 19 20  2  0
 22 24  1  0
 22 21  1  0
 23 22  2  0
 24 25  1  0
 26 25  1  1
 26 28  1  0
 27 26  1  0
 27 19  1  0
 28 29  2  0
 28 30  1  0
M  END
$$$$
