YMQ.pdb
     RDKit          3D

 30 30  0  0  1  0  0  0  0  0999 V2000
   29.1225  -15.6217  -19.7492 O   0  0  0  0  0  0  0  0  0  0  0  0
   28.3744  -16.4799  -18.9592 C   0  0  0  0  0  0  0  0  0  0  0  0
   27.5169  -17.4097  -19.5057 C   0  0  0  0  0  0  0  0  0  0  0  0
   26.7678  -18.2683  -18.7292 C   0  0  0  0  0  0  0  0  0  0  0  0
   26.8508  -18.2274  -17.3494 C   0  0  0  0  0  0  0  0  0  0  0  0
   26.0689  -19.1241  -16.4864 C   0  0  0  0  0  0  0  0  0  0  0  0
   26.9823  -19.9723  -15.6289 C   0  0  2  0  0  0  0  0  0  0  0  0
   27.6476  -20.9125  -16.5131 N   0  0  0  0  0  0  0  0  0  0  0  0
   26.2220  -20.6850  -14.5660 C   0  0  0  0  0  0  0  0  0  0  0  0
   25.7740  -21.8572  -14.7821 O   0  0  0  0  0  0  0  0  0  0  0  0
   27.7127  -17.2928  -16.8058 C   0  0  0  0  0  0  0  0  0  0  0  0
   28.4642  -16.4319  -17.5695 C   0  0  0  0  0  0  0  0  0  0  0  0
   25.1441  -21.1763   -6.7863 C   0  0  0  0  0  0  0  0  0  0  0  0
   25.9662  -20.3798   -8.1914 S   0  0  0  0  0  0  0  0  0  0  0  0
   25.1327  -21.0252   -9.7129 C   0  0  0  0  0  0  0  0  0  0  0  0
   25.7834  -20.4193  -10.9080 C   0  0  0  0  0  0  0  0  0  0  0  0
   25.2615  -20.8830  -12.2260 C   0  0  2  0  0  0  0  0  0  0  0  0
   25.9571  -20.1311  -13.2972 N   0  0  0  0  0  0  0  0  0  0  0  0
   23.8055  -20.7862  -12.4327 C   0  0  0  0  0  0  0  0  0  0  0  0
   23.2399  -19.6458  -12.5336 O   0  0  0  0  0  0  0  0  0  0  0  0
   19.4332  -23.9325   -9.6420 N   0  0  0  0  0  0  0  0  0  0  0  0
   18.6599  -23.0903  -10.4702 C   0  0  0  0  0  0  0  0  0  0  0  0
   17.4304  -23.0088  -10.2881 O   0  0  0  0  0  0  0  0  0  0  0  0
   19.3382  -22.3104  -11.5537 C   0  0  0  0  0  0  0  0  0  0  0  0
   20.8290  -22.4357  -11.4656 C   0  0  0  0  0  0  0  0  0  0  0  0
   21.5007  -21.7790  -12.6070 C   0  0  2  0  0  0  0  0  0  0  0  0
   22.9528  -21.8842  -12.5410 N   0  0  0  0  0  0  0  0  0  0  0  0
   21.1133  -20.3811  -12.7360 C   0  0  0  0  0  0  0  0  0  0  0  0
   21.4942  -19.4163  -12.0320 O   0  0  0  0  0  0  0  0  0  0  0  0
   20.2076  -20.0099  -13.7539 O   0  0  0  0  0  0  0  0  0  0  0  0
  2  1  1  0
  3  2  2  0
  4  3  1  0
  5  4  2  0
  5 11  1  0
  6  5  1  0
  7  6  1  0
  7  8  1  6
  9  7  1  0
  9 10  2  0
 11 12  2  0
 12  2  1  0
 14 13  1  0
 14 15  1  0
 15 16  1  0
 17 16  1  1
 17 19  1  0
 17 18  1  0
 18  9  1  0
 19 20  2  0
 22 24  1  0
 22 21  1  0
 23 22  2  0
 24 25  1  0
 26 25  1  1
 26 28  1  0
 27 26  1  0
 27 19  1  0
 28 29  2  0
 28 30  1  0
M  END
$$$$
