YMQ.pdb
     RDKit          3D

 30 30  0  0  1  0  0  0  0  0999 V2000
   16.3167  -24.2396  -10.5546 O   0  0  0  0  0  0  0  0  0  0  0  0
   17.5508  -23.7154  -10.9046 C   0  0  0  0  0  0  0  0  0  0  0  0
   17.8178  -23.2748  -12.1826 C   0  0  0  0  0  0  0  0  0  0  0  0
   19.0420  -22.7516  -12.5417 C   0  0  0  0  0  0  0  0  0  0  0  0
   20.0647  -22.6479  -11.6167 C   0  0  0  0  0  0  0  0  0  0  0  0
   21.3837  -22.0973  -11.9594 C   0  0  0  0  0  0  0  0  0  0  0  0
   21.6613  -20.8398  -11.1653 C   0  0  2  0  0  0  0  0  0  0  0  0
   20.7214  -19.8308  -11.6200 N   0  0  0  0  0  0  0  0  0  0  0  0
   23.0660  -20.3818  -11.3470 C   0  0  0  0  0  0  0  0  0  0  0  0
   23.3193  -19.3964  -12.1127 O   0  0  0  0  0  0  0  0  0  0  0  0
   19.7919  -23.0912  -10.3357 C   0  0  0  0  0  0  0  0  0  0  0  0
   18.5759  -23.6145   -9.9662 C   0  0  0  0  0  0  0  0  0  0  0  0
   27.7311  -19.2888   -5.9692 C   0  0  0  0  0  0  0  0  0  0  0  0
   27.5358  -20.5952   -7.2100 S   0  0  0  0  0  0  0  0  0  0  0  0
   26.5351  -19.8602   -8.5828 C   0  0  0  0  0  0  0  0  0  0  0  0
   26.3247  -20.8985   -9.6299 C   0  0  0  0  0  0  0  0  0  0  0  0
   25.5475  -20.4563  -10.8238 C   0  0  2  0  0  0  0  0  0  0  0  0
   24.1678  -20.9853  -10.7080 N   0  0  0  0  0  0  0  0  0  0  0  0
   26.0967  -20.8184  -12.1425 C   0  0  0  0  0  0  0  0  0  0  0  0
   25.8245  -21.9495  -12.6692 O   0  0  0  0  0  0  0  0  0  0  0  0
   27.7977  -17.9605  -18.6156 N   0  0  0  0  0  0  0  0  0  0  0  0
   27.7192  -17.9262  -17.2064 C   0  0  0  0  0  0  0  0  0  0  0  0
   27.4315  -16.8590  -16.6320 O   0  0  0  0  0  0  0  0  0  0  0  0
   27.9844  -19.1790  -16.4304 C   0  0  0  0  0  0  0  0  0  0  0  0
   27.7534  -18.9728  -14.9641 C   0  0  0  0  0  0  0  0  0  0  0  0
   27.1397  -20.1616  -14.3354 C   0  0  2  0  0  0  0  0  0  0  0  0
   26.9199  -19.9905  -12.9049 N   0  0  0  0  0  0  0  0  0  0  0  0
   27.9207  -21.3676  -14.5731 C   0  0  0  0  0  0  0  0  0  0  0  0
   28.0460  -21.9946  -15.6513 O   0  0  0  0  0  0  0  0  0  0  0  0
   28.6415  -21.9417  -13.5030 O   0  0  0  0  0  0  0  0  0  0  0  0
  2  1  1  0
  3  2  2  0
  4  3  1  0
  5  4  2  0
  5 11  1  0
  6  5  1  0
  7  6  1  0
  7  8  1  6
  9  7  1  0
  9 10  2  0
 11 12  2  0
 12  2  1  0
 14 13  1  0
 14 15  1  0
 15 16  1  0
 17 16  1  1
 17 19  1  0
 17 18  1  0
 18  9  1  0
 19 20  2  0
 22 24  1  0
 22 21  1  0
 23 22  2  0
 24 25  1  0
 26 25  1  1
 26 28  1  0
 27 26  1  0
 27 19  1  0
 28 29  2  0
 28 30  1  0
M  END
$$$$
