YMQ.pdb
     RDKit          3D

 30 30  0  0  1  0  0  0  0  0999 V2000
   28.6721  -19.9805   -3.4213 O   0  0  0  0  0  0  0  0  0  0  0  0
   28.3858  -19.8616   -4.7719 C   0  0  0  0  0  0  0  0  0  0  0  0
   29.2775  -19.2964   -5.6572 C   0  0  0  0  0  0  0  0  0  0  0  0
   29.0030  -19.1729   -7.0029 C   0  0  0  0  0  0  0  0  0  0  0  0
   27.8019  -19.6196   -7.5227 C   0  0  0  0  0  0  0  0  0  0  0  0
   27.4706  -19.5058   -8.9501 C   0  0  0  0  0  0  0  0  0  0  0  0
   27.4218  -20.8718   -9.5987 C   0  0  2  0  0  0  0  0  0  0  0  0
   28.7890  -21.3530   -9.6854 N   0  0  0  0  0  0  0  0  0  0  0  0
   26.7905  -20.8113  -10.9454 C   0  0  0  0  0  0  0  0  0  0  0  0
   27.4911  -20.5019  -11.9626 O   0  0  0  0  0  0  0  0  0  0  0  0
   26.9104  -20.1861   -6.6303 C   0  0  0  0  0  0  0  0  0  0  0  0
   27.1730  -20.3144   -5.2873 C   0  0  0  0  0  0  0  0  0  0  0  0
   27.1474  -24.0265  -14.7126 C   0  0  0  0  0  0  0  0  0  0  0  0
   25.5539  -23.7539  -15.5315 S   0  0  0  0  0  0  0  0  0  0  0  0
   24.7965  -22.2768  -14.7124 C   0  0  0  0  0  0  0  0  0  0  0  0
   25.3408  -22.1651  -13.3303 C   0  0  0  0  0  0  0  0  0  0  0  0
   24.8169  -21.0238  -12.5256 C   0  0  2  0  0  0  0  0  0  0  0  0
   25.4265  -21.0821  -11.1759 N   0  0  0  0  0  0  0  0  0  0  0  0
   23.3525  -20.9246  -12.3924 C   0  0  0  0  0  0  0  0  0  0  0  0
   22.7264  -21.6623  -11.5590 O   0  0  0  0  0  0  0  0  0  0  0  0
   19.5646  -16.3460  -14.6617 N   0  0  0  0  0  0  0  0  0  0  0  0
   18.6705  -17.1339  -13.9048 C   0  0  0  0  0  0  0  0  0  0  0  0
   17.4759  -16.7931  -13.8137 O   0  0  0  0  0  0  0  0  0  0  0  0
   19.1806  -18.3671  -13.2257 C   0  0  0  0  0  0  0  0  0  0  0  0
   20.6423  -18.5697  -13.4870 C   0  0  0  0  0  0  0  0  0  0  0  0
   21.1479  -19.7979  -12.8381 C   0  0  2  0  0  0  0  0  0  0  0  0
   22.5546  -20.0476  -13.1263 N   0  0  0  0  0  0  0  0  0  0  0  0
   20.3568  -20.9675  -13.1947 C   0  0  0  0  0  0  0  0  0  0  0  0
   19.3127  -21.3805  -12.6374 O   0  0  0  0  0  0  0  0  0  0  0  0
   20.7639  -21.7661  -14.2860 O   0  0  0  0  0  0  0  0  0  0  0  0
  2  1  1  0
  3  2  2  0
  4  3  1  0
  5  4  2  0
  5 11  1  0
  6  5  1  0
  7  6  1  0
  7  8  1  6
  9  7  1  0
  9 10  2  0
 11 12  2  0
 12  2  1  0
 14 13  1  0
 14 15  1  0
 15 16  1  0
 17 16  1  6
 17 19  1  0
 17 18  1  0
 18  9  1  0
 19 20  2  0
 22 24  1  0
 22 21  1  0
 23 22  2  0
 24 25  1  0
 26 25  1  6
 26 28  1  0
 27 26  1  0
 27 19  1  0
 28 29  2  0
 28 30  1  0
M  END
$$$$
