CHF.pdb
     RDKit          3D

 28 29  0  0  1  0  0  0  0  0999 V2000
    8.1456  -14.9345   17.4673 N   0  0  0  0  0  0  0  0  0  0  0  0
    8.7241  -14.3637   18.6512 C   0  0  1  0  0  0  0  0  0  0  0  0
    8.2935  -12.9140   18.8300 C   0  0  0  0  0  0  0  0  0  0  0  0
    9.0929  -12.2095   20.2929 S   0  0  0  0  0  0  0  0  0  0  0  0
    8.2249  -15.1227   19.8654 C   0  0  0  0  0  0  0  0  0  0  0  0
    7.0066  -15.0804   20.1242 O   0  0  0  0  0  0  0  0  0  0  0  0
    9.1192  -15.8495   20.6682 N   0  0  0  0  0  0  0  0  0  0  0  0
    8.7825  -16.5987   21.8276 C   0  0  1  0  0  0  0  0  0  0  0  0
    8.7676  -18.1153   21.6427 C   0  0  0  0  0  0  0  0  0  0  0  0
    7.7432  -18.5551   20.6618 C   0  0  0  0  0  0  0  0  0  0  0  0
    6.3619  -18.4660   20.9233 C   0  0  0  0  0  0  0  0  0  0  0  0
    5.7249  -18.9288   19.8599 N   0  0  0  0  0  0  0  0  0  0  0  0
    6.6527  -19.2928   18.9695 C   0  0  0  0  0  0  0  0  0  0  0  0
    7.8832  -19.0716   19.4427 N   0  0  0  0  0  0  0  0  0  0  0  0
    9.5773  -16.2877   23.0281 C   0  0  0  0  0  0  0  0  0  0  0  0
   10.8259  -16.5112   23.0199 O   0  0  0  0  0  0  0  0  0  0  0  0
    9.0468  -15.7510   24.2042 N   0  0  0  0  0  0  0  0  0  0  0  0
    9.8345  -15.4534   25.3912 C   0  0  1  0  0  0  0  0  0  0  0  0
    9.8329  -14.0136   25.7307 C   0  0  0  0  0  0  0  0  0  0  0  0
    8.4562  -13.5042   25.8471 C   0  0  0  0  0  0  0  0  0  0  0  0
    7.9301  -13.2143   27.1138 C   0  0  0  0  0  0  0  0  0  0  0  0
    6.6802  -12.7174   27.2908 C   0  0  0  0  0  0  0  0  0  0  0  0
    5.8670  -12.4753   26.2061 C   0  0  0  0  0  0  0  0  0  0  0  0
    6.3344  -12.7440   24.9141 C   0  0  0  0  0  0  0  0  0  0  0  0
    7.6079  -13.2462   24.7918 C   0  0  0  0  0  0  0  0  0  0  0  0
    9.3182  -16.2665   26.5035 C   0  0  0  0  0  0  0  0  0  0  0  0
    8.1948  -17.0882   26.3818 O   0  0  0  0  0  0  0  0  0  0  0  0
    9.9143  -16.2248   27.6365 O   0  0  0  0  0  0  0  0  0  0  0  0
  2  1  1  6
  3  2  1  0
  3  4  1  0
  5  2  1  0
  5  6  2  0
  7  5  1  0
  8  7  1  0
  8  9  1  6
 10  9  1  0
 10 14  1  0
 11 12  1  0
 11 10  2  0
 12 13  1  0
 13 14  2  0
 15  8  1  0
 16 15  2  0
 17 15  1  0
 18 17  1  0
 18 26  1  0
 18 19  1  1
 20 19  1  0
 21 20  2  0
 22 21  1  0
 23 22  2  0
 23 24  1  0
 24 25  2  0
 25 20  1  0
 26 27  1  0
 28 26  2  0
M  END
$$$$
