CHF.pdb
     RDKit          3D

 28 29  0  0  1  0  0  0  0  0999 V2000
    7.9155  -14.6022   17.9337 N   0  0  0  0  0  0  0  0  0  0  0  0
    8.5257  -14.2103   19.1732 C   0  0  1  0  0  0  0  0  0  0  0  0
    7.9435  -12.8986   19.6825 C   0  0  0  0  0  0  0  0  0  0  0  0
    8.8984  -11.5062   19.0309 S   0  0  0  0  0  0  0  0  0  0  0  0
    8.2310  -15.2599   20.2272 C   0  0  0  0  0  0  0  0  0  0  0  0
    7.0450  -15.6004   20.4014 O   0  0  0  0  0  0  0  0  0  0  0  0
    9.2732  -15.8254   20.9800 N   0  0  0  0  0  0  0  0  0  0  0  0
    9.1341  -16.8198   21.9854 C   0  0  1  0  0  0  0  0  0  0  0  0
    9.9968  -18.0662   21.7940 C   0  0  0  0  0  0  0  0  0  0  0  0
    9.3884  -19.0349   20.8472 C   0  0  0  0  0  0  0  0  0  0  0  0
    8.0847  -18.8743   20.3385 C   0  0  0  0  0  0  0  0  0  0  0  0
    7.8461  -19.8916   19.5269 N   0  0  0  0  0  0  0  0  0  0  0  0
    8.9406  -20.6584   19.5203 C   0  0  0  0  0  0  0  0  0  0  0  0
    9.8858  -20.1506   20.3176 N   0  0  0  0  0  0  0  0  0  0  0  0
    9.3116  -16.3431   23.3677 C   0  0  0  0  0  0  0  0  0  0  0  0
   10.3581  -15.6931   23.6697 O   0  0  0  0  0  0  0  0  0  0  0  0
    8.3910  -16.5576   24.3970 N   0  0  0  0  0  0  0  0  0  0  0  0
    8.5745  -16.0920   25.7636 C   0  0  1  0  0  0  0  0  0  0  0  0
    7.3049  -15.6799   26.4011 C   0  0  0  0  0  0  0  0  0  0  0  0
    7.1670  -14.2139   26.3948 C   0  0  0  0  0  0  0  0  0  0  0  0
    5.9284  -13.6363   26.0823 C   0  0  0  0  0  0  0  0  0  0  0  0
    5.7251  -12.2951   26.0843 C   0  0  0  0  0  0  0  0  0  0  0  0
    6.7532  -11.4353   26.4010 C   0  0  0  0  0  0  0  0  0  0  0  0
    8.0148  -11.9502   26.7226 C   0  0  0  0  0  0  0  0  0  0  0  0
    8.1657  -13.3163   26.7054 C   0  0  0  0  0  0  0  0  0  0  0  0
    9.2367  -17.1594   26.5297 C   0  0  0  0  0  0  0  0  0  0  0  0
    9.5046  -18.4212   25.9928 O   0  0  0  0  0  0  0  0  0  0  0  0
    9.5841  -16.9344   27.7420 O   0  0  0  0  0  0  0  0  0  0  0  0
  2  1  1  6
  3  2  1  0
  3  4  1  0
  5  2  1  0
  5  6  2  0
  7  5  1  0
  8  7  1  0
  8  9  1  6
 10  9  1  0
 10 14  1  0
 11 12  1  0
 11 10  2  0
 12 13  1  0
 13 14  2  0
 15  8  1  0
 16 15  2  0
 17 15  1  0
 18 17  1  0
 18 26  1  0
 18 19  1  1
 20 19  1  0
 21 20  2  0
 22 21  1  0
 23 22  2  0
 23 24  1  0
 24 25  2  0
 25 20  1  0
 26 27  1  0
 28 26  2  0
M  END
$$$$
