CHF.pdb
     RDKit          3D

 28 29  0  0  1  0  0  0  0  0999 V2000
    5.4837  -18.4500   20.7276 N   0  0  0  0  0  0  0  0  0  0  0  0
    5.9414  -17.6774   21.8483 C   0  0  1  0  0  0  0  0  0  0  0  0
    5.8444  -18.4743   23.1422 C   0  0  0  0  0  0  0  0  0  0  0  0
    6.3781  -17.4520   24.5371 S   0  0  0  0  0  0  0  0  0  0  0  0
    7.4056  -17.3349   21.6525 C   0  0  0  0  0  0  0  0  0  0  0  0
    8.1657  -18.2269   21.2287 O   0  0  0  0  0  0  0  0  0  0  0  0
    7.8805  -16.0456   21.9437 N   0  0  0  0  0  0  0  0  0  0  0  0
    9.2412  -15.6366   21.9458 C   0  0  1  0  0  0  0  0  0  0  0  0
    9.5547  -14.4088   21.0922 C   0  0  0  0  0  0  0  0  0  0  0  0
    8.7990  -14.4010   19.8141 C   0  0  0  0  0  0  0  0  0  0  0  0
    7.7618  -13.4832   19.5571 C   0  0  0  0  0  0  0  0  0  0  0  0
    7.3007  -13.7334   18.3425 N   0  0  0  0  0  0  0  0  0  0  0  0
    8.0077  -14.7566   17.8533 C   0  0  0  0  0  0  0  0  0  0  0  0
    8.9214  -15.1726   18.7359 N   0  0  0  0  0  0  0  0  0  0  0  0
    9.8336  -15.4354   23.2793 C   0  0  0  0  0  0  0  0  0  0  0  0
   10.8778  -14.7243   23.3929 O   0  0  0  0  0  0  0  0  0  0  0  0
    9.3190  -15.9817   24.4580 N   0  0  0  0  0  0  0  0  0  0  0  0
    9.9136  -15.7890   25.7723 C   0  0  1  0  0  0  0  0  0  0  0  0
   10.0708  -14.3606   26.1233 C   0  0  0  0  0  0  0  0  0  0  0  0
    8.7587  -13.7042   26.2482 C   0  0  0  0  0  0  0  0  0  0  0  0
    8.2896  -13.3298   27.5152 C   0  0  0  0  0  0  0  0  0  0  0  0
    7.1033  -12.6979   27.6990 C   0  0  0  0  0  0  0  0  0  0  0  0
    6.3009  -12.3959   26.6213 C   0  0  0  0  0  0  0  0  0  0  0  0
    6.7134  -12.7435   25.3294 C   0  0  0  0  0  0  0  0  0  0  0  0
    7.9237  -13.3819   25.2001 C   0  0  0  0  0  0  0  0  0  0  0  0
    9.0852  -16.4956   26.7618 C   0  0  0  0  0  0  0  0  0  0  0  0
    7.9078  -17.1665   26.4215 O   0  0  0  0  0  0  0  0  0  0  0  0
    9.4476  -16.5000   27.9905 O   0  0  0  0  0  0  0  0  0  0  0  0
  2  1  1  6
  3  2  1  0
  3  4  1  0
  5  2  1  0
  5  6  2  0
  7  5  1  0
  8  7  1  0
  8  9  1  6
 10  9  1  0
 10 14  1  0
 11 12  1  0
 11 10  2  0
 12 13  1  0
 13 14  2  0
 15  8  1  0
 16 15  2  0
 17 15  1  0
 18 17  1  0
 18 26  1  0
 18 19  1  1
 20 19  1  0
 21 20  2  0
 22 21  1  0
 23 22  2  0
 23 24  1  0
 24 25  2  0
 25 20  1  0
 26 27  1  0
 28 26  2  0
M  END
$$$$
