CHF.pdb
     RDKit          3D

 28 29  0  0  1  0  0  0  0  0999 V2000
    7.9549  -15.3903   18.2856 N   0  0  0  0  0  0  0  0  0  0  0  0
    8.5119  -14.6022   19.3490 C   0  0  1  0  0  0  0  0  0  0  0  0
    8.0126  -13.1649   19.2883 C   0  0  0  0  0  0  0  0  0  0  0  0
    9.1573  -12.1554   18.3157 S   0  0  0  0  0  0  0  0  0  0  0  0
    8.0569  -15.1689   20.6800 C   0  0  0  0  0  0  0  0  0  0  0  0
    6.9135  -14.8788   21.0816 O   0  0  0  0  0  0  0  0  0  0  0  0
    8.9086  -15.9962   21.4302 N   0  0  0  0  0  0  0  0  0  0  0  0
    8.5937  -16.6158   22.6695 C   0  0  1  0  0  0  0  0  0  0  0  0
    8.4202  -18.1328   22.6150 C   0  0  0  0  0  0  0  0  0  0  0  0
    7.3423  -18.5452   21.6806 C   0  0  0  0  0  0  0  0  0  0  0  0
    5.9813  -18.5235   22.0431 C   0  0  0  0  0  0  0  0  0  0  0  0
    5.2844  -18.9394   20.9981 N   0  0  0  0  0  0  0  0  0  0  0  0
    6.1568  -19.2111   20.0228 C   0  0  0  0  0  0  0  0  0  0  0  0
    7.4105  -18.9764   20.4227 N   0  0  0  0  0  0  0  0  0  0  0  0
    9.5058  -16.2950   23.7807 C   0  0  0  0  0  0  0  0  0  0  0  0
   10.7568  -16.4202   23.6117 O   0  0  0  0  0  0  0  0  0  0  0  0
    9.0869  -15.8515   25.0379 N   0  0  0  0  0  0  0  0  0  0  0  0
    9.9936  -15.4651   26.1087 C   0  0  1  0  0  0  0  0  0  0  0  0
    9.9760  -14.0098   26.3737 C   0  0  0  0  0  0  0  0  0  0  0  0
    8.5937  -13.5099   26.4620 C   0  0  0  0  0  0  0  0  0  0  0  0
    7.7643  -13.5647   25.3330 C   0  0  0  0  0  0  0  0  0  0  0  0
    6.4739  -13.1467   25.3522 C   0  0  0  0  0  0  0  0  0  0  0  0
    5.9222  -12.6426   26.5089 C   0  0  0  0  0  0  0  0  0  0  0  0
    6.6989  -12.5618   27.6708 C   0  0  0  0  0  0  0  0  0  0  0  0
    7.9998  -12.9991   27.5960 C   0  0  0  0  0  0  0  0  0  0  0  0
    9.6396  -16.2330   27.3128 C   0  0  0  0  0  0  0  0  0  0  0  0
   10.4037  -16.2008   28.4821 O   0  0  0  0  0  0  0  0  0  0  0  0
    8.5904  -16.9677   27.2987 O   0  0  0  0  0  0  0  0  0  0  0  0
  2  1  1  6
  3  2  1  0
  3  4  1  0
  5  2  1  0
  5  6  2  0
  7  5  1  0
  8  7  1  0
  8  9  1  6
 10  9  1  0
 10 14  1  0
 11 12  1  0
 11 10  2  0
 12 13  1  0
 13 14  2  0
 15  8  1  0
 16 15  2  0
 17 15  1  0
 18 17  1  0
 18 26  1  0
 18 19  1  1
 20 19  1  0
 21 20  2  0
 22 21  1  0
 23 22  2  0
 23 24  1  0
 24 25  2  0
 25 20  1  0
 26 27  1  0
 28 26  2  0
M  END
$$$$
