CHF.pdb
     RDKit          3D

 28 29  0  0  1  0  0  0  0  0999 V2000
    7.5026  -15.0193   18.4113 N   0  0  0  0  0  0  0  0  0  0  0  0
    8.1206  -14.5457   19.6180 C   0  0  1  0  0  0  0  0  0  0  0  0
    7.6930  -13.1182   19.9314 C   0  0  0  0  0  0  0  0  0  0  0  0
    8.4580  -11.9736   18.7568 S   0  0  0  0  0  0  0  0  0  0  0  0
    7.6657  -15.4056   20.7812 C   0  0  0  0  0  0  0  0  0  0  0  0
    6.4469  -15.6377   20.8985 O   0  0  0  0  0  0  0  0  0  0  0  0
    8.6003  -15.9206   21.6944 N   0  0  0  0  0  0  0  0  0  0  0  0
    8.3105  -16.7606   22.8032 C   0  0  1  0  0  0  0  0  0  0  0  0
    8.6372  -18.2397   22.6039 C   0  0  0  0  0  0  0  0  0  0  0  0
    8.1905  -19.0761   23.7467 C   0  0  0  0  0  0  0  0  0  0  0  0
    6.8292  -19.2709   24.0515 C   0  0  0  0  0  0  0  0  0  0  0  0
    6.7676  -20.0611   25.1109 N   0  0  0  0  0  0  0  0  0  0  0  0
    8.0239  -20.3532   25.4609 C   0  0  0  0  0  0  0  0  0  0  0  0
    8.8990  -19.7620   24.6414 N   0  0  0  0  0  0  0  0  0  0  0  0
    8.8908  -16.3282   24.0861 C   0  0  0  0  0  0  0  0  0  0  0  0
   10.1247  -16.0395   24.1424 O   0  0  0  0  0  0  0  0  0  0  0  0
    8.1667  -16.2085   25.2753 N   0  0  0  0  0  0  0  0  0  0  0  0
    8.7632  -15.8854   26.5628 C   0  0  1  0  0  0  0  0  0  0  0  0
    7.8331  -15.1617   27.4569 C   0  0  0  0  0  0  0  0  0  0  0  0
    7.5703  -13.8038   26.9515 C   0  0  0  0  0  0  0  0  0  0  0  0
    6.3575  -13.5286   26.3045 C   0  0  0  0  0  0  0  0  0  0  0  0
    6.0400  -12.2946   25.8391 C   0  0  0  0  0  0  0  0  0  0  0  0
    6.9195  -11.2457   25.9903 C   0  0  0  0  0  0  0  0  0  0  0  0
    8.1478  -11.4560   26.6283 C   0  0  0  0  0  0  0  0  0  0  0  0
    8.4187  -12.7253   27.0807 C   0  0  0  0  0  0  0  0  0  0  0  0
    9.2352  -17.1351   27.1793 C   0  0  0  0  0  0  0  0  0  0  0  0
    9.1094  -18.3799   26.5573 O   0  0  0  0  0  0  0  0  0  0  0  0
    9.7836  -17.0924   28.3362 O   0  0  0  0  0  0  0  0  0  0  0  0
  2  1  1  6
  3  2  1  0
  3  4  1  0
  5  2  1  0
  5  6  2  0
  7  5  1  0
  8  7  1  0
  8  9  1  6
 10  9  1  0
 10 14  1  0
 11 12  1  0
 11 10  2  0
 12 13  1  0
 13 14  2  0
 15  8  1  0
 16 15  2  0
 17 15  1  0
 18 17  1  0
 18 26  1  0
 18 19  1  1
 20 19  1  0
 21 20  2  0
 22 21  1  0
 23 22  2  0
 23 24  1  0
 24 25  2  0
 25 20  1  0
 26 27  1  0
 28 26  2  0
M  END
$$$$
