CHF.pdb
     RDKit          3D

 28 29  0  0  1  0  0  0  0  0999 V2000
   13.5647  -15.8075   20.6924 N   0  0  0  0  0  0  0  0  0  0  0  0
   12.4647  -16.6826   20.9867 C   0  0  1  0  0  0  0  0  0  0  0  0
   12.9001  -17.8292   21.8892 C   0  0  0  0  0  0  0  0  0  0  0  0
   11.4774  -18.8746   22.2873 S   0  0  0  0  0  0  0  0  0  0  0  0
   11.4011  -15.9092   21.7418 C   0  0  0  0  0  0  0  0  0  0  0  0
   11.7724  -15.0822   22.5969 O   0  0  0  0  0  0  0  0  0  0  0  0
   10.0392  -16.1270   21.4767 N   0  0  0  0  0  0  0  0  0  0  0  0
    8.9481  -15.5901   22.2118 C   0  0  1  0  0  0  0  0  0  0  0  0
    7.6057  -15.5930   21.4822 C   0  0  0  0  0  0  0  0  0  0  0  0
    7.6105  -14.7128   20.2862 C   0  0  0  0  0  0  0  0  0  0  0  0
    8.7302  -13.9384   19.9247 C   0  0  0  0  0  0  0  0  0  0  0  0
    8.4178  -13.2779   18.8216 N   0  0  0  0  0  0  0  0  0  0  0  0
    7.1654  -13.6148   18.4992 C   0  0  0  0  0  0  0  0  0  0  0  0
    6.6621  -14.4857   19.3797 N   0  0  0  0  0  0  0  0  0  0  0  0
    8.7474  -16.1709   23.5504 C   0  0  0  0  0  0  0  0  0  0  0  0
    9.4576  -17.1584   23.9105 O   0  0  0  0  0  0  0  0  0  0  0  0
    7.8111  -15.7043   24.4769 N   0  0  0  0  0  0  0  0  0  0  0  0
    7.5939  -16.3015   25.7862 C   0  0  1  0  0  0  0  0  0  0  0  0
    6.6204  -15.5451   26.6037 C   0  0  0  0  0  0  0  0  0  0  0  0
    6.9936  -14.1228   26.6806 C   0  0  0  0  0  0  0  0  0  0  0  0
    6.1203  -13.1495   26.1752 C   0  0  0  0  0  0  0  0  0  0  0  0
    6.3894  -11.8214   26.2380 C   0  0  0  0  0  0  0  0  0  0  0  0
    7.5575  -11.3740   26.8142 C   0  0  0  0  0  0  0  0  0  0  0  0
    8.4712  -12.2965   27.3377 C   0  0  0  0  0  0  0  0  0  0  0  0
    8.1489  -13.6296   27.2479 C   0  0  0  0  0  0  0  0  0  0  0  0
    7.1624  -17.6946   25.5922 C   0  0  0  0  0  0  0  0  0  0  0  0
    6.7995  -18.2071   24.3440 O   0  0  0  0  0  0  0  0  0  0  0  0
    7.1108  -18.4789   26.6037 O   0  0  0  0  0  0  0  0  0  0  0  0
  2  1  1  1
  3  2  1  0
  3  4  1  0
  5  2  1  0
  5  6  2  0
  7  5  1  0
  8  7  1  0
  8  9  1  6
 10  9  1  0
 10 14  1  0
 11 12  1  0
 11 10  2  0
 12 13  1  0
 13 14  2  0
 15  8  1  0
 16 15  2  0
 17 15  1  0
 18 17  1  0
 18 26  1  0
 18 19  1  6
 20 19  1  0
 21 20  2  0
 22 21  1  0
 23 22  2  0
 23 24  1  0
 24 25  2  0
 25 20  1  0
 26 27  1  0
 28 26  2  0
M  END
$$$$
