CHF.pdb
     RDKit          3D

 28 29  0  0  1  0  0  0  0  0999 V2000
    5.3496  -19.0390   20.3502 N   0  0  0  0  0  0  0  0  0  0  0  0
    5.2600  -17.8744   21.1856 C   0  0  1  0  0  0  0  0  0  0  0  0
    4.6003  -18.2028   22.5183 C   0  0  0  0  0  0  0  0  0  0  0  0
    2.8558  -18.6086   22.2590 S   0  0  0  0  0  0  0  0  0  0  0  0
    6.6579  -17.3770   21.4987 C   0  0  0  0  0  0  0  0  0  0  0  0
    7.5879  -18.2065   21.5076 O   0  0  0  0  0  0  0  0  0  0  0  0
    6.8863  -16.0179   21.7693 N   0  0  0  0  0  0  0  0  0  0  0  0
    8.1417  -15.4252   22.0716 C   0  0  1  0  0  0  0  0  0  0  0  0
    8.2838  -13.9578   21.6704 C   0  0  0  0  0  0  0  0  0  0  0  0
    8.1643  -13.7587   20.2038 C   0  0  0  0  0  0  0  0  0  0  0  0
    8.0623  -14.8364   19.3026 C   0  0  0  0  0  0  0  0  0  0  0  0
    7.9657  -14.3289   18.0845 N   0  0  0  0  0  0  0  0  0  0  0  0
    8.0043  -12.9985   18.2054 C   0  0  0  0  0  0  0  0  0  0  0  0
    8.1248  -12.6375   19.4868 N   0  0  0  0  0  0  0  0  0  0  0  0
    8.5813  -15.5661   23.4704 C   0  0  0  0  0  0  0  0  0  0  0  0
    9.7307  -15.1463   23.8043 O   0  0  0  0  0  0  0  0  0  0  0  0
    7.8083  -16.1411   24.4826 N   0  0  0  0  0  0  0  0  0  0  0  0
    8.2443  -16.2728   25.8648 C   0  0  1  0  0  0  0  0  0  0  0  0
    7.3176  -15.6261   26.8194 C   0  0  0  0  0  0  0  0  0  0  0  0
    7.3508  -14.1614   26.6714 C   0  0  0  0  0  0  0  0  0  0  0  0
    6.1786  -13.4736   26.3271 C   0  0  0  0  0  0  0  0  0  0  0  0
    6.1327  -12.1237   26.2008 C   0  0  0  0  0  0  0  0  0  0  0  0
    7.2628  -11.3656   26.4118 C   0  0  0  0  0  0  0  0  0  0  0  0
    8.4652  -11.9933   26.7586 C   0  0  0  0  0  0  0  0  0  0  0  0
    8.4559  -13.3629   26.8731 C   0  0  0  0  0  0  0  0  0  0  0  0
    8.4071  -17.7044   26.1629 C   0  0  0  0  0  0  0  0  0  0  0  0
    8.1035  -18.7084   25.2399 O   0  0  0  0  0  0  0  0  0  0  0  0
    8.8422  -18.0567   27.3151 O   0  0  0  0  0  0  0  0  0  0  0  0
  2  1  1  6
  3  2  1  0
  3  4  1  0
  5  2  1  0
  5  6  2  0
  7  5  1  0
  8  7  1  0
  8  9  1  1
 10  9  1  0
 10 14  1  0
 11 12  1  0
 11 10  2  0
 12 13  1  0
 13 14  2  0
 15  8  1  0
 16 15  2  0
 17 15  1  0
 18 17  1  0
 18 26  1  0
 18 19  1  1
 20 19  1  0
 21 20  2  0
 22 21  1  0
 23 22  2  0
 23 24  1  0
 24 25  2  0
 25 20  1  0
 26 27  1  0
 28 26  2  0
M  END
$$$$
