CHF.pdb
     RDKit          3D

 28 29  0  0  1  0  0  0  0  0999 V2000
   10.4614  -18.8778   19.8910 N   0  0  0  0  0  0  0  0  0  0  0  0
    9.2899  -18.3995   20.5701 C   0  0  1  0  0  0  0  0  0  0  0  0
    8.9092  -19.3177   21.7236 C   0  0  0  0  0  0  0  0  0  0  0  0
   10.3573  -20.2576   22.2670 S   0  0  0  0  0  0  0  0  0  0  0  0
    9.5833  -17.0385   21.1709 C   0  0  0  0  0  0  0  0  0  0  0  0
   10.7719  -16.7411   21.3987 O   0  0  0  0  0  0  0  0  0  0  0  0
    8.5373  -16.1464   21.4585 N   0  0  0  0  0  0  0  0  0  0  0  0
    8.6791  -14.8304   21.9752 C   0  0  1  0  0  0  0  0  0  0  0  0
    7.6886  -13.8042   21.4272 C   0  0  0  0  0  0  0  0  0  0  0  0
    7.6635  -13.7796   19.9427 C   0  0  0  0  0  0  0  0  0  0  0  0
    8.2145  -12.7192   19.1970 C   0  0  0  0  0  0  0  0  0  0  0  0
    8.0370  -12.9991   17.9161 N   0  0  0  0  0  0  0  0  0  0  0  0
    7.4063  -14.1755   17.8513 C   0  0  0  0  0  0  0  0  0  0  0  0
    7.1729  -14.6616   19.0744 N   0  0  0  0  0  0  0  0  0  0  0  0
    8.6820  -14.7306   23.4447 C   0  0  0  0  0  0  0  0  0  0  0  0
    8.3841  -13.6254   23.9915 O   0  0  0  0  0  0  0  0  0  0  0  0
    8.9952  -15.7876   24.3034 N   0  0  0  0  0  0  0  0  0  0  0  0
    8.8604  -15.7279   25.7512 C   0  0  1  0  0  0  0  0  0  0  0  0
    7.4706  -15.4651   26.1844 C   0  0  0  0  0  0  0  0  0  0  0  0
    7.2487  -14.0237   26.3876 C   0  0  0  0  0  0  0  0  0  0  0  0
    8.2673  -13.2383   26.9456 C   0  0  0  0  0  0  0  0  0  0  0  0
    8.1394  -11.9011   27.1351 C   0  0  0  0  0  0  0  0  0  0  0  0
    6.9772  -11.2549   26.7773 C   0  0  0  0  0  0  0  0  0  0  0  0
    5.9225  -11.9837   26.2146 C   0  0  0  0  0  0  0  0  0  0  0  0
    6.1050  -13.3353   26.0446 C   0  0  0  0  0  0  0  0  0  0  0  0
    9.3675  -16.9890   26.3143 C   0  0  0  0  0  0  0  0  0  0  0  0
    9.8622  -18.0269   25.5204 O   0  0  0  0  0  0  0  0  0  0  0  0
    9.3571  -17.1546   27.5845 O   0  0  0  0  0  0  0  0  0  0  0  0
  2  1  1  1
  3  2  1  0
  3  4  1  0
  5  2  1  0
  5  6  2  0
  7  5  1  0
  8  7  1  0
  8  9  1  6
 10  9  1  0
 10 14  1  0
 11 12  1  0
 11 10  2  0
 12 13  1  0
 13 14  2  0
 15  8  1  0
 16 15  2  0
 17 15  1  0
 18 17  1  0
 18 26  1  0
 18 19  1  6
 20 19  1  0
 21 20  2  0
 22 21  1  0
 23 22  2  0
 23 24  1  0
 24 25  2  0
 25 20  1  0
 26 27  1  0
 28 26  2  0
M  END
$$$$
