CHF.pdb
     RDKit          3D

 28 29  0  0  1  0  0  0  0  0999 V2000
    7.7252  -14.6509   18.3815 N   0  0  0  0  0  0  0  0  0  0  0  0
    8.2905  -14.1682   19.6102 C   0  0  1  0  0  0  0  0  0  0  0  0
    7.4690  -13.0196   20.1799 C   0  0  0  0  0  0  0  0  0  0  0  0
    8.2512  -12.3897   21.6855 S   0  0  0  0  0  0  0  0  0  0  0  0
    8.2646  -15.2799   20.6411 C   0  0  0  0  0  0  0  0  0  0  0  0
    7.2190  -15.9479   20.7582 O   0  0  0  0  0  0  0  0  0  0  0  0
    9.3928  -15.5406   21.4360 N   0  0  0  0  0  0  0  0  0  0  0  0
    9.5173  -16.5815   22.3951 C   0  0  1  0  0  0  0  0  0  0  0  0
   10.6163  -17.6037   22.1094 C   0  0  0  0  0  0  0  0  0  0  0  0
   10.3258  -18.4247   20.9067 C   0  0  0  0  0  0  0  0  0  0  0  0
   10.9063  -18.1553   19.6519 C   0  0  0  0  0  0  0  0  0  0  0  0
   10.4528  -19.0612   18.8008 N   0  0  0  0  0  0  0  0  0  0  0  0
    9.6275  -19.8641   19.4792 C   0  0  0  0  0  0  0  0  0  0  0  0
    9.5404  -19.4898   20.7596 N   0  0  0  0  0  0  0  0  0  0  0  0
    9.6544  -16.1343   23.7918 C   0  0  0  0  0  0  0  0  0  0  0  0
   10.6467  -15.4144   24.1177 O   0  0  0  0  0  0  0  0  0  0  0  0
    8.7512  -16.4504   24.8102 N   0  0  0  0  0  0  0  0  0  0  0  0
    8.9372  -16.0839   26.2063 C   0  0  1  0  0  0  0  0  0  0  0  0
    7.6809  -15.6476   26.8538 C   0  0  0  0  0  0  0  0  0  0  0  0
    7.4263  -14.2205   26.5955 C   0  0  0  0  0  0  0  0  0  0  0  0
    6.1494  -13.8073   26.1899 C   0  0  0  0  0  0  0  0  0  0  0  0
    5.8395  -12.5066   25.9613 C   0  0  0  0  0  0  0  0  0  0  0  0
    6.7915  -11.5249   26.1238 C   0  0  0  0  0  0  0  0  0  0  0  0
    8.0860  -11.8730   26.5275 C   0  0  0  0  0  0  0  0  0  0  0  0
    8.3460  -13.2049   26.7455 C   0  0  0  0  0  0  0  0  0  0  0  0
    9.5316  -17.2315   26.9094 C   0  0  0  0  0  0  0  0  0  0  0  0
    9.7038  -18.4806   26.3075 O   0  0  0  0  0  0  0  0  0  0  0  0
    9.9080  -17.0918   28.1258 O   0  0  0  0  0  0  0  0  0  0  0  0
  2  1  1  6
  3  2  1  0
  3  4  1  0
  5  2  1  0
  5  6  2  0
  7  5  1  0
  8  7  1  0
  8  9  1  6
 10  9  1  0
 10 14  1  0
 11 12  1  0
 11 10  2  0
 12 13  1  0
 13 14  2  0
 15  8  1  0
 16 15  2  0
 17 15  1  0
 18 17  1  0
 18 26  1  0
 18 19  1  1
 20 19  1  0
 21 20  2  0
 22 21  1  0
 23 22  2  0
 23 24  1  0
 24 25  2  0
 25 20  1  0
 26 27  1  0
 28 26  2  0
M  END
$$$$
