CHF.pdb
     RDKit          3D

 28 29  0  0  1  0  0  0  0  0999 V2000
   11.6528  -15.6294   17.7913 N   0  0  0  0  0  0  0  0  0  0  0  0
   12.1384  -16.1717   19.0292 C   0  0  1  0  0  0  0  0  0  0  0  0
   13.0760  -15.1957   19.7272 C   0  0  0  0  0  0  0  0  0  0  0  0
   12.2504  -13.6008   19.9509 S   0  0  0  0  0  0  0  0  0  0  0  0
   10.9679  -16.4016   19.9655 C   0  0  0  0  0  0  0  0  0  0  0  0
    9.9803  -15.6481   19.8668 O   0  0  0  0  0  0  0  0  0  0  0  0
   11.0068  -17.4375   20.9132 N   0  0  0  0  0  0  0  0  0  0  0  0
    9.9974  -17.7356   21.8678 C   0  0  1  0  0  0  0  0  0  0  0  0
   10.1023  -19.1136   22.5193 C   0  0  0  0  0  0  0  0  0  0  0  0
    8.9324  -19.4224   23.3801 C   0  0  0  0  0  0  0  0  0  0  0  0
    7.6117  -19.1224   22.9931 C   0  0  0  0  0  0  0  0  0  0  0  0
    6.8107  -19.5233   23.9669 N   0  0  0  0  0  0  0  0  0  0  0  0
    7.5821  -20.0504   24.9226 C   0  0  0  0  0  0  0  0  0  0  0  0
    8.8731  -19.9960   24.5802 N   0  0  0  0  0  0  0  0  0  0  0  0
    9.8259  -16.7330   22.9331 C   0  0  0  0  0  0  0  0  0  0  0  0
   10.8513  -16.1801   23.4350 O   0  0  0  0  0  0  0  0  0  0  0  0
    8.5882  -16.3344   23.4448 N   0  0  0  0  0  0  0  0  0  0  0  0
    8.4247  -15.3634   24.5165 C   0  0  1  0  0  0  0  0  0  0  0  0
    7.3077  -14.4252   24.2708 C   0  0  0  0  0  0  0  0  0  0  0  0
    7.1057  -13.5365   25.4273 C   0  0  0  0  0  0  0  0  0  0  0  0
    7.9428  -12.4254   25.6012 C   0  0  0  0  0  0  0  0  0  0  0  0
    7.7952  -11.5518   26.6285 C   0  0  0  0  0  0  0  0  0  0  0  0
    6.7943  -11.7313   27.5571 C   0  0  0  0  0  0  0  0  0  0  0  0
    5.9249  -12.8222   27.4387 C   0  0  0  0  0  0  0  0  0  0  0  0
    6.1189  -13.6761   26.3794 C   0  0  0  0  0  0  0  0  0  0  0  0
    8.2406  -16.0962   25.7790 C   0  0  0  0  0  0  0  0  0  0  0  0
    7.4978  -17.2763   25.8671 O   0  0  0  0  0  0  0  0  0  0  0  0
    8.7771  -15.6407   26.8493 O   0  0  0  0  0  0  0  0  0  0  0  0
  2  1  1  6
  3  2  1  0
  3  4  1  0
  5  2  1  0
  5  6  2  0
  7  5  1  0
  8  7  1  0
  8  9  1  1
 10  9  1  0
 10 14  1  0
 11 12  1  0
 11 10  2  0
 12 13  1  0
 13 14  2  0
 15  8  1  0
 16 15  2  0
 17 15  1  0
 18 17  1  0
 18 26  1  0
 18 19  1  6
 20 19  1  0
 21 20  2  0
 22 21  1  0
 23 22  2  0
 23 24  1  0
 24 25  2  0
 25 20  1  0
 26 27  1  0
 28 26  2  0
M  END
$$$$
