CHF.pdb
     RDKit          3D

 28 29  0  0  1  0  0  0  0  0999 V2000
    7.8855  -13.5653   18.0287 N   0  0  0  0  0  0  0  0  0  0  0  0
    8.9232  -14.2069   18.7862 C   0  0  1  0  0  0  0  0  0  0  0  0
    9.9393  -13.1936   19.2955 C   0  0  0  0  0  0  0  0  0  0  0  0
    9.0977  -11.8954   20.2345 S   0  0  0  0  0  0  0  0  0  0  0  0
    8.3128  -14.8679   20.0068 C   0  0  0  0  0  0  0  0  0  0  0  0
    7.2832  -14.3632   20.4947 O   0  0  0  0  0  0  0  0  0  0  0  0
    8.8998  -16.0162   20.5633 N   0  0  0  0  0  0  0  0  0  0  0  0
    8.4913  -16.6689   21.7575 C   0  0  1  0  0  0  0  0  0  0  0  0
    8.3108  -18.1818   21.6449 C   0  0  0  0  0  0  0  0  0  0  0  0
    7.1730  -18.5514   20.7653 C   0  0  0  0  0  0  0  0  0  0  0  0
    5.8453  -18.1799   21.0540 C   0  0  0  0  0  0  0  0  0  0  0  0
    5.0797  -18.6530   20.0841 N   0  0  0  0  0  0  0  0  0  0  0  0
    5.8790  -19.2916   19.2242 C   0  0  0  0  0  0  0  0  0  0  0  0
    7.1532  -19.2382   19.6248 N   0  0  0  0  0  0  0  0  0  0  0  0
    9.3230  -16.3897   22.9407 C   0  0  0  0  0  0  0  0  0  0  0  0
   10.5848  -16.4791   22.8465 O   0  0  0  0  0  0  0  0  0  0  0  0
    8.8145  -16.0243   24.1899 N   0  0  0  0  0  0  0  0  0  0  0  0
    9.6406  -15.6389   25.3243 C   0  0  1  0  0  0  0  0  0  0  0  0
    9.6544  -14.1770   25.5494 C   0  0  0  0  0  0  0  0  0  0  0  0
    8.2903  -13.6677   25.7690 C   0  0  0  0  0  0  0  0  0  0  0  0
    7.4531  -13.4343   24.6689 C   0  0  0  0  0  0  0  0  0  0  0  0
    6.1776  -12.9916   24.8012 C   0  0  0  0  0  0  0  0  0  0  0  0
    5.6499  -12.7508   26.0502 C   0  0  0  0  0  0  0  0  0  0  0  0
    6.4356  -12.9648   27.1889 C   0  0  0  0  0  0  0  0  0  0  0  0
    7.7206  -13.4137   26.9980 C   0  0  0  0  0  0  0  0  0  0  0  0
    9.1576  -16.3592   26.5128 C   0  0  0  0  0  0  0  0  0  0  0  0
    9.8332  -16.3394   27.7356 O   0  0  0  0  0  0  0  0  0  0  0  0
    8.0746  -17.0387   26.4338 O   0  0  0  0  0  0  0  0  0  0  0  0
  2  1  1  1
  3  2  1  0
  3  4  1  0
  5  2  1  0
  5  6  2  0
  7  5  1  0
  8  7  1  0
  8  9  1  6
 10  9  1  0
 10 14  1  0
 11 12  1  0
 11 10  2  0
 12 13  1  0
 13 14  2  0
 15  8  1  0
 16 15  2  0
 17 15  1  0
 18 17  1  0
 18 26  1  0
 18 19  1  1
 20 19  1  0
 21 20  2  0
 22 21  1  0
 23 22  2  0
 23 24  1  0
 24 25  2  0
 25 20  1  0
 26 27  1  0
 28 26  2  0
M  END
$$$$
