SCF.pdb
     RDKit          3D

 24 24  0  0  1  0  0  0  0  0999 V2000
   25.8096  -22.5895  -17.0415 O   0  0  0  0  0  0  0  0  0  0  0  0
   26.5713  -21.7766  -17.8569 C   0  0  0  0  0  0  0  0  0  0  0  0
   28.0243  -21.9076  -17.4533 C   0  0  2  0  0  0  0  0  0  0  0  0
   28.5353  -23.1972  -17.8147 N   0  0  0  0  0  0  0  0  0  0  0  0
   28.1173  -21.6321  -16.0000 C   0  0  0  0  0  0  0  0  0  0  0  0
   28.6271  -22.5265  -15.2831 O   0  0  0  0  0  0  0  0  0  0  0  0
   27.6782  -20.4532  -15.3846 N   0  0  0  0  0  0  0  0  0  0  0  0
   27.9018  -20.1048  -13.9979 C   0  0  1  0  0  0  0  0  0  0  0  0
   28.0490  -18.6216  -13.7912 C   0  0  0  0  0  0  0  0  0  0  0  0
   26.5540  -17.7892  -14.3498 S   0  0  0  0  0  0  0  0  0  0  0  0
   26.7477  -20.5559  -13.1707 C   0  0  0  0  0  0  0  0  0  0  0  0
   25.5733  -20.5921  -13.6579 O   0  0  0  0  0  0  0  0  0  0  0  0
   26.9170  -20.9546  -11.8304 N   0  0  0  0  0  0  0  0  0  0  0  0
   25.8138  -21.5047  -11.0294 C   0  0  1  0  0  0  0  0  0  0  0  0
   26.4768  -22.1080   -9.7946 C   0  0  0  0  0  0  0  0  0  0  0  0
   27.0714  -21.0956   -8.9162 C   0  0  0  0  0  0  0  0  0  0  0  0
   28.4343  -20.9176   -8.8428 C   0  0  0  0  0  0  0  0  0  0  0  0
   28.9466  -19.9482   -7.9970 C   0  0  0  0  0  0  0  0  0  0  0  0
   28.1314  -19.1503   -7.2208 C   0  0  0  0  0  0  0  0  0  0  0  0
   26.7727  -19.3270   -7.2932 C   0  0  0  0  0  0  0  0  0  0  0  0
   26.2498  -20.3062   -8.1472 C   0  0  0  0  0  0  0  0  0  0  0  0
   24.9439  -20.3830  -10.6226 C   0  0  0  0  0  0  0  0  0  0  0  0
   25.4083  -19.0890  -10.7324 O   0  0  0  0  0  0  0  0  0  0  0  0
   23.7766  -20.5365  -10.1706 O   0  0  0  0  0  0  0  0  0  0  0  0
  1  2  1  0
  2  3  1  0
  3  5  1  0
  3  4  1  1
  5  6  2  0
  7  8  1  0
  7  5  1  0
  8 11  1  0
  9 10  1  0
  8  9  1  6
 11 12  2  0
 11 13  1  0
 13 14  1  0
 14 22  1  0
 14 15  1  1
 16 15  1  0
 16 17  2  0
 18 17  1  0
 19 18  2  0
 20 21  2  0
 20 19  1  0
 21 16  1  0
 22 24  2  0
 22 23  1  0
M  END
$$$$
