SCF.pdb
     RDKit          3D

 24 24  0  0  1  0  0  0  0  0999 V2000
   26.6885  -17.1192  -15.1939 O   0  0  0  0  0  0  0  0  0  0  0  0
   27.3573  -18.3139  -15.3708 C   0  0  0  0  0  0  0  0  0  0  0  0
   26.9036  -18.9367  -16.6737 C   0  0  2  0  0  0  0  0  0  0  0  0
   27.3257  -18.1410  -17.7888 N   0  0  0  0  0  0  0  0  0  0  0  0
   25.4330  -19.1083  -16.6058 C   0  0  0  0  0  0  0  0  0  0  0  0
   24.7306  -18.0987  -16.8532 O   0  0  0  0  0  0  0  0  0  0  0  0
   24.7866  -20.3091  -16.2874 N   0  0  0  0  0  0  0  0  0  0  0  0
   23.3522  -20.4948  -16.2383 C   0  0  1  0  0  0  0  0  0  0  0  0
   22.8444  -21.3696  -17.3523 C   0  0  0  0  0  0  0  0  0  0  0  0
   23.2988  -20.6446  -18.9359 S   0  0  0  0  0  0  0  0  0  0  0  0
   22.9701  -21.1455  -14.9536 C   0  0  0  0  0  0  0  0  0  0  0  0
   23.5903  -22.1745  -14.5363 O   0  0  0  0  0  0  0  0  0  0  0  0
   21.9163  -20.6464  -14.1633 N   0  0  0  0  0  0  0  0  0  0  0  0
   21.6131  -21.1834  -12.8289 C   0  0  1  0  0  0  0  0  0  0  0  0
   21.9436  -20.0541  -11.8574 C   0  0  0  0  0  0  0  0  0  0  0  0
   23.2584  -20.2120  -11.2278 C   0  0  0  0  0  0  0  0  0  0  0  0
   24.4205  -19.9203  -11.9054 C   0  0  0  0  0  0  0  0  0  0  0  0
   25.6376  -20.0870  -11.2665 C   0  0  0  0  0  0  0  0  0  0  0  0
   25.7247  -20.5384   -9.9657 C   0  0  0  0  0  0  0  0  0  0  0  0
   24.5670  -20.8295   -9.2893 C   0  0  0  0  0  0  0  0  0  0  0  0
   23.3335  -20.6625   -9.9313 C   0  0  0  0  0  0  0  0  0  0  0  0
   20.1662  -21.4729  -12.7733 C   0  0  0  0  0  0  0  0  0  0  0  0
   19.3553  -21.0855  -13.8195 O   0  0  0  0  0  0  0  0  0  0  0  0
   19.6119  -22.0653  -11.8076 O   0  0  0  0  0  0  0  0  0  0  0  0
  1  2  1  0
  2  3  1  0
  3  5  1  0
  3  4  1  6
  5  6  2  0
  7  8  1  0
  7  5  1  0
  8 11  1  0
  9 10  1  0
  8  9  1  6
 11 12  2  0
 11 13  1  0
 13 14  1  0
 14 22  1  0
 14 15  1  1
 16 15  1  0
 16 17  2  0
 18 17  1  0
 19 18  2  0
 20 21  2  0
 20 19  1  0
 21 16  1  0
 22 24  2  0
 22 23  1  0
M  END
$$$$
