SCF.pdb
     RDKit          3D

 24 24  0  0  1  0  0  0  0  0999 V2000
   28.5677  -20.2631  -14.7866 O   0  0  0  0  0  0  0  0  0  0  0  0
   27.9817  -21.3955  -15.3160 C   0  0  0  0  0  0  0  0  0  0  0  0
   26.4774  -21.2412  -15.2483 C   0  0  2  0  0  0  0  0  0  0  0  0
   25.9647  -20.7337  -16.4869 N   0  0  0  0  0  0  0  0  0  0  0  0
   26.1629  -20.3723  -14.0896 C   0  0  0  0  0  0  0  0  0  0  0  0
   25.7460  -19.2164  -14.3421 O   0  0  0  0  0  0  0  0  0  0  0  0
   26.2996  -20.7543  -12.7491 N   0  0  0  0  0  0  0  0  0  0  0  0
   25.3455  -20.4659  -11.6999 C   0  0  1  0  0  0  0  0  0  0  0  0
   24.0180  -21.1375  -11.9254 C   0  0  0  0  0  0  0  0  0  0  0  0
   22.9166  -20.7603  -10.5526 S   0  0  0  0  0  0  0  0  0  0  0  0
   25.8707  -20.9487  -10.3919 C   0  0  0  0  0  0  0  0  0  0  0  0
   26.0215  -22.1923  -10.1710 O   0  0  0  0  0  0  0  0  0  0  0  0
   26.2156  -20.0507   -9.3631 N   0  0  0  0  0  0  0  0  0  0  0  0
   26.8137  -20.4990   -8.0972 C   0  0  1  0  0  0  0  0  0  0  0  0
   27.5730  -19.2887   -7.5615 C   0  0  0  0  0  0  0  0  0  0  0  0
   28.0957  -19.4986   -6.2077 C   0  0  0  0  0  0  0  0  0  0  0  0
   27.5289  -18.8841   -5.1142 C   0  0  0  0  0  0  0  0  0  0  0  0
   28.0603  -19.1142   -3.8564 C   0  0  0  0  0  0  0  0  0  0  0  0
   29.1453  -19.9439   -3.6617 C   0  0  0  0  0  0  0  0  0  0  0  0
   29.7111  -20.5569   -4.7510 C   0  0  0  0  0  0  0  0  0  0  0  0
   29.1772  -20.3273   -6.0253 C   0  0  0  0  0  0  0  0  0  0  0  0
   25.7154  -20.8404   -7.1712 C   0  0  0  0  0  0  0  0  0  0  0  0
   24.4564  -20.3216   -7.3901 O   0  0  0  0  0  0  0  0  0  0  0  0
   25.8587  -21.5934   -6.1696 O   0  0  0  0  0  0  0  0  0  0  0  0
  1  2  1  0
  2  3  1  0
  3  5  1  0
  3  4  1  6
  5  6  2  0
  7  8  1  0
  7  5  1  0
  8 11  1  0
  9 10  1  0
  8  9  1  6
 11 12  2  0
 11 13  1  0
 13 14  1  0
 14 22  1  0
 14 15  1  1
 16 15  1  0
 16 17  2  0
 18 17  1  0
 19 18  2  0
 20 21  2  0
 20 19  1  0
 21 16  1  0
 22 24  2  0
 22 23  1  0
M  END
$$$$
