SCF.pdb
     RDKit          3D

 24 24  0  0  1  0  0  0  0  0999 V2000
   30.6029  -26.5804  -17.9721 O   0  0  0  0  0  0  0  0  0  0  0  0
   30.2696  -27.8813  -18.2924 C   0  0  0  0  0  0  0  0  0  0  0  0
   31.4225  -28.5064  -19.0482 C   0  0  2  0  0  0  0  0  0  0  0  0
   31.3895  -28.1227  -20.4289 N   0  0  0  0  0  0  0  0  0  0  0  0
   31.3510  -29.9736  -18.8509 C   0  0  0  0  0  0  0  0  0  0  0  0
   30.6751  -30.6269  -19.6817 O   0  0  0  0  0  0  0  0  0  0  0  0
   31.9812  -30.6675  -17.8104 N   0  0  0  0  0  0  0  0  0  0  0  0
   31.9652  -32.1043  -17.6385 C   0  0  1  0  0  0  0  0  0  0  0  0
   33.3292  -32.6659  -17.3414 C   0  0  0  0  0  0  0  0  0  0  0  0
   33.5731  -34.1763  -18.2897 S   0  0  0  0  0  0  0  0  0  0  0  0
   31.0777  -32.4675  -16.4982 C   0  0  0  0  0  0  0  0  0  0  0  0
   31.1889  -31.8805  -15.3752 O   0  0  0  0  0  0  0  0  0  0  0  0
   30.0923  -33.4661  -16.6244 N   0  0  0  0  0  0  0  0  0  0  0  0
   29.0996  -33.7272  -15.5720 C   0  0  1  0  0  0  0  0  0  0  0  0
   28.3637  -32.4048  -15.3777 C   0  0  0  0  0  0  0  0  0  0  0  0
   27.2683  -32.5005  -14.4077 C   0  0  0  0  0  0  0  0  0  0  0  0
   27.5068  -32.5151  -13.0521 C   0  0  0  0  0  0  0  0  0  0  0  0
   26.4377  -32.6078  -12.1770 C   0  0  0  0  0  0  0  0  0  0  0  0
   25.1339  -32.6866  -12.6212 C   0  0  0  0  0  0  0  0  0  0  0  0
   24.8951  -32.6722  -13.9722 C   0  0  0  0  0  0  0  0  0  0  0  0
   25.9731  -32.5786  -14.8615 C   0  0  0  0  0  0  0  0  0  0  0  0
   28.1574  -34.7452  -16.0783 C   0  0  0  0  0  0  0  0  0  0  0  0
   27.7200  -35.7450  -15.2349 O   0  0  0  0  0  0  0  0  0  0  0  0
   27.7174  -34.7592  -17.2601 O   0  0  0  0  0  0  0  0  0  0  0  0
  1  2  1  0
  2  3  1  0
  3  5  1  0
  3  4  1  6
  5  6  2  0
  7  8  1  0
  7  5  1  0
  8 11  1  0
  9 10  1  0
  8  9  1  1
 11 12  2  0
 11 13  1  0
 13 14  1  0
 14 22  1  0
 14 15  1  6
 16 15  1  0
 16 17  2  0
 18 17  1  0
 19 18  2  0
 20 21  2  0
 20 19  1  0
 21 16  1  0
 22 24  2  0
 22 23  1  0
M  END
$$$$
