SCF.pdb
     RDKit          3D

 24 24  0  0  1  0  0  0  0  0999 V2000
   23.1721  -18.0997  -14.4954 O   0  0  0  0  0  0  0  0  0  0  0  0
   23.4107  -17.5531  -15.7405 C   0  0  0  0  0  0  0  0  0  0  0  0
   24.8820  -17.2146  -15.8489 C   0  0  2  0  0  0  0  0  0  0  0  0
   25.1450  -16.4811  -17.0521 N   0  0  0  0  0  0  0  0  0  0  0  0
   25.6459  -18.4817  -15.7621 C   0  0  0  0  0  0  0  0  0  0  0  0
   25.4182  -19.3446  -16.6438 O   0  0  0  0  0  0  0  0  0  0  0  0
   26.5927  -18.7730  -14.7721 N   0  0  0  0  0  0  0  0  0  0  0  0
   27.4198  -19.9599  -14.7346 C   0  0  1  0  0  0  0  0  0  0  0  0
   28.7577  -19.7119  -14.0923 C   0  0  0  0  0  0  0  0  0  0  0  0
   28.5268  -18.7729  -12.5741 S   0  0  0  0  0  0  0  0  0  0  0  0
   26.7397  -21.0256  -13.9463 C   0  0  0  0  0  0  0  0  0  0  0  0
   27.1644  -22.2244  -13.9716 O   0  0  0  0  0  0  0  0  0  0  0  0
   25.6112  -20.7436  -13.1519 N   0  0  0  0  0  0  0  0  0  0  0  0
   24.8128  -21.8027  -12.5176 C   0  0  1  0  0  0  0  0  0  0  0  0
   25.6774  -22.3267  -11.3748 C   0  0  0  0  0  0  0  0  0  0  0  0
   25.9396  -21.3126  -10.3487 C   0  0  0  0  0  0  0  0  0  0  0  0
   27.1939  -20.7734  -10.1738 C   0  0  0  0  0  0  0  0  0  0  0  0
   27.3902  -19.8190   -9.1900 C   0  0  0  0  0  0  0  0  0  0  0  0
   26.3642  -19.3881   -8.3743 C   0  0  0  0  0  0  0  0  0  0  0  0
   25.1135  -19.9250   -8.5477 C   0  0  0  0  0  0  0  0  0  0  0  0
   24.9100  -20.8906   -9.5415 C   0  0  0  0  0  0  0  0  0  0  0  0
   23.5912  -21.1828  -11.9666 C   0  0  0  0  0  0  0  0  0  0  0  0
   22.6357  -21.9786  -11.3699 O   0  0  0  0  0  0  0  0  0  0  0  0
   23.3604  -19.9437  -12.0081 O   0  0  0  0  0  0  0  0  0  0  0  0
  1  2  1  0
  2  3  1  0
  3  5  1  0
  3  4  1  6
  5  6  2  0
  7  8  1  0
  7  5  1  0
  8 11  1  0
  9 10  1  0
  8  9  1  1
 11 12  2  0
 11 13  1  0
 13 14  1  0
 14 22  1  0
 14 15  1  1
 16 15  1  0
 16 17  2  0
 18 17  1  0
 19 18  2  0
 20 21  2  0
 20 19  1  0
 21 16  1  0
 22 24  2  0
 22 23  1  0
M  END
$$$$
