SSR.pdb
     RDKit          3D

 24 23  0  0  1  0  0  0  0  0999 V2000
    3.0107  -21.5027   19.5188 O   0  0  0  0  0  0  0  0  0  0  0  0
    4.1030  -20.9562   20.1959 C   0  0  0  0  0  0  0  0  0  0  0  0
    3.8287  -21.0845   21.6782 C   0  0  2  0  0  0  0  0  0  0  0  0
    2.4575  -21.4308   21.8978 N   0  0  0  0  0  0  0  0  0  0  0  0
    4.2464  -19.8838   22.4289 C   0  0  0  0  0  0  0  0  0  0  0  0
    3.3542  -19.0891   22.8229 O   0  0  0  0  0  0  0  0  0  0  0  0
    7.7310  -19.7304   24.5546 O   0  0  0  0  0  0  0  0  0  0  0  0
    6.6355  -18.9098   24.7829 C   0  0  0  0  0  0  0  0  0  0  0  0
    6.0559  -18.4593   23.4436 C   0  0  2  0  0  0  0  0  0  0  0  0
    5.6080  -19.6059   22.7139 N   0  0  0  0  0  0  0  0  0  0  0  0
    6.9890  -17.6101   22.7005 C   0  0  0  0  0  0  0  0  0  0  0  0
    7.8031  -18.2042   21.9204 O   0  0  0  0  0  0  0  0  0  0  0  0
    7.4519  -12.6593   16.9393 N   0  0  0  0  0  0  0  0  0  0  0  0
    8.0281  -13.8631   17.4844 C   0  0  0  0  0  0  0  0  0  0  0  0
    8.1621  -14.8803   16.7079 N   0  0  0  0  0  0  0  0  0  0  0  0
    8.4236  -13.8802   18.8495 N   0  0  0  0  0  0  0  0  0  0  0  0
    8.0671  -12.8267   19.7388 C   0  0  0  0  0  0  0  0  0  0  0  0
    8.4860  -13.0848   21.1691 C   0  0  0  0  0  0  0  0  0  0  0  0
    7.5308  -14.0038   21.8811 C   0  0  0  0  0  0  0  0  0  0  0  0
    8.0398  -15.3805   22.0921 C   0  0  2  0  0  0  0  0  0  0  0  0
    7.0637  -16.2029   22.7730 N   0  0  0  0  0  0  0  0  0  0  0  0
    9.3749  -15.4507   22.7213 C   0  0  0  0  0  0  0  0  0  0  0  0
    9.5510  -15.6523   23.9571 O   0  0  0  0  0  0  0  0  0  0  0  0
   10.5319  -15.2952   21.9694 O   0  0  0  0  0  0  0  0  0  0  0  0
  2  3  1  0
  2  1  1  0
  3  4  1  6
  5  3  1  0
  6  5  2  0
  8  7  1  0
  9  8  1  1
  9 11  1  0
  9 10  1  0
 10  5  1  0
 11 21  1  0
 12 11  2  0
 14 15  2  0
 14 13  1  0
 16 14  1  0
 17 16  1  0
 18 17  1  0
 19 18  1  0
 20 19  1  1
 20 22  1  0
 21 20  1  0
 22 23  2  0
 22 24  1  0
M  END
$$$$
