SSR.pdb
     RDKit          3D

 24 23  0  0  1  0  0  0  0  0999 V2000
    8.9769  -18.2766   16.9482 O   0  0  0  0  0  0  0  0  0  0  0  0
    7.8665  -17.5170   16.5739 C   0  0  0  0  0  0  0  0  0  0  0  0
    8.3380  -16.0939   16.3696 C   0  0  2  0  0  0  0  0  0  0  0  0
    9.2210  -16.0236   15.2456 N   0  0  0  0  0  0  0  0  0  0  0  0
    8.9218  -15.5179   17.5972 C   0  0  0  0  0  0  0  0  0  0  0  0
   10.1750  -15.4983   17.7065 O   0  0  0  0  0  0  0  0  0  0  0  0
    6.5513  -14.6391   20.9537 O   0  0  0  0  0  0  0  0  0  0  0  0
    7.5173  -13.7099   20.5947 C   0  0  0  0  0  0  0  0  0  0  0  0
    8.6427  -14.4179   19.8433 C   0  0  2  0  0  0  0  0  0  0  0  0
    8.1189  -14.9934   18.6423 N   0  0  0  0  0  0  0  0  0  0  0  0
    9.3561  -15.3709   20.6960 C   0  0  0  0  0  0  0  0  0  0  0  0
    8.9415  -16.5759   20.6753 O   0  0  0  0  0  0  0  0  0  0  0  0
   16.6122  -13.4979   19.2468 N   0  0  0  0  0  0  0  0  0  0  0  0
   15.4534  -14.3535   19.3065 C   0  0  0  0  0  0  0  0  0  0  0  0
   14.4407  -14.0602   18.5688 N   0  0  0  0  0  0  0  0  0  0  0  0
   15.4737  -15.4808   20.1719 N   0  0  0  0  0  0  0  0  0  0  0  0
   14.7571  -15.4848   21.4026 C   0  0  0  0  0  0  0  0  0  0  0  0
   13.2697  -15.6961   21.2270 C   0  0  0  0  0  0  0  0  0  0  0  0
   12.5454  -15.7404   22.5452 C   0  0  0  0  0  0  0  0  0  0  0  0
   11.0892  -16.0002   22.4412 C   0  0  2  0  0  0  0  0  0  0  0  0
   10.4536  -15.0725   21.5312 N   0  0  0  0  0  0  0  0  0  0  0  0
   10.3881  -16.0882   23.7389 C   0  0  0  0  0  0  0  0  0  0  0  0
    9.5338  -15.2401   24.1262 O   0  0  0  0  0  0  0  0  0  0  0  0
   10.6375  -17.1318   24.6204 O   0  0  0  0  0  0  0  0  0  0  0  0
  2  3  1  0
  2  1  1  0
  3  4  1  6
  5  3  1  0
  6  5  2  0
  8  7  1  0
  9  8  1  1
  9 11  1  0
  9 10  1  0
 10  5  1  0
 11 21  1  0
 12 11  2  0
 14 15  2  0
 14 13  1  0
 16 14  1  0
 17 16  1  0
 18 17  1  0
 19 18  1  0
 20 19  1  1
 20 22  1  0
 21 20  1  0
 22 23  2  0
 22 24  1  0
M  END
$$$$
