SSR.pdb
     RDKit          3D

 24 23  0  0  1  0  0  0  0  0999 V2000
    7.9138  -21.1896   21.1982 O   0  0  0  0  0  0  0  0  0  0  0  0
    7.4413  -22.2595   21.9612 C   0  0  0  0  0  0  0  0  0  0  0  0
    6.0822  -21.8683   22.4987 C   0  0  2  0  0  0  0  0  0  0  0  0
    5.1047  -21.9226   21.4548 N   0  0  0  0  0  0  0  0  0  0  0  0
    6.1107  -20.5658   23.1934 C   0  0  0  0  0  0  0  0  0  0  0  0
    5.7725  -19.5405   22.5475 O   0  0  0  0  0  0  0  0  0  0  0  0
    7.6541  -20.2745   27.0949 O   0  0  0  0  0  0  0  0  0  0  0  0
    6.6137  -19.4286   26.7378 C   0  0  0  0  0  0  0  0  0  0  0  0
    6.6531  -19.1904   25.2298 C   0  0  2  0  0  0  0  0  0  0  0  0
    6.5037  -20.4412   24.5506 N   0  0  0  0  0  0  0  0  0  0  0  0
    7.8396  -18.4335   24.8254 C   0  0  0  0  0  0  0  0  0  0  0  0
    8.8426  -19.1135   24.4306 O   0  0  0  0  0  0  0  0  0  0  0  0
    6.5821  -12.6347   19.8969 N   0  0  0  0  0  0  0  0  0  0  0  0
    7.6257  -13.4735   19.3625 C   0  0  0  0  0  0  0  0  0  0  0  0
    7.7805  -13.5147   18.0857 N   0  0  0  0  0  0  0  0  0  0  0  0
    8.4383  -14.2179   20.2601 N   0  0  0  0  0  0  0  0  0  0  0  0
    8.2039  -14.1973   21.6646 C   0  0  0  0  0  0  0  0  0  0  0  0
    9.2363  -14.9712   22.4539 C   0  0  0  0  0  0  0  0  0  0  0  0
    8.9190  -14.9999   23.9245 C   0  0  0  0  0  0  0  0  0  0  0  0
    9.1907  -16.2971   24.5897 C   0  0  2  0  0  0  0  0  0  0  0  0
    7.9668  -17.0282   24.8350 N   0  0  0  0  0  0  0  0  0  0  0  0
   10.0428  -16.2022   25.7930 C   0  0  0  0  0  0  0  0  0  0  0  0
   11.2343  -15.7793   25.7693 O   0  0  0  0  0  0  0  0  0  0  0  0
    9.5673  -16.5818   27.0412 O   0  0  0  0  0  0  0  0  0  0  0  0
  2  3  1  0
  2  1  1  0
  3  4  1  6
  5  3  1  0
  6  5  2  0
  8  7  1  0
  9  8  1  1
  9 11  1  0
  9 10  1  0
 10  5  1  0
 11 21  1  0
 12 11  2  0
 14 15  2  0
 14 13  1  0
 16 14  1  0
 17 16  1  0
 18 17  1  0
 19 18  1  0
 20 19  1  1
 20 22  1  0
 21 20  1  0
 22 23  2  0
 22 24  1  0
M  END
$$$$
