SSR.pdb
     RDKit          3D

 24 23  0  0  1  0  0  0  0  0999 V2000
    8.0048  -15.5308   18.7837 O   0  0  0  0  0  0  0  0  0  0  0  0
    6.8934  -14.7482   19.1039 C   0  0  0  0  0  0  0  0  0  0  0  0
    7.4051  -13.4060   19.5791 C   0  0  2  0  0  0  0  0  0  0  0  0
    8.0925  -12.7364   18.5174 N   0  0  0  0  0  0  0  0  0  0  0  0
    8.2160  -13.5210   20.8075 C   0  0  0  0  0  0  0  0  0  0  0  0
    9.4667  -13.4325   20.7042 O   0  0  0  0  0  0  0  0  0  0  0  0
    6.4335  -14.5678   24.4867 O   0  0  0  0  0  0  0  0  0  0  0  0
    7.4761  -13.6521   24.4899 C   0  0  0  0  0  0  0  0  0  0  0  0
    8.3807  -13.9143   23.2876 C   0  0  2  0  0  0  0  0  0  0  0  0
    7.6309  -13.7260   22.0833 N   0  0  0  0  0  0  0  0  0  0  0  0
    9.0453  -15.2161   23.3755 C   0  0  0  0  0  0  0  0  0  0  0  0
    8.3595  -16.2313   23.0243 O   0  0  0  0  0  0  0  0  0  0  0  0
   16.5122  -19.0167   20.7845 N   0  0  0  0  0  0  0  0  0  0  0  0
   16.4094  -19.2855   22.1971 C   0  0  0  0  0  0  0  0  0  0  0  0
   17.4746  -19.6315   22.8306 N   0  0  0  0  0  0  0  0  0  0  0  0
   15.1441  -19.1588   22.8319 N   0  0  0  0  0  0  0  0  0  0  0  0
   14.5227  -17.8887   23.0017 C   0  0  0  0  0  0  0  0  0  0  0  0
   13.1807  -17.9682   23.6949 C   0  0  0  0  0  0  0  0  0  0  0  0
   12.4615  -16.6465   23.6880 C   0  0  0  0  0  0  0  0  0  0  0  0
   11.0013  -16.7367   23.9298 C   0  0  2  0  0  0  0  0  0  0  0  0
   10.3682  -15.4413   23.8116 N   0  0  0  0  0  0  0  0  0  0  0  0
   10.6285  -17.4359   25.1769 C   0  0  0  0  0  0  0  0  0  0  0  0
   10.2878  -16.8343   26.2357 O   0  0  0  0  0  0  0  0  0  0  0  0
   10.6333  -18.8225   25.2516 O   0  0  0  0  0  0  0  0  0  0  0  0
  2  3  1  0
  2  1  1  0
  3  4  1  6
  5  3  1  0
  6  5  2  0
  8  7  1  0
  9  8  1  1
  9 11  1  0
  9 10  1  0
 10  5  1  0
 11 21  1  0
 12 11  2  0
 14 15  2  0
 14 13  1  0
 16 14  1  0
 17 16  1  0
 18 17  1  0
 19 18  1  0
 20 19  1  1
 20 22  1  0
 21 20  1  0
 22 23  2  0
 22 24  1  0
M  END
$$$$
