SSR.pdb
     RDKit          3D

 24 23  0  0  1  0  0  0  0  0999 V2000
   13.2284  -12.6167   11.6920 O   0  0  0  0  0  0  0  0  0  0  0  0
   13.1759  -13.5274   10.6347 C   0  0  0  0  0  0  0  0  0  0  0  0
   11.9607  -14.4028   10.8496 C   0  0  2  0  0  0  0  0  0  0  0  0
   10.8000  -13.5923   11.0594 N   0  0  0  0  0  0  0  0  0  0  0  0
   12.1709  -15.3957   11.9218 C   0  0  0  0  0  0  0  0  0  0  0  0
   11.6011  -15.2061   13.0273 O   0  0  0  0  0  0  0  0  0  0  0  0
   14.8941  -18.5420   11.4075 O   0  0  0  0  0  0  0  0  0  0  0  0
   13.7177  -18.8146   12.0909 C   0  0  0  0  0  0  0  0  0  0  0  0
   13.2090  -17.5337   12.7490 C   0  0  2  0  0  0  0  0  0  0  0  0
   12.9869  -16.5420   11.7415 N   0  0  0  0  0  0  0  0  0  0  0  0
   14.0852  -17.0905   13.8353 C   0  0  0  0  0  0  0  0  0  0  0  0
   14.9222  -16.1716   13.5538 O   0  0  0  0  0  0  0  0  0  0  0  0
   15.2086  -21.4445   21.1370 N   0  0  0  0  0  0  0  0  0  0  0  0
   14.3122  -21.5619   20.0140 C   0  0  0  0  0  0  0  0  0  0  0  0
   13.8787  -22.7320   19.7001 N   0  0  0  0  0  0  0  0  0  0  0  0
   13.9439  -20.3886   19.3014 N   0  0  0  0  0  0  0  0  0  0  0  0
   14.6544  -19.1656   19.4674 C   0  0  0  0  0  0  0  0  0  0  0  0
   15.2536  -18.6435   18.1804 C   0  0  0  0  0  0  0  0  0  0  0  0
   14.4014  -17.5740   17.5528 C   0  0  0  0  0  0  0  0  0  0  0  0
   14.8920  -17.0831   16.2424 C   0  0  2  0  0  0  0  0  0  0  0  0
   14.0824  -17.5888   15.1554 N   0  0  0  0  0  0  0  0  0  0  0  0
   16.3372  -17.2880   16.0131 C   0  0  0  0  0  0  0  0  0  0  0  0
   17.2358  -16.6236   16.6047 O   0  0  0  0  0  0  0  0  0  0  0  0
   16.7932  -18.2436   15.1146 O   0  0  0  0  0  0  0  0  0  0  0  0
  2  3  1  0
  2  1  1  0
  3  4  1  1
  5  3  1  0
  6  5  2  0
  8  7  1  0
  9  8  1  6
  9 11  1  0
  9 10  1  0
 10  5  1  0
 11 21  1  0
 12 11  2  0
 14 15  2  0
 14 13  1  0
 16 14  1  0
 17 16  1  0
 18 17  1  0
 19 18  1  0
 20 19  1  1
 20 22  1  0
 21 20  1  0
 22 23  2  0
 22 24  1  0
M  END
$$$$
