SSR.pdb
     RDKit          3D

 24 23  0  0  1  0  0  0  0  0999 V2000
   18.7631  -11.5374   18.8454 O   0  0  0  0  0  0  0  0  0  0  0  0
   19.8260  -12.1718   19.4920 C   0  0  0  0  0  0  0  0  0  0  0  0
   20.2609  -13.3300   18.6211 C   0  0  2  0  0  0  0  0  0  0  0  0
   20.6087  -12.8610   17.3145 N   0  0  0  0  0  0  0  0  0  0  0  0
   19.2604  -14.4154   18.5957 C   0  0  0  0  0  0  0  0  0  0  0  0
   18.5629  -14.5563   17.5582 O   0  0  0  0  0  0  0  0  0  0  0  0
   18.2836  -16.3416   22.0826 O   0  0  0  0  0  0  0  0  0  0  0  0
   18.3034  -17.1846   20.9805 C   0  0  0  0  0  0  0  0  0  0  0  0
   18.1130  -16.3578   19.7106 C   0  0  2  0  0  0  0  0  0  0  0  0
   19.0672  -15.2915   19.6944 N   0  0  0  0  0  0  0  0  0  0  0  0
   16.7265  -15.9161   19.5469 C   0  0  0  0  0  0  0  0  0  0  0  0
   16.3372  -14.9675   20.3039 O   0  0  0  0  0  0  0  0  0  0  0  0
   15.0885  -12.4050   12.0916 N   0  0  0  0  0  0  0  0  0  0  0  0
   15.5038  -13.4881   12.9476 C   0  0  0  0  0  0  0  0  0  0  0  0
   16.2200  -14.4276   12.4376 N   0  0  0  0  0  0  0  0  0  0  0  0
   15.1092  -13.4768   14.3130 N   0  0  0  0  0  0  0  0  0  0  0  0
   15.4010  -14.5690   15.1790 C   0  0  0  0  0  0  0  0  0  0  0  0
   14.8358  -14.3950   16.5712 C   0  0  0  0  0  0  0  0  0  0  0  0
   14.1418  -15.6376   17.0592 C   0  0  0  0  0  0  0  0  0  0  0  0
   14.4285  -15.9915   18.4704 C   0  0  2  0  0  0  0  0  0  0  0  0
   15.7925  -16.4457   18.6313 N   0  0  0  0  0  0  0  0  0  0  0  0
   13.4500  -16.9143   19.0819 C   0  0  0  0  0  0  0  0  0  0  0  0
   12.2040  -16.6991   19.0921 O   0  0  0  0  0  0  0  0  0  0  0  0
   13.8586  -18.0933   19.6912 O   0  0  0  0  0  0  0  0  0  0  0  0
  2  3  1  0
  2  1  1  0
  3  4  1  6
  5  3  1  0
  6  5  2  0
  8  7  1  0
  9  8  1  1
  9 11  1  0
  9 10  1  0
 10  5  1  0
 11 21  1  0
 12 11  2  0
 14 15  2  0
 14 13  1  0
 16 14  1  0
 17 16  1  0
 18 17  1  0
 19 18  1  0
 20 19  1  6
 20 22  1  0
 21 20  1  0
 22 23  2  0
 22 24  1  0
M  END
$$$$
