SSR.pdb
     RDKit          3D

 24 23  0  0  1  0  0  0  0  0999 V2000
   10.1426  -13.0817   18.3182 O   0  0  0  0  0  0  0  0  0  0  0  0
    9.1732  -13.8979   17.7315 C   0  0  0  0  0  0  0  0  0  0  0  0
    7.9376  -13.8328   18.6023 C   0  0  2  0  0  0  0  0  0  0  0  0
    7.6400  -12.4731   18.9352 N   0  0  0  0  0  0  0  0  0  0  0  0
    8.0442  -14.7057   19.7882 C   0  0  0  0  0  0  0  0  0  0  0  0
    8.1408  -14.1627   20.9189 O   0  0  0  0  0  0  0  0  0  0  0  0
    8.7046  -18.8262   19.3598 O   0  0  0  0  0  0  0  0  0  0  0  0
    7.8491  -18.4253   20.3761 C   0  0  0  0  0  0  0  0  0  0  0  0
    8.2057  -17.0029   20.8029 C   0  0  2  0  0  0  0  0  0  0  0  0
    8.0406  -16.1207   19.6883 N   0  0  0  0  0  0  0  0  0  0  0  0
    9.5297  -16.9329   21.4243 C   0  0  0  0  0  0  0  0  0  0  0  0
   10.4781  -16.4900   20.6972 O   0  0  0  0  0  0  0  0  0  0  0  0
   10.2804  -15.8991   29.7656 N   0  0  0  0  0  0  0  0  0  0  0  0
    9.8728  -14.7992   28.9274 C   0  0  0  0  0  0  0  0  0  0  0  0
    9.3784  -13.7537   29.4916 N   0  0  0  0  0  0  0  0  0  0  0  0
   10.0316  -14.9108   27.5194 N   0  0  0  0  0  0  0  0  0  0  0  0
   10.5343  -16.1014   26.9212 C   0  0  0  0  0  0  0  0  0  0  0  0
   10.5825  -16.0367   25.4108 C   0  0  0  0  0  0  0  0  0  0  0  0
   11.1114  -17.3093   24.8068 C   0  0  0  0  0  0  0  0  0  0  0  0
   11.1694  -17.3122   23.3251 C   0  0  2  0  0  0  0  0  0  0  0  0
    9.8431  -17.3102   22.7474 N   0  0  0  0  0  0  0  0  0  0  0  0
   12.0354  -18.3609   22.7476 C   0  0  0  0  0  0  0  0  0  0  0  0
   13.2985  -18.3220   22.7932 O   0  0  0  0  0  0  0  0  0  0  0  0
   11.4934  -19.4691   22.1102 O   0  0  0  0  0  0  0  0  0  0  0  0
  2  3  1  0
  2  1  1  0
  3  4  1  1
  5  3  1  0
  6  5  2  0
  8  7  1  0
  9  8  1  6
  9 11  1  0
  9 10  1  0
 10  5  1  0
 11 21  1  0
 12 11  2  0
 14 15  2  0
 14 13  1  0
 16 14  1  0
 17 16  1  0
 18 17  1  0
 19 18  1  0
 20 19  1  1
 20 22  1  0
 21 20  1  0
 22 23  2  0
 22 24  1  0
M  END
$$$$
