SSR.pdb
     RDKit          3D

 24 23  0  0  1  0  0  0  0  0999 V2000
    5.7523  -19.5136   23.7674 O   0  0  0  0  0  0  0  0  0  0  0  0
    5.6151  -18.7475   22.6079 C   0  0  0  0  0  0  0  0  0  0  0  0
    6.2790  -19.5074   21.4806 C   0  0  2  0  0  0  0  0  0  0  0  0
    5.7730  -20.8448   21.4223 N   0  0  0  0  0  0  0  0  0  0  0  0
    7.7521  -19.4524   21.5622 C   0  0  0  0  0  0  0  0  0  0  0  0
    8.3576  -20.4422   22.0484 O   0  0  0  0  0  0  0  0  0  0  0  0
    9.8264  -15.9879   20.3950 O   0  0  0  0  0  0  0  0  0  0  0  0
   10.4041  -17.2236   20.1405 C   0  0  0  0  0  0  0  0  0  0  0  0
    9.9188  -18.2305   21.1813 C   0  0  2  0  0  0  0  0  0  0  0  0
    8.4928  -18.3290   21.1133 N   0  0  0  0  0  0  0  0  0  0  0  0
   10.4295  -17.9249   22.5192 C   0  0  0  0  0  0  0  0  0  0  0  0
    9.7105  -17.1614   23.2433 O   0  0  0  0  0  0  0  0  0  0  0  0
   11.7925  -21.7092   29.5261 N   0  0  0  0  0  0  0  0  0  0  0  0
   12.6406  -20.5806   29.8182 C   0  0  0  0  0  0  0  0  0  0  0  0
   12.8854  -20.3053   31.0511 N   0  0  0  0  0  0  0  0  0  0  0  0
   13.1705  -19.8203   28.7406 N   0  0  0  0  0  0  0  0  0  0  0  0
   12.8005  -20.0870   27.3915 C   0  0  0  0  0  0  0  0  0  0  0  0
   13.2812  -19.0315   26.4205 C   0  0  0  0  0  0  0  0  0  0  0  0
   12.7647  -19.2679   25.0271 C   0  0  0  0  0  0  0  0  0  0  0  0
   12.1353  -18.0845   24.3927 C   0  0  2  0  0  0  0  0  0  0  0  0
   11.6386  -18.3990   23.0709 N   0  0  0  0  0  0  0  0  0  0  0  0
   12.9694  -16.8650   24.4074 C   0  0  0  0  0  0  0  0  0  0  0  0
   13.3750  -16.3132   25.4704 O   0  0  0  0  0  0  0  0  0  0  0  0
   13.3597  -16.2479   23.2263 O   0  0  0  0  0  0  0  0  0  0  0  0
  2  3  1  0
  2  1  1  0
  3  4  1  1
  5  3  1  0
  6  5  2  0
  8  7  1  0
  9  8  1  6
  9 11  1  0
  9 10  1  0
 10  5  1  0
 11 21  1  0
 12 11  2  0
 14 15  2  0
 14 13  1  0
 16 14  1  0
 17 16  1  0
 18 17  1  0
 19 18  1  0
 20 19  1  6
 20 22  1  0
 21 20  1  0
 22 23  2  0
 22 24  1  0
M  END
$$$$
