SSR.pdb
     RDKit          3D

 24 23  0  0  1  0  0  0  0  0999 V2000
   14.3067  -18.8665   15.9443 O   0  0  0  0  0  0  0  0  0  0  0  0
   13.3894  -19.8579   16.2989 C   0  0  0  0  0  0  0  0  0  0  0  0
   12.0040  -19.3098   16.0352 C   0  0  2  0  0  0  0  0  0  0  0  0
   12.0799  -18.1742   15.1676 N   0  0  0  0  0  0  0  0  0  0  0  0
   11.2669  -19.0320   17.2839 C   0  0  0  0  0  0  0  0  0  0  0  0
   10.6177  -17.9574   17.3640 O   0  0  0  0  0  0  0  0  0  0  0  0
   11.5261  -21.6418   20.5807 O   0  0  0  0  0  0  0  0  0  0  0  0
   10.2951  -21.0875   20.2601 C   0  0  0  0  0  0  0  0  0  0  0  0
   10.5124  -19.7382   19.5784 C   0  0  2  0  0  0  0  0  0  0  0  0
   11.2710  -19.9318   18.3805 N   0  0  0  0  0  0  0  0  0  0  0  0
   11.0877  -18.7490   20.4919 C   0  0  0  0  0  0  0  0  0  0  0  0
   12.3598  -18.6850   20.5354 O   0  0  0  0  0  0  0  0  0  0  0  0
    8.1609  -12.1880   19.4868 N   0  0  0  0  0  0  0  0  0  0  0  0
    7.1990  -13.2359   19.7218 C   0  0  0  0  0  0  0  0  0  0  0  0
    6.2205  -13.3611   18.8957 N   0  0  0  0  0  0  0  0  0  0  0  0
    7.3673  -14.0849   20.8491 N   0  0  0  0  0  0  0  0  0  0  0  0
    8.5241  -14.0009   21.6755 C   0  0  0  0  0  0  0  0  0  0  0  0
    9.5759  -15.0340   21.3375 C   0  0  0  0  0  0  0  0  0  0  0  0
   10.0128  -15.8133   22.5482 C   0  0  0  0  0  0  0  0  0  0  0  0
   10.9413  -16.9330   22.2600 C   0  0  2  0  0  0  0  0  0  0  0  0
   10.3612  -17.8681   21.3210 N   0  0  0  0  0  0  0  0  0  0  0  0
   11.4861  -17.6018   23.4596 C   0  0  0  0  0  0  0  0  0  0  0  0
   11.0772  -18.7237   23.8758 O   0  0  0  0  0  0  0  0  0  0  0  0
   12.4991  -17.0185   24.2091 O   0  0  0  0  0  0  0  0  0  0  0  0
  2  3  1  0
  2  1  1  0
  3  4  1  1
  5  3  1  0
  6  5  2  0
  8  7  1  0
  9  8  1  1
  9 11  1  0
  9 10  1  0
 10  5  1  0
 11 21  1  0
 12 11  2  0
 14 15  2  0
 14 13  1  0
 16 14  1  0
 17 16  1  0
 18 17  1  0
 19 18  1  0
 20 19  1  1
 20 22  1  0
 21 20  1  0
 22 23  2  0
 22 24  1  0
M  END
$$$$
