SSR.pdb
     RDKit          3D

 24 23  0  0  1  0  0  0  0  0999 V2000
    8.6943  -20.1042   16.6676 O   0  0  0  0  0  0  0  0  0  0  0  0
    7.5705  -19.8112   17.4430 C   0  0  0  0  0  0  0  0  0  0  0  0
    7.4298  -18.3055   17.4876 C   0  0  2  0  0  0  0  0  0  0  0  0
    8.5798  -17.6853   16.9035 N   0  0  0  0  0  0  0  0  0  0  0  0
    7.1386  -17.8124   18.8484 C   0  0  0  0  0  0  0  0  0  0  0  0
    8.0843  -17.3216   19.5174 O   0  0  0  0  0  0  0  0  0  0  0  0
    3.4510  -18.7014   20.6551 O   0  0  0  0  0  0  0  0  0  0  0  0
    4.0337  -17.4806   20.9644 C   0  0  0  0  0  0  0  0  0  0  0  0
    5.5467  -17.5845   20.7839 C   0  0  2  0  0  0  0  0  0  0  0  0
    5.8393  -17.8762   19.4139 N   0  0  0  0  0  0  0  0  0  0  0  0
    6.1485  -18.5239   21.7324 C   0  0  0  0  0  0  0  0  0  0  0  0
    6.3804  -19.7003   21.3005 O   0  0  0  0  0  0  0  0  0  0  0  0
   10.4664  -17.7502   29.5210 N   0  0  0  0  0  0  0  0  0  0  0  0
    9.7453  -18.9917   29.6519 C   0  0  0  0  0  0  0  0  0  0  0  0
    9.7021  -19.5521   30.8094 N   0  0  0  0  0  0  0  0  0  0  0  0
    9.1137  -19.5454   28.5053 N   0  0  0  0  0  0  0  0  0  0  0  0
    8.4209  -18.7244   27.5704 C   0  0  0  0  0  0  0  0  0  0  0  0
    8.0302  -19.4574   26.3063 C   0  0  0  0  0  0  0  0  0  0  0  0
    7.4014  -18.5406   25.2923 C   0  0  0  0  0  0  0  0  0  0  0  0
    7.0088  -19.1997   24.0234 C   0  0  2  0  0  0  0  0  0  0  0  0
    6.4908  -18.2411   23.0718 N   0  0  0  0  0  0  0  0  0  0  0  0
    6.1197  -20.3681   24.1891 C   0  0  0  0  0  0  0  0  0  0  0  0
    4.8582  -20.2932   24.1443 O   0  0  0  0  0  0  0  0  0  0  0  0
    6.6364  -21.6383   24.4077 O   0  0  0  0  0  0  0  0  0  0  0  0
  2  3  1  0
  2  1  1  0
  3  4  1  1
  5  3  1  0
  6  5  2  0
  8  7  1  0
  9  8  1  6
  9 11  1  0
  9 10  1  0
 10  5  1  0
 11 21  1  0
 12 11  2  0
 14 15  2  0
 14 13  1  0
 16 14  1  0
 17 16  1  0
 18 17  1  0
 19 18  1  0
 20 19  1  1
 20 22  1  0
 21 20  1  0
 22 23  2  0
 22 24  1  0
M  END
$$$$
