DYW.pdb
     RDKit          3D

 35 37  0  0  1  0  0  0  0  0999 V2000
   17.4500   -6.1640  -19.5224 N   0  0  0  0  0  0  0  0  0  0  0  0
   18.5545   -7.0634  -19.6350 C   0  0  1  0  0  0  0  0  0  0  0  0
   18.6615   -7.7271  -20.9911 C   0  0  0  0  0  0  0  0  0  0  0  0
   17.6319   -8.7612  -21.2067 C   0  0  0  0  0  0  0  0  0  0  0  0
   16.7647   -8.9897  -20.3083 O   0  0  0  0  0  0  0  0  0  0  0  0
   19.8314   -6.3573  -19.2876 C   0  0  0  0  0  0  0  0  0  0  0  0
   20.1330   -5.2911  -19.8698 O   0  0  0  0  0  0  0  0  0  0  0  0
   17.6168   -9.4802  -22.3929 O   0  0  0  0  0  0  0  0  0  0  0  0
   18.5562   -0.6941  -17.4466 O   0  0  0  0  0  0  0  0  0  0  0  0
   19.2849   -1.8556  -17.2328 C   0  0  0  0  0  0  0  0  0  0  0  0
   18.7674   -2.9838  -16.6320 C   0  0  0  0  0  0  0  0  0  0  0  0
   19.5525   -4.1276  -16.4429 C   0  0  0  0  0  0  0  0  0  0  0  0
   20.8757   -4.1439  -16.8608 C   0  0  0  0  0  0  0  0  0  0  0  0
   21.7031   -5.3309  -16.6709 C   0  0  0  0  0  0  0  0  0  0  0  0
   21.9226   -6.1639  -17.8825 C   0  0  2  0  0  0  0  0  0  0  0  0
   20.7231   -6.8613  -18.3084 N   0  0  0  0  0  0  0  0  0  0  0  0
   23.0360   -7.1367  -17.7919 C   0  0  0  0  0  0  0  0  0  0  0  0
   22.8834   -8.2227  -17.1293 O   0  0  0  0  0  0  0  0  0  0  0  0
   21.3895   -3.0202  -17.4589 C   0  0  0  0  0  0  0  0  0  0  0  0
   20.6146   -1.8726  -17.6528 C   0  0  0  0  0  0  0  0  0  0  0  0
   24.3026   -6.9565  -18.4052 N   0  0  0  0  0  0  0  0  0  0  0  0
   25.3916   -7.9324  -18.2619 C   0  0  1  0  0  0  0  0  0  0  0  0
   26.3459   -7.8142  -19.3998 C   0  0  0  0  0  0  0  0  0  0  0  0
   27.4764   -8.7463  -19.2626 C   0  0  0  0  0  0  0  0  0  0  0  0
   27.5456  -10.0553  -19.7391 C   0  0  0  0  0  0  0  0  0  0  0  0
   28.7193  -10.5869  -19.3834 N   0  0  0  0  0  0  0  0  0  0  0  0
   29.4354   -9.6776  -18.6873 C   0  0  0  0  0  0  0  0  0  0  0  0
   30.7006   -9.7162  -18.1152 C   0  0  0  0  0  0  0  0  0  0  0  0
   31.2539   -8.6435  -17.4543 C   0  0  0  0  0  0  0  0  0  0  0  0
   30.4805   -7.5039  -17.3832 C   0  0  0  0  0  0  0  0  0  0  0  0
   29.2278   -7.4362  -17.9375 C   0  0  0  0  0  0  0  0  0  0  0  0
   28.6904   -8.5396  -18.6017 C   0  0  0  0  0  0  0  0  0  0  0  0
   25.9607   -7.9862  -16.9238 C   0  0  0  0  0  0  0  0  0  0  0  0
   26.1916   -6.9587  -16.2190 O   0  0  0  0  0  0  0  0  0  0  0  0
   26.3101   -9.1916  -16.2814 O   0  0  0  0  0  0  0  0  0  0  0  0
  2  1  1  6
  3  2  1  0
  3  4  1  0
  4  8  1  0
  5  4  2  0
  6  2  1  0
  6  7  2  0
  9 10  1  0
 10 11  2  0
 11 12  1  0
 13 12  2  0
 13 14  1  0
 15 14  1  1
 15 16  1  0
 15 17  1  0
 16  6  1  0
 17 21  1  0
 18 17  2  0
 19 13  1  0
 20 10  1  0
 20 19  2  0
 21 22  1  0
 22 33  1  0
 22 23  1  6
 24 23  1  0
 24 32  1  0
 25 26  1  0
 25 24  2  0
 26 27  1  0
 27 32  2  0
 27 28  1  0
 28 29  2  0
 29 30  1  0
 31 30  2  0
 32 31  1  0
 33 34  2  0
 33 35  1  0
M  END
$$$$
