DYW.pdb
     RDKit          3D

 35 37  0  0  1  0  0  0  0  0999 V2000
   28.0388  -18.7313  -21.0315 N   0  0  0  0  0  0  0  0  0  0  0  0
   27.7473  -18.2213  -19.7291 C   0  0  1  0  0  0  0  0  0  0  0  0
   27.8713  -16.7164  -19.6243 C   0  0  0  0  0  0  0  0  0  0  0  0
   29.2631  -16.2450  -19.7530 C   0  0  0  0  0  0  0  0  0  0  0  0
   30.2112  -17.0842  -19.8433 O   0  0  0  0  0  0  0  0  0  0  0  0
   26.3857  -18.6732  -19.2916 C   0  0  0  0  0  0  0  0  0  0  0  0
   25.4926  -18.8782  -20.1444 O   0  0  0  0  0  0  0  0  0  0  0  0
   29.5293  -14.8837  -19.7747 O   0  0  0  0  0  0  0  0  0  0  0  0
   19.7823  -21.6186  -14.0963 O   0  0  0  0  0  0  0  0  0  0  0  0
   21.0116  -21.2073  -14.5917 C   0  0  0  0  0  0  0  0  0  0  0  0
   21.6569  -20.0599  -14.1809 C   0  0  0  0  0  0  0  0  0  0  0  0
   22.8976  -19.6959  -14.7180 C   0  0  0  0  0  0  0  0  0  0  0  0
   23.5028  -20.4912  -15.6809 C   0  0  0  0  0  0  0  0  0  0  0  0
   24.7966  -20.1230  -16.2464 C   0  0  0  0  0  0  0  0  0  0  0  0
   24.7490  -19.2654  -17.4599 C   0  0  2  0  0  0  0  0  0  0  0  0
   26.0682  -18.8798  -17.9262 N   0  0  0  0  0  0  0  0  0  0  0  0
   23.9065  -18.0522  -17.3482 C   0  0  0  0  0  0  0  0  0  0  0  0
   24.4102  -16.9639  -16.8970 O   0  0  0  0  0  0  0  0  0  0  0  0
   22.8593  -21.6332  -16.0887 C   0  0  0  0  0  0  0  0  0  0  0  0
   21.6203  -22.0062  -15.5591 C   0  0  0  0  0  0  0  0  0  0  0  0
   22.5378  -17.9966  -17.7171 N   0  0  0  0  0  0  0  0  0  0  0  0
   21.7493  -16.7599  -17.6293 C   0  0  1  0  0  0  0  0  0  0  0  0
   22.3797  -15.6846  -18.4453 C   0  0  0  0  0  0  0  0  0  0  0  0
   22.1122  -15.8619  -19.8815 C   0  0  0  0  0  0  0  0  0  0  0  0
   20.8781  -16.1184  -20.4784 C   0  0  0  0  0  0  0  0  0  0  0  0
   21.0513  -16.2519  -21.7971 N   0  0  0  0  0  0  0  0  0  0  0  0
   22.3577  -16.0924  -22.1002 C   0  0  0  0  0  0  0  0  0  0  0  0
   23.0533  -16.1170  -23.3023 C   0  0  0  0  0  0  0  0  0  0  0  0
   24.4105  -15.9051  -23.3838 C   0  0  0  0  0  0  0  0  0  0  0  0
   25.0641  -15.6621  -22.1939 C   0  0  0  0  0  0  0  0  0  0  0  0
   24.4045  -15.6325  -20.9917 C   0  0  0  0  0  0  0  0  0  0  0  0
   23.0274  -15.8516  -20.9379 C   0  0  0  0  0  0  0  0  0  0  0  0
   20.3177  -16.9623  -17.7939 C   0  0  0  0  0  0  0  0  0  0  0  0
   19.4625  -16.0330  -17.6903 O   0  0  0  0  0  0  0  0  0  0  0  0
   19.7440  -18.2165  -18.0862 O   0  0  0  0  0  0  0  0  0  0  0  0
  2  1  1  6
  3  2  1  0
  3  4  1  0
  4  8  1  0
  5  4  2  0
  6  2  1  0
  6  7  2  0
  9 10  1  0
 10 11  2  0
 11 12  1  0
 13 12  2  0
 13 14  1  0
 15 14  1  1
 15 16  1  0
 15 17  1  0
 16  6  1  0
 17 21  1  0
 18 17  2  0
 19 13  1  0
 20 10  1  0
 20 19  2  0
 21 22  1  0
 22 33  1  0
 22 23  1  6
 24 23  1  0
 24 32  1  0
 25 26  1  0
 25 24  2  0
 26 27  1  0
 27 32  2  0
 27 28  1  0
 28 29  2  0
 29 30  1  0
 31 30  2  0
 32 31  1  0
 33 34  2  0
 33 35  1  0
M  END
$$$$
