DYW.pdb
     RDKit          3D

 35 37  0  0  1  0  0  0  0  0999 V2000
   27.7562  -24.4972  -18.1386 N   0  0  0  0  0  0  0  0  0  0  0  0
   27.5745  -23.7009  -16.9663 C   0  0  1  0  0  0  0  0  0  0  0  0
   28.1070  -22.2906  -17.1015 C   0  0  0  0  0  0  0  0  0  0  0  0
   29.5656  -22.2059  -16.8982 C   0  0  0  0  0  0  0  0  0  0  0  0
   30.2345  -23.2577  -16.6578 O   0  0  0  0  0  0  0  0  0  0  0  0
   26.1273  -23.6862  -16.5726 C   0  0  0  0  0  0  0  0  0  0  0  0
   25.3250  -22.9363  -17.1734 O   0  0  0  0  0  0  0  0  0  0  0  0
   30.2001  -20.9745  -16.9710 O   0  0  0  0  0  0  0  0  0  0  0  0
   18.3750  -25.9316  -12.8642 O   0  0  0  0  0  0  0  0  0  0  0  0
   19.6635  -25.8875  -13.3777 C   0  0  0  0  0  0  0  0  0  0  0  0
   19.9535  -25.5881  -14.6922 C   0  0  0  0  0  0  0  0  0  0  0  0
   21.2753  -25.5592  -15.1530 C   0  0  0  0  0  0  0  0  0  0  0  0
   22.3238  -25.8337  -14.2862 C   0  0  0  0  0  0  0  0  0  0  0  0
   23.7056  -25.8045  -14.7545 C   0  0  0  0  0  0  0  0  0  0  0  0
   24.2528  -24.4573  -15.0638 C   0  0  2  0  0  0  0  0  0  0  0  0
   25.6269  -24.5034  -15.5287 N   0  0  0  0  0  0  0  0  0  0  0  0
   24.1498  -23.4630  -13.9706 C   0  0  0  0  0  0  0  0  0  0  0  0
   23.0054  -22.9875  -13.6451 O   0  0  0  0  0  0  0  0  0  0  0  0
   22.0337  -26.1314  -12.9779 C   0  0  0  0  0  0  0  0  0  0  0  0
   20.7175  -26.1632  -12.5071 C   0  0  0  0  0  0  0  0  0  0  0  0
   25.2571  -22.9802  -13.2265 N   0  0  0  0  0  0  0  0  0  0  0  0
   25.0951  -22.2111  -11.9851 C   0  0  1  0  0  0  0  0  0  0  0  0
   26.1939  -22.5302  -11.0310 C   0  0  0  0  0  0  0  0  0  0  0  0
   26.3252  -21.5017   -9.9867 C   0  0  0  0  0  0  0  0  0  0  0  0
   25.3100  -20.6956   -9.4723 C   0  0  0  0  0  0  0  0  0  0  0  0
   25.8321  -19.8620   -8.5672 N   0  0  0  0  0  0  0  0  0  0  0  0
   27.1598  -20.0849   -8.4596 C   0  0  0  0  0  0  0  0  0  0  0  0
   28.1473  -19.5139   -7.6670 C   0  0  0  0  0  0  0  0  0  0  0  0
   29.4624  -19.9172   -7.7068 C   0  0  0  0  0  0  0  0  0  0  0  0
   29.7634  -20.9352   -8.5871 C   0  0  0  0  0  0  0  0  0  0  0  0
   28.8102  -21.5178   -9.3828 C   0  0  0  0  0  0  0  0  0  0  0  0
   27.4837  -21.0886   -9.3228 C   0  0  0  0  0  0  0  0  0  0  0  0
   24.7933  -20.8040  -12.2003 C   0  0  0  0  0  0  0  0  0  0  0  0
   25.3223  -20.1063  -13.1163 O   0  0  0  0  0  0  0  0  0  0  0  0
   23.8793  -20.0805  -11.4073 O   0  0  0  0  0  0  0  0  0  0  0  0
  2  1  1  6
  3  2  1  0
  3  4  1  0
  4  8  1  0
  5  4  2  0
  6  2  1  0
  6  7  2  0
  9 10  1  0
 10 11  2  0
 11 12  1  0
 13 12  2  0
 13 14  1  0
 15 14  1  1
 15 16  1  0
 15 17  1  0
 16  6  1  0
 17 21  1  0
 18 17  2  0
 19 13  1  0
 20 10  1  0
 20 19  2  0
 21 22  1  0
 22 33  1  0
 22 23  1  6
 24 23  1  0
 24 32  1  0
 25 26  1  0
 25 24  2  0
 26 27  1  0
 27 32  2  0
 27 28  1  0
 28 29  2  0
 29 30  1  0
 31 30  2  0
 32 31  1  0
 33 34  2  0
 33 35  1  0
M  END
$$$$
