DYW.pdb
     RDKit          3D

 35 37  0  0  1  0  0  0  0  0999 V2000
   24.8167  -17.4714  -14.1939 N   0  0  0  0  0  0  0  0  0  0  0  0
   24.2849  -18.7194  -14.6427 C   0  0  1  0  0  0  0  0  0  0  0  0
   24.0764  -18.7874  -16.1403 C   0  0  0  0  0  0  0  0  0  0  0  0
   23.1979  -17.7159  -16.6466 C   0  0  0  0  0  0  0  0  0  0  0  0
   23.4160  -17.2028  -17.7870 O   0  0  0  0  0  0  0  0  0  0  0  0
   25.1557  -19.8480  -14.1764 C   0  0  0  0  0  0  0  0  0  0  0  0
   24.8973  -21.0214  -14.5276 O   0  0  0  0  0  0  0  0  0  0  0  0
   22.1356  -17.2736  -15.8719 O   0  0  0  0  0  0  0  0  0  0  0  0
   32.0109  -22.4065  -16.8171 O   0  0  0  0  0  0  0  0  0  0  0  0
   31.1597  -21.8363  -15.8811 C   0  0  0  0  0  0  0  0  0  0  0  0
   30.4121  -20.7020  -16.1175 C   0  0  0  0  0  0  0  0  0  0  0  0
   29.5697  -20.1723  -15.1326 C   0  0  0  0  0  0  0  0  0  0  0  0
   29.4731  -20.7861  -13.8917 C   0  0  0  0  0  0  0  0  0  0  0  0
   28.5970  -20.2444  -12.8581 C   0  0  0  0  0  0  0  0  0  0  0  0
   27.1792  -20.6879  -12.9175 C   0  0  2  0  0  0  0  0  0  0  0  0
   26.2783  -19.6311  -13.3394 N   0  0  0  0  0  0  0  0  0  0  0  0
   26.6520  -21.3000  -11.6760 C   0  0  0  0  0  0  0  0  0  0  0  0
   26.3819  -22.5521  -11.6457 O   0  0  0  0  0  0  0  0  0  0  0  0
   30.2178  -21.9154  -13.6577 C   0  0  0  0  0  0  0  0  0  0  0  0
   31.0621  -22.4528  -14.6340 C   0  0  0  0  0  0  0  0  0  0  0  0
   26.4167  -20.5849  -10.4734 N   0  0  0  0  0  0  0  0  0  0  0  0
   25.8104  -21.2123   -9.2913 C   0  0  1  0  0  0  0  0  0  0  0  0
   26.8493  -21.4837   -8.2586 C   0  0  0  0  0  0  0  0  0  0  0  0
   27.3140  -20.2452   -7.6137 C   0  0  0  0  0  0  0  0  0  0  0  0
   27.1445  -18.9424   -8.0818 C   0  0  0  0  0  0  0  0  0  0  0  0
   27.7389  -18.0949   -7.2361 N   0  0  0  0  0  0  0  0  0  0  0  0
   28.2979  -18.7872   -6.2201 C   0  0  0  0  0  0  0  0  0  0  0  0
   29.0052  -18.3930   -5.0916 C   0  0  0  0  0  0  0  0  0  0  0  0
   29.4760  -19.2857   -4.1561 C   0  0  0  0  0  0  0  0  0  0  0  0
   29.2089  -20.6178   -4.3933 C   0  0  0  0  0  0  0  0  0  0  0  0
   28.5138  -21.0372   -5.4988 C   0  0  0  0  0  0  0  0  0  0  0  0
   28.0484  -20.1102   -6.4323 C   0  0  0  0  0  0  0  0  0  0  0  0
   24.5865  -20.5644   -8.8443 C   0  0  0  0  0  0  0  0  0  0  0  0
   23.9078  -20.9595   -7.8498 O   0  0  0  0  0  0  0  0  0  0  0  0
   24.0378  -19.4305   -9.4774 O   0  0  0  0  0  0  0  0  0  0  0  0
  2  1  1  6
  3  2  1  0
  3  4  1  0
  4  8  1  0
  5  4  2  0
  6  2  1  0
  6  7  2  0
  9 10  1  0
 10 11  2  0
 11 12  1  0
 13 12  2  0
 13 14  1  0
 15 14  1  1
 15 16  1  0
 15 17  1  0
 16  6  1  0
 17 21  1  0
 18 17  2  0
 19 13  1  0
 20 10  1  0
 20 19  2  0
 21 22  1  0
 22 33  1  0
 22 23  1  1
 24 23  1  0
 24 32  1  0
 25 26  1  0
 25 24  2  0
 26 27  1  0
 27 32  2  0
 27 28  1  0
 28 29  2  0
 29 30  1  0
 31 30  2  0
 32 31  1  0
 33 34  2  0
 33 35  1  0
M  END
$$$$
