DYW.pdb
     RDKit          3D

 35 37  0  0  1  0  0  0  0  0999 V2000
   26.5961   -5.1650  -21.9880 N   0  0  0  0  0  0  0  0  0  0  0  0
   25.7206   -6.1812  -21.4958 C   0  0  1  0  0  0  0  0  0  0  0  0
   26.4435   -7.3570  -20.8746 C   0  0  0  0  0  0  0  0  0  0  0  0
   27.3085   -8.0703  -21.8331 C   0  0  0  0  0  0  0  0  0  0  0  0
   27.4124   -7.6516  -23.0270 O   0  0  0  0  0  0  0  0  0  0  0  0
   24.7384   -5.5908  -20.5281 C   0  0  0  0  0  0  0  0  0  0  0  0
   24.6912   -4.3505  -20.3659 O   0  0  0  0  0  0  0  0  0  0  0  0
   28.0057   -9.1976  -21.4239 O   0  0  0  0  0  0  0  0  0  0  0  0
   17.6400   -2.7141  -16.6615 O   0  0  0  0  0  0  0  0  0  0  0  0
   18.6792   -3.2978  -17.3721 C   0  0  0  0  0  0  0  0  0  0  0  0
   18.9853   -4.6412  -17.3153 C   0  0  0  0  0  0  0  0  0  0  0  0
   20.0476   -5.1732  -18.0560 C   0  0  0  0  0  0  0  0  0  0  0  0
   20.8162   -4.3495  -18.8665 C   0  0  0  0  0  0  0  0  0  0  0  0
   21.9245   -4.8929  -19.6447 C   0  0  0  0  0  0  0  0  0  0  0  0
   22.7984   -5.8616  -18.9319 C   0  0  2  0  0  0  0  0  0  0  0  0
   23.8476   -6.3988  -19.7787 N   0  0  0  0  0  0  0  0  0  0  0  0
   22.0951   -6.9845  -18.2696 C   0  0  0  0  0  0  0  0  0  0  0  0
   21.8058   -8.0395  -18.9365 O   0  0  0  0  0  0  0  0  0  0  0  0
   20.5102   -3.0124  -18.9223 C   0  0  0  0  0  0  0  0  0  0  0  0
   19.4517   -2.4705  -18.1868 C   0  0  0  0  0  0  0  0  0  0  0  0
   21.7049   -6.9858  -16.9056 N   0  0  0  0  0  0  0  0  0  0  0  0
   20.9979   -8.1177  -16.2911 C   0  0  1  0  0  0  0  0  0  0  0  0
   21.7284   -9.3892  -16.5543 C   0  0  0  0  0  0  0  0  0  0  0  0
   22.8690   -9.5622  -15.6407 C   0  0  0  0  0  0  0  0  0  0  0  0
   22.8253   -9.6218  -14.2480 C   0  0  0  0  0  0  0  0  0  0  0  0
   24.0703   -9.7477  -13.7780 N   0  0  0  0  0  0  0  0  0  0  0  0
   24.9423   -9.7752  -14.8090 C   0  0  0  0  0  0  0  0  0  0  0  0
   26.3240   -9.9052  -14.8679 C   0  0  0  0  0  0  0  0  0  0  0  0
   27.0217   -9.9287  -16.0537 C   0  0  0  0  0  0  0  0  0  0  0  0
   26.2728   -9.8151  -17.2062 C   0  0  0  0  0  0  0  0  0  0  0  0
   24.9077   -9.6846  -17.1797 C   0  0  0  0  0  0  0  0  0  0  0  0
   24.2253   -9.6629  -15.9626 C   0  0  0  0  0  0  0  0  0  0  0  0
   20.5710   -7.8711  -14.9220 C   0  0  0  0  0  0  0  0  0  0  0  0
   19.7521   -8.6113  -14.2996 O   0  0  0  0  0  0  0  0  0  0  0  0
   21.0303   -6.7813  -14.1546 O   0  0  0  0  0  0  0  0  0  0  0  0
  2  1  1  1
  3  2  1  0
  3  4  1  0
  4  8  1  0
  5  4  2  0
  6  2  1  0
  6  7  2  0
  9 10  1  0
 10 11  2  0
 11 12  1  0
 13 12  2  0
 13 14  1  0
 15 14  1  6
 15 16  1  0
 15 17  1  0
 16  6  1  0
 17 21  1  0
 18 17  2  0
 19 13  1  0
 20 10  1  0
 20 19  2  0
 21 22  1  0
 22 33  1  0
 22 23  1  1
 24 23  1  0
 24 32  1  0
 25 26  1  0
 25 24  2  0
 26 27  1  0
 27 32  2  0
 27 28  1  0
 28 29  2  0
 29 30  1  0
 31 30  2  0
 32 31  1  0
 33 34  2  0
 33 35  1  0
M  END
$$$$
