DYW.pdb
     RDKit          3D

 35 37  0  0  1  0  0  0  0  0999 V2000
   28.3558  -21.6784  -18.8440 N   0  0  0  0  0  0  0  0  0  0  0  0
   27.8417  -20.5600  -18.1185 C   0  0  1  0  0  0  0  0  0  0  0  0
   26.8230  -19.7506  -18.8918 C   0  0  0  0  0  0  0  0  0  0  0  0
   27.3836  -19.1358  -20.1099 C   0  0  0  0  0  0  0  0  0  0  0  0
   26.9064  -19.4336  -21.2479 O   0  0  0  0  0  0  0  0  0  0  0  0
   27.2736  -21.0139  -16.8067 C   0  0  0  0  0  0  0  0  0  0  0  0
   26.6493  -22.0967  -16.7385 O   0  0  0  0  0  0  0  0  0  0  0  0
   28.4318  -18.2333  -20.0052 O   0  0  0  0  0  0  0  0  0  0  0  0
   24.9688  -20.4016   -8.1830 O   0  0  0  0  0  0  0  0  0  0  0  0
   25.6212  -20.4113   -9.4078 C   0  0  0  0  0  0  0  0  0  0  0  0
   26.0712  -21.5590  -10.0259 C   0  0  0  0  0  0  0  0  0  0  0  0
   26.7240  -21.5058  -11.2634 C   0  0  0  0  0  0  0  0  0  0  0  0
   26.9302  -20.2864  -11.8930 C   0  0  0  0  0  0  0  0  0  0  0  0
   27.6075  -20.2188  -13.1838 C   0  0  0  0  0  0  0  0  0  0  0  0
   26.7840  -20.5921  -14.3639 C   0  0  2  0  0  0  0  0  0  0  0  0
   27.4202  -20.2494  -15.6226 N   0  0  0  0  0  0  0  0  0  0  0  0
   25.4003  -20.0632  -14.3665 C   0  0  0  0  0  0  0  0  0  0  0  0
   25.1705  -18.8770  -14.7928 O   0  0  0  0  0  0  0  0  0  0  0  0
   26.4816  -19.1448  -11.2766 C   0  0  0  0  0  0  0  0  0  0  0  0
   25.8286  -19.1862  -10.0409 C   0  0  0  0  0  0  0  0  0  0  0  0
   24.2681  -20.7932  -13.9214 N   0  0  0  0  0  0  0  0  0  0  0  0
   22.9214  -20.2072  -13.8798 C   0  0  1  0  0  0  0  0  0  0  0  0
   22.5806  -19.5983  -15.1960 C   0  0  0  0  0  0  0  0  0  0  0  0
   22.2278  -20.6200  -16.1947 C   0  0  0  0  0  0  0  0  0  0  0  0
   21.6318  -21.8574  -15.9528 C   0  0  0  0  0  0  0  0  0  0  0  0
   21.5070  -22.5146  -17.1100 N   0  0  0  0  0  0  0  0  0  0  0  0
   21.9982  -21.7579  -18.1152 C   0  0  0  0  0  0  0  0  0  0  0  0
   22.0918  -21.9622  -19.4859 C   0  0  0  0  0  0  0  0  0  0  0  0
   22.6222  -21.0276  -20.3454 C   0  0  0  0  0  0  0  0  0  0  0  0
   23.0664  -19.8537  -19.7739 C   0  0  0  0  0  0  0  0  0  0  0  0
   22.9879  -19.6238  -18.4240 C   0  0  0  0  0  0  0  0  0  0  0  0
   22.4459  -20.5895  -17.5749 C   0  0  0  0  0  0  0  0  0  0  0  0
   21.9219  -21.0731  -13.2725 C   0  0  0  0  0  0  0  0  0  0  0  0
   22.1296  -22.2903  -12.9880 O   0  0  0  0  0  0  0  0  0  0  0  0
   20.6226  -20.6379  -12.9409 O   0  0  0  0  0  0  0  0  0  0  0  0
  2  1  1  6
  3  2  1  0
  3  4  1  0
  4  8  1  0
  5  4  2  0
  6  2  1  0
  6  7  2  0
  9 10  1  0
 10 11  2  0
 11 12  1  0
 13 12  2  0
 13 14  1  0
 15 14  1  1
 15 16  1  0
 15 17  1  0
 16  6  1  0
 17 21  1  0
 18 17  2  0
 19 13  1  0
 20 10  1  0
 20 19  2  0
 21 22  1  0
 22 33  1  0
 22 23  1  6
 24 23  1  0
 24 32  1  0
 25 26  1  0
 25 24  2  0
 26 27  1  0
 27 32  2  0
 27 28  1  0
 28 29  2  0
 29 30  1  0
 31 30  2  0
 32 31  1  0
 33 34  2  0
 33 35  1  0
M  END
$$$$
