DYW.pdb
     RDKit          3D

 35 37  0  0  1  0  0  0  0  0999 V2000
   27.0474  -21.1821  -18.8345 N   0  0  0  0  0  0  0  0  0  0  0  0
   26.0619  -20.3323  -18.2444 C   0  0  1  0  0  0  0  0  0  0  0  0
   24.8529  -20.1015  -19.1253 C   0  0  0  0  0  0  0  0  0  0  0  0
   25.1645  -19.3123  -20.3320 C   0  0  0  0  0  0  0  0  0  0  0  0
   26.2912  -19.4432  -20.9020 O   0  0  0  0  0  0  0  0  0  0  0  0
   25.6490  -20.8732  -16.9077 C   0  0  0  0  0  0  0  0  0  0  0  0
   24.7748  -21.7664  -16.8392 O   0  0  0  0  0  0  0  0  0  0  0  0
   24.2224  -18.4292  -20.8387 O   0  0  0  0  0  0  0  0  0  0  0  0
   24.6837  -20.8446   -8.0343 O   0  0  0  0  0  0  0  0  0  0  0  0
   25.1823  -20.6940   -9.3206 C   0  0  0  0  0  0  0  0  0  0  0  0
   25.5049  -19.4747   -9.8783 C   0  0  0  0  0  0  0  0  0  0  0  0
   26.0045  -19.3854  -11.1831 C   0  0  0  0  0  0  0  0  0  0  0  0
   26.1845  -20.5329  -11.9426 C   0  0  0  0  0  0  0  0  0  0  0  0
   26.7064  -20.4525  -13.3030 C   0  0  0  0  0  0  0  0  0  0  0  0
   25.7404  -20.7809  -14.3843 C   0  0  2  0  0  0  0  0  0  0  0  0
   26.2216  -20.4022  -15.7001 N   0  0  0  0  0  0  0  0  0  0  0  0
   24.3730  -20.2417  -14.2004 C   0  0  0  0  0  0  0  0  0  0  0  0
   24.1541  -18.9888  -14.3555 O   0  0  0  0  0  0  0  0  0  0  0  0
   25.8631  -21.7460  -11.3861 C   0  0  0  0  0  0  0  0  0  0  0  0
   25.3635  -21.8468  -10.0842 C   0  0  0  0  0  0  0  0  0  0  0  0
   23.2454  -21.0311  -13.8569 N   0  0  0  0  0  0  0  0  0  0  0  0
   21.9925  -20.4411  -13.3663 C   0  0  1  0  0  0  0  0  0  0  0  0
   21.4837  -19.4280  -14.3329 C   0  0  0  0  0  0  0  0  0  0  0  0
   20.9948  -20.0535  -15.5719 C   0  0  0  0  0  0  0  0  0  0  0  0
   20.3261  -21.2719  -15.6880 C   0  0  0  0  0  0  0  0  0  0  0  0
   20.0808  -21.5129  -16.9797 N   0  0  0  0  0  0  0  0  0  0  0  0
   20.5619  -20.4972  -17.7287 C   0  0  0  0  0  0  0  0  0  0  0  0
   20.5537  -20.2520  -19.0959 C   0  0  0  0  0  0  0  0  0  0  0  0
   21.0960  -19.1171  -19.6540 C   0  0  0  0  0  0  0  0  0  0  0  0
   21.6602  -18.2142  -18.7774 C   0  0  0  0  0  0  0  0  0  0  0  0
   21.6839  -18.4291  -17.4230 C   0  0  0  0  0  0  0  0  0  0  0  0
   21.1272  -19.5896  -16.8837 C   0  0  0  0  0  0  0  0  0  0  0  0
   21.0370  -21.4193  -12.8688 C   0  0  0  0  0  0  0  0  0  0  0  0
   21.1751  -22.6704  -13.0152 O   0  0  0  0  0  0  0  0  0  0  0  0
   19.8625  -21.0667  -12.1732 O   0  0  0  0  0  0  0  0  0  0  0  0
  2  1  1  6
  3  2  1  0
  3  4  1  0
  4  8  1  0
  5  4  2  0
  6  2  1  0
  6  7  2  0
  9 10  1  0
 10 11  2  0
 11 12  1  0
 13 12  2  0
 13 14  1  0
 15 14  1  1
 15 16  1  0
 15 17  1  0
 16  6  1  0
 17 21  1  0
 18 17  2  0
 19 13  1  0
 20 10  1  0
 20 19  2  0
 21 22  1  0
 22 33  1  0
 22 23  1  6
 24 23  1  0
 24 32  1  0
 25 26  1  0
 25 24  2  0
 26 27  1  0
 27 32  2  0
 27 28  1  0
 28 29  2  0
 29 30  1  0
 31 30  2  0
 32 31  1  0
 33 34  2  0
 33 35  1  0
M  END
$$$$
