DYW.pdb
     RDKit          3D

 35 37  0  0  1  0  0  0  0  0999 V2000
   17.8136  -25.9278  -12.0835 N   0  0  0  0  0  0  0  0  0  0  0  0
   17.8858  -24.5836  -12.5625 C   0  0  1  0  0  0  0  0  0  0  0  0
   17.2622  -23.5709  -11.6264 C   0  0  0  0  0  0  0  0  0  0  0  0
   15.7922  -23.5160  -11.7372 C   0  0  0  0  0  0  0  0  0  0  0  0
   15.2057  -24.1095  -12.6939 O   0  0  0  0  0  0  0  0  0  0  0  0
   19.3091  -24.2203  -12.8653 C   0  0  0  0  0  0  0  0  0  0  0  0
   19.9770  -23.5671  -12.0321 O   0  0  0  0  0  0  0  0  0  0  0  0
   15.0568  -22.8145  -10.7931 O   0  0  0  0  0  0  0  0  0  0  0  0
   27.1778  -23.9749  -17.0538 O   0  0  0  0  0  0  0  0  0  0  0  0
   25.8601  -24.2306  -16.7014 C   0  0  0  0  0  0  0  0  0  0  0  0
   24.7743  -23.6813  -17.3501 C   0  0  0  0  0  0  0  0  0  0  0  0
   23.4660  -23.9769  -16.9484 C   0  0  0  0  0  0  0  0  0  0  0  0
   23.2395  -24.8350  -15.8815 C   0  0  0  0  0  0  0  0  0  0  0  0
   21.8804  -25.1521  -15.4551 C   0  0  0  0  0  0  0  0  0  0  0  0
   21.3101  -24.2644  -14.4077 C   0  0  2  0  0  0  0  0  0  0  0  0
   19.9356  -24.5955  -14.0797 N   0  0  0  0  0  0  0  0  0  0  0  0
   21.3998  -22.8125  -14.6870 C   0  0  0  0  0  0  0  0  0  0  0  0
   20.3347  -22.1397  -14.9206 O   0  0  0  0  0  0  0  0  0  0  0  0
   24.3214  -25.3813  -15.2368 C   0  0  0  0  0  0  0  0  0  0  0  0
   25.6320  -25.0931  -15.6295 C   0  0  0  0  0  0  0  0  0  0  0  0
   22.6149  -22.0806  -14.7144 N   0  0  0  0  0  0  0  0  0  0  0  0
   22.6489  -20.6179  -14.8488 C   0  0  1  0  0  0  0  0  0  0  0  0
   22.7615  -19.9771  -13.5086 C   0  0  0  0  0  0  0  0  0  0  0  0
   24.0408  -20.2984  -12.8560 C   0  0  0  0  0  0  0  0  0  0  0  0
   25.2657  -20.5289  -13.4816 C   0  0  0  0  0  0  0  0  0  0  0  0
   26.1800  -20.8262  -12.5530 N   0  0  0  0  0  0  0  0  0  0  0  0
   25.6075  -20.8010  -11.3300 C   0  0  0  0  0  0  0  0  0  0  0  0
   26.1094  -21.0161  -10.0528 C   0  0  0  0  0  0  0  0  0  0  0  0
   25.3346  -20.9173   -8.9199 C   0  0  0  0  0  0  0  0  0  0  0  0
   24.0092  -20.5882   -9.1122 C   0  0  0  0  0  0  0  0  0  0  0  0
   23.4850  -20.3708  -10.3608 C   0  0  0  0  0  0  0  0  0  0  0  0
   24.2934  -20.4785  -11.4932 C   0  0  0  0  0  0  0  0  0  0  0  0
   23.5516  -20.1436  -15.8869 C   0  0  0  0  0  0  0  0  0  0  0  0
   24.3458  -20.8987  -16.5231 O   0  0  0  0  0  0  0  0  0  0  0  0
   23.6279  -18.7935  -16.2857 O   0  0  0  0  0  0  0  0  0  0  0  0
  2  1  1  1
  3  2  1  0
  3  4  1  0
  4  8  1  0
  5  4  2  0
  6  2  1  0
  6  7  2  0
  9 10  1  0
 10 11  2  0
 11 12  1  0
 13 12  2  0
 13 14  1  0
 15 14  1  6
 15 16  1  0
 15 17  1  0
 16  6  1  0
 17 21  1  0
 18 17  2  0
 19 13  1  0
 20 10  1  0
 20 19  2  0
 21 22  1  0
 22 33  1  0
 22 23  1  1
 24 23  1  0
 24 32  1  0
 25 26  1  0
 25 24  2  0
 26 27  1  0
 27 32  2  0
 27 28  1  0
 28 29  2  0
 29 30  1  0
 31 30  2  0
 32 31  1  0
 33 34  2  0
 33 35  1  0
M  END
$$$$
