DYW.pdb
     RDKit          3D

 35 37  0  0  1  0  0  0  0  0999 V2000
   26.4339  -18.3012  -15.3550 N   0  0  0  0  0  0  0  0  0  0  0  0
   25.0499  -18.5790  -15.1338 C   0  0  1  0  0  0  0  0  0  0  0  0
   24.2654  -18.8090  -16.4076 C   0  0  0  0  0  0  0  0  0  0  0  0
   24.8598  -19.8498  -17.2676 C   0  0  0  0  0  0  0  0  0  0  0  0
   24.1108  -20.6801  -17.8683 O   0  0  0  0  0  0  0  0  0  0  0  0
   24.9009  -19.7443  -14.2013 C   0  0  0  0  0  0  0  0  0  0  0  0
   23.7608  -20.1068  -13.8330 O   0  0  0  0  0  0  0  0  0  0  0  0
   26.2375  -19.9158  -17.4157 O   0  0  0  0  0  0  0  0  0  0  0  0
   23.6532  -25.3467  -17.6228 O   0  0  0  0  0  0  0  0  0  0  0  0
   24.3359  -24.7604  -16.5664 C   0  0  0  0  0  0  0  0  0  0  0  0
   24.1068  -25.0688  -15.2420 C   0  0  0  0  0  0  0  0  0  0  0  0
   24.8280  -24.4428  -14.2181 C   0  0  0  0  0  0  0  0  0  0  0  0
   25.7935  -23.4937  -14.5228 C   0  0  0  0  0  0  0  0  0  0  0  0
   26.5529  -22.8361  -13.4644 C   0  0  0  0  0  0  0  0  0  0  0  0
   25.9155  -21.6340  -12.8654 C   0  0  2  0  0  0  0  0  0  0  0  0
   26.0218  -20.4614  -13.7140 N   0  0  0  0  0  0  0  0  0  0  0  0
   26.3765  -21.2826  -11.5022 C   0  0  0  0  0  0  0  0  0  0  0  0
   27.5818  -20.8894  -11.3169 O   0  0  0  0  0  0  0  0  0  0  0  0
   26.0207  -23.1878  -15.8417 C   0  0  0  0  0  0  0  0  0  0  0  0
   25.3063  -23.8066  -16.8721 C   0  0  0  0  0  0  0  0  0  0  0  0
   25.5592  -21.3462  -10.3443 N   0  0  0  0  0  0  0  0  0  0  0  0
   26.0664  -21.0181   -9.0049 C   0  0  1  0  0  0  0  0  0  0  0  0
   26.8884  -19.7766   -9.0521 C   0  0  0  0  0  0  0  0  0  0  0  0
   27.2977  -19.3419   -7.7070 C   0  0  0  0  0  0  0  0  0  0  0  0
   26.7582  -18.2907   -6.9660 C   0  0  0  0  0  0  0  0  0  0  0  0
   27.4216  -18.1870   -5.8102 N   0  0  0  0  0  0  0  0  0  0  0  0
   28.3838  -19.1331   -5.7545 C   0  0  0  0  0  0  0  0  0  0  0  0
   29.3226  -19.4627   -4.7851 C   0  0  0  0  0  0  0  0  0  0  0  0
   30.2138  -20.5009   -4.9316 C   0  0  0  0  0  0  0  0  0  0  0  0
   30.1324  -21.2153   -6.1085 C   0  0  0  0  0  0  0  0  0  0  0  0
   29.2169  -20.9130   -7.0839 C   0  0  0  0  0  0  0  0  0  0  0  0
   28.3250  -19.8539   -6.9096 C   0  0  0  0  0  0  0  0  0  0  0  0
   25.0603  -21.1062   -7.9573 C   0  0  0  0  0  0  0  0  0  0  0  0
   23.8428  -20.7988   -8.1278 O   0  0  0  0  0  0  0  0  0  0  0  0
   25.3455  -21.5444   -6.6480 O   0  0  0  0  0  0  0  0  0  0  0  0
  2  1  1  6
  3  2  1  0
  3  4  1  0
  4  8  1  0
  5  4  2  0
  6  2  1  0
  6  7  2  0
  9 10  1  0
 10 11  2  0
 11 12  1  0
 13 12  2  0
 13 14  1  0
 15 14  1  6
 15 16  1  0
 15 17  1  0
 16  6  1  0
 17 21  1  0
 18 17  2  0
 19 13  1  0
 20 10  1  0
 20 19  2  0
 21 22  1  0
 22 33  1  0
 22 23  1  6
 24 23  1  0
 24 32  1  0
 25 26  1  0
 25 24  2  0
 26 27  1  0
 27 32  2  0
 27 28  1  0
 28 29  2  0
 29 30  1  0
 31 30  2  0
 32 31  1  0
 33 34  2  0
 33 35  1  0
M  END
$$$$
