DYW.pdb
     RDKit          3D

 35 37  0  0  1  0  0  0  0  0999 V2000
   26.4639  -20.7585  -19.4699 N   0  0  0  0  0  0  0  0  0  0  0  0
   26.2988  -19.7359  -18.4857 C   0  0  1  0  0  0  0  0  0  0  0  0
   25.3031  -18.6669  -18.8817 C   0  0  0  0  0  0  0  0  0  0  0  0
   25.8784  -17.6539  -19.7868 C   0  0  0  0  0  0  0  0  0  0  0  0
   25.1854  -16.6497  -20.1370 O   0  0  0  0  0  0  0  0  0  0  0  0
   25.9264  -20.3455  -17.1669 C   0  0  0  0  0  0  0  0  0  0  0  0
   25.1224  -21.3041  -17.1275 O   0  0  0  0  0  0  0  0  0  0  0  0
   27.1767  -17.8045  -20.2515 O   0  0  0  0  0  0  0  0  0  0  0  0
   25.1532  -21.3073   -8.3375 O   0  0  0  0  0  0  0  0  0  0  0  0
   25.5789  -20.9332   -9.6042 C   0  0  0  0  0  0  0  0  0  0  0  0
   25.6060  -19.6278  -10.0479 C   0  0  0  0  0  0  0  0  0  0  0  0
   26.0462  -19.3114  -11.3388 C   0  0  0  0  0  0  0  0  0  0  0  0
   26.4660  -20.3155  -12.1998 C   0  0  0  0  0  0  0  0  0  0  0  0
   26.9288  -19.9977  -13.5467 C   0  0  0  0  0  0  0  0  0  0  0  0
   25.9599  -20.2677  -14.6415 C   0  0  2  0  0  0  0  0  0  0  0  0
   26.4600  -19.8681  -15.9441 N   0  0  0  0  0  0  0  0  0  0  0  0
   24.6081  -19.6932  -14.4501 C   0  0  0  0  0  0  0  0  0  0  0  0
   24.4518  -18.4217  -14.4261 O   0  0  0  0  0  0  0  0  0  0  0  0
   26.4387  -21.6146  -11.7567 C   0  0  0  0  0  0  0  0  0  0  0  0
   26.0010  -21.9419  -10.4698 C   0  0  0  0  0  0  0  0  0  0  0  0
   23.4298  -20.4667  -14.2885 N   0  0  0  0  0  0  0  0  0  0  0  0
   22.2560  -19.9684  -13.5587 C   0  0  1  0  0  0  0  0  0  0  0  0
   21.6858  -18.7764  -14.2469 C   0  0  0  0  0  0  0  0  0  0  0  0
   21.1185  -19.1239  -15.5596 C   0  0  0  0  0  0  0  0  0  0  0  0
   20.2293  -20.1610  -15.8400 C   0  0  0  0  0  0  0  0  0  0  0  0
   19.9770  -20.1758  -17.1526 N   0  0  0  0  0  0  0  0  0  0  0  0
   20.6664  -19.1840  -17.7568 C   0  0  0  0  0  0  0  0  0  0  0  0
   20.7433  -18.7629  -19.0783 C   0  0  0  0  0  0  0  0  0  0  0  0
   21.5107  -17.6926  -19.4772 C   0  0  0  0  0  0  0  0  0  0  0  0
   22.2155  -17.0423  -18.4861 C   0  0  0  0  0  0  0  0  0  0  0  0
   22.1602  -17.4354  -17.1732 C   0  0  0  0  0  0  0  0  0  0  0  0
   21.3742  -18.5252  -16.7964 C   0  0  0  0  0  0  0  0  0  0  0  0
   21.3233  -21.0125  -13.1620 C   0  0  0  0  0  0  0  0  0  0  0  0
   20.2789  -20.7958  -12.4780 O   0  0  0  0  0  0  0  0  0  0  0  0
   21.4935  -22.3699  -13.5029 O   0  0  0  0  0  0  0  0  0  0  0  0
  2  1  1  6
  3  2  1  0
  3  4  1  0
  4  8  1  0
  5  4  2  0
  6  2  1  0
  6  7  2  0
  9 10  1  0
 10 11  2  0
 11 12  1  0
 13 12  2  0
 13 14  1  0
 15 14  1  1
 15 16  1  0
 15 17  1  0
 16  6  1  0
 17 21  1  0
 18 17  2  0
 19 13  1  0
 20 10  1  0
 20 19  2  0
 21 22  1  0
 22 33  1  0
 22 23  1  6
 24 23  1  0
 24 32  1  0
 25 26  1  0
 25 24  2  0
 26 27  1  0
 27 32  2  0
 27 28  1  0
 28 29  2  0
 29 30  1  0
 31 30  2  0
 32 31  1  0
 33 34  2  0
 33 35  1  0
M  END
$$$$
