DYW.pdb
     RDKit          3D

 35 37  0  0  1  0  0  0  0  0999 V2000
   24.6403  -17.5270  -13.9889 N   0  0  0  0  0  0  0  0  0  0  0  0
   24.2417  -18.6217  -14.8161 C   0  0  1  0  0  0  0  0  0  0  0  0
   24.2509  -18.3002  -16.2951 C   0  0  0  0  0  0  0  0  0  0  0  0
   23.3159  -17.2167  -16.6526 C   0  0  0  0  0  0  0  0  0  0  0  0
   22.6881  -16.5943  -15.7416 O   0  0  0  0  0  0  0  0  0  0  0  0
   25.0942  -19.8218  -14.5287 C   0  0  0  0  0  0  0  0  0  0  0  0
   24.9105  -20.8843  -15.1645 O   0  0  0  0  0  0  0  0  0  0  0  0
   23.1270  -16.8828  -17.9857 O   0  0  0  0  0  0  0  0  0  0  0  0
   29.9854  -18.6890  -18.5832 O   0  0  0  0  0  0  0  0  0  0  0  0
   29.6009  -19.0845  -17.3098 C   0  0  0  0  0  0  0  0  0  0  0  0
   29.2091  -18.2063  -16.3215 C   0  0  0  0  0  0  0  0  0  0  0  0
   28.8318  -18.6653  -15.0537 C   0  0  0  0  0  0  0  0  0  0  0  0
   28.8464  -20.0236  -14.7693 C   0  0  0  0  0  0  0  0  0  0  0  0
   28.4533  -20.5139  -13.4523 C   0  0  0  0  0  0  0  0  0  0  0  0
   27.0254  -20.9024  -13.3091 C   0  0  2  0  0  0  0  0  0  0  0  0
   26.1166  -19.7963  -13.5479 N   0  0  0  0  0  0  0  0  0  0  0  0
   26.6680  -21.5478  -12.0246 C   0  0  0  0  0  0  0  0  0  0  0  0
   26.4725  -22.8132  -11.9779 O   0  0  0  0  0  0  0  0  0  0  0  0
   29.2364  -20.8967  -15.7542 C   0  0  0  0  0  0  0  0  0  0  0  0
   29.6152  -20.4493  -17.0236 C   0  0  0  0  0  0  0  0  0  0  0  0
   26.5225  -20.8515  -10.7971 N   0  0  0  0  0  0  0  0  0  0  0  0
   25.9742  -21.4884   -9.5919 C   0  0  1  0  0  0  0  0  0  0  0  0
   27.0247  -21.5997   -8.5414 C   0  0  0  0  0  0  0  0  0  0  0  0
   27.1410  -20.3624   -7.7530 C   0  0  0  0  0  0  0  0  0  0  0  0
   26.4985  -19.1491   -7.9986 C   0  0  0  0  0  0  0  0  0  0  0  0
   26.8892  -18.2564   -7.0836 N   0  0  0  0  0  0  0  0  0  0  0  0
   27.7690  -18.8326   -6.2362 C   0  0  0  0  0  0  0  0  0  0  0  0
   28.4493  -18.3578   -5.1221 C   0  0  0  0  0  0  0  0  0  0  0  0
   29.3011  -19.1414   -4.3777 C   0  0  0  0  0  0  0  0  0  0  0  0
   29.4530  -20.4470   -4.7953 C   0  0  0  0  0  0  0  0  0  0  0  0
   28.7953  -20.9438   -5.8916 C   0  0  0  0  0  0  0  0  0  0  0  0
   27.9376  -20.1266   -6.6292 C   0  0  0  0  0  0  0  0  0  0  0  0
   24.6824  -20.9582   -9.1825 C   0  0  0  0  0  0  0  0  0  0  0  0
   24.1326  -19.9549   -9.7274 O   0  0  0  0  0  0  0  0  0  0  0  0
   23.9164  -21.5131   -8.1371 O   0  0  0  0  0  0  0  0  0  0  0  0
  2  1  1  1
  3  2  1  0
  3  4  1  0
  4  8  1  0
  5  4  2  0
  6  2  1  0
  6  7  2  0
  9 10  1  0
 10 11  2  0
 11 12  1  0
 13 12  2  0
 13 14  1  0
 15 14  1  1
 15 16  1  0
 15 17  1  0
 16  6  1  0
 17 21  1  0
 18 17  2  0
 19 13  1  0
 20 10  1  0
 20 19  2  0
 21 22  1  0
 22 33  1  0
 22 23  1  1
 24 23  1  0
 24 32  1  0
 25 26  1  0
 25 24  2  0
 26 27  1  0
 27 32  2  0
 27 28  1  0
 28 29  2  0
 29 30  1  0
 31 30  2  0
 32 31  1  0
 33 34  2  0
 33 35  1  0
M  END
$$$$
