DYW.pdb
     RDKit          3D

 35 37  0  0  1  0  0  0  0  0999 V2000
   28.3695  -23.5051  -17.4624 N   0  0  0  0  0  0  0  0  0  0  0  0
   27.3583  -22.6212  -17.9499 C   0  0  1  0  0  0  0  0  0  0  0  0
   26.4224  -23.2626  -18.9517 C   0  0  0  0  0  0  0  0  0  0  0  0
   27.1356  -23.9484  -20.0458 C   0  0  0  0  0  0  0  0  0  0  0  0
   27.9658  -23.3079  -20.7613 O   0  0  0  0  0  0  0  0  0  0  0  0
   26.5882  -22.0369  -16.8030 C   0  0  0  0  0  0  0  0  0  0  0  0
   26.3327  -22.7409  -15.8001 O   0  0  0  0  0  0  0  0  0  0  0  0
   26.8949  -25.2930  -20.2875 O   0  0  0  0  0  0  0  0  0  0  0  0
   30.1372  -16.4663  -18.2176 O   0  0  0  0  0  0  0  0  0  0  0  0
   29.2215  -17.1331  -17.4160 C   0  0  0  0  0  0  0  0  0  0  0  0
   29.5382  -18.2291  -16.6413 C   0  0  0  0  0  0  0  0  0  0  0  0
   28.5699  -18.8613  -15.8519 C   0  0  0  0  0  0  0  0  0  0  0  0
   27.2645  -18.3906  -15.8366 C   0  0  0  0  0  0  0  0  0  0  0  0
   26.2472  -19.0400  -15.0163 C   0  0  0  0  0  0  0  0  0  0  0  0
   25.4330  -20.0781  -15.7015 C   0  0  2  0  0  0  0  0  0  0  0  0
   26.1320  -20.6954  -16.8136 N   0  0  0  0  0  0  0  0  0  0  0  0
   24.0961  -19.6363  -16.1615 C   0  0  0  0  0  0  0  0  0  0  0  0
   23.9862  -18.9424  -17.2330 O   0  0  0  0  0  0  0  0  0  0  0  0
   26.9506  -17.2994  -16.6082 C   0  0  0  0  0  0  0  0  0  0  0  0
   27.9095  -16.6604  -17.4002 C   0  0  0  0  0  0  0  0  0  0  0  0
   22.8837  -19.9336  -15.4874 N   0  0  0  0  0  0  0  0  0  0  0  0
   21.5755  -19.4941  -15.9914 C   0  0  1  0  0  0  0  0  0  0  0  0
   21.4830  -19.7228  -17.4606 C   0  0  0  0  0  0  0  0  0  0  0  0
   21.5334  -21.1554  -17.7939 C   0  0  0  0  0  0  0  0  0  0  0  0
   21.0977  -22.2160  -17.0001 C   0  0  0  0  0  0  0  0  0  0  0  0
   21.3470  -23.3659  -17.6343 N   0  0  0  0  0  0  0  0  0  0  0  0
   21.9329  -23.1087  -18.8237 C   0  0  0  0  0  0  0  0  0  0  0  0
   22.3708  -23.9322  -19.8530 C   0  0  0  0  0  0  0  0  0  0  0  0
   22.9331  -23.4451  -21.0107 C   0  0  0  0  0  0  0  0  0  0  0  0
   23.0453  -22.0739  -21.1062 C   0  0  0  0  0  0  0  0  0  0  0  0
   22.6228  -21.2356  -20.1062 C   0  0  0  0  0  0  0  0  0  0  0  0
   22.0566  -21.7567  -18.9420 C   0  0  0  0  0  0  0  0  0  0  0  0
   20.4527  -19.9400  -15.1803 C   0  0  0  0  0  0  0  0  0  0  0  0
   19.2554  -19.5770  -15.3815 O   0  0  0  0  0  0  0  0  0  0  0  0
   20.5907  -20.8226  -14.0896 O   0  0  0  0  0  0  0  0  0  0  0  0
  2  1  1  1
  3  2  1  0
  3  4  1  0
  4  8  1  0
  5  4  2  0
  6  2  1  0
  6  7  2  0
  9 10  1  0
 10 11  2  0
 11 12  1  0
 13 12  2  0
 13 14  1  0
 15 14  1  6
 15 16  1  0
 15 17  1  0
 16  6  1  0
 17 21  1  0
 18 17  2  0
 19 13  1  0
 20 10  1  0
 20 19  2  0
 21 22  1  0
 22 33  1  0
 22 23  1  6
 24 23  1  0
 24 32  1  0
 25 26  1  0
 25 24  2  0
 26 27  1  0
 27 32  2  0
 27 28  1  0
 28 29  2  0
 29 30  1  0
 31 30  2  0
 32 31  1  0
 33 34  2  0
 33 35  1  0
M  END
$$$$
