DYW.pdb
     RDKit          3D

 35 37  0  0  1  0  0  0  0  0999 V2000
   24.1013   -6.9743  -21.3173 N   0  0  0  0  0  0  0  0  0  0  0  0
   24.3604   -7.3989  -19.9778 C   0  0  1  0  0  0  0  0  0  0  0  0
   25.0997   -6.3720  -19.1473 C   0  0  0  0  0  0  0  0  0  0  0  0
   26.4936   -6.1737  -19.5875 C   0  0  0  0  0  0  0  0  0  0  0  0
   27.0047   -5.0118  -19.5710 O   0  0  0  0  0  0  0  0  0  0  0  0
   23.0801   -7.8010  -19.3080 C   0  0  0  0  0  0  0  0  0  0  0  0
   22.0123   -7.2177  -19.6021 O   0  0  0  0  0  0  0  0  0  0  0  0
   27.2404   -7.2605  -20.0180 O   0  0  0  0  0  0  0  0  0  0  0  0
   17.0689  -12.7633  -15.0847 O   0  0  0  0  0  0  0  0  0  0  0  0
   18.2048  -12.2828  -15.7206 C   0  0  0  0  0  0  0  0  0  0  0  0
   19.4802  -12.4173  -15.2137 C   0  0  0  0  0  0  0  0  0  0  0  0
   20.5894  -11.9108  -15.9018 C   0  0  0  0  0  0  0  0  0  0  0  0
   20.4212  -11.2595  -17.1156 C   0  0  0  0  0  0  0  0  0  0  0  0
   21.5698  -10.7293  -17.8428 C   0  0  0  0  0  0  0  0  0  0  0  0
   21.8114   -9.2703  -17.6905 C   0  0  2  0  0  0  0  0  0  0  0  0
   23.0343   -8.8337  -18.3388 N   0  0  0  0  0  0  0  0  0  0  0  0
   21.8009   -8.7661  -16.2977 C   0  0  0  0  0  0  0  0  0  0  0  0
   22.8489   -8.8792  -15.5694 O   0  0  0  0  0  0  0  0  0  0  0  0
   19.1510  -11.1265  -17.6192 C   0  0  0  0  0  0  0  0  0  0  0  0
   18.0364  -11.6284  -16.9405 C   0  0  0  0  0  0  0  0  0  0  0  0
   20.6833   -8.1429  -15.6849 N   0  0  0  0  0  0  0  0  0  0  0  0
   20.6900   -7.7263  -14.2760 C   0  0  1  0  0  0  0  0  0  0  0  0
   21.9542   -7.0066  -13.9546 C   0  0  0  0  0  0  0  0  0  0  0  0
   21.9405   -5.6260  -14.4640 C   0  0  0  0  0  0  0  0  0  0  0  0
   20.8471   -4.7616  -14.5122 C   0  0  0  0  0  0  0  0  0  0  0  0
   21.2263   -3.6105  -15.0762 N   0  0  0  0  0  0  0  0  0  0  0  0
   22.5346   -3.6772  -15.4048 C   0  0  0  0  0  0  0  0  0  0  0  0
   23.4045   -2.7651  -15.9886 C   0  0  0  0  0  0  0  0  0  0  0  0
   24.7326   -3.0423  -16.2187 C   0  0  0  0  0  0  0  0  0  0  0  0
   25.1716   -4.2924  -15.8361 C   0  0  0  0  0  0  0  0  0  0  0  0
   24.3362   -5.2141  -15.2584 C   0  0  0  0  0  0  0  0  0  0  0  0
   22.9930   -4.9069  -15.0372 C   0  0  0  0  0  0  0  0  0  0  0  0
   19.4471   -7.1077  -13.8399 C   0  0  0  0  0  0  0  0  0  0  0  0
   18.5728   -6.6545  -14.6373 O   0  0  0  0  0  0  0  0  0  0  0  0
   19.0959   -6.9540  -12.4831 O   0  0  0  0  0  0  0  0  0  0  0  0
  2  1  1  6
  3  2  1  0
  3  4  1  0
  4  8  1  0
  5  4  2  0
  6  2  1  0
  6  7  2  0
  9 10  1  0
 10 11  2  0
 11 12  1  0
 13 12  2  0
 13 14  1  0
 15 14  1  1
 15 16  1  0
 15 17  1  0
 16  6  1  0
 17 21  1  0
 18 17  2  0
 19 13  1  0
 20 10  1  0
 20 19  2  0
 21 22  1  0
 22 33  1  0
 22 23  1  6
 24 23  1  0
 24 32  1  0
 25 26  1  0
 25 24  2  0
 26 27  1  0
 27 32  2  0
 27 28  1  0
 28 29  2  0
 29 30  1  0
 31 30  2  0
 32 31  1  0
 33 34  2  0
 33 35  1  0
M  END
$$$$
