DYW.pdb
     RDKit          3D

 35 37  0  0  1  0  0  0  0  0999 V2000
   23.8597  -32.5206  -12.9664 N   0  0  0  0  0  0  0  0  0  0  0  0
   23.1343  -31.8633  -14.0072 C   0  0  1  0  0  0  0  0  0  0  0  0
   23.0527  -32.6635  -15.2894 C   0  0  0  0  0  0  0  0  0  0  0  0
   24.1099  -32.3091  -16.2552 C   0  0  0  0  0  0  0  0  0  0  0  0
   24.9911  -31.4500  -15.9441 O   0  0  0  0  0  0  0  0  0  0  0  0
   21.7633  -31.4927  -13.5249 C   0  0  0  0  0  0  0  0  0  0  0  0
   20.9809  -30.8760  -14.2828 O   0  0  0  0  0  0  0  0  0  0  0  0
   24.1357  -32.9181  -17.5013 O   0  0  0  0  0  0  0  0  0  0  0  0
   17.5054  -36.5322  -14.8432 O   0  0  0  0  0  0  0  0  0  0  0  0
   17.8927  -35.5538  -13.9386 C   0  0  0  0  0  0  0  0  0  0  0  0
   17.0805  -34.5112  -13.5447 C   0  0  0  0  0  0  0  0  0  0  0  0
   17.5275  -33.5526  -12.6274 C   0  0  0  0  0  0  0  0  0  0  0  0
   18.8064  -33.6372  -12.0953 C   0  0  0  0  0  0  0  0  0  0  0  0
   19.2825  -32.6452  -11.1369 C   0  0  0  0  0  0  0  0  0  0  0  0
   19.9964  -31.4780  -11.7186 C   0  0  2  0  0  0  0  0  0  0  0  0
   21.3141  -31.8204  -12.2215 N   0  0  0  0  0  0  0  0  0  0  0  0
   20.1139  -30.2978  -10.8312 C   0  0  0  0  0  0  0  0  0  0  0  0
   20.6912  -30.4093   -9.6928 O   0  0  0  0  0  0  0  0  0  0  0  0
   19.6138  -34.6757  -12.4881 C   0  0  0  0  0  0  0  0  0  0  0  0
   19.1778  -35.6385  -13.4035 C   0  0  0  0  0  0  0  0  0  0  0  0
   19.6229  -29.0066  -11.1544 N   0  0  0  0  0  0  0  0  0  0  0  0
   19.7849  -27.8559  -10.2553 C   0  0  1  0  0  0  0  0  0  0  0  0
   20.5635  -26.7786  -10.9280 C   0  0  0  0  0  0  0  0  0  0  0  0
   19.7117  -25.9518  -11.7978 C   0  0  0  0  0  0  0  0  0  0  0  0
   18.9512  -24.8457  -11.4191 C   0  0  0  0  0  0  0  0  0  0  0  0
   18.2870  -24.3882  -12.4851 N   0  0  0  0  0  0  0  0  0  0  0  0
   18.5790  -25.1501  -13.5613 C   0  0  0  0  0  0  0  0  0  0  0  0
   18.1765  -25.0938  -14.8896 C   0  0  0  0  0  0  0  0  0  0  0  0
   18.6237  -25.9793  -15.8432 C   0  0  0  0  0  0  0  0  0  0  0  0
   19.5082  -26.9461  -15.4131 C   0  0  0  0  0  0  0  0  0  0  0  0
   19.9230  -27.0272  -14.1083 C   0  0  0  0  0  0  0  0  0  0  0  0
   19.4528  -26.1164  -13.1614 C   0  0  0  0  0  0  0  0  0  0  0  0
   18.5589  -27.4619   -9.5777 C   0  0  0  0  0  0  0  0  0  0  0  0
   17.4005  -27.7573   -9.9978 O   0  0  0  0  0  0  0  0  0  0  0  0
   18.5434  -26.7116   -8.3842 O   0  0  0  0  0  0  0  0  0  0  0  0
  2  1  1  1
  3  2  1  0
  3  4  1  0
  4  8  1  0
  5  4  2  0
  6  2  1  0
  6  7  2  0
  9 10  1  0
 10 11  2  0
 11 12  1  0
 13 12  2  0
 13 14  1  0
 15 14  1  1
 15 16  1  0
 15 17  1  0
 16  6  1  0
 17 21  1  0
 18 17  2  0
 19 13  1  0
 20 10  1  0
 20 19  2  0
 21 22  1  0
 22 33  1  0
 22 23  1  6
 24 23  1  0
 24 32  1  0
 25 26  1  0
 25 24  2  0
 26 27  1  0
 27 32  2  0
 27 28  1  0
 28 29  2  0
 29 30  1  0
 31 30  2  0
 32 31  1  0
 33 34  2  0
 33 35  1  0
M  END
$$$$
