ANW.pdb
     RDKit          3D

 28 29  0  0  1  0  0  0  0  0999 V2000
   26.7919  -24.8847  -18.1089 C   0  0  0  0  0  0  0  0  0  0  0  0
   28.1241  -24.1853  -17.9694 C   0  0  2  0  0  0  0  0  0  0  0  0
   29.2468  -25.0767  -18.0254 N   0  0  0  0  0  0  0  0  0  0  0  0
   28.1733  -23.3560  -16.7341 C   0  0  0  0  0  0  0  0  0  0  0  0
   29.2132  -23.4270  -16.0382 O   0  0  0  0  0  0  0  0  0  0  0  0
   28.7117  -19.2824  -13.6008 N   0  0  0  0  0  0  0  0  0  0  0  0
   28.0875  -19.1968  -14.8707 C   0  0  0  0  0  0  0  0  0  0  0  0
   27.5703  -18.0863  -15.1882 O   0  0  0  0  0  0  0  0  0  0  0  0
   28.0223  -20.3316  -15.8096 C   0  0  0  0  0  0  0  0  0  0  0  0
   27.3883  -21.5776  -15.2180 C   0  0  2  0  0  0  0  0  0  0  0  0
   27.1277  -22.5170  -16.3252 N   0  0  0  0  0  0  0  0  0  0  0  0
   26.1305  -21.3627  -14.5211 C   0  0  0  0  0  0  0  0  0  0  0  0
   25.4281  -20.3213  -14.7965 O   0  0  0  0  0  0  0  0  0  0  0  0
   25.5411  -22.1946  -13.5281 N   0  0  0  0  0  0  0  0  0  0  0  0
   25.3639  -21.7241  -12.1467 C   0  0  1  0  0  0  0  0  0  0  0  0
   26.7260  -21.3722  -11.5770 C   0  0  0  0  0  0  0  0  0  0  0  0
   26.5641  -20.8099  -10.2365 C   0  0  0  0  0  0  0  0  0  0  0  0
   25.4203  -20.2663   -9.6595 C   0  0  0  0  0  0  0  0  0  0  0  0
   25.7646  -19.8852   -8.4192 N   0  0  0  0  0  0  0  0  0  0  0  0
   27.0515  -20.1399   -8.1426 C   0  0  0  0  0  0  0  0  0  0  0  0
   27.8580  -19.9346   -7.0219 C   0  0  0  0  0  0  0  0  0  0  0  0
   29.1678  -20.3032   -7.0242 C   0  0  0  0  0  0  0  0  0  0  0  0
   29.6921  -20.8883   -8.1605 C   0  0  0  0  0  0  0  0  0  0  0  0
   28.9052  -21.0970   -9.2753 C   0  0  0  0  0  0  0  0  0  0  0  0
   27.5628  -20.7251   -9.2887 C   0  0  0  0  0  0  0  0  0  0  0  0
   24.5317  -20.5098  -12.1879 C   0  0  0  0  0  0  0  0  0  0  0  0
   24.8388  -19.5595  -12.9224 O   0  0  0  0  0  0  0  0  0  0  0  0
   23.3969  -20.4321  -11.3985 O   0  0  0  0  0  0  0  0  0  0  0  0
  2  4  1  0
  2  1  1  1
  3  2  1  0
  4  5  2  0
  6  7  1  0
  7  9  1  0
  8  7  2  0
 10  9  1  6
 10 12  1  0
 11 10  1  0
 11  4  1  0
 12 13  2  0
 12 14  1  0
 14 15  1  0
 15 26  1  0
 15 16  1  6
 17 18  2  0
 17 16  1  0
 19 18  1  0
 20 25  2  0
 20 19  1  0
 21 20  1  0
 22 23  1  0
 22 21  2  0
 23 24  2  0
 24 25  1  0
 25 17  1  0
 26 28  1  0
 27 26  2  0
M  END
$$$$
