ANW.pdb
     RDKit          3D

 28 29  0  0  1  0  0  0  0  0999 V2000
   20.0943   -8.6188  -20.3405 C   0  0  0  0  0  0  0  0  0  0  0  0
   19.5856   -9.0425  -18.9821 C   0  0  2  0  0  0  0  0  0  0  0  0
   18.3064   -9.6905  -19.0269 N   0  0  0  0  0  0  0  0  0  0  0  0
   19.5608   -7.8967  -18.0319 C   0  0  0  0  0  0  0  0  0  0  0  0
   18.5561   -7.1483  -18.0639 O   0  0  0  0  0  0  0  0  0  0  0  0
   19.1488   -8.2242  -14.3549 N   0  0  0  0  0  0  0  0  0  0  0  0
   20.4069   -7.6648  -14.0174 C   0  0  0  0  0  0  0  0  0  0  0  0
   20.8788   -7.9460  -12.8773 O   0  0  0  0  0  0  0  0  0  0  0  0
   21.1640   -6.7873  -14.9286 C   0  0  0  0  0  0  0  0  0  0  0  0
   20.4310   -6.4700  -16.2196 C   0  0  2  0  0  0  0  0  0  0  0  0
   20.5921   -7.6256  -17.1224 N   0  0  0  0  0  0  0  0  0  0  0  0
   20.9039   -5.2917  -16.9281 C   0  0  0  0  0  0  0  0  0  0  0  0
   21.8278   -5.4181  -17.8137 O   0  0  0  0  0  0  0  0  0  0  0  0
   20.4555   -3.9506  -16.7677 N   0  0  0  0  0  0  0  0  0  0  0  0
   20.9751   -2.8667  -17.6142 C   0  0  1  0  0  0  0  0  0  0  0  0
   20.6369   -3.1783  -19.0606 C   0  0  0  0  0  0  0  0  0  0  0  0
   21.7556   -3.8871  -19.6817 C   0  0  0  0  0  0  0  0  0  0  0  0
   23.1179   -3.7242  -19.4495 C   0  0  0  0  0  0  0  0  0  0  0  0
   23.7474   -4.5956  -20.2536 N   0  0  0  0  0  0  0  0  0  0  0  0
   22.8953   -5.3171  -20.9958 C   0  0  0  0  0  0  0  0  0  0  0  0
   23.0579   -6.3202  -21.9528 C   0  0  0  0  0  0  0  0  0  0  0  0
   21.9819   -6.8895  -22.5608 C   0  0  0  0  0  0  0  0  0  0  0  0
   20.7164   -6.4572  -22.2145 C   0  0  0  0  0  0  0  0  0  0  0  0
   20.5421   -5.4661  -21.2696 C   0  0  0  0  0  0  0  0  0  0  0  0
   21.6333   -4.8734  -20.6384 C   0  0  0  0  0  0  0  0  0  0  0  0
   20.2952   -1.6216  -17.2190 C   0  0  0  0  0  0  0  0  0  0  0  0
   19.4593   -1.6226  -16.3034 O   0  0  0  0  0  0  0  0  0  0  0  0
   20.5949   -0.4411  -17.8774 O   0  0  0  0  0  0  0  0  0  0  0  0
  2  4  1  0
  2  1  1  6
  3  2  1  0
  4  5  2  0
  6  7  1  0
  7  9  1  0
  8  7  2  0
 10  9  1  1
 10 12  1  0
 11 10  1  0
 11  4  1  0
 12 13  2  0
 12 14  1  0
 14 15  1  0
 15 26  1  0
 15 16  1  6
 17 18  2  0
 17 16  1  0
 19 18  1  0
 20 25  2  0
 20 19  1  0
 21 20  1  0
 22 23  1  0
 22 21  2  0
 23 24  2  0
 24 25  1  0
 25 17  1  0
 26 28  1  0
 27 26  2  0
M  END
$$$$
