ANW.pdb
     RDKit          3D

 28 29  0  0  1  0  0  0  0  0999 V2000
   28.2246  -18.1287  -15.3850 C   0  0  0  0  0  0  0  0  0  0  0  0
   26.9212  -18.8117  -15.7281 C   0  0  2  0  0  0  0  0  0  0  0  0
   26.2608  -18.2444  -16.8684 N   0  0  0  0  0  0  0  0  0  0  0  0
   26.0046  -18.8492  -14.5554 C   0  0  0  0  0  0  0  0  0  0  0  0
   25.9034  -17.8020  -13.8746 O   0  0  0  0  0  0  0  0  0  0  0  0
   22.5274  -20.1312  -10.8490 N   0  0  0  0  0  0  0  0  0  0  0  0
   22.2193  -20.7027  -12.1092 C   0  0  0  0  0  0  0  0  0  0  0  0
   21.1201  -21.3215  -12.2113 O   0  0  0  0  0  0  0  0  0  0  0  0
   23.1160  -20.6029  -13.2751 C   0  0  0  0  0  0  0  0  0  0  0  0
   24.4277  -19.8988  -12.9778 C   0  0  2  0  0  0  0  0  0  0  0  0
   25.2661  -19.9825  -14.1888 N   0  0  0  0  0  0  0  0  0  0  0  0
   25.1945  -20.4552  -11.8750 C   0  0  0  0  0  0  0  0  0  0  0  0
   25.7157  -21.6245  -11.9974 O   0  0  0  0  0  0  0  0  0  0  0  0
   25.4627  -19.8466  -10.6168 N   0  0  0  0  0  0  0  0  0  0  0  0
   26.3224  -20.5023   -9.6207 C   0  0  1  0  0  0  0  0  0  0  0  0
   27.2846  -19.4716   -9.0590 C   0  0  0  0  0  0  0  0  0  0  0  0
   28.2046  -20.1205   -8.1252 C   0  0  0  0  0  0  0  0  0  0  0  0
   29.0348  -21.2146   -8.3495 C   0  0  0  0  0  0  0  0  0  0  0  0
   29.6864  -21.4397   -7.1976 N   0  0  0  0  0  0  0  0  0  0  0  0
   29.3425  -20.5721   -6.2352 C   0  0  0  0  0  0  0  0  0  0  0  0
   29.7309  -20.3998   -4.9055 C   0  0  0  0  0  0  0  0  0  0  0  0
   29.1999  -19.4054   -4.1436 C   0  0  0  0  0  0  0  0  0  0  0  0
   28.2635  -18.5619   -4.7094 C   0  0  0  0  0  0  0  0  0  0  0  0
   27.8709  -18.7215   -6.0232 C   0  0  0  0  0  0  0  0  0  0  0  0
   28.4051  -19.7347   -6.8160 C   0  0  0  0  0  0  0  0  0  0  0  0
   25.4582  -20.9952   -8.5349 C   0  0  0  0  0  0  0  0  0  0  0  0
   24.4366  -20.3726   -8.2099 O   0  0  0  0  0  0  0  0  0  0  0  0
   25.7922  -22.1648   -7.8736 O   0  0  0  0  0  0  0  0  0  0  0  0
  2  4  1  0
  2  1  1  1
  3  2  1  0
  4  5  2  0
  6  7  1  0
  7  9  1  0
  8  7  2  0
 10  9  1  6
 10 12  1  0
 11 10  1  0
 11  4  1  0
 12 13  2  0
 12 14  1  0
 14 15  1  0
 15 26  1  0
 15 16  1  1
 17 18  2  0
 17 16  1  0
 19 18  1  0
 20 25  2  0
 20 19  1  0
 21 20  1  0
 22 23  1  0
 22 21  2  0
 23 24  2  0
 24 25  1  0
 25 17  1  0
 26 28  1  0
 27 26  2  0
M  END
$$$$
