ANW.pdb
     RDKit          3D

 28 29  0  0  1  0  0  0  0  0999 V2000
   23.0441  -26.8521  -15.6650 C   0  0  0  0  0  0  0  0  0  0  0  0
   24.0974  -26.1265  -16.4696 C   0  0  2  0  0  0  0  0  0  0  0  0
   25.0181  -27.0055  -17.1314 N   0  0  0  0  0  0  0  0  0  0  0  0
   24.8275  -25.1333  -15.6348 C   0  0  0  0  0  0  0  0  0  0  0  0
   25.2360  -25.5177  -14.5142 O   0  0  0  0  0  0  0  0  0  0  0  0
   28.4394  -23.6529  -16.0199 N   0  0  0  0  0  0  0  0  0  0  0  0
   27.9156  -22.3849  -16.3769 C   0  0  0  0  0  0  0  0  0  0  0  0
   28.6494  -21.6329  -17.0823 O   0  0  0  0  0  0  0  0  0  0  0  0
   26.5776  -21.9252  -15.9626 C   0  0  0  0  0  0  0  0  0  0  0  0
   25.8185  -22.9353  -15.1212 C   0  0  2  0  0  0  0  0  0  0  0  0
   25.0718  -23.8144  -16.0409 N   0  0  0  0  0  0  0  0  0  0  0  0
   24.8621  -22.3686  -14.1841 C   0  0  0  0  0  0  0  0  0  0  0  0
   23.6329  -22.2402  -14.5396 O   0  0  0  0  0  0  0  0  0  0  0  0
   25.1162  -21.9184  -12.8582 N   0  0  0  0  0  0  0  0  0  0  0  0
   24.0643  -21.2766  -12.0564 C   0  0  1  0  0  0  0  0  0  0  0  0
   24.6235  -20.9742  -10.6782 C   0  0  0  0  0  0  0  0  0  0  0  0
   26.0850  -20.9640  -10.7357 C   0  0  0  0  0  0  0  0  0  0  0  0
   26.9066  -21.0493  -11.8557 C   0  0  0  0  0  0  0  0  0  0  0  0
   28.1700  -20.9981  -11.4050 N   0  0  0  0  0  0  0  0  0  0  0  0
   28.2350  -20.8857  -10.0706 C   0  0  0  0  0  0  0  0  0  0  0  0
   29.2879  -20.7982   -9.1584 C   0  0  0  0  0  0  0  0  0  0  0  0
   29.0507  -20.6888   -7.8230 C   0  0  0  0  0  0  0  0  0  0  0  0
   27.7425  -20.6654   -7.3796 C   0  0  0  0  0  0  0  0  0  0  0  0
   26.6924  -20.7510   -8.2714 C   0  0  0  0  0  0  0  0  0  0  0  0
   26.9187  -20.8636   -9.6413 C   0  0  0  0  0  0  0  0  0  0  0  0
   23.7037  -20.0108  -12.7172 C   0  0  0  0  0  0  0  0  0  0  0  0
   22.7728  -19.3161  -12.2840 O   0  0  0  0  0  0  0  0  0  0  0  0
   24.4128  -19.5957  -13.8315 O   0  0  0  0  0  0  0  0  0  0  0  0
  2  4  1  0
  2  1  1  1
  3  2  1  0
  4  5  2  0
  6  7  1  0
  7  9  1  0
  8  7  2  0
 10  9  1  6
 10 12  1  0
 11 10  1  0
 11  4  1  0
 12 13  2  0
 12 14  1  0
 14 15  1  0
 15 26  1  0
 15 16  1  1
 17 18  2  0
 17 16  1  0
 19 18  1  0
 20 25  2  0
 20 19  1  0
 21 20  1  0
 22 23  1  0
 22 21  2  0
 23 24  2  0
 24 25  1  0
 25 17  1  0
 26 28  1  0
 27 26  2  0
M  END
$$$$
