ANW.pdb
     RDKit          3D

 28 29  0  0  1  0  0  0  0  0999 V2000
   29.4491  -21.9404  -15.4471 C   0  0  0  0  0  0  0  0  0  0  0  0
   28.1099  -21.5650  -16.0378 C   0  0  2  0  0  0  0  0  0  0  0  0
   28.2122  -20.8155  -17.2568 N   0  0  0  0  0  0  0  0  0  0  0  0
   27.2645  -20.8435  -15.0472 C   0  0  0  0  0  0  0  0  0  0  0  0
   27.7744  -19.8531  -14.4733 O   0  0  0  0  0  0  0  0  0  0  0  0
   23.5693  -17.7782  -13.9113 N   0  0  0  0  0  0  0  0  0  0  0  0
   23.1420  -19.0922  -13.5946 C   0  0  0  0  0  0  0  0  0  0  0  0
   22.1515  -19.2071  -12.8153 O   0  0  0  0  0  0  0  0  0  0  0  0
   23.7982  -20.2990  -14.1298 C   0  0  0  0  0  0  0  0  0  0  0  0
   25.2432  -20.4535  -13.6909 C   0  0  2  0  0  0  0  0  0  0  0  0
   25.9501  -21.2177  -14.7362 N   0  0  0  0  0  0  0  0  0  0  0  0
   25.4377  -21.1522  -12.4307 C   0  0  0  0  0  0  0  0  0  0  0  0
   25.2558  -22.4244  -12.3816 O   0  0  0  0  0  0  0  0  0  0  0  0
   25.8260  -20.5890  -11.1828 N   0  0  0  0  0  0  0  0  0  0  0  0
   25.9386  -21.4183   -9.9742 C   0  0  1  0  0  0  0  0  0  0  0  0
   27.2062  -21.0281   -9.2362 C   0  0  0  0  0  0  0  0  0  0  0  0
   26.8644  -20.5564   -7.8945 C   0  0  0  0  0  0  0  0  0  0  0  0
   25.6230  -20.5640   -7.2658 C   0  0  0  0  0  0  0  0  0  0  0  0
   25.8103  -20.0311   -6.0481 N   0  0  0  0  0  0  0  0  0  0  0  0
   27.0850  -19.6747   -5.8343 C   0  0  0  0  0  0  0  0  0  0  0  0
   27.7590  -19.0959   -4.7576 C   0  0  0  0  0  0  0  0  0  0  0  0
   29.0938  -18.8397   -4.8224 C   0  0  0  0  0  0  0  0  0  0  0  0
   29.7777  -19.1635   -5.9782 C   0  0  0  0  0  0  0  0  0  0  0  0
   29.1230  -19.7364   -7.0500 C   0  0  0  0  0  0  0  0  0  0  0  0
   27.7570  -20.0046   -6.9991 C   0  0  0  0  0  0  0  0  0  0  0  0
   24.7755  -21.1278   -9.1188 C   0  0  0  0  0  0  0  0  0  0  0  0
   24.5722  -21.7839   -8.0867 O   0  0  0  0  0  0  0  0  0  0  0  0
   23.9038  -20.1122   -9.4729 O   0  0  0  0  0  0  0  0  0  0  0  0
  2  4  1  0
  2  1  1  1
  3  2  1  0
  4  5  2  0
  6  7  1  0
  7  9  1  0
  8  7  2  0
 10  9  1  6
 10 12  1  0
 11 10  1  0
 11  4  1  0
 12 13  2  0
 12 14  1  0
 14 15  1  0
 15 26  1  0
 15 16  1  1
 17 18  2  0
 17 16  1  0
 19 18  1  0
 20 25  2  0
 20 19  1  0
 21 20  1  0
 22 23  1  0
 22 21  2  0
 23 24  2  0
 24 25  1  0
 25 17  1  0
 26 28  1  0
 27 26  2  0
M  END
$$$$
