ANW.pdb
     RDKit          3D

 28 29  0  0  1  0  0  0  0  0999 V2000
   17.7164  -12.6644    4.7411 C   0  0  0  0  0  0  0  0  0  0  0  0
   18.4771  -12.6008    6.0452 C   0  0  2  0  0  0  0  0  0  0  0  0
   19.6298  -11.7481    5.9940 N   0  0  0  0  0  0  0  0  0  0  0  0
   18.8510  -13.9611    6.5207 C   0  0  0  0  0  0  0  0  0  0  0  0
   19.9606  -14.4115    6.1513 O   0  0  0  0  0  0  0  0  0  0  0  0
   19.4639  -18.3680    9.2128 N   0  0  0  0  0  0  0  0  0  0  0  0
   18.6462  -17.4343    9.8977 C   0  0  0  0  0  0  0  0  0  0  0  0
   18.3789  -17.6786   11.1103 O   0  0  0  0  0  0  0  0  0  0  0  0
   18.1097  -16.2189    9.2588 C   0  0  0  0  0  0  0  0  0  0  0  0
   18.5607  -16.0353    7.8209 C   0  0  2  0  0  0  0  0  0  0  0  0
   18.0315  -14.7426    7.3464 N   0  0  0  0  0  0  0  0  0  0  0  0
   18.1094  -17.0601    6.8934 C   0  0  0  0  0  0  0  0  0  0  0  0
   16.9079  -17.0115    6.4374 O   0  0  0  0  0  0  0  0  0  0  0  0
   18.8583  -18.1625    6.3944 N   0  0  0  0  0  0  0  0  0  0  0  0
   18.2653  -19.1232    5.4528 C   0  0  1  0  0  0  0  0  0  0  0  0
   19.1151  -19.1556    4.1956 C   0  0  0  0  0  0  0  0  0  0  0  0
   18.8113  -17.9865    3.3707 C   0  0  0  0  0  0  0  0  0  0  0  0
   17.5736  -17.3999    3.1252 C   0  0  0  0  0  0  0  0  0  0  0  0
   17.8020  -16.3566    2.3120 N   0  0  0  0  0  0  0  0  0  0  0  0
   19.1002  -16.2179    2.0072 C   0  0  0  0  0  0  0  0  0  0  0  0
   19.8171  -15.3136    1.2218 C   0  0  0  0  0  0  0  0  0  0  0  0
   21.1674  -15.4173    1.0897 C   0  0  0  0  0  0  0  0  0  0  0  0
   21.8237  -16.4384    1.7492 C   0  0  0  0  0  0  0  0  0  0  0  0
   21.1264  -17.3391    2.5290 C   0  0  0  0  0  0  0  0  0  0  0  0
   19.7441  -17.2464    2.6741 C   0  0  0  0  0  0  0  0  0  0  0  0
   18.2944  -20.4519    6.0871 C   0  0  0  0  0  0  0  0  0  0  0  0
   18.9959  -20.6575    7.0884 O   0  0  0  0  0  0  0  0  0  0  0  0
   17.5300  -21.4781    5.5586 O   0  0  0  0  0  0  0  0  0  0  0  0
  2  4  1  0
  2  1  1  6
  3  2  1  0
  4  5  2  0
  6  7  1  0
  7  9  1  0
  8  7  2  0
 10  9  1  1
 10 12  1  0
 11 10  1  0
 11  4  1  0
 12 13  2  0
 12 14  1  0
 14 15  1  0
 15 26  1  0
 15 16  1  6
 17 18  2  0
 17 16  1  0
 19 18  1  0
 20 25  2  0
 20 19  1  0
 21 20  1  0
 22 23  1  0
 22 21  2  0
 23 24  2  0
 24 25  1  0
 25 17  1  0
 26 28  1  0
 27 26  2  0
M  END
$$$$
