ANW.pdb
     RDKit          3D

 28 29  0  0  1  0  0  0  0  0999 V2000
   24.5762  -17.4042  -18.9851 C   0  0  0  0  0  0  0  0  0  0  0  0
   24.6825  -18.6381  -19.8508 C   0  0  2  0  0  0  0  0  0  0  0  0
   24.4924  -18.3747  -21.2482 N   0  0  0  0  0  0  0  0  0  0  0  0
   23.7549  -19.7063  -19.3870 C   0  0  0  0  0  0  0  0  0  0  0  0
   22.5398  -19.5671  -19.6597 O   0  0  0  0  0  0  0  0  0  0  0  0
   22.7225  -23.1197  -20.7623 N   0  0  0  0  0  0  0  0  0  0  0  0
   23.4872  -23.7771  -19.7660 C   0  0  0  0  0  0  0  0  0  0  0  0
   23.9719  -24.9085  -20.0604 O   0  0  0  0  0  0  0  0  0  0  0  0
   23.7293  -23.2003  -18.4311 C   0  0  0  0  0  0  0  0  0  0  0  0
   23.1481  -21.8092  -18.2527 C   0  0  2  0  0  0  0  0  0  0  0  0
   24.1748  -20.8369  -18.6731 N   0  0  0  0  0  0  0  0  0  0  0  0
   22.7545  -21.4706  -16.8946 C   0  0  0  0  0  0  0  0  0  0  0  0
   23.6454  -21.4504  -15.9674 O   0  0  0  0  0  0  0  0  0  0  0  0
   21.4506  -21.1377  -16.4317 N   0  0  0  0  0  0  0  0  0  0  0  0
   21.2283  -20.6560  -15.0607 C   0  0  1  0  0  0  0  0  0  0  0  0
   21.6887  -19.2123  -14.9747 C   0  0  0  0  0  0  0  0  0  0  0  0
   20.9048  -18.3940  -15.8996 C   0  0  0  0  0  0  0  0  0  0  0  0
   19.5235  -18.2354  -15.9555 C   0  0  0  0  0  0  0  0  0  0  0  0
   19.2787  -17.3890  -16.9682 N   0  0  0  0  0  0  0  0  0  0  0  0
   20.4004  -16.9820  -17.5796 C   0  0  0  0  0  0  0  0  0  0  0  0
   20.6607  -16.1279  -18.6526 C   0  0  0  0  0  0  0  0  0  0  0  0
   21.9349  -15.8932  -19.0681 C   0  0  0  0  0  0  0  0  0  0  0  0
   22.9755  -16.5172  -18.4076 C   0  0  0  0  0  0  0  0  0  0  0  0
   22.7315  -17.3640  -17.3451 C   0  0  0  0  0  0  0  0  0  0  0  0
   21.4328  -17.6146  -16.9079 C   0  0  0  0  0  0  0  0  0  0  0  0
   19.7817  -20.7161  -14.7913 C   0  0  0  0  0  0  0  0  0  0  0  0
   18.9844  -21.0165  -15.6920 O   0  0  0  0  0  0  0  0  0  0  0  0
   19.3112  -20.4347  -13.5200 O   0  0  0  0  0  0  0  0  0  0  0  0
  2  4  1  0
  2  1  1  1
  3  2  1  0
  4  5  2  0
  6  7  1  0
  7  9  1  0
  8  7  2  0
 10  9  1  1
 10 12  1  0
 11 10  1  0
 11  4  1  0
 12 13  2  0
 12 14  1  0
 14 15  1  0
 15 26  1  0
 15 16  1  6
 17 18  2  0
 17 16  1  0
 19 18  1  0
 20 25  2  0
 20 19  1  0
 21 20  1  0
 22 23  1  0
 22 21  2  0
 23 24  2  0
 24 25  1  0
 25 17  1  0
 26 28  1  0
 27 26  2  0
M  END
$$$$
