ANW.pdb
     RDKit          3D

 28 29  0  0  1  0  0  0  0  0999 V2000
   23.2865  -17.7599  -15.5599 C   0  0  0  0  0  0  0  0  0  0  0  0
   24.6731  -17.9363  -14.9858 C   0  0  2  0  0  0  0  0  0  0  0  0
   25.7027  -17.3312  -15.7807 N   0  0  0  0  0  0  0  0  0  0  0  0
   24.9774  -19.3723  -14.7372 C   0  0  0  0  0  0  0  0  0  0  0  0
   24.0342  -20.1875  -14.8650 O   0  0  0  0  0  0  0  0  0  0  0  0
   27.5851  -22.3496  -17.1551 N   0  0  0  0  0  0  0  0  0  0  0  0
   27.9113  -21.4116  -16.1435 C   0  0  0  0  0  0  0  0  0  0  0  0
   28.3524  -20.2860  -16.5178 O   0  0  0  0  0  0  0  0  0  0  0  0
   27.7581  -21.6981  -14.7055 C   0  0  0  0  0  0  0  0  0  0  0  0
   26.4094  -21.2885  -14.1418 C   0  0  2  0  0  0  0  0  0  0  0  0
   26.2473  -19.8407  -14.3738 N   0  0  0  0  0  0  0  0  0  0  0  0
   26.2338  -21.5261  -12.7182 C   0  0  0  0  0  0  0  0  0  0  0  0
   26.0754  -22.7304  -12.2957 O   0  0  0  0  0  0  0  0  0  0  0  0
   26.2173  -20.5560  -11.6771 N   0  0  0  0  0  0  0  0  0  0  0  0
   26.0563  -20.9505  -10.2701 C   0  0  1  0  0  0  0  0  0  0  0  0
   27.0697  -20.1889   -9.4353 C   0  0  0  0  0  0  0  0  0  0  0  0
   26.8149  -20.4331   -8.0157 C   0  0  0  0  0  0  0  0  0  0  0  0
   25.7594  -21.1288   -7.4342 C   0  0  0  0  0  0  0  0  0  0  0  0
   25.9592  -21.0833   -6.1075 N   0  0  0  0  0  0  0  0  0  0  0  0
   27.0694  -20.4075   -5.7785 C   0  0  0  0  0  0  0  0  0  0  0  0
   27.6861  -20.0938   -4.5662 C   0  0  0  0  0  0  0  0  0  0  0  0
   28.8398  -19.3732   -4.5327 C   0  0  0  0  0  0  0  0  0  0  0  0
   29.3964  -18.9532   -5.7253 C   0  0  0  0  0  0  0  0  0  0  0  0
   28.7965  -19.2569   -6.9309 C   0  0  0  0  0  0  0  0  0  0  0  0
   27.6153  -19.9936   -6.9818 C   0  0  0  0  0  0  0  0  0  0  0  0
   24.6990  -20.5661   -9.8472 C   0  0  0  0  0  0  0  0  0  0  0  0
   24.0445  -19.7412  -10.5015 O   0  0  0  0  0  0  0  0  0  0  0  0
   24.1519  -21.1331   -8.7088 O   0  0  0  0  0  0  0  0  0  0  0  0
  2  4  1  0
  2  1  1  6
  3  2  1  0
  4  5  2  0
  6  7  1  0
  7  9  1  0
  8  7  2  0
 10  9  1  1
 10 12  1  0
 11 10  1  0
 11  4  1  0
 12 13  2  0
 12 14  1  0
 14 15  1  0
 15 26  1  0
 15 16  1  1
 17 18  2  0
 17 16  1  0
 19 18  1  0
 20 25  2  0
 20 19  1  0
 21 20  1  0
 22 23  1  0
 22 21  2  0
 23 24  2  0
 24 25  1  0
 25 17  1  0
 26 28  1  0
 27 26  2  0
M  END
$$$$
