ANW.pdb
     RDKit          3D

 28 29  0  0  1  0  0  0  0  0999 V2000
   29.6523  -20.3049  -13.2677 C   0  0  0  0  0  0  0  0  0  0  0  0
   28.3166  -20.5462  -13.9317 C   0  0  2  0  0  0  0  0  0  0  0  0
   28.2037  -19.9394  -15.2268 N   0  0  0  0  0  0  0  0  0  0  0  0
   27.1912  -20.1230  -13.0538 C   0  0  0  0  0  0  0  0  0  0  0  0
   27.0707  -18.8959  -12.8294 O   0  0  0  0  0  0  0  0  0  0  0  0
   23.6960  -18.6014  -13.7063 N   0  0  0  0  0  0  0  0  0  0  0  0
   23.7249  -20.0167  -13.6310 C   0  0  0  0  0  0  0  0  0  0  0  0
   23.6084  -20.6569  -14.7165 O   0  0  0  0  0  0  0  0  0  0  0  0
   23.8815  -20.7486  -12.3609 C   0  0  0  0  0  0  0  0  0  0  0  0
   25.1931  -20.4655  -11.6510 C   0  0  2  0  0  0  0  0  0  0  0  0
   26.2803  -21.0202  -12.4797 N   0  0  0  0  0  0  0  0  0  0  0  0
   25.3170  -21.0431  -10.3225 C   0  0  0  0  0  0  0  0  0  0  0  0
   25.7844  -22.2344  -10.1950 O   0  0  0  0  0  0  0  0  0  0  0  0
   24.9770  -20.4344   -9.0818 N   0  0  0  0  0  0  0  0  0  0  0  0
   25.0649  -21.1797   -7.8177 C   0  0  1  0  0  0  0  0  0  0  0  0
   25.3555  -20.1984   -6.6969 C   0  0  0  0  0  0  0  0  0  0  0  0
   26.7435  -19.7465   -6.7913 C   0  0  0  0  0  0  0  0  0  0  0  0
   27.3643  -19.0743   -7.8397 C   0  0  0  0  0  0  0  0  0  0  0  0
   28.6373  -18.8757   -7.4631 N   0  0  0  0  0  0  0  0  0  0  0  0
   28.8950  -19.3698   -6.2437 C   0  0  0  0  0  0  0  0  0  0  0  0
   30.0346  -19.4108   -5.4386 C   0  0  0  0  0  0  0  0  0  0  0  0
   30.0037  -19.9941   -4.2097 C   0  0  0  0  0  0  0  0  0  0  0  0
   28.8189  -20.5495   -3.7667 C   0  0  0  0  0  0  0  0  0  0  0  0
   27.6849  -20.5154   -4.5531 C   0  0  0  0  0  0  0  0  0  0  0  0
   27.7004  -19.9222   -5.8133 C   0  0  0  0  0  0  0  0  0  0  0  0
   23.7571  -21.8121   -7.5760 C   0  0  0  0  0  0  0  0  0  0  0  0
   22.7946  -21.5746   -8.3205 O   0  0  0  0  0  0  0  0  0  0  0  0
   23.6045  -22.6792   -6.5075 O   0  0  0  0  0  0  0  0  0  0  0  0
  2  4  1  0
  2  1  1  1
  3  2  1  0
  4  5  2  0
  6  7  1  0
  7  9  1  0
  8  7  2  0
 10  9  1  6
 10 12  1  0
 11 10  1  0
 11  4  1  0
 12 13  2  0
 12 14  1  0
 14 15  1  0
 15 26  1  0
 15 16  1  1
 17 18  2  0
 17 16  1  0
 19 18  1  0
 20 25  2  0
 20 19  1  0
 21 20  1  0
 22 23  1  0
 22 21  2  0
 23 24  2  0
 24 25  1  0
 25 17  1  0
 26 28  1  0
 27 26  2  0
M  END
$$$$
