ANW.pdb
     RDKit          3D

 28 29  0  0  1  0  0  0  0  0999 V2000
   27.8200  -15.3527  -17.1668 C   0  0  0  0  0  0  0  0  0  0  0  0
   26.6680  -15.7180  -18.0739 C   0  0  2  0  0  0  0  0  0  0  0  0
   26.7928  -17.0212  -18.6606 N   0  0  0  0  0  0  0  0  0  0  0  0
   26.4597  -14.6861  -19.1266 C   0  0  0  0  0  0  0  0  0  0  0  0
   26.9612  -14.9087  -20.2533 O   0  0  0  0  0  0  0  0  0  0  0  0
   24.4548  -12.7605  -23.5746 N   0  0  0  0  0  0  0  0  0  0  0  0
   24.3473  -12.3739  -22.2149 C   0  0  0  0  0  0  0  0  0  0  0  0
   23.8968  -11.2156  -21.9761 O   0  0  0  0  0  0  0  0  0  0  0  0
   24.7343  -13.2552  -21.0983 C   0  0  0  0  0  0  0  0  0  0  0  0
   25.5934  -12.5710  -20.0502 C   0  0  2  0  0  0  0  0  0  0  0  0
   25.7417  -13.5012  -18.9149 N   0  0  0  0  0  0  0  0  0  0  0  0
   25.0591  -11.3239  -19.5276 C   0  0  0  0  0  0  0  0  0  0  0  0
   24.0109  -11.3511  -18.7829 O   0  0  0  0  0  0  0  0  0  0  0  0
   25.5688  -10.0118  -19.7368 N   0  0  0  0  0  0  0  0  0  0  0  0
   24.9773   -8.8475  -19.0616 C   0  0  1  0  0  0  0  0  0  0  0  0
   26.0884   -8.0628  -18.3882 C   0  0  0  0  0  0  0  0  0  0  0  0
   26.5693   -8.8013  -17.2208 C   0  0  0  0  0  0  0  0  0  0  0  0
   27.8430   -9.3095  -16.9840 C   0  0  0  0  0  0  0  0  0  0  0  0
   27.7972   -9.9047  -15.7816 N   0  0  0  0  0  0  0  0  0  0  0  0
   26.5852   -9.8231  -15.2142 C   0  0  0  0  0  0  0  0  0  0  0  0
   26.0520  -10.2732  -14.0053 C   0  0  0  0  0  0  0  0  0  0  0  0
   24.7506  -10.0399  -13.6834 C   0  0  0  0  0  0  0  0  0  0  0  0
   23.9586   -9.3456  -14.5773 C   0  0  0  0  0  0  0  0  0  0  0  0
   24.4739   -8.8950  -15.7761 C   0  0  0  0  0  0  0  0  0  0  0  0
   25.8038   -9.1259  -16.1201 C   0  0  0  0  0  0  0  0  0  0  0  0
   24.3472   -8.0026  -20.0901 C   0  0  0  0  0  0  0  0  0  0  0  0
   23.6914   -7.0009  -19.7684 O   0  0  0  0  0  0  0  0  0  0  0  0
   24.4908   -8.3323  -21.4271 O   0  0  0  0  0  0  0  0  0  0  0  0
  2  4  1  0
  2  1  1  6
  3  2  1  0
  4  5  2  0
  6  7  1  0
  7  9  1  0
  8  7  2  0
 10  9  1  6
 10 12  1  0
 11 10  1  0
 11  4  1  0
 12 13  2  0
 12 14  1  0
 14 15  1  0
 15 26  1  0
 15 16  1  6
 17 18  2  0
 17 16  1  0
 19 18  1  0
 20 25  2  0
 20 19  1  0
 21 20  1  0
 22 23  1  0
 22 21  2  0
 23 24  2  0
 24 25  1  0
 25 17  1  0
 26 28  1  0
 27 26  2  0
M  END
$$$$
