ANW.pdb
     RDKit          3D

 28 29  0  0  1  0  0  0  0  0999 V2000
   17.5952  -20.5967    1.9571 C   0  0  0  0  0  0  0  0  0  0  0  0
   16.1548  -20.8954    2.3026 C   0  0  2  0  0  0  0  0  0  0  0  0
   15.2591  -20.7556    1.1907 N   0  0  0  0  0  0  0  0  0  0  0  0
   15.6931  -20.0742    3.4553 C   0  0  0  0  0  0  0  0  0  0  0  0
   15.4518  -18.8642    3.2356 O   0  0  0  0  0  0  0  0  0  0  0  0
   12.2294  -20.0431    5.5424 N   0  0  0  0  0  0  0  0  0  0  0  0
   12.9028  -20.6341    6.6410 C   0  0  0  0  0  0  0  0  0  0  0  0
   12.2050  -21.3085    7.4533 O   0  0  0  0  0  0  0  0  0  0  0  0
   14.3532  -20.4914    6.8627 C   0  0  0  0  0  0  0  0  0  0  0  0
   15.0545  -19.6637    5.8007 C   0  0  2  0  0  0  0  0  0  0  0  0
   15.5208  -20.5865    4.7484 N   0  0  0  0  0  0  0  0  0  0  0  0
   16.2077  -18.9089    6.2635 C   0  0  0  0  0  0  0  0  0  0  0  0
   17.3504  -19.4930    6.3468 O   0  0  0  0  0  0  0  0  0  0  0  0
   16.2439  -17.5403    6.6520 N   0  0  0  0  0  0  0  0  0  0  0  0
   17.4871  -16.9150    7.1260 C   0  0  1  0  0  0  0  0  0  0  0  0
   17.4636  -15.4451    6.7487 C   0  0  0  0  0  0  0  0  0  0  0  0
   17.7559  -15.3024    5.3226 C   0  0  0  0  0  0  0  0  0  0  0  0
   17.5472  -16.2240    4.3010 C   0  0  0  0  0  0  0  0  0  0  0  0
   17.9711  -15.6396    3.1694 N   0  0  0  0  0  0  0  0  0  0  0  0
   18.4426  -14.4018    3.3763 C   0  0  0  0  0  0  0  0  0  0  0  0
   18.9801  -13.4203    2.5418 C   0  0  0  0  0  0  0  0  0  0  0  0
   19.3875  -12.2221    3.0414 C   0  0  0  0  0  0  0  0  0  0  0  0
   19.2605  -11.9888    4.3970 C   0  0  0  0  0  0  0  0  0  0  0  0
   18.7305  -12.9510    5.2331 C   0  0  0  0  0  0  0  0  0  0  0  0
   18.3091  -14.1826    4.7370 C   0  0  0  0  0  0  0  0  0  0  0  0
   17.5198  -17.0341    8.5935 C   0  0  0  0  0  0  0  0  0  0  0  0
   18.5931  -17.2122    9.1880 O   0  0  0  0  0  0  0  0  0  0  0  0
   16.3400  -16.9456    9.3126 O   0  0  0  0  0  0  0  0  0  0  0  0
  2  4  1  0
  2  1  1  6
  3  2  1  0
  4  5  2  0
  6  7  1  0
  7  9  1  0
  8  7  2  0
 10  9  1  1
 10 12  1  0
 11 10  1  0
 11  4  1  0
 12 13  2  0
 12 14  1  0
 14 15  1  0
 15 26  1  0
 15 16  1  1
 17 18  2  0
 17 16  1  0
 19 18  1  0
 20 25  2  0
 20 19  1  0
 21 20  1  0
 22 23  1  0
 22 21  2  0
 23 24  2  0
 24 25  1  0
 25 17  1  0
 26 28  1  0
 27 26  2  0
M  END
$$$$
