ANW.pdb
     RDKit          3D

 28 29  0  0  1  0  0  0  0  0999 V2000
   29.6753  -20.8157  -14.9700 C   0  0  0  0  0  0  0  0  0  0  0  0
   28.2921  -21.4057  -14.8213 C   0  0  2  0  0  0  0  0  0  0  0  0
   27.7017  -21.8006  -16.0678 N   0  0  0  0  0  0  0  0  0  0  0  0
   27.3874  -20.4843  -14.0804 C   0  0  0  0  0  0  0  0  0  0  0  0
   27.2272  -19.3355  -14.5548 O   0  0  0  0  0  0  0  0  0  0  0  0
   21.9481  -20.8232  -13.2242 N   0  0  0  0  0  0  0  0  0  0  0  0
   23.0952  -20.0290  -13.4753 C   0  0  0  0  0  0  0  0  0  0  0  0
   22.9297  -18.7758  -13.5371 O   0  0  0  0  0  0  0  0  0  0  0  0
   24.4407  -20.6014  -13.6631 C   0  0  0  0  0  0  0  0  0  0  0  0
   25.4391  -20.1746  -12.6021 C   0  0  2  0  0  0  0  0  0  0  0  0
   26.7216  -20.8401  -12.8996 N   0  0  0  0  0  0  0  0  0  0  0  0
   25.0761  -20.5144  -11.2359 C   0  0  0  0  0  0  0  0  0  0  0  0
   23.9864  -20.0459  -10.7389 O   0  0  0  0  0  0  0  0  0  0  0  0
   25.7994  -21.3411  -10.3310 N   0  0  0  0  0  0  0  0  0  0  0  0
   25.6183  -21.2205   -8.8771 C   0  0  1  0  0  0  0  0  0  0  0  0
   26.3047  -19.9507   -8.4079 C   0  0  0  0  0  0  0  0  0  0  0  0
   27.6681  -20.2625   -7.9796 C   0  0  0  0  0  0  0  0  0  0  0  0
   28.6681  -20.9200   -8.6897 C   0  0  0  0  0  0  0  0  0  0  0  0
   29.7394  -20.9673   -7.8822 N   0  0  0  0  0  0  0  0  0  0  0  0
   29.5128  -20.3884   -6.6944 C   0  0  0  0  0  0  0  0  0  0  0  0
   30.2903  -20.1899   -5.5521 C   0  0  0  0  0  0  0  0  0  0  0  0
   29.7842  -19.5514   -4.4623 C   0  0  0  0  0  0  0  0  0  0  0  0
   28.4796  -19.0988   -4.5029 C   0  0  0  0  0  0  0  0  0  0  0  0
   27.7003  -19.2887   -5.6264 C   0  0  0  0  0  0  0  0  0  0  0  0
   28.2038  -19.9405   -6.7499 C   0  0  0  0  0  0  0  0  0  0  0  0
   24.1739  -21.1127   -8.6108 C   0  0  0  0  0  0  0  0  0  0  0  0
   23.4068  -20.6534   -9.4697 O   0  0  0  0  0  0  0  0  0  0  0  0
   23.6714  -21.5293   -7.3899 O   0  0  0  0  0  0  0  0  0  0  0  0
  2  4  1  0
  2  1  1  6
  3  2  1  0
  4  5  2  0
  6  7  1  0
  7  9  1  0
  8  7  2  0
 10  9  1  6
 10 12  1  0
 11 10  1  0
 11  4  1  0
 12 13  2  0
 12 14  1  0
 14 15  1  0
 15 26  1  0
 15 16  1  6
 17 18  2  0
 17 16  1  0
 19 18  1  0
 20 25  2  0
 20 19  1  0
 21 20  1  0
 22 23  1  0
 22 21  2  0
 23 24  2  0
 24 25  1  0
 25 17  1  0
 26 28  1  0
 27 26  2  0
M  END
$$$$
