ANW.pdb
     RDKit          3D

 28 29  0  0  1  0  0  0  0  0999 V2000
   28.8673  -21.4352  -15.2265 C   0  0  0  0  0  0  0  0  0  0  0  0
   27.4714  -21.0847  -15.6867 C   0  0  2  0  0  0  0  0  0  0  0  0
   27.4459  -20.2733  -16.8696 N   0  0  0  0  0  0  0  0  0  0  0  0
   26.6858  -20.4463  -14.5951 C   0  0  0  0  0  0  0  0  0  0  0  0
   27.1609  -19.4071  -14.0804 O   0  0  0  0  0  0  0  0  0  0  0  0
   22.2500  -19.4683  -15.5684 N   0  0  0  0  0  0  0  0  0  0  0  0
   22.8664  -19.1753  -14.3259 C   0  0  0  0  0  0  0  0  0  0  0  0
   23.0546  -17.9555  -14.0461 O   0  0  0  0  0  0  0  0  0  0  0  0
   23.2857  -20.2194  -13.3734 C   0  0  0  0  0  0  0  0  0  0  0  0
   24.7713  -20.2003  -13.0616 C   0  0  2  0  0  0  0  0  0  0  0  0
   25.4631  -20.9481  -14.1286 N   0  0  0  0  0  0  0  0  0  0  0  0
   25.1467  -20.8011  -11.7919 C   0  0  0  0  0  0  0  0  0  0  0  0
   24.7913  -22.0108  -11.5383 O   0  0  0  0  0  0  0  0  0  0  0  0
   25.8959  -20.2009  -10.7414 N   0  0  0  0  0  0  0  0  0  0  0  0
   26.2445  -20.9534   -9.5275 C   0  0  1  0  0  0  0  0  0  0  0  0
   27.2835  -20.1649   -8.7513 C   0  0  0  0  0  0  0  0  0  0  0  0
   27.0331  -20.3070   -7.3172 C   0  0  0  0  0  0  0  0  0  0  0  0
   25.9541  -20.9167   -6.6843 C   0  0  0  0  0  0  0  0  0  0  0  0
   26.1696  -20.7961   -5.3649 N   0  0  0  0  0  0  0  0  0  0  0  0
   27.3119  -20.1510   -5.0881 C   0  0  0  0  0  0  0  0  0  0  0  0
   27.9545  -19.7890   -3.9030 C   0  0  0  0  0  0  0  0  0  0  0  0
   29.1390  -19.1198   -3.9245 C   0  0  0  0  0  0  0  0  0  0  0  0
   29.7011  -18.8015   -5.1456 C   0  0  0  0  0  0  0  0  0  0  0  0
   29.0758  -19.1539   -6.3248 C   0  0  0  0  0  0  0  0  0  0  0  0
   27.8629  -19.8389   -6.3195 C   0  0  0  0  0  0  0  0  0  0  0  0
   25.0260  -21.0782   -8.7097 C   0  0  0  0  0  0  0  0  0  0  0  0
   24.0659  -20.3143   -8.8879 O   0  0  0  0  0  0  0  0  0  0  0  0
   24.9552  -22.0584   -7.7346 O   0  0  0  0  0  0  0  0  0  0  0  0
  2  4  1  0
  2  1  1  1
  3  2  1  0
  4  5  2  0
  6  7  1  0
  7  9  1  0
  8  7  2  0
 10  9  1  6
 10 12  1  0
 11 10  1  0
 11  4  1  0
 12 13  2  0
 12 14  1  0
 14 15  1  0
 15 26  1  0
 15 16  1  1
 17 18  2  0
 17 16  1  0
 19 18  1  0
 20 25  2  0
 20 19  1  0
 21 20  1  0
 22 23  1  0
 22 21  2  0
 23 24  2  0
 24 25  1  0
 25 17  1  0
 26 28  1  0
 27 26  2  0
M  END
$$$$
