QGI.pdb
     RDKit          3D

 22 21  0  0  1  0  0  0  0  0999 V2000
    7.6913  -17.8462   15.2346 N   0  0  0  0  0  0  0  0  0  0  0  0
    7.6618  -18.9908   16.0725 C   0  0  0  0  0  0  0  0  0  0  0  0
    7.3882  -20.1259   15.6039 O   0  0  0  0  0  0  0  0  0  0  0  0
    7.9553  -18.8444   17.5071 C   0  0  0  0  0  0  0  0  0  0  0  0
    8.1810  -17.3853   17.8507 C   0  0  0  0  0  0  0  0  0  0  0  0
    9.0078  -17.2639   19.1150 C   0  0  2  0  0  0  0  0  0  0  0  0
    9.3295  -18.5654   19.6334 N   0  0  0  0  0  0  0  0  0  0  0  0
    8.2318  -16.4599   20.1064 C   0  0  0  0  0  0  0  0  0  0  0  0
    7.8050  -15.3242   19.7484 O   0  0  0  0  0  0  0  0  0  0  0  0
    7.9788  -16.9440   21.4017 N   0  0  0  0  0  0  0  0  0  0  0  0
    7.2333  -16.1296   22.3529 C   0  0  0  0  0  0  0  0  0  0  0  0
    8.1063  -15.6444   23.4429 C   0  0  0  0  0  0  0  0  0  0  0  0
    9.2982  -15.9893   23.4750 O   0  0  0  0  0  0  0  0  0  0  0  0
    5.7505  -11.6311   26.3704 C   0  0  0  0  0  0  0  0  0  0  0  0
    6.7088  -12.3782   25.4484 C   0  0  0  0  0  0  0  0  0  0  0  0
    7.4940  -13.3176   26.3061 C   0  0  2  0  0  0  0  0  0  0  0  0
    8.2662  -12.5215   27.3293 C   0  0  0  0  0  0  0  0  0  0  0  0
    8.3581  -14.2782   25.5451 C   0  0  2  0  0  0  0  0  0  0  0  0
    7.5914  -14.8016   24.4320 N   0  0  0  0  0  0  0  0  0  0  0  0
    8.9822  -15.3283   26.3513 C   0  0  0  0  0  0  0  0  0  0  0  0
    8.3546  -16.3587   26.7008 O   0  0  0  0  0  0  0  0  0  0  0  0
   10.3029  -15.2421   26.7736 O   0  0  0  0  0  0  0  0  0  0  0  0
  1  2  1  0
  2  4  1  0
  2  3  2  0
  4  5  1  0
  5  6  1  0
  6  8  1  0
  6  7  1  1
  8  9  2  0
 10 11  1  0
 10  8  1  0
 11 12  1  0
 12 13  2  0
 12 19  1  0
 15 14  1  0
 15 16  1  0
 16 18  1  0
 16 17  1  1
 18 20  1  0
 18 19  1  6
 20 22  1  0
 21 20  2  0
M  END
$$$$
