QGI.pdb
     RDKit          3D

 22 21  0  0  1  0  0  0  0  0999 V2000
    7.9124  -16.2723   18.3897 N   0  0  0  0  0  0  0  0  0  0  0  0
    7.8667  -17.6885   18.3168 C   0  0  0  0  0  0  0  0  0  0  0  0
    8.6940  -18.3249   17.6143 O   0  0  0  0  0  0  0  0  0  0  0  0
    6.8373  -18.4186   19.0737 C   0  0  0  0  0  0  0  0  0  0  0  0
    7.4859  -19.3470   20.0813 C   0  0  0  0  0  0  0  0  0  0  0  0
    6.8618  -19.1581   21.4493 C   0  0  2  0  0  0  0  0  0  0  0  0
    5.6400  -19.9082   21.5534 N   0  0  0  0  0  0  0  0  0  0  0  0
    6.6234  -17.6983   21.6577 C   0  0  0  0  0  0  0  0  0  0  0  0
    5.4944  -17.3363   22.0988 O   0  0  0  0  0  0  0  0  0  0  0  0
    7.6195  -16.7476   21.3742 N   0  0  0  0  0  0  0  0  0  0  0  0
    7.4283  -15.3539   21.7549 C   0  0  0  0  0  0  0  0  0  0  0  0
    8.2319  -15.0087   22.9468 C   0  0  0  0  0  0  0  0  0  0  0  0
    9.4555  -14.8341   22.8331 O   0  0  0  0  0  0  0  0  0  0  0  0
    5.6554  -11.7321   26.1332 C   0  0  0  0  0  0  0  0  0  0  0  0
    6.6705  -12.4597   25.2573 C   0  0  0  0  0  0  0  0  0  0  0  0
    7.3317  -13.4867   26.1192 C   0  0  2  0  0  0  0  0  0  0  0  0
    7.9740  -12.7997   27.2991 C   0  0  0  0  0  0  0  0  0  0  0  0
    8.2771  -14.3936   25.3899 C   0  0  2  0  0  0  0  0  0  0  0  0
    7.6163  -14.8797   24.1951 N   0  0  0  0  0  0  0  0  0  0  0  0
    8.8579  -15.4676   26.1971 C   0  0  0  0  0  0  0  0  0  0  0  0
    8.2469  -16.5446   26.4080 O   0  0  0  0  0  0  0  0  0  0  0  0
   10.1167  -15.3538   26.7737 O   0  0  0  0  0  0  0  0  0  0  0  0
  1  2  1  0
  2  4  1  0
  2  3  2  0
  4  5  1  0
  5  6  1  0
  6  8  1  0
  6  7  1  6
  8  9  2  0
 10 11  1  0
 10  8  1  0
 11 12  1  0
 12 13  2  0
 12 19  1  0
 15 14  1  0
 15 16  1  0
 16 18  1  0
 16 17  1  1
 18 20  1  0
 18 19  1  6
 20 22  1  0
 21 20  2  0
M  END
$$$$
