QGI.pdb
     RDKit          3D

 22 21  0  0  1  0  0  0  0  0999 V2000
    9.0824  -14.0520   15.4077 N   0  0  0  0  0  0  0  0  0  0  0  0
    7.7794  -14.4026   15.8461 C   0  0  0  0  0  0  0  0  0  0  0  0
    7.0010  -15.0511   15.1001 O   0  0  0  0  0  0  0  0  0  0  0  0
    7.3365  -14.0009   17.1907 C   0  0  0  0  0  0  0  0  0  0  0  0
    8.3756  -13.1096   17.8415 C   0  0  0  0  0  0  0  0  0  0  0  0
    9.2873  -13.9282   18.7333 C   0  0  2  0  0  0  0  0  0  0  0  0
    9.6130  -15.1803   18.1071 N   0  0  0  0  0  0  0  0  0  0  0  0
    8.5977  -14.1374   20.0418 C   0  0  0  0  0  0  0  0  0  0  0  0
    8.2513  -13.1157   20.7023 O   0  0  0  0  0  0  0  0  0  0  0  0
    8.3374  -15.4289   20.5322 N   0  0  0  0  0  0  0  0  0  0  0  0
    7.5047  -15.6068   21.7149 C   0  0  0  0  0  0  0  0  0  0  0  0
    8.1725  -15.0814   22.9247 C   0  0  0  0  0  0  0  0  0  0  0  0
    9.3931  -14.8572   22.9040 O   0  0  0  0  0  0  0  0  0  0  0  0
    6.5048  -11.1302   26.9776 C   0  0  0  0  0  0  0  0  0  0  0  0
    7.4432  -12.3288   26.8806 C   0  0  0  0  0  0  0  0  0  0  0  0
    6.9839  -13.1479   25.7175 C   0  0  2  0  0  0  0  0  0  0  0  0
    5.6163  -13.7092   26.0200 C   0  0  0  0  0  0  0  0  0  0  0  0
    7.9578  -14.1986   25.2748 C   0  0  2  0  0  0  0  0  0  0  0  0
    7.4326  -14.8387   24.0854 N   0  0  0  0  0  0  0  0  0  0  0  0
    8.3552  -15.1552   26.3088 C   0  0  0  0  0  0  0  0  0  0  0  0
    9.0696  -14.8189   27.2856 O   0  0  0  0  0  0  0  0  0  0  0  0
    7.9634  -16.4874   26.2658 O   0  0  0  0  0  0  0  0  0  0  0  0
  1  2  1  0
  2  4  1  0
  2  3  2  0
  4  5  1  0
  5  6  1  0
  6  8  1  0
  6  7  1  6
  8  9  2  0
 10 11  1  0
 10  8  1  0
 11 12  1  0
 12 13  2  0
 12 19  1  0
 15 14  1  0
 15 16  1  0
 16 18  1  0
 16 17  1  1
 18 20  1  0
 18 19  1  6
 20 22  1  0
 21 20  2  0
M  END
$$$$
