QGI.pdb
     RDKit          3D

 22 21  0  0  1  0  0  0  0  0999 V2000
    6.5731  -17.7663   17.2215 N   0  0  0  0  0  0  0  0  0  0  0  0
    7.6693  -18.4790   16.6709 C   0  0  0  0  0  0  0  0  0  0  0  0
    8.0029  -18.3201   15.4682 O   0  0  0  0  0  0  0  0  0  0  0  0
    8.4231  -19.4150   17.5202 C   0  0  0  0  0  0  0  0  0  0  0  0
    7.7617  -19.5409   18.8783 C   0  0  0  0  0  0  0  0  0  0  0  0
    8.6266  -18.9022   19.9464 C   0  0  2  0  0  0  0  0  0  0  0  0
    8.8549  -19.8225   21.0266 N   0  0  0  0  0  0  0  0  0  0  0  0
    7.9428  -17.6625   20.4231 C   0  0  0  0  0  0  0  0  0  0  0  0
    6.9473  -17.2415   19.7659 O   0  0  0  0  0  0  0  0  0  0  0  0
    8.3862  -16.9777   21.5679 N   0  0  0  0  0  0  0  0  0  0  0  0
    7.7016  -15.7682   22.0063 C   0  0  0  0  0  0  0  0  0  0  0  0
    8.3919  -15.1487   23.1574 C   0  0  0  0  0  0  0  0  0  0  0  0
    9.5261  -14.6674   23.0070 O   0  0  0  0  0  0  0  0  0  0  0  0
    5.6906  -11.8518   26.0789 C   0  0  0  0  0  0  0  0  0  0  0  0
    6.6828  -12.6811   25.2698 C   0  0  0  0  0  0  0  0  0  0  0  0
    7.3585  -13.6081   26.2283 C   0  0  2  0  0  0  0  0  0  0  0  0
    7.9369  -12.8037   27.3664 C   0  0  0  0  0  0  0  0  0  0  0  0
    8.3612  -14.5286   25.5994 C   0  0  2  0  0  0  0  0  0  0  0  0
    7.7702  -15.1056   24.4085 N   0  0  0  0  0  0  0  0  0  0  0  0
    8.9328  -15.5340   26.4965 C   0  0  0  0  0  0  0  0  0  0  0  0
    9.8901  -15.2702   27.2658 O   0  0  0  0  0  0  0  0  0  0  0  0
    8.4472  -16.8347   26.5457 O   0  0  0  0  0  0  0  0  0  0  0  0
  1  2  1  0
  2  4  1  0
  2  3  2  0
  4  5  1  0
  5  6  1  0
  6  8  1  0
  6  7  1  1
  8  9  2  0
 10 11  1  0
 10  8  1  0
 11 12  1  0
 12 13  2  0
 12 19  1  0
 15 14  1  0
 15 16  1  0
 16 18  1  0
 16 17  1  1
 18 20  1  0
 18 19  1  6
 20 22  1  0
 21 20  2  0
M  END
$$$$
