QGI.pdb
     RDKit          3D

 22 21  0  0  1  0  0  0  0  0999 V2000
    8.3550  -12.9407   16.3156 N   0  0  0  0  0  0  0  0  0  0  0  0
    7.5108  -14.0803   16.3538 C   0  0  0  0  0  0  0  0  0  0  0  0
    7.0273  -14.5601   15.2960 O   0  0  0  0  0  0  0  0  0  0  0  0
    7.1993  -14.7062   17.6487 C   0  0  0  0  0  0  0  0  0  0  0  0
    8.4407  -14.7631   18.5167 C   0  0  0  0  0  0  0  0  0  0  0  0
    8.3094  -15.8619   19.5521 C   0  0  2  0  0  0  0  0  0  0  0  0
    7.1631  -15.6317   20.3883 N   0  0  0  0  0  0  0  0  0  0  0  0
    9.5688  -15.9022   20.3544 C   0  0  0  0  0  0  0  0  0  0  0  0
   10.6570  -16.1114   19.7442 O   0  0  0  0  0  0  0  0  0  0  0  0
    9.5540  -15.7140   21.7474 N   0  0  0  0  0  0  0  0  0  0  0  0
   10.7932  -15.8017   22.5093 C   0  0  0  0  0  0  0  0  0  0  0  0
   10.5559  -15.5609   23.9485 C   0  0  0  0  0  0  0  0  0  0  0  0
   11.5045  -15.6241   24.7464 O   0  0  0  0  0  0  0  0  0  0  0  0
    6.9024  -11.8671   26.8038 C   0  0  0  0  0  0  0  0  0  0  0  0
    7.6153  -13.1899   27.0658 C   0  0  0  0  0  0  0  0  0  0  0  0
    7.9359  -13.7830   25.7315 C   0  0  2  0  0  0  0  0  0  0  0  0
    6.6518  -14.1945   25.0543 C   0  0  0  0  0  0  0  0  0  0  0  0
    8.9512  -14.8858   25.7701 C   0  0  2  0  0  0  0  0  0  0  0  0
    9.2696  -15.2637   24.4076 N   0  0  0  0  0  0  0  0  0  0  0  0
    8.5968  -16.0300   26.6111 C   0  0  0  0  0  0  0  0  0  0  0  0
    8.6241  -15.9662   27.8652 O   0  0  0  0  0  0  0  0  0  0  0  0
    8.2110  -17.2489   26.0674 O   0  0  0  0  0  0  0  0  0  0  0  0
  1  2  1  0
  2  4  1  0
  2  3  2  0
  4  5  1  0
  5  6  1  0
  6  8  1  0
  6  7  1  1
  8  9  2  0
 10 11  1  0
 10  8  1  0
 11 12  1  0
 12 13  2  0
 12 19  1  0
 15 14  1  0
 15 16  1  0
 16 18  1  0
 16 17  1  1
 18 20  1  0
 18 19  1  6
 20 22  1  0
 21 20  2  0
M  END
$$$$
