QGI.pdb
     RDKit          3D

 22 21  0  0  1  0  0  0  0  0999 V2000
    7.5013  -12.8415   17.8893 N   0  0  0  0  0  0  0  0  0  0  0  0
    8.4900  -13.8485   17.7423 C   0  0  0  0  0  0  0  0  0  0  0  0
    8.9631  -14.1271   16.6104 O   0  0  0  0  0  0  0  0  0  0  0  0
    8.9654  -14.5738   18.9312 C   0  0  0  0  0  0  0  0  0  0  0  0
    9.1899  -16.0358   18.5995 C   0  0  0  0  0  0  0  0  0  0  0  0
    7.9654  -16.8520   18.9616 C   0  0  2  0  0  0  0  0  0  0  0  0
    6.7652  -16.1334   18.6308 N   0  0  0  0  0  0  0  0  0  0  0  0
    8.0269  -17.1661   20.4207 C   0  0  0  0  0  0  0  0  0  0  0  0
    9.0343  -17.7981   20.8517 O   0  0  0  0  0  0  0  0  0  0  0  0
    6.9992  -16.7742   21.2963 N   0  0  0  0  0  0  0  0  0  0  0  0
    7.1153  -17.0410   22.7243 C   0  0  0  0  0  0  0  0  0  0  0  0
    7.8183  -15.9419   23.4196 C   0  0  0  0  0  0  0  0  0  0  0  0
    8.8095  -15.4148   22.8901 O   0  0  0  0  0  0  0  0  0  0  0  0
    6.4690  -11.0916   26.3624 C   0  0  0  0  0  0  0  0  0  0  0  0
    7.5469  -12.1702   26.4011 C   0  0  0  0  0  0  0  0  0  0  0  0
    7.0150  -13.3442   25.6439 C   0  0  2  0  0  0  0  0  0  0  0  0
    5.7358  -13.8109   26.2942 C   0  0  0  0  0  0  0  0  0  0  0  0
    8.0035  -14.4539   25.4445 C   0  0  2  0  0  0  0  0  0  0  0  0
    7.3686  -15.4991   24.6667 N   0  0  0  0  0  0  0  0  0  0  0  0
    8.6324  -14.9554   26.6672 C   0  0  0  0  0  0  0  0  0  0  0  0
    9.3948  -14.2400   27.3635 O   0  0  0  0  0  0  0  0  0  0  0  0
    8.4202  -16.2501   27.1240 O   0  0  0  0  0  0  0  0  0  0  0  0
  1  2  1  0
  2  4  1  0
  2  3  2  0
  4  5  1  0
  5  6  1  0
  6  8  1  0
  6  7  1  1
  8  9  2  0
 10 11  1  0
 10  8  1  0
 11 12  1  0
 12 13  2  0
 12 19  1  0
 15 14  1  0
 15 16  1  0
 16 18  1  0
 16 17  1  1
 18 20  1  0
 18 19  1  1
 20 22  1  0
 21 20  2  0
M  END
$$$$
