QGI.pdb
     RDKit          3D

 22 21  0  0  1  0  0  0  0  0999 V2000
    6.8294  -21.1392   17.7334 N   0  0  0  0  0  0  0  0  0  0  0  0
    8.0669  -20.5543   17.3600 C   0  0  0  0  0  0  0  0  0  0  0  0
    8.9501  -21.2328   16.7746 O   0  0  0  0  0  0  0  0  0  0  0  0
    8.3169  -19.1361   17.6630 C   0  0  0  0  0  0  0  0  0  0  0  0
    7.1557  -18.5533   18.4438 C   0  0  0  0  0  0  0  0  0  0  0  0
    7.4029  -17.0877   18.7397 C   0  0  2  0  0  0  0  0  0  0  0  0
    8.8131  -16.8114   18.7732 N   0  0  0  0  0  0  0  0  0  0  0  0
    6.7525  -16.7571   20.0432 C   0  0  0  0  0  0  0  0  0  0  0  0
    5.5069  -16.9487   20.1526 O   0  0  0  0  0  0  0  0  0  0  0  0
    7.4958  -16.2474   21.1221 N   0  0  0  0  0  0  0  0  0  0  0  0
    6.8265  -15.8920   22.3669 C   0  0  0  0  0  0  0  0  0  0  0  0
    7.7823  -15.3419   23.3514 C   0  0  0  0  0  0  0  0  0  0  0  0
    8.9887  -15.2779   23.0667 O   0  0  0  0  0  0  0  0  0  0  0  0
    5.8271  -11.2645   26.0487 C   0  0  0  0  0  0  0  0  0  0  0  0
    6.5984  -12.2991   25.2354 C   0  0  0  0  0  0  0  0  0  0  0  0
    7.3711  -13.1297   26.2090 C   0  0  2  0  0  0  0  0  0  0  0  0
    8.2168  -12.2221   27.0680 C   0  0  0  0  0  0  0  0  0  0  0  0
    8.1609  -14.2419   25.5865 C   0  0  2  0  0  0  0  0  0  0  0  0
    7.3292  -14.8964   24.5963 N   0  0  0  0  0  0  0  0  0  0  0  0
    8.7674  -15.1804   26.5317 C   0  0  0  0  0  0  0  0  0  0  0  0
    8.1117  -16.1181   27.0499 O   0  0  0  0  0  0  0  0  0  0  0  0
   10.1016  -15.0848   26.9071 O   0  0  0  0  0  0  0  0  0  0  0  0
  1  2  1  0
  2  4  1  0
  2  3  2  0
  4  5  1  0
  5  6  1  0
  6  8  1  0
  6  7  1  1
  8  9  2  0
 10 11  1  0
 10  8  1  0
 11 12  1  0
 12 13  2  0
 12 19  1  0
 15 14  1  0
 15 16  1  0
 16 18  1  0
 16 17  1  6
 18 20  1  0
 18 19  1  6
 20 22  1  0
 21 20  2  0
M  END
$$$$
