QGI.pdb
     RDKit          3D

 22 21  0  0  1  0  0  0  0  0999 V2000
   12.0806  -13.6415   19.4472 N   0  0  0  0  0  0  0  0  0  0  0  0
   12.6203  -14.7975   18.8264 C   0  0  0  0  0  0  0  0  0  0  0  0
   13.8438  -15.0724   18.9286 O   0  0  0  0  0  0  0  0  0  0  0  0
   11.7348  -15.6835   18.0542 C   0  0  0  0  0  0  0  0  0  0  0  0
   10.2961  -15.2208   18.1722 C   0  0  0  0  0  0  0  0  0  0  0  0
    9.4767  -16.2390   18.9393 C   0  0  2  0  0  0  0  0  0  0  0  0
    8.6888  -17.0341   18.0376 N   0  0  0  0  0  0  0  0  0  0  0  0
    8.6142  -15.5069   19.9147 C   0  0  0  0  0  0  0  0  0  0  0  0
    8.3870  -14.2803   19.7049 O   0  0  0  0  0  0  0  0  0  0  0  0
    8.0668  -16.1547   21.0359 N   0  0  0  0  0  0  0  0  0  0  0  0
    7.2122  -15.4192   21.9592 C   0  0  0  0  0  0  0  0  0  0  0  0
    7.9551  -15.0165   23.1722 C   0  0  0  0  0  0  0  0  0  0  0  0
    9.1955  -15.0597   23.1754 O   0  0  0  0  0  0  0  0  0  0  0  0
    5.2962  -11.8758   27.1187 C   0  0  0  0  0  0  0  0  0  0  0  0
    5.7364  -13.0709   26.2793 C   0  0  0  0  0  0  0  0  0  0  0  0
    7.1905  -12.8850   25.9867 C   0  0  2  0  0  0  0  0  0  0  0  0
    7.3563  -11.7318   25.0278 C   0  0  0  0  0  0  0  0  0  0  0  0
    7.8954  -14.1268   25.5289 C   0  0  2  0  0  0  0  0  0  0  0  0
    7.2635  -14.5894   24.3093 N   0  0  0  0  0  0  0  0  0  0  0  0
    8.0241  -15.1785   26.5386 C   0  0  0  0  0  0  0  0  0  0  0  0
    8.7480  -15.0379   27.5555 O   0  0  0  0  0  0  0  0  0  0  0  0
    7.3523  -16.3894   26.4270 O   0  0  0  0  0  0  0  0  0  0  0  0
  1  2  1  0
  2  4  1  0
  2  3  2  0
  4  5  1  0
  5  6  1  0
  6  8  1  0
  6  7  1  6
  8  9  2  0
 10 11  1  0
 10  8  1  0
 11 12  1  0
 12 13  2  0
 12 19  1  0
 15 14  1  0
 15 16  1  0
 16 18  1  0
 16 17  1  6
 18 20  1  0
 18 19  1  6
 20 22  1  0
 21 20  2  0
M  END
$$$$
