QGI.pdb
     RDKit          3D

 22 21  0  0  1  0  0  0  0  0999 V2000
   10.9454  -17.8813   17.9764 N   0  0  0  0  0  0  0  0  0  0  0  0
   11.1731  -19.2634   18.2017 C   0  0  0  0  0  0  0  0  0  0  0  0
   11.8260  -19.9523   17.3758 O   0  0  0  0  0  0  0  0  0  0  0  0
   10.6373  -19.8956   19.4178 C   0  0  0  0  0  0  0  0  0  0  0  0
   10.0118  -18.8510   20.3207 C   0  0  0  0  0  0  0  0  0  0  0  0
    8.5147  -18.7873   20.0941 C   0  0  2  0  0  0  0  0  0  0  0  0
    8.2132  -17.9777   18.9453 N   0  0  0  0  0  0  0  0  0  0  0  0
    7.8772  -18.2389   21.3287 C   0  0  0  0  0  0  0  0  0  0  0  0
    7.7932  -18.9931   22.3407 O   0  0  0  0  0  0  0  0  0  0  0  0
    7.3824  -16.9238   21.3730 N   0  0  0  0  0  0  0  0  0  0  0  0
    6.7417  -16.4251   22.5832 C   0  0  0  0  0  0  0  0  0  0  0  0
    7.7138  -15.7390   23.4607 C   0  0  0  0  0  0  0  0  0  0  0  0
    8.9182  -15.7381   23.1605 O   0  0  0  0  0  0  0  0  0  0  0  0
    5.9518  -11.4794   26.7842 C   0  0  0  0  0  0  0  0  0  0  0  0
    6.2501  -12.9380   26.4524 C   0  0  0  0  0  0  0  0  0  0  0  0
    7.5188  -12.9536   25.6618 C   0  0  2  0  0  0  0  0  0  0  0  0
    7.2876  -12.2519   24.3461 C   0  0  0  0  0  0  0  0  0  0  0  0
    8.1300  -14.3126   25.4956 C   0  0  2  0  0  0  0  0  0  0  0  0
    7.2782  -15.0948   24.6221 N   0  0  0  0  0  0  0  0  0  0  0  0
    8.4572  -15.0055   26.7427 C   0  0  0  0  0  0  0  0  0  0  0  0
    7.7900  -15.9882   27.1513 O   0  0  0  0  0  0  0  0  0  0  0  0
    9.5238  -14.6136   27.5421 O   0  0  0  0  0  0  0  0  0  0  0  0
  1  2  1  0
  2  4  1  0
  2  3  2  0
  4  5  1  0
  5  6  1  0
  6  8  1  0
  6  7  1  6
  8  9  2  0
 10 11  1  0
 10  8  1  0
 11 12  1  0
 12 13  2  0
 12 19  1  0
 15 14  1  0
 15 16  1  0
 16 18  1  0
 16 17  1  6
 18 20  1  0
 18 19  1  1
 20 22  1  0
 21 20  2  0
M  END
$$$$
