QGI.pdb
     RDKit          3D

 22 21  0  0  1  0  0  0  0  0999 V2000
    9.1046  -14.4140   20.3593 N   0  0  0  0  0  0  0  0  0  0  0  0
    8.3657  -14.4032   19.1482 C   0  0  0  0  0  0  0  0  0  0  0  0
    8.1118  -13.3218   18.5575 O   0  0  0  0  0  0  0  0  0  0  0  0
    7.8920  -15.6749   18.5789 C   0  0  0  0  0  0  0  0  0  0  0  0
    8.3954  -16.8407   19.4068 C   0  0  0  0  0  0  0  0  0  0  0  0
    7.2319  -17.6757   19.9026 C   0  0  2  0  0  0  0  0  0  0  0  0
    5.9945  -17.1906   19.3553 N   0  0  0  0  0  0  0  0  0  0  0  0
    7.2229  -17.6263   21.3956 C   0  0  0  0  0  0  0  0  0  0  0  0
    8.1721  -18.1874   22.0156 O   0  0  0  0  0  0  0  0  0  0  0  0
    6.1932  -16.9773   22.0990 N   0  0  0  0  0  0  0  0  0  0  0  0
    6.2072  -16.9525   23.5560 C   0  0  0  0  0  0  0  0  0  0  0  0
    7.2182  -16.0022   24.0663 C   0  0  0  0  0  0  0  0  0  0  0  0
    8.0164  -15.4721   23.2773 O   0  0  0  0  0  0  0  0  0  0  0  0
    5.7108  -12.0465   26.7702 C   0  0  0  0  0  0  0  0  0  0  0  0
    6.4262  -13.0594   25.8819 C   0  0  0  0  0  0  0  0  0  0  0  0
    7.4883  -13.6977   26.7182 C   0  0  2  0  0  0  0  0  0  0  0  0
    8.3988  -12.6241   27.2615 C   0  0  0  0  0  0  0  0  0  0  0  0
    8.2366  -14.8025   26.0342 C   0  0  2  0  0  0  0  0  0  0  0  0
    7.2745  -15.7027   25.4304 N   0  0  0  0  0  0  0  0  0  0  0  0
    9.2220  -15.4954   26.8654 C   0  0  0  0  0  0  0  0  0  0  0  0
    8.9112  -16.4768   27.5852 O   0  0  0  0  0  0  0  0  0  0  0  0
   10.5548  -15.1050   26.9033 O   0  0  0  0  0  0  0  0  0  0  0  0
  1  2  1  0
  2  4  1  0
  2  3  2  0
  4  5  1  0
  5  6  1  0
  6  8  1  0
  6  7  1  6
  8  9  2  0
 10 11  1  0
 10  8  1  0
 11 12  1  0
 12 13  2  0
 12 19  1  0
 15 14  1  0
 15 16  1  0
 16 18  1  0
 16 17  1  6
 18 20  1  0
 18 19  1  1
 20 22  1  0
 21 20  2  0
M  END
$$$$
