QGI.pdb
     RDKit          3D

 22 21  0  0  1  0  0  0  0  0999 V2000
    8.7917  -16.3260   14.7378 N   0  0  0  0  0  0  0  0  0  0  0  0
    8.0409  -16.8943   15.7990 C   0  0  0  0  0  0  0  0  0  0  0  0
    6.8423  -16.5631   15.9904 O   0  0  0  0  0  0  0  0  0  0  0  0
    8.6755  -17.8834   16.6849 C   0  0  0  0  0  0  0  0  0  0  0  0
    8.0246  -17.8564   18.0536 C   0  0  0  0  0  0  0  0  0  0  0  0
    8.7112  -16.8396   18.9432 C   0  0  2  0  0  0  0  0  0  0  0  0
   10.1378  -17.0080   18.8928 N   0  0  0  0  0  0  0  0  0  0  0  0
    8.1922  -17.0080   20.3338 C   0  0  0  0  0  0  0  0  0  0  0  0
    8.4545  -18.0865   20.9406 O   0  0  0  0  0  0  0  0  0  0  0  0
    7.4336  -16.0021   20.9574 N   0  0  0  0  0  0  0  0  0  0  0  0
    6.9938  -16.1684   22.3368 C   0  0  0  0  0  0  0  0  0  0  0  0
    7.9282  -15.5174   23.2795 C   0  0  0  0  0  0  0  0  0  0  0  0
    9.0909  -15.2721   22.9210 O   0  0  0  0  0  0  0  0  0  0  0  0
    5.8744  -11.7027   26.2359 C   0  0  0  0  0  0  0  0  0  0  0  0
    6.7504  -12.5859   25.3531 C   0  0  0  0  0  0  0  0  0  0  0  0
    7.5114  -13.4937   26.2649 C   0  0  2  0  0  0  0  0  0  0  0  0
    8.3200  -12.6595   27.2278 C   0  0  0  0  0  0  0  0  0  0  0  0
    8.3349  -14.5313   25.5623 C   0  0  2  0  0  0  0  0  0  0  0  0
    7.5038  -15.1800   24.5678 N   0  0  0  0  0  0  0  0  0  0  0  0
    9.0210  -15.4812   26.4393 C   0  0  0  0  0  0  0  0  0  0  0  0
   10.1070  -15.1989   27.0038 O   0  0  0  0  0  0  0  0  0  0  0  0
    8.5080  -16.7467   26.6949 O   0  0  0  0  0  0  0  0  0  0  0  0
  1  2  1  0
  2  4  1  0
  2  3  2  0
  4  5  1  0
  5  6  1  0
  6  8  1  0
  6  7  1  1
  8  9  2  0
 10 11  1  0
 10  8  1  0
 11 12  1  0
 12 13  2  0
 12 19  1  0
 15 14  1  0
 15 16  1  0
 16 18  1  0
 16 17  1  6
 18 20  1  0
 18 19  1  6
 20 22  1  0
 21 20  2  0
M  END
$$$$
