QGI.pdb
     RDKit          3D

 22 21  0  0  1  0  0  0  0  0999 V2000
    5.7471  -22.0718   24.3263 N   0  0  0  0  0  0  0  0  0  0  0  0
    6.0025  -22.9494   23.2412 C   0  0  0  0  0  0  0  0  0  0  0  0
    6.6364  -24.0222   23.4152 O   0  0  0  0  0  0  0  0  0  0  0  0
    5.5184  -22.5970   21.8969 C   0  0  0  0  0  0  0  0  0  0  0  0
    4.6928  -21.3269   21.9524 C   0  0  0  0  0  0  0  0  0  0  0  0
    5.5748  -20.1153   21.7271 C   0  0  2  0  0  0  0  0  0  0  0  0
    6.9613  -20.4942   21.7285 N   0  0  0  0  0  0  0  0  0  0  0  0
    5.2824  -19.1175   22.7997 C   0  0  0  0  0  0  0  0  0  0  0  0
    4.1653  -18.5246   22.7728 O   0  0  0  0  0  0  0  0  0  0  0  0
    6.2161  -18.8394   23.8132 N   0  0  0  0  0  0  0  0  0  0  0  0
    5.9393  -17.7995   24.7958 C   0  0  0  0  0  0  0  0  0  0  0  0
    6.8833  -16.6698   24.6612 C   0  0  0  0  0  0  0  0  0  0  0  0
    7.5543  -16.5504   23.6238 O   0  0  0  0  0  0  0  0  0  0  0  0
    5.2804  -12.2073   27.0383 C   0  0  0  0  0  0  0  0  0  0  0  0
    5.8306  -13.2168   26.0359 C   0  0  0  0  0  0  0  0  0  0  0  0
    7.2553  -13.4701   26.4111 C   0  0  2  0  0  0  0  0  0  0  0  0
    8.0280  -12.1779   26.3111 C   0  0  0  0  0  0  0  0  0  0  0  0
    7.9044  -14.5944   25.6607 C   0  0  2  0  0  0  0  0  0  0  0  0
    7.0191  -15.7413   25.6971 N   0  0  0  0  0  0  0  0  0  0  0  0
    9.2703  -14.9152   26.0776 C   0  0  0  0  0  0  0  0  0  0  0  0
    9.5070  -15.6458   27.0715 O   0  0  0  0  0  0  0  0  0  0  0  0
   10.3790  -14.4288   25.3962 O   0  0  0  0  0  0  0  0  0  0  0  0
  1  2  1  0
  2  4  1  0
  2  3  2  0
  4  5  1  0
  5  6  1  0
  6  8  1  0
  6  7  1  1
  8  9  2  0
 10 11  1  0
 10  8  1  0
 11 12  1  0
 12 13  2  0
 12 19  1  0
 15 14  1  0
 15 16  1  0
 16 18  1  0
 16 17  1  6
 18 20  1  0
 18 19  1  1
 20 22  1  0
 21 20  2  0
M  END
$$$$
