NSA.pdb
     RDKit          3D

 20 19  0  0  1  0  0  0  0  0999 V2000
    9.6125  -19.0806   11.0294 N   0  0  0  0  0  0  0  0  0  0  0  0
    8.7260  -19.1381   12.1337 C   0  0  0  0  0  0  0  0  0  0  0  0
    7.5378  -19.4971   11.9407 O   0  0  0  0  0  0  0  0  0  0  0  0
    9.2030  -18.7775   13.4863 C   0  0  0  0  0  0  0  0  0  0  0  0
    8.1045  -18.0005   14.1774 C   0  0  2  0  0  0  0  0  0  0  0  0
    7.8825  -16.7144   13.4977 N   0  0  0  0  0  0  0  0  0  0  0  0
    8.5419  -17.7031   15.5497 C   0  0  0  0  0  0  0  0  0  0  0  0
    9.4600  -16.9108   15.8041 O   0  0  0  0  0  0  0  0  0  0  0  0
    6.2985  -19.3709   18.6894 O   0  0  0  0  0  0  0  0  0  0  0  0
    6.9795  -18.1810   18.8026 C   0  0  0  0  0  0  0  0  0  0  0  0
    8.2602  -18.1569   17.9950 C   0  0  2  0  0  0  0  0  0  0  0  0
    7.8734  -18.3585   16.6231 N   0  0  0  0  0  0  0  0  0  0  0  0
    9.1912  -19.2340   18.4074 C   0  0  0  0  0  0  0  0  0  0  0  0
    9.1775  -20.3461   17.8180 O   0  0  0  0  0  0  0  0  0  0  0  0
   12.4243  -19.5436   20.0779 C   0  0  0  0  0  0  0  0  0  0  0  0
   11.0149  -20.1026   19.8876 C   0  0  2  0  0  0  0  0  0  0  0  0
   10.1203  -19.0556   19.4711 N   0  0  0  0  0  0  0  0  0  0  0  0
   10.5419  -20.8500   21.0554 C   0  0  0  0  0  0  0  0  0  0  0  0
    9.5869  -20.3958   21.7378 O   0  0  0  0  0  0  0  0  0  0  0  0
   11.1026  -22.0477   21.4449 O   0  0  0  0  0  0  0  0  0  0  0  0
  2  3  2  0
  2  1  1  0
  4  2  1  0
  5  4  1  0
  5  6  1  6
  7  8  2  0
  7  5  1  0
  9 10  1  0
 11 10  1  1
 11 12  1  0
 12  7  1  0
 13 11  1  0
 13 17  1  0
 14 13  2  0
 16 15  1  1
 16 17  1  0
 16 18  1  0
 18 20  1  0
 19 18  2  0
M  END
$$$$
