NSA.pdb
     RDKit          3D

 20 19  0  0  1  0  0  0  0  0999 V2000
   14.7326  -19.5664   11.8717 N   0  0  0  0  0  0  0  0  0  0  0  0
   13.3793  -19.3723   12.2451 C   0  0  0  0  0  0  0  0  0  0  0  0
   12.4986  -20.1152   11.7447 O   0  0  0  0  0  0  0  0  0  0  0  0
   13.0216  -18.3083   13.2079 C   0  0  0  0  0  0  0  0  0  0  0  0
   11.7929  -17.5982   12.6845 C   0  0  2  0  0  0  0  0  0  0  0  0
   12.1795  -16.5255   11.7544 N   0  0  0  0  0  0  0  0  0  0  0  0
   11.1041  -16.9681   13.8209 C   0  0  0  0  0  0  0  0  0  0  0  0
   11.6720  -16.1931   14.6033 O   0  0  0  0  0  0  0  0  0  0  0  0
    7.0490  -18.0243   14.5364 O   0  0  0  0  0  0  0  0  0  0  0  0
    7.5126  -16.7341   14.6498 C   0  0  0  0  0  0  0  0  0  0  0  0
    8.9626  -16.6658   15.0809 C   0  0  2  0  0  0  0  0  0  0  0  0
    9.7258  -17.2678   14.0191 N   0  0  0  0  0  0  0  0  0  0  0  0
    9.1981  -17.4112   16.3403 C   0  0  0  0  0  0  0  0  0  0  0  0
    9.6129  -18.5991   16.3077 O   0  0  0  0  0  0  0  0  0  0  0  0
    8.9183  -16.6284   20.0390 C   0  0  0  0  0  0  0  0  0  0  0  0
    9.2449  -17.5201   18.8418 C   0  0  2  0  0  0  0  0  0  0  0  0
    8.9651  -16.8221   17.6151 N   0  0  0  0  0  0  0  0  0  0  0  0
    8.6073  -18.8362   18.9278 C   0  0  0  0  0  0  0  0  0  0  0  0
    7.4769  -19.0136   18.4037 O   0  0  0  0  0  0  0  0  0  0  0  0
    9.1997  -19.9058   19.5646 O   0  0  0  0  0  0  0  0  0  0  0  0
  2  3  2  0
  2  1  1  0
  4  2  1  0
  5  4  1  0
  5  6  1  6
  7  8  2  0
  7  5  1  0
  9 10  1  0
 11 10  1  6
 11 12  1  0
 12  7  1  0
 13 11  1  0
 13 17  1  0
 14 13  2  0
 16 15  1  1
 16 17  1  0
 16 18  1  0
 18 20  1  0
 19 18  2  0
M  END
$$$$
