NSA.pdb
     RDKit          3D

 20 19  0  0  1  0  0  0  0  0999 V2000
   12.9143  -18.4125   17.9498 N   0  0  0  0  0  0  0  0  0  0  0  0
   11.5309  -18.3085   18.2396 C   0  0  0  0  0  0  0  0  0  0  0  0
   10.7875  -19.2960   18.0159 O   0  0  0  0  0  0  0  0  0  0  0  0
   10.9826  -17.0523   18.7948 C   0  0  0  0  0  0  0  0  0  0  0  0
   10.6002  -17.3061   20.2362 C   0  0  2  0  0  0  0  0  0  0  0  0
    9.4778  -18.2550   20.3079 N   0  0  0  0  0  0  0  0  0  0  0  0
   10.1421  -16.0378   20.8230 C   0  0  0  0  0  0  0  0  0  0  0  0
   10.8889  -15.0609   20.9753 O   0  0  0  0  0  0  0  0  0  0  0  0
    6.0072  -15.6187   21.5437 O   0  0  0  0  0  0  0  0  0  0  0  0
    6.8422  -14.5898   21.1745 C   0  0  0  0  0  0  0  0  0  0  0  0
    8.2320  -14.7203   21.7615 C   0  0  2  0  0  0  0  0  0  0  0  0
    8.7800  -15.9399   21.2280 N   0  0  0  0  0  0  0  0  0  0  0  0
    8.1991  -14.8013   23.2412 C   0  0  0  0  0  0  0  0  0  0  0  0
    7.6162  -13.9112   23.9136 O   0  0  0  0  0  0  0  0  0  0  0  0
    7.3839  -16.4976   25.8090 C   0  0  0  0  0  0  0  0  0  0  0  0
    8.7555  -15.9773   25.3810 C   0  0  2  0  0  0  0  0  0  0  0  0
    8.8182  -15.8710   23.9475 N   0  0  0  0  0  0  0  0  0  0  0  0
    9.8577  -16.7477   25.9622 C   0  0  0  0  0  0  0  0  0  0  0  0
   10.6805  -17.3230   25.2033 O   0  0  0  0  0  0  0  0  0  0  0  0
   10.0382  -16.8707   27.3233 O   0  0  0  0  0  0  0  0  0  0  0  0
  2  3  2  0
  2  1  1  0
  4  2  1  0
  5  4  1  0
  5  6  1  6
  7  8  2  0
  7  5  1  0
  9 10  1  0
 11 10  1  6
 11 12  1  0
 12  7  1  0
 13 11  1  0
 13 17  1  0
 14 13  2  0
 16 15  1  6
 16 17  1  0
 16 18  1  0
 18 20  1  0
 19 18  2  0
M  END
$$$$
