NSA.pdb
     RDKit          3D

 20 19  0  0  1  0  0  0  0  0999 V2000
    4.2667  -21.0819   23.2512 N   0  0  0  0  0  0  0  0  0  0  0  0
    4.0908  -19.7450   22.8149 C   0  0  0  0  0  0  0  0  0  0  0  0
    2.9513  -19.3741   22.4380 O   0  0  0  0  0  0  0  0  0  0  0  0
    5.2375  -18.8114   22.8066 C   0  0  0  0  0  0  0  0  0  0  0  0
    5.2368  -18.0822   21.4813 C   0  0  2  0  0  0  0  0  0  0  0  0
    5.0424  -19.0327   20.3748 N   0  0  0  0  0  0  0  0  0  0  0  0
    6.5550  -17.4566   21.2973 C   0  0  0  0  0  0  0  0  0  0  0  0
    7.3940  -17.8845   20.4921 O   0  0  0  0  0  0  0  0  0  0  0  0
    7.2916  -13.8003   23.2945 O   0  0  0  0  0  0  0  0  0  0  0  0
    7.8032  -14.1408   22.0638 C   0  0  0  0  0  0  0  0  0  0  0  0
    8.1224  -15.6165   21.9471 C   0  0  2  0  0  0  0  0  0  0  0  0
    6.8683  -16.3103   22.0824 N   0  0  0  0  0  0  0  0  0  0  0  0
    9.0505  -16.0648   23.0123 C   0  0  0  0  0  0  0  0  0  0  0  0
    8.6018  -16.4880   24.1095 O   0  0  0  0  0  0  0  0  0  0  0  0
   11.2804  -17.9988   24.0128 C   0  0  0  0  0  0  0  0  0  0  0  0
   11.3690  -16.4807   23.8625 C   0  0  2  0  0  0  0  0  0  0  0  0
   10.4630  -16.0318   22.8388 N   0  0  0  0  0  0  0  0  0  0  0  0
   12.7443  -16.0114   23.6773 C   0  0  0  0  0  0  0  0  0  0  0  0
   13.0651  -15.4379   22.6040 O   0  0  0  0  0  0  0  0  0  0  0  0
   13.7170  -16.1700   24.6413 O   0  0  0  0  0  0  0  0  0  0  0  0
  2  3  2  0
  2  1  1  0
  4  2  1  0
  5  4  1  0
  5  6  1  6
  7  8  2  0
  7  5  1  0
  9 10  1  0
 11 10  1  1
 11 12  1  0
 12  7  1  0
 13 11  1  0
 13 17  1  0
 14 13  2  0
 16 15  1  6
 16 17  1  0
 16 18  1  0
 18 20  1  0
 19 18  2  0
M  END
$$$$
