NSA.pdb
     RDKit          3D

 20 19  0  0  1  0  0  0  0  0999 V2000
   11.8704  -14.8962   11.9510 N   0  0  0  0  0  0  0  0  0  0  0  0
   11.5041  -15.4283   13.2125 C   0  0  0  0  0  0  0  0  0  0  0  0
   12.2117  -16.3348   13.7180 O   0  0  0  0  0  0  0  0  0  0  0  0
   10.3055  -14.9177   13.9122 C   0  0  0  0  0  0  0  0  0  0  0  0
    9.4404  -16.1020   14.2822 C   0  0  2  0  0  0  0  0  0  0  0  0
    8.6740  -16.5606   13.1127 N   0  0  0  0  0  0  0  0  0  0  0  0
    8.4719  -15.6669   15.2998 C   0  0  0  0  0  0  0  0  0  0  0  0
    7.6398  -14.7720   15.0945 O   0  0  0  0  0  0  0  0  0  0  0  0
    8.0405  -18.0707   18.6789 O   0  0  0  0  0  0  0  0  0  0  0  0
    7.0505  -17.2585   18.1763 C   0  0  0  0  0  0  0  0  0  0  0  0
    7.5842  -15.9541   17.6224 C   0  0  2  0  0  0  0  0  0  0  0  0
    8.5004  -16.3098   16.5705 N   0  0  0  0  0  0  0  0  0  0  0  0
    8.3014  -15.1699   18.6556 C   0  0  0  0  0  0  0  0  0  0  0  0
    9.5137  -15.4021   18.9021 O   0  0  0  0  0  0  0  0  0  0  0  0
    7.4856  -12.2668   20.9387 C   0  0  0  0  0  0  0  0  0  0  0  0
    8.2872  -13.4988   20.5208 C   0  0  2  0  0  0  0  0  0  0  0  0
    7.6559  -14.1418   19.3991 N   0  0  0  0  0  0  0  0  0  0  0  0
    8.5572  -14.4031   21.6413 C   0  0  0  0  0  0  0  0  0  0  0  0
    7.8436  -15.4279   21.7976 O   0  0  0  0  0  0  0  0  0  0  0  0
    9.5746  -14.1798   22.5444 O   0  0  0  0  0  0  0  0  0  0  0  0
  2  3  2  0
  2  1  1  0
  4  2  1  0
  5  4  1  0
  5  6  1  6
  7  8  2  0
  7  5  1  0
  9 10  1  0
 11 10  1  1
 11 12  1  0
 12  7  1  0
 13 11  1  0
 13 17  1  0
 14 13  2  0
 16 15  1  1
 16 17  1  0
 16 18  1  0
 18 20  1  0
 19 18  2  0
M  END
$$$$
