NSA.pdb
     RDKit          3D

 20 19  0  0  1  0  0  0  0  0999 V2000
    8.2643  -15.0988   14.6698 N   0  0  0  0  0  0  0  0  0  0  0  0
    7.8751  -15.5851   15.9428 C   0  0  0  0  0  0  0  0  0  0  0  0
    6.8429  -16.2954   16.0321 O   0  0  0  0  0  0  0  0  0  0  0  0
    8.6781  -15.2539   17.1397 C   0  0  0  0  0  0  0  0  0  0  0  0
    7.9086  -14.2358   17.9517 C   0  0  2  0  0  0  0  0  0  0  0  0
    7.9539  -12.9191   17.2961 N   0  0  0  0  0  0  0  0  0  0  0  0
    8.5640  -14.0980   19.2610 C   0  0  0  0  0  0  0  0  0  0  0  0
    9.6518  -13.5237   19.4094 O   0  0  0  0  0  0  0  0  0  0  0  0
    6.5424  -15.6753   22.6225 O   0  0  0  0  0  0  0  0  0  0  0  0
    7.3156  -14.5392   22.6828 C   0  0  0  0  0  0  0  0  0  0  0  0
    8.4822  -14.5695   21.7178 C   0  0  2  0  0  0  0  0  0  0  0  0
    7.9102  -14.6510   20.3992 N   0  0  0  0  0  0  0  0  0  0  0  0
    9.3569  -15.7437   21.9484 C   0  0  0  0  0  0  0  0  0  0  0  0
    9.4839  -16.6260   21.0598 O   0  0  0  0  0  0  0  0  0  0  0  0
   12.0279  -17.0705   22.2913 C   0  0  0  0  0  0  0  0  0  0  0  0
   10.9567  -17.0326   23.3804 C   0  0  2  0  0  0  0  0  0  0  0  0
   10.0735  -15.9172   23.1661 N   0  0  0  0  0  0  0  0  0  0  0  0
   11.5228  -17.0833   24.7306 C   0  0  0  0  0  0  0  0  0  0  0  0
   12.3163  -18.0111   25.0365 O   0  0  0  0  0  0  0  0  0  0  0  0
   11.2228  -16.1450   25.6950 O   0  0  0  0  0  0  0  0  0  0  0  0
  2  3  2  0
  2  1  1  0
  4  2  1  0
  5  4  1  0
  5  6  1  6
  7  8  2  0
  7  5  1  0
  9 10  1  0
 11 10  1  1
 11 12  1  0
 12  7  1  0
 13 11  1  0
 13 17  1  0
 14 13  2  0
 16 15  1  6
 16 17  1  0
 16 18  1  0
 18 20  1  0
 19 18  2  0
M  END
$$$$
