NSA.pdb
     RDKit          3D

 20 19  0  0  1  0  0  0  0  0999 V2000
    7.9309  -16.4992   11.5823 N   0  0  0  0  0  0  0  0  0  0  0  0
    7.3575  -15.7954   12.6707 C   0  0  0  0  0  0  0  0  0  0  0  0
    6.1246  -15.9065   12.8839 O   0  0  0  0  0  0  0  0  0  0  0  0
    8.2066  -14.9460   13.5335 C   0  0  0  0  0  0  0  0  0  0  0  0
    8.6725  -15.7854   14.7024 C   0  0  2  0  0  0  0  0  0  0  0  0
    7.5244  -16.1989   15.5248 N   0  0  0  0  0  0  0  0  0  0  0  0
    9.5438  -14.9562   15.5487 C   0  0  0  0  0  0  0  0  0  0  0  0
   10.6778  -14.6007   15.1983 O   0  0  0  0  0  0  0  0  0  0  0  0
    8.3004  -14.2055   19.5899 O   0  0  0  0  0  0  0  0  0  0  0  0
    8.9946  -13.2976   18.8244 C   0  0  0  0  0  0  0  0  0  0  0  0
    9.9098  -13.9574   17.8143 C   0  0  2  0  0  0  0  0  0  0  0  0
    9.0515  -14.5496   16.8219 N   0  0  0  0  0  0  0  0  0  0  0  0
   10.7453  -15.0125   18.4355 C   0  0  0  0  0  0  0  0  0  0  0  0
   10.5903  -16.2188   18.1115 O   0  0  0  0  0  0  0  0  0  0  0  0
   13.4559  -16.3014   18.7610 C   0  0  0  0  0  0  0  0  0  0  0  0
   12.6477  -15.7019   19.9110 C   0  0  2  0  0  0  0  0  0  0  0  0
   11.7377  -14.7067   19.4091 N   0  0  0  0  0  0  0  0  0  0  0  0
   13.4945  -15.2249   21.0071 C   0  0  0  0  0  0  0  0  0  0  0  0
   14.1065  -14.1317   20.8879 O   0  0  0  0  0  0  0  0  0  0  0  0
   13.6515  -15.9290   22.1819 O   0  0  0  0  0  0  0  0  0  0  0  0
  2  3  2  0
  2  1  1  0
  4  2  1  0
  5  4  1  0
  5  6  1  1
  7  8  2  0
  7  5  1  0
  9 10  1  0
 11 10  1  1
 11 12  1  0
 12  7  1  0
 13 11  1  0
 13 17  1  0
 14 13  2  0
 16 15  1  6
 16 17  1  0
 16 18  1  0
 18 20  1  0
 19 18  2  0
M  END
$$$$
