NSA.pdb
     RDKit          3D

 20 19  0  0  1  0  0  0  0  0999 V2000
   12.4879  -17.9757   17.5744 N   0  0  0  0  0  0  0  0  0  0  0  0
   13.3015  -17.4266   18.5966 C   0  0  0  0  0  0  0  0  0  0  0  0
   14.5446  -17.5994   18.5420 O   0  0  0  0  0  0  0  0  0  0  0  0
   12.6859  -16.6658   19.7052 C   0  0  0  0  0  0  0  0  0  0  0  0
   12.0659  -15.4139   19.1251 C   0  0  2  0  0  0  0  0  0  0  0  0
   13.1148  -14.4687   18.7106 N   0  0  0  0  0  0  0  0  0  0  0  0
   11.2750  -14.7593   20.1782 C   0  0  0  0  0  0  0  0  0  0  0  0
   11.7744  -13.9915   21.0126 O   0  0  0  0  0  0  0  0  0  0  0  0
    7.2005  -15.7945   20.4659 O   0  0  0  0  0  0  0  0  0  0  0  0
    7.6119  -14.4934   20.6394 C   0  0  0  0  0  0  0  0  0  0  0  0
    9.0173  -14.3897   21.1936 C   0  0  2  0  0  0  0  0  0  0  0  0
    9.8768  -15.0257   20.2297 N   0  0  0  0  0  0  0  0  0  0  0  0
    9.1465  -15.0796   22.4992 C   0  0  0  0  0  0  0  0  0  0  0  0
    9.6869  -16.2143   22.5677 O   0  0  0  0  0  0  0  0  0  0  0  0
    8.1347  -14.3175   26.0724 C   0  0  0  0  0  0  0  0  0  0  0  0
    8.7051  -15.1982   24.9614 C   0  0  2  0  0  0  0  0  0  0  0  0
    8.6692  -14.4954   23.7064 N   0  0  0  0  0  0  0  0  0  0  0  0
    8.0783  -16.5213   24.9124 C   0  0  0  0  0  0  0  0  0  0  0  0
    7.0484  -16.6945   24.2101 O   0  0  0  0  0  0  0  0  0  0  0  0
    8.5746  -17.6021   25.6096 O   0  0  0  0  0  0  0  0  0  0  0  0
  2  3  2  0
  2  1  1  0
  4  2  1  0
  5  4  1  0
  5  6  1  1
  7  8  2  0
  7  5  1  0
  9 10  1  0
 11 10  1  6
 11 12  1  0
 12  7  1  0
 13 11  1  0
 13 17  1  0
 14 13  2  0
 16 15  1  1
 16 17  1  0
 16 18  1  0
 18 20  1  0
 19 18  2  0
M  END
$$$$
