NSA.pdb
     RDKit          3D

 20 19  0  0  1  0  0  0  0  0999 V2000
   11.5786  -19.2180   19.8068 N   0  0  0  0  0  0  0  0  0  0  0  0
   12.3215  -18.3703   20.6659 C   0  0  0  0  0  0  0  0  0  0  0  0
   13.5735  -18.4702   20.6836 O   0  0  0  0  0  0  0  0  0  0  0  0
   11.6230  -17.3890   21.5239 C   0  0  0  0  0  0  0  0  0  0  0  0
   10.1344  -17.5762   21.3316 C   0  0  2  0  0  0  0  0  0  0  0  0
    9.7471  -17.2175   19.9580 N   0  0  0  0  0  0  0  0  0  0  0  0
    9.4320  -16.6580   22.2407 C   0  0  0  0  0  0  0  0  0  0  0  0
    9.1106  -15.5067   21.9144 O   0  0  0  0  0  0  0  0  0  0  0  0
    7.7402  -18.2743   25.7103 O   0  0  0  0  0  0  0  0  0  0  0  0
    7.2828  -17.1618   25.0429 C   0  0  0  0  0  0  0  0  0  0  0  0
    8.4029  -16.3028   24.4945 C   0  0  2  0  0  0  0  0  0  0  0  0
    9.1117  -17.1239   23.5480 N   0  0  0  0  0  0  0  0  0  0  0  0
    9.3342  -15.8657   25.5615 C   0  0  0  0  0  0  0  0  0  0  0  0
   10.4106  -16.4874   25.7596 O   0  0  0  0  0  0  0  0  0  0  0  0
    9.5062  -12.9913   28.0143 C   0  0  0  0  0  0  0  0  0  0  0  0
    9.9053  -14.3687   27.4862 C   0  0  2  0  0  0  0  0  0  0  0  0
    9.0500  -14.7450   26.3921 N   0  0  0  0  0  0  0  0  0  0  0  0
    9.9838  -15.3779   28.5451 C   0  0  0  0  0  0  0  0  0  0  0  0
   10.8094  -15.2301   29.4834 O   0  0  0  0  0  0  0  0  0  0  0  0
    9.1803  -16.4981   28.5614 O   0  0  0  0  0  0  0  0  0  0  0  0
  2  3  2  0
  2  1  1  0
  4  2  1  0
  5  4  1  0
  5  6  1  6
  7  8  2  0
  7  5  1  0
  9 10  1  0
 11 10  1  1
 11 12  1  0
 12  7  1  0
 13 11  1  0
 13 17  1  0
 14 13  2  0
 16 15  1  1
 16 17  1  0
 16 18  1  0
 18 20  1  0
 19 18  2  0
M  END
$$$$
