SRQ.pdb
     RDKit          3D

 27 26  0  0  1  0  0  0  0  0999 V2000
   13.9116  -19.4631   18.8339 O   0  0  0  0  0  0  0  0  0  0  0  0
   12.6733  -18.8744   18.5926 C   0  0  0  0  0  0  0  0  0  0  0  0
   12.7975  -17.3685   18.6767 C   0  0  2  0  0  0  0  0  0  0  0  0
   14.1255  -16.9499   18.3516 N   0  0  0  0  0  0  0  0  0  0  0  0
   12.4066  -16.8641   20.0186 C   0  0  0  0  0  0  0  0  0  0  0  0
   13.2707  -16.6954   20.9203 O   0  0  0  0  0  0  0  0  0  0  0  0
    7.7646  -13.8129   17.4266 N   0  0  0  0  0  0  0  0  0  0  0  0
    8.0216  -13.0348   18.5883 C   0  0  0  0  0  0  0  0  0  0  0  0
    8.9678  -12.1572   18.5963 N   0  0  0  0  0  0  0  0  0  0  0  0
    7.2714  -13.1696   19.7871 N   0  0  0  0  0  0  0  0  0  0  0  0
    7.5166  -14.2247   20.7160 C   0  0  0  0  0  0  0  0  0  0  0  0
    8.9775  -14.5723   20.8745 C   0  0  0  0  0  0  0  0  0  0  0  0
    9.2012  -15.7632   21.7637 C   0  0  0  0  0  0  0  0  0  0  0  0
   10.6651  -16.1470   21.6660 C   0  0  2  0  0  0  0  0  0  0  0  0
   11.0613  -16.5508   20.3511 N   0  0  0  0  0  0  0  0  0  0  0  0
   10.8423  -17.2890   22.6237 C   0  0  0  0  0  0  0  0  0  0  0  0
   10.5019  -18.4577   22.2878 O   0  0  0  0  0  0  0  0  0  0  0  0
    9.2299  -11.7212   19.5045 N   0  0  0  0  0  0  0  0  0  0  0  0
   15.7147  -20.2032   23.3215 C   0  0  0  0  0  0  0  0  0  0  0  0
   14.7754  -20.2545   24.4270 O   0  0  0  0  0  0  0  0  0  0  0  0
   15.2249  -20.7336   25.4726 C   0  0  0  0  0  0  0  0  0  0  0  0
   13.4212  -19.7737   24.2799 C   0  0  0  0  0  0  0  0  0  0  0  0
   12.9785  -18.5755   25.0077 C   0  0  2  0  0  0  0  0  0  0  0  0
   11.5499  -18.1658   24.8943 N   0  0  0  0  0  0  0  0  0  0  0  0
   11.3898  -17.0930   23.9163 C   0  0  0  0  0  0  0  0  0  0  0  0
   10.8211  -17.8924   26.1240 O   0  0  0  0  0  0  0  0  0  0  0  0
   10.6928  -18.7965   27.1626 O   0  0  0  0  0  0  0  0  0  0  0  0
  1  2  1  0
  2  3  1  0
  3  5  1  0
  3  4  1  1
  5 15  1  0
  6  5  2  0
  8  7  1  0
  8 10  1  0
  9  8  2  0
 11 10  1  0
 12 11  1  0
 13 12  1  0
 14 13  1  6
 15 14  1  0
 16 14  1  0
 16 24  1  0
 17 16  2  0
 18 19  1  0
 19 21  1  0
 20 19  2  0
 21 22  1  0
 23 24  1  0
 23 22  1  6
 25 23  1  0
 26 25  1  0
 27 25  2  0
M  END
$$$$
