SRQ.pdb
     RDKit          3D

 27 26  0  0  1  0  0  0  0  0999 V2000
    5.4890  -20.9617   25.4079 O   0  0  0  0  0  0  0  0  0  0  0  0
    4.8279  -21.0714   24.1877 C   0  0  0  0  0  0  0  0  0  0  0  0
    5.8246  -20.9622   23.0542 C   0  0  2  0  0  0  0  0  0  0  0  0
    6.7033  -22.0901   23.0406 N   0  0  0  0  0  0  0  0  0  0  0  0
    6.6016  -19.6980   23.1323 C   0  0  0  0  0  0  0  0  0  0  0  0
    7.7784  -19.6918   23.5832 O   0  0  0  0  0  0  0  0  0  0  0  0
    8.3044  -11.4983   20.0318 N   0  0  0  0  0  0  0  0  0  0  0  0
    8.3963  -12.7480   19.3604 C   0  0  0  0  0  0  0  0  0  0  0  0
    9.2693  -12.9312   18.4277 N   0  0  0  0  0  0  0  0  0  0  0  0
    7.5532  -13.8500   19.6652 N   0  0  0  0  0  0  0  0  0  0  0  0
    6.7748  -13.8966   20.8602 C   0  0  0  0  0  0  0  0  0  0  0  0
    7.1859  -14.9918   21.8151 C   0  0  0  0  0  0  0  0  0  0  0  0
    6.2662  -16.1797   21.7720 C   0  0  0  0  0  0  0  0  0  0  0  0
    6.8480  -17.2503   22.6748 C   0  0  2  0  0  0  0  0  0  0  0  0
    6.0686  -18.4504   22.7103 N   0  0  0  0  0  0  0  0  0  0  0  0
    6.8965  -16.6348   24.0428 C   0  0  0  0  0  0  0  0  0  0  0  0
    5.8286  -16.4290   24.6845 O   0  0  0  0  0  0  0  0  0  0  0  0
    9.2936  -13.8546   17.9478 N   0  0  0  0  0  0  0  0  0  0  0  0
   10.3965  -18.2814   28.8278 C   0  0  0  0  0  0  0  0  0  0  0  0
    9.8653  -16.9928   29.2337 O   0  0  0  0  0  0  0  0  0  0  0  0
   10.0650  -16.6941   30.4151 C   0  0  0  0  0  0  0  0  0  0  0  0
    9.1583  -16.1481   28.2992 C   0  0  0  0  0  0  0  0  0  0  0  0
    8.9747  -16.5787   26.9055 C   0  0  2  0  0  0  0  0  0  0  0  0
    8.2242  -15.6825   25.9808 N   0  0  0  0  0  0  0  0  0  0  0  0
    8.1257  -16.2712   24.6477 C   0  0  0  0  0  0  0  0  0  0  0  0
    8.6124  -14.2809   25.9277 O   0  0  0  0  0  0  0  0  0  0  0  0
    9.2706  -13.7022   24.8579 O   0  0  0  0  0  0  0  0  0  0  0  0
  1  2  1  0
  2  3  1  0
  3  5  1  0
  3  4  1  1
  5 15  1  0
  6  5  2  0
  8  7  1  0
  8 10  1  0
  9  8  2  0
 11 10  1  0
 12 11  1  0
 13 12  1  0
 14 13  1  6
 15 14  1  0
 16 14  1  0
 16 24  1  0
 17 16  2  0
 18 19  1  0
 19 21  1  0
 20 19  2  0
 21 22  1  0
 23 24  1  0
 23 22  1  1
 25 23  1  0
 26 25  1  0
 27 25  2  0
M  END
$$$$
