SRQ.pdb
     RDKit          3D

 27 26  0  0  1  0  0  0  0  0999 V2000
   12.0353  -20.7792   18.9418 O   0  0  0  0  0  0  0  0  0  0  0  0
   12.7322  -20.1056   17.9424 C   0  0  0  0  0  0  0  0  0  0  0  0
   12.0817  -18.7647   17.6798 C   0  0  2  0  0  0  0  0  0  0  0  0
   12.7752  -18.0575   16.6486 N   0  0  0  0  0  0  0  0  0  0  0  0
   12.0091  -17.9434   18.9160 C   0  0  0  0  0  0  0  0  0  0  0  0
   13.0349  -17.3673   19.3678 O   0  0  0  0  0  0  0  0  0  0  0  0
    8.1812  -12.8001   18.5173 N   0  0  0  0  0  0  0  0  0  0  0  0
    7.6904  -12.8863   19.8486 C   0  0  0  0  0  0  0  0  0  0  0  0
    7.5961  -11.8304   20.5847 N   0  0  0  0  0  0  0  0  0  0  0  0
    7.2816  -14.1110   20.4412 N   0  0  0  0  0  0  0  0  0  0  0  0
    7.3807  -15.3545   19.7484 C   0  0  0  0  0  0  0  0  0  0  0  0
    8.7866  -15.8999   19.6695 C   0  0  0  0  0  0  0  0  0  0  0  0
    9.3149  -16.3476   21.0035 C   0  0  0  0  0  0  0  0  0  0  0  0
   10.7055  -16.9122   20.7863 C   0  0  2  0  0  0  0  0  0  0  0  0
   10.8007  -17.7668   19.6419 N   0  0  0  0  0  0  0  0  0  0  0  0
   11.0178  -17.6916   22.0304 C   0  0  0  0  0  0  0  0  0  0  0  0
   11.4007  -18.8920   21.9481 O   0  0  0  0  0  0  0  0  0  0  0  0
    7.2398  -11.9359   21.5571 N   0  0  0  0  0  0  0  0  0  0  0  0
   15.9534  -16.1895   22.8262 C   0  0  0  0  0  0  0  0  0  0  0  0
   15.7358  -16.5441   24.2169 O   0  0  0  0  0  0  0  0  0  0  0  0
   16.7399  -16.4884   24.9335 C   0  0  0  0  0  0  0  0  0  0  0  0
   14.4282  -16.9311   24.6936 C   0  0  0  0  0  0  0  0  0  0  0  0
   13.2689  -16.8876   23.7905 C   0  0  1  0  0  0  0  0  0  0  0  0
   11.9249  -17.2104   24.3480 N   0  0  0  0  0  0  0  0  0  0  0  0
   10.8942  -17.1116   23.3178 C   0  0  0  0  0  0  0  0  0  0  0  0
   11.5239  -16.5510   25.5818 O   0  0  0  0  0  0  0  0  0  0  0  0
   11.9478  -16.9418   26.8388 O   0  0  0  0  0  0  0  0  0  0  0  0
  1  2  1  0
  2  3  1  0
  3  5  1  0
  3  4  1  6
  5 15  1  0
  6  5  2  0
  8  7  1  0
  8 10  1  0
  9  8  2  0
 11 10  1  0
 12 11  1  0
 13 12  1  0
 14 13  1  1
 15 14  1  0
 16 14  1  0
 16 24  1  0
 17 16  2  0
 18 19  1  0
 19 21  1  0
 20 19  2  0
 21 22  1  0
 23 24  1  0
 23 22  1  6
 25 23  1  0
 26 25  1  0
 27 25  2  0
M  END
$$$$
