SRQ.pdb
     RDKit          3D

 27 26  0  0  1  0  0  0  0  0999 V2000
    6.2817  -20.3656   26.6647 O   0  0  0  0  0  0  0  0  0  0  0  0
    6.9464  -19.3501   25.9829 C   0  0  0  0  0  0  0  0  0  0  0  0
    6.4525  -19.2848   24.5539 C   0  0  2  0  0  0  0  0  0  0  0  0
    6.2878  -20.5983   24.0134 N   0  0  0  0  0  0  0  0  0  0  0  0
    7.3640  -18.4807   23.6991 C   0  0  0  0  0  0  0  0  0  0  0  0
    8.2801  -19.0351   23.0345 O   0  0  0  0  0  0  0  0  0  0  0  0
    7.9712  -13.9114   18.0686 N   0  0  0  0  0  0  0  0  0  0  0  0
    7.8008  -12.8911   19.0438 C   0  0  0  0  0  0  0  0  0  0  0  0
    8.3437  -11.7312   18.8842 N   0  0  0  0  0  0  0  0  0  0  0  0
    7.0401  -13.0777   20.2290 N   0  0  0  0  0  0  0  0  0  0  0  0
    6.1852  -14.2062   20.4070 C   0  0  0  0  0  0  0  0  0  0  0  0
    6.8595  -15.3860   21.0656 C   0  0  0  0  0  0  0  0  0  0  0  0
    7.6338  -15.0040   22.2959 C   0  0  0  0  0  0  0  0  0  0  0  0
    8.2166  -16.2718   22.8899 C   0  0  2  0  0  0  0  0  0  0  0  0
    7.2535  -17.0687   23.5874 N   0  0  0  0  0  0  0  0  0  0  0  0
    9.2820  -15.8125   23.8421 C   0  0  0  0  0  0  0  0  0  0  0  0
    9.0042  -14.9847   24.7541 O   0  0  0  0  0  0  0  0  0  0  0  0
    8.1715  -11.0013   19.6062 N   0  0  0  0  0  0  0  0  0  0  0  0
    9.5802  -18.6398   28.2316 C   0  0  0  0  0  0  0  0  0  0  0  0
   10.9124  -18.0779   28.3613 O   0  0  0  0  0  0  0  0  0  0  0  0
   11.4364  -18.2265   29.4695 C   0  0  0  0  0  0  0  0  0  0  0  0
   11.5481  -17.3995   27.2557 C   0  0  0  0  0  0  0  0  0  0  0  0
   10.8006  -17.1450   26.0156 C   0  0  1  0  0  0  0  0  0  0  0  0
   11.4973  -16.4431   24.9005 N   0  0  0  0  0  0  0  0  0  0  0  0
   10.6140  -16.2879   23.7477 C   0  0  0  0  0  0  0  0  0  0  0  0
   12.8158  -16.9225   24.5133 O   0  0  0  0  0  0  0  0  0  0  0  0
   13.9939  -16.5013   25.1024 O   0  0  0  0  0  0  0  0  0  0  0  0
  1  2  1  0
  2  3  1  0
  3  5  1  0
  3  4  1  6
  5 15  1  0
  6  5  2  0
  8  7  1  0
  8 10  1  0
  9  8  2  0
 11 10  1  0
 12 11  1  0
 13 12  1  0
 14 13  1  1
 15 14  1  0
 16 14  1  0
 16 24  1  0
 17 16  2  0
 18 19  1  0
 19 21  1  0
 20 19  2  0
 21 22  1  0
 23 24  1  0
 23 22  1  1
 25 23  1  0
 26 25  1  0
 27 25  2  0
M  END
$$$$
