SRQ.pdb
     RDKit          3D

 27 26  0  0  1  0  0  0  0  0999 V2000
   11.2598  -12.3543   18.7098 O   0  0  0  0  0  0  0  0  0  0  0  0
   10.8426  -13.5795   19.2224 C   0  0  0  0  0  0  0  0  0  0  0  0
    9.3324  -13.6655   19.1773 C   0  0  2  0  0  0  0  0  0  0  0  0
    8.7524  -12.3620   19.0832 N   0  0  0  0  0  0  0  0  0  0  0  0
    8.7930  -14.3914   20.3563 C   0  0  0  0  0  0  0  0  0  0  0  0
    8.2953  -13.7620   21.3281 O   0  0  0  0  0  0  0  0  0  0  0  0
   11.8436  -20.0136   21.8321 N   0  0  0  0  0  0  0  0  0  0  0  0
   11.7023  -20.4601   20.4898 C   0  0  0  0  0  0  0  0  0  0  0  0
   12.7385  -20.7817   19.7909 N   0  0  0  0  0  0  0  0  0  0  0  0
   10.4415  -20.5781   19.8460 N   0  0  0  0  0  0  0  0  0  0  0  0
    9.2545  -20.0145   20.4022 C   0  0  0  0  0  0  0  0  0  0  0  0
    9.4005  -18.5702   20.8183 C   0  0  0  0  0  0  0  0  0  0  0  0
    8.1294  -17.9910   21.3729 C   0  0  0  0  0  0  0  0  0  0  0  0
    8.3595  -16.5113   21.6129 C   0  0  2  0  0  0  0  0  0  0  0  0
    8.8093  -15.8090   20.4495 N   0  0  0  0  0  0  0  0  0  0  0  0
    9.4060  -16.4399   22.6864 C   0  0  0  0  0  0  0  0  0  0  0  0
   10.6179  -16.2606   22.3805 O   0  0  0  0  0  0  0  0  0  0  0  0
   12.5968  -21.0701   18.8008 N   0  0  0  0  0  0  0  0  0  0  0  0
    8.3504  -13.7013   28.3673 C   0  0  0  0  0  0  0  0  0  0  0  0
    9.5409  -14.5141   28.5382 O   0  0  0  0  0  0  0  0  0  0  0  0
    9.9613  -14.5877   29.6969 C   0  0  0  0  0  0  0  0  0  0  0  0
   10.1636  -15.1728   27.4134 C   0  0  0  0  0  0  0  0  0  0  0  0
    9.3799  -15.4762   26.2071 C   0  0  1  0  0  0  0  0  0  0  0  0
   10.0101  -16.3103   25.1448 N   0  0  0  0  0  0  0  0  0  0  0  0
    9.0702  -16.5694   24.0573 C   0  0  0  0  0  0  0  0  0  0  0  0
   10.7120  -17.5175   25.5547 O   0  0  0  0  0  0  0  0  0  0  0  0
   11.9991  -17.5279   26.0605 O   0  0  0  0  0  0  0  0  0  0  0  0
  1  2  1  0
  2  3  1  0
  3  5  1  0
  3  4  1  1
  5 15  1  0
  6  5  2  0
  8  7  1  0
  8 10  1  0
  9  8  2  0
 11 10  1  0
 12 11  1  0
 13 12  1  0
 14 13  1  6
 15 14  1  0
 16 14  1  0
 16 24  1  0
 17 16  2  0
 18 19  1  0
 19 21  1  0
 20 19  2  0
 21 22  1  0
 23 24  1  0
 23 22  1  6
 25 23  1  0
 26 25  1  0
 27 25  2  0
M  END
$$$$
