SRQ.pdb
     RDKit          3D

 27 26  0  0  1  0  0  0  0  0999 V2000
    7.2575  -18.0261   19.4106 O   0  0  0  0  0  0  0  0  0  0  0  0
    8.2445  -18.8014   20.0127 C   0  0  0  0  0  0  0  0  0  0  0  0
    8.8502  -19.7412   18.9928 C   0  0  2  0  0  0  0  0  0  0  0  0
    7.8666  -20.6514   18.4944 N   0  0  0  0  0  0  0  0  0  0  0  0
   10.0079  -20.4831   19.5562 C   0  0  0  0  0  0  0  0  0  0  0  0
    9.8524  -21.6193   20.0788 O   0  0  0  0  0  0  0  0  0  0  0  0
   14.4627  -18.2330   16.5238 N   0  0  0  0  0  0  0  0  0  0  0  0
   14.6848  -19.3943   15.7344 C   0  0  0  0  0  0  0  0  0  0  0  0
   14.4828  -19.3720   14.4599 N   0  0  0  0  0  0  0  0  0  0  0  0
   15.1326  -20.6253   16.2842 N   0  0  0  0  0  0  0  0  0  0  0  0
   15.2778  -20.8150   17.6909 C   0  0  0  0  0  0  0  0  0  0  0  0
   13.9804  -21.1098   18.4051 C   0  0  0  0  0  0  0  0  0  0  0  0
   13.7751  -20.2508   19.6212 C   0  0  0  0  0  0  0  0  0  0  0  0
   12.4206  -20.5955   20.2098 C   0  0  2  0  0  0  0  0  0  0  0  0
   11.3288  -19.9603   19.5362 N   0  0  0  0  0  0  0  0  0  0  0  0
   12.4766  -20.1324   21.6363 C   0  0  0  0  0  0  0  0  0  0  0  0
   12.4204  -18.9002   21.9064 O   0  0  0  0  0  0  0  0  0  0  0  0
   14.7861  -20.1934   13.8970 N   0  0  0  0  0  0  0  0  0  0  0  0
    9.9462  -22.8854   26.7517 C   0  0  0  0  0  0  0  0  0  0  0  0
   10.9153  -21.9469   27.2877 O   0  0  0  0  0  0  0  0  0  0  0  0
   10.9267  -21.8539   28.5190 C   0  0  0  0  0  0  0  0  0  0  0  0
   11.7856  -21.1921   26.4162 C   0  0  0  0  0  0  0  0  0  0  0  0
   11.7954  -21.4573   24.9702 C   0  0  1  0  0  0  0  0  0  0  0  0
   12.7022  -20.6473   24.1081 N   0  0  0  0  0  0  0  0  0  0  0  0
   12.5924  -21.0518   22.7089 C   0  0  0  0  0  0  0  0  0  0  0  0
   14.0894  -20.5051   24.5247 O   0  0  0  0  0  0  0  0  0  0  0  0
   14.5084  -19.6633   25.5387 O   0  0  0  0  0  0  0  0  0  0  0  0
  1  2  1  0
  2  3  1  0
  3  5  1  0
  3  4  1  1
  5 15  1  0
  6  5  2  0
  8  7  1  0
  8 10  1  0
  9  8  2  0
 11 10  1  0
 12 11  1  0
 13 12  1  0
 14 13  1  6
 15 14  1  0
 16 14  1  0
 16 24  1  0
 17 16  2  0
 18 19  1  0
 19 21  1  0
 20 19  2  0
 21 22  1  0
 23 24  1  0
 23 22  1  6
 25 23  1  0
 26 25  1  0
 27 25  2  0
M  END
$$$$
