SRQ.pdb
     RDKit          3D

 27 26  0  0  1  0  0  0  0  0999 V2000
    7.4127  -22.5186   20.0045 O   0  0  0  0  0  0  0  0  0  0  0  0
    6.3440  -21.6442   19.8277 C   0  0  0  0  0  0  0  0  0  0  0  0
    6.6350  -20.7067   18.6760 C   0  0  2  0  0  0  0  0  0  0  0  0
    6.7228  -21.4277   17.4444 N   0  0  0  0  0  0  0  0  0  0  0  0
    7.8765  -19.9247   18.9110 C   0  0  0  0  0  0  0  0  0  0  0  0
    8.9856  -20.3286   18.4694 O   0  0  0  0  0  0  0  0  0  0  0  0
    7.7232  -11.5967   20.3286 N   0  0  0  0  0  0  0  0  0  0  0  0
    7.6490  -12.7123   21.2065 C   0  0  0  0  0  0  0  0  0  0  0  0
    7.2951  -12.5580   22.4380 N   0  0  0  0  0  0  0  0  0  0  0  0
    7.9526  -14.0377   20.7951 N   0  0  0  0  0  0  0  0  0  0  0  0
    8.1613  -14.3731   19.4240 C   0  0  0  0  0  0  0  0  0  0  0  0
    8.3640  -15.8495   19.1799 C   0  0  0  0  0  0  0  0  0  0  0  0
    8.8736  -16.5772   20.3922 C   0  0  0  0  0  0  0  0  0  0  0  0
    9.0865  -18.0285   20.0071 C   0  0  2  0  0  0  0  0  0  0  0  0
    7.8795  -18.7013   19.6334 N   0  0  0  0  0  0  0  0  0  0  0  0
    9.6766  -18.6809   21.2232 C   0  0  0  0  0  0  0  0  0  0  0  0
    8.9234  -19.1214   22.1359 O   0  0  0  0  0  0  0  0  0  0  0  0
    7.2815  -13.3949   23.0569 N   0  0  0  0  0  0  0  0  0  0  0  0
   16.2727  -19.9426   20.7381 C   0  0  0  0  0  0  0  0  0  0  0  0
   14.8532  -19.8537   20.4476 O   0  0  0  0  0  0  0  0  0  0  0  0
   14.5071  -20.3569   19.3744 C   0  0  0  0  0  0  0  0  0  0  0  0
   13.9408  -19.2150   21.3676 C   0  0  0  0  0  0  0  0  0  0  0  0
   13.0299  -20.0258   22.1886 C   0  0  1  0  0  0  0  0  0  0  0  0
   11.6983  -19.4565   22.5411 N   0  0  0  0  0  0  0  0  0  0  0  0
   11.0782  -18.8207   21.3815 C   0  0  0  0  0  0  0  0  0  0  0  0
   11.6083  -18.6223   23.7302 O   0  0  0  0  0  0  0  0  0  0  0  0
   11.1607  -17.3138   23.7231 O   0  0  0  0  0  0  0  0  0  0  0  0
  1  2  1  0
  2  3  1  0
  3  5  1  0
  3  4  1  6
  5 15  1  0
  6  5  2  0
  8  7  1  0
  8 10  1  0
  9  8  2  0
 11 10  1  0
 12 11  1  0
 13 12  1  0
 14 13  1  1
 15 14  1  0
 16 14  1  0
 16 24  1  0
 17 16  2  0
 18 19  1  0
 19 21  1  0
 20 19  2  0
 21 22  1  0
 23 24  1  0
 23 22  1  6
 25 23  1  0
 26 25  1  0
 27 25  2  0
M  END
$$$$
