SRQ.pdb
     RDKit          3D

 27 26  0  0  1  0  0  0  0  0999 V2000
    5.2563  -21.0906   24.4548 O   0  0  0  0  0  0  0  0  0  0  0  0
    4.4859  -20.4933   23.4610 C   0  0  0  0  0  0  0  0  0  0  0  0
    5.3851  -19.9679   22.3630 C   0  0  2  0  0  0  0  0  0  0  0  0
    6.0329  -21.0437   21.6793 N   0  0  0  0  0  0  0  0  0  0  0  0
    6.3885  -19.0088   22.8933 C   0  0  0  0  0  0  0  0  0  0  0  0
    7.5002  -19.4138   23.3275 O   0  0  0  0  0  0  0  0  0  0  0  0
    7.8756  -11.8915   20.0062 N   0  0  0  0  0  0  0  0  0  0  0  0
    8.2779  -13.0086   19.2244 C   0  0  0  0  0  0  0  0  0  0  0  0
    8.8159  -12.8397   18.0635 N   0  0  0  0  0  0  0  0  0  0  0  0
    8.1175  -14.3514   19.6597 N   0  0  0  0  0  0  0  0  0  0  0  0
    7.1853  -14.7077   20.6795 C   0  0  0  0  0  0  0  0  0  0  0  0
    7.7941  -14.8023   22.0582 C   0  0  0  0  0  0  0  0  0  0  0  0
    6.8063  -15.2377   23.1040 C   0  0  0  0  0  0  0  0  0  0  0  0
    7.1107  -16.6806   23.4580 C   0  0  2  0  0  0  0  0  0  0  0  0
    6.1525  -17.6085   22.9385 N   0  0  0  0  0  0  0  0  0  0  0  0
    7.1070  -16.7320   24.9580 C   0  0  0  0  0  0  0  0  0  0  0  0
    6.0250  -16.9090   25.5844 O   0  0  0  0  0  0  0  0  0  0  0  0
    9.1534  -13.6788   17.5483 N   0  0  0  0  0  0  0  0  0  0  0  0
    7.2423  -21.5067   26.8610 C   0  0  0  0  0  0  0  0  0  0  0  0
    7.8827  -20.9424   28.0352 O   0  0  0  0  0  0  0  0  0  0  0  0
    8.0093  -21.7202   28.9858 C   0  0  0  0  0  0  0  0  0  0  0  0
    8.3252  -19.5674   28.0568 C   0  0  0  0  0  0  0  0  0  0  0  0
    8.1299  -18.7089   26.8794 C   0  0  1  0  0  0  0  0  0  0  0  0
    8.5539  -17.2826   26.9651 N   0  0  0  0  0  0  0  0  0  0  0  0
    8.3017  -16.5858   25.7066 C   0  0  0  0  0  0  0  0  0  0  0  0
    9.8827  -16.9982   27.4862 O   0  0  0  0  0  0  0  0  0  0  0  0
   10.2264  -17.1009   28.8218 O   0  0  0  0  0  0  0  0  0  0  0  0
  1  2  1  0
  2  3  1  0
  3  5  1  0
  3  4  1  1
  5 15  1  0
  6  5  2  0
  8  7  1  0
  8 10  1  0
  9  8  2  0
 11 10  1  0
 12 11  1  0
 13 12  1  0
 14 13  1  1
 15 14  1  0
 16 14  1  0
 16 24  1  0
 17 16  2  0
 18 19  1  0
 19 21  1  0
 20 19  2  0
 21 22  1  0
 23 24  1  0
 23 22  1  1
 25 23  1  0
 26 25  1  0
 27 25  2  0
M  END
$$$$
