SRQ.pdb
     RDKit          3D

 27 26  0  0  1  0  0  0  0  0999 V2000
   19.4093  -17.4783   14.4829 O   0  0  0  0  0  0  0  0  0  0  0  0
   18.5996  -18.5319   14.0677 C   0  0  0  0  0  0  0  0  0  0  0  0
   17.1983  -18.0263   13.8017 C   0  0  2  0  0  0  0  0  0  0  0  0
   17.2066  -17.0170   12.7890 N   0  0  0  0  0  0  0  0  0  0  0  0
   16.5597  -17.5142   15.0419 C   0  0  0  0  0  0  0  0  0  0  0  0
   15.6165  -16.6804   14.9838 O   0  0  0  0  0  0  0  0  0  0  0  0
   11.3907  -20.4164   16.4994 N   0  0  0  0  0  0  0  0  0  0  0  0
   12.3968  -21.4196   16.5504 C   0  0  0  0  0  0  0  0  0  0  0  0
   12.4547  -22.3397   15.6473 N   0  0  0  0  0  0  0  0  0  0  0  0
   13.3800  -21.4730   17.5743 N   0  0  0  0  0  0  0  0  0  0  0  0
   13.7523  -20.3174   18.3240 C   0  0  0  0  0  0  0  0  0  0  0  0
   15.0265  -19.6630   17.8458 C   0  0  0  0  0  0  0  0  0  0  0  0
   14.8675  -18.1897   17.5947 C   0  0  0  0  0  0  0  0  0  0  0  0
   16.2537  -17.5785   17.5244 C   0  0  2  0  0  0  0  0  0  0  0  0
   16.9712  -17.9298   16.3367 N   0  0  0  0  0  0  0  0  0  0  0  0
   16.9802  -18.0991   18.7301 C   0  0  0  0  0  0  0  0  0  0  0  0
   17.3530  -19.3047   18.7752 O   0  0  0  0  0  0  0  0  0  0  0  0
   13.1758  -23.0840   15.7456 N   0  0  0  0  0  0  0  0  0  0  0  0
   21.8010  -14.8209   20.0100 C   0  0  0  0  0  0  0  0  0  0  0  0
   21.8073  -15.7574   21.1190 O   0  0  0  0  0  0  0  0  0  0  0  0
   22.8326  -15.7455   21.8070 C   0  0  0  0  0  0  0  0  0  0  0  0
   20.6809  -16.6264   21.3696 C   0  0  0  0  0  0  0  0  0  0  0  0
   19.4517  -16.4921   20.5742 C   0  0  2  0  0  0  0  0  0  0  0  0
   18.3727  -17.5029   20.7626 N   0  0  0  0  0  0  0  0  0  0  0  0
   17.2662  -17.2645   19.8395 C   0  0  0  0  0  0  0  0  0  0  0  0
   17.9046  -17.7537   22.1176 O   0  0  0  0  0  0  0  0  0  0  0  0
   18.6574  -18.3875   23.0894 O   0  0  0  0  0  0  0  0  0  0  0  0
  1  2  1  0
  2  3  1  0
  3  5  1  0
  3  4  1  6
  5 15  1  0
  6  5  2  0
  8  7  1  0
  8 10  1  0
  9  8  2  0
 11 10  1  0
 12 11  1  0
 13 12  1  0
 14 13  1  6
 15 14  1  0
 16 14  1  0
 16 24  1  0
 17 16  2  0
 18 19  1  0
 19 21  1  0
 20 19  2  0
 21 22  1  0
 23 24  1  0
 23 22  1  6
 25 23  1  0
 26 25  1  0
 27 25  2  0
M  END
$$$$
