SRQ.pdb
     RDKit          3D

 27 26  0  0  1  0  0  0  0  0999 V2000
   14.6057  -16.9767   18.1976 O   0  0  0  0  0  0  0  0  0  0  0  0
   13.6802  -16.5943   17.2307 C   0  0  0  0  0  0  0  0  0  0  0  0
   13.4383  -15.1028   17.3155 C   0  0  2  0  0  0  0  0  0  0  0  0
   14.6059  -14.3762   16.9245 N   0  0  0  0  0  0  0  0  0  0  0  0
   13.0054  -14.6982   18.6783 C   0  0  0  0  0  0  0  0  0  0  0  0
   13.8402  -14.2657   19.5175 O   0  0  0  0  0  0  0  0  0  0  0  0
    7.3773  -12.2713   16.6458 N   0  0  0  0  0  0  0  0  0  0  0  0
    7.8727  -13.6038   16.6394 C   0  0  0  0  0  0  0  0  0  0  0  0
    8.1372  -14.2020   15.5268 N   0  0  0  0  0  0  0  0  0  0  0  0
    8.1032  -14.3456   17.8288 N   0  0  0  0  0  0  0  0  0  0  0  0
    7.8978  -13.7800   19.1226 C   0  0  0  0  0  0  0  0  0  0  0  0
    9.1752  -13.4063   19.8361 C   0  0  0  0  0  0  0  0  0  0  0  0
    9.7447  -14.5379   20.6448 C   0  0  0  0  0  0  0  0  0  0  0  0
   11.2491  -14.5345   20.4530 C   0  0  2  0  0  0  0  0  0  0  0  0
   11.6510  -14.7759   19.1005 N   0  0  0  0  0  0  0  0  0  0  0  0
   11.7663  -15.6290   21.3402 C   0  0  0  0  0  0  0  0  0  0  0  0
   11.7617  -16.8265   20.9396 O   0  0  0  0  0  0  0  0  0  0  0  0
    8.4919  -15.1800   15.5636 N   0  0  0  0  0  0  0  0  0  0  0  0
   17.1102  -15.4513   24.4140 C   0  0  0  0  0  0  0  0  0  0  0  0
   16.6863  -15.7925   23.0682 O   0  0  0  0  0  0  0  0  0  0  0  0
   17.5886  -15.8118   22.2254 C   0  0  0  0  0  0  0  0  0  0  0  0
   15.3022  -16.0805   22.7712 C   0  0  0  0  0  0  0  0  0  0  0  0
   14.2863  -16.0015   23.8310 C   0  0  2  0  0  0  0  0  0  0  0  0
   12.8814  -16.3674   23.4935 N   0  0  0  0  0  0  0  0  0  0  0  0
   12.2691  -15.3553   22.6369 C   0  0  0  0  0  0  0  0  0  0  0  0
   12.0007  -16.7614   24.5831 O   0  0  0  0  0  0  0  0  0  0  0  0
   12.2959  -17.7619   25.4909 O   0  0  0  0  0  0  0  0  0  0  0  0
  1  2  1  0
  2  3  1  0
  3  5  1  0
  3  4  1  1
  5 15  1  0
  6  5  2  0
  8  7  1  0
  8 10  1  0
  9  8  2  0
 11 10  1  0
 12 11  1  0
 13 12  1  0
 14 13  1  6
 15 14  1  0
 16 14  1  0
 16 24  1  0
 17 16  2  0
 18 19  1  0
 19 21  1  0
 20 19  2  0
 21 22  1  0
 23 24  1  0
 23 22  1  6
 25 23  1  0
 26 25  1  0
 27 25  2  0
M  END
$$$$
