SRQ.pdb
     RDKit          3D

 27 26  0  0  1  0  0  0  0  0999 V2000
    9.9076  -11.4300   19.0436 O   0  0  0  0  0  0  0  0  0  0  0  0
    9.5145  -12.2313   20.1119 C   0  0  0  0  0  0  0  0  0  0  0  0
    8.7778  -13.4480   19.5951 C   0  0  2  0  0  0  0  0  0  0  0  0
    7.5152  -13.0771   19.0359 N   0  0  0  0  0  0  0  0  0  0  0  0
    8.5958  -14.4676   20.6606 C   0  0  0  0  0  0  0  0  0  0  0  0
    7.5163  -14.5383   21.3071 O   0  0  0  0  0  0  0  0  0  0  0  0
   11.3988  -19.3212   18.4132 N   0  0  0  0  0  0  0  0  0  0  0  0
   10.0884  -19.3686   17.8640 C   0  0  0  0  0  0  0  0  0  0  0  0
    9.9073  -19.6480   16.6171 N   0  0  0  0  0  0  0  0  0  0  0  0
    8.9211  -19.1174   18.6337 N   0  0  0  0  0  0  0  0  0  0  0  0
    8.9884  -18.7832   20.0193 C   0  0  0  0  0  0  0  0  0  0  0  0
   10.1947  -17.9539   20.3901 C   0  0  0  0  0  0  0  0  0  0  0  0
   10.2481  -17.6238   21.8554 C   0  0  0  0  0  0  0  0  0  0  0  0
    9.4678  -16.3414   22.0711 C   0  0  2  0  0  0  0  0  0  0  0  0
    9.6113  -15.4009   21.0016 N   0  0  0  0  0  0  0  0  0  0  0  0
   10.0102  -15.7538   23.3412 C   0  0  0  0  0  0  0  0  0  0  0  0
   10.6749  -14.6807   23.3111 O   0  0  0  0  0  0  0  0  0  0  0  0
    8.9371  -19.6228   16.2408 N   0  0  0  0  0  0  0  0  0  0  0  0
    6.2476  -12.6833   25.2577 C   0  0  0  0  0  0  0  0  0  0  0  0
    6.9673  -12.7879   26.5141 O   0  0  0  0  0  0  0  0  0  0  0  0
    6.6253  -11.9778   27.3810 C   0  0  0  0  0  0  0  0  0  0  0  0
    8.0031  -13.7772   26.7017 C   0  0  0  0  0  0  0  0  0  0  0  0
    8.3844  -14.6679   25.5960 C   0  0  2  0  0  0  0  0  0  0  0  0
    9.4915  -15.6403   25.8199 N   0  0  0  0  0  0  0  0  0  0  0  0
    9.7954  -16.3772   24.5960 C   0  0  0  0  0  0  0  0  0  0  0  0
    9.4002  -16.5208   26.9750 O   0  0  0  0  0  0  0  0  0  0  0  0
    9.9342  -16.2242   28.2158 O   0  0  0  0  0  0  0  0  0  0  0  0
  1  2  1  0
  2  3  1  0
  3  5  1  0
  3  4  1  1
  5 15  1  0
  6  5  2  0
  8  7  1  0
  8 10  1  0
  9  8  2  0
 11 10  1  0
 12 11  1  0
 13 12  1  0
 14 13  1  6
 15 14  1  0
 16 14  1  0
 16 24  1  0
 17 16  2  0
 18 19  1  0
 19 21  1  0
 20 19  2  0
 21 22  1  0
 23 24  1  0
 23 22  1  6
 25 23  1  0
 26 25  1  0
 27 25  2  0
M  END
$$$$
