SRQ.pdb
     RDKit          3D

 27 26  0  0  1  0  0  0  0  0999 V2000
   13.9171  -19.7734   18.2454 O   0  0  0  0  0  0  0  0  0  0  0  0
   12.7115  -19.9481   17.5717 C   0  0  0  0  0  0  0  0  0  0  0  0
   12.2031  -18.6111   17.0774 C   0  0  2  0  0  0  0  0  0  0  0  0
   13.0556  -18.0908   16.0542 N   0  0  0  0  0  0  0  0  0  0  0  0
   12.0690  -17.6347   18.1896 C   0  0  0  0  0  0  0  0  0  0  0  0
   12.9771  -16.7917   18.4197 O   0  0  0  0  0  0  0  0  0  0  0  0
    6.5744  -12.3678   21.0814 N   0  0  0  0  0  0  0  0  0  0  0  0
    7.2159  -13.1576   20.0886 C   0  0  0  0  0  0  0  0  0  0  0  0
    6.9691  -12.9680   18.8362 N   0  0  0  0  0  0  0  0  0  0  0  0
    8.1480  -14.1826   20.4033 N   0  0  0  0  0  0  0  0  0  0  0  0
    8.4168  -14.5705   21.7499 C   0  0  0  0  0  0  0  0  0  0  0  0
    9.4649  -15.6501   21.8773 C   0  0  0  0  0  0  0  0  0  0  0  0
    9.4327  -16.6323   20.7401 C   0  0  0  0  0  0  0  0  0  0  0  0
   10.8328  -16.7219   20.1642 C   0  0  2  0  0  0  0  0  0  0  0  0
   10.9300  -17.6001   19.0380 N   0  0  0  0  0  0  0  0  0  0  0  0
   11.6919  -17.2335   21.2836 C   0  0  0  0  0  0  0  0  0  0  0  0
   11.7425  -18.4708   21.5305 O   0  0  0  0  0  0  0  0  0  0  0  0
    7.4197  -13.5998   18.1424 N   0  0  0  0  0  0  0  0  0  0  0  0
   17.4196  -14.9334   22.3621 C   0  0  0  0  0  0  0  0  0  0  0  0
   17.1854  -15.8142   23.4919 O   0  0  0  0  0  0  0  0  0  0  0  0
   18.1618  -15.9925   24.2265 C   0  0  0  0  0  0  0  0  0  0  0  0
   15.8933  -16.4223   23.7100 C   0  0  0  0  0  0  0  0  0  0  0  0
   14.7662  -16.1033   22.8216 C   0  0  1  0  0  0  0  0  0  0  0  0
   13.4722  -16.8107   23.0377 N   0  0  0  0  0  0  0  0  0  0  0  0
   12.4621  -16.3551   22.0862 C   0  0  0  0  0  0  0  0  0  0  0  0
   12.9501  -16.8743   24.3947 O   0  0  0  0  0  0  0  0  0  0  0  0
   13.5147  -17.6323   25.4043 O   0  0  0  0  0  0  0  0  0  0  0  0
  1  2  1  0
  2  3  1  0
  3  5  1  0
  3  4  1  6
  5 15  1  0
  6  5  2  0
  8  7  1  0
  8 10  1  0
  9  8  2  0
 11 10  1  0
 12 11  1  0
 13 12  1  0
 14 13  1  1
 15 14  1  0
 16 14  1  0
 16 24  1  0
 17 16  2  0
 18 19  1  0
 19 21  1  0
 20 19  2  0
 21 22  1  0
 23 24  1  0
 23 22  1  6
 25 23  1  0
 26 25  1  0
 27 25  2  0
M  END
$$$$
