VVV.pdb
     RDKit          3D

 22 21  0  0  1  0  0  0  0  0999 V2000
   27.9199  -25.9551  -16.1576 C   0  0  0  0  0  0  0  0  0  0  0  0
   28.2314  -25.9499  -17.6175 C   0  0  2  0  0  0  0  0  0  0  0  0
   28.9879  -24.6784  -17.9407 C   0  0  0  0  0  0  0  0  0  0  0  0
   27.0119  -25.9879  -18.4960 C   0  0  2  0  0  0  0  0  0  0  0  0
   26.1970  -24.8241  -18.2816 N   0  0  0  0  0  0  0  0  0  0  0  0
   26.1784  -27.1918  -18.2726 C   0  0  0  0  0  0  0  0  0  0  0  0
   25.1213  -27.1238  -17.6124 O   0  0  0  0  0  0  0  0  0  0  0  0
   24.2916  -29.2750  -20.6864 C   0  0  0  0  0  0  0  0  0  0  0  0
   25.3130  -30.1363  -20.0171 C   0  0  2  0  0  0  0  0  0  0  0  0
   24.7491  -31.5445  -19.8340 C   0  0  0  0  0  0  0  0  0  0  0  0
   25.6788  -29.6455  -18.6313 C   0  0  2  0  0  0  0  0  0  0  0  0
   26.5306  -28.4759  -18.7905 N   0  0  0  0  0  0  0  0  0  0  0  0
   26.3830  -30.7117  -17.8546 C   0  0  0  0  0  0  0  0  0  0  0  0
   27.4258  -31.2329  -18.3729 O   0  0  0  0  0  0  0  0  0  0  0  0
   24.8723  -32.3583  -14.1388 C   0  0  0  0  0  0  0  0  0  0  0  0
   26.3465  -32.1039  -14.3691 C   0  0  1  0  0  0  0  0  0  0  0  0
   27.1909  -33.0419  -13.5785 C   0  0  0  0  0  0  0  0  0  0  0  0
   26.6611  -32.1143  -15.8470 C   0  0  2  0  0  0  0  0  0  0  0  0
   25.9243  -31.1431  -16.5843 N   0  0  0  0  0  0  0  0  0  0  0  0
   26.4784  -33.4655  -16.4070 C   0  0  0  0  0  0  0  0  0  0  0  0
   27.5470  -34.3354  -16.4354 O   0  0  0  0  0  0  0  0  0  0  0  0
   25.3702  -33.8260  -16.8531 O   0  0  0  0  0  0  0  0  0  0  0  0
  2  1  1  1
  2  3  1  0
  4  2  1  0
  4  5  1  1
  6  4  1  0
  6  7  2  0
  9  8  1  1
  9 11  1  0
 10  9  1  0
 11 13  1  0
 11 12  1  6
 12  6  1  0
 13 19  1  0
 14 13  2  0
 16 17  1  1
 16 15  1  0
 16 18  1  0
 18 20  1  0
 18 19  1  6
 20 22  2  0
 20 21  1  0
M  END
$$$$
