VVV.pdb
     RDKit          3D

 22 21  0  0  1  0  0  0  0  0999 V2000
   27.3411  -15.9683  -16.4947 C   0  0  0  0  0  0  0  0  0  0  0  0
   26.5731  -17.1350  -15.9680 C   0  0  2  0  0  0  0  0  0  0  0  0
   25.7683  -16.6765  -14.7699 C   0  0  0  0  0  0  0  0  0  0  0  0
   27.4413  -18.2781  -15.5207 C   0  0  2  0  0  0  0  0  0  0  0  0
   28.1308  -18.8583  -16.6399 N   0  0  0  0  0  0  0  0  0  0  0  0
   26.6785  -19.3465  -14.8346 C   0  0  0  0  0  0  0  0  0  0  0  0
   25.9889  -20.1582  -15.4853 O   0  0  0  0  0  0  0  0  0  0  0  0
   27.7082  -21.2694  -11.2440 C   0  0  0  0  0  0  0  0  0  0  0  0
   26.3687  -20.6106  -11.3122 C   0  0  2  0  0  0  0  0  0  0  0  0
   25.3449  -21.4618  -10.5628 C   0  0  0  0  0  0  0  0  0  0  0  0
   25.8501  -20.4784  -12.7295 C   0  0  2  0  0  0  0  0  0  0  0  0
   26.6885  -19.5057  -13.4148 N   0  0  0  0  0  0  0  0  0  0  0  0
   24.4195  -20.0433  -12.7374 C   0  0  0  0  0  0  0  0  0  0  0  0
   24.1296  -18.9462  -12.1544 O   0  0  0  0  0  0  0  0  0  0  0  0
   21.5897  -21.4912  -15.5505 C   0  0  0  0  0  0  0  0  0  0  0  0
   21.5302  -20.1720  -14.8108 C   0  0  1  0  0  0  0  0  0  0  0  0
   20.1644  -19.5804  -14.8615 C   0  0  0  0  0  0  0  0  0  0  0  0
   22.0642  -20.3280  -13.4059 C   0  0  2  0  0  0  0  0  0  0  0  0
   23.4048  -20.8089  -13.3654 N   0  0  0  0  0  0  0  0  0  0  0  0
   21.1659  -21.1745  -12.6002 C   0  0  0  0  0  0  0  0  0  0  0  0
   19.9809  -20.6485  -12.1327 O   0  0  0  0  0  0  0  0  0  0  0  0
   21.4679  -22.3568  -12.3396 O   0  0  0  0  0  0  0  0  0  0  0  0
  2  1  1  1
  2  3  1  0
  4  2  1  0
  4  5  1  6
  6  4  1  0
  6  7  2  0
  9  8  1  6
  9 11  1  0
 10  9  1  0
 11 13  1  0
 11 12  1  6
 12  6  1  0
 13 19  1  0
 14 13  2  0
 16 17  1  1
 16 15  1  0
 16 18  1  0
 18 20  1  0
 18 19  1  6
 20 22  2  0
 20 21  1  0
M  END
$$$$
