VVV.pdb
     RDKit          3D

 22 21  0  0  1  0  0  0  0  0999 V2000
   23.2910  -15.7893  -17.0767 C   0  0  0  0  0  0  0  0  0  0  0  0
   23.6646  -16.9845  -16.2642 C   0  0  2  0  0  0  0  0  0  0  0  0
   24.1172  -16.5120  -14.8984 C   0  0  0  0  0  0  0  0  0  0  0  0
   24.7841  -17.7935  -16.8582 C   0  0  2  0  0  0  0  0  0  0  0  0
   24.3609  -18.4248  -18.0775 N   0  0  0  0  0  0  0  0  0  0  0  0
   25.2894  -18.8395  -15.9392 C   0  0  0  0  0  0  0  0  0  0  0  0
   24.6046  -19.8516  -15.6845 O   0  0  0  0  0  0  0  0  0  0  0  0
   29.1224  -20.2440  -15.7049 C   0  0  0  0  0  0  0  0  0  0  0  0
   28.5653  -19.7307  -14.4167 C   0  0  2  0  0  0  0  0  0  0  0  0
   29.0400  -20.6191  -13.2679 C   0  0  0  0  0  0  0  0  0  0  0  0
   27.0513  -19.7631  -14.3766 C   0  0  2  0  0  0  0  0  0  0  0  0
   26.5658  -18.7512  -15.3035 N   0  0  0  0  0  0  0  0  0  0  0  0
   26.5469  -19.5001  -12.9937 C   0  0  0  0  0  0  0  0  0  0  0  0
   26.7893  -18.3573  -12.4809 O   0  0  0  0  0  0  0  0  0  0  0  0
   23.0261  -20.0439  -11.6920 C   0  0  0  0  0  0  0  0  0  0  0  0
   23.9677  -20.6372  -10.6660 C   0  0  1  0  0  0  0  0  0  0  0  0
   23.8158  -22.1161  -10.5784 C   0  0  0  0  0  0  0  0  0  0  0  0
   25.3878  -20.1950  -10.9324 C   0  0  2  0  0  0  0  0  0  0  0  0
   25.8223  -20.4735  -12.2604 N   0  0  0  0  0  0  0  0  0  0  0  0
   26.3069  -20.7722   -9.9350 C   0  0  0  0  0  0  0  0  0  0  0  0
   26.2522  -20.3305   -8.6305 O   0  0  0  0  0  0  0  0  0  0  0  0
   27.1293  -21.6524  -10.2602 O   0  0  0  0  0  0  0  0  0  0  0  0
  2  1  1  6
  2  3  1  0
  4  2  1  0
  4  5  1  6
  6  4  1  0
  6  7  2  0
  9  8  1  6
  9 11  1  0
 10  9  1  0
 11 13  1  0
 11 12  1  6
 12  6  1  0
 13 19  1  0
 14 13  2  0
 16 17  1  6
 16 15  1  0
 16 18  1  0
 18 20  1  0
 18 19  1  6
 20 22  2  0
 20 21  1  0
M  END
$$$$
