VVV.pdb
     RDKit          3D

 22 21  0  0  1  0  0  0  0  0999 V2000
   13.8079  -12.1006  -11.7607 C   0  0  0  0  0  0  0  0  0  0  0  0
   14.1675  -11.7448  -13.1652 C   0  0  2  0  0  0  0  0  0  0  0  0
   13.5044  -12.7392  -14.0953 C   0  0  0  0  0  0  0  0  0  0  0  0
   15.6453  -11.7832  -13.4391 C   0  0  2  0  0  0  0  0  0  0  0  0
   16.1756  -13.0920  -13.1739 N   0  0  0  0  0  0  0  0  0  0  0  0
   16.4057  -10.7976  -12.6364 C   0  0  0  0  0  0  0  0  0  0  0  0
   17.0008  -11.1440  -11.5953 O   0  0  0  0  0  0  0  0  0  0  0  0
   18.8966   -6.6089  -12.3561 C   0  0  0  0  0  0  0  0  0  0  0  0
   18.1625   -7.6953  -13.0731 C   0  0  2  0  0  0  0  0  0  0  0  0
   17.3271   -7.0871  -14.1985 C   0  0  0  0  0  0  0  0  0  0  0  0
   17.1895   -8.4363  -12.1792 C   0  0  2  0  0  0  0  0  0  0  0  0
   16.4994   -9.4194  -13.0014 N   0  0  0  0  0  0  0  0  0  0  0  0
   16.2142   -7.4924  -11.5515 C   0  0  0  0  0  0  0  0  0  0  0  0
   15.2499   -7.0696  -12.2721 O   0  0  0  0  0  0  0  0  0  0  0  0
   14.3564   -5.2093   -7.5947 C   0  0  0  0  0  0  0  0  0  0  0  0
   15.2972   -6.2641   -8.1363 C   0  0  1  0  0  0  0  0  0  0  0  0
   14.9326   -7.6223   -7.6463 C   0  0  0  0  0  0  0  0  0  0  0  0
   15.3842   -6.1732   -9.6421 C   0  0  2  0  0  0  0  0  0  0  0  0
   16.3385   -7.0696  -10.2041 N   0  0  0  0  0  0  0  0  0  0  0  0
   15.6389   -4.7842  -10.0644 C   0  0  0  0  0  0  0  0  0  0  0  0
   16.9262   -4.3948  -10.3657 O   0  0  0  0  0  0  0  0  0  0  0  0
   14.7036   -3.9627  -10.1509 O   0  0  0  0  0  0  0  0  0  0  0  0
  2  1  1  1
  2  3  1  0
  4  2  1  0
  4  5  1  1
  6  4  1  0
  6  7  2  0
  9  8  1  1
  9 11  1  0
 10  9  1  0
 11 13  1  0
 11 12  1  6
 12  6  1  0
 13 19  1  0
 14 13  2  0
 16 17  1  6
 16 15  1  0
 16 18  1  0
 18 20  1  0
 18 19  1  1
 20 22  2  0
 20 21  1  0
M  END
$$$$
