VVV.pdb
     RDKit          3D

 22 21  0  0  1  0  0  0  0  0999 V2000
   28.1610  -19.9450  -17.5798 C   0  0  0  0  0  0  0  0  0  0  0  0
   27.1009  -20.4712  -16.6701 C   0  0  2  0  0  0  0  0  0  0  0  0
   26.1548  -19.3381  -16.3322 C   0  0  0  0  0  0  0  0  0  0  0  0
   27.6330  -21.0193  -15.3751 C   0  0  2  0  0  0  0  0  0  0  0  0
   28.4690  -22.1631  -15.6149 N   0  0  0  0  0  0  0  0  0  0  0  0
   26.5605  -21.4117  -14.4318 C   0  0  0  0  0  0  0  0  0  0  0  0
   25.8183  -22.3848  -14.6769 O   0  0  0  0  0  0  0  0  0  0  0  0
   26.7528  -21.1897  -10.3403 C   0  0  0  0  0  0  0  0  0  0  0  0
   25.5650  -20.5130  -10.9439 C   0  0  2  0  0  0  0  0  0  0  0  0
   24.3379  -20.7641  -10.0689 C   0  0  0  0  0  0  0  0  0  0  0  0
   25.2190  -21.0480  -12.3183 C   0  0  2  0  0  0  0  0  0  0  0  0
   26.3191  -20.7114  -13.2101 N   0  0  0  0  0  0  0  0  0  0  0  0
   23.9365  -20.4603  -12.8141 C   0  0  0  0  0  0  0  0  0  0  0  0
   23.8275  -19.1891  -12.8152 O   0  0  0  0  0  0  0  0  0  0  0  0
   22.3685  -20.6343  -16.1009 C   0  0  0  0  0  0  0  0  0  0  0  0
   21.2854  -21.0603  -15.1332 C   0  0  1  0  0  0  0  0  0  0  0  0
   20.9606  -22.5062  -15.2816 C   0  0  0  0  0  0  0  0  0  0  0  0
   21.6541  -20.6706  -13.7206 C   0  0  2  0  0  0  0  0  0  0  0  0
   22.8663  -21.2698  -13.2715 N   0  0  0  0  0  0  0  0  0  0  0  0
   20.5411  -20.9538  -12.7967 C   0  0  0  0  0  0  0  0  0  0  0  0
   20.6522  -21.9988  -11.9051 O   0  0  0  0  0  0  0  0  0  0  0  0
   19.5049  -20.2588  -12.8153 O   0  0  0  0  0  0  0  0  0  0  0  0
  2  1  1  6
  2  3  1  0
  4  2  1  0
  4  5  1  6
  6  4  1  0
  6  7  2  0
  9  8  1  1
  9 11  1  0
 10  9  1  0
 11 13  1  0
 11 12  1  6
 12  6  1  0
 13 19  1  0
 14 13  2  0
 16 17  1  1
 16 15  1  0
 16 18  1  0
 18 20  1  0
 18 19  1  1
 20 22  2  0
 20 21  1  0
M  END
$$$$
