VVV.pdb
     RDKit          3D

 22 21  0  0  1  0  0  0  0  0999 V2000
   21.7866  -16.7398  -15.4919 C   0  0  0  0  0  0  0  0  0  0  0  0
   20.2957  -16.7969  -15.4432 C   0  0  2  0  0  0  0  0  0  0  0  0
   19.8800  -18.2308  -15.1893 C   0  0  0  0  0  0  0  0  0  0  0  0
   19.6318  -16.3508  -16.7163 C   0  0  2  0  0  0  0  0  0  0  0  0
   19.9533  -17.2439  -17.7949 N   0  0  0  0  0  0  0  0  0  0  0  0
   20.0152  -14.9767  -17.1149 C   0  0  0  0  0  0  0  0  0  0  0  0
   20.9756  -14.7798  -17.8875 O   0  0  0  0  0  0  0  0  0  0  0  0
   17.2885  -11.8920  -16.7737 C   0  0  0  0  0  0  0  0  0  0  0  0
   18.5121  -11.7868  -17.6251 C   0  0  2  0  0  0  0  0  0  0  0  0
   18.2645  -12.4882  -18.9596 C   0  0  0  0  0  0  0  0  0  0  0  0
   19.7173  -12.4669  -17.0088 C   0  0  2  0  0  0  0  0  0  0  0  0
   19.3203  -13.8196  -16.6463 N   0  0  0  0  0  0  0  0  0  0  0  0
   20.1994  -11.7168  -15.8084 C   0  0  0  0  0  0  0  0  0  0  0  0
   19.5810  -11.8983  -14.7073 O   0  0  0  0  0  0  0  0  0  0  0  0
   24.1189   -9.9607  -15.4757 C   0  0  0  0  0  0  0  0  0  0  0  0
   23.2183  -10.4865  -14.3786 C   0  0  1  0  0  0  0  0  0  0  0  0
   23.6495   -9.9983  -13.0394 C   0  0  0  0  0  0  0  0  0  0  0  0
   21.7713  -10.1826  -14.6902 C   0  0  2  0  0  0  0  0  0  0  0  0
   21.3036  -10.8297  -15.8702 N   0  0  0  0  0  0  0  0  0  0  0  0
   21.5484   -8.7269  -14.7522 C   0  0  0  0  0  0  0  0  0  0  0  0
   21.5267   -7.9962  -13.5837 O   0  0  0  0  0  0  0  0  0  0  0  0
   21.3801   -8.1539  -15.8478 O   0  0  0  0  0  0  0  0  0  0  0  0
  2  1  1  6
  2  3  1  0
  4  2  1  0
  4  5  1  6
  6  4  1  0
  6  7  2  0
  9  8  1  1
  9 11  1  0
 10  9  1  0
 11 13  1  0
 11 12  1  1
 12  6  1  0
 13 19  1  0
 14 13  2  0
 16 17  1  1
 16 15  1  0
 16 18  1  0
 18 20  1  0
 18 19  1  6
 20 22  2  0
 20 21  1  0
M  END
$$$$
