VVV.pdb
     RDKit          3D

 22 21  0  0  1  0  0  0  0  0999 V2000
   27.1565  -18.4664  -15.5566 C   0  0  0  0  0  0  0  0  0  0  0  0
   27.6831  -19.7363  -16.1383 C   0  0  2  0  0  0  0  0  0  0  0  0
   26.6130  -20.3353  -17.0269 C   0  0  0  0  0  0  0  0  0  0  0  0
   28.0466  -20.7685  -15.1074 C   0  0  2  0  0  0  0  0  0  0  0  0
   28.5711  -21.9493  -15.7360 N   0  0  0  0  0  0  0  0  0  0  0  0
   26.9000  -21.1606  -14.2556 C   0  0  0  0  0  0  0  0  0  0  0  0
   26.0788  -22.0167  -14.6437 O   0  0  0  0  0  0  0  0  0  0  0  0
   27.0353  -21.2421  -10.1354 C   0  0  0  0  0  0  0  0  0  0  0  0
   25.8537  -20.5329  -10.7134 C   0  0  2  0  0  0  0  0  0  0  0  0
   24.6112  -20.8574   -9.8855 C   0  0  0  0  0  0  0  0  0  0  0  0
   25.5416  -20.9690  -12.1303 C   0  0  2  0  0  0  0  0  0  0  0  0
   26.6728  -20.5915  -12.9650 N   0  0  0  0  0  0  0  0  0  0  0  0
   24.2832  -20.3284  -12.6224 C   0  0  0  0  0  0  0  0  0  0  0  0
   24.2415  -19.0538  -12.6599 O   0  0  0  0  0  0  0  0  0  0  0  0
   22.7081  -20.4265  -15.8724 C   0  0  0  0  0  0  0  0  0  0  0  0
   21.6066  -20.8178  -14.9108 C   0  0  1  0  0  0  0  0  0  0  0  0
   21.2342  -22.2516  -15.0636 C   0  0  0  0  0  0  0  0  0  0  0  0
   21.9812  -20.4432  -13.4956 C   0  0  2  0  0  0  0  0  0  0  0  0
   23.1637  -21.0927  -13.0377 N   0  0  0  0  0  0  0  0  0  0  0  0
   20.8505  -20.6787  -12.5798 C   0  0  0  0  0  0  0  0  0  0  0  0
   19.7401  -19.8657  -12.6542 O   0  0  0  0  0  0  0  0  0  0  0  0
   20.8904  -21.6029  -11.7425 O   0  0  0  0  0  0  0  0  0  0  0  0
  2  1  1  1
  2  3  1  0
  4  2  1  0
  4  5  1  6
  6  4  1  0
  6  7  2  0
  9  8  1  1
  9 11  1  0
 10  9  1  0
 11 13  1  0
 11 12  1  6
 12  6  1  0
 13 19  1  0
 14 13  2  0
 16 17  1  1
 16 15  1  0
 16 18  1  0
 18 20  1  0
 18 19  1  1
 20 22  2  0
 20 21  1  0
M  END
$$$$
