VVV.pdb
     RDKit          3D

 22 21  0  0  1  0  0  0  0  0999 V2000
   21.4621  -19.5219  -15.5542 C   0  0  0  0  0  0  0  0  0  0  0  0
   22.5702  -18.7031  -16.1288 C   0  0  2  0  0  0  0  0  0  0  0  0
   22.0126  -17.8760  -17.2683 C   0  0  0  0  0  0  0  0  0  0  0  0
   23.7060  -19.5221  -16.6761 C   0  0  2  0  0  0  0  0  0  0  0  0
   23.2391  -20.4140  -17.7013 N   0  0  0  0  0  0  0  0  0  0  0  0
   24.3930  -20.3219  -15.6358 C   0  0  0  0  0  0  0  0  0  0  0  0
   23.9561  -21.4412  -15.2977 O   0  0  0  0  0  0  0  0  0  0  0  0
   28.3795  -19.3873  -14.3493 C   0  0  0  0  0  0  0  0  0  0  0  0
   27.7164  -20.7264  -14.3311 C   0  0  2  0  0  0  0  0  0  0  0  0
   27.7623  -21.3353  -15.7316 C   0  0  0  0  0  0  0  0  0  0  0  0
   26.2516  -20.6518  -13.9518 C   0  0  2  0  0  0  0  0  0  0  0  0
   25.5733  -19.8660  -14.9722 N   0  0  0  0  0  0  0  0  0  0  0  0
   26.0791  -20.0301  -12.6028 C   0  0  0  0  0  0  0  0  0  0  0  0
   26.1177  -18.7571  -12.5268 O   0  0  0  0  0  0  0  0  0  0  0  0
   23.2398  -20.0591  -10.4659 C   0  0  0  0  0  0  0  0  0  0  0  0
   24.3637  -20.4698   -9.5390 C   0  0  1  0  0  0  0  0  0  0  0  0
   24.2147  -21.8838   -9.0957 C   0  0  0  0  0  0  0  0  0  0  0  0
   25.7049  -20.1779  -10.1711 C   0  0  2  0  0  0  0  0  0  0  0  0
   25.8784  -20.8101  -11.4360 N   0  0  0  0  0  0  0  0  0  0  0  0
   26.8001  -20.5193   -9.2457 C   0  0  0  0  0  0  0  0  0  0  0  0
   26.9435  -19.8051   -8.0757 O   0  0  0  0  0  0  0  0  0  0  0  0
   27.5941  -21.4445   -9.5115 O   0  0  0  0  0  0  0  0  0  0  0  0
  2  1  1  6
  2  3  1  0
  4  2  1  0
  4  5  1  6
  6  4  1  0
  6  7  2  0
  9  8  1  6
  9 11  1  0
 10  9  1  0
 11 13  1  0
 11 12  1  6
 12  6  1  0
 13 19  1  0
 14 13  2  0
 16 17  1  6
 16 15  1  0
 16 18  1  0
 18 20  1  0
 18 19  1  6
 20 22  2  0
 20 21  1  0
M  END
$$$$
