VVV.pdb
     RDKit          3D

 22 21  0  0  1  0  0  0  0  0999 V2000
   27.3565  -21.9403  -17.9216 C   0  0  0  0  0  0  0  0  0  0  0  0
   26.3011  -21.9409  -16.8659 C   0  0  2  0  0  0  0  0  0  0  0  0
   25.8416  -20.5144  -16.6481 C   0  0  0  0  0  0  0  0  0  0  0  0
   26.7718  -22.4732  -15.5409 C   0  0  2  0  0  0  0  0  0  0  0  0
   27.1572  -23.8524  -15.6573 N   0  0  0  0  0  0  0  0  0  0  0  0
   25.7462  -22.3608  -14.4780 C   0  0  0  0  0  0  0  0  0  0  0  0
   24.7442  -23.1051  -14.4754 O   0  0  0  0  0  0  0  0  0  0  0  0
   26.6257  -21.5395  -10.5985 C   0  0  0  0  0  0  0  0  0  0  0  0
   25.5252  -20.6927  -11.1507 C   0  0  2  0  0  0  0  0  0  0  0  0
   24.4353  -20.5230  -10.0935 C   0  0  0  0  0  0  0  0  0  0  0  0
   24.8506  -21.3173  -12.3548 C   0  0  2  0  0  0  0  0  0  0  0  0
   25.8439  -21.4115  -13.4147 N   0  0  0  0  0  0  0  0  0  0  0  0
   23.6802  -20.4983  -12.7972 C   0  0  0  0  0  0  0  0  0  0  0  0
   23.8616  -19.2468  -12.9660 O   0  0  0  0  0  0  0  0  0  0  0  0
   21.8686  -20.4693  -15.8557 C   0  0  0  0  0  0  0  0  0  0  0  0
   20.7848  -20.6213  -14.8100 C   0  0  1  0  0  0  0  0  0  0  0  0
   20.1638  -21.9739  -14.8620 C   0  0  0  0  0  0  0  0  0  0  0  0
   21.3137  -20.2565  -13.4423 C   0  0  2  0  0  0  0  0  0  0  0  0
   22.4047  -21.0731  -13.0266 N   0  0  0  0  0  0  0  0  0  0  0  0
   20.2271  -20.2649  -12.4464 C   0  0  0  0  0  0  0  0  0  0  0  0
   20.2374  -21.2096  -11.4430 O   0  0  0  0  0  0  0  0  0  0  0  0
   19.3032  -19.4282  -12.5042 O   0  0  0  0  0  0  0  0  0  0  0  0
  2  1  1  6
  2  3  1  0
  4  2  1  0
  4  5  1  6
  6  4  1  0
  6  7  2  0
  9  8  1  1
  9 11  1  0
 10  9  1  0
 11 13  1  0
 11 12  1  6
 12  6  1  0
 13 19  1  0
 14 13  2  0
 16 17  1  1
 16 15  1  0
 16 18  1  0
 18 20  1  0
 18 19  1  1
 20 22  2  0
 20 21  1  0
M  END
$$$$
