VVV.pdb
     RDKit          3D

 22 21  0  0  1  0  0  0  0  0999 V2000
   28.8363  -22.1383  -15.6551 C   0  0  0  0  0  0  0  0  0  0  0  0
   28.2158  -22.3270  -16.9996 C   0  0  2  0  0  0  0  0  0  0  0  0
   29.2517  -22.9323  -17.9238 C   0  0  0  0  0  0  0  0  0  0  0  0
   27.7378  -21.0483  -17.6296 C   0  0  2  0  0  0  0  0  0  0  0  0
   28.8516  -20.2365  -18.0357 N   0  0  0  0  0  0  0  0  0  0  0  0
   26.8783  -20.2478  -16.7270 C   0  0  0  0  0  0  0  0  0  0  0  0
   27.3220  -19.2282  -16.1599 O   0  0  0  0  0  0  0  0  0  0  0  0
   23.9371  -18.2526  -17.3576 C   0  0  0  0  0  0  0  0  0  0  0  0
   23.5174  -19.2748  -16.3516 C   0  0  2  0  0  0  0  0  0  0  0  0
   22.5686  -18.6331  -15.3405 C   0  0  0  0  0  0  0  0  0  0  0  0
   24.6802  -19.8224  -15.5497 C   0  0  2  0  0  0  0  0  0  0  0  0
   25.5175  -20.5908  -16.4592 N   0  0  0  0  0  0  0  0  0  0  0  0
   24.1971  -20.6789  -14.4232 C   0  0  0  0  0  0  0  0  0  0  0  0
   23.4424  -21.6667  -14.7102 O   0  0  0  0  0  0  0  0  0  0  0  0
   26.2884  -21.3934  -10.9709 C   0  0  0  0  0  0  0  0  0  0  0  0
   24.8203  -21.1076  -10.7381 C   0  0  1  0  0  0  0  0  0  0  0  0
   24.6216  -19.7965  -10.0603 C   0  0  0  0  0  0  0  0  0  0  0  0
   24.0441  -21.2395  -12.0279 C   0  0  2  0  0  0  0  0  0  0  0  0
   24.5538  -20.4196  -13.0757 N   0  0  0  0  0  0  0  0  0  0  0  0
   22.6100  -20.9877  -11.7987 C   0  0  0  0  0  0  0  0  0  0  0  0
   22.0780  -19.7602  -12.1299 O   0  0  0  0  0  0  0  0  0  0  0  0
   21.8778  -21.8720  -11.3098 O   0  0  0  0  0  0  0  0  0  0  0  0
  2  1  1  1
  2  3  1  0
  4  2  1  0
  4  5  1  1
  6  4  1  0
  6  7  2  0
  9  8  1  6
  9 11  1  0
 10  9  1  0
 11 13  1  0
 11 12  1  6
 12  6  1  0
 13 19  1  0
 14 13  2  0
 16 17  1  6
 16 15  1  0
 16 18  1  0
 18 20  1  0
 18 19  1  6
 20 22  2  0
 20 21  1  0
M  END
$$$$
