VVV.pdb
     RDKit          3D

 22 21  0  0  1  0  0  0  0  0999 V2000
   26.0289  -18.2958  -16.3742 C   0  0  0  0  0  0  0  0  0  0  0  0
   27.0849  -18.1762  -15.3259 C   0  0  2  0  0  0  0  0  0  0  0  0
   28.2279  -17.3580  -15.8894 C   0  0  0  0  0  0  0  0  0  0  0  0
   27.6484  -19.4974  -14.8819 C   0  0  2  0  0  0  0  0  0  0  0  0
   28.2712  -20.1781  -15.9835 N   0  0  0  0  0  0  0  0  0  0  0  0
   26.6242  -20.3928  -14.2959 C   0  0  0  0  0  0  0  0  0  0  0  0
   26.0376  -21.2400  -15.0002 O   0  0  0  0  0  0  0  0  0  0  0  0
   25.1498  -19.9614  -10.1563 C   0  0  0  0  0  0  0  0  0  0  0  0
   25.4297  -21.2498  -10.8598 C   0  0  2  0  0  0  0  0  0  0  0  0
   26.9009  -21.6192  -10.6774 C   0  0  0  0  0  0  0  0  0  0  0  0
   25.1985  -21.1657  -12.3546 C   0  0  2  0  0  0  0  0  0  0  0  0
   26.2562  -20.3385  -12.9165 N   0  0  0  0  0  0  0  0  0  0  0  0
   23.8544  -20.5839  -12.6563 C   0  0  0  0  0  0  0  0  0  0  0  0
   23.6494  -19.3661  -12.3359 O   0  0  0  0  0  0  0  0  0  0  0  0
   22.4386  -19.9718  -15.8745 C   0  0  0  0  0  0  0  0  0  0  0  0
   21.3610  -20.7461  -15.1464 C   0  0  1  0  0  0  0  0  0  0  0  0
   21.2132  -22.1222  -15.6965 C   0  0  0  0  0  0  0  0  0  0  0  0
   21.6053  -20.7195  -13.6555 C   0  0  2  0  0  0  0  0  0  0  0  0
   22.8295  -21.3422  -13.2764 N   0  0  0  0  0  0  0  0  0  0  0  0
   20.4607  -21.3009  -12.9315 C   0  0  0  0  0  0  0  0  0  0  0  0
   20.6162  -22.5030  -12.2753 O   0  0  0  0  0  0  0  0  0  0  0  0
   19.3582  -20.7170  -12.9079 O   0  0  0  0  0  0  0  0  0  0  0  0
  2  1  1  6
  2  3  1  0
  4  2  1  0
  4  5  1  6
  6  4  1  0
  6  7  2  0
  9  8  1  1
  9 11  1  0
 10  9  1  0
 11 13  1  0
 11 12  1  6
 12  6  1  0
 13 19  1  0
 14 13  2  0
 16 17  1  6
 16 15  1  0
 16 18  1  0
 18 20  1  0
 18 19  1  6
 20 22  2  0
 20 21  1  0
M  END
$$$$
