VVV.pdb
     RDKit          3D

 22 21  0  0  1  0  0  0  0  0999 V2000
   19.7683  -15.3799  -16.9708 C   0  0  0  0  0  0  0  0  0  0  0  0
   18.7859  -14.5988  -17.7788 C   0  0  2  0  0  0  0  0  0  0  0  0
   18.4472  -15.3958  -19.0212 C   0  0  0  0  0  0  0  0  0  0  0  0
   19.3005  -13.2587  -18.2259 C   0  0  2  0  0  0  0  0  0  0  0  0
   20.3984  -13.4169  -19.1392 N   0  0  0  0  0  0  0  0  0  0  0  0
   19.7470  -12.4080  -17.0985 C   0  0  0  0  0  0  0  0  0  0  0  0
   18.9670  -12.1186  -16.1681 O   0  0  0  0  0  0  0  0  0  0  0  0
   22.9802  -12.9381  -14.9703 C   0  0  0  0  0  0  0  0  0  0  0  0
   22.9393  -11.5597  -15.5460 C   0  0  2  0  0  0  0  0  0  0  0  0
   23.4830  -10.5648  -14.5218 C   0  0  0  0  0  0  0  0  0  0  0  0
   21.5332  -11.1010  -15.8737 C   0  0  2  0  0  0  0  0  0  0  0  0
   21.0718  -11.8798  -17.0136 N   0  0  0  0  0  0  0  0  0  0  0  0
   21.5065   -9.6387  -16.1857 C   0  0  0  0  0  0  0  0  0  0  0  0
   22.2122   -9.2281  -17.1660 O   0  0  0  0  0  0  0  0  0  0  0  0
   19.2009   -7.6759  -17.7258 C   0  0  0  0  0  0  0  0  0  0  0  0
   19.4182   -6.9136  -16.4363 C   0  0  1  0  0  0  0  0  0  0  0  0
   18.2353   -7.0159  -15.5372 C   0  0  0  0  0  0  0  0  0  0  0  0
   20.7096   -7.3421  -15.7790 C   0  0  2  0  0  0  0  0  0  0  0  0
   20.7304   -8.7235  -15.4307 N   0  0  0  0  0  0  0  0  0  0  0  0
   21.0063   -6.4901  -14.6134 C   0  0  0  0  0  0  0  0  0  0  0  0
   21.3719   -5.1762  -14.8123 O   0  0  0  0  0  0  0  0  0  0  0  0
   20.9297   -6.9463  -13.4545 O   0  0  0  0  0  0  0  0  0  0  0  0
  2  1  1  6
  2  3  1  0
  4  2  1  0
  4  5  1  6
  6  4  1  0
  6  7  2  0
  9  8  1  1
  9 11  1  0
 10  9  1  0
 11 13  1  0
 11 12  1  6
 12  6  1  0
 13 19  1  0
 14 13  2  0
 16 17  1  1
 16 15  1  0
 16 18  1  0
 18 20  1  0
 18 19  1  1
 20 22  2  0
 20 21  1  0
M  END
$$$$
