VVV.pdb
     RDKit          3D

 22 21  0  0  1  0  0  0  0  0999 V2000
   28.4944  -18.5613  -14.0647 C   0  0  0  0  0  0  0  0  0  0  0  0
   28.1175  -19.9971  -14.2221 C   0  0  2  0  0  0  0  0  0  0  0  0
   28.5407  -20.4542  -15.6025 C   0  0  0  0  0  0  0  0  0  0  0  0
   26.6416  -20.2525  -14.0923 C   0  0  2  0  0  0  0  0  0  0  0  0
   25.9267  -19.6589  -15.1883 N   0  0  0  0  0  0  0  0  0  0  0  0
   26.0761  -19.7315  -12.8263 C   0  0  0  0  0  0  0  0  0  0  0  0
   25.5851  -18.5853  -12.7695 O   0  0  0  0  0  0  0  0  0  0  0  0
   23.9280  -21.9048  -10.4249 C   0  0  0  0  0  0  0  0  0  0  0  0
   24.0875  -20.4280  -10.2619 C   0  0  2  0  0  0  0  0  0  0  0  0
   23.3336  -19.7090  -11.3795 C   0  0  0  0  0  0  0  0  0  0  0  0
   25.5298  -19.9771  -10.3687 C   0  0  2  0  0  0  0  0  0  0  0  0
   26.0608  -20.4972  -11.6202 N   0  0  0  0  0  0  0  0  0  0  0  0
   26.3321  -20.4706   -9.2072 C   0  0  0  0  0  0  0  0  0  0  0  0
   26.7131  -21.6881   -9.2238 O   0  0  0  0  0  0  0  0  0  0  0  0
   27.2931  -18.0293   -5.7283 C   0  0  0  0  0  0  0  0  0  0  0  0
   28.2383  -19.0501   -6.3247 C   0  0  1  0  0  0  0  0  0  0  0  0
   29.1823  -19.5808   -5.3023 C   0  0  0  0  0  0  0  0  0  0  0  0
   27.4653  -20.1303   -7.0451 C   0  0  2  0  0  0  0  0  0  0  0  0
   26.6685  -19.6311   -8.1155 N   0  0  0  0  0  0  0  0  0  0  0  0
   26.6561  -20.9122   -6.0930 C   0  0  0  0  0  0  0  0  0  0  0  0
   27.2740  -21.8436   -5.2866 O   0  0  0  0  0  0  0  0  0  0  0  0
   25.4232  -20.7386   -6.0117 O   0  0  0  0  0  0  0  0  0  0  0  0
  2  1  1  6
  2  3  1  0
  4  2  1  0
  4  5  1  6
  6  4  1  0
  6  7  2  0
  9  8  1  6
  9 11  1  0
 10  9  1  0
 11 13  1  0
 11 12  1  6
 12  6  1  0
 13 19  1  0
 14 13  2  0
 16 17  1  1
 16 15  1  0
 16 18  1  0
 18 20  1  0
 18 19  1  6
 20 22  2  0
 20 21  1  0
M  END
$$$$
