VVV.pdb
     RDKit          3D

 22 21  0  0  1  0  0  0  0  0999 V2000
   18.8809  -21.8719  -13.7131 C   0  0  0  0  0  0  0  0  0  0  0  0
   20.2584  -21.2981  -13.7547 C   0  0  2  0  0  0  0  0  0  0  0  0
   21.1821  -22.3174  -14.3881 C   0  0  0  0  0  0  0  0  0  0  0  0
   20.8147  -20.9624  -12.3989 C   0  0  2  0  0  0  0  0  0  0  0  0
   20.0372  -19.9279  -11.7745 N   0  0  0  0  0  0  0  0  0  0  0  0
   22.2278  -20.5215  -12.4493 C   0  0  0  0  0  0  0  0  0  0  0  0
   22.5220  -19.3553  -12.7832 O   0  0  0  0  0  0  0  0  0  0  0  0
   24.8932  -20.6688   -9.7519 C   0  0  0  0  0  0  0  0  0  0  0  0
   25.4065  -21.3919  -10.9547 C   0  0  2  0  0  0  0  0  0  0  0  0
   26.8849  -21.0617  -11.1537 C   0  0  0  0  0  0  0  0  0  0  0  0
   24.7065  -20.9777  -12.2328 C   0  0  2  0  0  0  0  0  0  0  0  0
   23.3148  -21.3900  -12.1244 N   0  0  0  0  0  0  0  0  0  0  0  0
   25.3538  -21.6062  -13.4253 C   0  0  0  0  0  0  0  0  0  0  0  0
   25.4908  -22.8746  -13.4265 O   0  0  0  0  0  0  0  0  0  0  0  0
   24.1520  -21.7755  -16.7912 C   0  0  0  0  0  0  0  0  0  0  0  0
   25.5560  -21.2283  -16.9338 C   0  0  1  0  0  0  0  0  0  0  0  0
   25.5435  -19.7981  -17.3488 C   0  0  0  0  0  0  0  0  0  0  0  0
   26.3529  -21.4803  -15.6749 C   0  0  2  0  0  0  0  0  0  0  0  0
   25.8067  -20.8372  -14.5269 N   0  0  0  0  0  0  0  0  0  0  0  0
   27.7667  -21.1139  -15.8735 C   0  0  0  0  0  0  0  0  0  0  0  0
   28.5861  -21.9507  -16.6001 O   0  0  0  0  0  0  0  0  0  0  0  0
   28.2252  -20.0580  -15.3919 O   0  0  0  0  0  0  0  0  0  0  0  0
  2  1  1  1
  2  3  1  0
  4  2  1  0
  4  5  1  6
  6  4  1  0
  6  7  2  0
  9  8  1  1
  9 11  1  0
 10  9  1  0
 11 13  1  0
 11 12  1  1
 12  6  1  0
 13 19  1  0
 14 13  2  0
 16 17  1  1
 16 15  1  0
 16 18  1  0
 18 20  1  0
 18 19  1  1
 20 22  2  0
 20 21  1  0
M  END
$$$$
