VVV.pdb
     RDKit          3D

 22 21  0  0  1  0  0  0  0  0999 V2000
   18.9739  -12.4245  -19.1827 C   0  0  0  0  0  0  0  0  0  0  0  0
   20.4488  -12.6189  -19.3061 C   0  0  2  0  0  0  0  0  0  0  0  0
   20.7071  -13.6441  -20.3903 C   0  0  0  0  0  0  0  0  0  0  0  0
   21.1004  -13.1171  -18.0461 C   0  0  2  0  0  0  0  0  0  0  0  0
   20.6360  -14.4382  -17.7241 N   0  0  0  0  0  0  0  0  0  0  0  0
   20.8520  -12.2358  -16.8818 C   0  0  0  0  0  0  0  0  0  0  0  0
   19.8985  -12.4545  -16.1065 O   0  0  0  0  0  0  0  0  0  0  0  0
   23.8713   -9.6371  -15.4997 C   0  0  0  0  0  0  0  0  0  0  0  0
   22.7422  -10.1486  -14.6651 C   0  0  2  0  0  0  0  0  0  0  0  0
   23.0627  -11.5646  -14.1893 C   0  0  0  0  0  0  0  0  0  0  0  0
   21.4405  -10.2469  -15.4338 C   0  0  2  0  0  0  0  0  0  0  0  0
   21.6745  -11.1058  -16.5854 N   0  0  0  0  0  0  0  0  0  0  0  0
   20.9721   -8.8948  -15.8680 C   0  0  0  0  0  0  0  0  0  0  0  0
   21.5901   -8.3344  -16.8333 O   0  0  0  0  0  0  0  0  0  0  0  0
   17.8637   -7.8216  -17.4318 C   0  0  0  0  0  0  0  0  0  0  0  0
   18.0073   -6.9733  -16.1864 C   0  0  1  0  0  0  0  0  0  0  0  0
   17.0370   -7.3831  -15.1336 C   0  0  0  0  0  0  0  0  0  0  0  0
   19.4416   -6.9691  -15.7110 C   0  0  2  0  0  0  0  0  0  0  0  0
   19.8810   -8.2408  -15.2421 N   0  0  0  0  0  0  0  0  0  0  0  0
   19.6486   -5.9216  -14.6949 C   0  0  0  0  0  0  0  0  0  0  0  0
   19.6166   -4.5969  -15.0738 O   0  0  0  0  0  0  0  0  0  0  0  0
   19.8513   -6.2229  -13.5011 O   0  0  0  0  0  0  0  0  0  0  0  0
  2  1  1  1
  2  3  1  0
  4  2  1  0
  4  5  1  1
  6  4  1  0
  6  7  2  0
  9  8  1  6
  9 11  1  0
 10  9  1  0
 11 13  1  0
 11 12  1  6
 12  6  1  0
 13 19  1  0
 14 13  2  0
 16 17  1  1
 16 15  1  0
 16 18  1  0
 18 20  1  0
 18 19  1  1
 20 22  2  0
 20 21  1  0
M  END
$$$$
