MSN.pdb
     RDKit          3D

 23 22  0  0  1  0  0  0  0  0999 V2000
   19.4175  -17.0304  -16.4904 C   0  0  0  0  0  0  0  0  0  0  0  0
   20.9708  -17.4872  -17.2992 S   0  0  0  0  0  0  0  0  0  0  0  0
   21.5341  -16.0659  -18.2770 C   0  0  0  0  0  0  0  0  0  0  0  0
   21.6471  -14.8841  -17.3144 C   0  0  0  0  0  0  0  0  0  0  0  0
   23.1161  -14.4914  -17.3102 C   0  0  2  0  0  0  0  0  0  0  0  0
   23.9329  -15.5633  -16.7629 N   0  0  0  0  0  0  0  0  0  0  0  0
   23.2371  -13.3336  -16.3757 C   0  0  0  0  0  0  0  0  0  0  0  0
   22.8831  -13.4058  -15.1588 O   0  0  0  0  0  0  0  0  0  0  0  0
   25.2721  -10.1069  -17.6368 O   0  0  0  0  0  0  0  0  0  0  0  0
   25.2571  -10.3237  -16.2531 C   0  0  0  0  0  0  0  0  0  0  0  0
   23.8778  -10.9237  -15.9479 C   0  0  2  0  0  0  0  0  0  0  0  0
   23.7588  -12.0868  -16.8095 N   0  0  0  0  0  0  0  0  0  0  0  0
   22.8049   -9.9502  -16.1768 C   0  0  0  0  0  0  0  0  0  0  0  0
   22.1124  -10.0870  -17.2231 O   0  0  0  0  0  0  0  0  0  0  0  0
   18.6612   -7.0984  -17.2356 N   0  0  0  0  0  0  0  0  0  0  0  0
   18.9790   -7.7626  -16.0365 C   0  0  0  0  0  0  0  0  0  0  0  0
   18.2591   -7.6528  -14.9899 O   0  0  0  0  0  0  0  0  0  0  0  0
   20.1570   -8.6138  -15.9378 C   0  0  0  0  0  0  0  0  0  0  0  0
   21.4452   -7.9490  -15.6176 C   0  0  2  0  0  0  0  0  0  0  0  0
   22.4974   -8.8803  -15.3137 N   0  0  0  0  0  0  0  0  0  0  0  0
   21.3424   -6.9020  -14.5730 C   0  0  0  0  0  0  0  0  0  0  0  0
   20.5773   -5.9397  -14.7797 O   0  0  0  0  0  0  0  0  0  0  0  0
   22.0410   -6.9303  -13.3911 O   0  0  0  0  0  0  0  0  0  0  0  0
  2  1  1  0
  3  2  1  0
  4  5  1  0
  4  3  1  0
  5  7  1  0
  5  6  1  1
  7  8  2  0
  9 10  1  0
 11 10  1  6
 11 13  1  0
 12  7  1  0
 12 11  1  0
 13 20  1  0
 14 13  2  0
 16 15  1  0
 17 16  2  0
 18 16  1  0
 19 18  1  1
 20 19  1  0
 21 23  1  0
 21 19  1  0
 22 21  2  0
M  END
$$$$
