MSN.pdb
     RDKit          3D

 23 22  0  0  1  0  0  0  0  0999 V2000
   30.3335  -10.8327  -17.3812 C   0  0  0  0  0  0  0  0  0  0  0  0
   28.7223  -10.6040  -16.5891 S   0  0  0  0  0  0  0  0  0  0  0  0
   27.7528  -12.1174  -16.8406 C   0  0  0  0  0  0  0  0  0  0  0  0
   26.4299  -11.9229  -16.1003 C   0  0  0  0  0  0  0  0  0  0  0  0
   25.6013  -10.9901  -16.9694 C   0  0  2  0  0  0  0  0  0  0  0  0
   26.1073   -9.6287  -16.8897 N   0  0  0  0  0  0  0  0  0  0  0  0
   24.2296  -10.9779  -16.3807 C   0  0  0  0  0  0  0  0  0  0  0  0
   23.5365  -12.0343  -16.2567 O   0  0  0  0  0  0  0  0  0  0  0  0
   23.0362   -7.8696  -14.2213 O   0  0  0  0  0  0  0  0  0  0  0  0
   22.3234   -9.0658  -14.0703 C   0  0  0  0  0  0  0  0  0  0  0  0
   22.2549   -9.6814  -15.4746 C   0  0  2  0  0  0  0  0  0  0  0  0
   23.6316   -9.7727  -15.9282 N   0  0  0  0  0  0  0  0  0  0  0  0
   21.4249   -8.8750  -16.3757 C   0  0  0  0  0  0  0  0  0  0  0  0
   22.0202   -8.0833  -17.1580 O   0  0  0  0  0  0  0  0  0  0  0  0
   16.9621  -10.8950  -17.7743 N   0  0  0  0  0  0  0  0  0  0  0  0
   17.8671   -9.9212  -18.2353 C   0  0  0  0  0  0  0  0  0  0  0  0
   18.6734  -10.1468  -19.1969 O   0  0  0  0  0  0  0  0  0  0  0  0
   17.9228   -8.5986  -17.6274 C   0  0  0  0  0  0  0  0  0  0  0  0
   19.2678   -8.0626  -17.2992 C   0  0  2  0  0  0  0  0  0  0  0  0
   20.0181   -8.9242  -16.4267 N   0  0  0  0  0  0  0  0  0  0  0  0
   19.2566   -6.6696  -16.7917 C   0  0  0  0  0  0  0  0  0  0  0  0
   19.3822   -6.4910  -15.5644 O   0  0  0  0  0  0  0  0  0  0  0  0
   19.1158   -5.5647  -17.5949 O   0  0  0  0  0  0  0  0  0  0  0  0
  2  1  1  0
  3  2  1  0
  4  5  1  0
  4  3  1  0
  5  7  1  0
  5  6  1  1
  7  8  2  0
  9 10  1  0
 11 10  1  1
 11 13  1  0
 12  7  1  0
 12 11  1  0
 13 20  1  0
 14 13  2  0
 16 15  1  0
 17 16  2  0
 18 16  1  0
 19 18  1  1
 20 19  1  0
 21 23  1  0
 21 19  1  0
 22 21  2  0
M  END
$$$$
