MSN.pdb
     RDKit          3D

 23 22  0  0  1  0  0  0  0  0999 V2000
   29.3799  -20.7420   -5.8294 C   0  0  0  0  0  0  0  0  0  0  0  0
   28.4602  -19.2638   -5.3347 S   0  0  0  0  0  0  0  0  0  0  0  0
   26.9018  -19.2346   -6.2643 C   0  0  0  0  0  0  0  0  0  0  0  0
   27.1201  -20.0790   -7.5195 C   0  0  0  0  0  0  0  0  0  0  0  0
   25.8340  -19.9679   -8.3231 C   0  0  2  0  0  0  0  0  0  0  0  0
   24.7491  -20.6708   -7.6562 N   0  0  0  0  0  0  0  0  0  0  0  0
   26.0832  -20.6784   -9.6120 C   0  0  0  0  0  0  0  0  0  0  0  0
   26.7987  -21.7247   -9.6812 O   0  0  0  0  0  0  0  0  0  0  0  0
   23.3654  -20.9459  -12.1373 O   0  0  0  0  0  0  0  0  0  0  0  0
   24.4729  -21.7940  -12.2635 C   0  0  0  0  0  0  0  0  0  0  0  0
   25.7019  -20.8885  -12.1044 C   0  0  2  0  0  0  0  0  0  0  0  0
   25.5259  -20.2119  -10.8313 N   0  0  0  0  0  0  0  0  0  0  0  0
   25.8249  -19.9469  -13.2222 C   0  0  0  0  0  0  0  0  0  0  0  0
   25.4335  -18.7628  -13.0275 O   0  0  0  0  0  0  0  0  0  0  0  0
   27.9094  -16.9851  -15.1809 N   0  0  0  0  0  0  0  0  0  0  0  0
   28.4172  -18.0200  -15.9879 C   0  0  0  0  0  0  0  0  0  0  0  0
   29.5812  -17.9664  -16.5053 O   0  0  0  0  0  0  0  0  0  0  0  0
   27.6264  -19.2103  -16.2703 C   0  0  0  0  0  0  0  0  0  0  0  0
   26.3195  -19.3327  -15.5768 C   0  0  2  0  0  0  0  0  0  0  0  0
   26.3467  -20.2726  -14.4893 N   0  0  0  0  0  0  0  0  0  0  0  0
   25.1765  -19.5991  -16.4827 C   0  0  0  0  0  0  0  0  0  0  0  0
   24.9295  -18.7661  -17.3766 O   0  0  0  0  0  0  0  0  0  0  0  0
   24.3740  -20.7099  -16.3943 O   0  0  0  0  0  0  0  0  0  0  0  0
  2  1  1  0
  3  2  1  0
  4  5  1  0
  4  3  1  0
  5  7  1  0
  5  6  1  1
  7  8  2  0
  9 10  1  0
 11 10  1  6
 11 13  1  0
 12  7  1  0
 12 11  1  0
 13 20  1  0
 14 13  2  0
 16 15  1  0
 17 16  2  0
 18 16  1  0
 19 18  1  6
 20 19  1  0
 21 23  1  0
 21 19  1  0
 22 21  2  0
M  END
$$$$
