MSN.pdb
     RDKit          3D

 23 22  0  0  1  0  0  0  0  0999 V2000
   29.0393  -20.0253   -4.0114 C   0  0  0  0  0  0  0  0  0  0  0  0
   28.4720  -20.3202   -5.7045 S   0  0  0  0  0  0  0  0  0  0  0  0
   26.6631  -20.1751   -5.7241 C   0  0  0  0  0  0  0  0  0  0  0  0
   26.1976  -20.6378   -7.1044 C   0  0  0  0  0  0  0  0  0  0  0  0
   26.9720  -19.7968   -8.1070 C   0  0  2  0  0  0  0  0  0  0  0  0
   26.9802  -18.3984   -7.7070 N   0  0  0  0  0  0  0  0  0  0  0  0
   26.2161  -19.8758   -9.3918 C   0  0  0  0  0  0  0  0  0  0  0  0
   25.0372  -19.4209   -9.5130 O   0  0  0  0  0  0  0  0  0  0  0  0
   27.9353  -21.8512  -12.4292 O   0  0  0  0  0  0  0  0  0  0  0  0
   27.2789  -20.6933  -12.8657 C   0  0  0  0  0  0  0  0  0  0  0  0
   26.1498  -20.4568  -11.8534 C   0  0  2  0  0  0  0  0  0  0  0  0
   26.7868  -20.4690  -10.5483 N   0  0  0  0  0  0  0  0  0  0  0  0
   25.1008  -21.4753  -11.9697 C   0  0  0  0  0  0  0  0  0  0  0  0
   24.9430  -22.2581  -10.9923 O   0  0  0  0  0  0  0  0  0  0  0  0
   19.8935  -20.4811  -12.9493 N   0  0  0  0  0  0  0  0  0  0  0  0
   20.8040  -20.7267  -11.9049 C   0  0  0  0  0  0  0  0  0  0  0  0
   20.4187  -21.0061  -10.7221 O   0  0  0  0  0  0  0  0  0  0  0  0
   22.2417  -20.6718  -12.1322 C   0  0  0  0  0  0  0  0  0  0  0  0
   22.8375  -21.7570  -12.9517 C   0  0  2  0  0  0  0  0  0  0  0  0
   24.2634  -21.6374  -13.0906 N   0  0  0  0  0  0  0  0  0  0  0  0
   22.1876  -21.9452  -14.2709 C   0  0  0  0  0  0  0  0  0  0  0  0
   22.8109  -21.5858  -15.2889 O   0  0  0  0  0  0  0  0  0  0  0  0
   20.9391  -22.4923  -14.4367 O   0  0  0  0  0  0  0  0  0  0  0  0
  2  1  1  0
  3  2  1  0
  4  5  1  0
  4  3  1  0
  5  7  1  0
  5  6  1  1
  7  8  2  0
  9 10  1  0
 11 10  1  6
 11 13  1  0
 12  7  1  0
 12 11  1  0
 13 20  1  0
 14 13  2  0
 16 15  1  0
 17 16  2  0
 18 16  1  0
 19 18  1  6
 20 19  1  0
 21 23  1  0
 21 19  1  0
 22 21  2  0
M  END
$$$$
