MSN.pdb
     RDKit          3D

 23 22  0  0  1  0  0  0  0  0999 V2000
   18.5705  -18.8035  -17.1245 C   0  0  0  0  0  0  0  0  0  0  0  0
   18.9085  -17.0471  -16.8477 S   0  0  0  0  0  0  0  0  0  0  0  0
   19.4485  -16.3241  -18.4223 C   0  0  0  0  0  0  0  0  0  0  0  0
   19.8134  -14.8674  -18.1376 C   0  0  0  0  0  0  0  0  0  0  0  0
   20.1979  -14.2660  -19.4802 C   0  0  2  0  0  0  0  0  0  0  0  0
   21.4220  -14.8702  -19.9823 N   0  0  0  0  0  0  0  0  0  0  0  0
   20.4985  -12.8266  -19.2232 C   0  0  0  0  0  0  0  0  0  0  0  0
   21.5775  -12.4481  -18.6719 O   0  0  0  0  0  0  0  0  0  0  0  0
   19.0670   -8.2912  -20.0434 O   0  0  0  0  0  0  0  0  0  0  0  0
   18.7554   -9.6510  -20.1690 C   0  0  0  0  0  0  0  0  0  0  0  0
   19.8203  -10.3923  -19.3493 C   0  0  2  0  0  0  0  0  0  0  0  0
   19.5825  -11.8052  -19.5875 N   0  0  0  0  0  0  0  0  0  0  0  0
   19.7404  -10.0472  -17.9261 C   0  0  0  0  0  0  0  0  0  0  0  0
   18.9187  -10.6935  -17.2188 O   0  0  0  0  0  0  0  0  0  0  0  0
   20.2569   -8.2185  -13.0958 N   0  0  0  0  0  0  0  0  0  0  0  0
   21.4326   -8.7504  -13.6568 C   0  0  0  0  0  0  0  0  0  0  0  0
   22.4724   -8.9829  -12.9565 O   0  0  0  0  0  0  0  0  0  0  0  0
   21.5138   -9.0619  -15.0775 C   0  0  0  0  0  0  0  0  0  0  0  0
   20.3336   -8.7220  -15.9116 C   0  0  2  0  0  0  0  0  0  0  0  0
   20.5136   -9.0504  -17.2995 N   0  0  0  0  0  0  0  0  0  0  0  0
   19.8614   -7.3258  -15.7513 C   0  0  0  0  0  0  0  0  0  0  0  0
   18.7899   -7.1346  -15.1435 O   0  0  0  0  0  0  0  0  0  0  0  0
   20.5356   -6.2309  -16.2334 O   0  0  0  0  0  0  0  0  0  0  0  0
  2  1  1  0
  3  2  1  0
  4  5  1  0
  4  3  1  0
  5  7  1  0
  5  6  1  1
  7  8  2  0
  9 10  1  0
 11 10  1  6
 11 13  1  0
 12  7  1  0
 12 11  1  0
 13 20  1  0
 14 13  2  0
 16 15  1  0
 17 16  2  0
 18 16  1  0
 19 18  1  1
 20 19  1  0
 21 23  1  0
 21 19  1  0
 22 21  2  0
M  END
$$$$
