MSN.pdb
     RDKit          3D

 23 22  0  0  1  0  0  0  0  0999 V2000
   31.7083  -21.5838   -9.5134 C   0  0  0  0  0  0  0  0  0  0  0  0
   31.9744  -21.9825  -11.2587 S   0  0  0  0  0  0  0  0  0  0  0  0
   30.8499  -20.9566  -12.2469 C   0  0  0  0  0  0  0  0  0  0  0  0
   29.5306  -21.7213  -12.3512 C   0  0  0  0  0  0  0  0  0  0  0  0
   28.5652  -20.7878  -13.0645 C   0  0  2  0  0  0  0  0  0  0  0  0
   28.5633  -19.4747  -12.4388 N   0  0  0  0  0  0  0  0  0  0  0  0
   27.2026  -21.3644  -12.8667 C   0  0  0  0  0  0  0  0  0  0  0  0
   26.7612  -22.3186  -13.5781 O   0  0  0  0  0  0  0  0  0  0  0  0
   24.9672  -20.1348   -9.6678 O   0  0  0  0  0  0  0  0  0  0  0  0
   24.8030  -21.4458  -10.1326 C   0  0  0  0  0  0  0  0  0  0  0  0
   24.9816  -21.3657  -11.6549 C   0  0  2  0  0  0  0  0  0  0  0  0
   26.3295  -20.8670  -11.8640 N   0  0  0  0  0  0  0  0  0  0  0  0
   23.9678  -20.5032  -12.2709 C   0  0  0  0  0  0  0  0  0  0  0  0
   24.3107  -19.3242  -12.5630 O   0  0  0  0  0  0  0  0  0  0  0  0
   20.5290  -19.1003  -15.8275 N   0  0  0  0  0  0  0  0  0  0  0  0
   21.8371  -19.5903  -15.9967 C   0  0  0  0  0  0  0  0  0  0  0  0
   22.4469  -19.5217  -17.1144 O   0  0  0  0  0  0  0  0  0  0  0  0
   22.5593  -20.2037  -14.8904 C   0  0  0  0  0  0  0  0  0  0  0  0
   21.8708  -20.2463  -13.5758 C   0  0  2  0  0  0  0  0  0  0  0  0
   22.6465  -20.8991  -12.5566 N   0  0  0  0  0  0  0  0  0  0  0  0
   20.4946  -20.7951  -13.6312 C   0  0  0  0  0  0  0  0  0  0  0  0
   20.3440  -21.9615  -14.0446 O   0  0  0  0  0  0  0  0  0  0  0  0
   19.3762  -20.0933  -13.2539 O   0  0  0  0  0  0  0  0  0  0  0  0
  2  1  1  0
  3  2  1  0
  4  5  1  0
  4  3  1  0
  5  7  1  0
  5  6  1  1
  7  8  2  0
  9 10  1  0
 11 10  1  1
 11 13  1  0
 12  7  1  0
 12 11  1  0
 13 20  1  0
 14 13  2  0
 16 15  1  0
 17 16  2  0
 18 16  1  0
 19 18  1  6
 20 19  1  0
 21 23  1  0
 21 19  1  0
 22 21  2  0
M  END
$$$$
