MSN.pdb
     RDKit          3D

 23 22  0  0  1  0  0  0  0  0999 V2000
   27.3414  -19.9124   -4.5800 C   0  0  0  0  0  0  0  0  0  0  0  0
   28.1352  -18.9407   -5.8843 S   0  0  0  0  0  0  0  0  0  0  0  0
   28.6134  -20.0751   -7.2178 C   0  0  0  0  0  0  0  0  0  0  0  0
   27.5454  -19.9549   -8.3046 C   0  0  0  0  0  0  0  0  0  0  0  0
   27.8544  -21.0502   -9.3129 C   0  0  2  0  0  0  0  0  0  0  0  0
   29.2533  -21.0045   -9.7088 N   0  0  0  0  0  0  0  0  0  0  0  0
   27.0489  -20.7377  -10.5303 C   0  0  0  0  0  0  0  0  0  0  0  0
   27.4431  -19.9111  -11.4093 O   0  0  0  0  0  0  0  0  0  0  0  0
   23.1496  -22.2039  -11.2354 O   0  0  0  0  0  0  0  0  0  0  0  0
   24.2410  -22.7174  -11.9475 C   0  0  0  0  0  0  0  0  0  0  0  0
   25.2258  -21.5484  -12.0860 C   0  0  2  0  0  0  0  0  0  0  0  0
   25.7929  -21.3569  -10.7627 N   0  0  0  0  0  0  0  0  0  0  0  0
   24.5604  -20.3407  -12.5859 C   0  0  0  0  0  0  0  0  0  0  0  0
   24.1356  -19.5169  -11.7291 O   0  0  0  0  0  0  0  0  0  0  0  0
   22.5441  -16.4508  -15.4387 N   0  0  0  0  0  0  0  0  0  0  0  0
   23.8120  -16.8596  -15.8919 C   0  0  0  0  0  0  0  0  0  0  0  0
   24.4587  -16.2060  -16.7752 O   0  0  0  0  0  0  0  0  0  0  0  0
   24.4476  -18.0601  -15.3659 C   0  0  0  0  0  0  0  0  0  0  0  0
   23.6838  -18.8441  -14.3629 C   0  0  2  0  0  0  0  0  0  0  0  0
   24.3649  -20.0402  -13.9481 N   0  0  0  0  0  0  0  0  0  0  0  0
   22.2862  -19.1377  -14.7612 C   0  0  0  0  0  0  0  0  0  0  0  0
   22.0842  -20.0991  -15.5286 O   0  0  0  0  0  0  0  0  0  0  0  0
   21.2014  -18.4122  -14.3341 O   0  0  0  0  0  0  0  0  0  0  0  0
  2  1  1  0
  3  2  1  0
  4  5  1  0
  4  3  1  0
  5  7  1  0
  5  6  1  6
  7  8  2  0
  9 10  1  0
 11 10  1  1
 11 13  1  0
 12  7  1  0
 12 11  1  0
 13 20  1  0
 14 13  2  0
 16 15  1  0
 17 16  2  0
 18 16  1  0
 19 18  1  6
 20 19  1  0
 21 23  1  0
 21 19  1  0
 22 21  2  0
M  END
$$$$
