MSN.pdb
     RDKit          3D

 23 22  0  0  1  0  0  0  0  0999 V2000
   15.8607  -20.3781    0.9118 C   0  0  0  0  0  0  0  0  0  0  0  0
   15.8887  -21.9377   -0.0062 S   0  0  0  0  0  0  0  0  0  0  0  0
   14.1847  -22.3379   -0.4855 C   0  0  0  0  0  0  0  0  0  0  0  0
   14.2402  -23.6579   -1.2540 C   0  0  0  0  0  0  0  0  0  0  0  0
   14.4865  -23.2823   -2.7067 C   0  0  2  0  0  0  0  0  0  0  0  0
   13.2599  -22.8113   -3.3307 N   0  0  0  0  0  0  0  0  0  0  0  0
   14.8718  -24.5438   -3.4056 C   0  0  0  0  0  0  0  0  0  0  0  0
   14.0717  -25.5216   -3.5282 O   0  0  0  0  0  0  0  0  0  0  0  0
   18.7338  -24.8341   -4.4610 O   0  0  0  0  0  0  0  0  0  0  0  0
   17.9298  -25.6791   -5.2364 C   0  0  0  0  0  0  0  0  0  0  0  0
   16.7085  -25.9969   -4.3629 C   0  0  2  0  0  0  0  0  0  0  0  0
   16.1634  -24.7091   -3.9708 N   0  0  0  0  0  0  0  0  0  0  0  0
   17.0740  -26.8214   -3.2063 C   0  0  0  0  0  0  0  0  0  0  0  0
   16.7829  -26.3753   -2.0621 O   0  0  0  0  0  0  0  0  0  0  0  0
   18.3236  -30.5045    0.1913 N   0  0  0  0  0  0  0  0  0  0  0  0
   17.0880  -29.8732   -0.0426 C   0  0  0  0  0  0  0  0  0  0  0  0
   16.0858  -30.0395    0.7278 O   0  0  0  0  0  0  0  0  0  0  0  0
   16.8982  -28.9926   -1.1873 C   0  0  0  0  0  0  0  0  0  0  0  0
   18.0521  -28.8208   -2.1055 C   0  0  2  0  0  0  0  0  0  0  0  0
   17.7234  -28.0689   -3.2858 N   0  0  0  0  0  0  0  0  0  0  0  0
   18.7409  -30.0864   -2.4547 C   0  0  0  0  0  0  0  0  0  0  0  0
   19.1578  -30.8039   -1.5244 O   0  0  0  0  0  0  0  0  0  0  0  0
   18.9466  -30.5142   -3.7433 O   0  0  0  0  0  0  0  0  0  0  0  0
  2  1  1  0
  3  2  1  0
  4  5  1  0
  4  3  1  0
  5  7  1  0
  5  6  1  6
  7  8  2  0
  9 10  1  0
 11 10  1  6
 11 13  1  0
 12  7  1  0
 12 11  1  0
 13 20  1  0
 14 13  2  0
 16 15  1  0
 17 16  2  0
 18 16  1  0
 19 18  1  6
 20 19  1  0
 21 23  1  0
 21 19  1  0
 22 21  2  0
M  END
$$$$
