MSN.pdb
     RDKit          3D

 23 22  0  0  1  0  0  0  0  0999 V2000
   29.4704  -20.4027   -6.9966 C   0  0  0  0  0  0  0  0  0  0  0  0
   28.1280  -19.3400   -6.4101 S   0  0  0  0  0  0  0  0  0  0  0  0
   26.5974  -19.8624   -7.2334 C   0  0  0  0  0  0  0  0  0  0  0  0
   26.7799  -19.5822   -8.7248 C   0  0  0  0  0  0  0  0  0  0  0  0
   25.4947  -20.0432   -9.3940 C   0  0  2  0  0  0  0  0  0  0  0  0
   25.2208  -21.4359   -9.0761 N   0  0  0  0  0  0  0  0  0  0  0  0
   25.7408  -19.9745  -10.8647 C   0  0  0  0  0  0  0  0  0  0  0  0
   26.1300  -18.9104  -11.4372 O   0  0  0  0  0  0  0  0  0  0  0  0
   25.7160  -23.2611  -12.8943 O   0  0  0  0  0  0  0  0  0  0  0  0
   25.7065  -22.1989  -13.8071 C   0  0  0  0  0  0  0  0  0  0  0  0
   25.0563  -21.0250  -13.0623 C   0  0  2  0  0  0  0  0  0  0  0  0
   25.5490  -21.1072  -11.6985 N   0  0  0  0  0  0  0  0  0  0  0  0
   23.5926  -21.0896  -13.1295 C   0  0  0  0  0  0  0  0  0  0  0  0
   22.9479  -20.6672  -12.1300 O   0  0  0  0  0  0  0  0  0  0  0  0
   18.7835  -20.3531  -14.7378 N   0  0  0  0  0  0  0  0  0  0  0  0
   19.7994  -19.4094  -14.4986 C   0  0  0  0  0  0  0  0  0  0  0  0
   19.5557  -18.1616  -14.4017 O   0  0  0  0  0  0  0  0  0  0  0  0
   21.1886  -19.8213  -14.3497 C   0  0  0  0  0  0  0  0  0  0  0  0
   21.4705  -21.2779  -14.4051 C   0  0  2  0  0  0  0  0  0  0  0  0
   22.8629  -21.5876  -14.2266 N   0  0  0  0  0  0  0  0  0  0  0  0
   20.9238  -21.9546  -15.6057 C   0  0  0  0  0  0  0  0  0  0  0  0
   21.4511  -21.7099  -16.7085 O   0  0  0  0  0  0  0  0  0  0  0  0
   19.8706  -22.8351  -15.5736 O   0  0  0  0  0  0  0  0  0  0  0  0
  2  1  1  0
  3  2  1  0
  4  5  1  0
  4  3  1  0
  5  7  1  0
  5  6  1  1
  7  8  2  0
  9 10  1  0
 11 10  1  6
 11 13  1  0
 12  7  1  0
 12 11  1  0
 13 20  1  0
 14 13  2  0
 16 15  1  0
 17 16  2  0
 18 16  1  0
 19 18  1  6
 20 19  1  0
 21 23  1  0
 21 19  1  0
 22 21  2  0
M  END
$$$$
