MSN.pdb
     RDKit          3D

 23 22  0  0  1  0  0  0  0  0999 V2000
   11.3610  -11.1034   -9.3081 C   0  0  0  0  0  0  0  0  0  0  0  0
   11.0130  -11.3076  -11.0724 S   0  0  0  0  0  0  0  0  0  0  0  0
   12.5863  -11.6141  -11.9235 C   0  0  0  0  0  0  0  0  0  0  0  0
   13.6396  -10.7508  -11.2297 C   0  0  0  0  0  0  0  0  0  0  0  0
   14.9396  -11.0011  -11.9777 C   0  0  2  0  0  0  0  0  0  0  0  0
   15.4314  -12.3450  -11.7176 N   0  0  0  0  0  0  0  0  0  0  0  0
   15.9412  -10.0543  -11.4044 C   0  0  0  0  0  0  0  0  0  0  0  0
   16.4980  -10.2556  -10.2815 O   0  0  0  0  0  0  0  0  0  0  0  0
   17.2392   -6.9791  -13.7304 O   0  0  0  0  0  0  0  0  0  0  0  0
   18.1500   -7.5382  -12.8250 C   0  0  0  0  0  0  0  0  0  0  0  0
   17.3159   -7.9394  -11.6006 C   0  0  2  0  0  0  0  0  0  0  0  0
   16.3206   -8.8740  -12.0957 N   0  0  0  0  0  0  0  0  0  0  0  0
   16.7088   -6.7699  -10.9566 C   0  0  0  0  0  0  0  0  0  0  0  0
   15.5467   -6.4437  -11.3257 O   0  0  0  0  0  0  0  0  0  0  0  0
   17.4973   -2.2865   -7.0430 N   0  0  0  0  0  0  0  0  0  0  0  0
   16.5928   -3.2859   -7.4467 C   0  0  0  0  0  0  0  0  0  0  0  0
   15.3311   -3.1455   -7.3286 O   0  0  0  0  0  0  0  0  0  0  0  0
   17.0638   -4.5380   -8.0233 C   0  0  0  0  0  0  0  0  0  0  0  0
   16.7115   -4.8029   -9.4410 C   0  0  2  0  0  0  0  0  0  0  0  0
   17.3307   -5.9917   -9.9607 N   0  0  0  0  0  0  0  0  0  0  0  0
   16.9319   -3.6486  -10.3449 C   0  0  0  0  0  0  0  0  0  0  0  0
   16.2252   -2.6343  -10.1848 O   0  0  0  0  0  0  0  0  0  0  0  0
   17.8692   -3.6318  -11.3484 O   0  0  0  0  0  0  0  0  0  0  0  0
  2  1  1  0
  3  2  1  0
  4  5  1  0
  4  3  1  0
  5  7  1  0
  5  6  1  1
  7  8  2  0
  9 10  1  0
 11 10  1  6
 11 13  1  0
 12  7  1  0
 12 11  1  0
 13 20  1  0
 14 13  2  0
 16 15  1  0
 17 16  2  0
 18 16  1  0
 19 18  1  1
 20 19  1  0
 21 23  1  0
 21 19  1  0
 22 21  2  0
M  END
$$$$
