MSN.pdb
     RDKit          3D

 23 22  0  0  1  0  0  0  0  0999 V2000
   28.6411  -20.3904  -18.4708 C   0  0  0  0  0  0  0  0  0  0  0  0
   27.6232  -19.0563  -17.7929 S   0  0  0  0  0  0  0  0  0  0  0  0
   25.9889  -19.1428  -18.5771 C   0  0  0  0  0  0  0  0  0  0  0  0
   25.1616  -17.9932  -18.0025 C   0  0  0  0  0  0  0  0  0  0  0  0
   25.1828  -18.1804  -16.4937 C   0  0  2  0  0  0  0  0  0  0  0  0
   24.3928  -19.3394  -16.1085 N   0  0  0  0  0  0  0  0  0  0  0  0
   24.5065  -16.9825  -15.9139 C   0  0  0  0  0  0  0  0  0  0  0  0
   23.2567  -16.9508  -15.6937 O   0  0  0  0  0  0  0  0  0  0  0  0
   26.7756  -13.7577  -15.5169 O   0  0  0  0  0  0  0  0  0  0  0  0
   25.7467  -13.7198  -14.5673 C   0  0  0  0  0  0  0  0  0  0  0  0
   24.6138  -14.5706  -15.1573 C   0  0  2  0  0  0  0  0  0  0  0  0
   25.2374  -15.8127  -15.5788 N   0  0  0  0  0  0  0  0  0  0  0  0
   23.9438  -13.8810  -16.2649 C   0  0  0  0  0  0  0  0  0  0  0  0
   24.2515  -14.2334  -17.4372 O   0  0  0  0  0  0  0  0  0  0  0  0
   20.0008  -13.4353  -19.9226 N   0  0  0  0  0  0  0  0  0  0  0  0
   21.1032  -12.7554  -19.3725 C   0  0  0  0  0  0  0  0  0  0  0  0
   21.5506  -11.6724  -19.8749 O   0  0  0  0  0  0  0  0  0  0  0  0
   21.7884  -13.2650  -18.1925 C   0  0  0  0  0  0  0  0  0  0  0  0
   22.3349  -12.2624  -17.2437 C   0  0  2  0  0  0  0  0  0  0  0  0
   22.9867  -12.8593  -16.1098 N   0  0  0  0  0  0  0  0  0  0  0  0
   21.3535  -11.2371  -16.8153 C   0  0  0  0  0  0  0  0  0  0  0  0
   21.1062  -11.1337  -15.5978 O   0  0  0  0  0  0  0  0  0  0  0  0
   20.7009  -10.3947  -17.6814 O   0  0  0  0  0  0  0  0  0  0  0  0
  2  1  1  0
  3  2  1  0
  4  5  1  0
  4  3  1  0
  5  7  1  0
  5  6  1  6
  7  8  2  0
  9 10  1  0
 11 10  1  6
 11 13  1  0
 12  7  1  0
 12 11  1  0
 13 20  1  0
 14 13  2  0
 16 15  1  0
 17 16  2  0
 18 16  1  0
 19 18  1  1
 20 19  1  0
 21 23  1  0
 21 19  1  0
 22 21  2  0
M  END
$$$$
