MSN.pdb
     RDKit          3D

 23 22  0  0  1  0  0  0  0  0999 V2000
   18.1586  -20.8297    2.8876 C   0  0  0  0  0  0  0  0  0  0  0  0
   17.3432  -19.7668    1.6707 S   0  0  0  0  0  0  0  0  0  0  0  0
   16.1611  -18.7086    2.5518 C   0  0  0  0  0  0  0  0  0  0  0  0
   16.9713  -17.8645    3.5352 C   0  0  0  0  0  0  0  0  0  0  0  0
   15.9593  -17.0040    4.2753 C   0  0  2  0  0  0  0  0  0  0  0  0
   15.3620  -16.0270    3.3783 N   0  0  0  0  0  0  0  0  0  0  0  0
   16.7301  -16.2384    5.2990 C   0  0  0  0  0  0  0  0  0  0  0  0
   17.2190  -15.0914    5.0605 O   0  0  0  0  0  0  0  0  0  0  0  0
   16.9007  -14.9921    9.7065 O   0  0  0  0  0  0  0  0  0  0  0  0
   16.4239  -15.8998    8.7522 C   0  0  0  0  0  0  0  0  0  0  0  0
   17.5259  -15.9912    7.6879 C   0  0  2  0  0  0  0  0  0  0  0  0
   16.9537  -16.7631    6.5988 N   0  0  0  0  0  0  0  0  0  0  0  0
   18.7437  -16.6067    8.2258 C   0  0  0  0  0  0  0  0  0  0  0  0
   18.8101  -17.8671    8.2119 O   0  0  0  0  0  0  0  0  0  0  0  0
   24.3161  -15.9129   10.2871 N   0  0  0  0  0  0  0  0  0  0  0  0
   23.4702  -16.6331    9.4236 C   0  0  0  0  0  0  0  0  0  0  0  0
   23.7135  -17.8384    9.0867 O   0  0  0  0  0  0  0  0  0  0  0  0
   22.2667  -16.0262    8.8712 C   0  0  0  0  0  0  0  0  0  0  0  0
   20.9641  -16.5654    9.3367 C   0  0  2  0  0  0  0  0  0  0  0  0
   19.8365  -15.8913    8.7531 N   0  0  0  0  0  0  0  0  0  0  0  0
   20.8337  -16.6428   10.8115 C   0  0  0  0  0  0  0  0  0  0  0  0
   20.7485  -17.7711   11.3349 O   0  0  0  0  0  0  0  0  0  0  0  0
   20.8013  -15.5441   11.6346 O   0  0  0  0  0  0  0  0  0  0  0  0
  2  1  1  0
  3  2  1  0
  4  5  1  0
  4  3  1  0
  5  7  1  0
  5  6  1  6
  7  8  2  0
  9 10  1  0
 11 10  1  1
 11 13  1  0
 12  7  1  0
 12 11  1  0
 13 20  1  0
 14 13  2  0
 16 15  1  0
 17 16  2  0
 18 16  1  0
 19 18  1  1
 20 19  1  0
 21 23  1  0
 21 19  1  0
 22 21  2  0
M  END
$$$$
