MSN.pdb
     RDKit          3D

 23 22  0  0  1  0  0  0  0  0999 V2000
   15.8167  -14.5764  -15.3331 C   0  0  0  0  0  0  0  0  0  0  0  0
   16.5755  -12.9669  -15.6639 S   0  0  0  0  0  0  0  0  0  0  0  0
   18.3233  -13.0607  -15.1842 C   0  0  0  0  0  0  0  0  0  0  0  0
   18.9169  -11.6694  -15.4031 C   0  0  0  0  0  0  0  0  0  0  0  0
   19.0061  -11.4887  -16.9103 C   0  0  2  0  0  0  0  0  0  0  0  0
   20.0420  -12.3429  -17.4698 N   0  0  0  0  0  0  0  0  0  0  0  0
   19.4377  -10.0779  -17.1378 C   0  0  0  0  0  0  0  0  0  0  0  0
   20.6401   -9.7035  -16.9779 O   0  0  0  0  0  0  0  0  0  0  0  0
   16.6226   -7.2153  -17.6354 O   0  0  0  0  0  0  0  0  0  0  0  0
   17.6742   -7.0941  -18.5526 C   0  0  0  0  0  0  0  0  0  0  0  0
   18.8951   -7.7145  -17.8597 C   0  0  2  0  0  0  0  0  0  0  0  0
   18.5142   -9.0809  -17.5477 N   0  0  0  0  0  0  0  0  0  0  0  0
   19.2776   -6.9570  -16.6635 C   0  0  0  0  0  0  0  0  0  0  0  0
   18.6891   -7.2432  -15.5842 O   0  0  0  0  0  0  0  0  0  0  0  0
   21.5406   -3.9269  -13.0750 N   0  0  0  0  0  0  0  0  0  0  0  0
   22.1971   -5.0867  -13.5263 C   0  0  0  0  0  0  0  0  0  0  0  0
   23.2023   -5.5776  -12.9145 O   0  0  0  0  0  0  0  0  0  0  0  0
   21.7522   -5.7844  -14.7251 C   0  0  0  0  0  0  0  0  0  0  0  0
   20.5662   -5.2319  -15.4267 C   0  0  2  0  0  0  0  0  0  0  0  0
   20.2506   -5.9388  -16.6380 N   0  0  0  0  0  0  0  0  0  0  0  0
   20.6306   -3.7699  -15.6644 C   0  0  0  0  0  0  0  0  0  0  0  0
   20.8076   -3.0228  -14.6823 O   0  0  0  0  0  0  0  0  0  0  0  0
   20.5064   -3.1908  -16.9033 O   0  0  0  0  0  0  0  0  0  0  0  0
  2  1  1  0
  3  2  1  0
  4  5  1  0
  4  3  1  0
  5  7  1  0
  5  6  1  1
  7  8  2  0
  9 10  1  0
 11 10  1  1
 11 13  1  0
 12  7  1  0
 12 11  1  0
 13 20  1  0
 14 13  2  0
 16 15  1  0
 17 16  2  0
 18 16  1  0
 19 18  1  6
 20 19  1  0
 21 23  1  0
 21 19  1  0
 22 21  2  0
M  END
$$$$
