PAN.pdb
     RDKit          3D

 21 21  0  0  1  0  0  0  0  0999 V2000
   17.2878  -11.7583  -15.2829 N   0  0  0  0  0  0  0  0  0  0  0  0
   16.8895  -12.9487  -16.0025 C   0  0  0  0  0  0  0  0  0  0  0  0
   17.6009  -12.9421  -17.3383 C   0  0  0  0  0  0  0  0  0  0  0  0
   18.0912  -11.4861  -17.4212 C   0  0  0  0  0  0  0  0  0  0  0  0
   18.4328  -11.2717  -15.9740 C   0  0  1  0  0  0  0  0  0  0  0  0
   18.8367   -9.9166  -15.6187 C   0  0  0  0  0  0  0  0  0  0  0  0
   19.8360   -9.4102  -16.1955 O   0  0  0  0  0  0  0  0  0  0  0  0
   18.3441   -6.9682  -15.7488 C   0  0  0  0  0  0  0  0  0  0  0  0
   18.5078   -7.7128  -14.4412 C   0  0  2  0  0  0  0  0  0  0  0  0
   18.1879   -9.0991  -14.6575 N   0  0  0  0  0  0  0  0  0  0  0  0
   17.6342   -7.1165  -13.3673 C   0  0  0  0  0  0  0  0  0  0  0  0
   17.7060   -5.9083  -13.0639 O   0  0  0  0  0  0  0  0  0  0  0  0
   15.0895   -7.2035   -8.8357 N   0  0  0  0  0  0  0  0  0  0  0  0
   16.1197   -8.1629   -9.0146 C   0  0  0  0  0  0  0  0  0  0  0  0
   16.5435   -8.7727   -8.0019 O   0  0  0  0  0  0  0  0  0  0  0  0
   16.7004   -8.4619  -10.3369 C   0  0  0  0  0  0  0  0  0  0  0  0
   16.0711   -7.5920  -11.4248 C   0  0  2  0  0  0  0  0  0  0  0  0
   16.7046   -7.9364  -12.6787 N   0  0  0  0  0  0  0  0  0  0  0  0
   16.2442   -6.1837  -11.0610 C   0  0  0  0  0  0  0  0  0  0  0  0
   15.2333   -5.4894  -10.7971 O   0  0  0  0  0  0  0  0  0  0  0  0
   17.4789   -5.5668  -10.9913 O   0  0  0  0  0  0  0  0  0  0  0  0
  2  1  1  0
  3  4  1  0
  3  2  1  0
  4  5  1  0
  5  1  1  0
  6 10  1  0
  5  6  1  6
  7  6  2  0
  9  8  1  6
  9 10  1  0
  9 11  1  0
 11 12  2  0
 11 18  1  0
 14 13  1  0
 14 16  1  0
 15 14  2  0
 17 16  1  1
 17 19  1  0
 18 17  1  0
 19 21  1  0
 20 19  2  0
M  END
$$$$
