PAN.pdb
     RDKit          3D

 21 21  0  0  1  0  0  0  0  0999 V2000
   23.9359  -10.8438  -16.0805 N   0  0  0  0  0  0  0  0  0  0  0  0
   24.2102  -12.2282  -15.7617 C   0  0  0  0  0  0  0  0  0  0  0  0
   24.2600  -13.0017  -17.0617 C   0  0  0  0  0  0  0  0  0  0  0  0
   23.6152  -12.0048  -18.0403 C   0  0  0  0  0  0  0  0  0  0  0  0
   24.1764  -10.7295  -17.4785 C   0  0  1  0  0  0  0  0  0  0  0  0
   23.6803   -9.5026  -18.0903 C   0  0  0  0  0  0  0  0  0  0  0  0
   23.8920   -9.3074  -19.3171 O   0  0  0  0  0  0  0  0  0  0  0  0
   21.2423   -7.9775  -19.0018 C   0  0  0  0  0  0  0  0  0  0  0  0
   22.2896   -7.4009  -18.0737 C   0  0  2  0  0  0  0  0  0  0  0  0
   22.9633   -8.4851  -17.4093 N   0  0  0  0  0  0  0  0  0  0  0  0
   21.6667   -6.4578  -17.0763 C   0  0  0  0  0  0  0  0  0  0  0  0
   21.0250   -5.4521  -17.4418 O   0  0  0  0  0  0  0  0  0  0  0  0
   18.9164   -7.2632  -14.3448 N   0  0  0  0  0  0  0  0  0  0  0  0
   19.9016   -7.4111  -13.3344 C   0  0  0  0  0  0  0  0  0  0  0  0
   19.6597   -8.1921  -12.3811 O   0  0  0  0  0  0  0  0  0  0  0  0
   21.1847   -6.6849  -13.3692 C   0  0  0  0  0  0  0  0  0  0  0  0
   21.3079   -5.8441  -14.6396 C   0  0  2  0  0  0  0  0  0  0  0  0
   21.8051   -6.7083  -15.6875 N   0  0  0  0  0  0  0  0  0  0  0  0
   22.1882   -4.7053  -14.3677 C   0  0  0  0  0  0  0  0  0  0  0  0
   23.3998   -4.7769  -14.6849 O   0  0  0  0  0  0  0  0  0  0  0  0
   21.7518   -3.5376  -13.7714 O   0  0  0  0  0  0  0  0  0  0  0  0
  2  1  1  0
  3  4  1  0
  3  2  1  0
  4  5  1  0
  5  1  1  0
  6 10  1  0
  5  6  1  6
  7  6  2  0
  9  8  1  6
  9 10  1  0
  9 11  1  0
 11 12  2  0
 11 18  1  0
 14 13  1  0
 14 16  1  0
 15 14  2  0
 17 16  1  1
 17 19  1  0
 18 17  1  0
 19 21  1  0
 20 19  2  0
M  END
$$$$
