PAN.pdb
     RDKit          3D

 21 21  0  0  1  0  0  0  0  0999 V2000
   36.0715   -6.2930  -14.3375 N   0  0  0  0  0  0  0  0  0  0  0  0
   35.1582   -6.4124  -15.4533 C   0  0  0  0  0  0  0  0  0  0  0  0
   35.2644   -7.8236  -15.9898 C   0  0  0  0  0  0  0  0  0  0  0  0
   36.5654   -8.3097  -15.3278 C   0  0  0  0  0  0  0  0  0  0  0  0
   36.4181   -7.6304  -13.9960 C   0  0  1  0  0  0  0  0  0  0  0  0
   37.5576   -7.7605  -13.0958 C   0  0  0  0  0  0  0  0  0  0  0  0
   37.8699   -8.9060  -12.6736 O   0  0  0  0  0  0  0  0  0  0  0  0
   40.3551   -5.6034  -11.8533 C   0  0  0  0  0  0  0  0  0  0  0  0
   39.4981   -6.8484  -11.7716 C   0  0  2  0  0  0  0  0  0  0  0  0
   38.3644   -6.6850  -12.6427 N   0  0  0  0  0  0  0  0  0  0  0  0
   39.0586   -7.1091  -10.3536 C   0  0  0  0  0  0  0  0  0  0  0  0
   38.0435   -6.5641   -9.8743 O   0  0  0  0  0  0  0  0  0  0  0  0
   38.5482  -10.8587   -6.0882 N   0  0  0  0  0  0  0  0  0  0  0  0
   39.6764  -10.0848   -6.4648 C   0  0  0  0  0  0  0  0  0  0  0  0
   40.4659   -9.7106   -5.5627 O   0  0  0  0  0  0  0  0  0  0  0  0
   39.9467   -9.7115   -7.8658 C   0  0  0  0  0  0  0  0  0  0  0  0
   39.5206   -8.2704   -8.1443 C   0  0  2  0  0  0  0  0  0  0  0  0
   39.8067   -7.9925   -9.5347 N   0  0  0  0  0  0  0  0  0  0  0  0
   40.2320   -7.3819   -7.2223 C   0  0  0  0  0  0  0  0  0  0  0  0
   39.6036   -6.8489   -6.2764 O   0  0  0  0  0  0  0  0  0  0  0  0
   41.5784   -7.0931   -7.3380 O   0  0  0  0  0  0  0  0  0  0  0  0
  2  1  1  0
  3  4  1  0
  3  2  1  0
  4  5  1  0
  5  1  1  0
  6 10  1  0
  5  6  1  6
  7  6  2  0
  9  8  1  1
  9 10  1  0
  9 11  1  0
 11 12  2  0
 11 18  1  0
 14 13  1  0
 14 16  1  0
 15 14  2  0
 17 16  1  1
 17 19  1  0
 18 17  1  0
 19 21  1  0
 20 19  2  0
M  END
$$$$
