PAN.pdb
     RDKit          3D

 21 21  0  0  1  0  0  0  0  0999 V2000
   28.7287  -21.7640  -11.6055 N   0  0  0  0  0  0  0  0  0  0  0  0
   29.6460  -22.0451  -10.5224 C   0  0  0  0  0  0  0  0  0  0  0  0
   30.6851  -20.9449  -10.4983 C   0  0  0  0  0  0  0  0  0  0  0  0
   30.4721  -20.2873  -11.8728 C   0  0  0  0  0  0  0  0  0  0  0  0
   28.9773  -20.4086  -11.9610 C   0  0  1  0  0  0  0  0  0  0  0  0
   28.3870  -19.9854  -13.2252 C   0  0  0  0  0  0  0  0  0  0  0  0
   28.3161  -18.7533  -13.4797 O   0  0  0  0  0  0  0  0  0  0  0  0
   27.7481  -21.3031  -16.5717 C   0  0  0  0  0  0  0  0  0  0  0  0
   27.2729  -20.4104  -15.4455 C   0  0  2  0  0  0  0  0  0  0  0  0
   27.8729  -20.8600  -14.2172 N   0  0  0  0  0  0  0  0  0  0  0  0
   25.7688  -20.4184  -15.3483 C   0  0  0  0  0  0  0  0  0  0  0  0
   25.0506  -20.0886  -16.3138 O   0  0  0  0  0  0  0  0  0  0  0  0
   21.0605  -21.1706  -13.0985 N   0  0  0  0  0  0  0  0  0  0  0  0
   22.0479  -21.0134  -12.0915 C   0  0  0  0  0  0  0  0  0  0  0  0
   21.6738  -20.9961  -10.8928 O   0  0  0  0  0  0  0  0  0  0  0  0
   23.4818  -20.8717  -12.4058 C   0  0  0  0  0  0  0  0  0  0  0  0
   23.7133  -20.8264  -13.9159 C   0  0  2  0  0  0  0  0  0  0  0  0
   25.1426  -20.8082  -14.1372 N   0  0  0  0  0  0  0  0  0  0  0  0
   23.0320  -19.6504  -14.4622 C   0  0  0  0  0  0  0  0  0  0  0  0
   23.5202  -18.5117  -14.2650 O   0  0  0  0  0  0  0  0  0  0  0  0
   21.8625  -19.7261  -15.1944 O   0  0  0  0  0  0  0  0  0  0  0  0
  2  1  1  0
  3  4  1  0
  3  2  1  0
  4  5  1  0
  5  1  1  0
  6 10  1  0
  5  6  1  6
  7  6  2  0
  9  8  1  6
  9 10  1  0
  9 11  1  0
 11 12  2  0
 11 18  1  0
 14 13  1  0
 14 16  1  0
 15 14  2  0
 17 16  1  1
 17 19  1  0
 18 17  1  0
 19 21  1  0
 20 19  2  0
M  END
$$$$
