PAN.pdb
     RDKit          3D

 21 21  0  0  1  0  0  0  0  0999 V2000
   21.1024  -16.9121  -16.3509 N   0  0  0  0  0  0  0  0  0  0  0  0
   20.7728  -17.7425  -17.4890 C   0  0  0  0  0  0  0  0  0  0  0  0
   21.1444  -16.9795  -18.7421 C   0  0  0  0  0  0  0  0  0  0  0  0
   21.3291  -15.5539  -18.1936 C   0  0  0  0  0  0  0  0  0  0  0  0
   21.9495  -15.8920  -16.8678 C   0  0  1  0  0  0  0  0  0  0  0  0
   22.1707  -14.7629  -15.9724 C   0  0  0  0  0  0  0  0  0  0  0  0
   21.2219  -14.3742  -15.2399 O   0  0  0  0  0  0  0  0  0  0  0  0
   25.0194  -12.5875  -14.8658 C   0  0  0  0  0  0  0  0  0  0  0  0
   23.5421  -12.8594  -15.0519 C   0  0  2  0  0  0  0  0  0  0  0  0
   23.3894  -14.0465  -15.8507 N   0  0  0  0  0  0  0  0  0  0  0  0
   22.8532  -11.6823  -15.6936 C   0  0  0  0  0  0  0  0  0  0  0  0
   22.7714  -11.5705  -16.9336 O   0  0  0  0  0  0  0  0  0  0  0  0
   19.8131   -7.4173  -15.9904 N   0  0  0  0  0  0  0  0  0  0  0  0
   20.0463   -7.7125  -14.6222 C   0  0  0  0  0  0  0  0  0  0  0  0
   19.5296   -6.9620  -13.7579 O   0  0  0  0  0  0  0  0  0  0  0  0
   20.8664   -8.8595  -14.1897 C   0  0  0  0  0  0  0  0  0  0  0  0
   21.5624   -9.5193  -15.3798 C   0  0  2  0  0  0  0  0  0  0  0  0
   22.2799  -10.6718  -14.8806 N   0  0  0  0  0  0  0  0  0  0  0  0
   22.4345   -8.5331  -16.0220 C   0  0  0  0  0  0  0  0  0  0  0  0
   23.5724   -8.3148  -15.5410 O   0  0  0  0  0  0  0  0  0  0  0  0
   22.0681   -7.8179  -17.1462 O   0  0  0  0  0  0  0  0  0  0  0  0
  2  1  1  0
  3  4  1  0
  3  2  1  0
  4  5  1  0
  5  1  1  0
  6 10  1  0
  5  6  1  1
  7  6  2  0
  9  8  1  6
  9 10  1  0
  9 11  1  0
 11 12  2  0
 11 18  1  0
 14 13  1  0
 14 16  1  0
 15 14  2  0
 17 16  1  1
 17 19  1  0
 18 17  1  0
 19 21  1  0
 20 19  2  0
M  END
$$$$
