PAN.pdb
     RDKit          3D

 21 21  0  0  1  0  0  0  0  0999 V2000
   17.3796  -13.1331  -15.7864 N   0  0  0  0  0  0  0  0  0  0  0  0
   17.3056  -14.5755  -15.8720 C   0  0  0  0  0  0  0  0  0  0  0  0
   18.5677  -15.0646  -16.5490 C   0  0  0  0  0  0  0  0  0  0  0  0
   19.1210  -13.7616  -17.1517 C   0  0  0  0  0  0  0  0  0  0  0  0
   18.7415  -12.8144  -16.0491 C   0  0  1  0  0  0  0  0  0  0  0  0
   19.0039  -11.4050  -16.3146 C   0  0  0  0  0  0  0  0  0  0  0  0
   20.1993  -11.0108  -16.3739 O   0  0  0  0  0  0  0  0  0  0  0  0
   17.0401   -8.4111  -17.4131 C   0  0  0  0  0  0  0  0  0  0  0  0
   18.2976   -9.0486  -16.8623 C   0  0  2  0  0  0  0  0  0  0  0  0
   18.0077  -10.4151  -16.5166 N   0  0  0  0  0  0  0  0  0  0  0  0
   18.8115   -8.2852  -15.6686 C   0  0  0  0  0  0  0  0  0  0  0  0
   18.4331   -8.5532  -14.5102 O   0  0  0  0  0  0  0  0  0  0  0  0
   21.5129   -4.6090  -13.0399 N   0  0  0  0  0  0  0  0  0  0  0  0
   22.2342   -5.0312  -14.1867 C   0  0  0  0  0  0  0  0  0  0  0  0
   23.4185   -4.6355  -14.3203 O   0  0  0  0  0  0  0  0  0  0  0  0
   21.6428   -5.9095  -15.2133 C   0  0  0  0  0  0  0  0  0  0  0  0
   20.2515   -6.3855  -14.7965 C   0  0  2  0  0  0  0  0  0  0  0  0
   19.7477   -7.2362  -15.8523 N   0  0  0  0  0  0  0  0  0  0  0  0
   19.4069   -5.2144  -14.5496 C   0  0  0  0  0  0  0  0  0  0  0  0
   18.8244   -4.6636  -15.5145 O   0  0  0  0  0  0  0  0  0  0  0  0
   19.2129   -4.6734  -13.2929 O   0  0  0  0  0  0  0  0  0  0  0  0
  2  1  1  0
  3  4  1  0
  3  2  1  0
  4  5  1  0
  5  1  1  0
  6 10  1  0
  5  6  1  6
  7  6  2  0
  9  8  1  1
  9 10  1  0
  9 11  1  0
 11 12  2  0
 11 18  1  0
 14 13  1  0
 14 16  1  0
 15 14  2  0
 17 16  1  6
 17 19  1  0
 18 17  1  0
 19 21  1  0
 20 19  2  0
M  END
$$$$
