PAN.pdb
     RDKit          3D

 21 21  0  0  1  0  0  0  0  0999 V2000
   25.9089  -16.5785  -17.1729 N   0  0  0  0  0  0  0  0  0  0  0  0
   25.9306  -15.2376  -16.6299 C   0  0  0  0  0  0  0  0  0  0  0  0
   26.3469  -15.3326  -15.1779 C   0  0  0  0  0  0  0  0  0  0  0  0
   26.1664  -16.8354  -14.9015 C   0  0  0  0  0  0  0  0  0  0  0  0
   26.6184  -17.3733  -16.2294 C   0  0  1  0  0  0  0  0  0  0  0  0
   26.4739  -18.8134  -16.4051 C   0  0  0  0  0  0  0  0  0  0  0  0
   25.5789  -19.2434  -17.1809 O   0  0  0  0  0  0  0  0  0  0  0  0
   28.3043  -21.9506  -15.5457 C   0  0  0  0  0  0  0  0  0  0  0  0
   27.0196  -21.2103  -15.8498 C   0  0  2  0  0  0  0  0  0  0  0  0
   27.2715  -19.7961  -15.7638 N   0  0  0  0  0  0  0  0  0  0  0  0
   25.9215  -21.6235  -14.9035 C   0  0  0  0  0  0  0  0  0  0  0  0
   25.4221  -22.7663  -14.9423 O   0  0  0  0  0  0  0  0  0  0  0  0
   27.3517  -20.7771  -10.7891 N   0  0  0  0  0  0  0  0  0  0  0  0
   26.1071  -21.3481  -11.1612 C   0  0  0  0  0  0  0  0  0  0  0  0
   25.9911  -22.5976  -11.1144 O   0  0  0  0  0  0  0  0  0  0  0  0
   24.9601  -20.5290  -11.5956 C   0  0  0  0  0  0  0  0  0  0  0  0
   24.4274  -20.9999  -12.9486 C   0  0  2  0  0  0  0  0  0  0  0  0
   25.4360  -20.7017  -13.9415 N   0  0  0  0  0  0  0  0  0  0  0  0
   23.1491  -20.3339  -13.2095 C   0  0  0  0  0  0  0  0  0  0  0  0
   23.0803  -19.4729  -14.1193 O   0  0  0  0  0  0  0  0  0  0  0  0
   21.9959  -20.6052  -12.4981 O   0  0  0  0  0  0  0  0  0  0  0  0
  2  1  1  0
  3  4  1  0
  3  2  1  0
  4  5  1  0
  5  1  1  0
  6 10  1  0
  5  6  1  1
  7  6  2  0
  9  8  1  1
  9 10  1  0
  9 11  1  0
 11 12  2  0
 11 18  1  0
 14 13  1  0
 14 16  1  0
 15 14  2  0
 17 16  1  1
 17 19  1  0
 18 17  1  0
 19 21  1  0
 20 19  2  0
M  END
$$$$
