PAN.pdb
     RDKit          3D

 21 21  0  0  1  0  0  0  0  0999 V2000
   18.5419  -10.5224  -17.2257 N   0  0  0  0  0  0  0  0  0  0  0  0
   17.3628  -11.3579  -17.2951 C   0  0  0  0  0  0  0  0  0  0  0  0
   17.5783  -12.5405  -16.3755 C   0  0  0  0  0  0  0  0  0  0  0  0
   19.0939  -12.4639  -16.1221 C   0  0  0  0  0  0  0  0  0  0  0  0
   19.2476  -10.9702  -16.0738 C   0  0  1  0  0  0  0  0  0  0  0  0
   20.6175  -10.4837  -15.9632 C   0  0  0  0  0  0  0  0  0  0  0  0
   21.2351  -10.6504  -14.8775 O   0  0  0  0  0  0  0  0  0  0  0  0
   23.3679   -9.5202  -18.2293 C   0  0  0  0  0  0  0  0  0  0  0  0
   22.7040   -9.4028  -16.8742 C   0  0  2  0  0  0  0  0  0  0  0  0
   21.3330   -9.8231  -16.9951 N   0  0  0  0  0  0  0  0  0  0  0  0
   22.7939   -7.9927  -16.3493 C   0  0  0  0  0  0  0  0  0  0  0  0
   23.8942   -7.4501  -16.1215 O   0  0  0  0  0  0  0  0  0  0  0  0
   21.1917   -2.8715  -16.2479 N   0  0  0  0  0  0  0  0  0  0  0  0
   20.1926   -3.8224  -15.9146 C   0  0  0  0  0  0  0  0  0  0  0  0
   19.1813   -3.4233  -15.2861 O   0  0  0  0  0  0  0  0  0  0  0  0
   20.3043   -5.2470  -16.2793 C   0  0  0  0  0  0  0  0  0  0  0  0
   21.5694   -5.8695  -15.6893 C   0  0  2  0  0  0  0  0  0  0  0  0
   21.6082   -7.2544  -16.1051 N   0  0  0  0  0  0  0  0  0  0  0  0
   21.5402   -5.7069  -14.2339 C   0  0  0  0  0  0  0  0  0  0  0  0
   21.1033   -6.6419  -13.5207 O   0  0  0  0  0  0  0  0  0  0  0  0
   21.9738   -4.5626  -13.5919 O   0  0  0  0  0  0  0  0  0  0  0  0
  2  1  1  0
  3  4  1  0
  3  2  1  0
  4  5  1  0
  5  1  1  0
  6 10  1  0
  5  6  1  6
  7  6  2  0
  9  8  1  6
  9 10  1  0
  9 11  1  0
 11 12  2  0
 11 18  1  0
 14 13  1  0
 14 16  1  0
 15 14  2  0
 17 16  1  6
 17 19  1  0
 18 17  1  0
 19 21  1  0
 20 19  2  0
M  END
$$$$
