PAN.pdb
     RDKit          3D

 21 21  0  0  1  0  0  0  0  0999 V2000
   19.3505  -10.3399  -15.4591 N   0  0  0  0  0  0  0  0  0  0  0  0
   19.4209  -11.7762  -15.6179 C   0  0  0  0  0  0  0  0  0  0  0  0
   20.2050  -12.0648  -16.8799 C   0  0  0  0  0  0  0  0  0  0  0  0
   20.2053  -10.6878  -17.5662 C   0  0  0  0  0  0  0  0  0  0  0  0
   20.3330   -9.8190  -16.3473 C   0  0  1  0  0  0  0  0  0  0  0  0
   20.2464   -8.3836  -16.5880 C   0  0  0  0  0  0  0  0  0  0  0  0
   21.1936   -7.8109  -17.1903 O   0  0  0  0  0  0  0  0  0  0  0  0
   17.7360   -5.7820  -16.9502 C   0  0  0  0  0  0  0  0  0  0  0  0
   19.1136   -6.1376  -16.4338 C   0  0  2  0  0  0  0  0  0  0  0  0
   19.1636   -7.5556  -16.1940 N   0  0  0  0  0  0  0  0  0  0  0  0
   19.4366   -5.3646  -15.1808 C   0  0  0  0  0  0  0  0  0  0  0  0
   19.4691   -4.1173  -15.1736 O   0  0  0  0  0  0  0  0  0  0  0  0
   20.3019   -4.3644  -10.1475 N   0  0  0  0  0  0  0  0  0  0  0  0
   19.6432   -5.6134  -10.2878 C   0  0  0  0  0  0  0  0  0  0  0  0
   19.2165   -6.1779   -9.2503 O   0  0  0  0  0  0  0  0  0  0  0  0
   19.4467   -6.2605  -11.5985 C   0  0  0  0  0  0  0  0  0  0  0  0
   20.0641   -5.4284  -12.7221 C   0  0  2  0  0  0  0  0  0  0  0  0
   19.7114   -6.0588  -13.9753 N   0  0  0  0  0  0  0  0  0  0  0  0
   21.5108   -5.3459  -12.5073 C   0  0  0  0  0  0  0  0  0  0  0  0
   22.2390   -6.3049  -12.8592 O   0  0  0  0  0  0  0  0  0  0  0  0
   22.1283   -4.2532  -11.9293 O   0  0  0  0  0  0  0  0  0  0  0  0
  2  1  1  0
  3  4  1  0
  3  2  1  0
  4  5  1  0
  5  1  1  0
  6 10  1  0
  5  6  1  6
  7  6  2  0
  9  8  1  1
  9 10  1  0
  9 11  1  0
 11 12  2  0
 11 18  1  0
 14 13  1  0
 14 16  1  0
 15 14  2  0
 17 16  1  1
 17 19  1  0
 18 17  1  0
 19 21  1  0
 20 19  2  0
M  END
$$$$
