PAN.pdb
     RDKit          3D

 21 21  0  0  1  0  0  0  0  0999 V2000
   25.1871  -19.7941  -16.9146 N   0  0  0  0  0  0  0  0  0  0  0  0
   25.6460  -18.8508  -17.9111 C   0  0  0  0  0  0  0  0  0  0  0  0
   24.7035  -17.6667  -17.8966 C   0  0  0  0  0  0  0  0  0  0  0  0
   23.5119  -18.2287  -17.1019 C   0  0  0  0  0  0  0  0  0  0  0  0
   24.2671  -19.0660  -16.1091 C   0  0  1  0  0  0  0  0  0  0  0  0
   23.4457  -19.8813  -15.2225 C   0  0  0  0  0  0  0  0  0  0  0  0
   23.3829  -21.1235  -15.4248 O   0  0  0  0  0  0  0  0  0  0  0  0
   21.4419  -19.4264  -12.0793 C   0  0  0  0  0  0  0  0  0  0  0  0
   21.8230  -20.2032  -13.3212 C   0  0  2  0  0  0  0  0  0  0  0  0
   22.6930  -19.3869  -14.1260 N   0  0  0  0  0  0  0  0  0  0  0  0
   20.5981  -20.6168  -14.0963 C   0  0  0  0  0  0  0  0  0  0  0  0
   20.0877  -19.8712  -14.9567 O   0  0  0  0  0  0  0  0  0  0  0  0
   17.3127  -25.5637  -15.2097 N   0  0  0  0  0  0  0  0  0  0  0  0
   17.2820  -24.3210  -14.5255 C   0  0  0  0  0  0  0  0  0  0  0  0
   16.1882  -23.7076  -14.4603 O   0  0  0  0  0  0  0  0  0  0  0  0
   18.4805  -23.7353  -13.8964 C   0  0  0  0  0  0  0  0  0  0  0  0
   18.7746  -22.3449  -14.4588 C   0  0  2  0  0  0  0  0  0  0  0  0
   20.0027  -21.8803  -13.8520 N   0  0  0  0  0  0  0  0  0  0  0  0
   17.6308  -21.4728  -14.1818 C   0  0  0  0  0  0  0  0  0  0  0  0
   16.7920  -21.2544  -15.0887 O   0  0  0  0  0  0  0  0  0  0  0  0
   17.4206  -20.8671  -12.9576 O   0  0  0  0  0  0  0  0  0  0  0  0
  2  1  1  0
  3  4  1  0
  3  2  1  0
  4  5  1  0
  5  1  1  0
  6 10  1  0
  5  6  1  6
  7  6  2  0
  9  8  1  1
  9 10  1  0
  9 11  1  0
 11 12  2  0
 11 18  1  0
 14 13  1  0
 14 16  1  0
 15 14  2  0
 17 16  1  1
 17 19  1  0
 18 17  1  0
 19 21  1  0
 20 19  2  0
M  END
$$$$
