PAN.pdb
     RDKit          3D

 21 21  0  0  1  0  0  0  0  0999 V2000
   26.4136  -21.0408  -15.9518 N   0  0  0  0  0  0  0  0  0  0  0  0
   27.7912  -21.4487  -15.7810 C   0  0  0  0  0  0  0  0  0  0  0  0
   28.5939  -20.2225  -15.4032 C   0  0  0  0  0  0  0  0  0  0  0  0
   27.6175  -19.0896  -15.7643 C   0  0  0  0  0  0  0  0  0  0  0  0
   26.3314  -19.7505  -15.3569 C   0  0  1  0  0  0  0  0  0  0  0  0
   25.1172  -19.0055  -15.6675 C   0  0  0  0  0  0  0  0  0  0  0  0
   24.8813  -17.9397  -15.0380 O   0  0  0  0  0  0  0  0  0  0  0  0
   22.8000  -18.5388  -18.4291 C   0  0  0  0  0  0  0  0  0  0  0  0
   22.9681  -18.6240  -16.9273 C   0  0  2  0  0  0  0  0  0  0  0  0
   24.1553  -19.3845  -16.6392 N   0  0  0  0  0  0  0  0  0  0  0  0
   21.7562  -19.2468  -16.2828 C   0  0  0  0  0  0  0  0  0  0  0  0
   20.6112  -18.7847  -16.4631 O   0  0  0  0  0  0  0  0  0  0  0  0
   19.0069  -23.0656  -14.1035 N   0  0  0  0  0  0  0  0  0  0  0  0
   20.3759  -23.2860  -13.8023 C   0  0  0  0  0  0  0  0  0  0  0  0
   20.7037  -24.3954  -13.3134 O   0  0  0  0  0  0  0  0  0  0  0  0
   21.4125  -22.2649  -14.0430 C   0  0  0  0  0  0  0  0  0  0  0  0
   20.8272  -21.0401  -14.7453 C   0  0  2  0  0  0  0  0  0  0  0  0
   21.9068  -20.3849  -15.4506 N   0  0  0  0  0  0  0  0  0  0  0  0
   20.1906  -20.1817  -13.7436 C   0  0  0  0  0  0  0  0  0  0  0  0
   20.9093  -19.5044  -12.9699 O   0  0  0  0  0  0  0  0  0  0  0  0
   18.8203  -20.0744  -13.6005 O   0  0  0  0  0  0  0  0  0  0  0  0
  2  1  1  0
  3  4  1  0
  3  2  1  0
  4  5  1  0
  5  1  1  0
  6 10  1  0
  5  6  1  6
  7  6  2  0
  9  8  1  6
  9 10  1  0
  9 11  1  0
 11 12  2  0
 11 18  1  0
 14 13  1  0
 14 16  1  0
 15 14  2  0
 17 16  1  1
 17 19  1  0
 18 17  1  0
 19 21  1  0
 20 19  2  0
M  END
$$$$
