PAN.pdb
     RDKit          3D

 21 21  0  0  1  0  0  0  0  0999 V2000
   18.6952  -13.0315  -15.9892 N   0  0  0  0  0  0  0  0  0  0  0  0
   17.5110  -13.8616  -15.9475 C   0  0  0  0  0  0  0  0  0  0  0  0
   16.3107  -12.9680  -16.1743 C   0  0  0  0  0  0  0  0  0  0  0  0
   16.9179  -11.5716  -15.9531 C   0  0  0  0  0  0  0  0  0  0  0  0
   18.2685  -11.8037  -16.5686 C   0  0  1  0  0  0  0  0  0  0  0  0
   19.2140  -10.7012  -16.4411 C   0  0  0  0  0  0  0  0  0  0  0  0
   19.6941  -10.4417  -15.3054 O   0  0  0  0  0  0  0  0  0  0  0  0
   21.0363   -8.3261  -18.7074 C   0  0  0  0  0  0  0  0  0  0  0  0
   20.5474   -8.7621  -17.3429 C   0  0  2  0  0  0  0  0  0  0  0  0
   19.6508   -9.8754  -17.5090 N   0  0  0  0  0  0  0  0  0  0  0  0
   19.8702   -7.6240  -16.6231 C   0  0  0  0  0  0  0  0  0  0  0  0
   18.6489   -7.4041  -16.7532 O   0  0  0  0  0  0  0  0  0  0  0  0
   22.8505   -5.1648  -14.9324 N   0  0  0  0  0  0  0  0  0  0  0  0
   22.1690   -5.4400  -13.7186 C   0  0  0  0  0  0  0  0  0  0  0  0
   22.8449   -5.5094  -12.6624 O   0  0  0  0  0  0  0  0  0  0  0  0
   20.7096   -5.6444  -13.6603 C   0  0  0  0  0  0  0  0  0  0  0  0
   20.0955   -5.6369  -15.0599 C   0  0  2  0  0  0  0  0  0  0  0  0
   20.6270   -6.7764  -15.7749 N   0  0  0  0  0  0  0  0  0  0  0  0
   20.4058   -4.3584  -15.7039 C   0  0  0  0  0  0  0  0  0  0  0  0
   21.1955   -4.3379  -16.6784 O   0  0  0  0  0  0  0  0  0  0  0  0
   19.8686   -3.1538  -15.2914 O   0  0  0  0  0  0  0  0  0  0  0  0
  2  1  1  0
  3  4  1  0
  3  2  1  0
  4  5  1  0
  5  1  1  0
  6 10  1  0
  5  6  1  1
  7  6  2  0
  9  8  1  6
  9 10  1  0
  9 11  1  0
 11 12  2  0
 11 18  1  0
 14 13  1  0
 14 16  1  0
 15 14  2  0
 17 16  1  1
 17 19  1  0
 18 17  1  0
 19 21  1  0
 20 19  2  0
M  END
$$$$
