PAN.pdb
     RDKit          3D

 21 21  0  0  1  0  0  0  0  0999 V2000
   26.8242  -12.4594  -15.9434 N   0  0  0  0  0  0  0  0  0  0  0  0
   27.9446  -13.3748  -15.9331 C   0  0  0  0  0  0  0  0  0  0  0  0
   29.0146  -12.8074  -16.8408 C   0  0  0  0  0  0  0  0  0  0  0  0
   28.2266  -11.7390  -17.6184 C   0  0  0  0  0  0  0  0  0  0  0  0
   27.3312  -11.2575  -16.5124 C   0  0  1  0  0  0  0  0  0  0  0  0
   26.3171  -10.2860  -16.9040 C   0  0  0  0  0  0  0  0  0  0  0  0
   26.6853   -9.1360  -17.2645 O   0  0  0  0  0  0  0  0  0  0  0  0
   22.6549  -10.2954  -17.6737 C   0  0  0  0  0  0  0  0  0  0  0  0
   23.9458   -9.5678  -17.3648 C   0  0  2  0  0  0  0  0  0  0  0  0
   24.9190  -10.5275  -16.9148 N   0  0  0  0  0  0  0  0  0  0  0  0
   23.7259   -8.4936  -16.3306 C   0  0  0  0  0  0  0  0  0  0  0  0
   23.8167   -8.7347  -15.1097 O   0  0  0  0  0  0  0  0  0  0  0  0
   22.9198   -3.6634  -14.4377 N   0  0  0  0  0  0  0  0  0  0  0  0
   22.8583   -3.6093  -15.8543 C   0  0  0  0  0  0  0  0  0  0  0  0
   22.7011   -2.4883  -16.3981 O   0  0  0  0  0  0  0  0  0  0  0  0
   22.9720   -4.8144  -16.6969 C   0  0  0  0  0  0  0  0  0  0  0  0
   23.1552   -6.0688  -15.8430 C   0  0  2  0  0  0  0  0  0  0  0  0
   23.4084   -7.1740  -16.7411 N   0  0  0  0  0  0  0  0  0  0  0  0
   21.9576   -6.2587  -15.0213 C   0  0  0  0  0  0  0  0  0  0  0  0
   20.9384   -6.7809  -15.5335 O   0  0  0  0  0  0  0  0  0  0  0  0
   21.8862   -5.8886  -13.6917 O   0  0  0  0  0  0  0  0  0  0  0  0
  2  1  1  0
  3  4  1  0
  3  2  1  0
  4  5  1  0
  5  1  1  0
  6 10  1  0
  5  6  1  6
  7  6  2  0
  9  8  1  1
  9 10  1  0
  9 11  1  0
 11 12  2  0
 11 18  1  0
 14 13  1  0
 14 16  1  0
 15 14  2  0
 17 16  1  6
 17 19  1  0
 18 17  1  0
 19 21  1  0
 20 19  2  0
M  END
$$$$
