PAN.pdb
     RDKit          3D

 21 21  0  0  1  0  0  0  0  0999 V2000
   18.3156   -9.6182  -15.9407 N   0  0  0  0  0  0  0  0  0  0  0  0
   17.2098  -10.5341  -15.7634 C   0  0  0  0  0  0  0  0  0  0  0  0
   17.7842  -11.9184  -15.5520 C   0  0  0  0  0  0  0  0  0  0  0  0
   19.2390  -11.7239  -16.0133 C   0  0  0  0  0  0  0  0  0  0  0  0
   19.4641  -10.3314  -15.4962 C   0  0  1  0  0  0  0  0  0  0  0  0
   20.7414   -9.7274  -15.8558 C   0  0  0  0  0  0  0  0  0  0  0  0
   21.7924  -10.1615  -15.3129 O   0  0  0  0  0  0  0  0  0  0  0  0
   22.1806   -7.9115  -18.6733 C   0  0  0  0  0  0  0  0  0  0  0  0
   22.1901   -8.1446  -17.1778 C   0  0  2  0  0  0  0  0  0  0  0  0
   20.9086   -8.6684  -16.7852 N   0  0  0  0  0  0  0  0  0  0  0  0
   22.5057   -6.8716  -16.4350 C   0  0  0  0  0  0  0  0  0  0  0  0
   23.5722   -6.2525  -16.6247 O   0  0  0  0  0  0  0  0  0  0  0  0
   18.6461   -3.8000  -16.3852 N   0  0  0  0  0  0  0  0  0  0  0  0
   19.9992   -3.8716  -15.9639 C   0  0  0  0  0  0  0  0  0  0  0  0
   20.8846   -3.4302  -16.7375 O   0  0  0  0  0  0  0  0  0  0  0  0
   20.3925   -4.4413  -14.6617 C   0  0  0  0  0  0  0  0  0  0  0  0
   21.7548   -5.1286  -14.7494 C   0  0  2  0  0  0  0  0  0  0  0  0
   21.5771   -6.3544  -15.4964 N   0  0  0  0  0  0  0  0  0  0  0  0
   22.2591   -5.3505  -13.3922 C   0  0  0  0  0  0  0  0  0  0  0  0
   22.3865   -6.5247  -12.9693 O   0  0  0  0  0  0  0  0  0  0  0  0
   22.6080   -4.3222  -12.5375 O   0  0  0  0  0  0  0  0  0  0  0  0
  2  1  1  0
  3  4  1  0
  3  2  1  0
  4  5  1  0
  5  1  1  0
  6 10  1  0
  5  6  1  6
  7  6  2  0
  9  8  1  6
  9 10  1  0
  9 11  1  0
 11 12  2  0
 11 18  1  0
 14 13  1  0
 14 16  1  0
 15 14  2  0
 17 16  1  1
 17 19  1  0
 18 17  1  0
 19 21  1  0
 20 19  2  0
M  END
$$$$
