WNY.pdb
     RDKit          3D

 35 37  0  0  1  0  0  0  0  0999 V2000
    6.7239  -19.0923   25.4542 N   0  0  0  0  0  0  0  0  0  0  0  0
    7.1603  -18.0267   24.5972 C   0  0  1  0  0  0  0  0  0  0  0  0
    8.1192  -17.0793   25.2678 C   0  0  0  0  0  0  0  0  0  0  0  0
    7.4087  -15.9328   25.8561 C   0  0  0  0  0  0  0  0  0  0  0  0
    6.2517  -16.0217   26.6544 C   0  0  0  0  0  0  0  0  0  0  0  0
    5.8999  -14.7940   27.0419 N   0  0  0  0  0  0  0  0  0  0  0  0
    6.7752  -13.9000   26.5325 C   0  0  0  0  0  0  0  0  0  0  0  0
    6.8626  -12.5353   26.6203 C   0  0  0  0  0  0  0  0  0  0  0  0
    7.8669  -11.8552   25.9867 C   0  0  0  0  0  0  0  0  0  0  0  0
    8.8068  -12.5325   25.2494 C   0  0  0  0  0  0  0  0  0  0  0  0
    8.7340  -13.9060   25.1505 C   0  0  0  0  0  0  0  0  0  0  0  0
    7.7156  -14.5932   25.7947 C   0  0  0  0  0  0  0  0  0  0  0  0
    7.8483  -18.5820   23.4027 C   0  0  0  0  0  0  0  0  0  0  0  0
    8.5451  -19.6275   23.5291 O   0  0  0  0  0  0  0  0  0  0  0  0
    6.4711  -20.4070   19.5688 N   0  0  0  0  0  0  0  0  0  0  0  0
    6.4126  -19.0129   19.7683 C   0  0  0  0  0  0  0  0  0  0  0  0
    5.3021  -18.4722   19.9468 O   0  0  0  0  0  0  0  0  0  0  0  0
    7.6320  -18.2058   19.7671 C   0  0  0  0  0  0  0  0  0  0  0  0
    8.5031  -18.4254   20.9772 C   0  0  2  0  0  0  0  0  0  0  0  0
    7.7384  -17.9704   22.1522 N   0  0  0  0  0  0  0  0  0  0  0  0
    9.7110  -17.5299   20.9108 C   0  0  0  0  0  0  0  0  0  0  0  0
   10.5980  -17.6605   20.0104 O   0  0  0  0  0  0  0  0  0  0  0  0
    7.3331  -13.0725   17.1601 O   0  0  0  0  0  0  0  0  0  0  0  0
    8.1265  -13.3319   18.2743 C   0  0  0  0  0  0  0  0  0  0  0  0
    9.4967  -13.3952   18.1449 C   0  0  0  0  0  0  0  0  0  0  0  0
   10.3008  -13.6534   19.2491 C   0  0  0  0  0  0  0  0  0  0  0  0
    9.7723  -13.8548   20.5053 C   0  0  0  0  0  0  0  0  0  0  0  0
   10.6419  -14.1288   21.6773 C   0  0  0  0  0  0  0  0  0  0  0  0
   11.0733  -15.5864   21.7381 C   0  0  2  0  0  0  0  0  0  0  0  0
    9.9434  -16.4849   21.8412 N   0  0  0  0  0  0  0  0  0  0  0  0
   11.8828  -15.7283   22.9686 C   0  0  0  0  0  0  0  0  0  0  0  0
   13.1229  -15.1302   23.1355 O   0  0  0  0  0  0  0  0  0  0  0  0
    8.4017  -13.7899   20.6268 C   0  0  0  0  0  0  0  0  0  0  0  0
    7.5913  -13.5322   19.5275 C   0  0  0  0  0  0  0  0  0  0  0  0
   11.4454  -16.4180   23.9183 O   0  0  0  0  0  0  0  0  0  0  0  0
  2  1  1  1
  3  2  1  0
  4  3  1  0
  4  5  2  0
  6  5  1  0
  7  6  1  0
  8  7  2  0
  9  8  1  0
 10  9  2  0
 10 11  1  0
 11 12  2  0
 12  7  1  0
 12  4  1  0
 13 20  1  0
 13  2  1  0
 14 13  2  0
 16 18  1  0
 16 15  1  0
 17 16  2  0
 19 18  1  6
 19 20  1  0
 21 22  2  0
 21 19  1  0
 23 24  1  0
 24 34  2  0
 24 25  1  0
 25 26  2  0
 26 27  1  0
 27 28  1  0
 29 28  1  1
 29 30  1  0
 30 21  1  0
 31 29  1  0
 31 32  1  0
 33 27  2  0
 34 33  1  0
 35 31  2  0
M  END
$$$$
