WNY.pdb
     RDKit          3D

 35 37  0  0  1  0  0  0  0  0999 V2000
    7.2449  -16.9363   22.3853 N   0  0  0  0  0  0  0  0  0  0  0  0
    8.3118  -16.2674   23.0742 C   0  0  1  0  0  0  0  0  0  0  0  0
    8.2568  -16.4431   24.5685 C   0  0  0  0  0  0  0  0  0  0  0  0
    7.1436  -15.6780   25.1524 C   0  0  0  0  0  0  0  0  0  0  0  0
    5.8954  -16.2183   25.5184 C   0  0  0  0  0  0  0  0  0  0  0  0
    5.1435  -15.2490   26.0440 N   0  0  0  0  0  0  0  0  0  0  0  0
    5.8426  -14.0932   26.0394 C   0  0  0  0  0  0  0  0  0  0  0  0
    5.5360  -12.8230   26.4523 C   0  0  0  0  0  0  0  0  0  0  0  0
    6.4430  -11.8063   26.3243 C   0  0  0  0  0  0  0  0  0  0  0  0
    7.6800  -12.0439   25.7774 C   0  0  0  0  0  0  0  0  0  0  0  0
    8.0053  -13.3163   25.3567 C   0  0  0  0  0  0  0  0  0  0  0  0
    7.0845  -14.3454   25.4886 C   0  0  0  0  0  0  0  0  0  0  0  0
    9.6239  -16.7920   22.6142 C   0  0  0  0  0  0  0  0  0  0  0  0
    9.6777  -17.9486   22.1104 O   0  0  0  0  0  0  0  0  0  0  0  0
   14.3273  -17.0108   20.6307 N   0  0  0  0  0  0  0  0  0  0  0  0
   13.9322  -15.6660   20.7797 C   0  0  0  0  0  0  0  0  0  0  0  0
   14.5686  -14.7770   20.1780 O   0  0  0  0  0  0  0  0  0  0  0  0
   12.7938  -15.3108   21.6261 C   0  0  0  0  0  0  0  0  0  0  0  0
   12.0946  -16.5016   22.2295 C   0  0  2  0  0  0  0  0  0  0  0  0
   10.7901  -16.0327   22.7302 N   0  0  0  0  0  0  0  0  0  0  0  0
   12.8451  -16.9777   23.4441 C   0  0  0  0  0  0  0  0  0  0  0  0
   14.0377  -17.4106   23.3725 O   0  0  0  0  0  0  0  0  0  0  0  0
   10.4218  -12.0460   28.0110 O   0  0  0  0  0  0  0  0  0  0  0  0
   10.8239  -13.3633   27.8079 C   0  0  0  0  0  0  0  0  0  0  0  0
   12.1251  -13.6389   27.4482 C   0  0  0  0  0  0  0  0  0  0  0  0
   12.5400  -14.9495   27.2423 C   0  0  0  0  0  0  0  0  0  0  0  0
   11.6818  -16.0177   27.3864 C   0  0  0  0  0  0  0  0  0  0  0  0
   12.1375  -17.4135   27.1645 C   0  0  0  0  0  0  0  0  0  0  0  0
   12.9555  -17.5497   25.8892 C   0  0  2  0  0  0  0  0  0  0  0  0
   12.2794  -16.9773   24.7447 N   0  0  0  0  0  0  0  0  0  0  0  0
   13.1100  -19.0015   25.6487 C   0  0  0  0  0  0  0  0  0  0  0  0
   13.8163  -19.8412   26.4969 O   0  0  0  0  0  0  0  0  0  0  0  0
   10.3827  -15.7342   27.7461 C   0  0  0  0  0  0  0  0  0  0  0  0
    9.9605  -14.4264   27.9537 C   0  0  0  0  0  0  0  0  0  0  0  0
   12.5851  -19.5180   24.6355 O   0  0  0  0  0  0  0  0  0  0  0  0
  2  1  1  6
  3  2  1  0
  4  3  1  0
  4  5  2  0
  6  5  1  0
  7  6  1  0
  8  7  2  0
  9  8  1  0
 10  9  2  0
 10 11  1  0
 11 12  2  0
 12  7  1  0
 12  4  1  0
 13 20  1  0
 13  2  1  0
 14 13  2  0
 16 18  1  0
 16 15  1  0
 17 16  2  0
 19 18  1  1
 19 20  1  0
 21 22  2  0
 21 19  1  0
 23 24  1  0
 24 34  2  0
 24 25  1  0
 25 26  2  0
 26 27  1  0
 27 28  1  0
 29 28  1  1
 29 30  1  0
 30 21  1  0
 31 29  1  0
 31 32  1  0
 33 27  2  0
 34 33  1  0
 35 31  2  0
M  END
$$$$
