WNY.pdb
     RDKit          3D

 35 37  0  0  1  0  0  0  0  0999 V2000
    7.7543  -16.4935   22.0895 N   0  0  0  0  0  0  0  0  0  0  0  0
    8.7359  -16.0311   23.0293 C   0  0  1  0  0  0  0  0  0  0  0  0
    8.4005  -16.3742   24.4564 C   0  0  0  0  0  0  0  0  0  0  0  0
    7.4457  -15.4090   25.0241 C   0  0  0  0  0  0  0  0  0  0  0  0
    6.0519  -15.5983   25.0978 C   0  0  0  0  0  0  0  0  0  0  0  0
    5.5044  -14.5407   25.7000 N   0  0  0  0  0  0  0  0  0  0  0  0
    6.4777  -13.6624   26.0258 C   0  0  0  0  0  0  0  0  0  0  0  0
    6.4532  -12.4382   26.6410 C   0  0  0  0  0  0  0  0  0  0  0  0
    7.6086  -11.7344   26.8475 C   0  0  0  0  0  0  0  0  0  0  0  0
    8.8158  -12.2460   26.4394 C   0  0  0  0  0  0  0  0  0  0  0  0
    8.8588  -13.4767   25.8188 C   0  0  0  0  0  0  0  0  0  0  0  0
    7.6863  -14.1886   25.6117 C   0  0  0  0  0  0  0  0  0  0  0  0
   10.0579  -16.6385   22.7263 C   0  0  0  0  0  0  0  0  0  0  0  0
   10.1103  -17.6352   21.9528 O   0  0  0  0  0  0  0  0  0  0  0  0
   15.2926  -16.7775   21.7046 N   0  0  0  0  0  0  0  0  0  0  0  0
   14.9516  -16.1968   22.9428 C   0  0  0  0  0  0  0  0  0  0  0  0
   15.8252  -16.1016   23.8288 O   0  0  0  0  0  0  0  0  0  0  0  0
   13.5950  -15.7109   23.1922 C   0  0  0  0  0  0  0  0  0  0  0  0
   12.5423  -16.7857   23.1038 C   0  0  2  0  0  0  0  0  0  0  0  0
   11.2344  -16.1294   23.2800 N   0  0  0  0  0  0  0  0  0  0  0  0
   12.6770  -17.7343   24.2645 C   0  0  0  0  0  0  0  0  0  0  0  0
   13.7498  -18.3775   24.4881 O   0  0  0  0  0  0  0  0  0  0  0  0
    9.8089  -12.6875   27.1166 O   0  0  0  0  0  0  0  0  0  0  0  0
   10.1006  -14.0453   27.2144 C   0  0  0  0  0  0  0  0  0  0  0  0
    9.0959  -14.9481   27.4859 C   0  0  0  0  0  0  0  0  0  0  0  0
    9.3732  -16.3066   27.5863 C   0  0  0  0  0  0  0  0  0  0  0  0
   10.6468  -16.8054   27.4213 C   0  0  0  0  0  0  0  0  0  0  0  0
   10.9300  -18.2590   27.5300 C   0  0  0  0  0  0  0  0  0  0  0  0
   11.8066  -18.7553   26.3899 C   0  0  2  0  0  0  0  0  0  0  0  0
   11.6246  -17.9760   25.1840 N   0  0  0  0  0  0  0  0  0  0  0  0
   11.3734  -20.1416   26.1070 C   0  0  0  0  0  0  0  0  0  0  0  0
   11.5115  -21.1810   27.0147 O   0  0  0  0  0  0  0  0  0  0  0  0
   11.6459  -15.8967   27.1502 C   0  0  0  0  0  0  0  0  0  0  0  0
   11.3763  -14.5370   27.0483 C   0  0  0  0  0  0  0  0  0  0  0  0
   10.8540  -20.4114   24.9996 O   0  0  0  0  0  0  0  0  0  0  0  0
  2  1  1  6
  3  2  1  0
  4  3  1  0
  4  5  2  0
  6  5  1  0
  7  6  1  0
  8  7  2  0
  9  8  1  0
 10  9  2  0
 10 11  1  0
 11 12  2  0
 12  7  1  0
 12  4  1  0
 13 20  1  0
 13  2  1  0
 14 13  2  0
 16 18  1  0
 16 15  1  0
 17 16  2  0
 19 18  1  1
 19 20  1  0
 21 22  2  0
 21 19  1  0
 23 24  1  0
 24 34  2  0
 24 25  1  0
 25 26  2  0
 26 27  1  0
 27 28  1  0
 29 28  1  1
 29 30  1  0
 30 21  1  0
 31 29  1  0
 31 32  1  0
 33 27  2  0
 34 33  1  0
 35 31  2  0
M  END
$$$$
