WNY.pdb
     RDKit          3D

 35 37  0  0  1  0  0  0  0  0999 V2000
    7.5855  -17.2433   24.0378 N   0  0  0  0  0  0  0  0  0  0  0  0
    6.7944  -16.8656   22.9011 C   0  0  1  0  0  0  0  0  0  0  0  0
    5.7986  -15.7780   23.2048 C   0  0  0  0  0  0  0  0  0  0  0  0
    5.9551  -15.2845   24.5823 C   0  0  0  0  0  0  0  0  0  0  0  0
    5.8890  -16.0839   25.7400 C   0  0  0  0  0  0  0  0  0  0  0  0
    6.1083  -15.3146   26.8083 N   0  0  0  0  0  0  0  0  0  0  0  0
    6.3155  -14.0424   26.4040 C   0  0  0  0  0  0  0  0  0  0  0  0
    6.5728  -12.8830   27.0876 C   0  0  0  0  0  0  0  0  0  0  0  0
    6.7371  -11.6986   26.4220 C   0  0  0  0  0  0  0  0  0  0  0  0
    6.6459  -11.6531   25.0525 C   0  0  0  0  0  0  0  0  0  0  0  0
    6.3876  -12.8105   24.3487 C   0  0  0  0  0  0  0  0  0  0  0  0
    6.2226  -14.0100   25.0257 C   0  0  0  0  0  0  0  0  0  0  0  0
    7.6733  -16.3699   21.8101 C   0  0  0  0  0  0  0  0  0  0  0  0
    7.1740  -16.1616   20.6692 O   0  0  0  0  0  0  0  0  0  0  0  0
    7.5037  -13.4025   19.3407 N   0  0  0  0  0  0  0  0  0  0  0  0
    8.6623  -14.2037   19.3880 C   0  0  0  0  0  0  0  0  0  0  0  0
    8.9809  -14.8689   18.3814 O   0  0  0  0  0  0  0  0  0  0  0  0
    9.4840  -14.2591   20.5965 C   0  0  0  0  0  0  0  0  0  0  0  0
    9.9311  -15.6517   20.9597 C   0  0  2  0  0  0  0  0  0  0  0  0
    9.0328  -16.1334   22.0243 N   0  0  0  0  0  0  0  0  0  0  0  0
   11.3022  -15.6067   21.5788 C   0  0  0  0  0  0  0  0  0  0  0  0
   12.1181  -14.6619   21.3414 O   0  0  0  0  0  0  0  0  0  0  0  0
   10.8708  -15.3178   30.1488 O   0  0  0  0  0  0  0  0  0  0  0  0
   10.7844  -15.5355   28.7764 C   0  0  0  0  0  0  0  0  0  0  0  0
   10.5822  -14.4740   27.9217 C   0  0  0  0  0  0  0  0  0  0  0  0
   10.4940  -14.6771   26.5494 C   0  0  0  0  0  0  0  0  0  0  0  0
   10.6031  -15.9309   25.9889 C   0  0  0  0  0  0  0  0  0  0  0  0
   10.5081  -16.1348   24.5211 C   0  0  0  0  0  0  0  0  0  0  0  0
   11.8678  -16.4043   23.8943 C   0  0  2  0  0  0  0  0  0  0  0  0
   11.7776  -16.6076   22.4642 N   0  0  0  0  0  0  0  0  0  0  0  0
   12.3637  -17.6586   24.5029 C   0  0  0  0  0  0  0  0  0  0  0  0
   13.2678  -17.6873   25.5542 O   0  0  0  0  0  0  0  0  0  0  0  0
   10.8052  -16.9871   26.8497 C   0  0  0  0  0  0  0  0  0  0  0  0
   10.8945  -16.7919   28.2229 C   0  0  0  0  0  0  0  0  0  0  0  0
   11.9601  -18.7594   24.0624 O   0  0  0  0  0  0  0  0  0  0  0  0
  2  1  1  1
  3  2  1  0
  4  3  1  0
  4  5  2  0
  6  5  1  0
  7  6  1  0
  8  7  2  0
  9  8  1  0
 10  9  2  0
 10 11  1  0
 11 12  2  0
 12  7  1  0
 12  4  1  0
 13 20  1  0
 13  2  1  0
 14 13  2  0
 16 18  1  0
 16 15  1  0
 17 16  2  0
 19 18  1  1
 19 20  1  0
 21 22  2  0
 21 19  1  0
 23 24  1  0
 24 34  2  0
 24 25  1  0
 25 26  2  0
 26 27  1  0
 27 28  1  0
 29 28  1  1
 29 30  1  0
 30 21  1  0
 31 29  1  0
 31 32  1  0
 33 27  2  0
 34 33  1  0
 35 31  2  0
M  END
$$$$
