WNY.pdb
     RDKit          3D

 35 37  0  0  1  0  0  0  0  0999 V2000
    6.3311  -17.3455   22.6462 N   0  0  0  0  0  0  0  0  0  0  0  0
    7.3511  -16.3374   22.7084 C   0  0  1  0  0  0  0  0  0  0  0  0
    7.7838  -16.0157   24.1141 C   0  0  0  0  0  0  0  0  0  0  0  0
    6.8135  -15.1317   24.7792 C   0  0  0  0  0  0  0  0  0  0  0  0
    5.7303  -15.5675   25.5671 C   0  0  0  0  0  0  0  0  0  0  0  0
    5.0828  -14.4998   26.0381 N   0  0  0  0  0  0  0  0  0  0  0  0
    5.6925  -13.3793   25.5939 C   0  0  0  0  0  0  0  0  0  0  0  0
    5.4299  -12.0468   25.7764 C   0  0  0  0  0  0  0  0  0  0  0  0
    6.2170  -11.0911   25.1935 C   0  0  0  0  0  0  0  0  0  0  0  0
    7.2869  -11.4539   24.4128 C   0  0  0  0  0  0  0  0  0  0  0  0
    7.5658  -12.7903   24.2187 C   0  0  0  0  0  0  0  0  0  0  0  0
    6.7670  -13.7572   24.8116 C   0  0  0  0  0  0  0  0  0  0  0  0
    8.5572  -16.7857   21.9649 C   0  0  0  0  0  0  0  0  0  0  0  0
    8.7126  -18.0180   21.7374 O   0  0  0  0  0  0  0  0  0  0  0  0
   13.3389  -16.3181   19.2397 N   0  0  0  0  0  0  0  0  0  0  0  0
   12.9788  -15.3695   20.2179 C   0  0  0  0  0  0  0  0  0  0  0  0
   13.8777  -14.7377   20.8097 O   0  0  0  0  0  0  0  0  0  0  0  0
   11.5735  -15.1242   20.5398 C   0  0  0  0  0  0  0  0  0  0  0  0
   10.9286  -16.2405   21.3203 C   0  0  2  0  0  0  0  0  0  0  0  0
    9.5150  -15.8731   21.5180 N   0  0  0  0  0  0  0  0  0  0  0  0
   11.5233  -16.3132   22.7009 C   0  0  0  0  0  0  0  0  0  0  0  0
   12.7350  -16.6421   22.8963 O   0  0  0  0  0  0  0  0  0  0  0  0
   12.3225  -16.6399   31.5241 O   0  0  0  0  0  0  0  0  0  0  0  0
   11.8572  -16.3667   30.2407 C   0  0  0  0  0  0  0  0  0  0  0  0
   11.2078  -17.3453   29.5204 C   0  0  0  0  0  0  0  0  0  0  0  0
   10.7381  -17.0861   28.2380 C   0  0  0  0  0  0  0  0  0  0  0  0
   10.8980  -15.8567   27.6370 C   0  0  0  0  0  0  0  0  0  0  0  0
   10.3908  -15.5919   26.2667 C   0  0  0  0  0  0  0  0  0  0  0  0
   11.3603  -16.0731   25.1976 C   0  0  2  0  0  0  0  0  0  0  0  0
   10.7795  -16.0221   23.8730 N   0  0  0  0  0  0  0  0  0  0  0  0
   11.6554  -17.4885   25.5122 C   0  0  0  0  0  0  0  0  0  0  0  0
   11.0885  -18.5531   24.8277 O   0  0  0  0  0  0  0  0  0  0  0  0
   11.5483  -14.8835   28.3633 C   0  0  0  0  0  0  0  0  0  0  0  0
   12.0206  -15.1352   29.6460 C   0  0  0  0  0  0  0  0  0  0  0  0
   12.4536  -17.7609   26.4383 O   0  0  0  0  0  0  0  0  0  0  0  0
  2  1  1  1
  3  2  1  0
  4  3  1  0
  4  5  2  0
  6  5  1  0
  7  6  1  0
  8  7  2  0
  9  8  1  0
 10  9  2  0
 10 11  1  0
 11 12  2  0
 12  7  1  0
 12  4  1  0
 13 20  1  0
 13  2  1  0
 14 13  2  0
 16 18  1  0
 16 15  1  0
 17 16  2  0
 19 18  1  6
 19 20  1  0
 21 22  2  0
 21 19  1  0
 23 24  1  0
 24 34  2  0
 24 25  1  0
 25 26  2  0
 26 27  1  0
 27 28  1  0
 29 28  1  1
 29 30  1  0
 30 21  1  0
 31 29  1  0
 31 32  1  0
 33 27  2  0
 34 33  1  0
 35 31  2  0
M  END
$$$$
