WNY.pdb
     RDKit          3D

 35 37  0  0  1  0  0  0  0  0999 V2000
    6.2998  -18.2270   24.8337 N   0  0  0  0  0  0  0  0  0  0  0  0
    7.1925  -17.3346   24.1503 C   0  0  1  0  0  0  0  0  0  0  0  0
    8.0073  -16.4789   25.0834 C   0  0  0  0  0  0  0  0  0  0  0  0
    7.1660  -15.4751   25.7543 C   0  0  0  0  0  0  0  0  0  0  0  0
    6.1206  -15.7661   26.6522 C   0  0  0  0  0  0  0  0  0  0  0  0
    5.5984  -14.6194   27.0921 N   0  0  0  0  0  0  0  0  0  0  0  0
    6.2546  -13.5854   26.5220 C   0  0  0  0  0  0  0  0  0  0  0  0
    6.1117  -12.2265   26.6262 C   0  0  0  0  0  0  0  0  0  0  0  0
    6.9201  -11.3804   25.9168 C   0  0  0  0  0  0  0  0  0  0  0  0
    7.8912  -11.8819   25.0854 C   0  0  0  0  0  0  0  0  0  0  0  0
    8.0489  -13.2468   24.9686 C   0  0  0  0  0  0  0  0  0  0  0  0
    7.2289  -14.1024   25.6897 C   0  0  0  0  0  0  0  0  0  0  0  0
    8.1454  -18.1087   23.3129 C   0  0  0  0  0  0  0  0  0  0  0  0
    8.5084  -19.2546   23.6998 O   0  0  0  0  0  0  0  0  0  0  0  0
    7.9521  -18.3686   18.3882 N   0  0  0  0  0  0  0  0  0  0  0  0
    7.6646  -18.8272   19.6896 C   0  0  0  0  0  0  0  0  0  0  0  0
    6.4953  -18.7434   20.1174 O   0  0  0  0  0  0  0  0  0  0  0  0
    8.7171  -19.3943   20.5318 C   0  0  0  0  0  0  0  0  0  0  0  0
    9.5501  -18.3564   21.2388 C   0  0  2  0  0  0  0  0  0  0  0  0
    8.6430  -17.5929   22.1145 N   0  0  0  0  0  0  0  0  0  0  0  0
   10.0836  -17.3604   20.2445 C   0  0  0  0  0  0  0  0  0  0  0  0
    9.3736  -16.9156   19.2891 O   0  0  0  0  0  0  0  0  0  0  0  0
    7.1303  -12.4512   18.0605 O   0  0  0  0  0  0  0  0  0  0  0  0
    7.9520  -13.0969   18.9804 C   0  0  0  0  0  0  0  0  0  0  0  0
    9.3091  -13.1753   18.7560 C   0  0  0  0  0  0  0  0  0  0  0  0
   10.1411  -13.8169   19.6662 C   0  0  0  0  0  0  0  0  0  0  0  0
    9.6541  -14.3956   20.8177 C   0  0  0  0  0  0  0  0  0  0  0  0
   10.5533  -15.0774   21.7828 C   0  0  0  0  0  0  0  0  0  0  0  0
   11.7624  -15.6950   21.0964 C   0  0  2  0  0  0  0  0  0  0  0  0
   11.4062  -16.8515   20.3024 N   0  0  0  0  0  0  0  0  0  0  0  0
   12.6679  -16.1446   22.1768 C   0  0  0  0  0  0  0  0  0  0  0  0
   13.4468  -15.2756   22.9262 O   0  0  0  0  0  0  0  0  0  0  0  0
    8.2963  -14.3132   21.0351 C   0  0  0  0  0  0  0  0  0  0  0  0
    7.4582  -13.6733   20.1297 C   0  0  0  0  0  0  0  0  0  0  0  0
   12.7503  -17.3655   22.4442 O   0  0  0  0  0  0  0  0  0  0  0  0
  2  1  1  1
  3  2  1  0
  4  3  1  0
  4  5  2  0
  6  5  1  0
  7  6  1  0
  8  7  2  0
  9  8  1  0
 10  9  2  0
 10 11  1  0
 11 12  2  0
 12  7  1  0
 12  4  1  0
 13 20  1  0
 13  2  1  0
 14 13  2  0
 16 18  1  0
 16 15  1  0
 17 16  2  0
 19 18  1  6
 19 20  1  0
 21 22  2  0
 21 19  1  0
 23 24  1  0
 24 34  2  0
 24 25  1  0
 25 26  2  0
 26 27  1  0
 27 28  1  0
 29 28  1  1
 29 30  1  0
 30 21  1  0
 31 29  1  0
 31 32  1  0
 33 27  2  0
 34 33  1  0
 35 31  2  0
M  END
$$$$
