WNY.pdb
     RDKit          3D

 35 37  0  0  1  0  0  0  0  0999 V2000
    9.6708  -17.7766   20.2964 N   0  0  0  0  0  0  0  0  0  0  0  0
    9.9318  -16.8853   21.3909 C   0  0  1  0  0  0  0  0  0  0  0  0
    8.7490  -16.7034   22.3044 C   0  0  0  0  0  0  0  0  0  0  0  0
    7.7900  -15.7372   21.7456 C   0  0  0  0  0  0  0  0  0  0  0  0
    6.5782  -16.0748   21.1121 C   0  0  0  0  0  0  0  0  0  0  0  0
    5.9478  -14.9521   20.7612 N   0  0  0  0  0  0  0  0  0  0  0  0
    6.6926  -13.8893   21.1357 C   0  0  0  0  0  0  0  0  0  0  0  0
    6.5082  -12.5374   21.0084 C   0  0  0  0  0  0  0  0  0  0  0  0
    7.4434  -11.6553   21.4775 C   0  0  0  0  0  0  0  0  0  0  0  0
    8.5864  -12.1130   22.0856 C   0  0  0  0  0  0  0  0  0  0  0  0
    8.7880  -13.4703   22.2223 C   0  0  0  0  0  0  0  0  0  0  0  0
    7.8380  -14.3624   21.7469 C   0  0  0  0  0  0  0  0  0  0  0  0
   11.0532  -17.4053   22.2158 C   0  0  0  0  0  0  0  0  0  0  0  0
   11.6708  -18.4363   21.8284 O   0  0  0  0  0  0  0  0  0  0  0  0
   15.4546  -17.5635   24.2409 N   0  0  0  0  0  0  0  0  0  0  0  0
   15.0594  -16.2660   23.8579 C   0  0  0  0  0  0  0  0  0  0  0  0
   15.9364  -15.4143   23.6073 O   0  0  0  0  0  0  0  0  0  0  0  0
   13.6433  -15.9161   23.7537 C   0  0  0  0  0  0  0  0  0  0  0  0
   12.7135  -17.0576   24.0757 C   0  0  2  0  0  0  0  0  0  0  0  0
   11.4317  -16.7774   23.4043 N   0  0  0  0  0  0  0  0  0  0  0  0
   12.4035  -17.0688   25.5484 C   0  0  0  0  0  0  0  0  0  0  0  0
   13.3133  -17.1854   26.4277 O   0  0  0  0  0  0  0  0  0  0  0  0
    7.3792  -11.8298   25.9543 O   0  0  0  0  0  0  0  0  0  0  0  0
    7.8558  -13.0577   26.4055 C   0  0  0  0  0  0  0  0  0  0  0  0
    7.4955  -14.2178   25.7554 C   0  0  0  0  0  0  0  0  0  0  0  0
    7.9641  -15.4504   26.1952 C   0  0  0  0  0  0  0  0  0  0  0  0
    8.7982  -15.5671   27.2854 C   0  0  0  0  0  0  0  0  0  0  0  0
    9.2929  -16.8896   27.7449 C   0  0  0  0  0  0  0  0  0  0  0  0
   10.7772  -17.0713   27.4648 C   0  0  2  0  0  0  0  0  0  0  0  0
   11.0842  -16.9509   26.0556 N   0  0  0  0  0  0  0  0  0  0  0  0
   11.1137  -18.4483   27.8891 C   0  0  0  0  0  0  0  0  0  0  0  0
   11.0727  -18.8677   29.2104 O   0  0  0  0  0  0  0  0  0  0  0  0
    9.1541  -14.4029   27.9301 C   0  0  0  0  0  0  0  0  0  0  0  0
    8.6896  -13.1669   27.4962 C   0  0  0  0  0  0  0  0  0  0  0  0
   11.4549  -19.2925   27.0290 O   0  0  0  0  0  0  0  0  0  0  0  0
  2  1  1  6
  3  2  1  0
  4  3  1  0
  4  5  2  0
  6  5  1  0
  7  6  1  0
  8  7  2  0
  9  8  1  0
 10  9  2  0
 10 11  1  0
 11 12  2  0
 12  7  1  0
 12  4  1  0
 13 20  1  0
 13  2  1  0
 14 13  2  0
 16 18  1  0
 16 15  1  0
 17 16  2  0
 19 18  1  1
 19 20  1  0
 21 22  2  0
 21 19  1  0
 23 24  1  0
 24 34  2  0
 24 25  1  0
 25 26  2  0
 26 27  1  0
 27 28  1  0
 29 28  1  6
 29 30  1  0
 30 21  1  0
 31 29  1  0
 31 32  1  0
 33 27  2  0
 34 33  1  0
 35 31  2  0
M  END
$$$$
