WNY.pdb
     RDKit          3D

 35 37  0  0  1  0  0  0  0  0999 V2000
    7.1979  -17.8417   24.7360 N   0  0  0  0  0  0  0  0  0  0  0  0
    8.0171  -16.8750   24.0617 C   0  0  1  0  0  0  0  0  0  0  0  0
    8.7071  -15.9218   25.0009 C   0  0  0  0  0  0  0  0  0  0  0  0
    7.7315  -15.1005   25.7352 C   0  0  0  0  0  0  0  0  0  0  0  0
    6.6759  -15.6061   26.5187 C   0  0  0  0  0  0  0  0  0  0  0  0
    6.0147  -14.5827   27.0633 N   0  0  0  0  0  0  0  0  0  0  0  0
    6.5891  -13.4245   26.6716 C   0  0  0  0  0  0  0  0  0  0  0  0
    6.3002  -12.1112   26.9354 C   0  0  0  0  0  0  0  0  0  0  0  0
    7.0526  -11.1053   26.3923 C   0  0  0  0  0  0  0  0  0  0  0  0
    8.1133  -11.3975   25.5705 C   0  0  0  0  0  0  0  0  0  0  0  0
    8.4181  -12.7137   25.2945 C   0  0  0  0  0  0  0  0  0  0  0  0
    7.6546  -13.7316   25.8472 C   0  0  0  0  0  0  0  0  0  0  0  0
    9.0727  -17.5622   23.2730 C   0  0  0  0  0  0  0  0  0  0  0  0
    9.5054  -18.6791   23.6729 O   0  0  0  0  0  0  0  0  0  0  0  0
    9.6969  -19.0432   19.1512 N   0  0  0  0  0  0  0  0  0  0  0  0
    9.7631  -17.6448   19.3144 C   0  0  0  0  0  0  0  0  0  0  0  0
    8.8738  -16.9323   18.8057 O   0  0  0  0  0  0  0  0  0  0  0  0
   10.8558  -17.0310   20.0681 C   0  0  0  0  0  0  0  0  0  0  0  0
   10.8776  -17.4183   21.5244 C   0  0  2  0  0  0  0  0  0  0  0  0
    9.5907  -16.9967   22.1061 N   0  0  0  0  0  0  0  0  0  0  0  0
   11.9286  -16.6241   22.2522 C   0  0  0  0  0  0  0  0  0  0  0  0
   12.6083  -15.7184   21.6757 O   0  0  0  0  0  0  0  0  0  0  0  0
    9.2725  -16.8473   29.2812 O   0  0  0  0  0  0  0  0  0  0  0  0
   10.1261  -16.3872   28.2822 C   0  0  0  0  0  0  0  0  0  0  0  0
    9.6145  -16.0009   27.0626 C   0  0  0  0  0  0  0  0  0  0  0  0
   10.4553  -15.5396   26.0564 C   0  0  0  0  0  0  0  0  0  0  0  0
   11.8190  -15.4487   26.2298 C   0  0  0  0  0  0  0  0  0  0  0  0
   12.7067  -14.9533   25.1474 C   0  0  0  0  0  0  0  0  0  0  0  0
   13.2714  -16.0901   24.3087 C   0  0  2  0  0  0  0  0  0  0  0  0
   12.2329  -16.8284   23.6223 N   0  0  0  0  0  0  0  0  0  0  0  0
   13.9374  -17.0123   25.2550 C   0  0  0  0  0  0  0  0  0  0  0  0
   13.5319  -18.3242   25.4498 O   0  0  0  0  0  0  0  0  0  0  0  0
   12.3230  -15.8366   27.4516 C   0  0  0  0  0  0  0  0  0  0  0  0
   11.4886  -16.2989   28.4625 C   0  0  0  0  0  0  0  0  0  0  0  0
   14.9172  -16.6089   25.9229 O   0  0  0  0  0  0  0  0  0  0  0  0
  2  1  1  1
  3  2  1  0
  4  3  1  0
  4  5  2  0
  6  5  1  0
  7  6  1  0
  8  7  2  0
  9  8  1  0
 10  9  2  0
 10 11  1  0
 11 12  2  0
 12  7  1  0
 12  4  1  0
 13 20  1  0
 13  2  1  0
 14 13  2  0
 16 18  1  0
 16 15  1  0
 17 16  2  0
 19 18  1  6
 19 20  1  0
 21 22  2  0
 21 19  1  0
 23 24  1  0
 24 34  2  0
 24 25  1  0
 25 26  2  0
 26 27  1  0
 27 28  1  0
 29 28  1  1
 29 30  1  0
 30 21  1  0
 31 29  1  0
 31 32  1  0
 33 27  2  0
 34 33  1  0
 35 31  2  0
M  END
$$$$
