WNY.pdb
     RDKit          3D

 35 37  0  0  1  0  0  0  0  0999 V2000
    6.6157  -17.7819   23.6821 N   0  0  0  0  0  0  0  0  0  0  0  0
    7.5922  -16.7645   23.4141 C   0  0  1  0  0  0  0  0  0  0  0  0
    8.1692  -16.1509   24.6620 C   0  0  0  0  0  0  0  0  0  0  0  0
    7.1892  -15.2766   25.3259 C   0  0  0  0  0  0  0  0  0  0  0  0
    6.1126  -15.7231   26.1168 C   0  0  0  0  0  0  0  0  0  0  0  0
    5.4529  -14.6619   26.5855 N   0  0  0  0  0  0  0  0  0  0  0  0
    6.0483  -13.5354   26.1368 C   0  0  0  0  0  0  0  0  0  0  0  0
    5.7697  -12.2057   26.3155 C   0  0  0  0  0  0  0  0  0  0  0  0
    6.5442  -11.2423   25.7283 C   0  0  0  0  0  0  0  0  0  0  0  0
    7.6173  -11.5945   24.9471 C   0  0  0  0  0  0  0  0  0  0  0  0
    7.9121  -12.9281   24.7567 C   0  0  0  0  0  0  0  0  0  0  0  0
    7.1260  -13.9027   25.3540 C   0  0  0  0  0  0  0  0  0  0  0  0
    8.7231  -17.3352   22.6370 C   0  0  0  0  0  0  0  0  0  0  0  0
    9.0026  -18.5591   22.7727 O   0  0  0  0  0  0  0  0  0  0  0  0
    9.6448  -17.6283   18.3124 N   0  0  0  0  0  0  0  0  0  0  0  0
    9.8611  -16.4114   18.9900 C   0  0  0  0  0  0  0  0  0  0  0  0
    9.0822  -15.4578   18.7870 O   0  0  0  0  0  0  0  0  0  0  0  0
   10.9807  -16.2618   19.9188 C   0  0  0  0  0  0  0  0  0  0  0  0
   10.7790  -16.9791   21.2288 C   0  0  2  0  0  0  0  0  0  0  0  0
    9.4769  -16.5454   21.7664 N   0  0  0  0  0  0  0  0  0  0  0  0
   11.8028  -16.5177   22.2308 C   0  0  0  0  0  0  0  0  0  0  0  0
   12.5051  -15.4751   22.0453 O   0  0  0  0  0  0  0  0  0  0  0  0
    9.7997  -15.7477   29.8746 O   0  0  0  0  0  0  0  0  0  0  0  0
   10.5031  -15.6781   28.6752 C   0  0  0  0  0  0  0  0  0  0  0  0
   11.0410  -14.4794   28.2604 C   0  0  0  0  0  0  0  0  0  0  0  0
   11.7456  -14.3957   27.0650 C   0  0  0  0  0  0  0  0  0  0  0  0
   11.9358  -15.4915   26.2519 C   0  0  0  0  0  0  0  0  0  0  0  0
   12.6913  -15.3894   24.9777 C   0  0  0  0  0  0  0  0  0  0  0  0
   13.0352  -16.7576   24.4083 C   0  0  2  0  0  0  0  0  0  0  0  0
   12.0547  -17.2083   23.4438 N   0  0  0  0  0  0  0  0  0  0  0  0
   13.0177  -17.6984   25.5502 C   0  0  0  0  0  0  0  0  0  0  0  0
   13.9472  -17.6619   26.5789 O   0  0  0  0  0  0  0  0  0  0  0  0
   11.3951  -16.6863   26.6733 C   0  0  0  0  0  0  0  0  0  0  0  0
   10.6895  -16.7778   27.8672 C   0  0  0  0  0  0  0  0  0  0  0  0
   12.1286  -18.5785   25.6105 O   0  0  0  0  0  0  0  0  0  0  0  0
  2  1  1  1
  3  2  1  0
  4  3  1  0
  4  5  2  0
  6  5  1  0
  7  6  1  0
  8  7  2  0
  9  8  1  0
 10  9  2  0
 10 11  1  0
 11 12  2  0
 12  7  1  0
 12  4  1  0
 13 20  1  0
 13  2  1  0
 14 13  2  0
 16 18  1  0
 16 15  1  0
 17 16  2  0
 19 18  1  6
 19 20  1  0
 21 22  2  0
 21 19  1  0
 23 24  1  0
 24 34  2  0
 24 25  1  0
 25 26  2  0
 26 27  1  0
 27 28  1  0
 29 28  1  1
 29 30  1  0
 30 21  1  0
 31 29  1  0
 31 32  1  0
 33 27  2  0
 34 33  1  0
 35 31  2  0
M  END
$$$$
