WNY.pdb
     RDKit          3D

 35 37  0  0  1  0  0  0  0  0999 V2000
    6.3358  -17.5951   23.7770 N   0  0  0  0  0  0  0  0  0  0  0  0
    7.6169  -16.9558   23.8784 C   0  0  1  0  0  0  0  0  0  0  0  0
    7.8823  -16.3686   25.2391 C   0  0  0  0  0  0  0  0  0  0  0  0
    6.8988  -15.3245   25.5678 C   0  0  0  0  0  0  0  0  0  0  0  0
    5.7075  -15.5342   26.2894 C   0  0  0  0  0  0  0  0  0  0  0  0
    5.0778  -14.3661   26.4308 N   0  0  0  0  0  0  0  0  0  0  0  0
    5.8028  -13.3959   25.8326 C   0  0  0  0  0  0  0  0  0  0  0  0
    5.6041  -12.0480   25.6851 C   0  0  0  0  0  0  0  0  0  0  0  0
    6.5107  -11.2756   25.0111 C   0  0  0  0  0  0  0  0  0  0  0  0
    7.6384  -11.8416   24.4692 C   0  0  0  0  0  0  0  0  0  0  0  0
    7.8542  -13.1964   24.6083 C   0  0  0  0  0  0  0  0  0  0  0  0
    6.9343  -13.9771   25.2930 C   0  0  0  0  0  0  0  0  0  0  0  0
    8.6992  -17.9353   23.5995 C   0  0  0  0  0  0  0  0  0  0  0  0
    8.4760  -18.8802   22.7922 O   0  0  0  0  0  0  0  0  0  0  0  0
   12.9533  -15.3177   21.4972 N   0  0  0  0  0  0  0  0  0  0  0  0
   11.8878  -16.2404   21.4886 C   0  0  0  0  0  0  0  0  0  0  0  0
   11.7238  -16.9677   20.4878 O   0  0  0  0  0  0  0  0  0  0  0  0
   10.9836  -16.3489   22.6328 C   0  0  0  0  0  0  0  0  0  0  0  0
   11.1893  -17.5989   23.4491 C   0  0  2  0  0  0  0  0  0  0  0  0
    9.9495  -17.8292   24.2122 N   0  0  0  0  0  0  0  0  0  0  0  0
   12.2609  -17.3690   24.4806 C   0  0  0  0  0  0  0  0  0  0  0  0
   13.0565  -16.3803   24.4170 O   0  0  0  0  0  0  0  0  0  0  0  0
    9.4490  -12.7557   27.6675 O   0  0  0  0  0  0  0  0  0  0  0  0
   10.1493  -13.9566   27.7424 C   0  0  0  0  0  0  0  0  0  0  0  0
   11.5264  -13.9495   27.7875 C   0  0  0  0  0  0  0  0  0  0  0  0
   12.2381  -15.1412   27.8624 C   0  0  0  0  0  0  0  0  0  0  0  0
   11.6086  -16.3663   27.8947 C   0  0  0  0  0  0  0  0  0  0  0  0
   12.3803  -17.6324   27.9758 C   0  0  0  0  0  0  0  0  0  0  0  0
   13.2436  -17.8533   26.7428 C   0  0  2  0  0  0  0  0  0  0  0  0
   12.4575  -18.2327   25.5884 N   0  0  0  0  0  0  0  0  0  0  0  0
   14.1498  -18.9772   27.0670 C   0  0  0  0  0  0  0  0  0  0  0  0
   15.1232  -18.9084   28.0524 O   0  0  0  0  0  0  0  0  0  0  0  0
   10.2319  -16.3652   27.8493 C   0  0  0  0  0  0  0  0  0  0  0  0
    9.5134  -15.1778   27.7743 C   0  0  0  0  0  0  0  0  0  0  0  0
   14.0499  -20.0526   26.4326 O   0  0  0  0  0  0  0  0  0  0  0  0
  2  1  1  1
  3  2  1  0
  4  3  1  0
  4  5  2  0
  6  5  1  0
  7  6  1  0
  8  7  2  0
  9  8  1  0
 10  9  2  0
 10 11  1  0
 11 12  2  0
 12  7  1  0
 12  4  1  0
 13 20  1  0
 13  2  1  0
 14 13  2  0
 16 18  1  0
 16 15  1  0
 17 16  2  0
 19 18  1  6
 19 20  1  0
 21 22  2  0
 21 19  1  0
 23 24  1  0
 24 34  2  0
 24 25  1  0
 25 26  2  0
 26 27  1  0
 27 28  1  0
 29 28  1  1
 29 30  1  0
 30 21  1  0
 31 29  1  0
 31 32  1  0
 33 27  2  0
 34 33  1  0
 35 31  2  0
M  END
$$$$
