WNY.pdb
     RDKit          3D

 35 37  0  0  1  0  0  0  0  0999 V2000
    6.5139  -17.3970   22.4785 N   0  0  0  0  0  0  0  0  0  0  0  0
    7.4081  -16.6214   21.6667 C   0  0  1  0  0  0  0  0  0  0  0  0
    7.3948  -15.1539   22.0030 C   0  0  0  0  0  0  0  0  0  0  0  0
    6.8376  -14.9218   23.3451 C   0  0  0  0  0  0  0  0  0  0  0  0
    6.2669  -15.9137   24.1663 C   0  0  0  0  0  0  0  0  0  0  0  0
    5.8982  -15.3570   25.3218 N   0  0  0  0  0  0  0  0  0  0  0  0
    6.2008  -14.0408   25.2968 C   0  0  0  0  0  0  0  0  0  0  0  0
    6.0284  -13.0328   26.2090 C   0  0  0  0  0  0  0  0  0  0  0  0
    6.4250  -11.7544   25.9240 C   0  0  0  0  0  0  0  0  0  0  0  0
    7.0041  -11.4602   24.7141 C   0  0  0  0  0  0  0  0  0  0  0  0
    7.1853  -12.4625   23.7845 C   0  0  0  0  0  0  0  0  0  0  0  0
    6.7835  -13.7578   24.0763 C   0  0  0  0  0  0  0  0  0  0  0  0
    8.8030  -17.1034   21.8410 C   0  0  0  0  0  0  0  0  0  0  0  0
    8.9974  -18.2447   22.3452 O   0  0  0  0  0  0  0  0  0  0  0  0
   11.8176  -17.7939   18.8867 N   0  0  0  0  0  0  0  0  0  0  0  0
   11.9904  -16.4288   19.1922 C   0  0  0  0  0  0  0  0  0  0  0  0
   12.0488  -15.6016   18.2597 O   0  0  0  0  0  0  0  0  0  0  0  0
   12.1004  -15.9815   20.5802 C   0  0  0  0  0  0  0  0  0  0  0  0
   11.2847  -16.8020   21.5459 C   0  0  2  0  0  0  0  0  0  0  0  0
    9.8944  -16.3200   21.4600 N   0  0  0  0  0  0  0  0  0  0  0  0
   11.7226  -16.5201   22.9580 C   0  0  0  0  0  0  0  0  0  0  0  0
   12.9047  -16.7601   23.3575 O   0  0  0  0  0  0  0  0  0  0  0  0
   11.4194  -15.6289   31.7521 O   0  0  0  0  0  0  0  0  0  0  0  0
   11.0845  -15.6289   30.4007 C   0  0  0  0  0  0  0  0  0  0  0  0
   10.2862  -16.6283   29.8886 C   0  0  0  0  0  0  0  0  0  0  0  0
    9.9442  -16.6405   28.5414 C   0  0  0  0  0  0  0  0  0  0  0  0
   10.3813  -15.6680   27.6688 C   0  0  0  0  0  0  0  0  0  0  0  0
   10.0082  -15.6915   26.2317 C   0  0  0  0  0  0  0  0  0  0  0  0
   11.2225  -15.8582   25.3306 C   0  0  2  0  0  0  0  0  0  0  0  0
   10.8540  -15.9710   23.9356 N   0  0  0  0  0  0  0  0  0  0  0  0
   11.8686  -17.1262   25.7358 C   0  0  0  0  0  0  0  0  0  0  0  0
   11.2965  -18.3718   25.5245 O   0  0  0  0  0  0  0  0  0  0  0  0
   11.1789  -14.6722   28.1882 C   0  0  0  0  0  0  0  0  0  0  0  0
   11.5251  -14.6534   29.5341 C   0  0  0  0  0  0  0  0  0  0  0  0
   12.9871  -17.0960   26.2987 O   0  0  0  0  0  0  0  0  0  0  0  0
  2  1  1  1
  3  2  1  0
  4  3  1  0
  4  5  2  0
  6  5  1  0
  7  6  1  0
  8  7  2  0
  9  8  1  0
 10  9  2  0
 10 11  1  0
 11 12  2  0
 12  7  1  0
 12  4  1  0
 13 20  1  0
 13  2  1  0
 14 13  2  0
 16 18  1  0
 16 15  1  0
 17 16  2  0
 19 18  1  6
 19 20  1  0
 21 22  2  0
 21 19  1  0
 23 24  1  0
 24 34  2  0
 24 25  1  0
 25 26  2  0
 26 27  1  0
 27 28  1  0
 29 28  1  1
 29 30  1  0
 30 21  1  0
 31 29  1  0
 31 32  1  0
 33 27  2  0
 34 33  1  0
 35 31  2  0
M  END
$$$$
