SHN.pdb
     RDKit          3D

 25 25  0  0  1  0  0  0  0  0999 V2000
   16.8251   -9.3802  -18.9598 O   0  0  0  0  0  0  0  0  0  0  0  0
   17.3124   -9.1830  -17.6876 C   0  0  0  0  0  0  0  0  0  0  0  0
   18.6182   -9.8896  -17.5266 C   0  0  2  0  0  0  0  0  0  0  0  0
   18.4015  -11.2859  -17.0923 N   0  0  0  0  0  0  0  0  0  0  0  0
   19.5327   -9.2405  -16.5692 C   0  0  0  0  0  0  0  0  0  0  0  0
   19.2797   -9.2886  -15.3181 O   0  0  0  0  0  0  0  0  0  0  0  0
   20.6893   -8.5639  -16.9830 N   0  0  0  0  0  0  0  0  0  0  0  0
   21.5375   -7.9304  -15.9592 C   0  0  1  0  0  0  0  0  0  0  0  0
   22.9789   -8.3529  -16.1574 C   0  0  0  0  0  0  0  0  0  0  0  0
   23.1832   -9.7505  -15.7300 C   0  0  0  0  0  0  0  0  0  0  0  0
   22.2740  -10.6072  -15.1641 C   0  0  0  0  0  0  0  0  0  0  0  0
   22.8769  -11.7839  -14.9133 N   0  0  0  0  0  0  0  0  0  0  0  0
   24.1586  -11.6539  -15.3243 C   0  0  0  0  0  0  0  0  0  0  0  0
   24.3599  -10.4277  -15.8215 N   0  0  0  0  0  0  0  0  0  0  0  0
   21.3307   -6.4752  -16.0678 C   0  0  0  0  0  0  0  0  0  0  0  0
   21.3014   -5.9824  -17.2227 O   0  0  0  0  0  0  0  0  0  0  0  0
   20.3557   -1.4582  -15.4838 N   0  0  0  0  0  0  0  0  0  0  0  0
   19.3349   -2.3604  -15.0146 C   0  0  0  0  0  0  0  0  0  0  0  0
   18.2317   -1.8308  -14.7526 O   0  0  0  0  0  0  0  0  0  0  0  0
   19.6047   -3.7962  -14.8660 C   0  0  0  0  0  0  0  0  0  0  0  0
   21.0086   -4.1618  -15.2286 C   0  0  2  0  0  0  0  0  0  0  0  0
   21.1629   -5.5925  -14.9795 N   0  0  0  0  0  0  0  0  0  0  0  0
   22.0502   -3.3803  -14.5544 C   0  0  0  0  0  0  0  0  0  0  0  0
   22.0988   -2.1251  -14.8118 O   0  0  0  0  0  0  0  0  0  0  0  0
   22.9951   -3.8439  -13.6641 O   0  0  0  0  0  0  0  0  0  0  0  0
  1  2  1  0
  2  3  1  0
  3  5  1  0
  3  4  1  1
  5  6  2  0
  7  5  1  0
  7  8  1  0
  8 15  1  0
  8  9  1  6
 10  9  1  0
 11 10  2  0
 12 13  1  0
 12 11  1  0
 13 14  2  0
 14 10  1  0
 15 16  2  0
 18 17  1  0
 19 18  2  0
 20 18  1  0
 21 20  1  1
 21 23  1  0
 22 21  1  0
 22 15  1  0
 23 25  1  0
 24 23  2  0
M  END
$$$$
