SHN.pdb
     RDKit          3D

 25 25  0  0  1  0  0  0  0  0999 V2000
   19.2721   -9.3647  -19.1956 O   0  0  0  0  0  0  0  0  0  0  0  0
   19.0055   -8.3833  -18.2679 C   0  0  0  0  0  0  0  0  0  0  0  0
   18.7484   -9.0004  -16.9324 C   0  0  2  0  0  0  0  0  0  0  0  0
   17.4175   -9.6432  -16.9064 N   0  0  0  0  0  0  0  0  0  0  0  0
   18.8272   -8.0468  -15.8105 C   0  0  0  0  0  0  0  0  0  0  0  0
   17.8787   -7.2131  -15.6190 O   0  0  0  0  0  0  0  0  0  0  0  0
   19.9178   -8.0196  -14.9292 N   0  0  0  0  0  0  0  0  0  0  0  0
   19.8865   -7.0735  -13.8009 C   0  0  1  0  0  0  0  0  0  0  0  0
   20.1720   -7.8107  -12.5084 C   0  0  0  0  0  0  0  0  0  0  0  0
   18.9770   -8.5393  -12.0408 C   0  0  0  0  0  0  0  0  0  0  0  0
   17.7012   -8.4886  -12.5416 C   0  0  0  0  0  0  0  0  0  0  0  0
   16.9110   -9.2975  -11.8120 N   0  0  0  0  0  0  0  0  0  0  0  0
   17.6987   -9.8478  -10.8605 C   0  0  0  0  0  0  0  0  0  0  0  0
   18.9532   -9.3985  -10.9858 N   0  0  0  0  0  0  0  0  0  0  0  0
   20.8637   -6.0118  -14.1010 C   0  0  0  0  0  0  0  0  0  0  0  0
   21.9420   -6.3585  -14.6437 O   0  0  0  0  0  0  0  0  0  0  0  0
   23.2035   -1.8752  -15.8283 N   0  0  0  0  0  0  0  0  0  0  0  0
   22.5834   -2.9627  -16.5417 C   0  0  0  0  0  0  0  0  0  0  0  0
   22.8081   -2.9926  -17.7725 O   0  0  0  0  0  0  0  0  0  0  0  0
   21.7516   -3.9498  -15.8415 C   0  0  0  0  0  0  0  0  0  0  0  0
   21.6241   -3.6657  -14.3790 C   0  0  2  0  0  0  0  0  0  0  0  0
   20.6849   -4.6388  -13.8279 N   0  0  0  0  0  0  0  0  0  0  0  0
   21.2384   -2.2916  -14.0422 C   0  0  0  0  0  0  0  0  0  0  0  0
   19.9864   -2.0150  -14.0569 O   0  0  0  0  0  0  0  0  0  0  0  0
   22.0759   -1.2492  -13.7069 O   0  0  0  0  0  0  0  0  0  0  0  0
  1  2  1  0
  2  3  1  0
  3  5  1  0
  3  4  1  6
  5  6  2  0
  7  5  1  0
  7  8  1  0
  8 15  1  0
  8  9  1  1
 10  9  1  0
 11 10  2  0
 12 13  1  0
 12 11  1  0
 13 14  2  0
 14 10  1  0
 15 16  2  0
 18 17  1  0
 19 18  2  0
 20 18  1  0
 21 20  1  6
 21 23  1  0
 22 21  1  0
 22 15  1  0
 23 25  1  0
 24 23  2  0
M  END
$$$$
