SHN.pdb
     RDKit          3D

 25 25  0  0  1  0  0  0  0  0999 V2000
   24.9566   -9.8777  -20.3610 O   0  0  0  0  0  0  0  0  0  0  0  0
   23.6157  -10.1748  -20.2682 C   0  0  0  0  0  0  0  0  0  0  0  0
   23.4246  -11.4291  -19.4804 C   0  0  2  0  0  0  0  0  0  0  0  0
   23.8232  -12.6077  -20.2786 N   0  0  0  0  0  0  0  0  0  0  0  0
   22.0424  -11.6315  -19.0087 C   0  0  0  0  0  0  0  0  0  0  0  0
   21.2255  -12.3153  -19.7135 O   0  0  0  0  0  0  0  0  0  0  0  0
   21.5815  -11.0976  -17.7966 N   0  0  0  0  0  0  0  0  0  0  0  0
   20.1910  -11.3673  -17.3930 C   0  0  1  0  0  0  0  0  0  0  0  0
   20.1731  -12.3884  -16.2738 C   0  0  0  0  0  0  0  0  0  0  0  0
   18.7912  -12.6757  -15.8431 C   0  0  0  0  0  0  0  0  0  0  0  0
   17.6231  -12.1420  -16.3244 C   0  0  0  0  0  0  0  0  0  0  0  0
   16.5878  -12.6656  -15.6425 N   0  0  0  0  0  0  0  0  0  0  0  0
   17.1164  -13.5228  -14.7401 C   0  0  0  0  0  0  0  0  0  0  0  0
   18.4503  -13.5401  -14.8490 N   0  0  0  0  0  0  0  0  0  0  0  0
   19.5918  -10.0737  -17.0191 C   0  0  0  0  0  0  0  0  0  0  0  0
   20.2544   -9.3327  -16.2513 O   0  0  0  0  0  0  0  0  0  0  0  0
   17.0140   -7.5688  -20.6253 N   0  0  0  0  0  0  0  0  0  0  0  0
   17.5451   -7.2770  -19.3181 C   0  0  0  0  0  0  0  0  0  0  0  0
   18.5645   -6.5513  -19.3043 O   0  0  0  0  0  0  0  0  0  0  0  0
   16.9089   -7.8107  -18.1069 C   0  0  0  0  0  0  0  0  0  0  0  0
   17.9009   -8.2580  -17.0814 C   0  0  2  0  0  0  0  0  0  0  0  0
   18.3350   -9.6017  -17.4541 N   0  0  0  0  0  0  0  0  0  0  0  0
   17.4288   -8.2079  -15.6940 C   0  0  0  0  0  0  0  0  0  0  0  0
   16.8557   -9.2581  -15.2326 O   0  0  0  0  0  0  0  0  0  0  0  0
   17.5311   -7.1496  -14.8165 O   0  0  0  0  0  0  0  0  0  0  0  0
  1  2  1  0
  2  3  1  0
  3  5  1  0
  3  4  1  6
  5  6  2  0
  7  5  1  0
  7  8  1  0
  8 15  1  0
  8  9  1  1
 10  9  1  0
 11 10  2  0
 12 13  1  0
 12 11  1  0
 13 14  2  0
 14 10  1  0
 15 16  2  0
 18 17  1  0
 19 18  2  0
 20 18  1  0
 21 20  1  6
 21 23  1  0
 22 21  1  0
 22 15  1  0
 23 25  1  0
 24 23  2  0
M  END
$$$$
