SHN.pdb
     RDKit          3D

 25 25  0  0  1  0  0  0  0  0999 V2000
   26.7282  -23.1234  -11.4509 O   0  0  0  0  0  0  0  0  0  0  0  0
   26.0418  -22.1889  -12.1929 C   0  0  0  0  0  0  0  0  0  0  0  0
   26.1711  -20.8416  -11.5616 C   0  0  2  0  0  0  0  0  0  0  0  0
   25.3569  -20.7664  -10.3301 N   0  0  0  0  0  0  0  0  0  0  0  0
   25.7806  -19.7290  -12.4469 C   0  0  0  0  0  0  0  0  0  0  0  0
   24.6420  -19.1697  -12.2980 O   0  0  0  0  0  0  0  0  0  0  0  0
   26.6236  -19.2503  -13.4603 N   0  0  0  0  0  0  0  0  0  0  0  0
   26.1714  -18.1051  -14.2684 C   0  0  1  0  0  0  0  0  0  0  0  0
   27.3605  -17.4611  -14.9518 C   0  0  0  0  0  0  0  0  0  0  0  0
   26.9294  -16.3629  -15.8381 C   0  0  0  0  0  0  0  0  0  0  0  0
   25.6523  -15.9471  -16.1160 C   0  0  0  0  0  0  0  0  0  0  0  0
   25.7042  -14.9225  -16.9870 N   0  0  0  0  0  0  0  0  0  0  0  0
   27.0133  -14.7056  -17.2471 C   0  0  0  0  0  0  0  0  0  0  0  0
   27.7683  -15.5701  -16.5587 N   0  0  0  0  0  0  0  0  0  0  0  0
   25.1571  -18.6144  -15.2087 C   0  0  0  0  0  0  0  0  0  0  0  0
   25.1983  -19.8371  -15.4932 O   0  0  0  0  0  0  0  0  0  0  0  0
   20.4317  -19.7290  -16.6131 N   0  0  0  0  0  0  0  0  0  0  0  0
   21.0777  -19.8774  -15.3337 C   0  0  0  0  0  0  0  0  0  0  0  0
   20.4685  -20.5915  -14.5061 O   0  0  0  0  0  0  0  0  0  0  0  0
   22.3618  -19.2220  -15.0543 C   0  0  0  0  0  0  0  0  0  0  0  0
   22.9013  -18.4792  -16.2346 C   0  0  2  0  0  0  0  0  0  0  0  0
   24.1448  -17.8394  -15.8138 N   0  0  0  0  0  0  0  0  0  0  0  0
   21.9764  -17.5163  -16.8411 C   0  0  0  0  0  0  0  0  0  0  0  0
   21.9658  -16.3296  -16.3556 O   0  0  0  0  0  0  0  0  0  0  0  0
   21.1059  -17.7413  -17.8861 O   0  0  0  0  0  0  0  0  0  0  0  0
  1  2  1  0
  2  3  1  0
  3  5  1  0
  3  4  1  1
  5  6  2  0
  7  5  1  0
  7  8  1  0
  8 15  1  0
  8  9  1  6
 10  9  1  0
 11 10  2  0
 12 13  1  0
 12 11  1  0
 13 14  2  0
 14 10  1  0
 15 16  2  0
 18 17  1  0
 19 18  2  0
 20 18  1  0
 21 20  1  1
 21 23  1  0
 22 21  1  0
 22 15  1  0
 23 25  1  0
 24 23  2  0
M  END
$$$$
