SHN.pdb
     RDKit          3D

 25 25  0  0  1  0  0  0  0  0999 V2000
   25.9190   -9.7819  -21.3620 O   0  0  0  0  0  0  0  0  0  0  0  0
   25.9625   -9.0713  -20.1839 C   0  0  0  0  0  0  0  0  0  0  0  0
   25.0642   -7.8815  -20.2725 C   0  0  2  0  0  0  0  0  0  0  0  0
   25.7637   -6.7516  -20.9198 N   0  0  0  0  0  0  0  0  0  0  0  0
   24.5495   -7.4253  -18.9683 C   0  0  0  0  0  0  0  0  0  0  0  0
   25.2560   -6.6441  -18.2457 O   0  0  0  0  0  0  0  0  0  0  0  0
   23.2940   -7.8184  -18.4824 N   0  0  0  0  0  0  0  0  0  0  0  0
   22.8108   -7.2267  -17.2232 C   0  0  1  0  0  0  0  0  0  0  0  0
   22.8796   -5.7156  -17.3097 C   0  0  0  0  0  0  0  0  0  0  0  0
   22.3005   -5.0906  -16.1048 C   0  0  0  0  0  0  0  0  0  0  0  0
   21.7865   -5.7062  -14.9923 C   0  0  0  0  0  0  0  0  0  0  0  0
   21.3480   -4.7668  -14.1342 N   0  0  0  0  0  0  0  0  0  0  0  0
   21.5912   -3.5710  -14.7168 C   0  0  0  0  0  0  0  0  0  0  0  0
   22.1680   -3.7502  -15.9112 N   0  0  0  0  0  0  0  0  0  0  0  0
   21.4481   -7.7418  -16.9996 C   0  0  0  0  0  0  0  0  0  0  0  0
   20.6446   -7.6819  -17.9631 O   0  0  0  0  0  0  0  0  0  0  0  0
   17.0952   -9.9975  -15.5414 N   0  0  0  0  0  0  0  0  0  0  0  0
   18.2716  -10.8294  -15.5330 C   0  0  0  0  0  0  0  0  0  0  0  0
   18.0558  -12.0611  -15.4829 O   0  0  0  0  0  0  0  0  0  0  0  0
   19.6155  -10.2394  -15.5808 C   0  0  0  0  0  0  0  0  0  0  0  0
   19.5892   -8.7490  -15.6997 C   0  0  2  0  0  0  0  0  0  0  0  0
   20.9746   -8.2962  -15.7912 N   0  0  0  0  0  0  0  0  0  0  0  0
   18.8619   -8.0515  -14.6344 C   0  0  0  0  0  0  0  0  0  0  0  0
   19.5386   -7.6781  -13.6114 O   0  0  0  0  0  0  0  0  0  0  0  0
   17.5179   -7.7461  -14.6048 O   0  0  0  0  0  0  0  0  0  0  0  0
  1  2  1  0
  2  3  1  0
  3  5  1  0
  3  4  1  1
  5  6  2  0
  7  5  1  0
  7  8  1  0
  8 15  1  0
  8  9  1  6
 10  9  1  0
 11 10  2  0
 12 13  1  0
 12 11  1  0
 13 14  2  0
 14 10  1  0
 15 16  2  0
 18 17  1  0
 19 18  2  0
 20 18  1  0
 21 20  1  1
 21 23  1  0
 22 21  1  0
 22 15  1  0
 23 25  1  0
 24 23  2  0
M  END
$$$$
