SHN.pdb
     RDKit          3D

 25 25  0  0  1  0  0  0  0  0999 V2000
   23.0174  -11.4120  -19.3163 O   0  0  0  0  0  0  0  0  0  0  0  0
   22.3129  -10.3261  -18.8481 C   0  0  0  0  0  0  0  0  0  0  0  0
   21.4987  -10.7203  -17.6598 C   0  0  2  0  0  0  0  0  0  0  0  0
   20.4065  -11.6325  -18.0598 N   0  0  0  0  0  0  0  0  0  0  0  0
   20.9105   -9.5785  -16.9355 C   0  0  0  0  0  0  0  0  0  0  0  0
   19.7856   -9.1022  -17.3088 O   0  0  0  0  0  0  0  0  0  0  0  0
   21.5448   -8.9867  -15.8337 N   0  0  0  0  0  0  0  0  0  0  0  0
   20.8897   -7.8434  -15.1758 C   0  0  1  0  0  0  0  0  0  0  0  0
   20.9236   -8.0311  -13.6727 C   0  0  0  0  0  0  0  0  0  0  0  0
   19.6688   -8.6376  -13.1877 C   0  0  0  0  0  0  0  0  0  0  0  0
   18.5624   -8.9965  -13.9144 C   0  0  0  0  0  0  0  0  0  0  0  0
   17.6341   -9.5002  -13.0804 N   0  0  0  0  0  0  0  0  0  0  0  0
   18.1672   -9.4524  -11.8386 C   0  0  0  0  0  0  0  0  0  0  0  0
   19.3995   -8.9324  -11.8869 N   0  0  0  0  0  0  0  0  0  0  0  0
   21.5846   -6.6266  -15.6326 C   0  0  0  0  0  0  0  0  0  0  0  0
   22.8336   -6.6870  -15.7511 O   0  0  0  0  0  0  0  0  0  0  0  0
   22.9296   -2.1373  -17.8092 N   0  0  0  0  0  0  0  0  0  0  0  0
   21.5010   -2.2953  -17.9101 C   0  0  0  0  0  0  0  0  0  0  0  0
   20.9128   -1.4240  -18.5890 O   0  0  0  0  0  0  0  0  0  0  0  0
   20.8152   -3.4132  -17.2494 C   0  0  0  0  0  0  0  0  0  0  0  0
   21.7533   -4.3098  -16.5065 C   0  0  2  0  0  0  0  0  0  0  0  0
   20.9599   -5.4009  -15.9473 N   0  0  0  0  0  0  0  0  0  0  0  0
   22.5641   -3.6492  -15.4786 C   0  0  0  0  0  0  0  0  0  0  0  0
   21.9939   -3.3920  -14.3593 O   0  0  0  0  0  0  0  0  0  0  0  0
   23.8853   -3.2680  -15.5767 O   0  0  0  0  0  0  0  0  0  0  0  0
  1  2  1  0
  2  3  1  0
  3  5  1  0
  3  4  1  6
  5  6  2  0
  7  5  1  0
  7  8  1  0
  8 15  1  0
  8  9  1  1
 10  9  1  0
 11 10  2  0
 12 13  1  0
 12 11  1  0
 13 14  2  0
 14 10  1  0
 15 16  2  0
 18 17  1  0
 19 18  2  0
 20 18  1  0
 21 20  1  1
 21 23  1  0
 22 21  1  0
 22 15  1  0
 23 25  1  0
 24 23  2  0
M  END
$$$$
