SHN.pdb
     RDKit          3D

 25 25  0  0  1  0  0  0  0  0999 V2000
   24.9127  -20.3228   -9.8287 O   0  0  0  0  0  0  0  0  0  0  0  0
   25.3317  -21.5223  -10.3583 C   0  0  0  0  0  0  0  0  0  0  0  0
   26.2313  -21.2781  -11.5251 C   0  0  2  0  0  0  0  0  0  0  0  0
   27.5219  -20.7152  -11.0751 N   0  0  0  0  0  0  0  0  0  0  0  0
   25.6581  -20.3756  -12.5406 C   0  0  0  0  0  0  0  0  0  0  0  0
   25.9226  -19.1266  -12.5007 O   0  0  0  0  0  0  0  0  0  0  0  0
   24.8232  -20.8410  -13.5668 N   0  0  0  0  0  0  0  0  0  0  0  0
   24.3257  -19.8749  -14.5610 C   0  0  1  0  0  0  0  0  0  0  0  0
   24.6805  -20.3490  -15.9556 C   0  0  0  0  0  0  0  0  0  0  0  0
   26.0930  -20.0582  -16.2689 C   0  0  0  0  0  0  0  0  0  0  0  0
   27.1292  -20.9437  -16.4201 C   0  0  0  0  0  0  0  0  0  0  0  0
   28.2565  -20.2587  -16.6863 N   0  0  0  0  0  0  0  0  0  0  0  0
   27.9165  -18.9499  -16.6996 C   0  0  0  0  0  0  0  0  0  0  0  0
   26.6091  -18.8120  -16.4484 N   0  0  0  0  0  0  0  0  0  0  0  0
   22.8756  -19.7348  -14.3383 C   0  0  0  0  0  0  0  0  0  0  0  0
   22.2502  -20.7556  -13.9580 O   0  0  0  0  0  0  0  0  0  0  0  0
   18.0661  -18.0523  -13.4184 N   0  0  0  0  0  0  0  0  0  0  0  0
   18.9483  -16.9181  -13.5248 C   0  0  0  0  0  0  0  0  0  0  0  0
   18.4320  -15.8111  -13.2524 O   0  0  0  0  0  0  0  0  0  0  0  0
   20.3504  -17.0857  -13.9277 C   0  0  0  0  0  0  0  0  0  0  0  0
   20.7212  -18.5169  -14.1513 C   0  0  2  0  0  0  0  0  0  0  0  0
   22.1345  -18.5473  -14.5178 N   0  0  0  0  0  0  0  0  0  0  0  0
   19.8936  -19.2296  -15.1298 C   0  0  0  0  0  0  0  0  0  0  0  0
   18.7160  -19.5756  -14.7587 O   0  0  0  0  0  0  0  0  0  0  0  0
   20.2386  -19.5749  -16.4191 O   0  0  0  0  0  0  0  0  0  0  0  0
  1  2  1  0
  2  3  1  0
  3  5  1  0
  3  4  1  1
  5  6  2  0
  7  5  1  0
  7  8  1  0
  8 15  1  0
  8  9  1  6
 10  9  1  0
 11 10  2  0
 12 13  1  0
 12 11  1  0
 13 14  2  0
 14 10  1  0
 15 16  2  0
 18 17  1  0
 19 18  2  0
 20 18  1  0
 21 20  1  6
 21 23  1  0
 22 21  1  0
 22 15  1  0
 23 25  1  0
 24 23  2  0
M  END
$$$$
