SHN.pdb
     RDKit          3D

 25 25  0  0  1  0  0  0  0  0999 V2000
   26.2615  -22.6652  -18.9841 O   0  0  0  0  0  0  0  0  0  0  0  0
   25.6276  -22.2822  -17.8238 C   0  0  0  0  0  0  0  0  0  0  0  0
   25.9846  -20.8711  -17.4895 C   0  0  2  0  0  0  0  0  0  0  0  0
   27.2736  -20.8201  -16.7677 N   0  0  0  0  0  0  0  0  0  0  0  0
   24.9684  -20.1758  -16.6783 C   0  0  0  0  0  0  0  0  0  0  0  0
   25.1302  -20.0674  -15.4159 O   0  0  0  0  0  0  0  0  0  0  0  0
   23.8143  -19.6170  -17.2462 N   0  0  0  0  0  0  0  0  0  0  0  0
   22.8843  -18.8837  -16.3706 C   0  0  1  0  0  0  0  0  0  0  0  0
   22.4045  -17.6293  -17.0720 C   0  0  0  0  0  0  0  0  0  0  0  0
   21.4302  -16.8983  -16.2390 C   0  0  0  0  0  0  0  0  0  0  0  0
   20.9488  -17.2368  -15.0003 C   0  0  0  0  0  0  0  0  0  0  0  0
   20.0653  -16.3027  -14.6026 N   0  0  0  0  0  0  0  0  0  0  0  0
   20.0011  -15.3873  -15.5958 C   0  0  0  0  0  0  0  0  0  0  0  0
   20.8222  -15.7339  -16.5943 N   0  0  0  0  0  0  0  0  0  0  0  0
   21.7966  -19.8147  -16.0207 C   0  0  0  0  0  0  0  0  0  0  0  0
   21.3320  -20.5300  -16.9427 O   0  0  0  0  0  0  0  0  0  0  0  0
   19.0583  -23.4476  -14.2663 N   0  0  0  0  0  0  0  0  0  0  0  0
   19.7532  -22.8701  -13.1440 C   0  0  0  0  0  0  0  0  0  0  0  0
   19.8912  -23.6237  -12.1544 O   0  0  0  0  0  0  0  0  0  0  0  0
   20.2518  -21.4896  -13.1920 C   0  0  0  0  0  0  0  0  0  0  0  0
   20.1026  -20.8672  -14.5435 C   0  0  2  0  0  0  0  0  0  0  0  0
   21.2364  -19.9667  -14.7344 N   0  0  0  0  0  0  0  0  0  0  0  0
   18.8256  -20.1858  -14.7783 C   0  0  0  0  0  0  0  0  0  0  0  0
   17.8845  -20.8742  -15.3120 O   0  0  0  0  0  0  0  0  0  0  0  0
   18.5149  -18.8745  -14.4880 O   0  0  0  0  0  0  0  0  0  0  0  0
  1  2  1  0
  2  3  1  0
  3  5  1  0
  3  4  1  1
  5  6  2  0
  7  5  1  0
  7  8  1  0
  8 15  1  0
  8  9  1  6
 10  9  1  0
 11 10  2  0
 12 13  1  0
 12 11  1  0
 13 14  2  0
 14 10  1  0
 15 16  2  0
 18 17  1  0
 19 18  2  0
 20 18  1  0
 21 20  1  1
 21 23  1  0
 22 21  1  0
 22 15  1  0
 23 25  1  0
 24 23  2  0
M  END
$$$$
