FEI.pdb
     RDKit          3D

 29 29  0  0  1  0  0  0  0  0999 V2000
   21.9599  -34.6690  -12.0868 N   0  0  0  0  0  0  0  0  0  0  0  0
   22.3458  -33.4688  -11.3749 C   0  0  1  0  0  0  0  0  0  0  0  0
   21.3216  -32.4034  -11.6420 C   0  0  0  0  0  0  0  0  0  0  0  0
   21.4968  -31.9406  -13.0337 C   0  0  0  0  0  0  0  0  0  0  0  0
   22.4916  -31.0520  -13.3349 C   0  0  0  0  0  0  0  0  0  0  0  0
   22.6312  -30.6347  -14.6557 C   0  0  0  0  0  0  0  0  0  0  0  0
   21.7828  -31.1122  -15.6244 C   0  0  0  0  0  0  0  0  0  0  0  0
   20.7871  -32.0056  -15.3053 C   0  0  0  0  0  0  0  0  0  0  0  0
   20.6547  -32.4123  -14.0049 C   0  0  0  0  0  0  0  0  0  0  0  0
   22.3715  -33.7902   -9.8904 C   0  0  0  0  0  0  0  0  0  0  0  0
   21.5786  -34.6471   -9.4344 O   0  0  0  0  0  0  0  0  0  0  0  0
   23.2771  -33.1332   -9.0295 N   0  0  0  0  0  0  0  0  0  0  0  0
   23.5003  -33.4108   -7.6355 C   0  0  1  0  0  0  0  0  0  0  0  0
   24.9215  -33.1801   -7.1538 C   0  0  0  0  0  0  0  0  0  0  0  0
   25.0986  -33.6619   -5.7609 C   0  0  0  0  0  0  0  0  0  0  0  0
   26.4782  -33.3959   -5.2450 C   0  0  0  0  0  0  0  0  0  0  0  0
   26.7670  -33.6768   -4.0569 O   0  0  0  0  0  0  0  0  0  0  0  0
   22.4608  -32.9588   -6.7273 C   0  0  0  0  0  0  0  0  0  0  0  0
   22.2874  -31.6976   -6.6007 O   0  0  0  0  0  0  0  0  0  0  0  0
   27.4330  -32.8428   -6.0717 O   0  0  0  0  0  0  0  0  0  0  0  0
   17.2581  -34.3638   -4.2826 C   0  0  0  0  0  0  0  0  0  0  0  0
   18.5347  -33.7734   -3.7203 C   0  0  0  0  0  0  0  0  0  0  0  0
   19.6835  -34.3306   -4.5343 C   0  0  2  0  0  0  0  0  0  0  0  0
   20.4239  -35.3543   -3.7348 C   0  0  0  0  0  0  0  0  0  0  0  0
   20.5707  -33.2407   -5.0858 C   0  0  2  0  0  0  0  0  0  0  0  0
   21.6051  -33.7719   -5.9552 N   0  0  0  0  0  0  0  0  0  0  0  0
   21.2426  -32.5948   -3.9304 C   0  0  0  0  0  0  0  0  0  0  0  0
   20.5984  -31.7976   -3.2318 O   0  0  0  0  0  0  0  0  0  0  0  0
   22.5639  -32.8546   -3.6095 O   0  0  0  0  0  0  0  0  0  0  0  0
  2  1  1  6
  2 10  1  0
  3  2  1  0
  4  3  1  0
  5  4  2  0
  6  5  1  0
  7  8  1  0
  7  6  2  0
  8  9  2  0
  9  4  1  0
 10 11  2  0
 12 10  1  0
 12 13  1  0
 13 14  1  1
 15 14  1  0
 16 20  1  0
 16 15  1  0
 17 16  2  0
 18 26  1  0
 18 13  1  0
 19 18  2  0
 21 22  1  0
 22 23  1  0
 23 25  1  0
 23 24  1  1
 25 27  1  0
 25 26  1  6
 27 29  1  0
 28 27  2  0
M  END
$$$$
