FEI.pdb
     RDKit          3D

 29 29  0  0  1  0  0  0  0  0999 V2000
   27.2701  -21.9549  -11.4544 N   0  0  0  0  0  0  0  0  0  0  0  0
   26.1809  -21.1483  -10.9452 C   0  0  1  0  0  0  0  0  0  0  0  0
   26.6876  -19.7546  -10.7075 C   0  0  0  0  0  0  0  0  0  0  0  0
   27.3559  -19.7305   -9.3904 C   0  0  0  0  0  0  0  0  0  0  0  0
   28.7118  -19.8890   -9.3126 C   0  0  0  0  0  0  0  0  0  0  0  0
   29.3123  -19.8615   -8.0569 C   0  0  0  0  0  0  0  0  0  0  0  0
   28.5490  -19.6786   -6.9301 C   0  0  0  0  0  0  0  0  0  0  0  0
   27.1861  -19.5207   -7.0251 C   0  0  0  0  0  0  0  0  0  0  0  0
   26.6013  -19.5486   -8.2625 C   0  0  0  0  0  0  0  0  0  0  0  0
   25.0852  -21.1195  -11.9970 C   0  0  0  0  0  0  0  0  0  0  0  0
   25.3978  -21.0082  -13.2057 O   0  0  0  0  0  0  0  0  0  0  0  0
   23.7278  -21.2168  -11.6220 N   0  0  0  0  0  0  0  0  0  0  0  0
   22.5855  -21.1885  -12.4964 C   0  0  1  0  0  0  0  0  0  0  0  0
   21.3284  -21.8263  -11.9325 C   0  0  0  0  0  0  0  0  0  0  0  0
   20.2112  -21.7589  -12.9076 C   0  0  0  0  0  0  0  0  0  0  0  0
   18.9680  -22.4074  -12.3842 C   0  0  0  0  0  0  0  0  0  0  0  0
   18.5026  -23.4219  -12.9570 O   0  0  0  0  0  0  0  0  0  0  0  0
   22.3751  -19.9469  -13.2204 C   0  0  0  0  0  0  0  0  0  0  0  0
   22.2965  -18.8665  -12.5397 O   0  0  0  0  0  0  0  0  0  0  0  0
   18.3323  -21.8932  -11.2741 O   0  0  0  0  0  0  0  0  0  0  0  0
   24.9205  -18.6143  -17.7399 C   0  0  0  0  0  0  0  0  0  0  0  0
   24.2879  -18.5414  -16.3656 C   0  0  0  0  0  0  0  0  0  0  0  0
   22.7928  -18.4104  -16.5661 C   0  0  2  0  0  0  0  0  0  0  0  0
   22.4898  -17.1633  -17.3331 C   0  0  0  0  0  0  0  0  0  0  0  0
   22.0332  -18.5166  -15.2657 C   0  0  2  0  0  0  0  0  0  0  0  0
   22.2458  -19.7980  -14.6169 N   0  0  0  0  0  0  0  0  0  0  0  0
   20.5886  -18.4117  -15.5911 C   0  0  0  0  0  0  0  0  0  0  0  0
   19.9840  -19.4274  -15.9670 O   0  0  0  0  0  0  0  0  0  0  0  0
   19.8972  -17.2170  -15.4881 O   0  0  0  0  0  0  0  0  0  0  0  0
  2  1  1  6
  2 10  1  0
  3  2  1  0
  4  3  1  0
  5  4  2  0
  6  5  1  0
  7  8  1  0
  7  6  2  0
  8  9  2  0
  9  4  1  0
 10 11  2  0
 12 10  1  0
 12 13  1  0
 13 14  1  1
 15 14  1  0
 16 20  1  0
 16 15  1  0
 17 16  2  0
 18 26  1  0
 18 13  1  0
 19 18  2  0
 21 22  1  0
 22 23  1  0
 23 25  1  0
 23 24  1  1
 25 27  1  0
 25 26  1  6
 27 29  1  0
 28 27  2  0
M  END
$$$$
