FEI.pdb
     RDKit          3D

 29 29  0  0  1  0  0  0  0  0999 V2000
   25.4377  -17.0092  -17.2426 N   0  0  0  0  0  0  0  0  0  0  0  0
   26.2003  -17.7176  -16.2361 C   0  0  1  0  0  0  0  0  0  0  0  0
   27.2037  -16.7714  -15.6416 C   0  0  0  0  0  0  0  0  0  0  0  0
   28.2487  -16.5188  -16.6546 C   0  0  0  0  0  0  0  0  0  0  0  0
   28.3536  -15.2828  -17.2300 C   0  0  0  0  0  0  0  0  0  0  0  0
   29.3486  -15.0759  -18.1814 C   0  0  0  0  0  0  0  0  0  0  0  0
   30.1988  -16.0981  -18.5253 C   0  0  0  0  0  0  0  0  0  0  0  0
   30.0803  -17.3357  -17.9374 C   0  0  0  0  0  0  0  0  0  0  0  0
   29.0999  -17.5332  -17.0025 C   0  0  0  0  0  0  0  0  0  0  0  0
   25.2372  -18.1827  -15.1572 C   0  0  0  0  0  0  0  0  0  0  0  0
   24.4569  -17.3540  -14.6326 O   0  0  0  0  0  0  0  0  0  0  0  0
   25.2177  -19.5332  -14.7465 N   0  0  0  0  0  0  0  0  0  0  0  0
   24.2855  -20.1467  -13.8384 C   0  0  1  0  0  0  0  0  0  0  0  0
   23.2269  -21.0156  -14.4938 C   0  0  0  0  0  0  0  0  0  0  0  0
   22.3107  -21.5974  -13.4811 C   0  0  0  0  0  0  0  0  0  0  0  0
   21.2419  -22.4379  -14.1065 C   0  0  0  0  0  0  0  0  0  0  0  0
   20.7145  -22.0781  -15.1865 O   0  0  0  0  0  0  0  0  0  0  0  0
   24.8564  -20.6869  -12.6169 C   0  0  0  0  0  0  0  0  0  0  0  0
   25.8826  -21.4437  -12.7228 O   0  0  0  0  0  0  0  0  0  0  0  0
   20.8349  -23.6069  -13.4993 O   0  0  0  0  0  0  0  0  0  0  0  0
   27.2098  -18.3172   -8.7631 C   0  0  0  0  0  0  0  0  0  0  0  0
   26.8019  -19.3984   -9.7423 C   0  0  0  0  0  0  0  0  0  0  0  0
   25.5655  -20.0689   -9.1812 C   0  0  2  0  0  0  0  0  0  0  0  0
   25.8583  -20.6205   -7.8227 C   0  0  0  0  0  0  0  0  0  0  0  0
   24.9901  -21.0891  -10.1337 C   0  0  2  0  0  0  0  0  0  0  0  0
   24.3961  -20.4651  -11.3023 N   0  0  0  0  0  0  0  0  0  0  0  0
   23.9107  -21.8062   -9.4095 C   0  0  0  0  0  0  0  0  0  0  0  0
   22.7364  -21.4404   -9.5697 O   0  0  0  0  0  0  0  0  0  0  0  0
   24.1745  -22.8688   -8.5624 O   0  0  0  0  0  0  0  0  0  0  0  0
  2  1  1  6
  2 10  1  0
  3  2  1  0
  4  3  1  0
  5  4  2  0
  6  5  1  0
  7  8  1  0
  7  6  2  0
  8  9  2  0
  9  4  1  0
 10 11  2  0
 12 10  1  0
 12 13  1  0
 13 14  1  6
 15 14  1  0
 16 20  1  0
 16 15  1  0
 17 16  2  0
 18 26  1  0
 18 13  1  0
 19 18  2  0
 21 22  1  0
 22 23  1  0
 23 25  1  0
 23 24  1  1
 25 27  1  0
 25 26  1  6
 27 29  1  0
 28 27  2  0
M  END
$$$$
