FEI.pdb
     RDKit          3D

 29 29  0  0  1  0  0  0  0  0999 V2000
   24.0722  -12.8870  -17.5660 N   0  0  0  0  0  0  0  0  0  0  0  0
   24.3313  -11.7655  -16.6877 C   0  0  1  0  0  0  0  0  0  0  0  0
   25.6277  -11.1268  -17.0965 C   0  0  0  0  0  0  0  0  0  0  0  0
   26.7188  -12.0760  -16.7959 C   0  0  0  0  0  0  0  0  0  0  0  0
   27.2092  -12.1676  -15.5227 C   0  0  0  0  0  0  0  0  0  0  0  0
   28.2376  -13.0716  -15.2710 C   0  0  0  0  0  0  0  0  0  0  0  0
   28.7392  -13.8476  -16.2870 C   0  0  0  0  0  0  0  0  0  0  0  0
   28.2351  -13.7436  -17.5624 C   0  0  0  0  0  0  0  0  0  0  0  0
   27.2239  -12.8530  -17.8037 C   0  0  0  0  0  0  0  0  0  0  0  0
   23.1977  -10.7677  -16.8519 C   0  0  0  0  0  0  0  0  0  0  0  0
   22.5837  -10.7108  -17.9431 O   0  0  0  0  0  0  0  0  0  0  0  0
   22.8360   -9.9113  -15.7895 N   0  0  0  0  0  0  0  0  0  0  0  0
   21.7593   -8.9570  -15.7772 C   0  0  1  0  0  0  0  0  0  0  0  0
   21.0788   -8.7731  -14.4325 C   0  0  0  0  0  0  0  0  0  0  0  0
   19.8810   -7.9048  -14.5538 C   0  0  0  0  0  0  0  0  0  0  0  0
   19.1459   -7.7761  -13.2565 C   0  0  0  0  0  0  0  0  0  0  0  0
   18.1192   -7.0585  -13.1874 O   0  0  0  0  0  0  0  0  0  0  0  0
   21.9926   -7.7322  -16.5224 C   0  0  0  0  0  0  0  0  0  0  0  0
   23.0626   -7.0771  -16.2718 O   0  0  0  0  0  0  0  0  0  0  0  0
   19.5937   -8.4441  -12.1366 O   0  0  0  0  0  0  0  0  0  0  0  0
   20.5639   -4.8165  -21.7535 C   0  0  0  0  0  0  0  0  0  0  0  0
   21.1848   -4.6834  -20.3784 C   0  0  0  0  0  0  0  0  0  0  0  0
   20.8238   -5.9312  -19.6002 C   0  0  2  0  0  0  0  0  0  0  0  0
   19.3376   -6.0866  -19.5491 C   0  0  0  0  0  0  0  0  0  0  0  0
   21.4793   -5.9630  -18.2406 C   0  0  2  0  0  0  0  0  0  0  0  0
   21.1544   -7.1750  -17.5103 N   0  0  0  0  0  0  0  0  0  0  0  0
   20.9427   -4.8148  -17.4676 C   0  0  0  0  0  0  0  0  0  0  0  0
   21.3804   -3.6781  -17.7017 O   0  0  0  0  0  0  0  0  0  0  0  0
   19.9706   -4.9740  -16.4951 O   0  0  0  0  0  0  0  0  0  0  0  0
  2  1  1  6
  2 10  1  0
  3  2  1  0
  4  3  1  0
  5  4  2  0
  6  5  1  0
  7  8  1  0
  7  6  2  0
  8  9  2  0
  9  4  1  0
 10 11  2  0
 12 10  1  0
 12 13  1  0
 13 14  1  1
 15 14  1  0
 16 20  1  0
 16 15  1  0
 17 16  2  0
 18 26  1  0
 18 13  1  0
 19 18  2  0
 21 22  1  0
 22 23  1  0
 23 25  1  0
 23 24  1  1
 25 27  1  0
 25 26  1  1
 27 29  1  0
 28 27  2  0
M  END
$$$$
