FEI.pdb
     RDKit          3D

 29 29  0  0  1  0  0  0  0  0999 V2000
   27.3478  -20.4439  -17.3565 N   0  0  0  0  0  0  0  0  0  0  0  0
   27.8217  -20.7787  -16.0300 C   0  0  1  0  0  0  0  0  0  0  0  0
   29.0750  -19.9973  -15.7578 C   0  0  0  0  0  0  0  0  0  0  0  0
   29.5586  -20.3648  -14.4114 C   0  0  0  0  0  0  0  0  0  0  0  0
   29.2669  -19.5642  -13.3419 C   0  0  0  0  0  0  0  0  0  0  0  0
   29.7368  -19.9375  -12.0857 C   0  0  0  0  0  0  0  0  0  0  0  0
   30.4754  -21.0858  -11.9377 C   0  0  0  0  0  0  0  0  0  0  0  0
   30.7603  -21.8804  -13.0234 C   0  0  0  0  0  0  0  0  0  0  0  0
   30.2955  -21.5083  -14.2561 C   0  0  0  0  0  0  0  0  0  0  0  0
   26.7471  -20.3818  -15.0324 C   0  0  0  0  0  0  0  0  0  0  0  0
   26.2832  -19.2178  -15.0611 O   0  0  0  0  0  0  0  0  0  0  0  0
   26.2726  -21.3107  -14.0811 N   0  0  0  0  0  0  0  0  0  0  0  0
   25.2215  -21.1034  -13.1208 C   0  0  1  0  0  0  0  0  0  0  0  0
   23.8409  -21.5437  -13.5740 C   0  0  0  0  0  0  0  0  0  0  0  0
   22.8122  -21.2072  -12.5581 C   0  0  0  0  0  0  0  0  0  0  0  0
   21.8583  -20.1630  -13.0480 C   0  0  0  0  0  0  0  0  0  0  0  0
   21.3515  -20.2654  -14.1910 O   0  0  0  0  0  0  0  0  0  0  0  0
   25.5509  -21.4287  -11.7440 C   0  0  0  0  0  0  0  0  0  0  0  0
   25.8858  -22.6351  -11.4807 O   0  0  0  0  0  0  0  0  0  0  0  0
   21.5348  -19.0886  -12.2468 O   0  0  0  0  0  0  0  0  0  0  0  0
   27.9665  -19.4143   -6.5496 C   0  0  0  0  0  0  0  0  0  0  0  0
   26.9680  -20.3967   -7.1263 C   0  0  0  0  0  0  0  0  0  0  0  0
   26.7040  -19.9800   -8.5579 C   0  0  2  0  0  0  0  0  0  0  0  0
   26.1886  -18.5769   -8.5924 C   0  0  0  0  0  0  0  0  0  0  0  0
   25.8181  -20.9645   -9.2825 C   0  0  2  0  0  0  0  0  0  0  0  0
   25.5424  -20.5450  -10.6448 N   0  0  0  0  0  0  0  0  0  0  0  0
   24.5246  -21.0090   -8.5553 C   0  0  0  0  0  0  0  0  0  0  0  0
   23.5636  -20.3648   -9.0026 O   0  0  0  0  0  0  0  0  0  0  0  0
   24.3588  -21.7461   -7.3955 O   0  0  0  0  0  0  0  0  0  0  0  0
  2  1  1  6
  2 10  1  0
  3  2  1  0
  4  3  1  0
  5  4  2  0
  6  5  1  0
  7  8  1  0
  7  6  2  0
  8  9  2  0
  9  4  1  0
 10 11  2  0
 12 10  1  0
 12 13  1  0
 13 14  1  6
 15 14  1  0
 16 20  1  0
 16 15  1  0
 17 16  2  0
 18 26  1  0
 18 13  1  0
 19 18  2  0
 21 22  1  0
 22 23  1  0
 23 25  1  0
 23 24  1  1
 25 27  1  0
 25 26  1  6
 27 29  1  0
 28 27  2  0
M  END
$$$$
