FEI.pdb
     RDKit          3D

 29 29  0  0  1  0  0  0  0  0999 V2000
   25.4568  -11.4551  -18.5326 N   0  0  0  0  0  0  0  0  0  0  0  0
   24.9098  -11.1857  -17.2194 C   0  0  1  0  0  0  0  0  0  0  0  0
   26.0246  -10.7355  -16.3194 C   0  0  0  0  0  0  0  0  0  0  0  0
   26.9259  -11.8850  -16.0994 C   0  0  0  0  0  0  0  0  0  0  0  0
   28.1528  -11.9125  -16.7025 C   0  0  0  0  0  0  0  0  0  0  0  0
   28.9794  -13.0095  -16.4757 C   0  0  0  0  0  0  0  0  0  0  0  0
   28.5603  -14.0338  -15.6626 C   0  0  0  0  0  0  0  0  0  0  0  0
   27.3232  -13.9912  -15.0632 C   0  0  0  0  0  0  0  0  0  0  0  0
   26.5148  -12.9100  -15.2900 C   0  0  0  0  0  0  0  0  0  0  0  0
   23.8846  -10.0730  -17.3561 C   0  0  0  0  0  0  0  0  0  0  0  0
   24.0021   -9.2415  -18.2865 O   0  0  0  0  0  0  0  0  0  0  0  0
   22.8091   -9.9726  -16.4472 N   0  0  0  0  0  0  0  0  0  0  0  0
   21.7321   -9.0193  -16.4849 C   0  0  1  0  0  0  0  0  0  0  0  0
   20.3407   -9.6236  -16.5479 C   0  0  0  0  0  0  0  0  0  0  0  0
   20.1010  -10.5341  -15.4002 C   0  0  0  0  0  0  0  0  0  0  0  0
   18.7543  -11.1837  -15.4694 C   0  0  0  0  0  0  0  0  0  0  0  0
   18.3387  -11.6482  -16.5582 O   0  0  0  0  0  0  0  0  0  0  0  0
   21.8684   -7.8773  -15.5977 C   0  0  0  0  0  0  0  0  0  0  0  0
   22.3782   -8.0786  -14.4416 O   0  0  0  0  0  0  0  0  0  0  0  0
   17.9688  -11.2731  -14.3399 O   0  0  0  0  0  0  0  0  0  0  0  0
   23.7320   -3.1470  -17.2384 C   0  0  0  0  0  0  0  0  0  0  0  0
   23.3744   -4.4595  -16.5724 C   0  0  0  0  0  0  0  0  0  0  0  0
   22.1813   -4.1982  -15.6773 C   0  0  2  0  0  0  0  0  0  0  0  0
   22.4743   -3.0542  -14.7603 C   0  0  0  0  0  0  0  0  0  0  0  0
   21.7264   -5.4450  -14.9577 C   0  0  2  0  0  0  0  0  0  0  0  0
   21.4941   -6.5461  -15.8750 N   0  0  0  0  0  0  0  0  0  0  0  0
   20.4335   -5.1262  -14.3015 C   0  0  0  0  0  0  0  0  0  0  0  0
   19.3802   -5.3207  -14.9272 O   0  0  0  0  0  0  0  0  0  0  0  0
   20.3677   -4.6195  -13.0151 O   0  0  0  0  0  0  0  0  0  0  0  0
  2  1  1  6
  2 10  1  0
  3  2  1  0
  4  3  1  0
  5  4  2  0
  6  5  1  0
  7  8  1  0
  7  6  2  0
  8  9  2  0
  9  4  1  0
 10 11  2  0
 12 10  1  0
 12 13  1  0
 13 14  1  1
 15 14  1  0
 16 20  1  0
 16 15  1  0
 17 16  2  0
 18 26  1  0
 18 13  1  0
 19 18  2  0
 21 22  1  0
 22 23  1  0
 23 25  1  0
 23 24  1  1
 25 27  1  0
 25 26  1  6
 27 29  1  0
 28 27  2  0
M  END
$$$$
