FEI.pdb
     RDKit          3D

 29 29  0  0  1  0  0  0  0  0999 V2000
   28.6991  -20.8599   -8.9853 N   0  0  0  0  0  0  0  0  0  0  0  0
   27.2680  -20.7079   -8.8273 C   0  0  1  0  0  0  0  0  0  0  0  0
   27.0012  -19.4308   -8.0835 C   0  0  0  0  0  0  0  0  0  0  0  0
   27.5814  -19.5605   -6.7313 C   0  0  0  0  0  0  0  0  0  0  0  0
   27.2361  -20.6224   -5.9421 C   0  0  0  0  0  0  0  0  0  0  0  0
   27.7997  -20.7168   -4.6726 C   0  0  0  0  0  0  0  0  0  0  0  0
   28.6809  -19.7587   -4.2351 C   0  0  0  0  0  0  0  0  0  0  0  0
   29.0181  -18.6965   -5.0410 C   0  0  0  0  0  0  0  0  0  0  0  0
   28.4607  -18.6091   -6.2883 C   0  0  0  0  0  0  0  0  0  0  0  0
   26.6475  -20.6303  -10.2118 C   0  0  0  0  0  0  0  0  0  0  0  0
   27.0426  -19.7509  -11.0127 O   0  0  0  0  0  0  0  0  0  0  0  0
   25.6362  -21.5369  -10.5967 N   0  0  0  0  0  0  0  0  0  0  0  0
   25.0091  -21.6345  -11.8880 C   0  0  1  0  0  0  0  0  0  0  0  0
   25.0427  -23.0165  -12.5159 C   0  0  0  0  0  0  0  0  0  0  0  0
   24.4857  -22.9921  -13.8917 C   0  0  0  0  0  0  0  0  0  0  0  0
   24.5754  -24.3291  -14.5585 C   0  0  0  0  0  0  0  0  0  0  0  0
   24.1196  -24.4825  -15.7171 O   0  0  0  0  0  0  0  0  0  0  0  0
   23.7525  -20.9212  -12.0353 C   0  0  0  0  0  0  0  0  0  0  0  0
   23.0198  -20.7842  -10.9954 O   0  0  0  0  0  0  0  0  0  0  0  0
   25.1578  -25.3932  -13.9030 O   0  0  0  0  0  0  0  0  0  0  0  0
   20.7129  -17.0076  -15.7307 C   0  0  0  0  0  0  0  0  0  0  0  0
   20.6466  -17.8961  -14.5058 C   0  0  0  0  0  0  0  0  0  0  0  0
   21.8899  -18.7606  -14.5106 C   0  0  2  0  0  0  0  0  0  0  0  0
   21.9688  -19.5308  -15.7897 C   0  0  0  0  0  0  0  0  0  0  0  0
   21.9838  -19.6284  -13.2789 C   0  0  2  0  0  0  0  0  0  0  0  0
   23.2411  -20.3519  -13.2201 N   0  0  0  0  0  0  0  0  0  0  0  0
   20.8920  -20.6307  -13.3636 C   0  0  0  0  0  0  0  0  0  0  0  0
   21.1295  -21.7329  -13.8806 O   0  0  0  0  0  0  0  0  0  0  0  0
   19.6192  -20.3731  -12.8842 O   0  0  0  0  0  0  0  0  0  0  0  0
  2  1  1  6
  2 10  1  0
  3  2  1  0
  4  3  1  0
  5  4  2  0
  6  5  1  0
  7  8  1  0
  7  6  2  0
  8  9  2  0
  9  4  1  0
 10 11  2  0
 12 10  1  0
 12 13  1  0
 13 14  1  1
 15 14  1  0
 16 20  1  0
 16 15  1  0
 17 16  2  0
 18 26  1  0
 18 13  1  0
 19 18  2  0
 21 22  1  0
 22 23  1  0
 23 25  1  0
 23 24  1  6
 25 27  1  0
 25 26  1  6
 27 29  1  0
 28 27  2  0
M  END
$$$$
