FEI.pdb
     RDKit          3D

 29 29  0  0  1  0  0  0  0  0999 V2000
   23.9163   -8.0276  -16.1216 N   0  0  0  0  0  0  0  0  0  0  0  0
   22.7511   -8.7302  -15.6268 C   0  0  1  0  0  0  0  0  0  0  0  0
   23.1784   -9.6396  -14.5106 C   0  0  0  0  0  0  0  0  0  0  0  0
   23.9923  -10.7259  -15.0932 C   0  0  0  0  0  0  0  0  0  0  0  0
   23.4128  -11.6322  -15.9374 C   0  0  0  0  0  0  0  0  0  0  0  0
   24.2062  -12.6444  -16.4704 C   0  0  0  0  0  0  0  0  0  0  0  0
   25.5389  -12.7197  -16.1477 C   0  0  0  0  0  0  0  0  0  0  0  0
   26.1069  -11.8004  -15.2970 C   0  0  0  0  0  0  0  0  0  0  0  0
   25.3217  -10.8074  -14.7761 C   0  0  0  0  0  0  0  0  0  0  0  0
   21.7700   -7.6987  -15.0963 C   0  0  0  0  0  0  0  0  0  0  0  0
   22.1490   -6.8843  -14.2222 O   0  0  0  0  0  0  0  0  0  0  0  0
   20.4444   -7.6542  -15.5796 N   0  0  0  0  0  0  0  0  0  0  0  0
   19.4072   -6.7430  -15.1745 C   0  0  1  0  0  0  0  0  0  0  0  0
   19.1254   -5.6149  -16.1508 C   0  0  0  0  0  0  0  0  0  0  0  0
   18.1074   -4.6804  -15.6084 C   0  0  0  0  0  0  0  0  0  0  0  0
   16.9096   -4.5747  -16.4996 C   0  0  0  0  0  0  0  0  0  0  0  0
   17.0488   -4.6338  -17.7449 O   0  0  0  0  0  0  0  0  0  0  0  0
   18.2302   -7.3506  -14.5785 C   0  0  0  0  0  0  0  0  0  0  0  0
   17.7346   -8.3798  -15.1549 O   0  0  0  0  0  0  0  0  0  0  0  0
   15.6530   -4.4125  -15.9558 O   0  0  0  0  0  0  0  0  0  0  0  0
   15.7224   -9.4455   -9.6449 C   0  0  0  0  0  0  0  0  0  0  0  0
   15.3384   -8.7492  -10.9341 C   0  0  0  0  0  0  0  0  0  0  0  0
   16.6103   -8.1962  -11.5417 C   0  0  2  0  0  0  0  0  0  0  0  0
   17.2792   -7.2760  -10.5714 C   0  0  0  0  0  0  0  0  0  0  0  0
   16.3694   -7.5720  -12.8950 C   0  0  2  0  0  0  0  0  0  0  0  0
   17.5608   -6.9238  -13.4128 N   0  0  0  0  0  0  0  0  0  0  0  0
   15.3301   -6.5269  -12.7176 C   0  0  0  0  0  0  0  0  0  0  0  0
   14.1489   -6.8756  -12.5703 O   0  0  0  0  0  0  0  0  0  0  0  0
   15.6386   -5.1775  -12.7117 O   0  0  0  0  0  0  0  0  0  0  0  0
  2  1  1  1
  2 10  1  0
  3  2  1  0
  4  3  1  0
  5  4  2  0
  6  5  1  0
  7  8  1  0
  7  6  2  0
  8  9  2  0
  9  4  1  0
 10 11  2  0
 12 10  1  0
 12 13  1  0
 13 14  1  6
 15 14  1  0
 16 20  1  0
 16 15  1  0
 17 16  2  0
 18 26  1  0
 18 13  1  0
 19 18  2  0
 21 22  1  0
 22 23  1  0
 23 25  1  0
 23 24  1  1
 25 27  1  0
 25 26  1  1
 27 29  1  0
 28 27  2  0
M  END
$$$$
