FEI.pdb
     RDKit          3D

 29 29  0  0  1  0  0  0  0  0999 V2000
   23.3008  -16.5458  -18.1637 N   0  0  0  0  0  0  0  0  0  0  0  0
   24.2054  -16.3166  -17.0568 C   0  0  1  0  0  0  0  0  0  0  0  0
   23.5189  -15.4369  -16.0516 C   0  0  0  0  0  0  0  0  0  0  0  0
   23.4889  -14.0628  -16.5928 C   0  0  0  0  0  0  0  0  0  0  0  0
   24.6305  -13.3101  -16.6016 C   0  0  0  0  0  0  0  0  0  0  0  0
   24.5701  -12.0188  -17.1183 C   0  0  0  0  0  0  0  0  0  0  0  0
   23.3849  -11.5242  -17.6048 C   0  0  0  0  0  0  0  0  0  0  0  0
   22.2453  -12.2939  -17.5888 C   0  0  0  0  0  0  0  0  0  0  0  0
   22.3109  -13.5629  -17.0796 C   0  0  0  0  0  0  0  0  0  0  0  0
   24.5246  -17.6602  -16.4240 C   0  0  0  0  0  0  0  0  0  0  0  0
   23.6151  -18.5145  -16.3064 O   0  0  0  0  0  0  0  0  0  0  0  0
   25.8305  -17.9483  -15.9717 N   0  0  0  0  0  0  0  0  0  0  0  0
   26.3174  -19.2119  -15.4855 C   0  0  1  0  0  0  0  0  0  0  0  0
   27.2868  -19.9260  -16.4104 C   0  0  0  0  0  0  0  0  0  0  0  0
   27.6558  -21.2592  -15.8717 C   0  0  0  0  0  0  0  0  0  0  0  0
   28.6579  -21.9575  -16.7368 C   0  0  0  0  0  0  0  0  0  0  0  0
   29.0835  -21.3999  -17.7768 O   0  0  0  0  0  0  0  0  0  0  0  0
   26.6657  -19.2543  -14.0760 C   0  0  0  0  0  0  0  0  0  0  0  0
   27.4689  -18.3620  -13.6338 O   0  0  0  0  0  0  0  0  0  0  0  0
   29.1149  -23.2124  -16.3940 O   0  0  0  0  0  0  0  0  0  0  0  0
   24.9283  -20.1631   -8.4011 C   0  0  0  0  0  0  0  0  0  0  0  0
   26.1147  -20.3299   -9.3281 C   0  0  0  0  0  0  0  0  0  0  0  0
   25.5988  -20.1971  -10.7455 C   0  0  2  0  0  0  0  0  0  0  0  0
   24.5183  -21.2012  -10.9897 C   0  0  0  0  0  0  0  0  0  0  0  0
   26.7125  -20.2520  -11.7633 C   0  0  2  0  0  0  0  0  0  0  0  0
   26.2077  -20.1878  -13.1231 N   0  0  0  0  0  0  0  0  0  0  0  0
   27.3942  -21.5603  -11.5981 C   0  0  0  0  0  0  0  0  0  0  0  0
   26.9746  -22.5389  -12.2345 O   0  0  0  0  0  0  0  0  0  0  0  0
   28.4818  -21.7211  -10.7571 O   0  0  0  0  0  0  0  0  0  0  0  0
  2  1  1  6
  2 10  1  0
  3  2  1  0
  4  3  1  0
  5  4  2  0
  6  5  1  0
  7  8  1  0
  7  6  2  0
  8  9  2  0
  9  4  1  0
 10 11  2  0
 12 10  1  0
 12 13  1  0
 13 14  1  6
 15 14  1  0
 16 20  1  0
 16 15  1  0
 17 16  2  0
 18 26  1  0
 18 13  1  0
 19 18  2  0
 21 22  1  0
 22 23  1  0
 23 25  1  0
 23 24  1  6
 25 27  1  0
 25 26  1  6
 27 29  1  0
 28 27  2  0
M  END
$$$$
