FEI.pdb
     RDKit          3D

 29 29  0  0  1  0  0  0  0  0999 V2000
   28.5766  -20.8907   -8.7994 N   0  0  0  0  0  0  0  0  0  0  0  0
   27.1449  -20.6846   -8.7362 C   0  0  1  0  0  0  0  0  0  0  0  0
   26.8783  -19.3930   -8.0177 C   0  0  0  0  0  0  0  0  0  0  0  0
   27.3676  -19.5327   -6.6310 C   0  0  0  0  0  0  0  0  0  0  0  0
   28.4877  -18.8566   -6.2336 C   0  0  0  0  0  0  0  0  0  0  0  0
   28.9239  -19.0088   -4.9203 C   0  0  0  0  0  0  0  0  0  0  0  0
   28.2358  -19.8223   -4.0539 C   0  0  0  0  0  0  0  0  0  0  0  0
   27.1108  -20.4957   -4.4690 C   0  0  0  0  0  0  0  0  0  0  0  0
   26.6867  -20.3421   -5.7615 C   0  0  0  0  0  0  0  0  0  0  0  0
   26.6194  -20.5942  -10.1586 C   0  0  0  0  0  0  0  0  0  0  0  0
   27.2291  -19.8863  -10.9941 O   0  0  0  0  0  0  0  0  0  0  0  0
   25.4569  -21.2983  -10.5402 N   0  0  0  0  0  0  0  0  0  0  0  0
   24.8631  -21.3404  -11.8501 C   0  0  1  0  0  0  0  0  0  0  0  0
   25.1210  -22.6160  -12.6321 C   0  0  0  0  0  0  0  0  0  0  0  0
   24.6290  -22.4964  -14.0275 C   0  0  0  0  0  0  0  0  0  0  0  0
   25.7326  -22.1806  -14.9878 C   0  0  0  0  0  0  0  0  0  0  0  0
   25.4691  -21.6368  -16.0872 O   0  0  0  0  0  0  0  0  0  0  0  0
   23.5100  -20.8211  -11.9471 C   0  0  0  0  0  0  0  0  0  0  0  0
   22.7730  -20.8804  -10.9029 O   0  0  0  0  0  0  0  0  0  0  0  0
   27.0386  -22.4856  -14.6679 O   0  0  0  0  0  0  0  0  0  0  0  0
   21.7533  -16.7731  -15.5398 C   0  0  0  0  0  0  0  0  0  0  0  0
   21.8674  -17.4288  -14.1791 C   0  0  0  0  0  0  0  0  0  0  0  0
   21.3185  -18.8339  -14.3106 C   0  0  2  0  0  0  0  0  0  0  0  0
   19.8761  -18.7820  -14.7008 C   0  0  0  0  0  0  0  0  0  0  0  0
   21.5785  -19.6637  -13.0765 C   0  0  2  0  0  0  0  0  0  0  0  0
   22.9076  -20.2479  -13.0862 N   0  0  0  0  0  0  0  0  0  0  0  0
   20.5976  -20.7780  -13.0819 C   0  0  0  0  0  0  0  0  0  0  0  0
   20.8735  -21.8158  -13.7028 O   0  0  0  0  0  0  0  0  0  0  0  0
   19.3868  -20.6942  -12.4164 O   0  0  0  0  0  0  0  0  0  0  0  0
  2  1  1  6
  2 10  1  0
  3  2  1  0
  4  3  1  0
  5  4  2  0
  6  5  1  0
  7  8  1  0
  7  6  2  0
  8  9  2  0
  9  4  1  0
 10 11  2  0
 12 10  1  0
 12 13  1  0
 13 14  1  1
 15 14  1  0
 16 20  1  0
 16 15  1  0
 17 16  2  0
 18 26  1  0
 18 13  1  0
 19 18  2  0
 21 22  1  0
 22 23  1  0
 23 25  1  0
 23 24  1  1
 25 27  1  0
 25 26  1  6
 27 29  1  0
 28 27  2  0
M  END
$$$$
