FEI.pdb
     RDKit          3D

 29 29  0  0  1  0  0  0  0  0999 V2000
   25.2298  -18.2099  -15.8910 N   0  0  0  0  0  0  0  0  0  0  0  0
   26.2625  -18.4171  -14.8976 C   0  0  1  0  0  0  0  0  0  0  0  0
   26.7502  -17.0768  -14.4271 C   0  0  0  0  0  0  0  0  0  0  0  0
   27.3781  -16.3911  -15.5749 C   0  0  0  0  0  0  0  0  0  0  0  0
   26.9162  -15.1667  -15.9715 C   0  0  0  0  0  0  0  0  0  0  0  0
   27.5287  -14.5459  -17.0566 C   0  0  0  0  0  0  0  0  0  0  0  0
   28.5720  -15.1598  -17.7052 C   0  0  0  0  0  0  0  0  0  0  0  0
   29.0250  -16.3915  -17.2941 C   0  0  0  0  0  0  0  0  0  0  0  0
   28.4188  -16.9971  -16.2265 C   0  0  0  0  0  0  0  0  0  0  0  0
   25.6489  -19.1738  -13.7319 C   0  0  0  0  0  0  0  0  0  0  0  0
   24.5983  -18.7399  -13.2038 O   0  0  0  0  0  0  0  0  0  0  0  0
   26.2520  -20.3537  -13.2452 N   0  0  0  0  0  0  0  0  0  0  0  0
   25.7652  -21.2005  -12.1888 C   0  0  1  0  0  0  0  0  0  0  0  0
   25.4629  -22.6307  -12.5992 C   0  0  0  0  0  0  0  0  0  0  0  0
   24.4195  -22.6749  -13.6541 C   0  0  0  0  0  0  0  0  0  0  0  0
   24.0971  -24.0767  -14.0678 C   0  0  0  0  0  0  0  0  0  0  0  0
   24.6699  -25.0420  -13.5076 O   0  0  0  0  0  0  0  0  0  0  0  0
   26.4303  -21.0550  -10.9057 C   0  0  0  0  0  0  0  0  0  0  0  0
   27.6682  -21.3709  -10.8372 O   0  0  0  0  0  0  0  0  0  0  0  0
   23.1720  -24.3105  -15.0631 O   0  0  0  0  0  0  0  0  0  0  0  0
   28.5852  -18.8895   -6.0242 C   0  0  0  0  0  0  0  0  0  0  0  0
   27.7648  -20.0851   -6.4620 C   0  0  0  0  0  0  0  0  0  0  0  0
   27.1821  -19.7565   -7.8205 C   0  0  2  0  0  0  0  0  0  0  0  0
   26.4116  -18.4772   -7.7474 C   0  0  0  0  0  0  0  0  0  0  0  0
   26.3872  -20.9060   -8.3913 C   0  0  2  0  0  0  0  0  0  0  0  0
   25.8515  -20.5953   -9.7045 N   0  0  0  0  0  0  0  0  0  0  0  0
   25.2382  -21.1402   -7.4810 C   0  0  0  0  0  0  0  0  0  0  0  0
   25.4610  -21.3800   -6.2846 O   0  0  0  0  0  0  0  0  0  0  0  0
   23.9281  -21.0992   -7.9259 O   0  0  0  0  0  0  0  0  0  0  0  0
  2  1  1  6
  2 10  1  0
  3  2  1  0
  4  3  1  0
  5  4  2  0
  6  5  1  0
  7  8  1  0
  7  6  2  0
  8  9  2  0
  9  4  1  0
 10 11  2  0
 12 10  1  0
 12 13  1  0
 13 14  1  6
 15 14  1  0
 16 20  1  0
 16 15  1  0
 17 16  2  0
 18 26  1  0
 18 13  1  0
 19 18  2  0
 21 22  1  0
 22 23  1  0
 23 25  1  0
 23 24  1  1
 25 27  1  0
 25 26  1  6
 27 29  1  0
 28 27  2  0
M  END
$$$$
