FEI.pdb
     RDKit          3D

 29 29  0  0  1  0  0  0  0  0999 V2000
   28.6214  -21.1684   -8.7518 N   0  0  0  0  0  0  0  0  0  0  0  0
   27.2324  -20.7603   -8.7716 C   0  0  1  0  0  0  0  0  0  0  0  0
   27.1184  -19.4171   -8.1095 C   0  0  0  0  0  0  0  0  0  0  0  0
   27.5253  -19.5683   -6.6976 C   0  0  0  0  0  0  0  0  0  0  0  0
   26.7026  -20.2161   -5.8183 C   0  0  0  0  0  0  0  0  0  0  0  0
   27.1141  -20.3425   -4.4943 C   0  0  0  0  0  0  0  0  0  0  0  0
   28.3209  -19.8238   -4.0936 C   0  0  0  0  0  0  0  0  0  0  0  0
   29.1371  -19.1748   -4.9903 C   0  0  0  0  0  0  0  0  0  0  0  0
   28.7271  -19.0537   -6.2908 C   0  0  0  0  0  0  0  0  0  0  0  0
   26.7945  -20.6521  -10.2222 C   0  0  0  0  0  0  0  0  0  0  0  0
   27.6489  -20.3992  -11.1037 O   0  0  0  0  0  0  0  0  0  0  0  0
   25.4407  -20.8337  -10.5785 N   0  0  0  0  0  0  0  0  0  0  0  0
   24.9305  -21.2171  -11.8681 C   0  0  1  0  0  0  0  0  0  0  0  0
   25.5730  -22.4532  -12.4718 C   0  0  0  0  0  0  0  0  0  0  0  0
   25.1384  -22.6490  -13.8777 C   0  0  0  0  0  0  0  0  0  0  0  0
   25.9634  -21.8503  -14.8377 C   0  0  0  0  0  0  0  0  0  0  0  0
   25.4096  -21.0232  -15.6012 O   0  0  0  0  0  0  0  0  0  0  0  0
   23.4895  -21.1310  -12.0282 C   0  0  0  0  0  0  0  0  0  0  0  0
   22.7568  -21.6244  -11.1026 O   0  0  0  0  0  0  0  0  0  0  0  0
   27.3307  -22.0210  -14.8857 O   0  0  0  0  0  0  0  0  0  0  0  0
   21.6786  -17.1173  -15.3962 C   0  0  0  0  0  0  0  0  0  0  0  0
   22.0310  -17.9336  -14.1699 C   0  0  0  0  0  0  0  0  0  0  0  0
   21.0865  -19.1166  -14.1315 C   0  0  2  0  0  0  0  0  0  0  0  0
   19.6712  -18.6362  -14.0926 C   0  0  0  0  0  0  0  0  0  0  0  0
   21.4260  -20.0794  -13.0193 C   0  0  2  0  0  0  0  0  0  0  0  0
   22.7955  -20.5526  -13.1113 N   0  0  0  0  0  0  0  0  0  0  0  0
   20.5330  -21.2557  -13.1691 C   0  0  0  0  0  0  0  0  0  0  0  0
   20.8030  -22.1071  -14.0298 O   0  0  0  0  0  0  0  0  0  0  0  0
   19.4101  -21.4310  -12.3788 O   0  0  0  0  0  0  0  0  0  0  0  0
  2  1  1  6
  2 10  1  0
  3  2  1  0
  4  3  1  0
  5  4  2  0
  6  5  1  0
  7  8  1  0
  7  6  2  0
  8  9  2  0
  9  4  1  0
 10 11  2  0
 12 10  1  0
 12 13  1  0
 13 14  1  1
 15 14  1  0
 16 20  1  0
 16 15  1  0
 17 16  2  0
 18 26  1  0
 18 13  1  0
 19 18  2  0
 21 22  1  0
 22 23  1  0
 23 25  1  0
 23 24  1  1
 25 27  1  0
 25 26  1  6
 27 29  1  0
 28 27  2  0
M  END
$$$$
