FEI.pdb
     RDKit          3D

 29 29  0  0  1  0  0  0  0  0999 V2000
   26.4120  -18.5713  -18.4675 N   0  0  0  0  0  0  0  0  0  0  0  0
   26.5222  -18.7876  -17.0402 C   0  0  1  0  0  0  0  0  0  0  0  0
   26.8125  -17.4715  -16.3774 C   0  0  0  0  0  0  0  0  0  0  0  0
   28.1900  -17.0750  -16.7341 C   0  0  0  0  0  0  0  0  0  0  0  0
   29.2376  -17.8942  -16.4159 C   0  0  0  0  0  0  0  0  0  0  0  0
   30.5240  -17.4927  -16.7654 C   0  0  0  0  0  0  0  0  0  0  0  0
   30.7226  -16.2989  -17.4147 C   0  0  0  0  0  0  0  0  0  0  0  0
   29.6583  -15.4861  -17.7278 C   0  0  0  0  0  0  0  0  0  0  0  0
   28.3957  -15.8862  -17.3816 C   0  0  0  0  0  0  0  0  0  0  0  0
   25.1921  -19.3265  -16.5419 C   0  0  0  0  0  0  0  0  0  0  0  0
   24.1327  -18.9577  -17.1009 O   0  0  0  0  0  0  0  0  0  0  0  0
   25.1448  -20.2332  -15.4610 N   0  0  0  0  0  0  0  0  0  0  0  0
   23.9844  -20.9208  -14.9601 C   0  0  1  0  0  0  0  0  0  0  0  0
   24.2706  -22.2336  -14.2531 C   0  0  0  0  0  0  0  0  0  0  0  0
   23.0133  -22.9609  -13.9469 C   0  0  0  0  0  0  0  0  0  0  0  0
   23.2699  -24.2535  -13.2374 C   0  0  0  0  0  0  0  0  0  0  0  0
   22.3124  -25.0135  -12.9554 O   0  0  0  0  0  0  0  0  0  0  0  0
   22.9803  -20.0851  -14.3253 C   0  0  0  0  0  0  0  0  0  0  0  0
   23.3521  -19.3421  -13.3523 O   0  0  0  0  0  0  0  0  0  0  0  0
   24.5559  -24.6119  -12.8926 O   0  0  0  0  0  0  0  0  0  0  0  0
   19.5003  -16.3097  -14.0918 C   0  0  0  0  0  0  0  0  0  0  0  0
   18.7086  -17.5887  -14.2702 C   0  0  0  0  0  0  0  0  0  0  0  0
   19.6229  -18.5927  -14.9402 C   0  0  2  0  0  0  0  0  0  0  0  0
   18.8102  -19.6678  -15.5876 C   0  0  0  0  0  0  0  0  0  0  0  0
   20.6765  -19.1204  -13.9965 C   0  0  2  0  0  0  0  0  0  0  0  0
   21.6152  -20.0003  -14.6694 N   0  0  0  0  0  0  0  0  0  0  0  0
   19.9765  -19.9189  -12.9591 C   0  0  0  0  0  0  0  0  0  0  0  0
   19.7734  -21.1248  -13.1670 O   0  0  0  0  0  0  0  0  0  0  0  0
   19.5444  -19.3596  -11.7689 O   0  0  0  0  0  0  0  0  0  0  0  0
  2  1  1  6
  2 10  1  0
  3  2  1  0
  4  3  1  0
  5  4  2  0
  6  5  1  0
  7  8  1  0
  7  6  2  0
  8  9  2  0
  9  4  1  0
 10 11  2  0
 12 10  1  0
 12 13  1  0
 13 14  1  1
 15 14  1  0
 16 20  1  0
 16 15  1  0
 17 16  2  0
 18 26  1  0
 18 13  1  0
 19 18  2  0
 21 22  1  0
 22 23  1  0
 23 25  1  0
 23 24  1  1
 25 27  1  0
 25 26  1  6
 27 29  1  0
 28 27  2  0
M  END
$$$$
