FEI.pdb
     RDKit          3D

 29 29  0  0  1  0  0  0  0  0999 V2000
   28.5227  -21.7797  -13.1293 N   0  0  0  0  0  0  0  0  0  0  0  0
   27.6614  -21.3249  -12.0581 C   0  0  1  0  0  0  0  0  0  0  0  0
   28.2301  -20.0551  -11.4928 C   0  0  0  0  0  0  0  0  0  0  0  0
   28.4459  -20.2564  -10.0455 C   0  0  0  0  0  0  0  0  0  0  0  0
   29.6312  -20.7724   -9.5999 C   0  0  0  0  0  0  0  0  0  0  0  0
   29.8045  -20.9503   -8.2300 C   0  0  0  0  0  0  0  0  0  0  0  0
   28.8000  -20.6113   -7.3570 C   0  0  0  0  0  0  0  0  0  0  0  0
   27.6135  -20.0934   -7.8210 C   0  0  0  0  0  0  0  0  0  0  0  0
   27.4490  -19.9207   -9.1690 C   0  0  0  0  0  0  0  0  0  0  0  0
   26.2867  -21.0510  -12.6439 C   0  0  0  0  0  0  0  0  0  0  0  0
   26.1567  -20.9603  -13.8872 O   0  0  0  0  0  0  0  0  0  0  0  0
   25.1647  -20.8994  -11.8008 N   0  0  0  0  0  0  0  0  0  0  0  0
   23.7939  -20.7386  -12.2074 C   0  0  1  0  0  0  0  0  0  0  0  0
   22.8035  -20.5577  -11.0709 C   0  0  0  0  0  0  0  0  0  0  0  0
   21.4281  -20.3487  -11.5887 C   0  0  0  0  0  0  0  0  0  0  0  0
   20.4517  -21.3174  -10.9986 C   0  0  0  0  0  0  0  0  0  0  0  0
   20.8104  -22.0795  -10.0688 O   0  0  0  0  0  0  0  0  0  0  0  0
   23.5733  -19.8818  -13.3593 C   0  0  0  0  0  0  0  0  0  0  0  0
   24.0546  -18.6970  -13.3213 O   0  0  0  0  0  0  0  0  0  0  0  0
   19.1587  -21.3750  -11.4738 O   0  0  0  0  0  0  0  0  0  0  0  0
   25.1340  -20.6107  -18.2251 C   0  0  0  0  0  0  0  0  0  0  0  0
   24.7160  -20.0289  -16.8905 C   0  0  0  0  0  0  0  0  0  0  0  0
   23.2153  -19.8323  -16.9369 C   0  0  2  0  0  0  0  0  0  0  0  0
   22.8473  -19.0049  -18.1267 C   0  0  0  0  0  0  0  0  0  0  0  0
   22.6722  -19.2911  -15.6364 C   0  0  2  0  0  0  0  0  0  0  0  0
   22.8741  -20.2178  -14.5372 N   0  0  0  0  0  0  0  0  0  0  0  0
   21.2088  -19.1135  -15.8116 C   0  0  0  0  0  0  0  0  0  0  0  0
   20.4627  -20.0904  -15.6456 O   0  0  0  0  0  0  0  0  0  0  0  0
   20.6526  -17.8931  -16.1541 O   0  0  0  0  0  0  0  0  0  0  0  0
  2  1  1  6
  2 10  1  0
  3  2  1  0
  4  3  1  0
  5  4  2  0
  6  5  1  0
  7  8  1  0
  7  6  2  0
  8  9  2  0
  9  4  1  0
 10 11  2  0
 12 10  1  0
 12 13  1  0
 13 14  1  1
 15 14  1  0
 16 20  1  0
 16 15  1  0
 17 16  2  0
 18 26  1  0
 18 13  1  0
 19 18  2  0
 21 22  1  0
 22 23  1  0
 23 25  1  0
 23 24  1  6
 25 27  1  0
 25 26  1  1
 27 29  1  0
 28 27  2  0
M  END
$$$$
