FEI.pdb
     RDKit          3D

 29 29  0  0  1  0  0  0  0  0999 V2000
   26.6120  -18.1072  -18.4659 N   0  0  0  0  0  0  0  0  0  0  0  0
   27.3279  -18.5673  -17.2945 C   0  0  1  0  0  0  0  0  0  0  0  0
   27.6907  -17.3753  -16.4561 C   0  0  0  0  0  0  0  0  0  0  0  0
   28.6684  -16.5663  -17.2121 C   0  0  0  0  0  0  0  0  0  0  0  0
   28.3299  -15.3109  -17.6355 C   0  0  0  0  0  0  0  0  0  0  0  0
   29.2730  -14.5732  -18.3457 C   0  0  0  0  0  0  0  0  0  0  0  0
   30.5113  -15.1057  -18.6084 C   0  0  0  0  0  0  0  0  0  0  0  0
   30.8365  -16.3699  -18.1756 C   0  0  0  0  0  0  0  0  0  0  0  0
   29.9050  -17.0905  -17.4777 C   0  0  0  0  0  0  0  0  0  0  0  0
   26.4042  -19.4814  -16.5076 C   0  0  0  0  0  0  0  0  0  0  0  0
   25.2222  -19.1232  -16.2946 O   0  0  0  0  0  0  0  0  0  0  0  0
   26.8678  -20.7222  -16.0195 N   0  0  0  0  0  0  0  0  0  0  0  0
   26.1297  -21.6690  -15.2264 C   0  0  1  0  0  0  0  0  0  0  0  0
   26.0400  -23.0667  -15.8125 C   0  0  0  0  0  0  0  0  0  0  0  0
   25.2018  -23.9497  -14.9632 C   0  0  0  0  0  0  0  0  0  0  0  0
   23.7402  -23.7545  -15.2199 C   0  0  0  0  0  0  0  0  0  0  0  0
   22.9504  -23.6038  -14.2570 O   0  0  0  0  0  0  0  0  0  0  0  0
   26.3683  -21.6153  -13.7946 C   0  0  0  0  0  0  0  0  0  0  0  0
   27.5624  -21.8165  -13.3818 O   0  0  0  0  0  0  0  0  0  0  0  0
   23.2590  -23.7399  -16.5119 O   0  0  0  0  0  0  0  0  0  0  0  0
   26.6998  -17.8005  -10.7745 C   0  0  0  0  0  0  0  0  0  0  0  0
   26.8326  -19.1832  -11.3783 C   0  0  0  0  0  0  0  0  0  0  0  0
   25.7686  -20.0541  -10.7439 C   0  0  2  0  0  0  0  0  0  0  0  0
   25.9539  -20.0842   -9.2606 C   0  0  0  0  0  0  0  0  0  0  0  0
   25.7086  -21.4261  -11.3708 C   0  0  2  0  0  0  0  0  0  0  0  0
   25.4112  -21.3610  -12.7904 N   0  0  0  0  0  0  0  0  0  0  0  0
   24.5996  -22.1615  -10.7125 C   0  0  0  0  0  0  0  0  0  0  0  0
   23.5071  -22.2437  -11.2941 O   0  0  0  0  0  0  0  0  0  0  0  0
   24.7475  -22.7571   -9.4718 O   0  0  0  0  0  0  0  0  0  0  0  0
  2  1  1  6
  2 10  1  0
  3  2  1  0
  4  3  1  0
  5  4  2  0
  6  5  1  0
  7  8  1  0
  7  6  2  0
  8  9  2  0
  9  4  1  0
 10 11  2  0
 12 10  1  0
 12 13  1  0
 13 14  1  6
 15 14  1  0
 16 20  1  0
 16 15  1  0
 17 16  2  0
 18 26  1  0
 18 13  1  0
 19 18  2  0
 21 22  1  0
 22 23  1  0
 23 25  1  0
 23 24  1  1
 25 27  1  0
 25 26  1  6
 27 29  1  0
 28 27  2  0
M  END
$$$$
