GIR.pdb
     RDKit          3D

 24 23  0  0  1  0  0  0  0  0999 V2000
    9.4355  -17.8266   16.5202 N   0  0  0  0  0  0  0  0  0  0  0  0
    8.3770  -17.1592   17.2184 C   0  0  0  0  0  0  0  0  0  0  0  0
    8.8841  -16.4396   18.4156 C   0  0  0  0  0  0  0  0  0  0  0  0
   10.1015  -16.2517   18.5782 O   0  0  0  0  0  0  0  0  0  0  0  0
    7.8601  -12.3877   19.8798 C   0  0  0  0  0  0  0  0  0  0  0  0
    6.8198  -13.4167   20.2655 C   0  0  0  0  0  0  0  0  0  0  0  0
    7.3917  -14.4257   21.2418 C   0  0  2  0  0  0  0  0  0  0  0  0
    7.8978  -13.6947   22.4666 C   0  0  0  0  0  0  0  0  0  0  0  0
    8.4707  -15.2655   20.6142 C   0  0  2  0  0  0  0  0  0  0  0  0
    7.9885  -15.9371   19.4248 N   0  0  0  0  0  0  0  0  0  0  0  0
    9.0298  -16.2579   21.5839 C   0  0  0  0  0  0  0  0  0  0  0  0
    8.2564  -17.1046   22.0790 O   0  0  0  0  0  0  0  0  0  0  0  0
    9.8416  -21.7637   19.3476 N   0  0  0  0  0  0  0  0  0  0  0  0
   10.7631  -20.9313   18.6558 C   0  0  0  0  0  0  0  0  0  0  0  0
   10.6529  -20.7891   17.3703 N   0  0  0  0  0  0  0  0  0  0  0  0
   11.8019  -20.2501   19.3309 N   0  0  0  0  0  0  0  0  0  0  0  0
   12.0436  -20.4970   20.7947 C   0  0  0  0  0  0  0  0  0  0  0  0
   11.2487  -19.4806   21.4969 C   0  0  0  0  0  0  0  0  0  0  0  0
   11.7943  -18.2161   21.9951 C   0  0  0  0  0  0  0  0  0  0  0  0
   11.0138  -17.2984   22.8126 C   0  0  2  0  0  0  0  0  0  0  0  0
   10.3832  -16.2566   21.9426 N   0  0  0  0  0  0  0  0  0  0  0  0
   11.8531  -16.5182   23.7857 C   0  0  0  0  0  0  0  0  0  0  0  0
   12.1276  -17.1178   25.0555 O   0  0  0  0  0  0  0  0  0  0  0  0
   12.3502  -15.4066   23.6340 O   0  0  0  0  0  0  0  0  0  0  0  0
  2  1  1  0
  3  2  1  0
  4  3  2  0
  5  6  1  0
  6  7  1  0
  7  9  1  0
  7  8  1  1
  9 10  1  6
 10  3  1  0
 11 21  1  0
 11  9  1  0
 12 11  2  0
 13 14  1  0
 14 15  2  0
 16 14  1  0
 17 16  1  0
 18 17  1  0
 19 18  1  0
 20 19  1  6
 20 21  1  0
 22 20  1  0
 22 23  1  0
 24 22  2  0
M  END
$$$$
