GIR.pdb
     RDKit          3D

 24 23  0  0  1  0  0  0  0  0999 V2000
    4.8979  -19.3694   24.7516 N   0  0  0  0  0  0  0  0  0  0  0  0
    5.5379  -18.5364   25.7262 C   0  0  0  0  0  0  0  0  0  0  0  0
    6.1514  -17.3375   25.0982 C   0  0  0  0  0  0  0  0  0  0  0  0
    6.2783  -17.2586   23.8647 O   0  0  0  0  0  0  0  0  0  0  0  0
    5.9901  -12.4237   27.5783 C   0  0  0  0  0  0  0  0  0  0  0  0
    6.0079  -13.4403   26.4577 C   0  0  0  0  0  0  0  0  0  0  0  0
    7.4146  -13.9484   26.2094 C   0  0  2  0  0  0  0  0  0  0  0  0
    8.2465  -12.8293   25.6209 C   0  0  0  0  0  0  0  0  0  0  0  0
    7.4241  -15.1670   25.3271 C   0  0  2  0  0  0  0  0  0  0  0  0
    6.6184  -16.2303   25.8914 N   0  0  0  0  0  0  0  0  0  0  0  0
    8.8167  -15.6481   25.0681 C   0  0  0  0  0  0  0  0  0  0  0  0
    9.4555  -16.1542   26.0146 O   0  0  0  0  0  0  0  0  0  0  0  0
    8.4461  -14.5181   18.7212 N   0  0  0  0  0  0  0  0  0  0  0  0
    9.2920  -13.3910   18.9075 C   0  0  0  0  0  0  0  0  0  0  0  0
    8.8860  -12.2190   18.5250 N   0  0  0  0  0  0  0  0  0  0  0  0
   10.5699  -13.5101   19.5006 N   0  0  0  0  0  0  0  0  0  0  0  0
   11.0871  -14.8582   19.9214 C   0  0  0  0  0  0  0  0  0  0  0  0
   10.2502  -15.2574   21.0608 C   0  0  0  0  0  0  0  0  0  0  0  0
   10.4585  -16.4798   21.8400 C   0  0  0  0  0  0  0  0  0  0  0  0
   10.4553  -16.4866   23.2959 C   0  0  2  0  0  0  0  0  0  0  0  0
    9.4099  -15.5439   23.8042 N   0  0  0  0  0  0  0  0  0  0  0  0
   11.7399  -15.9792   23.8894 C   0  0  0  0  0  0  0  0  0  0  0  0
   12.9033  -16.8014   23.7559 O   0  0  0  0  0  0  0  0  0  0  0  0
   11.9321  -14.9254   24.4880 O   0  0  0  0  0  0  0  0  0  0  0  0
  2  1  1  0
  3  2  1  0
  4  3  2  0
  5  6  1  0
  6  7  1  0
  7  9  1  0
  7  8  1  6
  9 10  1  1
 10  3  1  0
 11 21  1  0
 11  9  1  0
 12 11  2  0
 13 14  1  0
 14 15  2  0
 16 14  1  0
 17 16  1  0
 18 17  1  0
 19 18  1  0
 20 19  1  6
 20 21  1  0
 22 20  1  0
 22 23  1  0
 24 22  2  0
M  END
$$$$
