GIR.pdb
     RDKit          3D

 24 23  0  0  1  0  0  0  0  0999 V2000
   14.1325  -15.3384   19.0532 N   0  0  0  0  0  0  0  0  0  0  0  0
   12.8823  -16.0136   19.2396 C   0  0  0  0  0  0  0  0  0  0  0  0
   11.9908  -15.2629   20.1615 C   0  0  0  0  0  0  0  0  0  0  0  0
   12.4589  -14.6057   21.1063 O   0  0  0  0  0  0  0  0  0  0  0  0
    7.7293  -12.5393   18.3128 C   0  0  0  0  0  0  0  0  0  0  0  0
    8.9174  -12.9938   19.1323 C   0  0  0  0  0  0  0  0  0  0  0  0
    8.4946  -13.9915   20.1925 C   0  0  2  0  0  0  0  0  0  0  0  0
    7.5395  -13.3159   21.1527 C   0  0  0  0  0  0  0  0  0  0  0  0
    9.6769  -14.5812   20.9123 C   0  0  2  0  0  0  0  0  0  0  0  0
   10.5608  -15.2697   19.9943 N   0  0  0  0  0  0  0  0  0  0  0  0
    9.2491  -15.4993   22.0132 C   0  0  0  0  0  0  0  0  0  0  0  0
    8.6818  -16.5692   21.7071 O   0  0  0  0  0  0  0  0  0  0  0  0
   12.9196  -17.7097   28.7379 N   0  0  0  0  0  0  0  0  0  0  0  0
   11.6786  -17.2063   29.2147 C   0  0  0  0  0  0  0  0  0  0  0  0
   11.6736  -16.2677   30.1114 N   0  0  0  0  0  0  0  0  0  0  0  0
   10.4429  -17.7009   28.7381 N   0  0  0  0  0  0  0  0  0  0  0  0
   10.1367  -17.6827   27.2657 C   0  0  0  0  0  0  0  0  0  0  0  0
    9.6155  -16.3365   26.9936 C   0  0  0  0  0  0  0  0  0  0  0  0
    9.7710  -15.6427   25.7132 C   0  0  0  0  0  0  0  0  0  0  0  0
    9.1262  -16.1051   24.4924 C   0  0  2  0  0  0  0  0  0  0  0  0
    9.4688  -15.1879   23.3604 N   0  0  0  0  0  0  0  0  0  0  0  0
    7.6254  -16.0648   24.5683 C   0  0  0  0  0  0  0  0  0  0  0  0
    6.9426  -17.2868   24.8647 O   0  0  0  0  0  0  0  0  0  0  0  0
    6.8857  -15.0990   24.4078 O   0  0  0  0  0  0  0  0  0  0  0  0
  2  1  1  0
  3  2  1  0
  4  3  2  0
  5  6  1  0
  6  7  1  0
  7  9  1  0
  7  8  1  1
  9 10  1  6
 10  3  1  0
 11 21  1  0
 11  9  1  0
 12 11  2  0
 13 14  1  0
 14 15  2  0
 16 14  1  0
 17 16  1  0
 18 17  1  0
 19 18  1  0
 20 19  1  1
 20 21  1  0
 22 20  1  0
 22 23  1  0
 24 22  2  0
M  END
$$$$
