GIR.pdb
     RDKit          3D

 24 23  0  0  1  0  0  0  0  0999 V2000
    6.6165  -19.5293   27.3884 N   0  0  0  0  0  0  0  0  0  0  0  0
    7.2200  -18.2685   27.7038 C   0  0  0  0  0  0  0  0  0  0  0  0
    7.0296  -17.2846   26.6065 C   0  0  0  0  0  0  0  0  0  0  0  0
    6.3818  -17.5823   25.5889 O   0  0  0  0  0  0  0  0  0  0  0  0
    6.6477  -12.1861   27.8755 C   0  0  0  0  0  0  0  0  0  0  0  0
    6.3564  -13.3690   26.9780 C   0  0  0  0  0  0  0  0  0  0  0  0
    7.5026  -13.6151   26.0167 C   0  0  2  0  0  0  0  0  0  0  0  0
    7.3805  -12.6602   24.8488 C   0  0  0  0  0  0  0  0  0  0  0  0
    7.5529  -15.0468   25.5572 C   0  0  2  0  0  0  0  0  0  0  0  0
    7.5855  -15.9586   26.6822 N   0  0  0  0  0  0  0  0  0  0  0  0
    8.7172  -15.2934   24.6510 C   0  0  0  0  0  0  0  0  0  0  0  0
    9.8685  -15.1161   25.1021 O   0  0  0  0  0  0  0  0  0  0  0  0
    7.3177  -12.4097   17.9414 N   0  0  0  0  0  0  0  0  0  0  0  0
    8.0613  -13.6070   17.7562 C   0  0  0  0  0  0  0  0  0  0  0  0
    8.3992  -13.9685   16.5562 N   0  0  0  0  0  0  0  0  0  0  0  0
    8.4457  -14.4200   18.8471 N   0  0  0  0  0  0  0  0  0  0  0  0
    7.8258  -14.2130   20.2017 C   0  0  0  0  0  0  0  0  0  0  0  0
    8.9562  -14.0718   21.1292 C   0  0  0  0  0  0  0  0  0  0  0  0
    9.9137  -15.1411   21.4202 C   0  0  0  0  0  0  0  0  0  0  0  0
    9.6687  -16.1509   22.4401 C   0  0  2  0  0  0  0  0  0  0  0  0
    8.5451  -15.7129   23.3264 N   0  0  0  0  0  0  0  0  0  0  0  0
   10.8323  -16.3391   23.3731 C   0  0  0  0  0  0  0  0  0  0  0  0
   11.8377  -15.3211   23.3944 O   0  0  0  0  0  0  0  0  0  0  0  0
   11.0421  -17.2723   24.1418 O   0  0  0  0  0  0  0  0  0  0  0  0
  2  1  1  0
  3  2  1  0
  4  3  2  0
  5  6  1  0
  6  7  1  0
  7  9  1  0
  7  8  1  6
  9 10  1  1
 10  3  1  0
 11 21  1  0
 11  9  1  0
 12 11  2  0
 13 14  1  0
 14 15  2  0
 16 14  1  0
 17 16  1  0
 18 17  1  0
 19 18  1  0
 20 19  1  6
 20 21  1  0
 22 20  1  0
 22 23  1  0
 24 22  2  0
M  END
$$$$
