GIR.pdb
     RDKit          3D

 24 23  0  0  1  0  0  0  0  0999 V2000
    6.8686  -18.6777   17.5643 N   0  0  0  0  0  0  0  0  0  0  0  0
    6.5097  -17.6857   18.5341 C   0  0  0  0  0  0  0  0  0  0  0  0
    7.7115  -17.0274   19.1090 C   0  0  0  0  0  0  0  0  0  0  0  0
    8.8525  -17.4457   18.8504 O   0  0  0  0  0  0  0  0  0  0  0  0
    7.2450  -12.2806   22.4758 C   0  0  0  0  0  0  0  0  0  0  0  0
    7.4618  -13.7167   22.0510 C   0  0  0  0  0  0  0  0  0  0  0  0
    8.4513  -13.7994   20.9054 C   0  0  2  0  0  0  0  0  0  0  0  0
    7.9067  -13.0223   19.7263 C   0  0  0  0  0  0  0  0  0  0  0  0
    8.7615  -15.2236   20.5328 C   0  0  2  0  0  0  0  0  0  0  0  0
    7.5981  -15.8876   19.9814 N   0  0  0  0  0  0  0  0  0  0  0  0
    9.2986  -15.9928   21.6980 C   0  0  0  0  0  0  0  0  0  0  0  0
    8.4867  -16.5517   22.4654 O   0  0  0  0  0  0  0  0  0  0  0  0
   12.1922  -19.6101   18.4312 N   0  0  0  0  0  0  0  0  0  0  0  0
   13.4521  -19.9880   18.9703 C   0  0  0  0  0  0  0  0  0  0  0  0
   14.4774  -20.0932   18.1814 N   0  0  0  0  0  0  0  0  0  0  0  0
   13.6217  -20.2541   20.3485 N   0  0  0  0  0  0  0  0  0  0  0  0
   12.4416  -20.2080   21.2799 C   0  0  0  0  0  0  0  0  0  0  0  0
   12.3506  -18.8104   21.7231 C   0  0  0  0  0  0  0  0  0  0  0  0
   11.3320  -18.3110   22.6494 C   0  0  0  0  0  0  0  0  0  0  0  0
   11.2612  -16.9132   23.0506 C   0  0  2  0  0  0  0  0  0  0  0  0
   10.6732  -16.0975   21.9421 N   0  0  0  0  0  0  0  0  0  0  0  0
   12.6129  -16.3012   23.2920 C   0  0  0  0  0  0  0  0  0  0  0  0
   13.0636  -15.3028   22.3714 O   0  0  0  0  0  0  0  0  0  0  0  0
   13.4036  -16.5469   24.1976 O   0  0  0  0  0  0  0  0  0  0  0  0
  2  1  1  0
  3  2  1  0
  4  3  2  0
  5  6  1  0
  6  7  1  0
  7  9  1  0
  7  8  1  6
  9 10  1  1
 10  3  1  0
 11 21  1  0
 11  9  1  0
 12 11  2  0
 13 14  1  0
 14 15  2  0
 16 14  1  0
 17 16  1  0
 18 17  1  0
 19 18  1  0
 20 19  1  6
 20 21  1  0
 22 20  1  0
 22 23  1  0
 24 22  2  0
M  END
$$$$
