GIR.pdb
     RDKit          3D

 24 23  0  0  1  0  0  0  0  0999 V2000
    7.5278  -13.3039   19.7162 N   0  0  0  0  0  0  0  0  0  0  0  0
    6.8125  -13.9553   20.7733 C   0  0  0  0  0  0  0  0  0  0  0  0
    7.6188  -14.0135   22.0202 C   0  0  0  0  0  0  0  0  0  0  0  0
    8.8140  -14.3519   21.9912 O   0  0  0  0  0  0  0  0  0  0  0  0
    6.1593  -10.8032   26.2180 C   0  0  0  0  0  0  0  0  0  0  0  0
    6.9365  -11.5737   25.1729 C   0  0  0  0  0  0  0  0  0  0  0  0
    7.2026  -12.9935   25.6330 C   0  0  2  0  0  0  0  0  0  0  0  0
    8.1047  -12.9574   26.8478 C   0  0  0  0  0  0  0  0  0  0  0  0
    7.7877  -13.8394   24.5350 C   0  0  2  0  0  0  0  0  0  0  0  0
    7.0479  -13.6820   23.2997 N   0  0  0  0  0  0  0  0  0  0  0  0
    7.8507  -15.2820   24.9259 C   0  0  0  0  0  0  0  0  0  0  0  0
    6.9770  -16.0562   24.4812 O   0  0  0  0  0  0  0  0  0  0  0  0
   10.1942  -20.9651   21.7824 N   0  0  0  0  0  0  0  0  0  0  0  0
   10.7337  -20.0285   20.8592 C   0  0  0  0  0  0  0  0  0  0  0  0
   10.6654  -20.2757   19.5868 N   0  0  0  0  0  0  0  0  0  0  0  0
   11.3460  -18.8287   21.2890 N   0  0  0  0  0  0  0  0  0  0  0  0
   11.6260  -18.6020   22.7492 C   0  0  0  0  0  0  0  0  0  0  0  0
   10.3938  -18.0174   23.2952 C   0  0  0  0  0  0  0  0  0  0  0  0
   10.3694  -16.9541   24.3020 C   0  0  0  0  0  0  0  0  0  0  0  0
    9.5878  -17.0571   25.5261 C   0  0  2  0  0  0  0  0  0  0  0  0
    8.8548  -15.7749   25.7680 N   0  0  0  0  0  0  0  0  0  0  0  0
   10.4371  -17.2420   26.7526 C   0  0  0  0  0  0  0  0  0  0  0  0
   10.4809  -18.5462   27.3394 O   0  0  0  0  0  0  0  0  0  0  0  0
   11.1186  -16.4034   27.3341 O   0  0  0  0  0  0  0  0  0  0  0  0
  2  1  1  0
  3  2  1  0
  4  3  2  0
  5  6  1  0
  6  7  1  0
  7  9  1  0
  7  8  1  1
  9 10  1  6
 10  3  1  0
 11 21  1  0
 11  9  1  0
 12 11  2  0
 13 14  1  0
 14 15  2  0
 16 14  1  0
 17 16  1  0
 18 17  1  0
 19 18  1  0
 20 19  1  6
 20 21  1  0
 22 20  1  0
 22 23  1  0
 24 22  2  0
M  END
$$$$
