GIR.pdb
     RDKit          3D

 24 23  0  0  1  0  0  0  0  0999 V2000
    7.6290  -13.3233   20.0491 N   0  0  0  0  0  0  0  0  0  0  0  0
    6.8470  -13.7756   21.1614 C   0  0  0  0  0  0  0  0  0  0  0  0
    7.6486  -13.8089   22.4122 C   0  0  0  0  0  0  0  0  0  0  0  0
    8.8846  -13.6850   22.3806 O   0  0  0  0  0  0  0  0  0  0  0  0
    5.5240  -11.5797   26.8680 C   0  0  0  0  0  0  0  0  0  0  0  0
    6.4615  -12.0475   25.7763 C   0  0  0  0  0  0  0  0  0  0  0  0
    6.9886  -13.4376   26.0736 C   0  0  2  0  0  0  0  0  0  0  0  0
    7.7989  -13.3949   27.3513 C   0  0  0  0  0  0  0  0  0  0  0  0
    7.7919  -13.9907   24.9281 C   0  0  2  0  0  0  0  0  0  0  0  0
    7.0261  -13.9848   23.6985 N   0  0  0  0  0  0  0  0  0  0  0  0
    8.2953  -15.3681   25.2233 C   0  0  0  0  0  0  0  0  0  0  0  0
    7.4602  -16.2724   25.4357 O   0  0  0  0  0  0  0  0  0  0  0  0
   11.8538  -19.0879   20.8509 N   0  0  0  0  0  0  0  0  0  0  0  0
   12.5598  -20.1029   21.5523 C   0  0  0  0  0  0  0  0  0  0  0  0
   12.5781  -21.3110   21.0780 N   0  0  0  0  0  0  0  0  0  0  0  0
   13.2466  -19.8332   22.7584 N   0  0  0  0  0  0  0  0  0  0  0  0
   13.2348  -18.4477   23.3435 C   0  0  0  0  0  0  0  0  0  0  0  0
   11.9475  -18.3314   24.0416 C   0  0  0  0  0  0  0  0  0  0  0  0
   11.5111  -17.1308   24.7577 C   0  0  0  0  0  0  0  0  0  0  0  0
   10.2151  -17.0431   25.4155 C   0  0  2  0  0  0  0  0  0  0  0  0
    9.6640  -15.6598   25.2657 N   0  0  0  0  0  0  0  0  0  0  0  0
   10.2938  -17.2578   26.9013 C   0  0  0  0  0  0  0  0  0  0  0  0
   10.2558  -18.6056   27.3803 O   0  0  0  0  0  0  0  0  0  0  0  0
   10.3908  -16.4107   27.7838 O   0  0  0  0  0  0  0  0  0  0  0  0
  2  1  1  0
  3  2  1  0
  4  3  2  0
  5  6  1  0
  6  7  1  0
  7  9  1  0
  7  8  1  1
  9 10  1  6
 10  3  1  0
 11 21  1  0
 11  9  1  0
 12 11  2  0
 13 14  1  0
 14 15  2  0
 16 14  1  0
 17 16  1  0
 18 17  1  0
 19 18  1  0
 20 19  1  1
 20 21  1  0
 22 20  1  0
 22 23  1  0
 24 22  2  0
M  END
$$$$
