GIR.pdb
     RDKit          3D

 24 23  0  0  1  0  0  0  0  0999 V2000
   10.8898  -15.6394   14.5171 N   0  0  0  0  0  0  0  0  0  0  0  0
   10.3823  -16.3308   15.6651 C   0  0  0  0  0  0  0  0  0  0  0  0
   10.6615  -15.5825   16.9182 C   0  0  0  0  0  0  0  0  0  0  0  0
   11.8190  -15.2379   17.2103 O   0  0  0  0  0  0  0  0  0  0  0  0
    6.5387  -12.5810   19.1089 C   0  0  0  0  0  0  0  0  0  0  0  0
    7.8867  -13.0312   18.5894 C   0  0  0  0  0  0  0  0  0  0  0  0
    8.5975  -13.9000   19.6084 C   0  0  2  0  0  0  0  0  0  0  0  0
    8.8660  -13.0813   20.8528 C   0  0  0  0  0  0  0  0  0  0  0  0
    9.8636  -14.4945   19.0542 C   0  0  2  0  0  0  0  0  0  0  0  0
    9.6073  -15.2318   17.8340 N   0  0  0  0  0  0  0  0  0  0  0  0
   10.5471  -15.3676   20.0583 C   0  0  0  0  0  0  0  0  0  0  0  0
   10.0947  -16.5156   20.2524 O   0  0  0  0  0  0  0  0  0  0  0  0
   18.5765  -15.5651   20.6955 N   0  0  0  0  0  0  0  0  0  0  0  0
   17.9982  -15.0813   21.9006 C   0  0  0  0  0  0  0  0  0  0  0  0
   18.6743  -15.1541   23.0062 N   0  0  0  0  0  0  0  0  0  0  0  0
   16.7010  -14.5199   21.9300 N   0  0  0  0  0  0  0  0  0  0  0  0
   15.9140  -14.3637   20.6578 C   0  0  0  0  0  0  0  0  0  0  0  0
   14.7930  -15.3057   20.7759 C   0  0  0  0  0  0  0  0  0  0  0  0
   13.8022  -15.2668   21.8538 C   0  0  0  0  0  0  0  0  0  0  0  0
   12.4582  -15.8042   21.6972 C   0  0  2  0  0  0  0  0  0  0  0  0
   11.6678  -14.9302   20.7745 N   0  0  0  0  0  0  0  0  0  0  0  0
   11.6724  -15.8061   22.9787 C   0  0  0  0  0  0  0  0  0  0  0  0
   11.9879  -16.8087   23.9496 O   0  0  0  0  0  0  0  0  0  0  0  0
   10.7731  -15.0421   23.3156 O   0  0  0  0  0  0  0  0  0  0  0  0
  2  1  1  0
  3  2  1  0
  4  3  2  0
  5  6  1  0
  6  7  1  0
  7  9  1  0
  7  8  1  1
  9 10  1  6
 10  3  1  0
 11 21  1  0
 11  9  1  0
 12 11  2  0
 13 14  1  0
 14 15  2  0
 16 14  1  0
 17 16  1  0
 18 17  1  0
 19 18  1  0
 20 19  1  1
 20 21  1  0
 22 20  1  0
 22 23  1  0
 24 22  2  0
M  END
$$$$
