GIR.pdb
     RDKit          3D

 24 23  0  0  1  0  0  0  0  0999 V2000
    7.6316  -14.0054   20.0691 N   0  0  0  0  0  0  0  0  0  0  0  0
    6.8334  -14.2544   21.2329 C   0  0  0  0  0  0  0  0  0  0  0  0
    7.6473  -14.1899   22.4746 C   0  0  0  0  0  0  0  0  0  0  0  0
    8.8880  -14.1488   22.4220 O   0  0  0  0  0  0  0  0  0  0  0  0
    5.7101  -11.3646   26.6627 C   0  0  0  0  0  0  0  0  0  0  0  0
    6.6034  -12.0060   25.6234 C   0  0  0  0  0  0  0  0  0  0  0  0
    7.0685  -13.3751   26.0791 C   0  0  2  0  0  0  0  0  0  0  0  0
    7.9139  -13.2193   27.3248 C   0  0  0  0  0  0  0  0  0  0  0  0
    7.8121  -14.1056   24.9943 C   0  0  2  0  0  0  0  0  0  0  0  0
    7.0315  -14.1727   23.7760 N   0  0  0  0  0  0  0  0  0  0  0  0
    8.2161  -15.4778   25.4320 C   0  0  0  0  0  0  0  0  0  0  0  0
    7.3213  -16.2783   25.7769 O   0  0  0  0  0  0  0  0  0  0  0  0
   10.1997  -16.9835   20.6236 N   0  0  0  0  0  0  0  0  0  0  0  0
   10.7649  -18.2868   20.5705 C   0  0  0  0  0  0  0  0  0  0  0  0
   10.3922  -19.1057   19.6349 N   0  0  0  0  0  0  0  0  0  0  0  0
   11.7264  -18.7193   21.5125 N   0  0  0  0  0  0  0  0  0  0  0  0
   12.1118  -17.8316   22.6638 C   0  0  0  0  0  0  0  0  0  0  0  0
   11.2204  -18.2160   23.7664 C   0  0  0  0  0  0  0  0  0  0  0  0
   11.2294  -17.5792   25.0852 C   0  0  0  0  0  0  0  0  0  0  0  0
   10.0050  -17.2632   25.8069 C   0  0  2  0  0  0  0  0  0  0  0  0
    9.5576  -15.8772   25.4624 N   0  0  0  0  0  0  0  0  0  0  0  0
   10.1910  -17.2386   27.2985 C   0  0  0  0  0  0  0  0  0  0  0  0
   10.4294  -15.9706   27.9170 O   0  0  0  0  0  0  0  0  0  0  0  0
   10.1636  -18.1845   28.0797 O   0  0  0  0  0  0  0  0  0  0  0  0
  2  1  1  0
  3  2  1  0
  4  3  2  0
  5  6  1  0
  6  7  1  0
  7  9  1  0
  7  8  1  1
  9 10  1  6
 10  3  1  0
 11 21  1  0
 11  9  1  0
 12 11  2  0
 13 14  1  0
 14 15  2  0
 16 14  1  0
 17 16  1  0
 18 17  1  0
 19 18  1  0
 20 19  1  6
 20 21  1  0
 22 20  1  0
 22 23  1  0
 24 22  2  0
M  END
$$$$
