GIR.pdb
     RDKit          3D

 24 23  0  0  1  0  0  0  0  0999 V2000
    7.5877  -14.6240   20.1337 N   0  0  0  0  0  0  0  0  0  0  0  0
    6.6963  -14.3921   21.2315 C   0  0  0  0  0  0  0  0  0  0  0  0
    7.4262  -14.3491   22.5252 C   0  0  0  0  0  0  0  0  0  0  0  0
    8.6289  -14.6546   22.5888 O   0  0  0  0  0  0  0  0  0  0  0  0
    6.6497  -10.4636   26.1439 C   0  0  0  0  0  0  0  0  0  0  0  0
    7.2156  -11.5722   25.2834 C   0  0  0  0  0  0  0  0  0  0  0  0
    7.0152  -12.9239   25.9401 C   0  0  2  0  0  0  0  0  0  0  0  0
    7.7792  -12.9556   27.2463 C   0  0  0  0  0  0  0  0  0  0  0  0
    7.4219  -14.0543   25.0344 C   0  0  2  0  0  0  0  0  0  0  0  0
    6.7703  -13.9542   23.7446 N   0  0  0  0  0  0  0  0  0  0  0  0
    7.1450  -15.3857   25.6575 C   0  0  0  0  0  0  0  0  0  0  0  0
    5.9552  -15.7245   25.8299 O   0  0  0  0  0  0  0  0  0  0  0  0
    4.6055  -22.5925   23.3400 N   0  0  0  0  0  0  0  0  0  0  0  0
    5.3956  -22.7219   24.5146 C   0  0  0  0  0  0  0  0  0  0  0  0
    5.2489  -23.7674   25.2697 N   0  0  0  0  0  0  0  0  0  0  0  0
    6.3419  -21.7394   24.8864 N   0  0  0  0  0  0  0  0  0  0  0  0
    6.4267  -20.4437   24.1273 C   0  0  0  0  0  0  0  0  0  0  0  0
    7.6048  -19.7526   24.6683 C   0  0  0  0  0  0  0  0  0  0  0  0
    7.6754  -18.3063   24.8876 C   0  0  0  0  0  0  0  0  0  0  0  0
    8.0185  -17.7294   26.1796 C   0  0  2  0  0  0  0  0  0  0  0  0
    8.1780  -16.2473   26.0460 N   0  0  0  0  0  0  0  0  0  0  0  0
    9.3453  -18.2049   26.7026 C   0  0  0  0  0  0  0  0  0  0  0  0
   10.4926  -17.3913   26.4399 O   0  0  0  0  0  0  0  0  0  0  0  0
    9.5845  -19.2235   27.3436 O   0  0  0  0  0  0  0  0  0  0  0  0
  2  1  1  0
  3  2  1  0
  4  3  2  0
  5  6  1  0
  6  7  1  0
  7  9  1  0
  7  8  1  1
  9 10  1  6
 10  3  1  0
 11 21  1  0
 11  9  1  0
 12 11  2  0
 13 14  1  0
 14 15  2  0
 16 14  1  0
 17 16  1  0
 18 17  1  0
 19 18  1  0
 20 19  1  6
 20 21  1  0
 22 20  1  0
 22 23  1  0
 24 22  2  0
M  END
$$$$
