VED.pdb
     RDKit          3D

 25 24  0  0  1  0  0  0  0  0999 V2000
    7.3438  -12.1930   19.2715 C   0  0  0  0  0  0  0  0  0  0  0  0
    8.5116  -13.0754   19.6161 C   0  0  1  0  0  0  0  0  0  0  0  0
    8.1617  -13.9737   20.7550 C   0  0  0  0  0  0  0  0  0  0  0  0
    8.9664  -13.8760   18.3870 C   0  0  2  0  0  0  0  0  0  0  0  0
    7.8364  -14.7257   18.0567 N   0  0  0  0  0  0  0  0  0  0  0  0
   10.1494  -14.6727   18.8003 C   0  0  0  0  0  0  0  0  0  0  0  0
   10.0016  -15.8253   19.2810 O   0  0  0  0  0  0  0  0  0  0  0  0
   11.4933  -14.2084   18.6872 N   0  0  0  0  0  0  0  0  0  0  0  0
   12.6261  -15.0488   19.0187 C   0  0  1  0  0  0  0  0  0  0  0  0
   13.7857  -14.5286   18.1756 C   0  0  0  0  0  0  0  0  0  0  0  0
   15.0583  -15.3155   18.4094 C   0  0  0  0  0  0  0  0  0  0  0  0
   16.1172  -14.7790   17.5471 C   0  0  0  0  0  0  0  0  0  0  0  0
   16.9547  -13.9626   18.0023 O   0  0  0  0  0  0  0  0  0  0  0  0
   12.9512  -14.9992   20.4590 C   0  0  0  0  0  0  0  0  0  0  0  0
   12.9611  -13.9316   21.1237 O   0  0  0  0  0  0  0  0  0  0  0  0
   16.2293  -15.1519   16.2091 O   0  0  0  0  0  0  0  0  0  0  0  0
   13.2638  -16.1942   21.1244 N   0  0  0  0  0  0  0  0  0  0  0  0
   13.5850  -16.1692   22.5682 C   0  0  1  0  0  0  0  0  0  0  0  0
   12.9180  -17.3146   23.2502 C   0  0  0  0  0  0  0  0  0  0  0  0
   13.2014  -17.4913   24.6692 C   0  0  0  0  0  0  0  0  0  0  0  0
   13.9887  -16.7859   25.3069 O   0  0  0  0  0  0  0  0  0  0  0  0
   15.0597  -16.1843   22.7175 C   0  0  0  0  0  0  0  0  0  0  0  0
   15.8263  -16.6084   21.7960 O   0  0  0  0  0  0  0  0  0  0  0  0
   12.5605  -18.5109   25.3784 O   0  0  0  0  0  0  0  0  0  0  0  0
   15.6508  -15.7366   23.8629 O   0  0  0  0  0  0  0  0  0  0  0  0
  2  4  1  0
  2  3  1  1
  2  1  1  0
  4  5  1  1
  6  7  2  0
  6  4  1  0
  8  6  1  0
  9  8  1  0
  9 10  1  6
 11 10  1  0
 12 11  1  0
 13 12  2  0
 14  9  1  0
 15 14  2  0
 16 12  1  0
 17 14  1  0
 18 17  1  0
 18 22  1  0
 19 20  1  0
 18 19  1  1
 20 24  1  0
 20 21  2  0
 22 25  1  0
 23 22  2  0
M  END
$$$$
