VED.pdb
     RDKit          3D

 25 24  0  0  1  0  0  0  0  0999 V2000
   12.6784  -16.4606   17.7154 C   0  0  0  0  0  0  0  0  0  0  0  0
   11.7261  -15.3374   17.4117 C   0  0  1  0  0  0  0  0  0  0  0  0
   11.1710  -15.4889   16.0349 C   0  0  0  0  0  0  0  0  0  0  0  0
   10.6099  -15.2743   18.4647 C   0  0  2  0  0  0  0  0  0  0  0  0
    9.8429  -14.0895   18.1242 N   0  0  0  0  0  0  0  0  0  0  0  0
   11.2683  -15.1397   19.7888 C   0  0  0  0  0  0  0  0  0  0  0  0
   11.9125  -14.0980   20.0741 O   0  0  0  0  0  0  0  0  0  0  0  0
   11.2215  -16.1443   20.8003 N   0  0  0  0  0  0  0  0  0  0  0  0
   11.8721  -15.9724   22.0834 C   0  0  1  0  0  0  0  0  0  0  0  0
   11.2685  -17.0342   22.9969 C   0  0  0  0  0  0  0  0  0  0  0  0
   11.8777  -17.0067   24.3831 C   0  0  0  0  0  0  0  0  0  0  0  0
   11.2546  -18.0542   25.1999 C   0  0  0  0  0  0  0  0  0  0  0  0
   11.0088  -17.8514   26.4137 O   0  0  0  0  0  0  0  0  0  0  0  0
   13.3384  -16.1246   21.9870 C   0  0  0  0  0  0  0  0  0  0  0  0
   13.8911  -17.0340   21.3168 O   0  0  0  0  0  0  0  0  0  0  0  0
   10.9180  -19.2957   24.6639 O   0  0  0  0  0  0  0  0  0  0  0  0
   14.1602  -15.2162   22.6711 N   0  0  0  0  0  0  0  0  0  0  0  0
   15.6311  -15.3357   22.5704 C   0  0  1  0  0  0  0  0  0  0  0  0
   16.2042  -14.0588   22.0577 C   0  0  0  0  0  0  0  0  0  0  0  0
   17.2618  -14.1655   21.0601 C   0  0  0  0  0  0  0  0  0  0  0  0
   18.2530  -14.8911   21.1828 O   0  0  0  0  0  0  0  0  0  0  0  0
   16.1598  -15.7153   23.9022 C   0  0  0  0  0  0  0  0  0  0  0  0
   15.4230  -15.7390   24.9382 O   0  0  0  0  0  0  0  0  0  0  0  0
   17.1786  -13.4146   19.8843 O   0  0  0  0  0  0  0  0  0  0  0  0
   17.4711  -16.0570   24.0622 O   0  0  0  0  0  0  0  0  0  0  0  0
  2  4  1  0
  2  3  1  6
  2  1  1  0
  4  5  1  6
  6  7  2  0
  6  4  1  0
  8  6  1  0
  9  8  1  0
  9 10  1  1
 11 10  1  0
 12 11  1  0
 13 12  2  0
 14  9  1  0
 15 14  2  0
 16 12  1  0
 17 14  1  0
 18 17  1  0
 18 22  1  0
 19 20  1  0
 18 19  1  1
 20 24  1  0
 20 21  2  0
 22 25  1  0
 23 22  2  0
M  END
$$$$
