VED.pdb
     RDKit          3D

 25 24  0  0  1  0  0  0  0  0999 V2000
    8.5744  -13.4264   22.0850 C   0  0  0  0  0  0  0  0  0  0  0  0
    7.6812  -13.8728   20.9608 C   0  0  1  0  0  0  0  0  0  0  0  0
    7.0903  -12.6896   20.2697 C   0  0  0  0  0  0  0  0  0  0  0  0
    8.4515  -14.7701   19.9810 C   0  0  2  0  0  0  0  0  0  0  0  0
    7.4662  -15.1775   18.9954 N   0  0  0  0  0  0  0  0  0  0  0  0
    8.9598  -15.9280   20.7594 C   0  0  0  0  0  0  0  0  0  0  0  0
    8.1788  -16.8494   21.1093 O   0  0  0  0  0  0  0  0  0  0  0  0
   10.3223  -16.0775   21.1544 N   0  0  0  0  0  0  0  0  0  0  0  0
   10.8134  -17.2930   21.7714 C   0  0  1  0  0  0  0  0  0  0  0  0
   12.0768  -17.6643   21.0017 C   0  0  0  0  0  0  0  0  0  0  0  0
   11.7631  -18.2715   19.6503 C   0  0  0  0  0  0  0  0  0  0  0  0
   13.0207  -18.6130   18.9763 C   0  0  0  0  0  0  0  0  0  0  0  0
   13.9922  -17.8190   19.0035 O   0  0  0  0  0  0  0  0  0  0  0  0
   11.1009  -17.1087   23.2088 C   0  0  0  0  0  0  0  0  0  0  0  0
   11.5915  -16.0510   23.6802 O   0  0  0  0  0  0  0  0  0  0  0  0
   13.1793  -19.8157   18.2905 O   0  0  0  0  0  0  0  0  0  0  0  0
   10.8158  -18.1572   24.0965 N   0  0  0  0  0  0  0  0  0  0  0  0
   11.1460  -18.0158   25.5314 C   0  0  1  0  0  0  0  0  0  0  0  0
   10.1173  -18.7135   26.3540 C   0  0  0  0  0  0  0  0  0  0  0  0
   10.3264  -18.7275   27.7966 C   0  0  0  0  0  0  0  0  0  0  0  0
   11.2869  -18.1923   28.3580 O   0  0  0  0  0  0  0  0  0  0  0  0
   12.5153  -18.5405   25.7480 C   0  0  0  0  0  0  0  0  0  0  0  0
   12.8879  -19.6642   25.2841 O   0  0  0  0  0  0  0  0  0  0  0  0
    9.4033  -19.3770   28.6207 O   0  0  0  0  0  0  0  0  0  0  0  0
   13.4333  -17.8252   26.4605 O   0  0  0  0  0  0  0  0  0  0  0  0
  2  4  1  0
  2  3  1  6
  2  1  1  0
  4  5  1  6
  6  7  2  0
  6  4  1  0
  8  6  1  0
  9  8  1  0
  9 10  1  6
 11 10  1  0
 12 11  1  0
 13 12  2  0
 14  9  1  0
 15 14  2  0
 16 12  1  0
 17 14  1  0
 18 17  1  0
 18 22  1  0
 19 20  1  0
 18 19  1  1
 20 24  1  0
 20 21  2  0
 22 25  1  0
 23 22  2  0
M  END
$$$$
