VED.pdb
     RDKit          3D

 25 24  0  0  1  0  0  0  0  0999 V2000
    7.8459  -11.5756   19.2374 C   0  0  0  0  0  0  0  0  0  0  0  0
    8.6390  -12.7630   19.7086 C   0  0  1  0  0  0  0  0  0  0  0  0
    7.9548  -13.4159   20.8629 C   0  0  0  0  0  0  0  0  0  0  0  0
    8.8679  -13.7527   18.5569 C   0  0  2  0  0  0  0  0  0  0  0  0
    7.5481  -14.2690   18.2413 N   0  0  0  0  0  0  0  0  0  0  0  0
    9.7652  -14.8183   19.0711 C   0  0  0  0  0  0  0  0  0  0  0  0
    9.2836  -15.8690   19.5666 O   0  0  0  0  0  0  0  0  0  0  0  0
   11.1889  -14.7343   19.0427 N   0  0  0  0  0  0  0  0  0  0  0  0
   12.0312  -15.8289   19.4804 C   0  0  1  0  0  0  0  0  0  0  0  0
   13.1769  -15.8942   18.4758 C   0  0  0  0  0  0  0  0  0  0  0  0
   14.1702  -16.9862   18.8143 C   0  0  0  0  0  0  0  0  0  0  0  0
   15.2215  -17.0098   17.7913 C   0  0  0  0  0  0  0  0  0  0  0  0
   16.2198  -16.2555   17.8886 O   0  0  0  0  0  0  0  0  0  0  0  0
   12.5380  -15.6246   20.8530 C   0  0  0  0  0  0  0  0  0  0  0  0
   12.9093  -14.5043   21.2876 O   0  0  0  0  0  0  0  0  0  0  0  0
   15.1501  -17.8596   16.6893 O   0  0  0  0  0  0  0  0  0  0  0  0
   12.6111  -16.7260   21.7191 N   0  0  0  0  0  0  0  0  0  0  0  0
   12.9877  -16.5238   23.1352 C   0  0  1  0  0  0  0  0  0  0  0  0
   12.1793  -17.4267   24.0030 C   0  0  0  0  0  0  0  0  0  0  0  0
   12.5360  -17.4752   25.4157 C   0  0  0  0  0  0  0  0  0  0  0  0
   12.7530  -16.4745   26.1054 O   0  0  0  0  0  0  0  0  0  0  0  0
   14.4472  -16.7479   23.2655 C   0  0  0  0  0  0  0  0  0  0  0  0
   15.0479  -16.6458   24.3815 O   0  0  0  0  0  0  0  0  0  0  0  0
   12.6474  -18.7122   26.0564 O   0  0  0  0  0  0  0  0  0  0  0  0
   15.2036  -17.0764   22.1784 O   0  0  0  0  0  0  0  0  0  0  0  0
  2  4  1  0
  2  3  1  1
  2  1  1  0
  4  5  1  1
  6  7  2  0
  6  4  1  0
  8  6  1  0
  9  8  1  0
  9 10  1  6
 11 10  1  0
 12 11  1  0
 13 12  2  0
 14  9  1  0
 15 14  2  0
 16 12  1  0
 17 14  1  0
 18 17  1  0
 18 22  1  0
 19 20  1  0
 18 19  1  1
 20 24  1  0
 20 21  2  0
 22 25  1  0
 23 22  2  0
M  END
$$$$
