VED.pdb
     RDKit          3D

 25 24  0  0  1  0  0  0  0  0999 V2000
    7.3084  -14.8803   17.8731 C   0  0  0  0  0  0  0  0  0  0  0  0
    7.9095  -13.5313   18.1557 C   0  0  1  0  0  0  0  0  0  0  0  0
    6.9192  -12.4535   17.8652 C   0  0  0  0  0  0  0  0  0  0  0  0
    8.4143  -13.4563   19.6042 C   0  0  2  0  0  0  0  0  0  0  0  0
    8.9036  -12.0980   19.7584 N   0  0  0  0  0  0  0  0  0  0  0  0
    9.5084  -14.4517   19.7356 C   0  0  0  0  0  0  0  0  0  0  0  0
    9.2568  -15.6824   19.6768 O   0  0  0  0  0  0  0  0  0  0  0  0
   10.8770  -14.1003   19.9308 N   0  0  0  0  0  0  0  0  0  0  0  0
   11.9149  -15.1023   20.0648 C   0  0  1  0  0  0  0  0  0  0  0  0
   13.1107  -14.5635   19.2863 C   0  0  0  0  0  0  0  0  0  0  0  0
   14.2846  -15.5199   19.3108 C   0  0  0  0  0  0  0  0  0  0  0  0
   15.4090  -14.9150   18.5881 C   0  0  0  0  0  0  0  0  0  0  0  0
   16.5365  -15.4662   18.5910 O   0  0  0  0  0  0  0  0  0  0  0  0
   12.2679  -15.3501   21.4779 C   0  0  0  0  0  0  0  0  0  0  0  0
   12.4792  -14.4261   22.3044 O   0  0  0  0  0  0  0  0  0  0  0  0
   15.2671  -13.7222   17.8818 O   0  0  0  0  0  0  0  0  0  0  0  0
   12.3737  -16.6751   21.9273 N   0  0  0  0  0  0  0  0  0  0  0  0
   12.6894  -16.9467   23.3467 C   0  0  1  0  0  0  0  0  0  0  0  0
   12.0360  -18.2173   23.7715 C   0  0  0  0  0  0  0  0  0  0  0  0
   12.3582  -18.7093   25.1055 C   0  0  0  0  0  0  0  0  0  0  0  0
   13.4364  -19.2307   25.4049 O   0  0  0  0  0  0  0  0  0  0  0  0
   14.1636  -16.9736   23.4989 C   0  0  0  0  0  0  0  0  0  0  0  0
   14.9443  -17.0094   22.4960 O   0  0  0  0  0  0  0  0  0  0  0  0
   11.4118  -18.5992   26.1280 O   0  0  0  0  0  0  0  0  0  0  0  0
   14.7388  -16.9594   24.7362 O   0  0  0  0  0  0  0  0  0  0  0  0
  2  4  1  0
  2  3  1  1
  2  1  1  0
  4  5  1  6
  6  7  2  0
  6  4  1  0
  8  6  1  0
  9  8  1  0
  9 10  1  6
 11 10  1  0
 12 11  1  0
 13 12  2  0
 14  9  1  0
 15 14  2  0
 16 12  1  0
 17 14  1  0
 18 17  1  0
 18 22  1  0
 19 20  1  0
 18 19  1  6
 20 24  1  0
 20 21  2  0
 22 25  1  0
 23 22  2  0
M  END
$$$$
