VED.pdb
     RDKit          3D

 25 24  0  0  1  0  0  0  0  0999 V2000
    8.0254  -11.5588   19.3901 C   0  0  0  0  0  0  0  0  0  0  0  0
    8.7328  -12.7878   19.8902 C   0  0  1  0  0  0  0  0  0  0  0  0
    7.9133  -13.4655   20.9370 C   0  0  0  0  0  0  0  0  0  0  0  0
    9.0569  -13.7369   18.7272 C   0  0  2  0  0  0  0  0  0  0  0  0
    7.7641  -14.1733   18.2310 N   0  0  0  0  0  0  0  0  0  0  0  0
    9.8373  -14.8667   19.2925 C   0  0  0  0  0  0  0  0  0  0  0  0
    9.2903  -15.6889   20.0711 O   0  0  0  0  0  0  0  0  0  0  0  0
   11.2155  -15.0969   19.0055 N   0  0  0  0  0  0  0  0  0  0  0  0
   11.9525  -16.1898   19.6068 C   0  0  1  0  0  0  0  0  0  0  0  0
   12.3388  -17.1100   18.4535 C   0  0  0  0  0  0  0  0  0  0  0  0
   11.1565  -17.9023   17.9360 C   0  0  0  0  0  0  0  0  0  0  0  0
   11.6264  -18.8578   16.9266 C   0  0  0  0  0  0  0  0  0  0  0  0
   12.8547  -19.0585   16.7649 O   0  0  0  0  0  0  0  0  0  0  0  0
   13.1484  -15.7183   20.3349 C   0  0  0  0  0  0  0  0  0  0  0  0
   13.7197  -14.6269   20.0819 O   0  0  0  0  0  0  0  0  0  0  0  0
   10.7372  -19.5673   16.1218 O   0  0  0  0  0  0  0  0  0  0  0  0
   13.6778  -16.5190   21.3583 N   0  0  0  0  0  0  0  0  0  0  0  0
   14.9076  -16.0943   22.0622 C   0  0  1  0  0  0  0  0  0  0  0  0
   14.6460  -16.0184   23.5276 C   0  0  0  0  0  0  0  0  0  0  0  0
   15.8001  -15.8046   24.3922 C   0  0  0  0  0  0  0  0  0  0  0  0
   16.4880  -16.7169   24.8600 O   0  0  0  0  0  0  0  0  0  0  0  0
   15.9934  -17.0419   21.7152 C   0  0  0  0  0  0  0  0  0  0  0  0
   15.7548  -18.2358   21.3488 O   0  0  0  0  0  0  0  0  0  0  0  0
   16.1761  -14.5018   24.7304 O   0  0  0  0  0  0  0  0  0  0  0  0
   17.3016  -16.6588   21.7772 O   0  0  0  0  0  0  0  0  0  0  0  0
  2  4  1  0
  2  3  1  1
  2  1  1  0
  4  5  1  1
  6  7  2  0
  6  4  1  0
  8  6  1  0
  9  8  1  0
  9 10  1  6
 11 10  1  0
 12 11  1  0
 13 12  2  0
 14  9  1  0
 15 14  2  0
 16 12  1  0
 17 14  1  0
 18 17  1  0
 18 22  1  0
 19 20  1  0
 18 19  1  1
 20 24  1  0
 20 21  2  0
 22 25  1  0
 23 22  2  0
M  END
$$$$
