VED.pdb
     RDKit          3D

 25 24  0  0  1  0  0  0  0  0999 V2000
    7.3475  -13.1422   22.0442 C   0  0  0  0  0  0  0  0  0  0  0  0
    8.2366  -14.2828   22.4558 C   0  0  1  0  0  0  0  0  0  0  0  0
    7.5440  -15.1406   23.4613 C   0  0  0  0  0  0  0  0  0  0  0  0
    8.6763  -15.0961   21.2296 C   0  0  2  0  0  0  0  0  0  0  0  0
    7.4590  -15.7157   20.7372 N   0  0  0  0  0  0  0  0  0  0  0  0
    9.6527  -16.1081   21.7064 C   0  0  0  0  0  0  0  0  0  0  0  0
    9.2606  -17.2467   22.0687 O   0  0  0  0  0  0  0  0  0  0  0  0
   11.0576  -15.8744   21.7863 N   0  0  0  0  0  0  0  0  0  0  0  0
   11.9663  -16.8479   22.3570 C   0  0  1  0  0  0  0  0  0  0  0  0
   13.3627  -16.2596   22.1829 C   0  0  0  0  0  0  0  0  0  0  0  0
   14.4436  -17.2058   22.6621 C   0  0  0  0  0  0  0  0  0  0  0  0
   15.7346  -16.7726   22.1159 C   0  0  0  0  0  0  0  0  0  0  0  0
   16.3021  -17.4425   21.2191 O   0  0  0  0  0  0  0  0  0  0  0  0
   11.6739  -17.1119   23.7809 C   0  0  0  0  0  0  0  0  0  0  0  0
   11.1001  -16.2798   24.5292 O   0  0  0  0  0  0  0  0  0  0  0  0
   16.3686  -15.6169   22.5677 O   0  0  0  0  0  0  0  0  0  0  0  0
   12.0498  -18.3462   24.3321 N   0  0  0  0  0  0  0  0  0  0  0  0
   11.6378  -18.6919   25.7101 C   0  0  1  0  0  0  0  0  0  0  0  0
   11.0093  -17.5058   26.3581 C   0  0  0  0  0  0  0  0  0  0  0  0
   10.9199  -17.5207   27.8131 C   0  0  0  0  0  0  0  0  0  0  0  0
   10.4014  -16.6204   28.4801 O   0  0  0  0  0  0  0  0  0  0  0  0
   10.7334  -19.8646   25.6454 C   0  0  0  0  0  0  0  0  0  0  0  0
    9.6745  -19.8612   24.9416 O   0  0  0  0  0  0  0  0  0  0  0  0
   11.4429  -18.6039   28.5247 O   0  0  0  0  0  0  0  0  0  0  0  0
   11.0117  -21.0013   26.3470 O   0  0  0  0  0  0  0  0  0  0  0  0
  2  4  1  0
  2  3  1  1
  2  1  1  0
  4  5  1  1
  6  7  2  0
  6  4  1  0
  8  6  1  0
  9  8  1  0
  9 10  1  1
 11 10  1  0
 12 11  1  0
 13 12  2  0
 14  9  1  0
 15 14  2  0
 16 12  1  0
 17 14  1  0
 18 17  1  0
 18 22  1  0
 19 20  1  0
 18 19  1  6
 20 24  1  0
 20 21  2  0
 22 25  1  0
 23 22  2  0
M  END
$$$$
