VED.pdb
     RDKit          3D

 25 24  0  0  1  0  0  0  0  0999 V2000
    9.5905  -12.4636   19.3436 C   0  0  0  0  0  0  0  0  0  0  0  0
    8.2992  -13.2340   19.3322 C   0  0  1  0  0  0  0  0  0  0  0  0
    7.4079  -12.7321   18.2458 C   0  0  0  0  0  0  0  0  0  0  0  0
    8.5682  -14.7392   19.1893 C   0  0  2  0  0  0  0  0  0  0  0  0
    7.2533  -15.3426   19.0657 N   0  0  0  0  0  0  0  0  0  0  0  0
    9.2584  -15.1773   20.4289 C   0  0  0  0  0  0  0  0  0  0  0  0
    8.8690  -14.7652   21.5514 O   0  0  0  0  0  0  0  0  0  0  0  0
   10.3739  -16.0662   20.4402 N   0  0  0  0  0  0  0  0  0  0  0  0
   10.9919  -16.5066   21.6744 C   0  0  1  0  0  0  0  0  0  0  0  0
   10.4084  -17.8870   21.9577 C   0  0  0  0  0  0  0  0  0  0  0  0
    8.9485  -17.8182   22.3544 C   0  0  0  0  0  0  0  0  0  0  0  0
    8.4651  -19.1747   22.6351 C   0  0  0  0  0  0  0  0  0  0  0  0
    7.2550  -19.4646   22.4715 O   0  0  0  0  0  0  0  0  0  0  0  0
   12.4644  -16.5628   21.5685 C   0  0  0  0  0  0  0  0  0  0  0  0
   13.0629  -17.1503   20.6313 O   0  0  0  0  0  0  0  0  0  0  0  0
    9.3213  -20.1767   23.0875 O   0  0  0  0  0  0  0  0  0  0  0  0
   13.2390  -15.9335   22.5547 N   0  0  0  0  0  0  0  0  0  0  0  0
   14.7130  -16.0528   22.5187 C   0  0  1  0  0  0  0  0  0  0  0  0
   15.3128  -14.7442   22.1316 C   0  0  0  0  0  0  0  0  0  0  0  0
   15.7545  -14.6056   20.7493 C   0  0  0  0  0  0  0  0  0  0  0  0
   15.6678  -15.5030   19.9058 O   0  0  0  0  0  0  0  0  0  0  0  0
   15.1738  -16.5328   23.8433 C   0  0  0  0  0  0  0  0  0  0  0  0
   16.3915  -16.8202   24.0700 O   0  0  0  0  0  0  0  0  0  0  0  0
   16.3138  -13.3982   20.3221 O   0  0  0  0  0  0  0  0  0  0  0  0
   14.2954  -16.6829   24.8766 O   0  0  0  0  0  0  0  0  0  0  0  0
  2  4  1  0
  2  3  1  6
  2  1  1  0
  4  5  1  1
  6  7  2  0
  6  4  1  0
  8  6  1  0
  9  8  1  0
  9 10  1  6
 11 10  1  0
 12 11  1  0
 13 12  2  0
 14  9  1  0
 15 14  2  0
 16 12  1  0
 17 14  1  0
 18 17  1  0
 18 22  1  0
 19 20  1  0
 18 19  1  1
 20 24  1  0
 20 21  2  0
 22 25  1  0
 23 22  2  0
M  END
$$$$
