VED.pdb
     RDKit          3D

 25 24  0  0  1  0  0  0  0  0999 V2000
    9.3105  -12.6212   20.1356 C   0  0  0  0  0  0  0  0  0  0  0  0
    8.2143  -13.4088   19.4731 C   0  0  1  0  0  0  0  0  0  0  0  0
    7.2725  -12.4909   18.7681 C   0  0  0  0  0  0  0  0  0  0  0  0
    8.8024  -14.4556   18.5157 C   0  0  2  0  0  0  0  0  0  0  0  0
    7.6565  -15.2065   18.0350 N   0  0  0  0  0  0  0  0  0  0  0  0
    9.7208  -15.3072   19.3134 C   0  0  0  0  0  0  0  0  0  0  0  0
    9.2640  -16.0866   20.1883 O   0  0  0  0  0  0  0  0  0  0  0  0
   11.1382  -15.3061   19.1536 N   0  0  0  0  0  0  0  0  0  0  0  0
   12.0008  -16.1564   19.9487 C   0  0  1  0  0  0  0  0  0  0  0  0
   13.3837  -16.0484   19.3146 C   0  0  0  0  0  0  0  0  0  0  0  0
   14.3850  -16.9772   19.9690 C   0  0  0  0  0  0  0  0  0  0  0  0
   15.7190  -16.7026   19.4236 C   0  0  0  0  0  0  0  0  0  0  0  0
   16.5690  -16.0809   20.1063 O   0  0  0  0  0  0  0  0  0  0  0  0
   12.0321  -15.7440   21.3670 C   0  0  0  0  0  0  0  0  0  0  0  0
   11.5373  -14.6634   21.7784 O   0  0  0  0  0  0  0  0  0  0  0  0
   16.0852  -17.1169   18.1445 O   0  0  0  0  0  0  0  0  0  0  0  0
   12.6396  -16.5916   22.3057 N   0  0  0  0  0  0  0  0  0  0  0  0
   12.1953  -16.5644   23.7164 C   0  0  1  0  0  0  0  0  0  0  0  0
   10.7210  -16.7736   23.7821 C   0  0  0  0  0  0  0  0  0  0  0  0
   10.1234  -16.8352   25.1104 C   0  0  0  0  0  0  0  0  0  0  0  0
   10.7735  -16.8074   26.1595 O   0  0  0  0  0  0  0  0  0  0  0  0
   12.9606  -17.5894   24.4654 C   0  0  0  0  0  0  0  0  0  0  0  0
   12.8021  -17.7703   25.7140 O   0  0  0  0  0  0  0  0  0  0  0  0
    8.7350  -16.9323   25.2377 O   0  0  0  0  0  0  0  0  0  0  0  0
   13.8712  -18.3836   23.8314 O   0  0  0  0  0  0  0  0  0  0  0  0
  2  4  1  0
  2  3  1  6
  2  1  1  0
  4  5  1  1
  6  7  2  0
  6  4  1  0
  8  6  1  0
  9  8  1  0
  9 10  1  6
 11 10  1  0
 12 11  1  0
 13 12  2  0
 14  9  1  0
 15 14  2  0
 16 12  1  0
 17 14  1  0
 18 17  1  0
 18 22  1  0
 19 20  1  0
 18 19  1  6
 20 24  1  0
 20 21  2  0
 22 25  1  0
 23 22  2  0
M  END
$$$$
