VED.pdb
     RDKit          3D

 25 24  0  0  1  0  0  0  0  0999 V2000
    9.4391  -12.6548   19.9714 C   0  0  0  0  0  0  0  0  0  0  0  0
    8.1569  -13.2247   19.4311 C   0  0  1  0  0  0  0  0  0  0  0  0
    7.3373  -12.1476   18.8028 C   0  0  0  0  0  0  0  0  0  0  0  0
    8.4450  -14.3626   18.4409 C   0  0  2  0  0  0  0  0  0  0  0  0
    7.1387  -14.8886   18.0873 N   0  0  0  0  0  0  0  0  0  0  0  0
    9.2648  -15.3692   19.1617 C   0  0  0  0  0  0  0  0  0  0  0  0
    8.7407  -16.1067   20.0350 O   0  0  0  0  0  0  0  0  0  0  0  0
   10.6575  -15.5688   18.9266 N   0  0  0  0  0  0  0  0  0  0  0  0
   11.4439  -16.4953   19.7156 C   0  0  1  0  0  0  0  0  0  0  0  0
   12.4972  -17.0550   18.7650 C   0  0  0  0  0  0  0  0  0  0  0  0
   11.8862  -17.9207   17.6830 C   0  0  0  0  0  0  0  0  0  0  0  0
   12.9584  -18.4545   16.8357 C   0  0  0  0  0  0  0  0  0  0  0  0
   13.4182  -19.6039   17.0414 O   0  0  0  0  0  0  0  0  0  0  0  0
   12.0731  -15.8380   20.8795 C   0  0  0  0  0  0  0  0  0  0  0  0
   11.7869  -14.6692   21.2449 O   0  0  0  0  0  0  0  0  0  0  0  0
   13.4976  -17.7137   15.7858 O   0  0  0  0  0  0  0  0  0  0  0  0
   13.0352  -16.5437   21.6178 N   0  0  0  0  0  0  0  0  0  0  0  0
   13.0972  -16.3834   23.0870 C   0  0  1  0  0  0  0  0  0  0  0  0
   11.7958  -16.7874   23.6910 C   0  0  0  0  0  0  0  0  0  0  0  0
   11.7226  -16.8040   25.1469 C   0  0  0  0  0  0  0  0  0  0  0  0
   12.6920  -16.6121   25.8869 O   0  0  0  0  0  0  0  0  0  0  0  0
   14.2427  -17.1760   23.5938 C   0  0  0  0  0  0  0  0  0  0  0  0
   15.2193  -16.6359   24.2031 O   0  0  0  0  0  0  0  0  0  0  0  0
   10.4973  -17.0491   25.7728 O   0  0  0  0  0  0  0  0  0  0  0  0
   14.2869  -18.5290   23.4221 O   0  0  0  0  0  0  0  0  0  0  0  0
  2  4  1  0
  2  3  1  6
  2  1  1  0
  4  5  1  1
  6  7  2  0
  6  4  1  0
  8  6  1  0
  9  8  1  0
  9 10  1  6
 11 10  1  0
 12 11  1  0
 13 12  2  0
 14  9  1  0
 15 14  2  0
 16 12  1  0
 17 14  1  0
 18 17  1  0
 18 22  1  0
 19 20  1  0
 18 19  1  1
 20 24  1  0
 20 21  2  0
 22 25  1  0
 23 22  2  0
M  END
$$$$
