VED.pdb
     RDKit          3D

 25 24  0  0  1  0  0  0  0  0999 V2000
    8.3518  -12.2398   25.8497 C   0  0  0  0  0  0  0  0  0  0  0  0
    7.0768  -12.4788   26.6102 C   0  0  1  0  0  0  0  0  0  0  0  0
    6.5734  -11.1991   27.1895 C   0  0  0  0  0  0  0  0  0  0  0  0
    6.0246  -13.1408   25.7084 C   0  0  2  0  0  0  0  0  0  0  0  0
    4.9279  -13.4754   26.5992 N   0  0  0  0  0  0  0  0  0  0  0  0
    6.6510  -14.3560   25.1290 C   0  0  0  0  0  0  0  0  0  0  0  0
    6.8727  -15.3614   25.8511 O   0  0  0  0  0  0  0  0  0  0  0  0
    7.0342  -14.4711   23.7598 N   0  0  0  0  0  0  0  0  0  0  0  0
    7.7458  -15.6286   23.2567 C   0  0  1  0  0  0  0  0  0  0  0  0
    7.7100  -15.5057   21.7369 C   0  0  0  0  0  0  0  0  0  0  0  0
    8.5276  -16.5848   21.0584 C   0  0  0  0  0  0  0  0  0  0  0  0
    8.4885  -16.3727   19.6072 C   0  0  0  0  0  0  0  0  0  0  0  0
    7.6834  -15.5503   19.1067 O   0  0  0  0  0  0  0  0  0  0  0  0
    9.1360  -15.6845   23.7535 C   0  0  0  0  0  0  0  0  0  0  0  0
    9.8580  -14.6636   23.8881 O   0  0  0  0  0  0  0  0  0  0  0  0
    9.3330  -17.0680   18.7439 O   0  0  0  0  0  0  0  0  0  0  0  0
    9.6841  -16.9304   24.0939 N   0  0  0  0  0  0  0  0  0  0  0  0
   11.0825  -17.0130   24.5692 C   0  0  1  0  0  0  0  0  0  0  0  0
   11.2272  -18.1649   25.5041 C   0  0  0  0  0  0  0  0  0  0  0  0
   10.6245  -18.0215   26.8237 C   0  0  0  0  0  0  0  0  0  0  0  0
   10.7221  -17.0054   27.5182 O   0  0  0  0  0  0  0  0  0  0  0  0
   11.9711  -17.1105   23.3868 C   0  0  0  0  0  0  0  0  0  0  0  0
   11.5132  -17.2527   22.2092 O   0  0  0  0  0  0  0  0  0  0  0  0
    9.8865  -19.0787   27.3631 O   0  0  0  0  0  0  0  0  0  0  0  0
   13.3273  -17.0490   23.5248 O   0  0  0  0  0  0  0  0  0  0  0  0
  2  4  1  0
  2  3  1  6
  2  1  1  0
  4  5  1  1
  6  7  2  0
  6  4  1  0
  8  6  1  0
  9  8  1  0
  9 10  1  6
 11 10  1  0
 12 11  1  0
 13 12  2  0
 14  9  1  0
 15 14  2  0
 16 12  1  0
 17 14  1  0
 18 17  1  0
 18 22  1  0
 19 20  1  0
 18 19  1  1
 20 24  1  0
 20 21  2  0
 22 25  1  0
 23 22  2  0
M  END
$$$$
