VED.pdb
     RDKit          3D

 25 24  0  0  1  0  0  0  0  0999 V2000
    7.5048  -12.5269   19.8180 C   0  0  0  0  0  0  0  0  0  0  0  0
    8.2159  -13.5543   20.6545 C   0  0  1  0  0  0  0  0  0  0  0  0
    7.4726  -13.7886   21.9270 C   0  0  0  0  0  0  0  0  0  0  0  0
    8.4056  -14.8580   19.8653 C   0  0  2  0  0  0  0  0  0  0  0  0
    7.0637  -15.2627   19.4862 N   0  0  0  0  0  0  0  0  0  0  0  0
    9.0338  -15.8374   20.7878 C   0  0  0  0  0  0  0  0  0  0  0  0
    8.3205  -16.5415   21.5473 O   0  0  0  0  0  0  0  0  0  0  0  0
   10.4419  -16.0463   20.8789 N   0  0  0  0  0  0  0  0  0  0  0  0
   11.0249  -16.9221   21.8751 C   0  0  1  0  0  0  0  0  0  0  0  0
   12.4905  -17.0753   21.4818 C   0  0  0  0  0  0  0  0  0  0  0  0
   12.6597  -17.9005   20.2233 C   0  0  0  0  0  0  0  0  0  0  0  0
   14.0822  -17.9421   19.8667 C   0  0  0  0  0  0  0  0  0  0  0  0
   14.8477  -18.7790   20.4040 O   0  0  0  0  0  0  0  0  0  0  0  0
   10.8950  -16.3733   23.2406 C   0  0  0  0  0  0  0  0  0  0  0  0
   10.2564  -15.3212   23.4993 O   0  0  0  0  0  0  0  0  0  0  0  0
   14.6271  -17.0652   18.9308 O   0  0  0  0  0  0  0  0  0  0  0  0
   11.5088  -17.0516   24.3045 N   0  0  0  0  0  0  0  0  0  0  0  0
   10.7925  -17.2044   25.5897 C   0  0  1  0  0  0  0  0  0  0  0  0
    9.5054  -17.9215   25.3644 C   0  0  0  0  0  0  0  0  0  0  0  0
    8.7343  -18.2781   26.5490 C   0  0  0  0  0  0  0  0  0  0  0  0
    9.1295  -18.1039   27.7056 O   0  0  0  0  0  0  0  0  0  0  0  0
   11.6877  -17.9049   26.5412 C   0  0  0  0  0  0  0  0  0  0  0  0
   12.0506  -17.3762   27.6392 O   0  0  0  0  0  0  0  0  0  0  0  0
    7.4692  -18.8534   26.4007 O   0  0  0  0  0  0  0  0  0  0  0  0
   12.1570  -19.1565   26.2672 O   0  0  0  0  0  0  0  0  0  0  0  0
  2  4  1  0
  2  3  1  1
  2  1  1  0
  4  5  1  1
  6  7  2  0
  6  4  1  0
  8  6  1  0
  9  8  1  0
  9 10  1  6
 11 10  1  0
 12 11  1  0
 13 12  2  0
 14  9  1  0
 15 14  2  0
 16 12  1  0
 17 14  1  0
 18 17  1  0
 18 22  1  0
 19 20  1  0
 18 19  1  6
 20 24  1  0
 20 21  2  0
 22 25  1  0
 23 22  2  0
M  END
$$$$
