VED.pdb
     RDKit          3D

 25 24  0  0  1  0  0  0  0  0999 V2000
    9.1317  -12.6888   20.3284 C   0  0  0  0  0  0  0  0  0  0  0  0
    8.1856  -13.5505   19.5389 C   0  0  1  0  0  0  0  0  0  0  0  0
    6.9392  -12.7934   19.2228 C   0  0  0  0  0  0  0  0  0  0  0  0
    8.8649  -14.0734   18.2647 C   0  0  2  0  0  0  0  0  0  0  0  0
    7.8700  -14.9219   17.6335 N   0  0  0  0  0  0  0  0  0  0  0  0
   10.0554  -14.8501   18.6940 C   0  0  0  0  0  0  0  0  0  0  0  0
    9.9212  -16.0081   19.1657 O   0  0  0  0  0  0  0  0  0  0  0  0
   11.3921  -14.3601   18.6067 N   0  0  0  0  0  0  0  0  0  0  0  0
   12.5347  -15.1811   18.9526 C   0  0  1  0  0  0  0  0  0  0  0  0
   13.6979  -14.6356   18.1307 C   0  0  0  0  0  0  0  0  0  0  0  0
   15.0067  -15.3162   18.4735 C   0  0  0  0  0  0  0  0  0  0  0  0
   16.0800  -14.7203   17.6701 C   0  0  0  0  0  0  0  0  0  0  0  0
   16.1756  -14.9787   16.4457 O   0  0  0  0  0  0  0  0  0  0  0  0
   12.8357  -15.1325   20.3982 C   0  0  0  0  0  0  0  0  0  0  0  0
   12.9905  -14.0567   21.0309 O   0  0  0  0  0  0  0  0  0  0  0  0
   17.0197  -13.8575   18.2307 O   0  0  0  0  0  0  0  0  0  0  0  0
   12.9554  -16.3380   21.1061 N   0  0  0  0  0  0  0  0  0  0  0  0
   13.1864  -16.3127   22.5670 C   0  0  1  0  0  0  0  0  0  0  0  0
   12.3165  -17.3254   23.2299 C   0  0  0  0  0  0  0  0  0  0  0  0
   12.5673  -17.5851   24.6423 C   0  0  0  0  0  0  0  0  0  0  0  0
   12.9743  -16.7326   25.4372 O   0  0  0  0  0  0  0  0  0  0  0  0
   14.6306  -16.5378   22.8139 C   0  0  0  0  0  0  0  0  0  0  0  0
   15.1261  -16.5134   23.9846 O   0  0  0  0  0  0  0  0  0  0  0  0
   12.3439  -18.8646   25.1582 O   0  0  0  0  0  0  0  0  0  0  0  0
   15.4866  -16.7830   21.7799 O   0  0  0  0  0  0  0  0  0  0  0  0
  2  4  1  0
  2  3  1  6
  2  1  1  0
  4  5  1  1
  6  7  2  0
  6  4  1  0
  8  6  1  0
  9  8  1  0
  9 10  1  6
 11 10  1  0
 12 11  1  0
 13 12  2  0
 14  9  1  0
 15 14  2  0
 16 12  1  0
 17 14  1  0
 18 17  1  0
 18 22  1  0
 19 20  1  0
 18 19  1  1
 20 24  1  0
 20 21  2  0
 22 25  1  0
 23 22  2  0
M  END
$$$$
