TGP.pdb
     RDKit          3D

 19 19  0  0  1  0  0  0  0  0999 V2000
    8.7509  -18.2173   18.5528 C   0  0  0  0  0  0  0  0  0  0  0  0
    8.0515  -17.4164   19.5971 C   0  0  1  0  0  0  0  0  0  0  0  0
    7.8127  -18.2506   20.7048 O   0  0  0  0  0  0  0  0  0  0  0  0
    8.8346  -16.2300   20.0615 C   0  0  2  0  0  0  0  0  0  0  0  0
   10.0566  -16.6882   20.6845 N   0  0  0  0  0  0  0  0  0  0  0  0
    7.9982  -15.4065   20.9749 C   0  0  0  0  0  0  0  0  0  0  0  0
    6.9166  -14.9040   20.5587 O   0  0  0  0  0  0  0  0  0  0  0  0
    8.3284  -15.1273   22.3271 N   0  0  0  0  0  0  0  0  0  0  0  0
    7.4580  -14.3905   23.2144 C   0  0  0  0  0  0  0  0  0  0  0  0
    8.0385  -14.2418   24.5902 C   0  0  0  0  0  0  0  0  0  0  0  0
    8.8521  -15.1174   24.9170 O   0  0  0  0  0  0  0  0  0  0  0  0
    7.6793  -13.1833   25.4389 N   0  0  0  0  0  0  0  0  0  0  0  0
    6.9948  -11.9784   24.8878 C   0  0  0  0  0  0  0  0  0  0  0  0
    6.1171  -11.4642   26.0022 C   0  0  0  0  0  0  0  0  0  0  0  0
    6.3364  -12.4509   27.1269 C   0  0  0  0  0  0  0  0  0  0  0  0
    7.8005  -12.8720   26.8177 C   0  0  1  0  0  0  0  0  0  0  0  0
    8.2439  -13.8770   27.7524 C   0  0  0  0  0  0  0  0  0  0  0  0
    7.8035  -15.0253   27.7863 O   0  0  0  0  0  0  0  0  0  0  0  0
    9.2387  -13.5720   28.7020 O   0  0  0  0  0  0  0  0  0  0  0  0
  2  1  1  6
  3  2  1  0
  4  2  1  0
  4  5  1  1
  6  8  1  0
  6  4  1  0
  7  6  2  0
  9  8  1  0
 10  9  1  0
 11 10  2  0
 12 10  1  0
 12 16  1  0
 13 14  1  0
 13 12  1  0
 14 15  1  0
 16 15  1  0
 17 19  1  0
 16 17  1  1
 18 17  2  0
M  END
$$$$
