TGP.pdb
     RDKit          3D

 19 19  0  0  1  0  0  0  0  0999 V2000
    7.8210  -12.3745   19.4197 C   0  0  0  0  0  0  0  0  0  0  0  0
    7.8976  -13.7429   18.8342 C   0  0  1  0  0  0  0  0  0  0  0  0
    8.6658  -13.6755   17.6573 O   0  0  0  0  0  0  0  0  0  0  0  0
    8.5240  -14.7474   19.7482 C   0  0  2  0  0  0  0  0  0  0  0  0
    8.6432  -16.0080   19.0498 N   0  0  0  0  0  0  0  0  0  0  0  0
    7.7214  -14.8558   20.9956 C   0  0  0  0  0  0  0  0  0  0  0  0
    7.1190  -15.9325   21.2667 O   0  0  0  0  0  0  0  0  0  0  0  0
    7.5700  -13.8087   21.9423 N   0  0  0  0  0  0  0  0  0  0  0  0
    6.8295  -13.9611   23.1736 C   0  0  0  0  0  0  0  0  0  0  0  0
    7.7253  -14.0076   24.3766 C   0  0  0  0  0  0  0  0  0  0  0  0
    8.5922  -14.8926   24.3550 O   0  0  0  0  0  0  0  0  0  0  0  0
    7.5836  -13.1086   25.4450 N   0  0  0  0  0  0  0  0  0  0  0  0
    6.9735  -11.7664   25.2208 C   0  0  0  0  0  0  0  0  0  0  0  0
    6.2921  -11.4077   26.5184 C   0  0  0  0  0  0  0  0  0  0  0  0
    6.5333  -12.6095   27.4038 C   0  0  0  0  0  0  0  0  0  0  0  0
    7.8974  -13.0833   26.8283 C   0  0  1  0  0  0  0  0  0  0  0  0
    8.3357  -14.2847   27.4952 C   0  0  0  0  0  0  0  0  0  0  0  0
    7.8376  -15.3942   27.3090 O   0  0  0  0  0  0  0  0  0  0  0  0
    9.3940  -14.2342   28.4235 O   0  0  0  0  0  0  0  0  0  0  0  0
  2  1  1  1
  3  2  1  0
  4  2  1  0
  4  5  1  6
  6  8  1  0
  6  4  1  0
  7  6  2  0
  9  8  1  0
 10  9  1  0
 11 10  2  0
 12 10  1  0
 12 16  1  0
 13 14  1  0
 13 12  1  0
 14 15  1  0
 16 15  1  0
 17 19  1  0
 16 17  1  1
 18 17  2  0
M  END
$$$$
