TGP.pdb
     RDKit          3D

 19 19  0  0  1  0  0  0  0  0999 V2000
    8.8316  -12.1039   18.3263 C   0  0  0  0  0  0  0  0  0  0  0  0
    8.2777  -13.1534   19.2279 C   0  0  1  0  0  0  0  0  0  0  0  0
    7.8029  -14.2118   18.4314 O   0  0  0  0  0  0  0  0  0  0  0  0
    9.2823  -13.7025   20.1901 C   0  0  2  0  0  0  0  0  0  0  0  0
   10.2613  -14.4747   19.4577 N   0  0  0  0  0  0  0  0  0  0  0  0
    8.5876  -14.5000   21.2358 C   0  0  0  0  0  0  0  0  0  0  0  0
    8.8733  -15.7204   21.3922 O   0  0  0  0  0  0  0  0  0  0  0  0
    7.5913  -13.9830   22.1051 N   0  0  0  0  0  0  0  0  0  0  0  0
    7.0564  -14.7282   23.2214 C   0  0  0  0  0  0  0  0  0  0  0  0
    7.8579  -14.5330   24.4750 C   0  0  0  0  0  0  0  0  0  0  0  0
    8.7230  -15.3942   24.6875 O   0  0  0  0  0  0  0  0  0  0  0  0
    7.6361  -13.4492   25.3387 N   0  0  0  0  0  0  0  0  0  0  0  0
    6.8601  -12.2642   24.8723 C   0  0  0  0  0  0  0  0  0  0  0  0
    6.1755  -11.7175   26.1008 C   0  0  0  0  0  0  0  0  0  0  0  0
    6.5863  -12.6676   27.2031 C   0  0  0  0  0  0  0  0  0  0  0  0
    7.9821  -13.0942   26.6679 C   0  0  1  0  0  0  0  0  0  0  0  0
    8.5824  -14.0680   27.5464 C   0  0  0  0  0  0  0  0  0  0  0  0
    9.4689  -13.8061   28.3583 O   0  0  0  0  0  0  0  0  0  0  0  0
    8.1611  -15.4116   27.5086 O   0  0  0  0  0  0  0  0  0  0  0  0
  2  1  1  6
  3  2  1  0
  4  2  1  0
  4  5  1  6
  6  8  1  0
  6  4  1  0
  7  6  2  0
  9  8  1  0
 10  9  1  0
 11 10  2  0
 12 10  1  0
 12 16  1  0
 13 14  1  0
 13 12  1  0
 14 15  1  0
 16 15  1  0
 17 19  1  0
 16 17  1  1
 18 17  2  0
M  END
$$$$
