TGP.pdb
     RDKit          3D

 19 19  0  0  1  0  0  0  0  0999 V2000
    7.8699  -12.3899   19.4978 C   0  0  0  0  0  0  0  0  0  0  0  0
    7.9342  -13.7818   18.9692 C   0  0  1  0  0  0  0  0  0  0  0  0
    8.7546  -13.7810   17.8262 O   0  0  0  0  0  0  0  0  0  0  0  0
    8.4919  -14.7653   19.9482 C   0  0  2  0  0  0  0  0  0  0  0  0
    8.6228  -16.0512   19.2996 N   0  0  0  0  0  0  0  0  0  0  0  0
    7.6230  -14.8164   21.1542 C   0  0  0  0  0  0  0  0  0  0  0  0
    6.9755  -15.8677   21.4212 O   0  0  0  0  0  0  0  0  0  0  0  0
    7.4543  -13.7398   22.0640 N   0  0  0  0  0  0  0  0  0  0  0  0
    6.6829  -13.8504   23.2808 C   0  0  0  0  0  0  0  0  0  0  0  0
    7.5502  -14.0225   24.4932 C   0  0  0  0  0  0  0  0  0  0  0  0
    8.3635  -14.9552   24.4319 O   0  0  0  0  0  0  0  0  0  0  0  0
    7.4406  -13.1820   25.6118 N   0  0  0  0  0  0  0  0  0  0  0  0
    6.7261  -11.8775   25.5035 C   0  0  0  0  0  0  0  0  0  0  0  0
    6.1352  -11.6231   26.8684 C   0  0  0  0  0  0  0  0  0  0  0  0
    6.5298  -12.8418   27.6719 C   0  0  0  0  0  0  0  0  0  0  0  0
    7.8684  -13.1939   26.9644 C   0  0  1  0  0  0  0  0  0  0  0  0
    8.4404  -14.3890   27.5343 C   0  0  0  0  0  0  0  0  0  0  0  0
    9.5378  -14.4280   28.0890 O   0  0  0  0  0  0  0  0  0  0  0  0
    7.7374  -15.6084   27.4763 O   0  0  0  0  0  0  0  0  0  0  0  0
  2  1  1  1
  3  2  1  0
  4  2  1  0
  4  5  1  6
  6  8  1  0
  6  4  1  0
  7  6  2  0
  9  8  1  0
 10  9  1  0
 11 10  2  0
 12 10  1  0
 12 16  1  0
 13 14  1  0
 13 12  1  0
 14 15  1  0
 16 15  1  0
 17 19  1  0
 16 17  1  1
 18 17  2  0
M  END
$$$$
