TGP.pdb
     RDKit          3D

 19 19  0  0  1  0  0  0  0  0999 V2000
    9.3061  -15.8902   20.1618 C   0  0  0  0  0  0  0  0  0  0  0  0
    9.3542  -14.5361   19.5414 C   0  0  1  0  0  0  0  0  0  0  0  0
    9.8225  -14.6732   18.2217 O   0  0  0  0  0  0  0  0  0  0  0  0
    8.0247  -13.8524   19.5003 C   0  0  2  0  0  0  0  0  0  0  0  0
    8.0944  -12.7448   18.5732 N   0  0  0  0  0  0  0  0  0  0  0  0
    7.6388  -13.4288   20.8728 C   0  0  0  0  0  0  0  0  0  0  0  0
    8.2501  -12.4767   21.4345 O   0  0  0  0  0  0  0  0  0  0  0  0
    6.6012  -14.0299   21.6328 N   0  0  0  0  0  0  0  0  0  0  0  0
    6.1884  -13.5400   22.9280 C   0  0  0  0  0  0  0  0  0  0  0  0
    7.2172  -13.7964   23.9899 C   0  0  0  0  0  0  0  0  0  0  0  0
    7.9936  -14.7336   23.7569 O   0  0  0  0  0  0  0  0  0  0  0  0
    7.2872  -13.0245   25.1600 N   0  0  0  0  0  0  0  0  0  0  0  0
    6.7786  -11.6226   25.1659 C   0  0  0  0  0  0  0  0  0  0  0  0
    6.2937  -11.3721   26.5726 C   0  0  0  0  0  0  0  0  0  0  0  0
    6.5298  -12.6867   27.2816 C   0  0  0  0  0  0  0  0  0  0  0  0
    7.7662  -13.1900   26.4850 C   0  0  1  0  0  0  0  0  0  0  0  0
    8.1709  -14.4929   26.9530 C   0  0  0  0  0  0  0  0  0  0  0  0
    7.5534  -15.5302   26.7156 O   0  0  0  0  0  0  0  0  0  0  0  0
    9.3360  -14.6358   27.7318 O   0  0  0  0  0  0  0  0  0  0  0  0
  2  1  1  6
  3  2  1  0
  4  2  1  0
  4  5  1  6
  6  8  1  0
  6  4  1  0
  7  6  2  0
  9  8  1  0
 10  9  1  0
 11 10  2  0
 12 10  1  0
 12 16  1  0
 13 14  1  0
 13 12  1  0
 14 15  1  0
 16 15  1  0
 17 19  1  0
 16 17  1  1
 18 17  2  0
M  END
$$$$
