TGP.pdb
     RDKit          3D

 19 19  0  0  1  0  0  0  0  0999 V2000
    9.9859  -18.1223   19.0773 C   0  0  0  0  0  0  0  0  0  0  0  0
    9.3155  -17.0601   19.8793 C   0  0  1  0  0  0  0  0  0  0  0  0
    7.9655  -16.9991   19.4876 O   0  0  0  0  0  0  0  0  0  0  0  0
    9.3672  -17.3054   21.3537 C   0  0  2  0  0  0  0  0  0  0  0  0
    8.6048  -18.4957   21.6590 N   0  0  0  0  0  0  0  0  0  0  0  0
    8.8707  -16.1045   22.0771 C   0  0  0  0  0  0  0  0  0  0  0  0
    9.5394  -15.0330   22.0544 O   0  0  0  0  0  0  0  0  0  0  0  0
    7.6616  -16.0618   22.8198 N   0  0  0  0  0  0  0  0  0  0  0  0
    7.1980  -14.8756   23.5024 C   0  0  0  0  0  0  0  0  0  0  0  0
    8.0373  -14.5415   24.7006 C   0  0  0  0  0  0  0  0  0  0  0  0
    8.9695  -15.3258   24.9270 O   0  0  0  0  0  0  0  0  0  0  0  0
    7.7772  -13.4187   25.5016 N   0  0  0  0  0  0  0  0  0  0  0  0
    7.0916  -12.2270   24.9238 C   0  0  0  0  0  0  0  0  0  0  0  0
    6.3176  -11.6112   26.0632 C   0  0  0  0  0  0  0  0  0  0  0  0
    6.5899  -12.5318   27.2315 C   0  0  0  0  0  0  0  0  0  0  0  0
    8.0123  -13.0251   26.8441 C   0  0  1  0  0  0  0  0  0  0  0  0
    8.4930  -13.9842   27.8081 C   0  0  0  0  0  0  0  0  0  0  0  0
    8.0233  -15.1128   27.9469 O   0  0  0  0  0  0  0  0  0  0  0  0
    9.5624  -13.6541   28.6636 O   0  0  0  0  0  0  0  0  0  0  0  0
  2  1  1  6
  3  2  1  0
  4  2  1  0
  4  5  1  6
  6  8  1  0
  6  4  1  0
  7  6  2  0
  9  8  1  0
 10  9  1  0
 11 10  2  0
 12 10  1  0
 12 16  1  0
 13 14  1  0
 13 12  1  0
 14 15  1  0
 16 15  1  0
 17 19  1  0
 16 17  1  1
 18 17  2  0
M  END
$$$$
