TGP.pdb
     RDKit          3D

 19 19  0  0  1  0  0  0  0  0999 V2000
    7.8604  -12.2902   19.3335 C   0  0  0  0  0  0  0  0  0  0  0  0
    8.1481  -13.6774   18.8711 C   0  0  1  0  0  0  0  0  0  0  0  0
    9.0218  -13.6020   17.7707 O   0  0  0  0  0  0  0  0  0  0  0  0
    8.7837  -14.5345   19.9189 C   0  0  2  0  0  0  0  0  0  0  0  0
    9.2236  -15.7708   19.3113 N   0  0  0  0  0  0  0  0  0  0  0  0
    7.8246  -14.7525   21.0345 C   0  0  0  0  0  0  0  0  0  0  0  0
    7.3181  -15.8953   21.2168 O   0  0  0  0  0  0  0  0  0  0  0  0
    7.4154  -13.7436   21.9455 N   0  0  0  0  0  0  0  0  0  0  0  0
    6.5931  -14.0136   23.1025 C   0  0  0  0  0  0  0  0  0  0  0  0
    7.4059  -14.1963   24.3506 C   0  0  0  0  0  0  0  0  0  0  0  0
    8.1290  -15.2024   24.3667 O   0  0  0  0  0  0  0  0  0  0  0  0
    7.3446  -13.2874   25.4182 N   0  0  0  0  0  0  0  0  0  0  0  0
    6.6851  -11.9619   25.2387 C   0  0  0  0  0  0  0  0  0  0  0  0
    6.1208  -11.6022   26.5911 C   0  0  0  0  0  0  0  0  0  0  0  0
    6.4723  -12.7872   27.4622 C   0  0  0  0  0  0  0  0  0  0  0  0
    7.7867  -13.2378   26.7653 C   0  0  1  0  0  0  0  0  0  0  0  0
    8.3138  -14.4207   27.4003 C   0  0  0  0  0  0  0  0  0  0  0  0
    9.1669  -14.4022   28.2865 O   0  0  0  0  0  0  0  0  0  0  0  0
    7.8544  -15.6958   27.0160 O   0  0  0  0  0  0  0  0  0  0  0  0
  2  1  1  1
  3  2  1  0
  4  2  1  0
  4  5  1  6
  6  8  1  0
  6  4  1  0
  7  6  2  0
  9  8  1  0
 10  9  1  0
 11 10  2  0
 12 10  1  0
 12 16  1  0
 13 14  1  0
 13 12  1  0
 14 15  1  0
 16 15  1  0
 17 19  1  0
 16 17  1  1
 18 17  2  0
M  END
$$$$
