TGP.pdb
     RDKit          3D

 19 19  0  0  1  0  0  0  0  0999 V2000
    9.8891  -14.9558   18.4297 C   0  0  0  0  0  0  0  0  0  0  0  0
    9.3036  -14.5937   19.7515 C   0  0  1  0  0  0  0  0  0  0  0  0
   10.2421  -13.8106   20.4487 O   0  0  0  0  0  0  0  0  0  0  0  0
    8.0292  -13.8182   19.6460 C   0  0  2  0  0  0  0  0  0  0  0  0
    8.2698  -12.6223   18.8693 N   0  0  0  0  0  0  0  0  0  0  0  0
    7.5104  -13.5232   21.0083 C   0  0  0  0  0  0  0  0  0  0  0  0
    7.7786  -12.4190   21.5601 O   0  0  0  0  0  0  0  0  0  0  0  0
    6.7088  -14.4146   21.7687 N   0  0  0  0  0  0  0  0  0  0  0  0
    6.2287  -14.1051   23.0959 C   0  0  0  0  0  0  0  0  0  0  0  0
    7.3376  -14.0478   24.1053 C   0  0  0  0  0  0  0  0  0  0  0  0
    8.2517  -14.8661   23.9319 O   0  0  0  0  0  0  0  0  0  0  0  0
    7.3309  -13.1294   25.1667 N   0  0  0  0  0  0  0  0  0  0  0  0
    6.5798  -11.8469   25.0449 C   0  0  0  0  0  0  0  0  0  0  0  0
    6.1347  -11.5020   26.4447 C   0  0  0  0  0  0  0  0  0  0  0  0
    6.6412  -12.6528   27.2847 C   0  0  0  0  0  0  0  0  0  0  0  0
    7.9029  -13.0362   26.4615 C   0  0  1  0  0  0  0  0  0  0  0  0
    8.5599  -14.1780   27.0488 C   0  0  0  0  0  0  0  0  0  0  0  0
    9.6833  -14.1417   27.5491 O   0  0  0  0  0  0  0  0  0  0  0  0
    7.9161  -15.4307   27.0742 O   0  0  0  0  0  0  0  0  0  0  0  0
  2  1  1  6
  3  2  1  0
  4  2  1  0
  4  5  1  1
  6  8  1  0
  6  4  1  0
  7  6  2  0
  9  8  1  0
 10  9  1  0
 11 10  2  0
 12 10  1  0
 12 16  1  0
 13 14  1  0
 13 12  1  0
 14 15  1  0
 16 15  1  0
 17 19  1  0
 16 17  1  1
 18 17  2  0
M  END
$$$$
