TGP.pdb
     RDKit          3D

 19 19  0  0  1  0  0  0  0  0999 V2000
    6.8013  -18.1520   19.9533 C   0  0  0  0  0  0  0  0  0  0  0  0
    6.8910  -17.4382   21.2585 C   0  0  1  0  0  0  0  0  0  0  0  0
    6.4058  -16.1297   21.0786 O   0  0  0  0  0  0  0  0  0  0  0  0
    6.0993  -18.0880   22.3482 C   0  0  2  0  0  0  0  0  0  0  0  0
    4.7328  -18.2499   21.9037 N   0  0  0  0  0  0  0  0  0  0  0  0
    6.2065  -17.2803   23.5925 C   0  0  0  0  0  0  0  0  0  0  0  0
    5.1780  -16.7314   24.0789 O   0  0  0  0  0  0  0  0  0  0  0  0
    7.4156  -17.0666   24.3051 N   0  0  0  0  0  0  0  0  0  0  0  0
    7.4737  -16.3580   25.5630 C   0  0  0  0  0  0  0  0  0  0  0  0
    8.8617  -16.3175   26.1320 C   0  0  0  0  0  0  0  0  0  0  0  0
    9.5429  -17.3333   25.9337 O   0  0  0  0  0  0  0  0  0  0  0  0
    9.3447  -15.2041   26.8369 N   0  0  0  0  0  0  0  0  0  0  0  0
    8.7368  -13.8591   26.6236 C   0  0  0  0  0  0  0  0  0  0  0  0
    8.8834  -13.1337   27.9385 C   0  0  0  0  0  0  0  0  0  0  0  0
    9.5471  -14.1465   28.8442 C   0  0  0  0  0  0  0  0  0  0  0  0
   10.3647  -14.9402   27.7869 C   0  0  1  0  0  0  0  0  0  0  0  0
   11.0737  -16.0296   28.4121 C   0  0  0  0  0  0  0  0  0  0  0  0
   12.2978  -16.0762   28.5269 O   0  0  0  0  0  0  0  0  0  0  0  0
   10.3650  -17.1278   28.9374 O   0  0  0  0  0  0  0  0  0  0  0  0
  2  1  1  6
  3  2  1  0
  4  2  1  0
  4  5  1  6
  6  8  1  0
  6  4  1  0
  7  6  2  0
  9  8  1  0
 10  9  1  0
 11 10  2  0
 12 10  1  0
 12 16  1  0
 13 14  1  0
 13 12  1  0
 14 15  1  0
 16 15  1  0
 17 19  1  0
 16 17  1  1
 18 17  2  0
M  END
$$$$
