TGP.pdb
     RDKit          3D

 19 19  0  0  1  0  0  0  0  0999 V2000
    9.8632  -18.0088   19.2801 C   0  0  0  0  0  0  0  0  0  0  0  0
    9.0566  -17.0315   20.0646 C   0  0  1  0  0  0  0  0  0  0  0  0
    8.4364  -16.1480   19.1620 O   0  0  0  0  0  0  0  0  0  0  0  0
    7.9950  -17.6714   20.9014 C   0  0  2  0  0  0  0  0  0  0  0  0
    7.0770  -18.3782   20.0360 N   0  0  0  0  0  0  0  0  0  0  0  0
    7.3213  -16.6363   21.7300 C   0  0  0  0  0  0  0  0  0  0  0  0
    6.1370  -16.2870   21.4632 O   0  0  0  0  0  0  0  0  0  0  0  0
    7.9228  -15.9829   22.8376 N   0  0  0  0  0  0  0  0  0  0  0  0
    7.2213  -15.0286   23.6652 C   0  0  0  0  0  0  0  0  0  0  0  0
    8.0694  -14.5188   24.7933 C   0  0  0  0  0  0  0  0  0  0  0  0
    9.0994  -15.1709   25.0154 O   0  0  0  0  0  0  0  0  0  0  0  0
    7.7132  -13.3837   25.5379 N   0  0  0  0  0  0  0  0  0  0  0  0
    6.8152  -12.3499   24.9473 C   0  0  0  0  0  0  0  0  0  0  0  0
    6.0544  -11.7605   26.1094 C   0  0  0  0  0  0  0  0  0  0  0  0
    6.5533  -12.5379   27.3066 C   0  0  0  0  0  0  0  0  0  0  0  0
    7.9964  -12.8555   26.8237 C   0  0  1  0  0  0  0  0  0  0  0  0
    8.6897  -13.6579   27.8014 C   0  0  0  0  0  0  0  0  0  0  0  0
    9.6329  -13.2517   28.4789 O   0  0  0  0  0  0  0  0  0  0  0  0
    8.2992  -14.9920   28.0290 O   0  0  0  0  0  0  0  0  0  0  0  0
  2  1  1  6
  3  2  1  0
  4  2  1  0
  4  5  1  6
  6  8  1  0
  6  4  1  0
  7  6  2  0
  9  8  1  0
 10  9  1  0
 11 10  2  0
 12 10  1  0
 12 16  1  0
 13 14  1  0
 13 12  1  0
 14 15  1  0
 16 15  1  0
 17 19  1  0
 16 17  1  1
 18 17  2  0
M  END
$$$$
