TGP.pdb
     RDKit          3D

 19 19  0  0  1  0  0  0  0  0999 V2000
    9.1346  -20.8540   22.7802 C   0  0  0  0  0  0  0  0  0  0  0  0
    8.7555  -19.6714   23.6041 C   0  0  1  0  0  0  0  0  0  0  0  0
    9.5432  -18.5796   23.1952 O   0  0  0  0  0  0  0  0  0  0  0  0
    7.3158  -19.2894   23.4702 C   0  0  2  0  0  0  0  0  0  0  0  0
    7.0416  -18.9681   22.0871 N   0  0  0  0  0  0  0  0  0  0  0  0
    7.0106  -18.1632   24.3925 C   0  0  0  0  0  0  0  0  0  0  0  0
    7.1080  -18.3264   25.6414 O   0  0  0  0  0  0  0  0  0  0  0  0
    6.6024  -16.8712   23.9689 N   0  0  0  0  0  0  0  0  0  0  0  0
    6.3167  -15.7944   24.8890 C   0  0  0  0  0  0  0  0  0  0  0  0
    7.5621  -15.1122   25.3742 C   0  0  0  0  0  0  0  0  0  0  0  0
    8.5776  -15.8219   25.3969 O   0  0  0  0  0  0  0  0  0  0  0  0
    7.5665  -13.7662   25.7716 N   0  0  0  0  0  0  0  0  0  0  0  0
    6.6276  -12.7942   25.1411 C   0  0  0  0  0  0  0  0  0  0  0  0
    6.3316  -11.7662   26.2052 C   0  0  0  0  0  0  0  0  0  0  0  0
    7.1094  -12.2494   27.4085 C   0  0  0  0  0  0  0  0  0  0  0  0
    8.2896  -12.9564   26.6849 C   0  0  1  0  0  0  0  0  0  0  0  0
    9.1793  -13.5621   27.6451 C   0  0  0  0  0  0  0  0  0  0  0  0
   10.2543  -13.0727   27.9892 O   0  0  0  0  0  0  0  0  0  0  0  0
    8.8395  -14.7872   28.2517 O   0  0  0  0  0  0  0  0  0  0  0  0
  2  1  1  6
  3  2  1  0
  4  2  1  0
  4  5  1  6
  6  8  1  0
  6  4  1  0
  7  6  2  0
  9  8  1  0
 10  9  1  0
 11 10  2  0
 12 10  1  0
 12 16  1  0
 13 14  1  0
 13 12  1  0
 14 15  1  0
 16 15  1  0
 17 19  1  0
 16 17  1  1
 18 17  2  0
M  END
$$$$
