TGP.pdb
     RDKit          3D

 19 19  0  0  1  0  0  0  0  0999 V2000
    4.9751  -16.9193   20.9406 C   0  0  0  0  0  0  0  0  0  0  0  0
    4.2259  -18.1694   21.2524 C   0  0  1  0  0  0  0  0  0  0  0  0
    4.1069  -18.9182   20.0671 O   0  0  0  0  0  0  0  0  0  0  0  0
    4.8939  -19.0226   22.2831 C   0  0  2  0  0  0  0  0  0  0  0  0
    4.1504  -20.2546   22.4269 N   0  0  0  0  0  0  0  0  0  0  0  0
    5.0061  -18.2674   23.5595 C   0  0  0  0  0  0  0  0  0  0  0  0
    4.0890  -18.3503   24.4243 O   0  0  0  0  0  0  0  0  0  0  0  0
    6.1000  -17.4285   23.8985 N   0  0  0  0  0  0  0  0  0  0  0  0
    6.1658  -16.6802   25.1328 C   0  0  0  0  0  0  0  0  0  0  0  0
    7.3987  -15.8291   25.2195 C   0  0  0  0  0  0  0  0  0  0  0  0
    8.4534  -16.3939   24.8973 O   0  0  0  0  0  0  0  0  0  0  0  0
    7.3505  -14.4900   25.6370 N   0  0  0  0  0  0  0  0  0  0  0  0
    6.1002  -13.6951   25.4667 C   0  0  0  0  0  0  0  0  0  0  0  0
    6.0927  -12.7010   26.6018 C   0  0  0  0  0  0  0  0  0  0  0  0
    7.3474  -13.0248   27.3812 C   0  0  0  0  0  0  0  0  0  0  0  0
    8.2401  -13.5534   26.2235 C   0  0  1  0  0  0  0  0  0  0  0  0
    9.5190  -13.9864   26.7307 C   0  0  0  0  0  0  0  0  0  0  0  0
   10.5800  -13.4071   26.5024 O   0  0  0  0  0  0  0  0  0  0  0  0
    9.6081  -15.1358   27.5403 O   0  0  0  0  0  0  0  0  0  0  0  0
  2  1  1  6
  3  2  1  0
  4  2  1  0
  4  5  1  1
  6  8  1  0
  6  4  1  0
  7  6  2  0
  9  8  1  0
 10  9  1  0
 11 10  2  0
 12 10  1  0
 12 16  1  0
 13 14  1  0
 13 12  1  0
 14 15  1  0
 16 15  1  0
 17 19  1  0
 16 17  1  1
 18 17  2  0
M  END
$$$$
