TGP.pdb
     RDKit          3D

 19 19  0  0  1  0  0  0  0  0999 V2000
    9.8875  -15.4844   20.4092 C   0  0  0  0  0  0  0  0  0  0  0  0
    9.6821  -14.1526   19.7727 C   0  0  1  0  0  0  0  0  0  0  0  0
   10.2079  -14.2024   18.4685 O   0  0  0  0  0  0  0  0  0  0  0  0
    8.2445  -13.7497   19.6856 C   0  0  2  0  0  0  0  0  0  0  0  0
    8.1329  -12.5889   18.8303 N   0  0  0  0  0  0  0  0  0  0  0  0
    7.7099  -13.5091   21.0524 C   0  0  0  0  0  0  0  0  0  0  0  0
    8.0686  -12.4849   21.6990 O   0  0  0  0  0  0  0  0  0  0  0  0
    6.7957  -14.3690   21.7160 N   0  0  0  0  0  0  0  0  0  0  0  0
    6.2272  -14.0668   23.0095 C   0  0  0  0  0  0  0  0  0  0  0  0
    7.2552  -14.0810   24.1025 C   0  0  0  0  0  0  0  0  0  0  0  0
    8.1330  -14.9483   23.9899 O   0  0  0  0  0  0  0  0  0  0  0  0
    7.2169  -13.1729   25.1720 N   0  0  0  0  0  0  0  0  0  0  0  0
    6.4963  -11.8751   25.0293 C   0  0  0  0  0  0  0  0  0  0  0  0
    5.9937  -11.5351   26.4107 C   0  0  0  0  0  0  0  0  0  0  0  0
    6.4394  -12.7034   27.2610 C   0  0  0  0  0  0  0  0  0  0  0  0
    7.7303  -13.1030   26.4926 C   0  0  1  0  0  0  0  0  0  0  0  0
    8.3382  -14.2627   27.0974 C   0  0  0  0  0  0  0  0  0  0  0  0
    9.4553  -14.2624   27.6128 O   0  0  0  0  0  0  0  0  0  0  0  0
    7.6498  -15.4914   27.1234 O   0  0  0  0  0  0  0  0  0  0  0  0
  2  1  1  6
  3  2  1  0
  4  2  1  0
  4  5  1  6
  6  8  1  0
  6  4  1  0
  7  6  2  0
  9  8  1  0
 10  9  1  0
 11 10  2  0
 12 10  1  0
 12 16  1  0
 13 14  1  0
 13 12  1  0
 14 15  1  0
 16 15  1  0
 17 19  1  0
 16 17  1  1
 18 17  2  0
M  END
$$$$
