DCK.pdb
     RDKit          3D

 24 23  0  0  1  0  0  0  0  0999 V2000
   10.3537  -16.8727   18.1678 N   0  0  0  0  0  0  0  0  0  0  0  0
    9.6310  -17.5705   19.2013 C   0  0  1  0  0  0  0  0  0  0  0  0
   10.1221  -19.0246   19.1537 C   0  0  0  0  0  0  0  0  0  0  0  0
    8.9137  -19.8653   19.2773 C   0  0  0  0  0  0  0  0  0  0  0  0
    7.8583  -19.5348   18.7013 O   0  0  0  0  0  0  0  0  0  0  0  0
    9.9335  -17.0658   20.5548 C   0  0  0  0  0  0  0  0  0  0  0  0
   11.1012  -17.1947   21.0108 O   0  0  0  0  0  0  0  0  0  0  0  0
    8.9885  -21.0205   20.0451 O   0  0  0  0  0  0  0  0  0  0  0  0
    8.9213  -16.4473   21.3241 N   0  0  0  0  0  0  0  0  0  0  0  0
    9.2086  -15.8925   22.6321 C   0  0  1  0  0  0  0  0  0  0  0  0
    8.0144  -15.0214   23.0499 C   0  0  0  0  0  0  0  0  0  0  0  0
    8.0965  -14.6367   24.8176 S   0  0  0  0  0  0  0  0  0  0  0  0
    9.2661  -17.0056   23.6021 C   0  0  0  0  0  0  0  0  0  0  0  0
    8.3594  -17.8995   23.5478 O   0  0  0  0  0  0  0  0  0  0  0  0
   10.2904  -17.0858   24.5636 N   0  0  0  0  0  0  0  0  0  0  0  0
   10.2287  -18.2344   25.5274 C   0  0  1  0  0  0  0  0  0  0  0  0
   11.0397  -19.3278   24.9479 C   0  0  0  0  0  0  0  0  0  0  0  0
   11.1927  -20.6008   25.6481 C   0  0  0  0  0  0  0  0  0  0  0  0
   11.8818  -21.7545   25.0507 C   0  0  0  0  0  0  0  0  0  0  0  0
   11.7279  -22.9190   26.0631 C   0  0  0  0  0  0  0  0  0  0  0  0
   12.3330  -24.1069   25.5371 N   0  0  0  0  0  0  0  0  0  0  0  0
   10.7375  -17.6182   26.7766 C   0  0  0  0  0  0  0  0  0  0  0  0
   11.3851  -16.5051   26.6618 O   0  0  0  0  0  0  0  0  0  0  0  0
   10.6246  -18.0475   28.0640 O   0  0  0  0  0  0  0  0  0  0  0  0
  2  1  1  6
  2  3  1  0
  3  4  1  0
  4  5  2  0
  4  8  1  0
  6  2  1  0
  6  9  1  0
  7  6  2  0
 10  9  1  0
 10 13  1  0
 10 11  1  1
 12 11  1  0
 13 15  1  0
 14 13  2  0
 15 16  1  0
 16 17  1  6
 16 22  1  0
 17 18  1  0
 19 18  1  0
 20 21  1  0
 20 19  1  0
 22 24  1  0
 23 22  2  0
M  END
$$$$
