DCK.pdb
     RDKit          3D

 24 23  0  0  1  0  0  0  0  0999 V2000
    8.2886  -13.3905   16.6717 N   0  0  0  0  0  0  0  0  0  0  0  0
    8.3592  -14.5977   17.4558 C   0  0  1  0  0  0  0  0  0  0  0  0
    9.3571  -15.5145   16.7335 C   0  0  0  0  0  0  0  0  0  0  0  0
    8.7047  -15.9069   15.4676 C   0  0  0  0  0  0  0  0  0  0  0  0
    7.4830  -16.1553   15.4425 O   0  0  0  0  0  0  0  0  0  0  0  0
    8.8970  -14.3717   18.8114 C   0  0  0  0  0  0  0  0  0  0  0  0
   10.1246  -14.1230   18.9509 O   0  0  0  0  0  0  0  0  0  0  0  0
    9.4842  -15.9897   14.3208 O   0  0  0  0  0  0  0  0  0  0  0  0
    8.0404  -14.4351   19.9345 N   0  0  0  0  0  0  0  0  0  0  0  0
    8.5422  -14.1967   21.2733 C   0  0  1  0  0  0  0  0  0  0  0  0
    7.3767  -13.6814   22.1311 C   0  0  0  0  0  0  0  0  0  0  0  0
    5.9286  -14.7527   21.9446 S   0  0  0  0  0  0  0  0  0  0  0  0
    8.9388  -15.4959   21.8547 C   0  0  0  0  0  0  0  0  0  0  0  0
    8.4789  -16.5592   21.3237 O   0  0  0  0  0  0  0  0  0  0  0  0
    9.8007  -15.5680   22.9647 N   0  0  0  0  0  0  0  0  0  0  0  0
   10.0851  -16.9345   23.5161 C   0  0  1  0  0  0  0  0  0  0  0  0
   11.4722  -17.2752   23.1301 C   0  0  0  0  0  0  0  0  0  0  0  0
   12.1013  -18.5065   23.6014 C   0  0  0  0  0  0  0  0  0  0  0  0
   13.5160  -18.8190   23.3492 C   0  0  0  0  0  0  0  0  0  0  0  0
   13.7893  -20.1739   24.0521 C   0  0  0  0  0  0  0  0  0  0  0  0
   14.5802  -21.0144   23.2025 N   0  0  0  0  0  0  0  0  0  0  0  0
    9.8243  -16.7448   24.9635 C   0  0  0  0  0  0  0  0  0  0  0  0
    9.8759  -17.7970   25.7131 O   0  0  0  0  0  0  0  0  0  0  0  0
    9.5346  -15.6053   25.6506 O   0  0  0  0  0  0  0  0  0  0  0  0
  2  1  1  6
  2  3  1  0
  3  4  1  0
  4  5  2  0
  4  8  1  0
  6  2  1  0
  6  9  1  0
  7  6  2  0
 10  9  1  0
 10 13  1  0
 10 11  1  1
 12 11  1  0
 13 15  1  0
 14 13  2  0
 15 16  1  0
 16 17  1  1
 16 22  1  0
 17 18  1  0
 19 18  1  0
 20 21  1  0
 20 19  1  0
 22 24  1  0
 23 22  2  0
M  END
$$$$
