DCK.pdb
     RDKit          3D

 24 23  0  0  1  0  0  0  0  0999 V2000
   10.3543  -16.6195   21.0095 N   0  0  0  0  0  0  0  0  0  0  0  0
    9.4187  -16.7508   22.0980 C   0  0  1  0  0  0  0  0  0  0  0  0
    9.2872  -18.2574   22.3643 C   0  0  0  0  0  0  0  0  0  0  0  0
    8.4955  -18.8004   21.2415 C   0  0  0  0  0  0  0  0  0  0  0  0
    9.0665  -19.3608   20.2850 O   0  0  0  0  0  0  0  0  0  0  0  0
    9.9052  -16.1406   23.3506 C   0  0  0  0  0  0  0  0  0  0  0  0
   11.1363  -16.1844   23.6166 O   0  0  0  0  0  0  0  0  0  0  0  0
    7.1133  -18.6692   21.2837 O   0  0  0  0  0  0  0  0  0  0  0  0
    8.9963  -15.5171   24.2361 N   0  0  0  0  0  0  0  0  0  0  0  0
    9.4566  -14.8710   25.4492 C   0  0  1  0  0  0  0  0  0  0  0  0
    8.3669  -13.8894   25.9059 C   0  0  0  0  0  0  0  0  0  0  0  0
    8.8180  -13.1303   27.4870 S   0  0  0  0  0  0  0  0  0  0  0  0
    9.5571  -15.8968   26.5079 C   0  0  0  0  0  0  0  0  0  0  0  0
    8.5772  -16.6958   26.6676 O   0  0  0  0  0  0  0  0  0  0  0  0
   10.6997  -15.9974   27.3230 N   0  0  0  0  0  0  0  0  0  0  0  0
   10.7040  -17.0869   28.3550 C   0  0  1  0  0  0  0  0  0  0  0  0
   11.9317  -17.8832   28.1365 C   0  0  0  0  0  0  0  0  0  0  0  0
   11.9652  -19.3106   28.4454 C   0  0  0  0  0  0  0  0  0  0  0  0
   13.1489  -20.1467   28.1955 C   0  0  0  0  0  0  0  0  0  0  0  0
   12.8415  -21.5281   28.8293 C   0  0  0  0  0  0  0  0  0  0  0  0
   13.9536  -22.4117   28.6384 N   0  0  0  0  0  0  0  0  0  0  0  0
   10.6266  -16.3160   29.6194 C   0  0  0  0  0  0  0  0  0  0  0  0
   10.8754  -15.0490   29.5519 O   0  0  0  0  0  0  0  0  0  0  0  0
   10.3221  -16.7408   30.8769 O   0  0  0  0  0  0  0  0  0  0  0  0
  2  1  1  6
  2  3  1  0
  3  4  1  0
  4  5  2  0
  4  8  1  0
  6  2  1  0
  6  9  1  0
  7  6  2  0
 10  9  1  0
 10 13  1  0
 10 11  1  1
 12 11  1  0
 13 15  1  0
 14 13  2  0
 15 16  1  0
 16 17  1  1
 16 22  1  0
 17 18  1  0
 19 18  1  0
 20 21  1  0
 20 19  1  0
 22 24  1  0
 23 22  2  0
M  END
$$$$
