DCK.pdb
     RDKit          3D

 24 23  0  0  1  0  0  0  0  0999 V2000
    9.2455  -17.6908   18.9029 N   0  0  0  0  0  0  0  0  0  0  0  0
   10.2304  -17.7854   19.9510 C   0  0  1  0  0  0  0  0  0  0  0  0
   11.5925  -17.5817   19.2721 C   0  0  0  0  0  0  0  0  0  0  0  0
   11.6517  -18.5705   18.1762 C   0  0  0  0  0  0  0  0  0  0  0  0
   11.8974  -19.7676   18.4243 O   0  0  0  0  0  0  0  0  0  0  0  0
   10.0978  -16.7184   20.9620 C   0  0  0  0  0  0  0  0  0  0  0  0
   11.0378  -16.5274   21.7792 O   0  0  0  0  0  0  0  0  0  0  0  0
   11.4280  -18.1312   16.8775 O   0  0  0  0  0  0  0  0  0  0  0  0
    8.9282  -15.9251   21.0074 N   0  0  0  0  0  0  0  0  0  0  0  0
    8.7831  -14.8603   21.9801 C   0  0  1  0  0  0  0  0  0  0  0  0
    7.4735  -14.1170   21.6767 C   0  0  0  0  0  0  0  0  0  0  0  0
    7.5385  -13.3613   20.0323 S   0  0  0  0  0  0  0  0  0  0  0  0
    8.6093  -15.4743   23.3127 C   0  0  0  0  0  0  0  0  0  0  0  0
    7.8642  -16.5037   23.4093 O   0  0  0  0  0  0  0  0  0  0  0  0
    9.2451  -14.9445   24.4508 N   0  0  0  0  0  0  0  0  0  0  0  0
    9.2704  -15.8077   25.6782 C   0  0  1  0  0  0  0  0  0  0  0  0
   10.1842  -16.9359   25.3934 C   0  0  0  0  0  0  0  0  0  0  0  0
   10.5265  -17.9048   26.4317 C   0  0  0  0  0  0  0  0  0  0  0  0
   11.4985  -18.9869   26.2148 C   0  0  0  0  0  0  0  0  0  0  0  0
   11.6640  -19.6973   27.5832 C   0  0  0  0  0  0  0  0  0  0  0  0
   12.6271  -20.7528   27.4724 N   0  0  0  0  0  0  0  0  0  0  0  0
    9.7027  -14.8480   26.7228 C   0  0  0  0  0  0  0  0  0  0  0  0
    9.8094  -15.3006   27.9292 O   0  0  0  0  0  0  0  0  0  0  0  0
   10.0188  -13.5282   26.6107 O   0  0  0  0  0  0  0  0  0  0  0  0
  2  1  1  6
  2  3  1  0
  3  4  1  0
  4  5  2  0
  4  8  1  0
  6  2  1  0
  6  9  1  0
  7  6  2  0
 10  9  1  0
 10 13  1  0
 10 11  1  6
 12 11  1  0
 13 15  1  0
 14 13  2  0
 15 16  1  0
 16 17  1  6
 16 22  1  0
 17 18  1  0
 19 18  1  0
 20 21  1  0
 20 19  1  0
 22 24  1  0
 23 22  2  0
M  END
$$$$
