DCK.pdb
     RDKit          3D

 24 23  0  0  1  0  0  0  0  0999 V2000
   11.3699  -18.2138   18.8117 N   0  0  0  0  0  0  0  0  0  0  0  0
   12.2585  -17.6047   19.7692 C   0  0  1  0  0  0  0  0  0  0  0  0
   13.2460  -16.7587   18.9525 C   0  0  0  0  0  0  0  0  0  0  0  0
   14.3275  -17.6784   18.5444 C   0  0  0  0  0  0  0  0  0  0  0  0
   14.8127  -18.4800   19.3672 O   0  0  0  0  0  0  0  0  0  0  0  0
   11.5667  -16.6790   20.6871 C   0  0  0  0  0  0  0  0  0  0  0  0
   12.2494  -15.8779   21.3802 O   0  0  0  0  0  0  0  0  0  0  0  0
   14.7815  -17.6234   17.2328 O   0  0  0  0  0  0  0  0  0  0  0  0
   10.1561  -16.6966   20.7828 N   0  0  0  0  0  0  0  0  0  0  0  0
    9.4610  -15.8714   21.7507 C   0  0  1  0  0  0  0  0  0  0  0  0
    7.9530  -16.1086   21.5793 C   0  0  0  0  0  0  0  0  0  0  0  0
    7.3575  -15.3337   20.0547 S   0  0  0  0  0  0  0  0  0  0  0  0
    9.8038  -16.3592   23.1026 C   0  0  0  0  0  0  0  0  0  0  0  0
   10.2832  -17.5347   23.2154 O   0  0  0  0  0  0  0  0  0  0  0  0
    9.6102  -15.5554   24.2413 N   0  0  0  0  0  0  0  0  0  0  0  0
   10.0446  -16.1281   25.5586 C   0  0  1  0  0  0  0  0  0  0  0  0
   10.1047  -15.0040   26.5188 C   0  0  0  0  0  0  0  0  0  0  0  0
   10.4832  -15.2267   27.9121 C   0  0  0  0  0  0  0  0  0  0  0  0
   10.5932  -14.1311   28.8869 C   0  0  0  0  0  0  0  0  0  0  0  0
   10.9401  -14.7960   30.2442 C   0  0  0  0  0  0  0  0  0  0  0  0
   10.9729  -13.8055   31.2793 N   0  0  0  0  0  0  0  0  0  0  0  0
    9.0080  -17.1595   25.8049 C   0  0  0  0  0  0  0  0  0  0  0  0
    7.8495  -16.9699   25.2632 O   0  0  0  0  0  0  0  0  0  0  0  0
    9.0846  -18.3107   26.5283 O   0  0  0  0  0  0  0  0  0  0  0  0
  2  1  1  6
  2  3  1  0
  3  4  1  0
  4  5  2  0
  4  8  1  0
  6  2  1  0
  6  9  1  0
  7  6  2  0
 10  9  1  0
 10 13  1  0
 10 11  1  6
 12 11  1  0
 13 15  1  0
 14 13  2  0
 15 16  1  0
 16 17  1  1
 16 22  1  0
 17 18  1  0
 19 18  1  0
 20 21  1  0
 20 19  1  0
 22 24  1  0
 23 22  2  0
M  END
$$$$
