DCK.pdb
     RDKit          3D

 24 23  0  0  1  0  0  0  0  0999 V2000
    9.4804  -17.2614   16.9858 N   0  0  0  0  0  0  0  0  0  0  0  0
    8.9576  -17.9271   18.1523 C   0  0  1  0  0  0  0  0  0  0  0  0
    9.7758  -19.2174   18.3062 C   0  0  0  0  0  0  0  0  0  0  0  0
    9.4430  -20.0514   17.1332 C   0  0  0  0  0  0  0  0  0  0  0  0
    8.5768  -19.6726   16.3200 O   0  0  0  0  0  0  0  0  0  0  0  0
    9.1535  -17.1515   19.3926 C   0  0  0  0  0  0  0  0  0  0  0  0
   10.2945  -17.1269   19.9270 O   0  0  0  0  0  0  0  0  0  0  0  0
   10.1161  -21.2549   16.9661 O   0  0  0  0  0  0  0  0  0  0  0  0
    8.0705  -16.4480   19.9681 N   0  0  0  0  0  0  0  0  0  0  0  0
    8.2510  -15.6370   21.1559 C   0  0  1  0  0  0  0  0  0  0  0  0
    7.1348  -14.5822   21.1833 C   0  0  0  0  0  0  0  0  0  0  0  0
    5.5084  -15.3787   21.1985 S   0  0  0  0  0  0  0  0  0  0  0  0
    8.0346  -16.4968   22.3379 C   0  0  0  0  0  0  0  0  0  0  0  0
    7.3712  -17.5743   22.1859 O   0  0  0  0  0  0  0  0  0  0  0  0
    8.5434  -16.1446   23.6017 N   0  0  0  0  0  0  0  0  0  0  0  0
    8.2092  -17.0556   24.7464 C   0  0  1  0  0  0  0  0  0  0  0  0
    9.4174  -17.1422   25.5958 C   0  0  0  0  0  0  0  0  0  0  0  0
    9.4685  -18.0523   26.7375 C   0  0  0  0  0  0  0  0  0  0  0  0
   10.6478  -18.1628   27.6091 C   0  0  0  0  0  0  0  0  0  0  0  0
   10.2789  -19.1982   28.7029 C   0  0  0  0  0  0  0  0  0  0  0  0
   11.3664  -19.3437   29.6248 N   0  0  0  0  0  0  0  0  0  0  0  0
    7.0253  -16.3872   25.3387 C   0  0  0  0  0  0  0  0  0  0  0  0
    6.9265  -15.1090   25.1709 O   0  0  0  0  0  0  0  0  0  0  0  0
    5.9927  -16.9207   26.0484 O   0  0  0  0  0  0  0  0  0  0  0  0
  2  1  1  6
  2  3  1  0
  3  4  1  0
  4  5  2  0
  4  8  1  0
  6  2  1  0
  6  9  1  0
  7  6  2  0
 10  9  1  0
 10 13  1  0
 10 11  1  6
 12 11  1  0
 13 15  1  0
 14 13  2  0
 15 16  1  0
 16 17  1  1
 16 22  1  0
 17 18  1  0
 19 18  1  0
 20 21  1  0
 20 19  1  0
 22 24  1  0
 23 22  2  0
M  END
$$$$
