DCK.pdb
     RDKit          3D

 24 23  0  0  1  0  0  0  0  0999 V2000
    6.8795  -14.4027   20.3099 N   0  0  0  0  0  0  0  0  0  0  0  0
    7.6442  -15.1970   21.2381 C   0  0  1  0  0  0  0  0  0  0  0  0
    8.8612  -15.7097   20.4545 C   0  0  0  0  0  0  0  0  0  0  0  0
    8.3809  -16.8646   19.6687 C   0  0  0  0  0  0  0  0  0  0  0  0
    7.1824  -17.2049   19.7227 O   0  0  0  0  0  0  0  0  0  0  0  0
    8.1708  -14.4098   22.3700 C   0  0  0  0  0  0  0  0  0  0  0  0
    8.4499  -13.1936   22.1942 O   0  0  0  0  0  0  0  0  0  0  0  0
    9.2936  -17.5510   18.8779 O   0  0  0  0  0  0  0  0  0  0  0  0
    8.3573  -15.0191   23.6322 N   0  0  0  0  0  0  0  0  0  0  0  0
    8.5329  -14.2217   24.8299 C   0  0  1  0  0  0  0  0  0  0  0  0
    7.2020  -13.5149   25.1276 C   0  0  0  0  0  0  0  0  0  0  0  0
    7.2498  -12.7325   26.7601 S   0  0  0  0  0  0  0  0  0  0  0  0
    8.7748  -15.1390   25.9626 C   0  0  0  0  0  0  0  0  0  0  0  0
    7.8924  -16.0210   26.2228 O   0  0  0  0  0  0  0  0  0  0  0  0
    9.9448  -15.0497   26.7393 N   0  0  0  0  0  0  0  0  0  0  0  0
   10.3200  -16.2598   27.5437 C   0  0  1  0  0  0  0  0  0  0  0  0
   11.6146  -16.7441   27.0159 C   0  0  0  0  0  0  0  0  0  0  0  0
   12.2015  -17.9923   27.4973 C   0  0  0  0  0  0  0  0  0  0  0  0
   13.4546  -18.5383   26.9549 C   0  0  0  0  0  0  0  0  0  0  0  0
   13.7669  -19.8082   27.7881 C   0  0  0  0  0  0  0  0  0  0  0  0
   14.9851  -20.4069   27.3285 N   0  0  0  0  0  0  0  0  0  0  0  0
   10.3232  -15.7238   28.9263 C   0  0  0  0  0  0  0  0  0  0  0  0
   10.2117  -14.4427   29.0606 O   0  0  0  0  0  0  0  0  0  0  0  0
   10.4234  -16.3850   30.1126 O   0  0  0  0  0  0  0  0  0  0  0  0
  2  1  1  6
  2  3  1  0
  3  4  1  0
  4  5  2  0
  4  8  1  0
  6  2  1  0
  6  9  1  0
  7  6  2  0
 10  9  1  0
 10 13  1  0
 10 11  1  1
 12 11  1  0
 13 15  1  0
 14 13  2  0
 15 16  1  0
 16 17  1  6
 16 22  1  0
 17 18  1  0
 19 18  1  0
 20 21  1  0
 20 19  1  0
 22 24  1  0
 23 22  2  0
M  END
$$$$
