DCK.pdb
     RDKit          3D

 24 23  0  0  1  0  0  0  0  0999 V2000
    8.4131  -15.1653   20.3168 N   0  0  0  0  0  0  0  0  0  0  0  0
    8.1159  -15.8719   21.5373 C   0  0  1  0  0  0  0  0  0  0  0  0
    8.9766  -17.1433   21.5112 C   0  0  0  0  0  0  0  0  0  0  0  0
    8.3570  -18.0323   20.5072 C   0  0  0  0  0  0  0  0  0  0  0  0
    7.1829  -17.8363   20.1356 O   0  0  0  0  0  0  0  0  0  0  0  0
    8.5072  -15.1208   22.7459 C   0  0  0  0  0  0  0  0  0  0  0  0
    9.7307  -14.9951   23.0208 O   0  0  0  0  0  0  0  0  0  0  0  0
    9.1130  -19.0797   19.9963 O   0  0  0  0  0  0  0  0  0  0  0  0
    7.5170  -14.5527   23.5801 N   0  0  0  0  0  0  0  0  0  0  0  0
    7.8786  -13.7551   24.7352 C   0  0  1  0  0  0  0  0  0  0  0  0
    6.6193  -13.0172   25.2141 C   0  0  0  0  0  0  0  0  0  0  0  0
    6.9202  -12.2186   26.8114 S   0  0  0  0  0  0  0  0  0  0  0  0
    8.2588  -14.6735   25.8283 C   0  0  0  0  0  0  0  0  0  0  0  0
    7.4856  -15.6524   26.0894 O   0  0  0  0  0  0  0  0  0  0  0  0
    9.4409  -14.4815   26.5672 N   0  0  0  0  0  0  0  0  0  0  0  0
    9.7347  -15.4785   27.6497 C   0  0  1  0  0  0  0  0  0  0  0  0
   10.8599  -16.3130   27.1737 C   0  0  0  0  0  0  0  0  0  0  0  0
   11.0751  -17.6565   27.7053 C   0  0  0  0  0  0  0  0  0  0  0  0
   12.1932  -18.5086   27.2736 C   0  0  0  0  0  0  0  0  0  0  0  0
   12.1088  -19.7971   28.1322 C   0  0  0  0  0  0  0  0  0  0  0  0
   13.0235  -20.7796   27.6303 N   0  0  0  0  0  0  0  0  0  0  0  0
   10.0029  -14.6008   28.8146 C   0  0  0  0  0  0  0  0  0  0  0  0
    9.8098  -13.3328   28.6522 O   0  0  0  0  0  0  0  0  0  0  0  0
   10.4285  -14.9269   30.0664 O   0  0  0  0  0  0  0  0  0  0  0  0
  2  1  1  6
  2  3  1  0
  3  4  1  0
  4  5  2  0
  4  8  1  0
  6  2  1  0
  6  9  1  0
  7  6  2  0
 10  9  1  0
 10 13  1  0
 10 11  1  1
 12 11  1  0
 13 15  1  0
 14 13  2  0
 15 16  1  0
 16 17  1  6
 16 22  1  0
 17 18  1  0
 19 18  1  0
 20 21  1  0
 20 19  1  0
 22 24  1  0
 23 22  2  0
M  END
$$$$
