DCK.pdb
     RDKit          3D

 24 23  0  0  1  0  0  0  0  0999 V2000
   10.5385  -17.0063   18.7098 N   0  0  0  0  0  0  0  0  0  0  0  0
   10.9178  -17.8505   19.8146 C   0  0  1  0  0  0  0  0  0  0  0  0
   12.3722  -18.2663   19.5504 C   0  0  0  0  0  0  0  0  0  0  0  0
   12.4240  -18.6839   18.1344 C   0  0  0  0  0  0  0  0  0  0  0  0
   11.4698  -19.3081   17.6294 O   0  0  0  0  0  0  0  0  0  0  0  0
   10.9091  -17.1413   21.1090 C   0  0  0  0  0  0  0  0  0  0  0  0
   11.9626  -17.1126   21.7999 O   0  0  0  0  0  0  0  0  0  0  0  0
   13.5538  -18.3639   17.3923 O   0  0  0  0  0  0  0  0  0  0  0  0
    9.7303  -16.5051   21.5616 N   0  0  0  0  0  0  0  0  0  0  0  0
    9.6890  -15.8298   22.8435 C   0  0  1  0  0  0  0  0  0  0  0  0
    8.3292  -15.1254   22.9642 C   0  0  0  0  0  0  0  0  0  0  0  0
    8.1301  -14.4078   24.6149 S   0  0  0  0  0  0  0  0  0  0  0  0
    9.7171  -16.8562   23.9059 C   0  0  0  0  0  0  0  0  0  0  0  0
    8.8679  -17.8049   23.8500 O   0  0  0  0  0  0  0  0  0  0  0  0
   10.6525  -16.7971   24.9556 N   0  0  0  0  0  0  0  0  0  0  0  0
   10.6279  -17.9198   25.9512 C   0  0  1  0  0  0  0  0  0  0  0  0
   11.8590  -18.7122   25.7383 C   0  0  0  0  0  0  0  0  0  0  0  0
   12.2148  -19.8034   26.6421 C   0  0  0  0  0  0  0  0  0  0  0  0
   13.4080  -20.6394   26.4421 C   0  0  0  0  0  0  0  0  0  0  0  0
   13.3524  -21.7373   27.5357 C   0  0  0  0  0  0  0  0  0  0  0  0
   14.4013  -22.6908   27.3247 N   0  0  0  0  0  0  0  0  0  0  0  0
   10.5196  -17.1903   27.2378 C   0  0  0  0  0  0  0  0  0  0  0  0
   10.3451  -17.9010   28.3037 O   0  0  0  0  0  0  0  0  0  0  0  0
   10.5808  -15.8524   27.4840 O   0  0  0  0  0  0  0  0  0  0  0  0
  2  1  1  6
  2  3  1  0
  3  4  1  0
  4  5  2  0
  4  8  1  0
  6  2  1  0
  6  9  1  0
  7  6  2  0
 10  9  1  0
 10 13  1  0
 10 11  1  6
 12 11  1  0
 13 15  1  0
 14 13  2  0
 15 16  1  0
 16 17  1  1
 16 22  1  0
 17 18  1  0
 19 18  1  0
 20 21  1  0
 20 19  1  0
 22 24  1  0
 23 22  2  0
M  END
$$$$
