DCK.pdb
     RDKit          3D

 24 23  0  0  1  0  0  0  0  0999 V2000
    9.0715  -17.9621   18.1554 N   0  0  0  0  0  0  0  0  0  0  0  0
   10.3856  -18.4288   18.5197 C   0  0  1  0  0  0  0  0  0  0  0  0
   11.2973  -18.1001   17.3286 C   0  0  0  0  0  0  0  0  0  0  0  0
   10.8278  -18.9461   16.2125 C   0  0  0  0  0  0  0  0  0  0  0  0
   10.5538  -18.4335   15.1092 O   0  0  0  0  0  0  0  0  0  0  0  0
   10.9436  -17.7201   19.6879 C   0  0  0  0  0  0  0  0  0  0  0  0
   12.1467  -17.9165   20.0075 O   0  0  0  0  0  0  0  0  0  0  0  0
   10.7025  -20.3128   16.4270 O   0  0  0  0  0  0  0  0  0  0  0  0
   10.1330  -16.8340   20.4341 N   0  0  0  0  0  0  0  0  0  0  0  0
   10.6324  -16.1933   21.6346 C   0  0  1  0  0  0  0  0  0  0  0  0
    9.5843  -15.1698   22.0963 C   0  0  0  0  0  0  0  0  0  0  0  0
    8.0061  -15.9884   22.4412 S   0  0  0  0  0  0  0  0  0  0  0  0
   10.7114  -17.2123   22.7017 C   0  0  0  0  0  0  0  0  0  0  0  0
   10.0612  -18.2975   22.5479 O   0  0  0  0  0  0  0  0  0  0  0  0
   11.4812  -16.9999   23.8604 N   0  0  0  0  0  0  0  0  0  0  0  0
   11.7456  -18.1951   24.7285 C   0  0  1  0  0  0  0  0  0  0  0  0
   12.9252  -18.8864   24.1632 C   0  0  0  0  0  0  0  0  0  0  0  0
   13.4767  -20.0769   24.8057 C   0  0  0  0  0  0  0  0  0  0  0  0
   14.7112  -20.7269   24.3408 C   0  0  0  0  0  0  0  0  0  0  0  0
   14.9243  -21.9552   25.2629 C   0  0  0  0  0  0  0  0  0  0  0  0
   16.1259  -22.6423   24.8917 N   0  0  0  0  0  0  0  0  0  0  0  0
   11.9141  -17.5757   26.0653 C   0  0  0  0  0  0  0  0  0  0  0  0
   12.2487  -16.3272   26.0969 O   0  0  0  0  0  0  0  0  0  0  0  0
   11.7642  -18.1266   27.3016 O   0  0  0  0  0  0  0  0  0  0  0  0
  2  1  1  6
  2  3  1  0
  3  4  1  0
  4  5  2  0
  4  8  1  0
  6  2  1  0
  6  9  1  0
  7  6  2  0
 10  9  1  0
 10 13  1  0
 10 11  1  1
 12 11  1  0
 13 15  1  0
 14 13  2  0
 15 16  1  0
 16 17  1  6
 16 22  1  0
 17 18  1  0
 19 18  1  0
 20 21  1  0
 20 19  1  0
 22 24  1  0
 23 22  2  0
M  END
$$$$
