DCK.pdb
     RDKit          3D

 24 23  0  0  1  0  0  0  0  0999 V2000
    8.5168  -17.0481   21.0750 N   0  0  0  0  0  0  0  0  0  0  0  0
    9.6851  -17.0512   21.9190 C   0  0  1  0  0  0  0  0  0  0  0  0
   10.8874  -16.8804   20.9791 C   0  0  0  0  0  0  0  0  0  0  0  0
   10.7858  -17.9711   19.9880 C   0  0  0  0  0  0  0  0  0  0  0  0
   10.9459  -19.1563   20.3413 O   0  0  0  0  0  0  0  0  0  0  0  0
    9.7180  -15.9137   22.8588 C   0  0  0  0  0  0  0  0  0  0  0  0
   10.8296  -15.5069   23.2910 O   0  0  0  0  0  0  0  0  0  0  0  0
   10.5101  -17.6401   18.6675 O   0  0  0  0  0  0  0  0  0  0  0  0
    8.5139  -15.2937   23.2649 N   0  0  0  0  0  0  0  0  0  0  0  0
    8.5040  -14.2911   24.3117 C   0  0  1  0  0  0  0  0  0  0  0  0
    7.0994  -13.6712   24.3605 C   0  0  0  0  0  0  0  0  0  0  0  0
    6.9243  -12.6089   25.8167 S   0  0  0  0  0  0  0  0  0  0  0  0
    8.6976  -14.9755   25.6068 C   0  0  0  0  0  0  0  0  0  0  0  0
    8.0020  -16.0156   25.8486 O   0  0  0  0  0  0  0  0  0  0  0  0
    9.6228  -14.4999   26.5544 N   0  0  0  0  0  0  0  0  0  0  0  0
    9.8307  -15.3389   27.7811 C   0  0  1  0  0  0  0  0  0  0  0  0
   11.0320  -16.1678   27.5384 C   0  0  0  0  0  0  0  0  0  0  0  0
   11.0432  -17.5894   27.8746 C   0  0  0  0  0  0  0  0  0  0  0  0
   12.2183  -18.4455   27.6533 C   0  0  0  0  0  0  0  0  0  0  0  0
   11.8257  -19.8557   28.1647 C   0  0  0  0  0  0  0  0  0  0  0  0
   12.8893  -20.7817   27.9095 N   0  0  0  0  0  0  0  0  0  0  0  0
    9.9346  -14.3113   28.8452 C   0  0  0  0  0  0  0  0  0  0  0  0
    9.8842  -13.0737   28.4744 O   0  0  0  0  0  0  0  0  0  0  0  0
   10.0744  -14.4672   30.1908 O   0  0  0  0  0  0  0  0  0  0  0  0
  2  1  1  6
  2  3  1  0
  3  4  1  0
  4  5  2  0
  4  8  1  0
  6  2  1  0
  6  9  1  0
  7  6  2  0
 10  9  1  0
 10 13  1  0
 10 11  1  1
 12 11  1  0
 13 15  1  0
 14 13  2  0
 15 16  1  0
 16 17  1  6
 16 22  1  0
 17 18  1  0
 19 18  1  0
 20 21  1  0
 20 19  1  0
 22 24  1  0
 23 22  2  0
M  END
$$$$
