DCK.pdb
     RDKit          3D

 24 23  0  0  1  0  0  0  0  0999 V2000
   19.6958  -13.7546   15.7216 N   0  0  0  0  0  0  0  0  0  0  0  0
   19.4047  -14.1897   17.0645 C   0  0  1  0  0  0  0  0  0  0  0  0
   18.9278  -12.9411   17.8205 C   0  0  0  0  0  0  0  0  0  0  0  0
   20.1381  -12.1329   18.0736 C   0  0  0  0  0  0  0  0  0  0  0  0
   20.2648  -11.0109   17.5445 O   0  0  0  0  0  0  0  0  0  0  0  0
   18.3015  -15.1681   17.1250 C   0  0  0  0  0  0  0  0  0  0  0  0
   17.3190  -15.0338   16.3473 O   0  0  0  0  0  0  0  0  0  0  0  0
   21.1179  -12.6547   18.9086 O   0  0  0  0  0  0  0  0  0  0  0  0
   18.3528  -16.2395   18.0462 N   0  0  0  0  0  0  0  0  0  0  0  0
   17.2846  -17.2166   18.1185 C   0  0  1  0  0  0  0  0  0  0  0  0
   17.8102  -18.5370   17.5355 C   0  0  0  0  0  0  0  0  0  0  0  0
   16.5300  -19.8160   17.6047 S   0  0  0  0  0  0  0  0  0  0  0  0
   16.9976  -17.4807   19.5436 C   0  0  0  0  0  0  0  0  0  0  0  0
   17.8590  -17.1164   20.4094 O   0  0  0  0  0  0  0  0  0  0  0  0
   15.8080  -18.1165   19.9447 N   0  0  0  0  0  0  0  0  0  0  0  0
   15.5608  -18.2259   21.4208 C   0  0  1  0  0  0  0  0  0  0  0  0
   14.2335  -18.8573   21.5902 C   0  0  0  0  0  0  0  0  0  0  0  0
   13.5434  -18.8197   22.8773 C   0  0  0  0  0  0  0  0  0  0  0  0
   12.2181  -19.4231   23.0824 C   0  0  0  0  0  0  0  0  0  0  0  0
   11.8826  -19.2246   24.5833 C   0  0  0  0  0  0  0  0  0  0  0  0
   10.5846  -19.7608   24.8689 N   0  0  0  0  0  0  0  0  0  0  0  0
   16.7343  -19.0110   21.8741 C   0  0  0  0  0  0  0  0  0  0  0  0
   17.2153  -19.8803   21.0466 O   0  0  0  0  0  0  0  0  0  0  0  0
   17.4091  -18.9584   23.0557 O   0  0  0  0  0  0  0  0  0  0  0  0
  2  1  1  6
  2  3  1  0
  3  4  1  0
  4  5  2  0
  4  8  1  0
  6  2  1  0
  6  9  1  0
  7  6  2  0
 10  9  1  0
 10 13  1  0
 10 11  1  6
 12 11  1  0
 13 15  1  0
 14 13  2  0
 15 16  1  0
 16 17  1  6
 16 22  1  0
 17 18  1  0
 19 18  1  0
 20 21  1  0
 20 19  1  0
 22 24  1  0
 23 22  2  0
M  END
$$$$
