DCK.pdb
     RDKit          3D

 24 23  0  0  1  0  0  0  0  0999 V2000
    9.8656  -16.5171   17.9848 N   0  0  0  0  0  0  0  0  0  0  0  0
   10.4091  -17.1903   19.1375 C   0  0  1  0  0  0  0  0  0  0  0  0
   11.9033  -16.8376   19.1687 C   0  0  0  0  0  0  0  0  0  0  0  0
   12.4998  -17.6905   20.2170 C   0  0  0  0  0  0  0  0  0  0  0  0
   12.2429  -18.9102   20.2543 O   0  0  0  0  0  0  0  0  0  0  0  0
    9.8340  -16.7085   20.4084 C   0  0  0  0  0  0  0  0  0  0  0  0
   10.0837  -15.5331   20.7883 O   0  0  0  0  0  0  0  0  0  0  0  0
   13.3448  -17.0996   21.1477 O   0  0  0  0  0  0  0  0  0  0  0  0
    9.0147  -17.5602   21.1846 N   0  0  0  0  0  0  0  0  0  0  0  0
    8.2352  -17.0438   22.2923 C   0  0  1  0  0  0  0  0  0  0  0  0
    7.0340  -17.9779   22.5022 C   0  0  0  0  0  0  0  0  0  0  0  0
    6.1128  -17.5038   23.9875 S   0  0  0  0  0  0  0  0  0  0  0  0
    9.0542  -17.1439   23.5180 C   0  0  0  0  0  0  0  0  0  0  0  0
    9.9854  -18.0134   23.5512 O   0  0  0  0  0  0  0  0  0  0  0  0
    8.8206  -16.3062   24.6243 N   0  0  0  0  0  0  0  0  0  0  0  0
    9.6889  -16.5158   25.8302 C   0  0  1  0  0  0  0  0  0  0  0  0
    9.4421  -15.3775   26.7426 C   0  0  0  0  0  0  0  0  0  0  0  0
   10.0932  -15.3077   28.0484 C   0  0  0  0  0  0  0  0  0  0  0  0
    9.8398  -14.2168   29.0015 C   0  0  0  0  0  0  0  0  0  0  0  0
   10.6519  -14.5621   30.2766 C   0  0  0  0  0  0  0  0  0  0  0  0
   10.3934  -13.5912   31.2985 N   0  0  0  0  0  0  0  0  0  0  0  0
    9.2501  -17.8524   26.2992 C   0  0  0  0  0  0  0  0  0  0  0  0
    8.0496  -18.2193   25.9897 O   0  0  0  0  0  0  0  0  0  0  0  0
    9.9309  -18.7847   27.0216 O   0  0  0  0  0  0  0  0  0  0  0  0
  2  1  1  6
  2  3  1  0
  3  4  1  0
  4  5  2  0
  4  8  1  0
  6  2  1  0
  6  9  1  0
  7  6  2  0
 10  9  1  0
 10 13  1  0
 10 11  1  1
 12 11  1  0
 13 15  1  0
 14 13  2  0
 15 16  1  0
 16 17  1  1
 16 22  1  0
 17 18  1  0
 19 18  1  0
 20 21  1  0
 20 19  1  0
 22 24  1  0
 23 22  2  0
M  END
$$$$
