DCK.pdb
     RDKit          3D

 24 23  0  0  1  0  0  0  0  0999 V2000
    7.9984  -14.0210   20.1114 N   0  0  0  0  0  0  0  0  0  0  0  0
    7.5505  -14.7120   21.2942 C   0  0  1  0  0  0  0  0  0  0  0  0
    7.7566  -16.2078   21.0147 C   0  0  0  0  0  0  0  0  0  0  0  0
    6.7268  -16.5812   20.0237 C   0  0  0  0  0  0  0  0  0  0  0  0
    6.6694  -15.9915   18.9265 O   0  0  0  0  0  0  0  0  0  0  0  0
    8.3565  -14.3896   22.4878 C   0  0  0  0  0  0  0  0  0  0  0  0
    9.6094  -14.3097   22.3788 O   0  0  0  0  0  0  0  0  0  0  0  0
    5.8358  -17.5964   20.3476 O   0  0  0  0  0  0  0  0  0  0  0  0
    7.7243  -14.1749   23.7342 N   0  0  0  0  0  0  0  0  0  0  0  0
    8.4943  -13.8462   24.9175 C   0  0  1  0  0  0  0  0  0  0  0  0
    7.5749  -13.0851   25.8844 C   0  0  0  0  0  0  0  0  0  0  0  0
    5.9966  -13.9523   26.0753 S   0  0  0  0  0  0  0  0  0  0  0  0
    8.8543  -15.1074   25.5978 C   0  0  0  0  0  0  0  0  0  0  0  0
    8.0524  -16.0934   25.5030 O   0  0  0  0  0  0  0  0  0  0  0  0
   10.0482  -15.2269   26.3330 N   0  0  0  0  0  0  0  0  0  0  0  0
   10.3333  -16.5638   26.9524 C   0  0  1  0  0  0  0  0  0  0  0  0
   11.6146  -17.0378   26.3846 C   0  0  0  0  0  0  0  0  0  0  0  0
   11.8205  -18.4502   26.0731 C   0  0  0  0  0  0  0  0  0  0  0  0
   10.9380  -19.1968   25.1640 C   0  0  0  0  0  0  0  0  0  0  0  0
   11.4017  -20.6749   25.2317 C   0  0  0  0  0  0  0  0  0  0  0  0
   10.6038  -21.4781   24.3531 N   0  0  0  0  0  0  0  0  0  0  0  0
   10.3250  -16.2424   28.4001 C   0  0  0  0  0  0  0  0  0  0  0  0
   10.3715  -14.9919   28.7251 O   0  0  0  0  0  0  0  0  0  0  0  0
   10.2701  -17.0783   29.4738 O   0  0  0  0  0  0  0  0  0  0  0  0
  2  1  1  6
  2  3  1  0
  3  4  1  0
  4  5  2  0
  4  8  1  0
  6  2  1  0
  6  9  1  0
  7  6  2  0
 10  9  1  0
 10 13  1  0
 10 11  1  1
 12 11  1  0
 13 15  1  0
 14 13  2  0
 15 16  1  0
 16 17  1  6
 16 22  1  0
 17 18  1  0
 19 18  1  0
 20 21  1  0
 20 19  1  0
 22 24  1  0
 23 22  2  0
M  END
$$$$
