WHL.pdb
     RDKit          3D

 33 35  0  0  1  0  0  0  0  0999 V2000
   27.0384  -19.7154  -16.3521 N   0  0  0  0  0  0  0  0  0  0  0  0
   26.1384  -18.9398  -15.5681 C   0  0  1  0  0  0  0  0  0  0  0  0
   25.2771  -18.0001  -16.3376 C   0  0  0  0  0  0  0  0  0  0  0  0
   26.0733  -16.8822  -16.8920 C   0  0  0  0  0  0  0  0  0  0  0  0
   26.3714  -16.6883  -18.2487 C   0  0  0  0  0  0  0  0  0  0  0  0
   27.0886  -15.5664  -18.3959 N   0  0  0  0  0  0  0  0  0  0  0  0
   27.2874  -14.9956  -17.1950 C   0  0  0  0  0  0  0  0  0  0  0  0
   27.9616  -13.8455  -16.8298 C   0  0  0  0  0  0  0  0  0  0  0  0
   28.0163  -13.4935  -15.5113 C   0  0  0  0  0  0  0  0  0  0  0  0
   27.4032  -14.2875  -14.5887 C   0  0  0  0  0  0  0  0  0  0  0  0
   26.7211  -15.4428  -14.9193 C   0  0  0  0  0  0  0  0  0  0  0  0
   26.6550  -15.8139  -16.2496 C   0  0  0  0  0  0  0  0  0  0  0  0
   25.2701  -19.8770  -14.7695 C   0  0  0  0  0  0  0  0  0  0  0  0
   24.9316  -20.9949  -15.2622 O   0  0  0  0  0  0  0  0  0  0  0  0
   24.8044  -19.5678  -13.4747 N   0  0  0  0  0  0  0  0  0  0  0  0
   24.0226  -20.5259  -12.7348 C   0  0  1  0  0  0  0  0  0  0  0  0
   24.3040  -20.5236  -11.2691 C   0  0  0  0  0  0  0  0  0  0  0  0
   25.7135  -20.8175  -10.9168 C   0  0  0  0  0  0  0  0  0  0  0  0
   26.7475  -21.1162  -11.7909 C   0  0  0  0  0  0  0  0  0  0  0  0
   27.8896  -21.3275  -11.1138 N   0  0  0  0  0  0  0  0  0  0  0  0
   27.6049  -21.1687   -9.8126 C   0  0  0  0  0  0  0  0  0  0  0  0
   26.2906  -20.8606   -9.6932 N   0  0  0  0  0  0  0  0  0  0  0  0
   22.5660  -20.1894  -12.8852 C   0  0  0  0  0  0  0  0  0  0  0  0
   22.2355  -19.0652  -13.3510 O   0  0  0  0  0  0  0  0  0  0  0  0
   18.3894  -20.7876  -15.5551 C   0  0  0  0  0  0  0  0  0  0  0  0
   19.7233  -21.4032  -15.8547 C   0  0  2  0  0  0  0  0  0  0  0  0
   19.4352  -22.8822  -16.2046 C   0  0  0  0  0  0  0  0  0  0  0  0
   20.6929  -21.4170  -14.7567 C   0  0  0  0  0  0  0  0  0  0  0  0
   20.2916  -21.1857  -13.3556 C   0  0  2  0  0  0  0  0  0  0  0  0
   21.5430  -21.0752  -12.5283 N   0  0  0  0  0  0  0  0  0  0  0  0
   19.4489  -22.1294  -12.6634 C   0  0  0  0  0  0  0  0  0  0  0  0
   19.7641  -23.4102  -12.2443 O   0  0  0  0  0  0  0  0  0  0  0  0
   18.2369  -21.7957  -12.3770 O   0  0  0  0  0  0  0  0  0  0  0  0
  2  1  1  6
  2 13  1  0
  2  3  1  0
  4  5  2  0
  4  3  1  0
  6  5  1  0
  7 12  2  0
  7  6  1  0
  8  7  1  0
  9 10  1  0
  9  8  2  0
 10 11  2  0
 11 12  1  0
 12  4  1  0
 13 14  2  0
 15 13  1  0
 15 16  1  0
 16 17  1  1
 18 22  1  0
 18 17  1  0
 19 18  2  0
 20 19  1  0
 20 21  1  0
 21 22  2  0
 23 24  2  0
 23 16  1  0
 26 25  1  1
 26 27  1  0
 26 28  1  0
 29 28  1  6
 29 30  1  0
 30 23  1  0
 31 32  1  0
 31 29  1  0
 33 31  2  0
M  END
$$$$
