WHL.pdb
     RDKit          3D

 33 35  0  0  1  0  0  0  0  0999 V2000
   25.4456  -17.1980  -18.2805 N   0  0  0  0  0  0  0  0  0  0  0  0
   25.9072  -17.8253  -17.0891 C   0  0  1  0  0  0  0  0  0  0  0  0
   26.0322  -16.9266  -15.9084 C   0  0  0  0  0  0  0  0  0  0  0  0
   27.1673  -15.9905  -16.0708 C   0  0  0  0  0  0  0  0  0  0  0  0
   27.1376  -14.6170  -15.7887 C   0  0  0  0  0  0  0  0  0  0  0  0
   28.3430  -14.0828  -16.0262 N   0  0  0  0  0  0  0  0  0  0  0  0
   29.1845  -15.0384  -16.4574 C   0  0  0  0  0  0  0  0  0  0  0  0
   30.5140  -14.9848  -16.8319 C   0  0  0  0  0  0  0  0  0  0  0  0
   31.1382  -16.1273  -17.2450 C   0  0  0  0  0  0  0  0  0  0  0  0
   30.4317  -17.2923  -17.2770 C   0  0  0  0  0  0  0  0  0  0  0  0
   29.1027  -17.3812  -16.9096 C   0  0  0  0  0  0  0  0  0  0  0  0
   28.4552  -16.2344  -16.4880 C   0  0  0  0  0  0  0  0  0  0  0  0
   24.9778  -18.9637  -16.7571 C   0  0  0  0  0  0  0  0  0  0  0  0
   23.7398  -18.8594  -17.0092 O   0  0  0  0  0  0  0  0  0  0  0  0
   25.4237  -20.1647  -16.1674 N   0  0  0  0  0  0  0  0  0  0  0  0
   24.4943  -21.2334  -15.9014 C   0  0  1  0  0  0  0  0  0  0  0  0
   25.1467  -22.4908  -15.4317 C   0  0  0  0  0  0  0  0  0  0  0  0
   24.2050  -23.6013  -15.1542 C   0  0  0  0  0  0  0  0  0  0  0  0
   22.8217  -23.5273  -15.0941 C   0  0  0  0  0  0  0  0  0  0  0  0
   22.2977  -24.7342  -14.8179 N   0  0  0  0  0  0  0  0  0  0  0  0
   23.3266  -25.5866  -14.6989 C   0  0  0  0  0  0  0  0  0  0  0  0
   24.4787  -24.9026  -14.9020 N   0  0  0  0  0  0  0  0  0  0  0  0
   23.5601  -20.8076  -14.8043 C   0  0  0  0  0  0  0  0  0  0  0  0
   24.0229  -20.2112  -13.7943 O   0  0  0  0  0  0  0  0  0  0  0  0
   19.2682  -17.1800  -14.2301 C   0  0  0  0  0  0  0  0  0  0  0  0
   19.9364  -18.2902  -13.4757 C   0  0  2  0  0  0  0  0  0  0  0  0
   20.7420  -17.6062  -12.3461 C   0  0  0  0  0  0  0  0  0  0  0  0
   20.8900  -19.1060  -14.2312 C   0  0  0  0  0  0  0  0  0  0  0  0
   21.2637  -20.4685  -13.8052 C   0  0  2  0  0  0  0  0  0  0  0  0
   22.1815  -21.0441  -14.8487 N   0  0  0  0  0  0  0  0  0  0  0  0
   20.2549  -21.4735  -13.5764 C   0  0  0  0  0  0  0  0  0  0  0  0
   19.6298  -21.8022  -12.3862 O   0  0  0  0  0  0  0  0  0  0  0  0
   19.8487  -22.1915  -14.5673 O   0  0  0  0  0  0  0  0  0  0  0  0
  2  1  1  6
  2 13  1  0
  2  3  1  0
  4  5  2  0
  4  3  1  0
  6  5  1  0
  7 12  2  0
  7  6  1  0
  8  7  1  0
  9 10  1  0
  9  8  2  0
 10 11  2  0
 11 12  1  0
 12  4  1  0
 13 14  2  0
 15 13  1  0
 15 16  1  0
 16 17  1  1
 18 22  1  0
 18 17  1  0
 19 18  2  0
 20 19  1  0
 20 21  1  0
 21 22  2  0
 23 24  2  0
 23 16  1  0
 26 25  1  6
 26 27  1  0
 26 28  1  0
 29 28  1  6
 29 30  1  0
 30 23  1  0
 31 32  1  0
 31 29  1  0
 33 31  2  0
M  END
$$$$
