WHL.pdb
     RDKit          3D

 33 35  0  0  1  0  0  0  0  0999 V2000
   27.9155  -20.2124   -9.9405 N   0  0  0  0  0  0  0  0  0  0  0  0
   26.6827  -20.8563   -9.6377 C   0  0  1  0  0  0  0  0  0  0  0  0
   25.9502  -20.3016   -8.4660 C   0  0  0  0  0  0  0  0  0  0  0  0
   26.8872  -19.7088   -7.4853 C   0  0  0  0  0  0  0  0  0  0  0  0
   27.3328  -18.3789   -7.4849 C   0  0  0  0  0  0  0  0  0  0  0  0
   28.1517  -18.1792   -6.4436 N   0  0  0  0  0  0  0  0  0  0  0  0
   28.2776  -19.3189   -5.7419 C   0  0  0  0  0  0  0  0  0  0  0  0
   29.0056  -19.6170   -4.6053 C   0  0  0  0  0  0  0  0  0  0  0  0
   28.9589  -20.8831   -4.0950 C   0  0  0  0  0  0  0  0  0  0  0  0
   28.1940  -21.8209   -4.7218 C   0  0  0  0  0  0  0  0  0  0  0  0
   27.4544  -21.5568   -5.8586 C   0  0  0  0  0  0  0  0  0  0  0  0
   27.4893  -20.2801   -6.3884 C   0  0  0  0  0  0  0  0  0  0  0  0
   25.7993  -20.7952  -10.8566 C   0  0  0  0  0  0  0  0  0  0  0  0
   25.8218  -19.7681  -11.5993 O   0  0  0  0  0  0  0  0  0  0  0  0
   24.9300  -21.8441  -11.2214 N   0  0  0  0  0  0  0  0  0  0  0  0
   24.2411  -21.8113  -12.4867 C   0  0  1  0  0  0  0  0  0  0  0  0
   23.9720  -23.1640  -13.0569 C   0  0  0  0  0  0  0  0  0  0  0  0
   25.0085  -23.6470  -14.0001 C   0  0  0  0  0  0  0  0  0  0  0  0
   26.1553  -22.9756  -14.3953 C   0  0  0  0  0  0  0  0  0  0  0  0
   26.8610  -23.7207  -15.2637 N   0  0  0  0  0  0  0  0  0  0  0  0
   26.1830  -24.8657  -15.4338 C   0  0  0  0  0  0  0  0  0  0  0  0
   25.0640  -24.8215  -14.6706 N   0  0  0  0  0  0  0  0  0  0  0  0
   22.9008  -21.1592  -12.2972 C   0  0  0  0  0  0  0  0  0  0  0  0
   22.3592  -21.1774  -11.1586 O   0  0  0  0  0  0  0  0  0  0  0  0
   18.8172  -17.6034  -14.0930 C   0  0  0  0  0  0  0  0  0  0  0  0
   20.0981  -17.3547  -13.3546 C   0  0  2  0  0  0  0  0  0  0  0  0
   20.6749  -16.0449  -13.9415 C   0  0  0  0  0  0  0  0  0  0  0  0
   21.1414  -18.3721  -13.5041 C   0  0  0  0  0  0  0  0  0  0  0  0
   20.9386  -19.7695  -13.0754 C   0  0  2  0  0  0  0  0  0  0  0  0
   22.2136  -20.5234  -13.3375 N   0  0  0  0  0  0  0  0  0  0  0  0
   19.8864  -20.5724  -13.6482 C   0  0  0  0  0  0  0  0  0  0  0  0
   19.9629  -21.4428  -14.7215 O   0  0  0  0  0  0  0  0  0  0  0  0
   18.7023  -20.5085  -13.1421 O   0  0  0  0  0  0  0  0  0  0  0  0
  2  1  1  6
  2 13  1  0
  2  3  1  0
  4  5  2  0
  4  3  1  0
  6  5  1  0
  7 12  2  0
  7  6  1  0
  8  7  1  0
  9 10  1  0
  9  8  2  0
 10 11  2  0
 11 12  1  0
 12  4  1  0
 13 14  2  0
 15 13  1  0
 15 16  1  0
 16 17  1  1
 18 22  1  0
 18 17  1  0
 19 18  2  0
 20 19  1  0
 20 21  1  0
 21 22  2  0
 23 24  2  0
 23 16  1  0
 26 25  1  6
 26 27  1  0
 26 28  1  0
 29 28  1  6
 29 30  1  0
 30 23  1  0
 31 32  1  0
 31 29  1  0
 33 31  2  0
M  END
$$$$
