WHL.pdb
     RDKit          3D

 33 35  0  0  1  0  0  0  0  0999 V2000
   26.2196  -22.7520  -12.3800 N   0  0  0  0  0  0  0  0  0  0  0  0
   25.5148  -21.6478  -11.8231 C   0  0  1  0  0  0  0  0  0  0  0  0
   26.3111  -20.3984  -11.6752 C   0  0  0  0  0  0  0  0  0  0  0  0
   27.4030  -20.5772  -10.6919 C   0  0  0  0  0  0  0  0  0  0  0  0
   28.7368  -20.8809  -11.0015 C   0  0  0  0  0  0  0  0  0  0  0  0
   29.4567  -20.9463   -9.8735 N   0  0  0  0  0  0  0  0  0  0  0  0
   28.6642  -20.7000   -8.8160 C   0  0  0  0  0  0  0  0  0  0  0  0
   28.9344  -20.6592   -7.4610 C   0  0  0  0  0  0  0  0  0  0  0  0
   27.9217  -20.3869   -6.5858 C   0  0  0  0  0  0  0  0  0  0  0  0
   26.6689  -20.1623   -7.0732 C   0  0  0  0  0  0  0  0  0  0  0  0
   26.3645  -20.1952   -8.4206 C   0  0  0  0  0  0  0  0  0  0  0  0
   27.3779  -20.4685   -9.3208 C   0  0  0  0  0  0  0  0  0  0  0  0
   24.3042  -21.3733  -12.6769 C   0  0  0  0  0  0  0  0  0  0  0  0
   24.4062  -21.3994  -13.9402 O   0  0  0  0  0  0  0  0  0  0  0  0
   23.0367  -21.0822  -12.1315 N   0  0  0  0  0  0  0  0  0  0  0  0
   21.9073  -20.8539  -12.9968 C   0  0  1  0  0  0  0  0  0  0  0  0
   20.6110  -21.3234  -12.4254 C   0  0  0  0  0  0  0  0  0  0  0  0
   20.4084  -22.7902  -12.4935 C   0  0  0  0  0  0  0  0  0  0  0  0
   21.1941  -23.7108  -13.1700 C   0  0  0  0  0  0  0  0  0  0  0  0
   20.7060  -24.9532  -13.0102 N   0  0  0  0  0  0  0  0  0  0  0  0
   19.6142  -24.8455  -12.2383 C   0  0  0  0  0  0  0  0  0  0  0  0
   19.4342  -23.5392  -11.9261 N   0  0  0  0  0  0  0  0  0  0  0  0
   21.7569  -19.3766  -13.2257 C   0  0  0  0  0  0  0  0  0  0  0  0
   22.5735  -18.5808  -12.6872 O   0  0  0  0  0  0  0  0  0  0  0  0
   23.0345  -15.6033  -16.1641 C   0  0  0  0  0  0  0  0  0  0  0  0
   22.7403  -16.9798  -16.6804 C   0  0  2  0  0  0  0  0  0  0  0  0
   21.6512  -16.7990  -17.7640 C   0  0  0  0  0  0  0  0  0  0  0  0
   22.2052  -17.9367  -15.7088 C   0  0  0  0  0  0  0  0  0  0  0  0
   21.0021  -17.6459  -14.9055 C   0  0  2  0  0  0  0  0  0  0  0  0
   20.7403  -18.8322  -14.0185 N   0  0  0  0  0  0  0  0  0  0  0  0
   19.7425  -17.3501  -15.5425 C   0  0  0  0  0  0  0  0  0  0  0  0
   19.1280  -16.1191  -15.6918 O   0  0  0  0  0  0  0  0  0  0  0  0
   19.0545  -18.3151  -16.0504 O   0  0  0  0  0  0  0  0  0  0  0  0
  2  1  1  6
  2 13  1  0
  2  3  1  0
  4  5  2  0
  4  3  1  0
  6  5  1  0
  7 12  2  0
  7  6  1  0
  8  7  1  0
  9 10  1  0
  9  8  2  0
 10 11  2  0
 11 12  1  0
 12  4  1  0
 13 14  2  0
 15 13  1  0
 15 16  1  0
 16 17  1  1
 18 22  1  0
 18 17  1  0
 19 18  2  0
 20 19  1  0
 20 21  1  0
 21 22  2  0
 23 24  2  0
 23 16  1  0
 26 25  1  1
 26 27  1  0
 26 28  1  0
 29 28  1  6
 29 30  1  0
 30 23  1  0
 31 32  1  0
 31 29  1  0
 33 31  2  0
M  END
$$$$
