WHL.pdb
     RDKit          3D

 33 35  0  0  1  0  0  0  0  0999 V2000
   28.3877  -30.2779  -15.6055 N   0  0  0  0  0  0  0  0  0  0  0  0
   28.9684  -30.0142  -16.8780 C   0  0  1  0  0  0  0  0  0  0  0  0
   28.7864  -28.6246  -17.3809 C   0  0  0  0  0  0  0  0  0  0  0  0
   27.3505  -28.2954  -17.5254 C   0  0  0  0  0  0  0  0  0  0  0  0
   26.5104  -27.8440  -16.4971 C   0  0  0  0  0  0  0  0  0  0  0  0
   25.2826  -27.6209  -16.9846 N   0  0  0  0  0  0  0  0  0  0  0  0
   25.2592  -27.9034  -18.2987 C   0  0  0  0  0  0  0  0  0  0  0  0
   24.2394  -27.8393  -19.2296 C   0  0  0  0  0  0  0  0  0  0  0  0
   24.4921  -28.1981  -20.5230 C   0  0  0  0  0  0  0  0  0  0  0  0
   25.7460  -28.6110  -20.8619 C   0  0  0  0  0  0  0  0  0  0  0  0
   26.7875  -28.6866  -19.9572 C   0  0  0  0  0  0  0  0  0  0  0  0
   26.5497  -28.3263  -18.6435 C   0  0  0  0  0  0  0  0  0  0  0  0
   30.4390  -30.3341  -16.8081 C   0  0  0  0  0  0  0  0  0  0  0  0
   30.9270  -30.8222  -15.7448 O   0  0  0  0  0  0  0  0  0  0  0  0
   31.3194  -30.1133  -17.8875 N   0  0  0  0  0  0  0  0  0  0  0  0
   32.2961  -31.1105  -18.2454 C   0  0  1  0  0  0  0  0  0  0  0  0
   31.7035  -32.4452  -18.5531 C   0  0  0  0  0  0  0  0  0  0  0  0
   32.6992  -33.5259  -18.7477 C   0  0  0  0  0  0  0  0  0  0  0  0
   33.8928  -33.6944  -18.0626 C   0  0  0  0  0  0  0  0  0  0  0  0
   34.5407  -34.7851  -18.5076 N   0  0  0  0  0  0  0  0  0  0  0  0
   33.7792  -35.3229  -19.4722 C   0  0  0  0  0  0  0  0  0  0  0  0
   32.6668  -34.5626  -19.6174 N   0  0  0  0  0  0  0  0  0  0  0  0
   33.0119  -30.6696  -19.4907 C   0  0  0  0  0  0  0  0  0  0  0  0
   32.3504  -30.4629  -20.5443 O   0  0  0  0  0  0  0  0  0  0  0  0
   34.4894  -27.0122  -21.5210 C   0  0  0  0  0  0  0  0  0  0  0  0
   35.2706  -27.5561  -20.3626 C   0  0  2  0  0  0  0  0  0  0  0  0
   36.4319  -26.5602  -20.1336 C   0  0  0  0  0  0  0  0  0  0  0  0
   35.8836  -28.8726  -20.5543 C   0  0  0  0  0  0  0  0  0  0  0  0
   35.0775  -30.0794  -20.8218 C   0  0  2  0  0  0  0  0  0  0  0  0
   34.3968  -30.4745  -19.5399 N   0  0  0  0  0  0  0  0  0  0  0  0
   35.6939  -31.2831  -21.3227 C   0  0  0  0  0  0  0  0  0  0  0  0
   35.8683  -32.4904  -20.6689 O   0  0  0  0  0  0  0  0  0  0  0  0
   36.1657  -31.2938  -22.5226 O   0  0  0  0  0  0  0  0  0  0  0  0
  2  1  1  1
  2 13  1  0
  2  3  1  0
  4  5  2  0
  4  3  1  0
  6  5  1  0
  7 12  2  0
  7  6  1  0
  8  7  1  0
  9 10  1  0
  9  8  2  0
 10 11  2  0
 11 12  1  0
 12  4  1  0
 13 14  2  0
 15 13  1  0
 15 16  1  0
 16 17  1  6
 18 22  1  0
 18 17  1  0
 19 18  2  0
 20 19  1  0
 20 21  1  0
 21 22  2  0
 23 24  2  0
 23 16  1  0
 26 25  1  6
 26 27  1  0
 26 28  1  0
 29 28  1  1
 29 30  1  0
 30 23  1  0
 31 32  1  0
 31 29  1  0
 33 31  2  0
M  END
$$$$
