WHL.pdb
     RDKit          3D

 33 35  0  0  1  0  0  0  0  0999 V2000
   22.6340  -19.4704  -17.4854 N   0  0  0  0  0  0  0  0  0  0  0  0
   23.3393  -18.4992  -16.7204 C   0  0  1  0  0  0  0  0  0  0  0  0
   22.5377  -17.8212  -15.6646 C   0  0  0  0  0  0  0  0  0  0  0  0
   21.4534  -17.0083  -16.2603 C   0  0  0  0  0  0  0  0  0  0  0  0
   20.0824  -17.2913  -16.1760 C   0  0  0  0  0  0  0  0  0  0  0  0
   19.3862  -16.3356  -16.8060 N   0  0  0  0  0  0  0  0  0  0  0  0
   20.2305  -15.4201  -17.3124 C   0  0  0  0  0  0  0  0  0  0  0  0
   20.0000  -14.2672  -18.0393 C   0  0  0  0  0  0  0  0  0  0  0  0
   21.0616  -13.5085  -18.4428 C   0  0  0  0  0  0  0  0  0  0  0  0
   22.3229  -13.9096  -18.1173 C   0  0  0  0  0  0  0  0  0  0  0  0
   22.5885  -15.0554  -17.3922 C   0  0  0  0  0  0  0  0  0  0  0  0
   21.5255  -15.8350  -16.9748 C   0  0  0  0  0  0  0  0  0  0  0  0
   24.5372  -19.1630  -16.0924 C   0  0  0  0  0  0  0  0  0  0  0  0
   24.4532  -20.3622  -15.6901 O   0  0  0  0  0  0  0  0  0  0  0  0
   25.7732  -18.5047  -15.9251 N   0  0  0  0  0  0  0  0  0  0  0  0
   26.9040  -19.2090  -15.3757 C   0  0  1  0  0  0  0  0  0  0  0  0
   28.2201  -18.6968  -15.8584 C   0  0  0  0  0  0  0  0  0  0  0  0
   28.6054  -19.1765  -17.2069 C   0  0  0  0  0  0  0  0  0  0  0  0
   27.9052  -20.0653  -18.0083 C   0  0  0  0  0  0  0  0  0  0  0  0
   28.5580  -20.2700  -19.1656 N   0  0  0  0  0  0  0  0  0  0  0  0
   29.6718  -19.5237  -19.1207 C   0  0  0  0  0  0  0  0  0  0  0  0
   29.7007  -18.8630  -17.9378 N   0  0  0  0  0  0  0  0  0  0  0  0
   26.9075  -19.0401  -13.8828 C   0  0  0  0  0  0  0  0  0  0  0  0
   26.3460  -18.0328  -13.3727 O   0  0  0  0  0  0  0  0  0  0  0  0
   25.3934  -21.3825   -9.2757 C   0  0  0  0  0  0  0  0  0  0  0  0
   24.9505  -20.3042  -10.2187 C   0  0  2  0  0  0  0  0  0  0  0  0
   23.4751  -20.6216  -10.5580 C   0  0  0  0  0  0  0  0  0  0  0  0
   25.6633  -20.2262  -11.4960 C   0  0  0  0  0  0  0  0  0  0  0  0
   27.1237  -20.0264  -11.5660 C   0  0  2  0  0  0  0  0  0  0  0  0
   27.5123  -19.9589  -13.0176 N   0  0  0  0  0  0  0  0  0  0  0  0
   28.0284  -20.9747  -10.9642 C   0  0  0  0  0  0  0  0  0  0  0  0
   28.7182  -20.8590   -9.7699 O   0  0  0  0  0  0  0  0  0  0  0  0
   28.2683  -22.0860  -11.5723 O   0  0  0  0  0  0  0  0  0  0  0  0
  2  1  1  1
  2 13  1  0
  2  3  1  0
  4  5  2  0
  4  3  1  0
  6  5  1  0
  7 12  2  0
  7  6  1  0
  8  7  1  0
  9 10  1  0
  9  8  2  0
 10 11  2  0
 11 12  1  0
 12  4  1  0
 13 14  2  0
 15 13  1  0
 15 16  1  0
 16 17  1  6
 18 22  1  0
 18 17  1  0
 19 18  2  0
 20 19  1  0
 20 21  1  0
 21 22  2  0
 23 24  2  0
 23 16  1  0
 26 25  1  1
 26 27  1  0
 26 28  1  0
 29 28  1  6
 29 30  1  0
 30 23  1  0
 31 32  1  0
 31 29  1  0
 33 31  2  0
M  END
$$$$
