WHL.pdb
     RDKit          3D

 33 35  0  0  1  0  0  0  0  0999 V2000
   27.9344  -21.5530  -13.0573 N   0  0  0  0  0  0  0  0  0  0  0  0
   26.7764  -21.4536  -12.2355 C   0  0  1  0  0  0  0  0  0  0  0  0
   26.7729  -20.3094  -11.2829 C   0  0  0  0  0  0  0  0  0  0  0  0
   27.8012  -20.4882  -10.2333 C   0  0  0  0  0  0  0  0  0  0  0  0
   29.1690  -20.6998  -10.4602 C   0  0  0  0  0  0  0  0  0  0  0  0
   29.8101  -20.7946   -9.2877 N   0  0  0  0  0  0  0  0  0  0  0  0
   28.9319  -20.6564   -8.2793 C   0  0  0  0  0  0  0  0  0  0  0  0
   29.1029  -20.6837   -6.9079 C   0  0  0  0  0  0  0  0  0  0  0  0
   28.0168  -20.5205   -6.0960 C   0  0  0  0  0  0  0  0  0  0  0  0
   26.7905  -20.3349   -6.6611 C   0  0  0  0  0  0  0  0  0  0  0  0
   26.5845  -20.3022   -8.0269 C   0  0  0  0  0  0  0  0  0  0  0  0
   27.6730  -20.4648   -8.8639 C   0  0  0  0  0  0  0  0  0  0  0  0
   25.5640  -21.3693  -13.1260 C   0  0  0  0  0  0  0  0  0  0  0  0
   25.6110  -20.6811  -14.1895 O   0  0  0  0  0  0  0  0  0  0  0  0
   24.3537  -22.0301  -12.8305 N   0  0  0  0  0  0  0  0  0  0  0  0
   23.2766  -22.0379  -13.7877 C   0  0  1  0  0  0  0  0  0  0  0  0
   22.5862  -23.3562  -13.9012 C   0  0  0  0  0  0  0  0  0  0  0  0
   23.3109  -24.3572  -14.7197 C   0  0  0  0  0  0  0  0  0  0  0  0
   24.5148  -24.1785  -15.3841 C   0  0  0  0  0  0  0  0  0  0  0  0
   24.8690  -25.3048  -16.0269 N   0  0  0  0  0  0  0  0  0  0  0  0
   23.9078  -26.2088  -15.7854 C   0  0  0  0  0  0  0  0  0  0  0  0
   22.9666  -25.6368  -14.9958 N   0  0  0  0  0  0  0  0  0  0  0  0
   22.2305  -21.0499  -13.3553 C   0  0  0  0  0  0  0  0  0  0  0  0
   22.1150  -20.7667  -12.1319 O   0  0  0  0  0  0  0  0  0  0  0  0
   20.8115  -16.2098  -13.3150 C   0  0  0  0  0  0  0  0  0  0  0  0
   21.2318  -17.0532  -14.4812 C   0  0  2  0  0  0  0  0  0  0  0  0
   21.0838  -16.1505  -15.7286 C   0  0  0  0  0  0  0  0  0  0  0  0
   20.4296  -18.2517  -14.7378 C   0  0  0  0  0  0  0  0  0  0  0  0
   20.3833  -19.3802  -13.7882 C   0  0  2  0  0  0  0  0  0  0  0  0
   21.3651  -20.4193  -14.2564 N   0  0  0  0  0  0  0  0  0  0  0  0
   19.1518  -20.0898  -13.5439 C   0  0  0  0  0  0  0  0  0  0  0  0
   18.1311  -19.7557  -12.6709 O   0  0  0  0  0  0  0  0  0  0  0  0
   18.9197  -21.1832  -14.1866 O   0  0  0  0  0  0  0  0  0  0  0  0
  2  1  1  6
  2 13  1  0
  2  3  1  0
  4  5  2  0
  4  3  1  0
  6  5  1  0
  7 12  2  0
  7  6  1  0
  8  7  1  0
  9 10  1  0
  9  8  2  0
 10 11  2  0
 11 12  1  0
 12  4  1  0
 13 14  2  0
 15 13  1  0
 15 16  1  0
 16 17  1  1
 18 22  1  0
 18 17  1  0
 19 18  2  0
 20 19  1  0
 20 21  1  0
 21 22  2  0
 23 24  2  0
 23 16  1  0
 26 25  1  1
 26 27  1  0
 26 28  1  0
 29 28  1  6
 29 30  1  0
 30 23  1  0
 31 32  1  0
 31 29  1  0
 33 31  2  0
M  END
$$$$
