WHL.pdb
     RDKit          3D

 33 35  0  0  1  0  0  0  0  0999 V2000
   27.2743  -22.0948  -14.6866 N   0  0  0  0  0  0  0  0  0  0  0  0
   26.2713  -21.6180  -13.7962 C   0  0  1  0  0  0  0  0  0  0  0  0
   26.5673  -20.3084  -13.1525 C   0  0  0  0  0  0  0  0  0  0  0  0
   27.6250  -20.4475  -12.1263 C   0  0  0  0  0  0  0  0  0  0  0  0
   29.0043  -20.4845  -12.3774 C   0  0  0  0  0  0  0  0  0  0  0  0
   29.6696  -20.5936  -11.2197 N   0  0  0  0  0  0  0  0  0  0  0  0
   28.7966  -20.6324  -10.1981 C   0  0  0  0  0  0  0  0  0  0  0  0
   28.9902  -20.7429   -8.8339 C   0  0  0  0  0  0  0  0  0  0  0  0
   27.9050  -20.7657   -8.0049 C   0  0  0  0  0  0  0  0  0  0  0  0
   26.6572  -20.6788   -8.5463 C   0  0  0  0  0  0  0  0  0  0  0  0
   26.4283  -20.5672   -9.9044 C   0  0  0  0  0  0  0  0  0  0  0  0
   27.5156  -20.5417  -10.7583 C   0  0  0  0  0  0  0  0  0  0  0  0
   24.9693  -21.5246  -14.5484 C   0  0  0  0  0  0  0  0  0  0  0  0
   24.8053  -20.6107  -15.4115 O   0  0  0  0  0  0  0  0  0  0  0  0
   23.9007  -22.4203  -14.3369 N   0  0  0  0  0  0  0  0  0  0  0  0
   22.6241  -22.1911  -14.9649 C   0  0  1  0  0  0  0  0  0  0  0  0
   22.2360  -23.2546  -15.9374 C   0  0  0  0  0  0  0  0  0  0  0  0
   22.9836  -23.2154  -17.2167 C   0  0  0  0  0  0  0  0  0  0  0  0
   23.8726  -22.2368  -17.6342 C   0  0  0  0  0  0  0  0  0  0  0  0
   24.3596  -22.5323  -18.8520 N   0  0  0  0  0  0  0  0  0  0  0  0
   23.7952  -23.6905  -19.2256 C   0  0  0  0  0  0  0  0  0  0  0  0
   22.9640  -24.1033  -18.2381 N   0  0  0  0  0  0  0  0  0  0  0  0
   21.5553  -22.1747  -13.9090 C   0  0  0  0  0  0  0  0  0  0  0  0
   21.8443  -22.5187  -12.7307 O   0  0  0  0  0  0  0  0  0  0  0  0
   19.9170  -17.8022  -11.3838 C   0  0  0  0  0  0  0  0  0  0  0  0
   19.4923  -19.2389  -11.4429 C   0  0  2  0  0  0  0  0  0  0  0  0
   19.9744  -19.8752  -10.1179 C   0  0  0  0  0  0  0  0  0  0  0  0
   20.0689  -20.0421  -12.5238 C   0  0  0  0  0  0  0  0  0  0  0  0
   19.3675  -21.2105  -13.0899 C   0  0  2  0  0  0  0  0  0  0  0  0
   20.2355  -21.7911  -14.1726 N   0  0  0  0  0  0  0  0  0  0  0  0
   18.0560  -21.0731  -13.6736 C   0  0  0  0  0  0  0  0  0  0  0  0
   16.8260  -21.2494  -13.0642 O   0  0  0  0  0  0  0  0  0  0  0  0
   17.9537  -20.7528  -14.9184 O   0  0  0  0  0  0  0  0  0  0  0  0
  2  1  1  6
  2 13  1  0
  2  3  1  0
  4  5  2  0
  4  3  1  0
  6  5  1  0
  7 12  2  0
  7  6  1  0
  8  7  1  0
  9 10  1  0
  9  8  2  0
 10 11  2  0
 11 12  1  0
 12  4  1  0
 13 14  2  0
 15 13  1  0
 15 16  1  0
 16 17  1  6
 18 22  1  0
 18 17  1  0
 19 18  2  0
 20 19  1  0
 20 21  1  0
 21 22  2  0
 23 24  2  0
 23 16  1  0
 26 25  1  6
 26 27  1  0
 26 28  1  0
 29 28  1  6
 29 30  1  0
 30 23  1  0
 31 32  1  0
 31 29  1  0
 33 31  2  0
M  END
$$$$
