WHL.pdb
     RDKit          3D

 33 35  0  0  1  0  0  0  0  0999 V2000
   22.6269  -18.8641  -18.1718 N   0  0  0  0  0  0  0  0  0  0  0  0
   23.2140  -18.1723  -17.0750 C   0  0  1  0  0  0  0  0  0  0  0  0
   22.2637  -17.7584  -16.0062 C   0  0  0  0  0  0  0  0  0  0  0  0
   21.3079  -16.7455  -16.5077 C   0  0  0  0  0  0  0  0  0  0  0  0
   19.9512  -16.9709  -16.7827 C   0  0  0  0  0  0  0  0  0  0  0  0
   19.3806  -15.8315  -17.1963 N   0  0  0  0  0  0  0  0  0  0  0  0
   20.2959  -14.8470  -17.2124 C   0  0  0  0  0  0  0  0  0  0  0  0
   20.1982  -13.5137  -17.5637 C   0  0  0  0  0  0  0  0  0  0  0  0
   21.3084  -12.7212  -17.4927 C   0  0  0  0  0  0  0  0  0  0  0  0
   22.4856  -13.2676  -17.0765 C   0  0  0  0  0  0  0  0  0  0  0  0
   22.6179  -14.5954  -16.7180 C   0  0  0  0  0  0  0  0  0  0  0  0
   21.5040  -15.4120  -16.7830 C   0  0  0  0  0  0  0  0  0  0  0  0
   24.2895  -19.0439  -16.4804 C   0  0  0  0  0  0  0  0  0  0  0  0
   24.0796  -20.2843  -16.3245 O   0  0  0  0  0  0  0  0  0  0  0  0
   25.5442  -18.5400  -16.0795 N   0  0  0  0  0  0  0  0  0  0  0  0
   26.5430  -19.4243  -15.5347 C   0  0  1  0  0  0  0  0  0  0  0  0
   27.9422  -19.0206  -15.8614 C   0  0  0  0  0  0  0  0  0  0  0  0
   28.3625  -19.3390  -17.2467 C   0  0  0  0  0  0  0  0  0  0  0  0
   27.6279  -20.0182  -18.2067 C   0  0  0  0  0  0  0  0  0  0  0  0
   28.3297  -20.1239  -19.3485 N   0  0  0  0  0  0  0  0  0  0  0  0
   29.5091  -19.5209  -19.1368 C   0  0  0  0  0  0  0  0  0  0  0  0
   29.5292  -19.0467  -17.8675 N   0  0  0  0  0  0  0  0  0  0  0  0
   26.4403  -19.4141  -14.0357 C   0  0  0  0  0  0  0  0  0  0  0  0
   26.3451  -18.3125  -13.4295 O   0  0  0  0  0  0  0  0  0  0  0  0
   24.9929  -20.2724   -9.1328 C   0  0  0  0  0  0  0  0  0  0  0  0
   24.2852  -19.6187  -10.2816 C   0  0  2  0  0  0  0  0  0  0  0  0
   22.8809  -20.2652  -10.3338 C   0  0  0  0  0  0  0  0  0  0  0  0
   24.8814  -19.8119  -11.6057 C   0  0  0  0  0  0  0  0  0  0  0  0
   26.1490  -20.5435  -11.7937 C   0  0  2  0  0  0  0  0  0  0  0  0
   26.4454  -20.5841  -13.2678 N   0  0  0  0  0  0  0  0  0  0  0  0
   26.2939  -21.9012  -11.3295 C   0  0  0  0  0  0  0  0  0  0  0  0
   26.9816  -22.3562  -10.2180 O   0  0  0  0  0  0  0  0  0  0  0  0
   25.7394  -22.8550  -11.9970 O   0  0  0  0  0  0  0  0  0  0  0  0
  2  1  1  6
  2 13  1  0
  2  3  1  0
  4  5  2  0
  4  3  1  0
  6  5  1  0
  7 12  2  0
  7  6  1  0
  8  7  1  0
  9 10  1  0
  9  8  2  0
 10 11  2  0
 11 12  1  0
 12  4  1  0
 13 14  2  0
 15 13  1  0
 15 16  1  0
 16 17  1  1
 18 22  1  0
 18 17  1  0
 19 18  2  0
 20 19  1  0
 20 21  1  0
 21 22  2  0
 23 24  2  0
 23 16  1  0
 26 25  1  1
 26 27  1  0
 26 28  1  0
 29 28  1  6
 29 30  1  0
 30 23  1  0
 31 32  1  0
 31 29  1  0
 33 31  2  0
M  END
$$$$
