WHL.pdb
     RDKit          3D

 33 35  0  0  1  0  0  0  0  0999 V2000
   27.6639  -19.7825  -10.5461 N   0  0  0  0  0  0  0  0  0  0  0  0
   26.8379  -20.9396  -10.4760 C   0  0  1  0  0  0  0  0  0  0  0  0
   26.0886  -21.1059   -9.2002 C   0  0  0  0  0  0  0  0  0  0  0  0
   26.8013  -20.4572   -8.0766 C   0  0  0  0  0  0  0  0  0  0  0  0
   26.3425  -19.3469   -7.3530 C   0  0  0  0  0  0  0  0  0  0  0  0
   27.2251  -19.0397   -6.3930 N   0  0  0  0  0  0  0  0  0  0  0  0
   28.2603  -19.8961   -6.4392 C   0  0  0  0  0  0  0  0  0  0  0  0
   29.4067  -19.9867   -5.6722 C   0  0  0  0  0  0  0  0  0  0  0  0
   30.3163  -20.9688   -5.9439 C   0  0  0  0  0  0  0  0  0  0  0  0
   30.0686  -21.8351   -6.9665 C   0  0  0  0  0  0  0  0  0  0  0  0
   28.9337  -21.7729   -7.7521 C   0  0  0  0  0  0  0  0  0  0  0  0
   28.0018  -20.7854   -7.4906 C   0  0  0  0  0  0  0  0  0  0  0  0
   25.8670  -20.9045  -11.6275 C   0  0  0  0  0  0  0  0  0  0  0  0
   25.4123  -19.7930  -12.0336 O   0  0  0  0  0  0  0  0  0  0  0  0
   25.4283  -22.0693  -12.2906 N   0  0  0  0  0  0  0  0  0  0  0  0
   24.6555  -21.9691  -13.5027 C   0  0  1  0  0  0  0  0  0  0  0  0
   24.9358  -23.0588  -14.4831 C   0  0  0  0  0  0  0  0  0  0  0  0
   26.1964  -22.8874  -15.2438 C   0  0  0  0  0  0  0  0  0  0  0  0
   27.0571  -21.8013  -15.1991 C   0  0  0  0  0  0  0  0  0  0  0  0
   28.1002  -21.9933  -16.0253 N   0  0  0  0  0  0  0  0  0  0  0  0
   27.9229  -23.1910  -16.6030 C   0  0  0  0  0  0  0  0  0  0  0  0
   26.7731  -23.7313  -16.1311 N   0  0  0  0  0  0  0  0  0  0  0  0
   23.1957  -22.0731  -13.1623 C   0  0  0  0  0  0  0  0  0  0  0  0
   22.8417  -22.7420  -12.1537 O   0  0  0  0  0  0  0  0  0  0  0  0
   20.0398  -20.0664  -10.6647 C   0  0  0  0  0  0  0  0  0  0  0  0
   20.6789  -19.4163  -11.8551 C   0  0  2  0  0  0  0  0  0  0  0  0
   20.0947  -17.9853  -11.9173 C   0  0  0  0  0  0  0  0  0  0  0  0
   20.4068  -20.0334  -13.1555 C   0  0  0  0  0  0  0  0  0  0  0  0
   20.7672  -21.4342  -13.4474 C   0  0  2  0  0  0  0  0  0  0  0  0
   22.1948  -21.4555  -13.9209 N   0  0  0  0  0  0  0  0  0  0  0  0
   20.0239  -22.2015  -14.4162 C   0  0  0  0  0  0  0  0  0  0  0  0
   18.9116  -22.9976  -14.2052 O   0  0  0  0  0  0  0  0  0  0  0  0
   20.3996  -22.1873  -15.6495 O   0  0  0  0  0  0  0  0  0  0  0  0
  2  1  1  1
  2 13  1  0
  2  3  1  0
  4  5  2  0
  4  3  1  0
  6  5  1  0
  7 12  2  0
  7  6  1  0
  8  7  1  0
  9 10  1  0
  9  8  2  0
 10 11  2  0
 11 12  1  0
 12  4  1  0
 13 14  2  0
 15 13  1  0
 15 16  1  0
 16 17  1  6
 18 22  1  0
 18 17  1  0
 19 18  2  0
 20 19  1  0
 20 21  1  0
 21 22  2  0
 23 24  2  0
 23 16  1  0
 26 25  1  1
 26 27  1  0
 26 28  1  0
 29 28  1  6
 29 30  1  0
 30 23  1  0
 31 32  1  0
 31 29  1  0
 33 31  2  0
M  END
$$$$
