WHL.pdb
     RDKit          3D

 33 35  0  0  1  0  0  0  0  0999 V2000
   27.3743  -20.4842  -16.1116 N   0  0  0  0  0  0  0  0  0  0  0  0
   26.9825  -21.1254  -14.9027 C   0  0  1  0  0  0  0  0  0  0  0  0
   26.8754  -20.2303  -13.7176 C   0  0  0  0  0  0  0  0  0  0  0  0
   28.2142  -19.8904  -13.1855 C   0  0  0  0  0  0  0  0  0  0  0  0
   28.9568  -18.7477  -13.5169 C   0  0  0  0  0  0  0  0  0  0  0  0
   30.1096  -18.7468  -12.8343 N   0  0  0  0  0  0  0  0  0  0  0  0
   30.1760  -19.8414  -12.0567 C   0  0  0  0  0  0  0  0  0  0  0  0
   31.1525  -20.2858  -11.1852 C   0  0  0  0  0  0  0  0  0  0  0  0
   30.9640  -21.4600  -10.5133 C   0  0  0  0  0  0  0  0  0  0  0  0
   29.8154  -22.1637  -10.7208 C   0  0  0  0  0  0  0  0  0  0  0  0
   28.8196  -21.7483  -11.5839 C   0  0  0  0  0  0  0  0  0  0  0  0
   28.9934  -20.5615  -12.2718 C   0  0  0  0  0  0  0  0  0  0  0  0
   25.6622  -21.8138  -15.1326 C   0  0  0  0  0  0  0  0  0  0  0  0
   24.7423  -21.2149  -15.7668 O   0  0  0  0  0  0  0  0  0  0  0  0
   25.3912  -23.1176  -14.6684 N   0  0  0  0  0  0  0  0  0  0  0  0
   24.0869  -23.7005  -14.8567 C   0  0  1  0  0  0  0  0  0  0  0  0
   23.9978  -25.1233  -14.4152 C   0  0  0  0  0  0  0  0  0  0  0  0
   22.7196  -25.7909  -14.7583 C   0  0  0  0  0  0  0  0  0  0  0  0
   21.6609  -25.2503  -15.4720 C   0  0  0  0  0  0  0  0  0  0  0  0
   20.6659  -26.1468  -15.5890 N   0  0  0  0  0  0  0  0  0  0  0  0
   21.0699  -27.2601  -14.9590 C   0  0  0  0  0  0  0  0  0  0  0  0
   22.3103  -27.0454  -14.4572 N   0  0  0  0  0  0  0  0  0  0  0  0
   23.0873  -22.9397  -14.0323 C   0  0  0  0  0  0  0  0  0  0  0  0
   23.4846  -22.2719  -13.0392 O   0  0  0  0  0  0  0  0  0  0  0  0
   21.3582  -19.2480  -12.3739 C   0  0  0  0  0  0  0  0  0  0  0  0
   21.8633  -19.4613  -13.7694 C   0  0  2  0  0  0  0  0  0  0  0  0
   21.5033  -18.1744  -14.5486 C   0  0  0  0  0  0  0  0  0  0  0  0
   21.2695  -20.5762  -14.5111 C   0  0  0  0  0  0  0  0  0  0  0  0
   20.8316  -21.8162  -13.8416 C   0  0  2  0  0  0  0  0  0  0  0  0
   21.7170  -22.9357  -14.3164 N   0  0  0  0  0  0  0  0  0  0  0  0
   19.4805  -22.2982  -13.9902 C   0  0  0  0  0  0  0  0  0  0  0  0
   18.9560  -23.0716  -15.0111 O   0  0  0  0  0  0  0  0  0  0  0  0
   18.6049  -21.9976  -13.0928 O   0  0  0  0  0  0  0  0  0  0  0  0
  2  1  1  6
  2 13  1  0
  2  3  1  0
  4  5  2  0
  4  3  1  0
  6  5  1  0
  7 12  2  0
  7  6  1  0
  8  7  1  0
  9 10  1  0
  9  8  2  0
 10 11  2  0
 11 12  1  0
 12  4  1  0
 13 14  2  0
 15 13  1  0
 15 16  1  0
 16 17  1  1
 18 22  1  0
 18 17  1  0
 19 18  2  0
 20 19  1  0
 20 21  1  0
 21 22  2  0
 23 24  2  0
 23 16  1  0
 26 25  1  1
 26 27  1  0
 26 28  1  0
 29 28  1  6
 29 30  1  0
 30 23  1  0
 31 32  1  0
 31 29  1  0
 33 31  2  0
M  END
$$$$
