WHL.pdb
     RDKit          3D

 33 35  0  0  1  0  0  0  0  0999 V2000
   26.2245  -18.4812   -9.1977 N   0  0  0  0  0  0  0  0  0  0  0  0
   26.5285  -19.8123   -9.5999 C   0  0  1  0  0  0  0  0  0  0  0  0
   26.1553  -20.8701   -8.6206 C   0  0  0  0  0  0  0  0  0  0  0  0
   26.5430  -20.4823   -7.2457 C   0  0  0  0  0  0  0  0  0  0  0  0
   25.7125  -19.8415   -6.3149 C   0  0  0  0  0  0  0  0  0  0  0  0
   26.3779  -19.6635   -5.1658 N   0  0  0  0  0  0  0  0  0  0  0  0
   27.6229  -20.1570   -5.2829 C   0  0  0  0  0  0  0  0  0  0  0  0
   28.6749  -20.2056   -4.3875 C   0  0  0  0  0  0  0  0  0  0  0  0
   29.8572  -20.7684   -4.7760 C   0  0  0  0  0  0  0  0  0  0  0  0
   29.9684  -21.2681   -6.0392 C   0  0  0  0  0  0  0  0  0  0  0  0
   28.9374  -21.2359   -6.9585 C   0  0  0  0  0  0  0  0  0  0  0  0
   27.7331  -20.6705   -6.5818 C   0  0  0  0  0  0  0  0  0  0  0  0
   25.8452  -20.0823  -10.9152 C   0  0  0  0  0  0  0  0  0  0  0  0
   24.7392  -19.5209  -11.1766 O   0  0  0  0  0  0  0  0  0  0  0  0
   26.3841  -20.9462  -11.8910 N   0  0  0  0  0  0  0  0  0  0  0  0
   25.8967  -20.9067  -13.2465 C   0  0  1  0  0  0  0  0  0  0  0  0
   26.9388  -21.2240  -14.2667 C   0  0  0  0  0  0  0  0  0  0  0  0
   27.6462  -20.0388  -14.8071 C   0  0  0  0  0  0  0  0  0  0  0  0
   27.2858  -18.7090  -14.6516 C   0  0  0  0  0  0  0  0  0  0  0  0
   28.1619  -17.9074  -15.2818 N   0  0  0  0  0  0  0  0  0  0  0  0
   29.0839  -18.7042  -15.8426 C   0  0  0  0  0  0  0  0  0  0  0  0
   28.7727  -19.9917  -15.5560 N   0  0  0  0  0  0  0  0  0  0  0  0
   24.8187  -21.9406  -13.4092 C   0  0  0  0  0  0  0  0  0  0  0  0
   24.8498  -22.9836  -12.7013 O   0  0  0  0  0  0  0  0  0  0  0  0
   19.5039  -21.5452  -12.6986 C   0  0  0  0  0  0  0  0  0  0  0  0
   20.7748  -21.8574  -11.9668 C   0  0  2  0  0  0  0  0  0  0  0  0
   20.7652  -20.9619  -10.7056 C   0  0  0  0  0  0  0  0  0  0  0  0
   22.0217  -21.5622  -12.6768 C   0  0  0  0  0  0  0  0  0  0  0  0
   22.3663  -22.2121  -13.9560 C   0  0  2  0  0  0  0  0  0  0  0  0
   23.7664  -21.8011  -14.3212 N   0  0  0  0  0  0  0  0  0  0  0  0
   21.5722  -21.9834  -15.1380 C   0  0  0  0  0  0  0  0  0  0  0  0
   20.5455  -22.7625  -15.6423 O   0  0  0  0  0  0  0  0  0  0  0  0
   21.8065  -20.9405  -15.8591 O   0  0  0  0  0  0  0  0  0  0  0  0
  2  1  1  1
  2 13  1  0
  2  3  1  0
  4  5  2  0
  4  3  1  0
  6  5  1  0
  7 12  2  0
  7  6  1  0
  8  7  1  0
  9 10  1  0
  9  8  2  0
 10 11  2  0
 11 12  1  0
 12  4  1  0
 13 14  2  0
 15 13  1  0
 15 16  1  0
 16 17  1  6
 18 22  1  0
 18 17  1  0
 19 18  2  0
 20 19  1  0
 20 21  1  0
 21 22  2  0
 23 24  2  0
 23 16  1  0
 26 25  1  6
 26 27  1  0
 26 28  1  0
 29 28  1  1
 29 30  1  0
 30 23  1  0
 31 32  1  0
 31 29  1  0
 33 31  2  0
M  END
$$$$
