WHL.pdb
     RDKit          3D

 33 35  0  0  1  0  0  0  0  0999 V2000
   27.7194  -19.1366  -12.4205 N   0  0  0  0  0  0  0  0  0  0  0  0
   27.2943  -20.4763  -12.6451 C   0  0  1  0  0  0  0  0  0  0  0  0
   26.6801  -21.1510  -11.4685 C   0  0  0  0  0  0  0  0  0  0  0  0
   27.5192  -20.9820  -10.2609 C   0  0  0  0  0  0  0  0  0  0  0  0
   27.1062  -20.3916   -9.0576 C   0  0  0  0  0  0  0  0  0  0  0  0
   28.1104  -20.4266   -8.1714 N   0  0  0  0  0  0  0  0  0  0  0  0
   29.1838  -21.0153   -8.7269 C   0  0  0  0  0  0  0  0  0  0  0  0
   30.4447  -21.2774   -8.2249 C   0  0  0  0  0  0  0  0  0  0  0  0
   31.3664  -21.8936   -9.0225 C   0  0  0  0  0  0  0  0  0  0  0  0
   31.0174  -22.2343  -10.2952 C   0  0  0  0  0  0  0  0  0  0  0  0
   29.7667  -21.9873  -10.8281 C   0  0  0  0  0  0  0  0  0  0  0  0
   28.8209  -21.3649  -10.0342 C   0  0  0  0  0  0  0  0  0  0  0  0
   26.3186  -20.4823  -13.7931 C   0  0  0  0  0  0  0  0  0  0  0  0
   25.3441  -19.6716  -13.7949 O   0  0  0  0  0  0  0  0  0  0  0  0
   26.4358  -21.3626  -14.8887 N   0  0  0  0  0  0  0  0  0  0  0  0
   25.3788  -21.4553  -15.8637 C   0  0  1  0  0  0  0  0  0  0  0  0
   25.6973  -22.3598  -17.0074 C   0  0  0  0  0  0  0  0  0  0  0  0
   24.7051  -22.3259  -18.1081 C   0  0  0  0  0  0  0  0  0  0  0  0
   23.6636  -21.4243  -18.2656 C   0  0  0  0  0  0  0  0  0  0  0  0
   22.9667  -21.7008  -19.3815 N   0  0  0  0  0  0  0  0  0  0  0  0
   23.5463  -22.7706  -19.9465 C   0  0  0  0  0  0  0  0  0  0  0  0
   24.5963  -23.1484  -19.1776 N   0  0  0  0  0  0  0  0  0  0  0  0
   24.1539  -22.0237  -15.2049 C   0  0  0  0  0  0  0  0  0  0  0  0
   24.2857  -22.8532  -14.2644 O   0  0  0  0  0  0  0  0  0  0  0  0
   21.0633  -18.9948  -12.0197 C   0  0  0  0  0  0  0  0  0  0  0  0
   21.3135  -20.4401  -12.3304 C   0  0  2  0  0  0  0  0  0  0  0  0
   22.0458  -21.0155  -11.0953 C   0  0  0  0  0  0  0  0  0  0  0  0
   22.1688  -20.7166  -13.4870 C   0  0  0  0  0  0  0  0  0  0  0  0
   21.7401  -21.6088  -14.5815 C   0  0  2  0  0  0  0  0  0  0  0  0
   22.8548  -21.6729  -15.5895 N   0  0  0  0  0  0  0  0  0  0  0  0
   20.5456  -21.3272  -15.3389 C   0  0  0  0  0  0  0  0  0  0  0  0
   19.2459  -21.7127  -15.0605 O   0  0  0  0  0  0  0  0  0  0  0  0
   20.6391  -20.6383  -16.4248 O   0  0  0  0  0  0  0  0  0  0  0  0
  2  1  1  1
  2 13  1  0
  2  3  1  0
  4  5  2  0
  4  3  1  0
  6  5  1  0
  7 12  2  0
  7  6  1  0
  8  7  1  0
  9 10  1  0
  9  8  2  0
 10 11  2  0
 11 12  1  0
 12  4  1  0
 13 14  2  0
 15 13  1  0
 15 16  1  0
 16 17  1  6
 18 22  1  0
 18 17  1  0
 19 18  2  0
 20 19  1  0
 20 21  1  0
 21 22  2  0
 23 24  2  0
 23 16  1  0
 26 25  1  1
 26 27  1  0
 26 28  1  0
 29 28  1  1
 29 30  1  0
 30 23  1  0
 31 32  1  0
 31 29  1  0
 33 31  2  0
M  END
$$$$
