WHL.pdb
     RDKit          3D

 33 35  0  0  1  0  0  0  0  0999 V2000
   28.4372  -23.9004  -17.0148 N   0  0  0  0  0  0  0  0  0  0  0  0
   27.0379  -24.1484  -16.9335 C   0  0  1  0  0  0  0  0  0  0  0  0
   26.6452  -25.2700  -16.0364 C   0  0  0  0  0  0  0  0  0  0  0  0
   27.1916  -26.5566  -16.5235 C   0  0  0  0  0  0  0  0  0  0  0  0
   28.2431  -27.2716  -15.9319 C   0  0  0  0  0  0  0  0  0  0  0  0
   28.4610  -28.4014  -16.6181 N   0  0  0  0  0  0  0  0  0  0  0  0
   27.6008  -28.4782  -17.6483 C   0  0  0  0  0  0  0  0  0  0  0  0
   27.4354  -29.4352  -18.6318 C   0  0  0  0  0  0  0  0  0  0  0  0
   26.4698  -29.2574  -19.5813 C   0  0  0  0  0  0  0  0  0  0  0  0
   25.6934  -28.1383  -19.5335 C   0  0  0  0  0  0  0  0  0  0  0  0
   25.8318  -27.1627  -18.5648 C   0  0  0  0  0  0  0  0  0  0  0  0
   26.8039  -27.3269  -17.5952 C   0  0  0  0  0  0  0  0  0  0  0  0
   26.3533  -22.8835  -16.4848 C   0  0  0  0  0  0  0  0  0  0  0  0
   26.9366  -22.1075  -15.6696 O   0  0  0  0  0  0  0  0  0  0  0  0
   25.0696  -22.5108  -16.9343 N   0  0  0  0  0  0  0  0  0  0  0  0
   24.4760  -21.2733  -16.4954 C   0  0  1  0  0  0  0  0  0  0  0  0
   23.4518  -20.7336  -17.4373 C   0  0  0  0  0  0  0  0  0  0  0  0
   22.7837  -19.4957  -16.9701 C   0  0  0  0  0  0  0  0  0  0  0  0
   23.3508  -18.2364  -16.8477 C   0  0  0  0  0  0  0  0  0  0  0  0
   22.4445  -17.3546  -16.3912 N   0  0  0  0  0  0  0  0  0  0  0  0
   21.2985  -18.0301  -16.2174 C   0  0  0  0  0  0  0  0  0  0  0  0
   21.5031  -19.3233  -16.5671 N   0  0  0  0  0  0  0  0  0  0  0  0
   23.7682  -21.5057  -15.1906 C   0  0  0  0  0  0  0  0  0  0  0  0
   23.1159  -22.5716  -15.0218 O   0  0  0  0  0  0  0  0  0  0  0  0
   25.4317  -22.2149  -11.1043 C   0  0  0  0  0  0  0  0  0  0  0  0
   25.2710  -20.7782  -11.5019 C   0  0  2  0  0  0  0  0  0  0  0  0
   25.8049  -19.9493  -10.3099 C   0  0  0  0  0  0  0  0  0  0  0  0
   23.9005  -20.3216  -11.7451 C   0  0  0  0  0  0  0  0  0  0  0  0
   23.0795  -20.8622  -12.8457 C   0  0  2  0  0  0  0  0  0  0  0  0
   23.7973  -20.5839  -14.1380 N   0  0  0  0  0  0  0  0  0  0  0  0
   21.7249  -20.4103  -13.0473 C   0  0  0  0  0  0  0  0  0  0  0  0
   21.2112  -19.6983  -14.1172 O   0  0  0  0  0  0  0  0  0  0  0  0
   20.8373  -20.6679  -12.1482 O   0  0  0  0  0  0  0  0  0  0  0  0
  2  1  1  1
  2 13  1  0
  2  3  1  0
  4  5  2  0
  4  3  1  0
  6  5  1  0
  7 12  2  0
  7  6  1  0
  8  7  1  0
  9 10  1  0
  9  8  2  0
 10 11  2  0
 11 12  1  0
 12  4  1  0
 13 14  2  0
 15 13  1  0
 15 16  1  0
 16 17  1  6
 18 22  1  0
 18 17  1  0
 19 18  2  0
 20 19  1  0
 20 21  1  0
 21 22  2  0
 23 24  2  0
 23 16  1  0
 26 25  1  1
 26 27  1  0
 26 28  1  0
 29 28  1  1
 29 30  1  0
 30 23  1  0
 31 32  1  0
 31 29  1  0
 33 31  2  0
M  END
$$$$
