PDC.pdb
     RDKit          3D

 22 22  0  0  1  0  0  0  0  0999 V2000
    8.9234  -14.8367   19.2478 N   0  0  0  0  0  0  0  0  0  0  0  0
    7.6582  -14.8887   18.5659 C   0  0  0  0  0  0  0  0  0  0  0  0
    7.2324  -13.4389   18.5403 C   0  0  0  0  0  0  0  0  0  0  0  0
    7.9913  -12.7331   19.6441 C   0  0  0  0  0  0  0  0  0  0  0  0
    8.7585  -13.8531   20.3124 C   0  0  1  0  0  0  0  0  0  0  0  0
    7.9940  -14.4553   21.4261 C   0  0  0  0  0  0  0  0  0  0  0  0
    6.7876  -14.0871   21.6206 O   0  0  0  0  0  0  0  0  0  0  0  0
    8.6166  -15.4227   22.2448 N   0  0  0  0  0  0  0  0  0  0  0  0
    7.9629  -15.9006   23.4616 C   0  0  1  0  0  0  0  0  0  0  0  0
    8.2582  -17.3489   23.6426 C   0  0  0  0  0  0  0  0  0  0  0  0
    7.6946  -17.9921   24.8327 C   0  0  0  0  0  0  0  0  0  0  0  0
    6.6148  -17.6213   25.3329 O   0  0  0  0  0  0  0  0  0  0  0  0
    8.4490  -15.0655   24.6115 C   0  0  0  0  0  0  0  0  0  0  0  0
    9.6466  -14.8272   24.8627 O   0  0  0  0  0  0  0  0  0  0  0  0
    8.3413  -19.0486   25.4595 O   0  0  0  0  0  0  0  0  0  0  0  0
    7.5237  -14.4637   25.5332 N   0  0  0  0  0  0  0  0  0  0  0  0
    7.9346  -13.6843   26.6573 C   0  0  1  0  0  0  0  0  0  0  0  0
    6.8986  -12.6826   27.1091 C   0  0  0  0  0  0  0  0  0  0  0  0
    6.3088  -11.8190   25.6219 S   0  0  0  0  0  0  0  0  0  0  0  0
    8.3936  -14.4993   27.7975 C   0  0  0  0  0  0  0  0  0  0  0  0
    8.8870  -13.9775   28.8414 O   0  0  0  0  0  0  0  0  0  0  0  0
    8.3048  -15.8707   27.7757 O   0  0  0  0  0  0  0  0  0  0  0  0
  1  5  1  0
  1  2  1  0
  3  4  1  0
  3  2  1  0
  4  5  1  0
  5  6  1  1
  7  6  2  0
  8  6  1  0
  9  8  1  0
  9 13  1  0
  9 10  1  1
 11 12  2  0
 11 10  1  0
 13 16  1  0
 14 13  2  0
 15 11  1  0
 16 17  1  0
 17 20  1  0
 17 18  1  1
 19 18  1  0
 20 21  2  0
 20 22  1  0
M  END
$$$$
