PDC.pdb
     RDKit          3D

 22 22  0  0  1  0  0  0  0  0999 V2000
    8.2534  -14.8526   18.8607 N   0  0  0  0  0  0  0  0  0  0  0  0
    6.9407  -14.2739   18.7591 C   0  0  0  0  0  0  0  0  0  0  0  0
    7.1896  -12.8203   19.0890 C   0  0  0  0  0  0  0  0  0  0  0  0
    8.4910  -12.7560   19.8603 C   0  0  0  0  0  0  0  0  0  0  0  0
    8.8804  -14.2105   20.0107 C   0  0  1  0  0  0  0  0  0  0  0  0
    8.3429  -14.7976   21.2572 C   0  0  0  0  0  0  0  0  0  0  0  0
    7.0967  -14.6852   21.5086 O   0  0  0  0  0  0  0  0  0  0  0  0
    9.2206  -15.4685   22.1366 N   0  0  0  0  0  0  0  0  0  0  0  0
    8.7422  -15.9800   23.4195 C   0  0  1  0  0  0  0  0  0  0  0  0
    9.3506  -17.3150   23.6749 C   0  0  0  0  0  0  0  0  0  0  0  0
   10.7979  -17.4283   23.4742 C   0  0  0  0  0  0  0  0  0  0  0  0
   11.3458  -17.0704   22.4134 O   0  0  0  0  0  0  0  0  0  0  0  0
    9.0898  -14.9761   24.4813 C   0  0  0  0  0  0  0  0  0  0  0  0
   10.1253  -14.2820   24.4938 O   0  0  0  0  0  0  0  0  0  0  0  0
   11.6277  -17.9420   24.4615 O   0  0  0  0  0  0  0  0  0  0  0  0
    8.2123  -14.7434   25.5965 N   0  0  0  0  0  0  0  0  0  0  0  0
    8.4974  -13.8036   26.6335 C   0  0  1  0  0  0  0  0  0  0  0  0
    7.4956  -12.6768   26.7200 C   0  0  0  0  0  0  0  0  0  0  0  0
    5.8504  -13.4060   26.4608 S   0  0  0  0  0  0  0  0  0  0  0  0
    8.6823  -14.4301   27.9557 C   0  0  0  0  0  0  0  0  0  0  0  0
    8.4461  -15.6586   28.1565 O   0  0  0  0  0  0  0  0  0  0  0  0
    9.1221  -13.7016   29.0350 O   0  0  0  0  0  0  0  0  0  0  0  0
  1  5  1  0
  1  2  1  0
  3  4  1  0
  3  2  1  0
  4  5  1  0
  5  6  1  1
  7  6  2  0
  8  6  1  0
  9  8  1  0
  9 13  1  0
  9 10  1  1
 11 12  2  0
 11 10  1  0
 13 16  1  0
 14 13  2  0
 15 11  1  0
 16 17  1  0
 17 20  1  0
 17 18  1  1
 19 18  1  0
 20 21  2  0
 20 22  1  0
M  END
$$$$
