PDC.pdb
     RDKit          3D

 22 22  0  0  1  0  0  0  0  0999 V2000
    7.9837  -14.6927   18.5459 N   0  0  0  0  0  0  0  0  0  0  0  0
    6.7214  -14.0925   18.8847 C   0  0  0  0  0  0  0  0  0  0  0  0
    7.1196  -12.7033   19.3266 C   0  0  0  0  0  0  0  0  0  0  0  0
    8.5818  -12.7623   19.7152 C   0  0  0  0  0  0  0  0  0  0  0  0
    8.9267  -14.2271   19.5569 C   0  0  1  0  0  0  0  0  0  0  0  0
    8.7159  -14.9805   20.8121 C   0  0  0  0  0  0  0  0  0  0  0  0
    7.5367  -15.3629   21.1153 O   0  0  0  0  0  0  0  0  0  0  0  0
    9.8237  -15.2590   21.6422 N   0  0  0  0  0  0  0  0  0  0  0  0
    9.6485  -15.9828   22.8998 C   0  0  1  0  0  0  0  0  0  0  0  0
   10.8060  -16.8964   23.1074 C   0  0  0  0  0  0  0  0  0  0  0  0
   10.7476  -17.7781   24.2765 C   0  0  0  0  0  0  0  0  0  0  0  0
    9.6906  -17.9614   24.9111 O   0  0  0  0  0  0  0  0  0  0  0  0
    9.5061  -14.9737   24.0033 C   0  0  0  0  0  0  0  0  0  0  0  0
    9.9317  -13.8029   23.9571 O   0  0  0  0  0  0  0  0  0  0  0  0
   11.8725  -18.4521   24.7320 O   0  0  0  0  0  0  0  0  0  0  0  0
    8.8420  -15.3100   25.2335 N   0  0  0  0  0  0  0  0  0  0  0  0
    8.3716  -14.3314   26.1614 C   0  0  1  0  0  0  0  0  0  0  0  0
    7.2998  -13.4294   25.5969 C   0  0  0  0  0  0  0  0  0  0  0  0
    6.8257  -12.2743   26.9184 S   0  0  0  0  0  0  0  0  0  0  0  0
    7.9348  -14.9069   27.4471 C   0  0  0  0  0  0  0  0  0  0  0  0
    7.6089  -16.1260   27.5618 O   0  0  0  0  0  0  0  0  0  0  0  0
    7.8621  -14.1389   28.5845 O   0  0  0  0  0  0  0  0  0  0  0  0
  1  5  1  0
  1  2  1  0
  3  4  1  0
  3  2  1  0
  4  5  1  0
  5  6  1  1
  7  6  2  0
  8  6  1  0
  9  8  1  0
  9 13  1  0
  9 10  1  1
 11 12  2  0
 11 10  1  0
 13 16  1  0
 14 13  2  0
 15 11  1  0
 16 17  1  0
 17 20  1  0
 17 18  1  6
 19 18  1  0
 20 21  2  0
 20 22  1  0
M  END
$$$$
