PDC.pdb
     RDKit          3D

 22 22  0  0  1  0  0  0  0  0999 V2000
    8.9177  -14.7971   18.7656 N   0  0  0  0  0  0  0  0  0  0  0  0
    7.5321  -14.8233   18.3813 C   0  0  0  0  0  0  0  0  0  0  0  0
    7.0964  -13.3935   18.6036 C   0  0  0  0  0  0  0  0  0  0  0  0
    8.0770  -12.7763   19.5783 C   0  0  0  0  0  0  0  0  0  0  0  0
    8.9866  -13.9310   19.9374 C   0  0  1  0  0  0  0  0  0  0  0  0
    8.4987  -14.6669   21.1240 C   0  0  0  0  0  0  0  0  0  0  0  0
    7.2822  -14.5270   21.4836 O   0  0  0  0  0  0  0  0  0  0  0  0
    9.3896  -15.5064   21.8279 N   0  0  0  0  0  0  0  0  0  0  0  0
    8.9930  -16.1173   23.0950 C   0  0  1  0  0  0  0  0  0  0  0  0
    9.9035  -17.2559   23.3988 C   0  0  0  0  0  0  0  0  0  0  0  0
    9.7488  -17.8908   24.7105 C   0  0  0  0  0  0  0  0  0  0  0  0
    8.6317  -18.2165   25.1571 O   0  0  0  0  0  0  0  0  0  0  0  0
    9.0258  -15.0547   24.1561 C   0  0  0  0  0  0  0  0  0  0  0  0
    9.9597  -14.2467   24.3265 O   0  0  0  0  0  0  0  0  0  0  0  0
   10.8452  -18.1596   25.5186 O   0  0  0  0  0  0  0  0  0  0  0  0
    7.9356  -14.8969   25.0803 N   0  0  0  0  0  0  0  0  0  0  0  0
    7.8342  -13.8011   25.9908 C   0  0  1  0  0  0  0  0  0  0  0  0
    6.5745  -12.9863   25.8178 C   0  0  0  0  0  0  0  0  0  0  0  0
    6.6237  -11.6594   27.0597 S   0  0  0  0  0  0  0  0  0  0  0  0
    8.0017  -14.1958   27.4018 C   0  0  0  0  0  0  0  0  0  0  0  0
    8.0408  -15.4105   27.7601 O   0  0  0  0  0  0  0  0  0  0  0  0
    8.1234  -13.2548   28.3962 O   0  0  0  0  0  0  0  0  0  0  0  0
  1  5  1  0
  1  2  1  0
  3  4  1  0
  3  2  1  0
  4  5  1  0
  5  6  1  1
  7  6  2  0
  8  6  1  0
  9  8  1  0
  9 13  1  0
  9 10  1  1
 11 12  2  0
 11 10  1  0
 13 16  1  0
 14 13  2  0
 15 11  1  0
 16 17  1  0
 17 20  1  0
 17 18  1  1
 19 18  1  0
 20 21  2  0
 20 22  1  0
M  END
$$$$
