PDC.pdb
     RDKit          3D

 22 22  0  0  1  0  0  0  0  0999 V2000
    8.0386  -14.8495   18.6612 N   0  0  0  0  0  0  0  0  0  0  0  0
    6.8379  -14.0961   18.9043 C   0  0  0  0  0  0  0  0  0  0  0  0
    7.3684  -12.7249   19.2535 C   0  0  0  0  0  0  0  0  0  0  0  0
    8.8037  -12.9043   19.7013 C   0  0  0  0  0  0  0  0  0  0  0  0
    8.9950  -14.4049   19.6690 C   0  0  1  0  0  0  0  0  0  0  0  0
    8.6674  -15.0293   20.9691 C   0  0  0  0  0  0  0  0  0  0  0  0
    7.4430  -15.2184   21.2752 O   0  0  0  0  0  0  0  0  0  0  0  0
    9.7165  -15.4015   21.8379 N   0  0  0  0  0  0  0  0  0  0  0  0
    9.4304  -16.0545   23.1138 C   0  0  1  0  0  0  0  0  0  0  0  0
   10.5311  -17.0033   23.4389 C   0  0  0  0  0  0  0  0  0  0  0  0
   10.3714  -17.8055   24.6549 C   0  0  0  0  0  0  0  0  0  0  0  0
    9.3175  -17.7904   25.3203 O   0  0  0  0  0  0  0  0  0  0  0  0
    9.2631  -14.9871   24.1573 C   0  0  0  0  0  0  0  0  0  0  0  0
   10.0662  -14.0550   24.3580 O   0  0  0  0  0  0  0  0  0  0  0  0
   11.3918  -18.6224   25.1226 O   0  0  0  0  0  0  0  0  0  0  0  0
    8.1174  -14.9738   25.0262 N   0  0  0  0  0  0  0  0  0  0  0  0
    7.8830  -13.9518   25.9960 C   0  0  1  0  0  0  0  0  0  0  0  0
    6.6251  -13.1553   25.7424 C   0  0  0  0  0  0  0  0  0  0  0  0
    6.4710  -11.9565   27.1006 S   0  0  0  0  0  0  0  0  0  0  0  0
    7.9069  -14.4470   27.3849 C   0  0  0  0  0  0  0  0  0  0  0  0
    7.6581  -15.6557   27.6721 O   0  0  0  0  0  0  0  0  0  0  0  0
    8.2024  -13.6113   28.4353 O   0  0  0  0  0  0  0  0  0  0  0  0
  1  5  1  0
  1  2  1  0
  3  4  1  0
  3  2  1  0
  4  5  1  0
  5  6  1  1
  7  6  2  0
  8  6  1  0
  9  8  1  0
  9 13  1  0
  9 10  1  1
 11 12  2  0
 11 10  1  0
 13 16  1  0
 14 13  2  0
 15 11  1  0
 16 17  1  0
 17 20  1  0
 17 18  1  6
 19 18  1  0
 20 21  2  0
 20 22  1  0
M  END
$$$$
