PDC.pdb
     RDKit          3D

 22 22  0  0  1  0  0  0  0  0999 V2000
    8.6272  -14.6680   19.0744 N   0  0  0  0  0  0  0  0  0  0  0  0
    7.2336  -14.3988   19.3064 C   0  0  0  0  0  0  0  0  0  0  0  0
    7.2518  -12.9907   19.8548 C   0  0  0  0  0  0  0  0  0  0  0  0
    8.6450  -12.7410   20.3927 C   0  0  0  0  0  0  0  0  0  0  0  0
    9.3376  -14.0727   20.2009 C   0  0  1  0  0  0  0  0  0  0  0  0
    9.1957  -14.9424   21.3887 C   0  0  0  0  0  0  0  0  0  0  0  0
    8.0687  -14.9989   21.9849 O   0  0  0  0  0  0  0  0  0  0  0  0
   10.3091  -15.6891   21.8323 N   0  0  0  0  0  0  0  0  0  0  0  0
   10.2129  -16.5348   23.0205 C   0  0  1  0  0  0  0  0  0  0  0  0
   11.1247  -17.7024   22.8687 C   0  0  0  0  0  0  0  0  0  0  0  0
   10.8997  -18.5668   21.7068 C   0  0  0  0  0  0  0  0  0  0  0  0
    9.7844  -19.0679   21.4647 O   0  0  0  0  0  0  0  0  0  0  0  0
   10.5478  -15.6947   24.2197 C   0  0  0  0  0  0  0  0  0  0  0  0
   11.4710  -14.8585   24.2684 O   0  0  0  0  0  0  0  0  0  0  0  0
   11.9238  -18.8678   20.8192 O   0  0  0  0  0  0  0  0  0  0  0  0
    9.7920  -15.8079   25.4378 N   0  0  0  0  0  0  0  0  0  0  0  0
   10.0848  -15.0513   26.6133 C   0  0  1  0  0  0  0  0  0  0  0  0
    9.0569  -13.9879   26.9191 C   0  0  0  0  0  0  0  0  0  0  0  0
    9.6452  -13.0838   28.3826 S   0  0  0  0  0  0  0  0  0  0  0  0
   10.3275  -15.8891   27.8025 C   0  0  0  0  0  0  0  0  0  0  0  0
    9.9843  -17.1079   27.8476 O   0  0  0  0  0  0  0  0  0  0  0  0
   10.9412  -15.3788   28.9214 O   0  0  0  0  0  0  0  0  0  0  0  0
  1  5  1  0
  1  2  1  0
  3  4  1  0
  3  2  1  0
  4  5  1  0
  5  6  1  1
  7  6  2  0
  8  6  1  0
  9  8  1  0
  9 13  1  0
  9 10  1  6
 11 12  2  0
 11 10  1  0
 13 16  1  0
 14 13  2  0
 15 11  1  0
 16 17  1  0
 17 20  1  0
 17 18  1  1
 19 18  1  0
 20 21  2  0
 20 22  1  0
M  END
$$$$
