PDC.pdb
     RDKit          3D

 22 22  0  0  1  0  0  0  0  0999 V2000
    8.0794  -14.6747   18.9752 N   0  0  0  0  0  0  0  0  0  0  0  0
    6.7180  -14.2153   19.0359 C   0  0  0  0  0  0  0  0  0  0  0  0
    6.8698  -12.7765   19.4726 C   0  0  0  0  0  0  0  0  0  0  0  0
    8.2259  -12.6536   20.1348 C   0  0  0  0  0  0  0  0  0  0  0  0
    8.7513  -14.0726   20.1214 C   0  0  1  0  0  0  0  0  0  0  0  0
    8.3827  -14.8071   21.3511 C   0  0  0  0  0  0  0  0  0  0  0  0
    7.1488  -15.0137   21.6036 O   0  0  0  0  0  0  0  0  0  0  0  0
    9.4039  -15.2624   22.2134 N   0  0  0  0  0  0  0  0  0  0  0  0
    9.0747  -15.9758   23.4459 C   0  0  1  0  0  0  0  0  0  0  0  0
    9.8325  -17.2569   23.4905 C   0  0  0  0  0  0  0  0  0  0  0  0
    9.7217  -18.0450   24.7210 C   0  0  0  0  0  0  0  0  0  0  0  0
    8.6383  -18.1781   25.3228 O   0  0  0  0  0  0  0  0  0  0  0  0
    9.3950  -15.0765   24.6055 C   0  0  0  0  0  0  0  0  0  0  0  0
   10.5010  -14.5366   24.8040 O   0  0  0  0  0  0  0  0  0  0  0  0
   10.8240  -18.6821   25.2745 O   0  0  0  0  0  0  0  0  0  0  0  0
    8.4036  -14.7697   25.6009 N   0  0  0  0  0  0  0  0  0  0  0  0
    8.6615  -13.9343   26.7304 C   0  0  1  0  0  0  0  0  0  0  0  0
    7.5922  -12.8950   26.9699 C   0  0  0  0  0  0  0  0  0  0  0  0
    6.3495  -13.0976   25.6584 S   0  0  0  0  0  0  0  0  0  0  0  0
    8.9301  -14.6905   27.9677 C   0  0  0  0  0  0  0  0  0  0  0  0
    8.8005  -15.9494   28.0278 O   0  0  0  0  0  0  0  0  0  0  0  0
    9.3358  -14.0562   29.1175 O   0  0  0  0  0  0  0  0  0  0  0  0
  1  5  1  0
  1  2  1  0
  3  4  1  0
  3  2  1  0
  4  5  1  0
  5  6  1  1
  7  6  2  0
  8  6  1  0
  9  8  1  0
  9 13  1  0
  9 10  1  1
 11 12  2  0
 11 10  1  0
 13 16  1  0
 14 13  2  0
 15 11  1  0
 16 17  1  0
 17 20  1  0
 17 18  1  1
 19 18  1  0
 20 21  2  0
 20 22  1  0
M  END
$$$$
