PDC.pdb
     RDKit          3D

 22 22  0  0  1  0  0  0  0  0999 V2000
    7.3920  -13.4375   19.6450 N   0  0  0  0  0  0  0  0  0  0  0  0
    8.7342  -13.0128   19.3508 C   0  0  0  0  0  0  0  0  0  0  0  0
    9.0576  -13.7771   18.0879 C   0  0  0  0  0  0  0  0  0  0  0  0
    8.1170  -14.9623   18.0323 C   0  0  0  0  0  0  0  0  0  0  0  0
    7.3511  -14.8620   19.3335 C   0  0  1  0  0  0  0  0  0  0  0  0
    8.0078  -15.6231   20.4183 C   0  0  0  0  0  0  0  0  0  0  0  0
    8.4258  -16.8054   20.1812 O   0  0  0  0  0  0  0  0  0  0  0  0
    8.1572  -15.0229   21.6876 N   0  0  0  0  0  0  0  0  0  0  0  0
    8.8320  -15.7331   22.7724 C   0  0  1  0  0  0  0  0  0  0  0  0
   10.1577  -16.2151   22.2953 C   0  0  0  0  0  0  0  0  0  0  0  0
   10.7685  -17.3144   23.0478 C   0  0  0  0  0  0  0  0  0  0  0  0
   11.8937  -17.2077   23.5733 O   0  0  0  0  0  0  0  0  0  0  0  0
    8.9460  -14.7983   23.9425 C   0  0  0  0  0  0  0  0  0  0  0  0
    9.8240  -13.9230   24.0721 O   0  0  0  0  0  0  0  0  0  0  0  0
   10.1179  -18.5300   23.2101 O   0  0  0  0  0  0  0  0  0  0  0  0
    8.0094  -14.8578   25.0321 N   0  0  0  0  0  0  0  0  0  0  0  0
    7.9215  -13.8534   26.0438 C   0  0  1  0  0  0  0  0  0  0  0  0
    6.5500  -13.2321   26.1608 C   0  0  0  0  0  0  0  0  0  0  0  0
    6.6832  -11.8691   27.3567 S   0  0  0  0  0  0  0  0  0  0  0  0
    8.3934  -14.3106   27.3641 C   0  0  0  0  0  0  0  0  0  0  0  0
    8.4529  -13.5333   28.3629 O   0  0  0  0  0  0  0  0  0  0  0  0
    8.7920  -15.6100   27.5686 O   0  0  0  0  0  0  0  0  0  0  0  0
  1  5  1  0
  1  2  1  0
  3  4  1  0
  3  2  1  0
  4  5  1  0
  5  6  1  1
  7  6  2  0
  8  6  1  0
  9  8  1  0
  9 13  1  0
  9 10  1  6
 11 12  2  0
 11 10  1  0
 13 16  1  0
 14 13  2  0
 15 11  1  0
 16 17  1  0
 17 20  1  0
 17 18  1  1
 19 18  1  0
 20 21  2  0
 20 22  1  0
M  END
$$$$
