PDC.pdb
     RDKit          3D

 22 22  0  0  1  0  0  0  0  0999 V2000
    8.2435  -14.8840   18.7977 N   0  0  0  0  0  0  0  0  0  0  0  0
    6.8599  -14.4946   18.7481 C   0  0  0  0  0  0  0  0  0  0  0  0
    6.9229  -13.0045   18.9916 C   0  0  0  0  0  0  0  0  0  0  0  0
    8.2424  -12.7216   19.6783 C   0  0  0  0  0  0  0  0  0  0  0  0
    8.8365  -14.0994   19.8751 C   0  0  1  0  0  0  0  0  0  0  0  0
    8.4527  -14.6826   21.1789 C   0  0  0  0  0  0  0  0  0  0  0  0
    7.2388  -14.5967   21.5635 O   0  0  0  0  0  0  0  0  0  0  0  0
    9.4375  -15.3207   21.9643 N   0  0  0  0  0  0  0  0  0  0  0  0
    9.1140  -15.8282   23.2963 C   0  0  1  0  0  0  0  0  0  0  0  0
   10.0987  -16.8791   23.6751 C   0  0  0  0  0  0  0  0  0  0  0  0
    9.9228  -17.5033   24.9893 C   0  0  0  0  0  0  0  0  0  0  0  0
    8.7945  -17.6823   25.4878 O   0  0  0  0  0  0  0  0  0  0  0  0
    9.1139  -14.6682   24.2505 C   0  0  0  0  0  0  0  0  0  0  0  0
    9.5388  -13.5269   23.9844 O   0  0  0  0  0  0  0  0  0  0  0  0
   11.0104  -17.9254   25.7418 O   0  0  0  0  0  0  0  0  0  0  0  0
    8.6019  -14.8085   25.5869 N   0  0  0  0  0  0  0  0  0  0  0  0
    8.5210  -13.7229   26.5116 C   0  0  1  0  0  0  0  0  0  0  0  0
    7.6477  -12.5868   26.0347 C   0  0  0  0  0  0  0  0  0  0  0  0
    5.9260  -13.0568   26.3819 S   0  0  0  0  0  0  0  0  0  0  0  0
    8.1263  -14.1400   27.8699 C   0  0  0  0  0  0  0  0  0  0  0  0
    7.7916  -15.3326   28.1364 O   0  0  0  0  0  0  0  0  0  0  0  0
    8.1044  -13.2451   28.9128 O   0  0  0  0  0  0  0  0  0  0  0  0
  1  5  1  0
  1  2  1  0
  3  4  1  0
  3  2  1  0
  4  5  1  0
  5  6  1  1
  7  6  2  0
  8  6  1  0
  9  8  1  0
  9 13  1  0
  9 10  1  1
 11 12  2  0
 11 10  1  0
 13 16  1  0
 14 13  2  0
 15 11  1  0
 16 17  1  0
 17 20  1  0
 17 18  1  6
 19 18  1  0
 20 21  2  0
 20 22  1  0
M  END
$$$$
