PDC.pdb
     RDKit          3D

 22 22  0  0  1  0  0  0  0  0999 V2000
    8.2000  -14.7784   18.9452 N   0  0  0  0  0  0  0  0  0  0  0  0
    6.8814  -14.2043   18.9413 C   0  0  0  0  0  0  0  0  0  0  0  0
    7.1489  -12.7498   19.2519 C   0  0  0  0  0  0  0  0  0  0  0  0
    8.5037  -12.6807   19.9244 C   0  0  0  0  0  0  0  0  0  0  0  0
    8.9084  -14.1337   20.0455 C   0  0  1  0  0  0  0  0  0  0  0  0
    8.4670  -14.7224   21.3285 C   0  0  0  0  0  0  0  0  0  0  0  0
    7.2213  -14.7436   21.6051 O   0  0  0  0  0  0  0  0  0  0  0  0
    9.4337  -15.2472   22.2139 N   0  0  0  0  0  0  0  0  0  0  0  0
    9.0271  -15.9280   23.4417 C   0  0  1  0  0  0  0  0  0  0  0  0
    9.8394  -17.1646   23.6111 C   0  0  0  0  0  0  0  0  0  0  0  0
    9.5763  -17.9663   24.8092 C   0  0  0  0  0  0  0  0  0  0  0  0
    8.5298  -17.8345   25.4733 O   0  0  0  0  0  0  0  0  0  0  0  0
    9.1941  -14.9681   24.5849 C   0  0  0  0  0  0  0  0  0  0  0  0
   10.2549  -14.3795   24.8717 O   0  0  0  0  0  0  0  0  0  0  0  0
   10.4854  -18.9134   25.2607 O   0  0  0  0  0  0  0  0  0  0  0  0
    8.0939  -14.6555   25.4564 N   0  0  0  0  0  0  0  0  0  0  0  0
    8.2185  -13.8109   26.6015 C   0  0  1  0  0  0  0  0  0  0  0  0
    6.9491  -13.0686   26.9457 C   0  0  0  0  0  0  0  0  0  0  0  0
    6.3211  -12.3431   25.4014 S   0  0  0  0  0  0  0  0  0  0  0  0
    8.7437  -14.5098   27.7892 C   0  0  0  0  0  0  0  0  0  0  0  0
    8.9130  -15.7653   27.8104 O   0  0  0  0  0  0  0  0  0  0  0  0
    9.0744  -13.8230   28.9328 O   0  0  0  0  0  0  0  0  0  0  0  0
  1  5  1  0
  1  2  1  0
  3  4  1  0
  3  2  1  0
  4  5  1  0
  5  6  1  1
  7  6  2  0
  8  6  1  0
  9  8  1  0
  9 13  1  0
  9 10  1  1
 11 12  2  0
 11 10  1  0
 13 16  1  0
 14 13  2  0
 15 11  1  0
 16 17  1  0
 17 20  1  0
 17 18  1  1
 19 18  1  0
 20 21  2  0
 20 22  1  0
M  END
$$$$
