VMP.pdb
     RDKit          3D

 23 23  0  0  1  0  0  0  0  0999 V2000
    6.2075  -22.2123   23.2487 C   0  0  0  0  0  0  0  0  0  0  0  0
    6.5191  -20.7319   23.1596 C   0  0  2  0  0  0  0  0  0  0  0  0
    7.9905  -20.4512   23.2879 C   0  0  0  0  0  0  0  0  0  0  0  0
    5.6434  -19.9065   24.0411 C   0  0  2  0  0  0  0  0  0  0  0  0
    4.2676  -20.2951   23.8112 N   0  0  0  0  0  0  0  0  0  0  0  0
    5.8382  -18.4515   23.7882 C   0  0  0  0  0  0  0  0  0  0  0  0
    5.6337  -17.9577   22.6268 O   0  0  0  0  0  0  0  0  0  0  0  0
    7.4496  -11.3416   26.9367 C   0  0  0  0  0  0  0  0  0  0  0  0
    7.1392  -13.1082   27.1532 S   0  0  0  0  0  0  0  0  0  0  0  0
    7.1385  -13.9585   25.5575 C   0  0  0  0  0  0  0  0  0  0  0  0
    6.6950  -15.3901   25.7666 C   0  0  0  0  0  0  0  0  0  0  0  0
    6.6672  -16.1563   24.4593 C   0  0  2  0  0  0  0  0  0  0  0  0
    6.2520  -17.5109   24.7638 N   0  0  0  0  0  0  0  0  0  0  0  0
    7.9805  -16.1206   23.7717 C   0  0  0  0  0  0  0  0  0  0  0  0
    8.8858  -16.9552   24.0969 O   0  0  0  0  0  0  0  0  0  0  0  0
    8.3107  -15.2055   22.7556 N   0  0  0  0  0  0  0  0  0  0  0  0
    7.5174  -14.0661   22.3702 C   0  0  0  0  0  0  0  0  0  0  0  0
    7.7121  -14.0573   20.8477 C   0  0  0  0  0  0  0  0  0  0  0  0
    9.2045  -14.2744   20.7658 C   0  0  0  0  0  0  0  0  0  0  0  0
    9.4786  -15.2129   21.9146 C   0  0  1  0  0  0  0  0  0  0  0  0
   10.6873  -14.7450   22.6003 C   0  0  0  0  0  0  0  0  0  0  0  0
   11.9150  -14.8518   21.9832 O   0  0  0  0  0  0  0  0  0  0  0  0
   10.6172  -14.2481   23.7430 O   0  0  0  0  0  0  0  0  0  0  0  0
  2  1  1  1
  2  3  1  0
  4  2  1  0
  4  6  1  0
  4  5  1  6
  6  7  2  0
  8  9  1  0
  9 10  1  0
 12 11  1  1
 11 10  1  0
 13  6  1  0
 13 12  1  0
 14 12  1  0
 14 15  2  0
 16 14  1  0
 17 16  1  0
 18 19  1  0
 18 17  1  0
 19 20  1  0
 20 16  1  0
 20 21  1  1
 21 22  1  0
 23 21  2  0
M  END
$$$$
