VMP.pdb
     RDKit          3D

 23 23  0  0  1  0  0  0  0  0999 V2000
    7.7789  -19.6049   22.4713 C   0  0  0  0  0  0  0  0  0  0  0  0
    7.3608  -19.7824   23.9171 C   0  0  2  0  0  0  0  0  0  0  0  0
    7.3570  -21.2265   24.3354 C   0  0  0  0  0  0  0  0  0  0  0  0
    6.1181  -19.0286   24.2524 C   0  0  2  0  0  0  0  0  0  0  0  0
    4.9959  -19.6960   23.6263 N   0  0  0  0  0  0  0  0  0  0  0  0
    6.2106  -17.6087   23.8113 C   0  0  0  0  0  0  0  0  0  0  0  0
    5.7156  -17.2394   22.6919 O   0  0  0  0  0  0  0  0  0  0  0  0
    7.1573  -11.1816   26.4322 C   0  0  0  0  0  0  0  0  0  0  0  0
    6.9924  -12.7772   27.2632 S   0  0  0  0  0  0  0  0  0  0  0  0
    6.4414  -14.0498   26.1029 C   0  0  0  0  0  0  0  0  0  0  0  0
    7.5867  -14.3953   25.1762 C   0  0  0  0  0  0  0  0  0  0  0  0
    7.1207  -15.2563   24.0193 C   0  0  2  0  0  0  0  0  0  0  0  0
    6.8291  -16.5718   24.5529 N   0  0  0  0  0  0  0  0  0  0  0  0
    8.1276  -15.3102   22.9321 C   0  0  0  0  0  0  0  0  0  0  0  0
    8.9699  -16.2648   22.8988 O   0  0  0  0  0  0  0  0  0  0  0  0
    8.2244  -14.3559   21.9029 N   0  0  0  0  0  0  0  0  0  0  0  0
    7.4337  -13.1556   21.8024 C   0  0  0  0  0  0  0  0  0  0  0  0
    7.1996  -13.0681   20.2880 C   0  0  0  0  0  0  0  0  0  0  0  0
    8.5930  -13.3586   19.7829 C   0  0  0  0  0  0  0  0  0  0  0  0
    9.1107  -14.3758   20.7693 C   0  0  1  0  0  0  0  0  0  0  0  0
   10.4905  -14.0133   21.1082 C   0  0  0  0  0  0  0  0  0  0  0  0
   11.5006  -14.2131   20.1920 O   0  0  0  0  0  0  0  0  0  0  0  0
   10.7628  -13.5232   22.2231 O   0  0  0  0  0  0  0  0  0  0  0  0
  2  1  1  6
  2  3  1  0
  4  2  1  0
  4  6  1  0
  4  5  1  6
  6  7  2  0
  8  9  1  0
  9 10  1  0
 12 11  1  1
 11 10  1  0
 13  6  1  0
 13 12  1  0
 14 12  1  0
 14 15  2  0
 16 14  1  0
 17 16  1  0
 18 19  1  0
 18 17  1  0
 19 20  1  0
 20 16  1  0
 20 21  1  1
 21 22  1  0
 23 21  2  0
M  END
$$$$
