VMP.pdb
     RDKit          3D

 23 23  0  0  1  0  0  0  0  0999 V2000
    9.3699  -18.5145   22.2537 C   0  0  0  0  0  0  0  0  0  0  0  0
    9.8924  -17.4912   21.2655 C   0  0  2  0  0  0  0  0  0  0  0  0
   11.3788  -17.2970   21.3796 C   0  0  0  0  0  0  0  0  0  0  0  0
    9.0929  -16.2319   21.2659 C   0  0  2  0  0  0  0  0  0  0  0  0
    9.5313  -15.4122   20.1557 N   0  0  0  0  0  0  0  0  0  0  0  0
    9.2319  -15.5029   22.5575 C   0  0  0  0  0  0  0  0  0  0  0  0
   10.2590  -14.7783   22.7907 O   0  0  0  0  0  0  0  0  0  0  0  0
    6.3843  -10.8909   26.4797 C   0  0  0  0  0  0  0  0  0  0  0  0
    5.6021  -12.4855   26.1488 S   0  0  0  0  0  0  0  0  0  0  0  0
    6.5048  -13.3881   24.8683 C   0  0  0  0  0  0  0  0  0  0  0  0
    7.1147  -14.6292   25.4827 C   0  0  0  0  0  0  0  0  0  0  0  0
    8.4856  -14.9158   24.9035 C   0  0  2  0  0  0  0  0  0  0  0  0
    8.2842  -15.5380   23.6102 N   0  0  0  0  0  0  0  0  0  0  0  0
    9.2986  -15.7657   25.8066 C   0  0  0  0  0  0  0  0  0  0  0  0
    9.5002  -16.9879   25.5109 O   0  0  0  0  0  0  0  0  0  0  0  0
    9.8817  -15.3081   27.0023 N   0  0  0  0  0  0  0  0  0  0  0  0
    9.7193  -13.9882   27.5568 C   0  0  0  0  0  0  0  0  0  0  0  0
   11.1194  -13.7197   28.1256 C   0  0  0  0  0  0  0  0  0  0  0  0
   11.3872  -15.0368   28.8147 C   0  0  0  0  0  0  0  0  0  0  0  0
   10.7351  -16.0424   27.8987 C   0  0  1  0  0  0  0  0  0  0  0  0
   10.0066  -17.0047   28.7314 C   0  0  0  0  0  0  0  0  0  0  0  0
   10.6992  -17.8761   29.5443 O   0  0  0  0  0  0  0  0  0  0  0  0
    8.7594  -17.0444   28.7129 O   0  0  0  0  0  0  0  0  0  0  0  0
  2  1  1  1
  2  3  1  0
  4  2  1  0
  4  6  1  0
  4  5  1  6
  6  7  2  0
  8  9  1  0
  9 10  1  0
 12 11  1  1
 11 10  1  0
 13  6  1  0
 13 12  1  0
 14 12  1  0
 14 15  2  0
 16 14  1  0
 17 16  1  0
 18 19  1  0
 18 17  1  0
 19 20  1  0
 20 16  1  0
 20 21  1  1
 21 22  1  0
 23 21  2  0
M  END
$$$$
