VMP.pdb
     RDKit          3D

 23 23  0  0  1  0  0  0  0  0999 V2000
   10.8023  -18.0729   19.8165 C   0  0  0  0  0  0  0  0  0  0  0  0
   10.7387  -17.4013   21.1736 C   0  0  2  0  0  0  0  0  0  0  0  0
   10.7694  -18.3942   22.3021 C   0  0  0  0  0  0  0  0  0  0  0  0
    9.6504  -16.3849   21.2611 C   0  0  2  0  0  0  0  0  0  0  0  0
    9.8320  -15.4278   20.1899 N   0  0  0  0  0  0  0  0  0  0  0  0
    9.6468  -15.7087   22.5885 C   0  0  0  0  0  0  0  0  0  0  0  0
   10.5722  -14.8849   22.9038 O   0  0  0  0  0  0  0  0  0  0  0  0
    5.6577  -11.1124   25.9113 C   0  0  0  0  0  0  0  0  0  0  0  0
    6.2348  -12.7664   26.3532 S   0  0  0  0  0  0  0  0  0  0  0  0
    6.6880  -13.7029   24.8744 C   0  0  0  0  0  0  0  0  0  0  0  0
    7.2256  -15.0530   25.2965 C   0  0  0  0  0  0  0  0  0  0  0  0
    8.6703  -15.2291   24.8736 C   0  0  2  0  0  0  0  0  0  0  0  0
    8.6634  -15.9020   23.5901 N   0  0  0  0  0  0  0  0  0  0  0  0
    9.4538  -15.9763   25.8868 C   0  0  0  0  0  0  0  0  0  0  0  0
    9.7277  -17.2047   25.6925 O   0  0  0  0  0  0  0  0  0  0  0  0
    9.9317  -15.4117   27.0834 N   0  0  0  0  0  0  0  0  0  0  0  0
    9.6504  -14.0762   27.5454 C   0  0  0  0  0  0  0  0  0  0  0  0
   10.9927  -13.6801   28.1756 C   0  0  0  0  0  0  0  0  0  0  0  0
   11.3028  -14.9338   28.9587 C   0  0  0  0  0  0  0  0  0  0  0  0
   10.7746  -16.0329   28.0706 C   0  0  1  0  0  0  0  0  0  0  0  0
   10.0607  -16.9932   28.9181 C   0  0  0  0  0  0  0  0  0  0  0  0
   10.7626  -17.8019   29.7859 O   0  0  0  0  0  0  0  0  0  0  0  0
    8.8175  -17.0877   28.8626 O   0  0  0  0  0  0  0  0  0  0  0  0
  2  1  1  6
  2  3  1  0
  4  2  1  0
  4  6  1  0
  4  5  1  6
  6  7  2  0
  8  9  1  0
  9 10  1  0
 12 11  1  1
 11 10  1  0
 13  6  1  0
 13 12  1  0
 14 12  1  0
 14 15  2  0
 16 14  1  0
 17 16  1  0
 18 19  1  0
 18 17  1  0
 19 20  1  0
 20 16  1  0
 20 21  1  1
 21 22  1  0
 23 21  2  0
M  END
$$$$
