VMP.pdb
     RDKit          3D

 23 23  0  0  1  0  0  0  0  0999 V2000
   11.2830  -18.5062   22.2589 C   0  0  0  0  0  0  0  0  0  0  0  0
   10.0057  -18.1774   21.5124 C   0  0  2  0  0  0  0  0  0  0  0  0
    9.8218  -19.0372   20.2928 C   0  0  0  0  0  0  0  0  0  0  0  0
    9.8369  -16.7137   21.2797 C   0  0  2  0  0  0  0  0  0  0  0  0
   10.9174  -16.2585   20.4301 N   0  0  0  0  0  0  0  0  0  0  0  0
    9.8125  -15.9606   22.5648 C   0  0  0  0  0  0  0  0  0  0  0  0
   10.9008  -15.6098   23.1364 O   0  0  0  0  0  0  0  0  0  0  0  0
    6.2231  -11.1132   27.2543 C   0  0  0  0  0  0  0  0  0  0  0  0
    6.0763  -12.2500   25.8578 S   0  0  0  0  0  0  0  0  0  0  0  0
    7.0944  -13.7212   26.1198 C   0  0  0  0  0  0  0  0  0  0  0  0
    7.2001  -14.4811   24.8155 C   0  0  0  0  0  0  0  0  0  0  0  0
    8.6291  -14.9011   24.5351 C   0  0  2  0  0  0  0  0  0  0  0  0
    8.6350  -15.5756   23.2525 N   0  0  0  0  0  0  0  0  0  0  0  0
    9.1731  -15.7594   25.6150 C   0  0  0  0  0  0  0  0  0  0  0  0
    9.1745  -17.0251   25.4747 O   0  0  0  0  0  0  0  0  0  0  0  0
    9.7042  -15.2640   26.8199 N   0  0  0  0  0  0  0  0  0  0  0  0
    9.4988  -13.9350   27.3371 C   0  0  0  0  0  0  0  0  0  0  0  0
   10.8724  -13.6282   27.9495 C   0  0  0  0  0  0  0  0  0  0  0  0
   11.1376  -14.9241   28.6786 C   0  0  0  0  0  0  0  0  0  0  0  0
   10.5369  -15.9621   27.7635 C   0  0  1  0  0  0  0  0  0  0  0  0
    9.7954  -16.9182   28.5918 C   0  0  0  0  0  0  0  0  0  0  0  0
    8.4214  -16.9847   28.5053 O   0  0  0  0  0  0  0  0  0  0  0  0
   10.3970  -17.6770   29.3789 O   0  0  0  0  0  0  0  0  0  0  0  0
  2  1  1  6
  2  3  1  0
  4  2  1  0
  4  6  1  0
  4  5  1  6
  6  7  2  0
  8  9  1  0
  9 10  1  0
 12 11  1  1
 11 10  1  0
 13  6  1  0
 13 12  1  0
 14 12  1  0
 14 15  2  0
 16 14  1  0
 17 16  1  0
 18 19  1  0
 18 17  1  0
 19 20  1  0
 20 16  1  0
 20 21  1  1
 21 22  1  0
 23 21  2  0
M  END
$$$$
