VMP.pdb
     RDKit          3D

 23 23  0  0  1  0  0  0  0  0999 V2000
    7.7156  -20.4762   23.0009 C   0  0  0  0  0  0  0  0  0  0  0  0
    7.0873  -20.5905   24.3752 C   0  0  2  0  0  0  0  0  0  0  0  0
    6.9999  -22.0163   24.8443 C   0  0  0  0  0  0  0  0  0  0  0  0
    5.8207  -19.8118   24.4945 C   0  0  2  0  0  0  0  0  0  0  0  0
    4.8200  -20.4357   23.6541 N   0  0  0  0  0  0  0  0  0  0  0  0
    6.0244  -18.3856   24.1157 C   0  0  0  0  0  0  0  0  0  0  0  0
    5.9610  -18.0197   22.8924 O   0  0  0  0  0  0  0  0  0  0  0  0
    5.9433  -11.5229   27.1078 C   0  0  0  0  0  0  0  0  0  0  0  0
    7.2269  -12.7943   27.1193 S   0  0  0  0  0  0  0  0  0  0  0  0
    7.2003  -13.7450   25.5815 C   0  0  0  0  0  0  0  0  0  0  0  0
    6.7928  -15.1685   25.8938 C   0  0  0  0  0  0  0  0  0  0  0  0
    6.7536  -16.0195   24.6403 C   0  0  2  0  0  0  0  0  0  0  0  0
    6.2977  -17.3386   25.0305 N   0  0  0  0  0  0  0  0  0  0  0  0
    8.0728  -16.0665   23.9649 C   0  0  0  0  0  0  0  0  0  0  0  0
    8.9388  -16.9256   24.3308 O   0  0  0  0  0  0  0  0  0  0  0  0
    8.4503  -15.2064   22.9176 N   0  0  0  0  0  0  0  0  0  0  0  0
    7.7198  -14.0392   22.4934 C   0  0  0  0  0  0  0  0  0  0  0  0
    7.9111  -14.0934   20.9715 C   0  0  0  0  0  0  0  0  0  0  0  0
    9.3891  -14.3948   20.8964 C   0  0  0  0  0  0  0  0  0  0  0  0
    9.6141  -15.3068   22.0769 C   0  0  1  0  0  0  0  0  0  0  0  0
   10.8482  -14.8825   22.7455 C   0  0  0  0  0  0  0  0  0  0  0  0
   10.8097  -14.4493   24.0534 O   0  0  0  0  0  0  0  0  0  0  0  0
   11.9396  -14.9092   22.1409 O   0  0  0  0  0  0  0  0  0  0  0  0
  2  1  1  6
  2  3  1  0
  4  2  1  0
  4  6  1  0
  4  5  1  6
  6  7  2  0
  8  9  1  0
  9 10  1  0
 12 11  1  1
 11 10  1  0
 13  6  1  0
 13 12  1  0
 14 12  1  0
 14 15  2  0
 16 14  1  0
 17 16  1  0
 18 19  1  0
 18 17  1  0
 19 20  1  0
 20 16  1  0
 20 21  1  1
 21 22  1  0
 23 21  2  0
M  END
$$$$
