VMP.pdb
     RDKit          3D

 23 23  0  0  1  0  0  0  0  0999 V2000
    8.6793  -19.7975   22.5686 C   0  0  0  0  0  0  0  0  0  0  0  0
    7.3036  -20.0233   23.1629 C   0  0  2  0  0  0  0  0  0  0  0  0
    6.2235  -20.0155   22.1171 C   0  0  0  0  0  0  0  0  0  0  0  0
    7.0387  -19.1533   24.3453 C   0  0  2  0  0  0  0  0  0  0  0  0
    5.8789  -19.6695   25.0416 N   0  0  0  0  0  0  0  0  0  0  0  0
    6.8319  -17.7353   23.9384 C   0  0  0  0  0  0  0  0  0  0  0  0
    5.7311  -17.3632   23.4052 O   0  0  0  0  0  0  0  0  0  0  0  0
    6.5549  -11.5621   26.5621 C   0  0  0  0  0  0  0  0  0  0  0  0
    7.5529  -13.0449   26.8253 S   0  0  0  0  0  0  0  0  0  0  0  0
    7.0788  -14.3499   25.6670 C   0  0  0  0  0  0  0  0  0  0  0  0
    8.0688  -14.3713   24.5228 C   0  0  0  0  0  0  0  0  0  0  0  0
    7.6811  -15.3964   23.4760 C   0  0  2  0  0  0  0  0  0  0  0  0
    7.7902  -16.7031   24.0930 N   0  0  0  0  0  0  0  0  0  0  0  0
    8.5215  -15.2863   22.2592 C   0  0  0  0  0  0  0  0  0  0  0  0
    9.3685  -16.1991   21.9926 O   0  0  0  0  0  0  0  0  0  0  0  0
    8.4503  -14.2155   21.3495 N   0  0  0  0  0  0  0  0  0  0  0  0
    7.5791  -13.0745   21.4720 C   0  0  0  0  0  0  0  0  0  0  0  0
    7.1839  -12.8314   20.0089 C   0  0  0  0  0  0  0  0  0  0  0  0
    8.5329  -12.9565   19.3413 C   0  0  0  0  0  0  0  0  0  0  0  0
    9.2135  -14.0385   20.1423 C   0  0  1  0  0  0  0  0  0  0  0  0
   10.5953  -13.6147   20.3894 C   0  0  0  0  0  0  0  0  0  0  0  0
   11.5375  -13.7181   19.3887 O   0  0  0  0  0  0  0  0  0  0  0  0
   10.9306  -13.1588   21.5017 O   0  0  0  0  0  0  0  0  0  0  0  0
  2  1  1  6
  2  3  1  0
  4  2  1  0
  4  6  1  0
  4  5  1  6
  6  7  2  0
  8  9  1  0
  9 10  1  0
 12 11  1  1
 11 10  1  0
 13  6  1  0
 13 12  1  0
 14 12  1  0
 14 15  2  0
 16 14  1  0
 17 16  1  0
 18 19  1  0
 18 17  1  0
 19 20  1  0
 20 16  1  0
 20 21  1  1
 21 22  1  0
 23 21  2  0
M  END
$$$$
