VMP.pdb
     RDKit          3D

 23 23  0  0  1  0  0  0  0  0999 V2000
    7.4281  -19.9692   22.6144 C   0  0  0  0  0  0  0  0  0  0  0  0
    6.9607  -20.1199   24.0481 C   0  0  2  0  0  0  0  0  0  0  0  0
    6.8883  -21.5597   24.4747 C   0  0  0  0  0  0  0  0  0  0  0  0
    5.7389  -19.3161   24.3415 C   0  0  2  0  0  0  0  0  0  0  0  0
    4.6138  -19.9339   23.6712 N   0  0  0  0  0  0  0  0  0  0  0  0
    5.9066  -17.8998   23.9114 C   0  0  0  0  0  0  0  0  0  0  0  0
    5.6881  -17.5553   22.6998 O   0  0  0  0  0  0  0  0  0  0  0  0
    6.8850  -13.0902   28.0352 C   0  0  0  0  0  0  0  0  0  0  0  0
    7.6960  -12.3124   26.6206 S   0  0  0  0  0  0  0  0  0  0  0  0
    7.4369  -13.2856   25.1189 C   0  0  0  0  0  0  0  0  0  0  0  0
    6.9771  -14.6735   25.5091 C   0  0  0  0  0  0  0  0  0  0  0  0
    6.7471  -15.5426   24.2890 C   0  0  2  0  0  0  0  0  0  0  0  0
    6.3078  -16.8400   24.7621 N   0  0  0  0  0  0  0  0  0  0  0  0
    7.9633  -15.6427   23.4466 C   0  0  0  0  0  0  0  0  0  0  0  0
    8.8098  -16.5680   23.6680 O   0  0  0  0  0  0  0  0  0  0  0  0
    8.2605  -14.7646   22.3884 N   0  0  0  0  0  0  0  0  0  0  0  0
    7.5699  -13.5311   22.1101 C   0  0  0  0  0  0  0  0  0  0  0  0
    7.5502  -13.5297   20.5754 C   0  0  0  0  0  0  0  0  0  0  0  0
    8.9777  -13.9302   20.2873 C   0  0  0  0  0  0  0  0  0  0  0  0
    9.2897  -14.9082   21.3927 C   0  0  1  0  0  0  0  0  0  0  0  0
   10.6310  -14.6022   21.9000 C   0  0  0  0  0  0  0  0  0  0  0  0
   11.7364  -14.8354   21.1105 O   0  0  0  0  0  0  0  0  0  0  0  0
   10.7846  -14.1302   23.0450 O   0  0  0  0  0  0  0  0  0  0  0  0
  2  1  1  6
  2  3  1  0
  4  2  1  0
  4  6  1  0
  4  5  1  6
  6  7  2  0
  8  9  1  0
  9 10  1  0
 12 11  1  1
 11 10  1  0
 13  6  1  0
 13 12  1  0
 14 12  1  0
 14 15  2  0
 16 14  1  0
 17 16  1  0
 18 19  1  0
 18 17  1  0
 19 20  1  0
 20 16  1  0
 20 21  1  1
 21 22  1  0
 23 21  2  0
M  END
$$$$
