VMP.pdb
     RDKit          3D

 23 23  0  0  1  0  0  0  0  0999 V2000
   10.8597  -18.6131   22.3615 C   0  0  0  0  0  0  0  0  0  0  0  0
    9.5723  -18.2512   21.6486 C   0  0  2  0  0  0  0  0  0  0  0  0
    9.2688  -19.1870   20.5117 C   0  0  0  0  0  0  0  0  0  0  0  0
    9.4929  -16.8015   21.3065 C   0  0  2  0  0  0  0  0  0  0  0  0
   10.5681  -16.4893   20.3883 N   0  0  0  0  0  0  0  0  0  0  0  0
    9.5684  -15.9522   22.5280 C   0  0  0  0  0  0  0  0  0  0  0  0
   10.6923  -15.5093   22.9466 O   0  0  0  0  0  0  0  0  0  0  0  0
    5.8335  -11.0801   26.7889 C   0  0  0  0  0  0  0  0  0  0  0  0
    5.5637  -12.8419   26.4933 S   0  0  0  0  0  0  0  0  0  0  0  0
    7.1387  -13.7040   26.2802 C   0  0  0  0  0  0  0  0  0  0  0  0
    7.1862  -14.2988   24.8896 C   0  0  0  0  0  0  0  0  0  0  0  0
    8.5565  -14.8663   24.5780 C   0  0  2  0  0  0  0  0  0  0  0  0
    8.4539  -15.5679   23.3141 N   0  0  0  0  0  0  0  0  0  0  0  0
    9.0470  -15.7494   25.6636 C   0  0  0  0  0  0  0  0  0  0  0  0
    8.8567  -17.0063   25.5890 O   0  0  0  0  0  0  0  0  0  0  0  0
    9.7280  -15.2875   26.8047 N   0  0  0  0  0  0  0  0  0  0  0  0
    9.7690  -13.9191   27.2538 C   0  0  0  0  0  0  0  0  0  0  0  0
   11.2112  -13.8074   27.7671 C   0  0  0  0  0  0  0  0  0  0  0  0
   11.3169  -15.0919   28.5546 C   0  0  0  0  0  0  0  0  0  0  0  0
   10.5011  -16.0633   27.7383 C   0  0  1  0  0  0  0  0  0  0  0  0
    9.6747  -16.8461   28.6626 C   0  0  0  0  0  0  0  0  0  0  0  0
    8.3046  -16.6959   28.6586 O   0  0  0  0  0  0  0  0  0  0  0  0
   10.2003  -17.6517   29.4578 O   0  0  0  0  0  0  0  0  0  0  0  0
  2  1  1  6
  2  3  1  0
  4  2  1  0
  4  6  1  0
  4  5  1  6
  6  7  2  0
  8  9  1  0
  9 10  1  0
 12 11  1  1
 11 10  1  0
 13  6  1  0
 13 12  1  0
 14 12  1  0
 14 15  2  0
 16 14  1  0
 17 16  1  0
 18 19  1  0
 18 17  1  0
 19 20  1  0
 20 16  1  0
 20 21  1  1
 21 22  1  0
 23 21  2  0
M  END
$$$$
