VMP.pdb
     RDKit          3D

 23 23  0  0  1  0  0  0  0  0999 V2000
    6.7837  -15.1762   20.8435 C   0  0  0  0  0  0  0  0  0  0  0  0
    8.1143  -15.1718   20.1181 C   0  0  2  0  0  0  0  0  0  0  0  0
    8.0515  -15.9093   18.8094 C   0  0  0  0  0  0  0  0  0  0  0  0
    9.2519  -15.5580   21.0022 C   0  0  2  0  0  0  0  0  0  0  0  0
    9.1819  -16.9846   21.2399 N   0  0  0  0  0  0  0  0  0  0  0  0
    9.2229  -14.7995   22.2840 C   0  0  0  0  0  0  0  0  0  0  0  0
    8.9939  -13.5418   22.2931 O   0  0  0  0  0  0  0  0  0  0  0  0
    6.2310  -11.8131   27.5944 C   0  0  0  0  0  0  0  0  0  0  0  0
    6.9280  -12.3762   26.0256 S   0  0  0  0  0  0  0  0  0  0  0  0
    6.7165  -14.1618   25.8350 C   0  0  0  0  0  0  0  0  0  0  0  0
    7.4094  -14.6033   24.5643 C   0  0  0  0  0  0  0  0  0  0  0  0
    8.8904  -14.8298   24.7928 C   0  0  2  0  0  0  0  0  0  0  0  0
    9.4375  -15.3687   23.5638 N   0  0  0  0  0  0  0  0  0  0  0  0
    9.1390  -15.7244   25.9489 C   0  0  0  0  0  0  0  0  0  0  0  0
    8.8035  -16.9511   25.8812 O   0  0  0  0  0  0  0  0  0  0  0  0
    9.7365  -15.3060   27.1519 N   0  0  0  0  0  0  0  0  0  0  0  0
    9.4906  -14.0487   27.8112 C   0  0  0  0  0  0  0  0  0  0  0  0
   10.8882  -13.7022   28.3428 C   0  0  0  0  0  0  0  0  0  0  0  0
   11.2960  -15.0376   28.9185 C   0  0  0  0  0  0  0  0  0  0  0  0
   10.6884  -16.0269   27.9553 C   0  0  1  0  0  0  0  0  0  0  0  0
   10.0815  -17.1062   28.7407 C   0  0  0  0  0  0  0  0  0  0  0  0
   10.8816  -17.9801   29.4449 O   0  0  0  0  0  0  0  0  0  0  0  0
    8.8418  -17.2439   28.7793 O   0  0  0  0  0  0  0  0  0  0  0  0
  2  1  1  1
  2  3  1  0
  4  2  1  0
  4  6  1  0
  4  5  1  1
  6  7  2  0
  8  9  1  0
  9 10  1  0
 12 11  1  6
 11 10  1  0
 13  6  1  0
 13 12  1  0
 14 12  1  0
 14 15  2  0
 16 14  1  0
 17 16  1  0
 18 19  1  0
 18 17  1  0
 19 20  1  0
 20 16  1  0
 20 21  1  1
 21 22  1  0
 23 21  2  0
M  END
$$$$
