VMP.pdb
     RDKit          3D

 23 23  0  0  1  0  0  0  0  0999 V2000
    7.6773  -20.2656   22.8763 C   0  0  0  0  0  0  0  0  0  0  0  0
    7.1798  -20.3102   24.3071 C   0  0  2  0  0  0  0  0  0  0  0  0
    7.2315  -21.6973   24.8848 C   0  0  0  0  0  0  0  0  0  0  0  0
    5.8778  -19.6044   24.4848 C   0  0  2  0  0  0  0  0  0  0  0  0
    4.8771  -20.2845   23.6894 N   0  0  0  0  0  0  0  0  0  0  0  0
    5.9831  -18.1692   24.0999 C   0  0  0  0  0  0  0  0  0  0  0  0
    5.6886  -17.7877   22.9157 O   0  0  0  0  0  0  0  0  0  0  0  0
    8.4751  -13.3529   28.0882 C   0  0  0  0  0  0  0  0  0  0  0  0
    7.3520  -12.5360   26.9328 S   0  0  0  0  0  0  0  0  0  0  0  0
    7.1927  -13.4950   25.4081 C   0  0  0  0  0  0  0  0  0  0  0  0
    6.9121  -14.9383   25.7655 C   0  0  0  0  0  0  0  0  0  0  0  0
    6.7353  -15.7903   24.5246 C   0  0  2  0  0  0  0  0  0  0  0  0
    6.4021  -17.1296   24.9667 N   0  0  0  0  0  0  0  0  0  0  0  0
    7.9459  -15.7746   23.6685 C   0  0  0  0  0  0  0  0  0  0  0  0
    8.8850  -16.6063   23.8881 O   0  0  0  0  0  0  0  0  0  0  0  0
    8.1401  -14.8818   22.5987 N   0  0  0  0  0  0  0  0  0  0  0  0
    7.3339  -13.7190   22.3268 C   0  0  0  0  0  0  0  0  0  0  0  0
    7.2832  -13.7323   20.7928 C   0  0  0  0  0  0  0  0  0  0  0  0
    8.7354  -14.0029   20.4778 C   0  0  0  0  0  0  0  0  0  0  0  0
    9.1578  -14.9389   21.5827 C   0  0  1  0  0  0  0  0  0  0  0  0
   10.4754  -14.5073   22.0600 C   0  0  0  0  0  0  0  0  0  0  0  0
   11.5782  -14.6271   21.2420 O   0  0  0  0  0  0  0  0  0  0  0  0
   10.6110  -14.0298   23.2050 O   0  0  0  0  0  0  0  0  0  0  0  0
  2  1  1  6
  2  3  1  0
  4  2  1  0
  4  6  1  0
  4  5  1  6
  6  7  2  0
  8  9  1  0
  9 10  1  0
 12 11  1  1
 11 10  1  0
 13  6  1  0
 13 12  1  0
 14 12  1  0
 14 15  2  0
 16 14  1  0
 17 16  1  0
 18 19  1  0
 18 17  1  0
 19 20  1  0
 20 16  1  0
 20 21  1  1
 21 22  1  0
 23 21  2  0
M  END
$$$$
