VMP.pdb
     RDKit          3D

 23 23  0  0  1  0  0  0  0  0999 V2000
    6.4706  -22.0074   23.4805 C   0  0  0  0  0  0  0  0  0  0  0  0
    6.5879  -20.5307   23.1603 C   0  0  2  0  0  0  0  0  0  0  0  0
    8.0005  -20.0317   23.2853 C   0  0  0  0  0  0  0  0  0  0  0  0
    5.5660  -19.7065   23.8684 C   0  0  2  0  0  0  0  0  0  0  0  0
    4.2540  -20.1108   23.4080 N   0  0  0  0  0  0  0  0  0  0  0  0
    5.7895  -18.2518   23.6380 C   0  0  0  0  0  0  0  0  0  0  0  0
    5.5373  -17.7248   22.5009 O   0  0  0  0  0  0  0  0  0  0  0  0
    7.7564  -11.2867   26.9291 C   0  0  0  0  0  0  0  0  0  0  0  0
    7.3665  -13.0430   27.0947 S   0  0  0  0  0  0  0  0  0  0  0  0
    7.2023  -13.8186   25.4697 C   0  0  0  0  0  0  0  0  0  0  0  0
    6.7669  -15.2558   25.6556 C   0  0  0  0  0  0  0  0  0  0  0  0
    6.6560  -15.9758   24.3266 C   0  0  2  0  0  0  0  0  0  0  0  0
    6.2827  -17.3470   24.6105 N   0  0  0  0  0  0  0  0  0  0  0  0
    7.9158  -15.8942   23.5490 C   0  0  0  0  0  0  0  0  0  0  0  0
    8.8765  -16.6852   23.8192 O   0  0  0  0  0  0  0  0  0  0  0  0
    8.1354  -14.9798   22.5026 N   0  0  0  0  0  0  0  0  0  0  0  0
    7.2723  -13.8766   22.1651 C   0  0  0  0  0  0  0  0  0  0  0  0
    7.3553  -13.8794   20.6325 C   0  0  0  0  0  0  0  0  0  0  0  0
    8.8452  -14.0402   20.4438 C   0  0  0  0  0  0  0  0  0  0  0  0
    9.2385  -14.9530   21.5786 C   0  0  1  0  0  0  0  0  0  0  0  0
   10.4745  -14.4306   22.1696 C   0  0  0  0  0  0  0  0  0  0  0  0
   11.6638  -14.5292   21.4799 O   0  0  0  0  0  0  0  0  0  0  0  0
   10.4626  -13.8946   23.2966 O   0  0  0  0  0  0  0  0  0  0  0  0
  2  1  1  1
  2  3  1  0
  4  2  1  0
  4  6  1  0
  4  5  1  6
  6  7  2  0
  8  9  1  0
  9 10  1  0
 12 11  1  1
 11 10  1  0
 13  6  1  0
 13 12  1  0
 14 12  1  0
 14 15  2  0
 16 14  1  0
 17 16  1  0
 18 19  1  0
 18 17  1  0
 19 20  1  0
 20 16  1  0
 20 21  1  1
 21 22  1  0
 23 21  2  0
M  END
$$$$
