VMP.pdb
     RDKit          3D

 23 23  0  0  1  0  0  0  0  0999 V2000
    7.1306  -20.2387   22.3020 C   0  0  0  0  0  0  0  0  0  0  0  0
    6.5730  -20.4760   23.6911 C   0  0  2  0  0  0  0  0  0  0  0  0
    6.3517  -21.9359   23.9739 C   0  0  0  0  0  0  0  0  0  0  0  0
    5.4117  -19.5931   24.0026 C   0  0  2  0  0  0  0  0  0  0  0  0
    4.2822  -20.0265   23.2069 N   0  0  0  0  0  0  0  0  0  0  0  0
    5.7338  -18.1625   23.7407 C   0  0  0  0  0  0  0  0  0  0  0  0
    5.6043  -17.6682   22.5688 O   0  0  0  0  0  0  0  0  0  0  0  0
    6.2199  -11.7144   27.2387 C   0  0  0  0  0  0  0  0  0  0  0  0
    7.5203  -12.9628   27.1186 S   0  0  0  0  0  0  0  0  0  0  0  0
    7.4498  -13.8095   25.5225 C   0  0  0  0  0  0  0  0  0  0  0  0
    6.9012  -15.2040   25.7325 C   0  0  0  0  0  0  0  0  0  0  0  0
    6.7106  -15.9269   24.4142 C   0  0  2  0  0  0  0  0  0  0  0  0
    6.1961  -17.2471   24.7185 N   0  0  0  0  0  0  0  0  0  0  0  0
    7.9694  -15.9894   23.6331 C   0  0  0  0  0  0  0  0  0  0  0  0
    8.7827  -16.9509   23.8227 O   0  0  0  0  0  0  0  0  0  0  0  0
    8.3434  -15.0363   22.6683 N   0  0  0  0  0  0  0  0  0  0  0  0
    7.6761  -13.7809   22.4346 C   0  0  0  0  0  0  0  0  0  0  0  0
    7.7676  -13.6641   20.9069 C   0  0  0  0  0  0  0  0  0  0  0  0
    9.2118  -14.0511   20.6933 C   0  0  0  0  0  0  0  0  0  0  0  0
    9.4419  -15.1114   21.7415 C   0  0  1  0  0  0  0  0  0  0  0  0
   10.7432  -14.8531   22.3658 C   0  0  0  0  0  0  0  0  0  0  0  0
   10.8172  -14.5659   23.7118 O   0  0  0  0  0  0  0  0  0  0  0  0
   11.7910  -14.8903   21.6889 O   0  0  0  0  0  0  0  0  0  0  0  0
  2  1  1  6
  2  3  1  0
  4  2  1  0
  4  6  1  0
  4  5  1  6
  6  7  2  0
  8  9  1  0
  9 10  1  0
 12 11  1  1
 11 10  1  0
 13  6  1  0
 13 12  1  0
 14 12  1  0
 14 15  2  0
 16 14  1  0
 17 16  1  0
 18 19  1  0
 18 17  1  0
 19 20  1  0
 20 16  1  0
 20 21  1  1
 21 22  1  0
 23 21  2  0
M  END
$$$$
