TWG.pdb
     RDKit          3D

 26 27  0  0  1  0  0  0  0  0999 V2000
   24.6967  -13.7366  -16.1273 C   0  0  0  0  0  0  0  0  0  0  0  0
   24.2684  -12.3716  -16.6372 C   0  0  1  0  0  0  0  0  0  0  0  0
   23.2547  -12.5426  -17.5631 O   0  0  0  0  0  0  0  0  0  0  0  0
   23.9109  -11.4396  -15.5299 C   0  0  2  0  0  0  0  0  0  0  0  0
   22.8126  -12.0777  -14.7848 N   0  0  0  0  0  0  0  0  0  0  0  0
   23.5630  -10.0767  -15.9274 C   0  0  0  0  0  0  0  0  0  0  0  0
   24.4164   -9.3662  -16.5486 O   0  0  0  0  0  0  0  0  0  0  0  0
   22.3078   -9.4867  -15.6586 N   0  0  0  0  0  0  0  0  0  0  0  0
   22.0030   -8.1516  -16.1133 C   0  0  1  0  0  0  0  0  0  0  0  0
   20.6262   -8.2116  -16.7395 C   0  0  0  0  0  0  0  0  0  0  0  0
   20.7071   -8.8573  -18.0745 C   0  0  0  0  0  0  0  0  0  0  0  0
   20.9792  -10.1724  -18.3851 C   0  0  0  0  0  0  0  0  0  0  0  0
   20.9669  -10.3794  -19.7041 N   0  0  0  0  0  0  0  0  0  0  0  0
   20.6850   -9.1951  -20.2744 C   0  0  0  0  0  0  0  0  0  0  0  0
   20.5534   -8.8645  -21.6240 C   0  0  0  0  0  0  0  0  0  0  0  0
   20.2527   -7.5606  -21.9892 C   0  0  0  0  0  0  0  0  0  0  0  0
   20.0929   -6.6252  -20.9882 C   0  0  0  0  0  0  0  0  0  0  0  0
   20.2200   -6.9369  -19.6505 C   0  0  0  0  0  0  0  0  0  0  0  0
   20.5198   -8.2388  -19.2922 C   0  0  0  0  0  0  0  0  0  0  0  0
   22.0703   -7.1849  -15.0035 C   0  0  0  0  0  0  0  0  0  0  0  0
   21.6904   -7.4563  -13.8327 O   0  0  0  0  0  0  0  0  0  0  0  0
   22.5798   -5.8933  -15.2418 N   0  0  0  0  0  0  0  0  0  0  0  0
   22.5351   -4.9076  -14.1816 C   0  0  0  0  0  0  0  0  0  0  0  0
   21.3441   -4.0554  -14.2297 C   0  0  0  0  0  0  0  0  0  0  0  0
   21.3458   -3.0630  -14.9999 O   0  0  0  0  0  0  0  0  0  0  0  0
   20.2003   -4.2682  -13.4770 O   0  0  0  0  0  0  0  0  0  0  0  0
  2  1  1  1
  3  2  1  0
  4  2  1  0
  4  6  1  0
  4  5  1  6
  6  7  2  0
  8  6  1  0
  8  9  1  0
  9 10  1  1
 10 11  1  0
 11 19  1  0
 12 13  1  0
 12 11  2  0
 13 14  1  0
 14 19  2  0
 14 15  1  0
 15 16  2  0
 16 17  1  0
 18 17  2  0
 19 18  1  0
 20  9  1  0
 20 22  1  0
 21 20  2  0
 23 24  1  0
 23 22  1  0
 24 26  1  0
 25 24  2  0
M  END
$$$$
