TWG.pdb
     RDKit          3D

 26 27  0  0  1  0  0  0  0  0999 V2000
   26.1414  -18.5087  -15.2065 C   0  0  0  0  0  0  0  0  0  0  0  0
   27.1591  -19.5783  -15.5627 C   0  0  1  0  0  0  0  0  0  0  0  0
   28.1167  -19.0204  -16.3908 O   0  0  0  0  0  0  0  0  0  0  0  0
   27.7304  -20.2413  -14.3558 C   0  0  2  0  0  0  0  0  0  0  0  0
   28.7366  -21.2000  -14.8428 N   0  0  0  0  0  0  0  0  0  0  0  0
   26.7686  -20.8863  -13.4639 C   0  0  0  0  0  0  0  0  0  0  0  0
   26.3141  -22.0380  -13.7574 O   0  0  0  0  0  0  0  0  0  0  0  0
   26.3026  -20.2959  -12.2681 N   0  0  0  0  0  0  0  0  0  0  0  0
   25.2926  -20.9428  -11.4659 C   0  0  1  0  0  0  0  0  0  0  0  0
   25.4683  -20.4297  -10.0527 C   0  0  0  0  0  0  0  0  0  0  0  0
   26.8204  -20.7854   -9.5516 C   0  0  0  0  0  0  0  0  0  0  0  0
   27.7759  -21.5900  -10.1344 C   0  0  0  0  0  0  0  0  0  0  0  0
   28.8741  -21.6756   -9.3799 N   0  0  0  0  0  0  0  0  0  0  0  0
   28.6480  -20.9237   -8.2887 C   0  0  0  0  0  0  0  0  0  0  0  0
   29.4736  -20.6743   -7.1914 C   0  0  0  0  0  0  0  0  0  0  0  0
   29.0292  -19.8534   -6.1654 C   0  0  0  0  0  0  0  0  0  0  0  0
   27.7675  -19.3061   -6.2706 C   0  0  0  0  0  0  0  0  0  0  0  0
   26.9403  -19.5435   -7.3487 C   0  0  0  0  0  0  0  0  0  0  0  0
   27.3888  -20.3628   -8.3688 C   0  0  0  0  0  0  0  0  0  0  0  0
   23.9436  -20.6744  -11.9939 C   0  0  0  0  0  0  0  0  0  0  0  0
   23.5237  -19.5132  -12.2469 O   0  0  0  0  0  0  0  0  0  0  0  0
   23.0683  -21.7518  -12.2339 N   0  0  0  0  0  0  0  0  0  0  0  0
   21.7438  -21.4857  -12.7556 C   0  0  0  0  0  0  0  0  0  0  0  0
   20.7866  -21.0686  -11.7274 C   0  0  0  0  0  0  0  0  0  0  0  0
   20.5911  -21.8269  -10.7452 O   0  0  0  0  0  0  0  0  0  0  0  0
   20.0722  -19.8818  -11.7606 O   0  0  0  0  0  0  0  0  0  0  0  0
  2  1  1  1
  3  2  1  0
  4  2  1  0
  4  6  1  0
  4  5  1  6
  6  7  2  0
  8  6  1  0
  8  9  1  0
  9 10  1  1
 10 11  1  0
 11 19  1  0
 12 13  1  0
 12 11  2  0
 13 14  1  0
 14 19  2  0
 14 15  1  0
 15 16  2  0
 16 17  1  0
 18 17  2  0
 19 18  1  0
 20  9  1  0
 20 22  1  0
 21 20  2  0
 23 24  1  0
 23 22  1  0
 24 26  1  0
 25 24  2  0
M  END
$$$$
