TWG.pdb
     RDKit          3D

 26 27  0  0  1  0  0  0  0  0999 V2000
   28.6844  -15.4602  -20.9806 C   0  0  0  0  0  0  0  0  0  0  0  0
   27.2936  -15.1785  -20.4393 C   0  0  1  0  0  0  0  0  0  0  0  0
   26.3681  -15.4584  -21.4289 O   0  0  0  0  0  0  0  0  0  0  0  0
   27.0285  -15.8934  -19.1582 C   0  0  2  0  0  0  0  0  0  0  0  0
   27.0997  -17.3329  -19.4606 N   0  0  0  0  0  0  0  0  0  0  0  0
   25.7783  -15.5528  -18.4818 C   0  0  0  0  0  0  0  0  0  0  0  0
   24.6965  -16.1198  -18.8384 O   0  0  0  0  0  0  0  0  0  0  0  0
   25.6960  -14.6114  -17.4317 N   0  0  0  0  0  0  0  0  0  0  0  0
   24.4353  -14.3214  -16.7925 C   0  0  1  0  0  0  0  0  0  0  0  0
   24.6694  -14.4370  -15.3016 C   0  0  0  0  0  0  0  0  0  0  0  0
   24.8454  -15.8635  -14.9278 C   0  0  0  0  0  0  0  0  0  0  0  0
   25.9907  -16.5194  -14.5301 C   0  0  0  0  0  0  0  0  0  0  0  0
   25.7566  -17.8093  -14.2772 N   0  0  0  0  0  0  0  0  0  0  0  0
   24.4480  -18.0129  -14.5079 C   0  0  0  0  0  0  0  0  0  0  0  0
   23.6939  -19.1817  -14.3929 C   0  0  0  0  0  0  0  0  0  0  0  0
   22.3381  -19.1601  -14.6849 C   0  0  0  0  0  0  0  0  0  0  0  0
   21.7779  -17.9647  -15.0846 C   0  0  0  0  0  0  0  0  0  0  0  0
   22.5102  -16.8018  -15.2030 C   0  0  0  0  0  0  0  0  0  0  0  0
   23.8618  -16.8293  -14.9104 C   0  0  0  0  0  0  0  0  0  0  0  0
   23.9390  -12.9889  -17.1785 C   0  0  0  0  0  0  0  0  0  0  0  0
   24.6994  -12.0526  -17.5442 O   0  0  0  0  0  0  0  0  0  0  0  0
   22.5547  -12.7302  -17.1440 N   0  0  0  0  0  0  0  0  0  0  0  0
   22.0591  -11.4603  -17.6330 C   0  0  0  0  0  0  0  0  0  0  0  0
   20.8519  -11.5844  -18.4542 C   0  0  0  0  0  0  0  0  0  0  0  0
   20.9344  -12.1777  -19.5584 O   0  0  0  0  0  0  0  0  0  0  0  0
   19.6088  -11.0881  -18.0958 O   0  0  0  0  0  0  0  0  0  0  0  0
  2  1  1  6
  3  2  1  0
  4  2  1  0
  4  6  1  0
  4  5  1  6
  6  7  2  0
  8  6  1  0
  8  9  1  0
  9 10  1  1
 10 11  1  0
 11 19  1  0
 12 13  1  0
 12 11  2  0
 13 14  1  0
 14 19  2  0
 14 15  1  0
 15 16  2  0
 16 17  1  0
 18 17  2  0
 19 18  1  0
 20  9  1  0
 20 22  1  0
 21 20  2  0
 23 24  1  0
 23 22  1  0
 24 26  1  0
 25 24  2  0
M  END
$$$$
