TWG.pdb
     RDKit          3D

 26 27  0  0  1  0  0  0  0  0999 V2000
   28.0647  -18.1533  -15.2405 C   0  0  0  0  0  0  0  0  0  0  0  0
   27.1676  -18.9282  -14.2911 C   0  0  1  0  0  0  0  0  0  0  0  0
   26.0838  -19.4123  -15.0017 O   0  0  0  0  0  0  0  0  0  0  0  0
   27.9096  -19.9848  -13.5457 C   0  0  2  0  0  0  0  0  0  0  0  0
   28.4706  -20.8949  -14.5584 N   0  0  0  0  0  0  0  0  0  0  0  0
   27.1428  -20.7164  -12.5390 C   0  0  0  0  0  0  0  0  0  0  0  0
   27.0515  -21.9832  -12.6171 O   0  0  0  0  0  0  0  0  0  0  0  0
   26.4824  -20.0887  -11.4595 N   0  0  0  0  0  0  0  0  0  0  0  0
   25.8608  -20.8678  -10.4160 C   0  0  1  0  0  0  0  0  0  0  0  0
   26.0525  -20.0965   -9.1277 C   0  0  0  0  0  0  0  0  0  0  0  0
   27.3767  -20.4204   -8.5383 C   0  0  0  0  0  0  0  0  0  0  0  0
   28.4009  -21.1734   -9.0713 C   0  0  0  0  0  0  0  0  0  0  0  0
   29.4438  -21.2440   -8.2406 N   0  0  0  0  0  0  0  0  0  0  0  0
   29.1116  -20.5338   -7.1485 C   0  0  0  0  0  0  0  0  0  0  0  0
   29.8456  -20.2895   -5.9868 C   0  0  0  0  0  0  0  0  0  0  0  0
   29.2979  -19.5161   -4.9740 C   0  0  0  0  0  0  0  0  0  0  0  0
   28.0280  -19.0098   -5.1566 C   0  0  0  0  0  0  0  0  0  0  0  0
   27.2905  -19.2427   -6.2989 C   0  0  0  0  0  0  0  0  0  0  0  0
   27.8418  -20.0146   -7.3056 C   0  0  0  0  0  0  0  0  0  0  0  0
   24.4389  -21.1141  -10.7134 C   0  0  0  0  0  0  0  0  0  0  0  0
   23.6128  -21.5014   -9.8438 O   0  0  0  0  0  0  0  0  0  0  0  0
   23.9618  -20.9128  -12.0235 N   0  0  0  0  0  0  0  0  0  0  0  0
   22.5731  -21.1944  -12.3226 C   0  0  0  0  0  0  0  0  0  0  0  0
   21.7888  -19.9945  -12.6268 C   0  0  0  0  0  0  0  0  0  0  0  0
   20.5486  -20.1120  -12.7882 O   0  0  0  0  0  0  0  0  0  0  0  0
   22.3237  -18.7223  -12.7508 O   0  0  0  0  0  0  0  0  0  0  0  0
  2  1  1  6
  3  2  1  0
  4  2  1  0
  4  6  1  0
  4  5  1  6
  6  7  2  0
  8  6  1  0
  8  9  1  0
  9 10  1  1
 10 11  1  0
 11 19  1  0
 12 13  1  0
 12 11  2  0
 13 14  1  0
 14 19  2  0
 14 15  1  0
 15 16  2  0
 16 17  1  0
 18 17  2  0
 19 18  1  0
 20  9  1  0
 20 22  1  0
 21 20  2  0
 23 24  1  0
 23 22  1  0
 24 26  1  0
 25 24  2  0
M  END
$$$$
