TWG.pdb
     RDKit          3D

 26 27  0  0  1  0  0  0  0  0999 V2000
   23.4412  -17.2917  -19.3718 C   0  0  0  0  0  0  0  0  0  0  0  0
   22.7508  -16.1921  -18.5838 C   0  0  1  0  0  0  0  0  0  0  0  0
   21.3823  -16.3408  -18.7218 O   0  0  0  0  0  0  0  0  0  0  0  0
   23.2031  -16.1426  -17.1642 C   0  0  2  0  0  0  0  0  0  0  0  0
   22.9446  -17.4766  -16.5965 N   0  0  0  0  0  0  0  0  0  0  0  0
   22.6119  -15.0899  -16.3402 C   0  0  0  0  0  0  0  0  0  0  0  0
   21.5672  -15.3385  -15.6576 O   0  0  0  0  0  0  0  0  0  0  0  0
   23.1421  -13.7834  -16.2528 N   0  0  0  0  0  0  0  0  0  0  0  0
   22.4769  -12.7630  -15.4792 C   0  0  1  0  0  0  0  0  0  0  0  0
   23.5626  -11.8768  -14.9074 C   0  0  0  0  0  0  0  0  0  0  0  0
   22.9513  -10.7603  -14.1422 C   0  0  0  0  0  0  0  0  0  0  0  0
   22.3770  -10.7816  -12.8893 C   0  0  0  0  0  0  0  0  0  0  0  0
   21.9315   -9.5750  -12.5314 N   0  0  0  0  0  0  0  0  0  0  0  0
   22.2109   -8.7459  -13.5521 C   0  0  0  0  0  0  0  0  0  0  0  0
   21.9571   -7.3800  -13.6861 C   0  0  0  0  0  0  0  0  0  0  0  0
   22.3396   -6.7170  -14.8428 C   0  0  0  0  0  0  0  0  0  0  0  0
   22.9663   -7.4449  -15.8327 C   0  0  0  0  0  0  0  0  0  0  0  0
   23.2237   -8.7950  -15.7146 C   0  0  0  0  0  0  0  0  0  0  0  0
   22.8401   -9.4509  -14.5589 C   0  0  0  0  0  0  0  0  0  0  0  0
   21.5191  -12.0095  -16.3074 C   0  0  0  0  0  0  0  0  0  0  0  0
   21.7681  -11.6498  -17.4894 O   0  0  0  0  0  0  0  0  0  0  0  0
   20.2623  -11.6664  -15.7714 N   0  0  0  0  0  0  0  0  0  0  0  0
   19.3123  -10.9494  -16.5965 C   0  0  0  0  0  0  0  0  0  0  0  0
   18.9487   -9.6362  -16.0575 C   0  0  0  0  0  0  0  0  0  0  0  0
   18.7067   -9.5368  -14.8288 O   0  0  0  0  0  0  0  0  0  0  0  0
   18.8514   -8.4803  -16.8154 O   0  0  0  0  0  0  0  0  0  0  0  0
  2  1  1  1
  3  2  1  0
  4  2  1  0
  4  6  1  0
  4  5  1  1
  6  7  2  0
  8  6  1  0
  8  9  1  0
  9 10  1  6
 10 11  1  0
 11 19  1  0
 12 13  1  0
 12 11  2  0
 13 14  1  0
 14 19  2  0
 14 15  1  0
 15 16  2  0
 16 17  1  0
 18 17  2  0
 19 18  1  0
 20  9  1  0
 20 22  1  0
 21 20  2  0
 23 24  1  0
 23 22  1  0
 24 26  1  0
 25 24  2  0
M  END
$$$$
