TWG.pdb
     RDKit          3D

 26 27  0  0  1  0  0  0  0  0999 V2000
   19.1637  -11.4759  -18.0100 C   0  0  0  0  0  0  0  0  0  0  0  0
   20.2399  -10.7327  -17.2380 C   0  0  1  0  0  0  0  0  0  0  0  0
   19.8417  -10.6224  -15.9177 O   0  0  0  0  0  0  0  0  0  0  0  0
   21.5859  -11.3521  -17.4031 C   0  0  2  0  0  0  0  0  0  0  0  0
   21.4944  -12.7079  -16.8355 N   0  0  0  0  0  0  0  0  0  0  0  0
   22.7069  -10.6097  -16.8298 C   0  0  0  0  0  0  0  0  0  0  0  0
   23.1337  -10.9127  -15.6700 O   0  0  0  0  0  0  0  0  0  0  0  0
   23.3611   -9.5524  -17.5005 N   0  0  0  0  0  0  0  0  0  0  0  0
   24.4201   -8.8102  -16.8602 C   0  0  1  0  0  0  0  0  0  0  0  0
   25.6318   -8.9209  -17.7607 C   0  0  0  0  0  0  0  0  0  0  0  0
   26.0299  -10.3452  -17.8975 C   0  0  0  0  0  0  0  0  0  0  0  0
   25.8220  -11.2046  -18.9550 C   0  0  0  0  0  0  0  0  0  0  0  0
   26.3251  -12.4169  -18.7104 N   0  0  0  0  0  0  0  0  0  0  0  0
   26.8709  -12.3639  -17.4830 C   0  0  0  0  0  0  0  0  0  0  0  0
   27.5265  -13.3582  -16.7553 C   0  0  0  0  0  0  0  0  0  0  0  0
   28.0180  -13.0766  -15.4892 C   0  0  0  0  0  0  0  0  0  0  0  0
   27.8369  -11.8038  -14.9895 C   0  0  0  0  0  0  0  0  0  0  0  0
   27.1910  -10.8110  -15.6967 C   0  0  0  0  0  0  0  0  0  0  0  0
   26.7031  -11.0976  -16.9587 C   0  0  0  0  0  0  0  0  0  0  0  0
   24.0221   -7.4106  -16.6289 C   0  0  0  0  0  0  0  0  0  0  0  0
   24.2609   -6.4843  -17.4496 O   0  0  0  0  0  0  0  0  0  0  0  0
   23.3424   -7.0724  -15.4422 N   0  0  0  0  0  0  0  0  0  0  0  0
   22.8096   -5.7346  -15.2878 C   0  0  0  0  0  0  0  0  0  0  0  0
   22.1610   -5.5128  -13.9926 C   0  0  0  0  0  0  0  0  0  0  0  0
   22.0464   -6.4837  -13.2037 O   0  0  0  0  0  0  0  0  0  0  0  0
   21.6584   -4.2929  -13.5693 O   0  0  0  0  0  0  0  0  0  0  0  0
  2  1  1  6
  3  2  1  0
  4  2  1  0
  4  6  1  0
  4  5  1  1
  6  7  2  0
  8  6  1  0
  8  9  1  0
  9 10  1  6
 10 11  1  0
 11 19  1  0
 12 13  1  0
 12 11  2  0
 13 14  1  0
 14 19  2  0
 14 15  1  0
 15 16  2  0
 16 17  1  0
 18 17  2  0
 19 18  1  0
 20  9  1  0
 20 22  1  0
 21 20  2  0
 23 24  1  0
 23 22  1  0
 24 26  1  0
 25 24  2  0
M  END
$$$$
