TWG.pdb
     RDKit          3D

 26 27  0  0  1  0  0  0  0  0999 V2000
   14.6885  -21.6960    4.3487 C   0  0  0  0  0  0  0  0  0  0  0  0
   14.8733  -21.7871    2.8441 C   0  0  1  0  0  0  0  0  0  0  0  0
   13.6333  -21.9589    2.2551 O   0  0  0  0  0  0  0  0  0  0  0  0
   15.6366  -20.6299    2.2956 C   0  0  2  0  0  0  0  0  0  0  0  0
   15.6460  -20.7916    0.8319 N   0  0  0  0  0  0  0  0  0  0  0  0
   16.9890  -20.4488    2.8198 C   0  0  0  0  0  0  0  0  0  0  0  0
   17.9822  -20.9006    2.1652 O   0  0  0  0  0  0  0  0  0  0  0  0
   17.2673  -19.7868    4.0363 N   0  0  0  0  0  0  0  0  0  0  0  0
   18.6256  -19.6046    4.4880 C   0  0  1  0  0  0  0  0  0  0  0  0
   18.6871  -18.2371    5.1339 C   0  0  0  0  0  0  0  0  0  0  0  0
   18.6930  -17.1844    4.0863 C   0  0  0  0  0  0  0  0  0  0  0  0
   17.7623  -16.1964    3.8462 C   0  0  0  0  0  0  0  0  0  0  0  0
   18.1121  -15.4321    2.8089 N   0  0  0  0  0  0  0  0  0  0  0  0
   19.2825  -15.9142    2.3561 C   0  0  0  0  0  0  0  0  0  0  0  0
   20.0752  -15.4775    1.2937 C   0  0  0  0  0  0  0  0  0  0  0  0
   21.2622  -16.1335    1.0028 C   0  0  0  0  0  0  0  0  0  0  0  0
   21.6195  -17.2100    1.7875 C   0  0  0  0  0  0  0  0  0  0  0  0
   20.8465  -17.6532    2.8405 C   0  0  0  0  0  0  0  0  0  0  0  0
   19.6639  -16.9951    3.1260 C   0  0  0  0  0  0  0  0  0  0  0  0
   19.0251  -20.6784    5.4143 C   0  0  0  0  0  0  0  0  0  0  0  0
   18.2427  -21.1738    6.2694 O   0  0  0  0  0  0  0  0  0  0  0  0
   20.3370  -21.1882    5.3569 N   0  0  0  0  0  0  0  0  0  0  0  0
   20.7311  -22.2349    6.2771 C   0  0  0  0  0  0  0  0  0  0  0  0
   21.0471  -21.7402    7.6198 C   0  0  0  0  0  0  0  0  0  0  0  0
   21.1389  -20.5000    7.7972 O   0  0  0  0  0  0  0  0  0  0  0  0
   21.2546  -22.5527    8.7229 O   0  0  0  0  0  0  0  0  0  0  0  0
  2  1  1  1
  3  2  1  0
  4  2  1  0
  4  6  1  0
  4  5  1  6
  6  7  2  0
  8  6  1  0
  8  9  1  0
  9 10  1  1
 10 11  1  0
 11 19  1  0
 12 13  1  0
 12 11  2  0
 13 14  1  0
 14 19  2  0
 14 15  1  0
 15 16  2  0
 16 17  1  0
 18 17  2  0
 19 18  1  0
 20  9  1  0
 20 22  1  0
 21 20  2  0
 23 24  1  0
 23 22  1  0
 24 26  1  0
 25 24  2  0
M  END
$$$$
