TWG.pdb
     RDKit          3D

 26 27  0  0  1  0  0  0  0  0999 V2000
   25.9506  -19.1495  -15.3175 C   0  0  0  0  0  0  0  0  0  0  0  0
   27.1648  -20.0601  -15.2621 C   0  0  1  0  0  0  0  0  0  0  0  0
   28.1373  -19.5535  -16.1055 O   0  0  0  0  0  0  0  0  0  0  0  0
   27.6439  -20.2817  -13.8678 C   0  0  2  0  0  0  0  0  0  0  0  0
   28.9570  -20.9393  -13.9769 N   0  0  0  0  0  0  0  0  0  0  0  0
   26.7442  -21.0314  -12.9932 C   0  0  0  0  0  0  0  0  0  0  0  0
   26.9386  -22.2755  -12.8097 O   0  0  0  0  0  0  0  0  0  0  0  0
   25.6472  -20.4456  -12.3231 N   0  0  0  0  0  0  0  0  0  0  0  0
   24.7798  -21.2387  -11.4860 C   0  0  1  0  0  0  0  0  0  0  0  0
   24.4817  -20.4044  -10.2587 C   0  0  0  0  0  0  0  0  0  0  0  0
   25.7287  -19.7627   -9.7700 C   0  0  0  0  0  0  0  0  0  0  0  0
   26.4073  -18.6814  -10.2899 C   0  0  0  0  0  0  0  0  0  0  0  0
   27.4966  -18.3931   -9.5736 N   0  0  0  0  0  0  0  0  0  0  0  0
   27.5431  -19.2878   -8.5714 C   0  0  0  0  0  0  0  0  0  0  0  0
   28.4763  -19.4263   -7.5428 C   0  0  0  0  0  0  0  0  0  0  0  0
   28.3235  -20.4352   -6.6033 C   0  0  0  0  0  0  0  0  0  0  0  0
   27.2374  -21.2768   -6.7235 C   0  0  0  0  0  0  0  0  0  0  0  0
   26.3071  -21.1524   -7.7344 C   0  0  0  0  0  0  0  0  0  0  0  0
   26.4646  -20.1445   -8.6684 C   0  0  0  0  0  0  0  0  0  0  0  0
   23.5557  -21.6272  -12.2081 C   0  0  0  0  0  0  0  0  0  0  0  0
   22.6381  -22.3142  -11.6839 O   0  0  0  0  0  0  0  0  0  0  0  0
   23.3845  -21.2218  -13.5463 N   0  0  0  0  0  0  0  0  0  0  0  0
   22.2181  -21.6700  -14.2785 C   0  0  0  0  0  0  0  0  0  0  0  0
   21.0556  -20.7933  -14.1135 C   0  0  0  0  0  0  0  0  0  0  0  0
   20.3448  -20.9245  -13.0860 O   0  0  0  0  0  0  0  0  0  0  0  0
   20.6787  -19.8164  -15.0210 O   0  0  0  0  0  0  0  0  0  0  0  0
  2  1  1  1
  3  2  1  0
  4  2  1  0
  4  6  1  0
  4  5  1  6
  6  7  2  0
  8  6  1  0
  8  9  1  0
  9 10  1  1
 10 11  1  0
 11 19  1  0
 12 13  1  0
 12 11  2  0
 13 14  1  0
 14 19  2  0
 14 15  1  0
 15 16  2  0
 16 17  1  0
 18 17  2  0
 19 18  1  0
 20  9  1  0
 20 22  1  0
 21 20  2  0
 23 24  1  0
 23 22  1  0
 24 26  1  0
 25 24  2  0
M  END
$$$$
