TWG.pdb
     RDKit          3D

 26 27  0  0  1  0  0  0  0  0999 V2000
   21.2601  -18.2915  -17.1476 C   0  0  0  0  0  0  0  0  0  0  0  0
   22.5669  -18.6005  -16.4382 C   0  0  1  0  0  0  0  0  0  0  0  0
   23.6150  -18.3006  -17.2900 O   0  0  0  0  0  0  0  0  0  0  0  0
   22.6661  -17.9247  -15.1130 C   0  0  2  0  0  0  0  0  0  0  0  0
   22.5613  -16.4789  -15.3724 N   0  0  0  0  0  0  0  0  0  0  0  0
   23.8542  -18.2387  -14.3215 C   0  0  0  0  0  0  0  0  0  0  0  0
   24.8536  -17.4516  -14.3494 O   0  0  0  0  0  0  0  0  0  0  0  0
   23.9628  -19.3886  -13.5082 N   0  0  0  0  0  0  0  0  0  0  0  0
   25.2211  -19.7531  -12.9031 C   0  0  1  0  0  0  0  0  0  0  0  0
   24.9115  -20.8085  -11.8633 C   0  0  0  0  0  0  0  0  0  0  0  0
   26.1393  -21.1332  -11.0932 C   0  0  0  0  0  0  0  0  0  0  0  0
   27.0763  -22.1157  -11.3315 C   0  0  0  0  0  0  0  0  0  0  0  0
   28.0476  -22.1020  -10.4155 N   0  0  0  0  0  0  0  0  0  0  0  0
   27.7552  -21.1047   -9.5628 C   0  0  0  0  0  0  0  0  0  0  0  0
   28.4463  -20.6677   -8.4317 C   0  0  0  0  0  0  0  0  0  0  0  0
   27.9546  -19.6031   -7.6908 C   0  0  0  0  0  0  0  0  0  0  0  0
   26.7822  -19.0075   -8.1070 C   0  0  0  0  0  0  0  0  0  0  0  0
   26.0882  -19.4284   -9.2224 C   0  0  0  0  0  0  0  0  0  0  0  0
   26.5833  -20.4903   -9.9574 C   0  0  0  0  0  0  0  0  0  0  0  0
   26.1782  -20.2309  -13.9163 C   0  0  0  0  0  0  0  0  0  0  0  0
   25.8296  -20.8865  -14.9348 O   0  0  0  0  0  0  0  0  0  0  0  0
   27.5498  -19.9519  -13.7573 N   0  0  0  0  0  0  0  0  0  0  0  0
   28.4689  -20.2853  -14.8258 C   0  0  0  0  0  0  0  0  0  0  0  0
   28.4493  -21.7051  -15.1879 C   0  0  0  0  0  0  0  0  0  0  0  0
   29.3028  -22.1285  -16.0066 O   0  0  0  0  0  0  0  0  0  0  0  0
   27.5451  -22.6271  -14.6854 O   0  0  0  0  0  0  0  0  0  0  0  0
  2  1  1  6
  3  2  1  0
  4  2  1  0
  4  6  1  0
  4  5  1  6
  6  7  2  0
  8  6  1  0
  8  9  1  0
  9 10  1  1
 10 11  1  0
 11 19  1  0
 12 13  1  0
 12 11  2  0
 13 14  1  0
 14 19  2  0
 14 15  1  0
 15 16  2  0
 16 17  1  0
 18 17  2  0
 19 18  1  0
 20  9  1  0
 20 22  1  0
 21 20  2  0
 23 24  1  0
 23 22  1  0
 24 26  1  0
 25 24  2  0
M  END
$$$$
