TWG.pdb
     RDKit          3D

 26 27  0  0  1  0  0  0  0  0999 V2000
   22.9712  -20.2699  -12.5939 C   0  0  0  0  0  0  0  0  0  0  0  0
   24.1187  -20.9842  -13.2864 C   0  0  1  0  0  0  0  0  0  0  0  0
   24.0867  -20.6714  -14.6336 O   0  0  0  0  0  0  0  0  0  0  0  0
   25.4332  -20.7024  -12.6419 C   0  0  2  0  0  0  0  0  0  0  0  0
   26.4496  -21.4089  -13.4396 N   0  0  0  0  0  0  0  0  0  0  0  0
   25.5375  -21.0434  -11.2244 C   0  0  0  0  0  0  0  0  0  0  0  0
   25.8755  -22.2223  -10.8851 O   0  0  0  0  0  0  0  0  0  0  0  0
   25.2808  -20.1228  -10.1841 N   0  0  0  0  0  0  0  0  0  0  0  0
   25.4296  -20.5059   -8.8009 C   0  0  1  0  0  0  0  0  0  0  0  0
   26.2322  -19.4105   -8.1324 C   0  0  0  0  0  0  0  0  0  0  0  0
   27.5289  -19.9550   -7.6551 C   0  0  0  0  0  0  0  0  0  0  0  0
   28.4229  -20.7685   -8.3177 C   0  0  0  0  0  0  0  0  0  0  0  0
   29.4843  -21.0537   -7.5595 N   0  0  0  0  0  0  0  0  0  0  0  0
   29.2954  -20.4264   -6.3856 C   0  0  0  0  0  0  0  0  0  0  0  0
   30.1060  -20.3975   -5.2498 C   0  0  0  0  0  0  0  0  0  0  0  0
   29.7082  -19.6729   -4.1360 C   0  0  0  0  0  0  0  0  0  0  0  0
   28.5070  -18.9976   -4.1944 C   0  0  0  0  0  0  0  0  0  0  0  0
   27.6953  -19.0169   -5.3096 C   0  0  0  0  0  0  0  0  0  0  0  0
   28.0971  -19.7411   -6.4173 C   0  0  0  0  0  0  0  0  0  0  0  0
   24.1172  -20.7062   -8.1619 C   0  0  0  0  0  0  0  0  0  0  0  0
   23.1829  -19.8633   -8.2336 O   0  0  0  0  0  0  0  0  0  0  0  0
   23.8762  -21.8877   -7.4335 N   0  0  0  0  0  0  0  0  0  0  0  0
   22.6505  -22.0129   -6.6723 C   0  0  0  0  0  0  0  0  0  0  0  0
   21.4691  -22.2482   -7.5068 C   0  0  0  0  0  0  0  0  0  0  0  0
   21.6191  -22.3306   -8.7513 O   0  0  0  0  0  0  0  0  0  0  0  0
   20.1811  -22.3885   -7.0156 O   0  0  0  0  0  0  0  0  0  0  0  0
  2  1  1  1
  3  2  1  0
  4  2  1  0
  4  6  1  0
  4  5  1  6
  6  7  2  0
  8  6  1  0
  8  9  1  0
  9 10  1  1
 10 11  1  0
 11 19  1  0
 12 13  1  0
 12 11  2  0
 13 14  1  0
 14 19  2  0
 14 15  1  0
 15 16  2  0
 16 17  1  0
 18 17  2  0
 19 18  1  0
 20  9  1  0
 20 22  1  0
 21 20  2  0
 23 24  1  0
 23 22  1  0
 24 26  1  0
 25 24  2  0
M  END
$$$$
