TWG.pdb
     RDKit          3D

 26 27  0  0  1  0  0  0  0  0999 V2000
   22.7772  -21.1644  -15.7486 C   0  0  0  0  0  0  0  0  0  0  0  0
   22.0519  -20.1742  -14.8542 C   0  0  1  0  0  0  0  0  0  0  0  0
   20.6903  -20.3046  -15.0619 O   0  0  0  0  0  0  0  0  0  0  0  0
   22.4502  -20.3054  -13.4236 C   0  0  2  0  0  0  0  0  0  0  0  0
   21.6245  -19.3464  -12.6704 N   0  0  0  0  0  0  0  0  0  0  0  0
   23.8718  -20.1249  -13.1356 C   0  0  0  0  0  0  0  0  0  0  0  0
   24.3902  -18.9669  -13.2319 O   0  0  0  0  0  0  0  0  0  0  0  0
   24.7249  -21.1818  -12.7471 N   0  0  0  0  0  0  0  0  0  0  0  0
   26.1592  -21.0268  -12.7773 C   0  0  1  0  0  0  0  0  0  0  0  0
   26.7069  -21.8429  -11.6261 C   0  0  0  0  0  0  0  0  0  0  0  0
   26.4248  -21.1544  -10.3408 C   0  0  0  0  0  0  0  0  0  0  0  0
   25.2136  -20.7459   -9.8248 C   0  0  0  0  0  0  0  0  0  0  0  0
   25.3588  -20.1561   -8.6358 N   0  0  0  0  0  0  0  0  0  0  0  0
   26.6742  -20.1722   -8.3590 C   0  0  0  0  0  0  0  0  0  0  0  0
   27.3562  -19.6853   -7.2429 C   0  0  0  0  0  0  0  0  0  0  0  0
   28.7352  -19.8130   -7.1665 C   0  0  0  0  0  0  0  0  0  0  0  0
   29.3905  -20.4264   -8.2137 C   0  0  0  0  0  0  0  0  0  0  0  0
   28.7302  -20.9124   -9.3231 C   0  0  0  0  0  0  0  0  0  0  0  0
   27.3551  -20.7822   -9.3937 C   0  0  0  0  0  0  0  0  0  0  0  0
   26.7114  -21.4514  -14.0756 C   0  0  0  0  0  0  0  0  0  0  0  0
   26.4866  -22.5846  -14.5797 O   0  0  0  0  0  0  0  0  0  0  0  0
   27.5300  -20.5644  -14.8019 N   0  0  0  0  0  0  0  0  0  0  0  0
   27.8744  -20.8800  -16.1728 C   0  0  0  0  0  0  0  0  0  0  0  0
   28.8769  -21.9422  -16.2908 C   0  0  0  0  0  0  0  0  0  0  0  0
   29.1650  -22.6131  -15.2686 O   0  0  0  0  0  0  0  0  0  0  0  0
   29.5390  -22.2646  -17.4646 O   0  0  0  0  0  0  0  0  0  0  0  0
  2  1  1  6
  3  2  1  0
  4  2  1  0
  4  6  1  0
  4  5  1  1
  6  7  2  0
  8  6  1  0
  8  9  1  0
  9 10  1  1
 10 11  1  0
 11 19  1  0
 12 13  1  0
 12 11  2  0
 13 14  1  0
 14 19  2  0
 14 15  1  0
 15 16  2  0
 16 17  1  0
 18 17  2  0
 19 18  1  0
 20  9  1  0
 20 22  1  0
 21 20  2  0
 23 24  1  0
 23 22  1  0
 24 26  1  0
 25 24  2  0
M  END
$$$$
