TWG.pdb
     RDKit          3D

 26 27  0  0  1  0  0  0  0  0999 V2000
   27.0549  -22.7361  -18.0808 C   0  0  0  0  0  0  0  0  0  0  0  0
   26.3716  -22.3432  -16.7826 C   0  0  1  0  0  0  0  0  0  0  0  0
   25.0277  -22.1330  -17.0354 O   0  0  0  0  0  0  0  0  0  0  0  0
   26.6244  -23.3247  -15.6894 C   0  0  2  0  0  0  0  0  0  0  0  0
   26.0749  -24.6117  -16.1481 N   0  0  0  0  0  0  0  0  0  0  0  0
   26.1047  -22.9634  -14.3718 C   0  0  0  0  0  0  0  0  0  0  0  0
   25.0317  -23.5020  -13.9504 O   0  0  0  0  0  0  0  0  0  0  0  0
   26.7360  -22.0320  -13.5177 N   0  0  0  0  0  0  0  0  0  0  0  0
   26.1257  -21.6360  -12.2715 C   0  0  1  0  0  0  0  0  0  0  0  0
   27.2326  -21.0695  -11.4084 C   0  0  0  0  0  0  0  0  0  0  0  0
   26.6851  -20.6618  -10.0894 C   0  0  0  0  0  0  0  0  0  0  0  0
   25.3697  -20.4993   -9.7107 C   0  0  0  0  0  0  0  0  0  0  0  0
   25.2681  -20.1201   -8.4345 N   0  0  0  0  0  0  0  0  0  0  0  0
   26.5232  -20.0298   -7.9613 C   0  0  0  0  0  0  0  0  0  0  0  0
   26.9725  -19.6743   -6.6887 C   0  0  0  0  0  0  0  0  0  0  0  0
   28.3329  -19.6494   -6.4188 C   0  0  0  0  0  0  0  0  0  0  0  0
   29.2037  -19.9823   -7.4353 C   0  0  0  0  0  0  0  0  0  0  0  0
   28.7746  -20.3355   -8.6978 C   0  0  0  0  0  0  0  0  0  0  0  0
   27.4170  -20.3586   -8.9611 C   0  0  0  0  0  0  0  0  0  0  0  0
   25.0409  -20.6649  -12.4972 C   0  0  0  0  0  0  0  0  0  0  0  0
   25.2020  -19.5925  -13.1397 O   0  0  0  0  0  0  0  0  0  0  0  0
   23.7577  -20.9293  -11.9795 N   0  0  0  0  0  0  0  0  0  0  0  0
   22.6855  -19.9883  -12.2290 C   0  0  0  0  0  0  0  0  0  0  0  0
   21.7803  -20.4090  -13.3018 C   0  0  0  0  0  0  0  0  0  0  0  0
   20.7480  -19.7270  -13.5192 O   0  0  0  0  0  0  0  0  0  0  0  0
   21.9836  -21.5197  -14.1048 O   0  0  0  0  0  0  0  0  0  0  0  0
  2  1  1  6
  3  2  1  0
  4  2  1  0
  4  6  1  0
  4  5  1  6
  6  7  2  0
  8  6  1  0
  8  9  1  0
  9 10  1  1
 10 11  1  0
 11 19  1  0
 12 13  1  0
 12 11  2  0
 13 14  1  0
 14 19  2  0
 14 15  1  0
 15 16  2  0
 16 17  1  0
 18 17  2  0
 19 18  1  0
 20  9  1  0
 20 22  1  0
 21 20  2  0
 23 24  1  0
 23 22  1  0
 24 26  1  0
 25 24  2  0
M  END
$$$$
