YYG.pdb
     RDKit          3D

 29 30  0  0  1  0  0  0  0  0999 V2000
    5.1999  -24.0416   24.9364 O   0  0  0  0  0  0  0  0  0  0  0  0
    5.8059  -22.7868   24.7659 C   0  0  0  0  0  0  0  0  0  0  0  0
    6.9835  -22.4567   25.3765 C   0  0  0  0  0  0  0  0  0  0  0  0
    7.5440  -21.2212   25.1862 C   0  0  0  0  0  0  0  0  0  0  0  0
    6.9263  -20.3013   24.3787 C   0  0  0  0  0  0  0  0  0  0  0  0
    7.4895  -18.9691   24.1645 C   0  0  0  0  0  0  0  0  0  0  0  0
    7.6107  -18.1305   25.3852 C   0  0  2  0  0  0  0  0  0  0  0  0
    6.3751  -18.0232   26.1270 N   0  0  0  0  0  0  0  0  0  0  0  0
    8.2519  -16.8241   25.1316 C   0  0  0  0  0  0  0  0  0  0  0  0
    7.6231  -15.7508   25.0226 O   0  0  0  0  0  0  0  0  0  0  0  0
    5.7421  -20.6447   23.7692 C   0  0  0  0  0  0  0  0  0  0  0  0
    5.1720  -21.8682   23.9480 C   0  0  0  0  0  0  0  0  0  0  0  0
    9.8439  -15.2775   31.0670 O   0  0  0  0  0  0  0  0  0  0  0  0
   10.2535  -15.2912   29.7327 C   0  0  0  0  0  0  0  0  0  0  0  0
   10.9546  -16.3852   29.2956 C   0  0  0  0  0  0  0  0  0  0  0  0
   11.3756  -16.4360   27.9849 C   0  0  0  0  0  0  0  0  0  0  0  0
   11.0864  -15.3834   27.1243 C   0  0  0  0  0  0  0  0  0  0  0  0
   11.5354  -15.4824   25.7344 C   0  0  0  0  0  0  0  0  0  0  0  0
   10.4397  -15.6176   24.7156 C   0  0  2  0  0  0  0  0  0  0  0  0
    9.6679  -16.7872   24.9994 N   0  0  0  0  0  0  0  0  0  0  0  0
   11.1180  -15.6901   23.3853 C   0  0  0  0  0  0  0  0  0  0  0  0
   11.7680  -14.6650   23.0546 O   0  0  0  0  0  0  0  0  0  0  0  0
   10.3782  -14.2773   27.5660 C   0  0  0  0  0  0  0  0  0  0  0  0
    9.9543  -14.2287   28.8905 C   0  0  0  0  0  0  0  0  0  0  0  0
   11.0701  -16.7908   22.5255 N   0  0  0  0  0  0  0  0  0  0  0  0
   11.8208  -16.7857   21.2866 C   0  0  0  0  0  0  0  0  0  0  0  0
   11.6941  -18.1291   20.6258 C   0  0  0  0  0  0  0  0  0  0  0  0
   12.0568  -18.3368   19.3160 O   0  0  0  0  0  0  0  0  0  0  0  0
   11.2470  -19.0990   21.2720 O   0  0  0  0  0  0  0  0  0  0  0  0
  2  3  2  0
  2  1  1  0
  4  3  1  0
  5  4  2  0
  6  5  1  0
  7  6  1  0
  7  8  1  6
  9  7  1  0
  9 10  2  0
 11  5  1  0
 11 12  2  0
 12  2  1  0
 13 14  1  0
 14 15  2  0
 15 16  1  0
 17 16  2  0
 17 18  1  0
 19 18  1  1
 19 20  1  0
 20  9  1  0
 21 25  1  0
 21 19  1  0
 22 21  2  0
 23 17  1  0
 24 23  2  0
 24 14  1  0
 26 25  1  0
 27 26  1  0
 28 27  1  0
 29 27  2  0
M  END
$$$$
