YYG.pdb
     RDKit          3D

 29 30  0  0  1  0  0  0  0  0999 V2000
    6.5832  -14.1347   15.4959 O   0  0  0  0  0  0  0  0  0  0  0  0
    7.3349  -14.0896   16.6806 C   0  0  0  0  0  0  0  0  0  0  0  0
    8.5527  -14.6997   16.7952 C   0  0  0  0  0  0  0  0  0  0  0  0
    9.2567  -14.6340   17.9686 C   0  0  0  0  0  0  0  0  0  0  0  0
    8.7439  -13.9533   19.0426 C   0  0  0  0  0  0  0  0  0  0  0  0
    9.4619  -13.8746   20.3139 C   0  0  0  0  0  0  0  0  0  0  0  0
    9.4676  -15.1262   21.1148 C   0  0  2  0  0  0  0  0  0  0  0  0
    8.1483  -15.6830   21.3103 N   0  0  0  0  0  0  0  0  0  0  0  0
   10.2413  -15.0109   22.3679 C   0  0  0  0  0  0  0  0  0  0  0  0
   11.4354  -14.6491   22.4166 O   0  0  0  0  0  0  0  0  0  0  0  0
    7.5178  -13.3430   18.9156 C   0  0  0  0  0  0  0  0  0  0  0  0
    6.8057  -13.3988   17.7564 C   0  0  0  0  0  0  0  0  0  0  0  0
   10.8845  -15.0036   31.2411 O   0  0  0  0  0  0  0  0  0  0  0  0
   10.4593  -15.0788   29.9137 C   0  0  0  0  0  0  0  0  0  0  0  0
   10.1533  -16.3186   29.4151 C   0  0  0  0  0  0  0  0  0  0  0  0
    9.7293  -16.4337   28.1094 C   0  0  0  0  0  0  0  0  0  0  0  0
    9.6169  -15.2978   27.3160 C   0  0  0  0  0  0  0  0  0  0  0  0
    9.1461  -15.4590   25.9392 C   0  0  0  0  0  0  0  0  0  0  0  0
   10.2038  -15.3244   24.8809 C   0  0  2  0  0  0  0  0  0  0  0  0
    9.5893  -15.3351   23.5900 N   0  0  0  0  0  0  0  0  0  0  0  0
   11.1363  -16.4761   25.0788 C   0  0  0  0  0  0  0  0  0  0  0  0
   12.2716  -16.1792   25.5322 O   0  0  0  0  0  0  0  0  0  0  0  0
    9.9266  -14.0446   27.8198 C   0  0  0  0  0  0  0  0  0  0  0  0
   10.3546  -13.9315   29.1390 C   0  0  0  0  0  0  0  0  0  0  0  0
   10.8262  -17.8096   24.7984 N   0  0  0  0  0  0  0  0  0  0  0  0
   11.8509  -18.8310   24.8720 C   0  0  0  0  0  0  0  0  0  0  0  0
   11.5685  -19.7317   26.0408 C   0  0  0  0  0  0  0  0  0  0  0  0
   12.4264  -20.7405   26.4105 O   0  0  0  0  0  0  0  0  0  0  0  0
   10.5260  -19.5734   26.7090 O   0  0  0  0  0  0  0  0  0  0  0  0
  2  3  2  0
  2  1  1  0
  4  3  1  0
  5  4  2  0
  6  5  1  0
  7  6  1  0
  7  8  1  1
  9  7  1  0
  9 10  2  0
 11  5  1  0
 11 12  2  0
 12  2  1  0
 13 14  1  0
 14 15  2  0
 15 16  1  0
 17 16  2  0
 17 18  1  0
 19 18  1  1
 19 20  1  0
 20  9  1  0
 21 25  1  0
 21 19  1  0
 22 21  2  0
 23 17  1  0
 24 23  2  0
 24 14  1  0
 26 25  1  0
 27 26  1  0
 28 27  1  0
 29 27  2  0
M  END
$$$$
