YYG.pdb
     RDKit          3D

 29 30  0  0  1  0  0  0  0  0999 V2000
    6.8802  -14.5543   15.3893 O   0  0  0  0  0  0  0  0  0  0  0  0
    7.4332  -14.3722   16.6668 C   0  0  0  0  0  0  0  0  0  0  0  0
    6.9386  -13.4550   17.5515 C   0  0  0  0  0  0  0  0  0  0  0  0
    7.5058  -13.3058   18.7895 C   0  0  0  0  0  0  0  0  0  0  0  0
    8.5788  -14.0779   19.1535 C   0  0  0  0  0  0  0  0  0  0  0  0
    9.2169  -13.9355   20.4613 C   0  0  0  0  0  0  0  0  0  0  0  0
    9.4317  -15.2060   21.2014 C   0  0  2  0  0  0  0  0  0  0  0  0
    8.2270  -15.9912   21.3458 N   0  0  0  0  0  0  0  0  0  0  0  0
   10.1616  -15.0220   22.4724 C   0  0  0  0  0  0  0  0  0  0  0  0
   11.3078  -14.5330   22.5512 O   0  0  0  0  0  0  0  0  0  0  0  0
    9.0677  -14.9977   18.2553 C   0  0  0  0  0  0  0  0  0  0  0  0
    8.5153  -15.1583   17.0212 C   0  0  0  0  0  0  0  0  0  0  0  0
   10.6987  -15.3077   31.3535 O   0  0  0  0  0  0  0  0  0  0  0  0
   10.2920  -15.2697   30.0188 C   0  0  0  0  0  0  0  0  0  0  0  0
    9.8705  -16.4438   29.4505 C   0  0  0  0  0  0  0  0  0  0  0  0
    9.4606  -16.4467   28.1353 C   0  0  0  0  0  0  0  0  0  0  0  0
    9.4786  -15.2656   27.4027 C   0  0  0  0  0  0  0  0  0  0  0  0
    9.0188  -15.3058   26.0134 C   0  0  0  0  0  0  0  0  0  0  0  0
   10.1074  -15.3726   24.9802 C   0  0  2  0  0  0  0  0  0  0  0  0
    9.5232  -15.4299   23.6765 N   0  0  0  0  0  0  0  0  0  0  0  0
   10.9083  -16.5936   25.3011 C   0  0  0  0  0  0  0  0  0  0  0  0
   11.5993  -16.5252   26.3501 O   0  0  0  0  0  0  0  0  0  0  0  0
    9.9052  -14.0788   27.9767 C   0  0  0  0  0  0  0  0  0  0  0  0
   10.3187  -14.0789   29.3054 C   0  0  0  0  0  0  0  0  0  0  0  0
   10.9289  -17.7584   24.5292 N   0  0  0  0  0  0  0  0  0  0  0  0
   11.7103  -18.9029   24.9511 C   0  0  0  0  0  0  0  0  0  0  0  0
   13.0417  -18.8764   24.2555 C   0  0  0  0  0  0  0  0  0  0  0  0
   13.3606  -17.9177   23.3231 O   0  0  0  0  0  0  0  0  0  0  0  0
   13.8980  -19.7452   24.5205 O   0  0  0  0  0  0  0  0  0  0  0  0
  2  3  2  0
  2  1  1  0
  4  3  1  0
  5  4  2  0
  6  5  1  0
  7  6  1  0
  7  8  1  1
  9  7  1  0
  9 10  2  0
 11  5  1  0
 11 12  2  0
 12  2  1  0
 13 14  1  0
 14 15  2  0
 15 16  1  0
 17 16  2  0
 17 18  1  0
 19 18  1  1
 19 20  1  0
 20  9  1  0
 21 25  1  0
 21 19  1  0
 22 21  2  0
 23 17  1  0
 24 23  2  0
 24 14  1  0
 26 25  1  0
 27 26  1  0
 28 27  1  0
 29 27  2  0
M  END
$$$$
