YYG.pdb
     RDKit          3D

 29 30  0  0  1  0  0  0  0  0999 V2000
    7.3483  -14.2566   15.7270 O   0  0  0  0  0  0  0  0  0  0  0  0
    7.6838  -14.2543   17.0901 C   0  0  0  0  0  0  0  0  0  0  0  0
    7.9545  -15.4050   17.7764 C   0  0  0  0  0  0  0  0  0  0  0  0
    8.2778  -15.3624   19.1070 C   0  0  0  0  0  0  0  0  0  0  0  0
    8.3328  -14.1606   19.7646 C   0  0  0  0  0  0  0  0  0  0  0  0
    8.6610  -14.0798   21.1872 C   0  0  0  0  0  0  0  0  0  0  0  0
    9.0605  -15.3648   21.8174 C   0  0  2  0  0  0  0  0  0  0  0  0
    8.0124  -16.3597   21.7952 N   0  0  0  0  0  0  0  0  0  0  0  0
    9.6704  -15.1928   23.1518 C   0  0  0  0  0  0  0  0  0  0  0  0
   10.7167  -14.5436   23.3593 O   0  0  0  0  0  0  0  0  0  0  0  0
    8.0588  -13.0093   19.0638 C   0  0  0  0  0  0  0  0  0  0  0  0
    7.7360  -13.0345   17.7413 C   0  0  0  0  0  0  0  0  0  0  0  0
    5.7110  -10.6975   26.7453 O   0  0  0  0  0  0  0  0  0  0  0  0
    6.3231  -11.9498   26.6716 C   0  0  0  0  0  0  0  0  0  0  0  0
    7.5995  -12.0615   27.1588 C   0  0  0  0  0  0  0  0  0  0  0  0
    8.2370  -13.2815   27.1045 C   0  0  0  0  0  0  0  0  0  0  0  0
    7.5827  -14.3801   26.5593 C   0  0  0  0  0  0  0  0  0  0  0  0
    8.2868  -15.6634   26.5355 C   0  0  0  0  0  0  0  0  0  0  0  0
    9.4769  -15.7239   25.6207 C   0  0  2  0  0  0  0  0  0  0  0  0
    9.0309  -15.8062   24.2647 N   0  0  0  0  0  0  0  0  0  0  0  0
   10.2592  -16.9276   26.0383 C   0  0  0  0  0  0  0  0  0  0  0  0
   10.8360  -16.8361   27.1525 O   0  0  0  0  0  0  0  0  0  0  0  0
    6.2927  -14.2672   26.0663 C   0  0  0  0  0  0  0  0  0  0  0  0
    5.6513  -13.0337   26.1225 C   0  0  0  0  0  0  0  0  0  0  0  0
   10.3785  -18.1001   25.2874 N   0  0  0  0  0  0  0  0  0  0  0  0
   11.1870  -19.2006   25.7711 C   0  0  0  0  0  0  0  0  0  0  0  0
   10.5261  -19.8079   26.9759 C   0  0  0  0  0  0  0  0  0  0  0  0
    9.2891  -19.3989   27.4152 O   0  0  0  0  0  0  0  0  0  0  0  0
   11.1043  -20.7140   27.6105 O   0  0  0  0  0  0  0  0  0  0  0  0
  2  3  2  0
  2  1  1  0
  4  3  1  0
  5  4  2  0
  6  5  1  0
  7  6  1  0
  7  8  1  1
  9  7  1  0
  9 10  2  0
 11  5  1  0
 11 12  2  0
 12  2  1  0
 13 14  1  0
 14 15  2  0
 15 16  1  0
 17 16  2  0
 17 18  1  0
 19 18  1  1
 19 20  1  0
 20  9  1  0
 21 25  1  0
 21 19  1  0
 22 21  2  0
 23 17  1  0
 24 23  2  0
 24 14  1  0
 26 25  1  0
 27 26  1  0
 28 27  1  0
 29 27  2  0
M  END
$$$$
