YYG.pdb
     RDKit          3D

 29 30  0  0  1  0  0  0  0  0999 V2000
    5.9715  -12.5967   18.3803 O   0  0  0  0  0  0  0  0  0  0  0  0
    7.1175  -13.2495   18.8612 C   0  0  0  0  0  0  0  0  0  0  0  0
    7.6256  -13.0079   20.1071 C   0  0  0  0  0  0  0  0  0  0  0  0
    8.7468  -13.6646   20.5410 C   0  0  0  0  0  0  0  0  0  0  0  0
    9.3719  -14.5732   19.7265 C   0  0  0  0  0  0  0  0  0  0  0  0
   10.5779  -15.2817   20.1523 C   0  0  0  0  0  0  0  0  0  0  0  0
   10.3554  -16.3740   21.1349 C   0  0  2  0  0  0  0  0  0  0  0  0
    8.9751  -16.7951   21.2150 N   0  0  0  0  0  0  0  0  0  0  0  0
   10.9568  -16.0990   22.4558 C   0  0  0  0  0  0  0  0  0  0  0  0
   12.1580  -15.8029   22.6245 O   0  0  0  0  0  0  0  0  0  0  0  0
    8.8515  -14.8085   18.4752 C   0  0  0  0  0  0  0  0  0  0  0  0
    7.7380  -14.1643   18.0290 C   0  0  0  0  0  0  0  0  0  0  0  0
   10.5304  -14.4966   31.1563 O   0  0  0  0  0  0  0  0  0  0  0  0
   10.2298  -14.8208   29.8323 C   0  0  0  0  0  0  0  0  0  0  0  0
   10.1322  -13.7903   28.9335 C   0  0  0  0  0  0  0  0  0  0  0  0
    9.8377  -14.0702   27.6171 C   0  0  0  0  0  0  0  0  0  0  0  0
    9.6439  -15.3871   27.2166 C   0  0  0  0  0  0  0  0  0  0  0  0
    9.3502  -15.6454   25.8059 C   0  0  0  0  0  0  0  0  0  0  0  0
   10.5439  -15.9634   24.9510 C   0  0  2  0  0  0  0  0  0  0  0  0
   10.1195  -16.1805   23.6031 N   0  0  0  0  0  0  0  0  0  0  0  0
   11.1731  -17.1781   25.5541 C   0  0  0  0  0  0  0  0  0  0  0  0
   11.9748  -16.9580   26.4984 O   0  0  0  0  0  0  0  0  0  0  0  0
    9.7421  -16.4288   28.1251 C   0  0  0  0  0  0  0  0  0  0  0  0
   10.0396  -16.1431   29.4541 C   0  0  0  0  0  0  0  0  0  0  0  0
   10.9279  -18.4906   25.1414 N   0  0  0  0  0  0  0  0  0  0  0  0
   11.5445  -19.6035   25.8341 C   0  0  0  0  0  0  0  0  0  0  0  0
   11.2174  -20.8790   25.1106 C   0  0  0  0  0  0  0  0  0  0  0  0
   11.6151  -22.1086   25.5801 O   0  0  0  0  0  0  0  0  0  0  0  0
   10.5642  -20.8398   24.0476 O   0  0  0  0  0  0  0  0  0  0  0  0
  2  3  2  0
  2  1  1  0
  4  3  1  0
  5  4  2  0
  6  5  1  0
  7  6  1  0
  7  8  1  1
  9  7  1  0
  9 10  2  0
 11  5  1  0
 11 12  2  0
 12  2  1  0
 13 14  1  0
 14 15  2  0
 15 16  1  0
 17 16  2  0
 17 18  1  0
 19 18  1  1
 19 20  1  0
 20  9  1  0
 21 25  1  0
 21 19  1  0
 22 21  2  0
 23 17  1  0
 24 23  2  0
 24 14  1  0
 26 25  1  0
 27 26  1  0
 28 27  1  0
 29 27  2  0
M  END
$$$$
