YYG.pdb
     RDKit          3D

 29 30  0  0  1  0  0  0  0  0999 V2000
    3.8710  -20.0071   17.4505 O   0  0  0  0  0  0  0  0  0  0  0  0
    4.8113  -19.3708   18.2763 C   0  0  0  0  0  0  0  0  0  0  0  0
    4.5287  -19.0188   19.5665 C   0  0  0  0  0  0  0  0  0  0  0  0
    5.4727  -18.3984   20.3416 C   0  0  0  0  0  0  0  0  0  0  0  0
    6.7139  -18.1238   19.8280 C   0  0  0  0  0  0  0  0  0  0  0  0
    7.7403  -17.4508   20.6226 C   0  0  0  0  0  0  0  0  0  0  0  0
    7.6192  -15.9713   20.6885 C   0  0  2  0  0  0  0  0  0  0  0  0
    7.6919  -15.3359   19.3924 N   0  0  0  0  0  0  0  0  0  0  0  0
    8.5184  -15.3584   21.6876 C   0  0  0  0  0  0  0  0  0  0  0  0
    9.5717  -14.7543   21.3966 O   0  0  0  0  0  0  0  0  0  0  0  0
    6.9871  -18.4830   18.5287 C   0  0  0  0  0  0  0  0  0  0  0  0
    6.0601  -19.1002   17.7453 C   0  0  0  0  0  0  0  0  0  0  0  0
   11.0061  -13.9738   30.1020 O   0  0  0  0  0  0  0  0  0  0  0  0
   10.2876  -14.2612   28.9403 C   0  0  0  0  0  0  0  0  0  0  0  0
    9.8668  -13.2033   28.1767 C   0  0  0  0  0  0  0  0  0  0  0  0
    9.1555  -13.4465   27.0223 C   0  0  0  0  0  0  0  0  0  0  0  0
    8.8737  -14.7546   26.6461 C   0  0  0  0  0  0  0  0  0  0  0  0
    8.1308  -14.9728   25.4037 C   0  0  0  0  0  0  0  0  0  0  0  0
    8.9674  -15.0161   24.1566 C   0  0  2  0  0  0  0  0  0  0  0  0
    8.1660  -15.4667   23.0616 N   0  0  0  0  0  0  0  0  0  0  0  0
   10.1030  -15.9424   24.4520 C   0  0  0  0  0  0  0  0  0  0  0  0
   10.8814  -15.5673   25.3664 O   0  0  0  0  0  0  0  0  0  0  0  0
    9.2985  -15.8241   27.4181 C   0  0  0  0  0  0  0  0  0  0  0  0
   10.0168  -15.5754   28.5836 C   0  0  0  0  0  0  0  0  0  0  0  0
   10.3359  -17.1528   23.7934 N   0  0  0  0  0  0  0  0  0  0  0  0
   11.4610  -17.9854   24.1670 C   0  0  0  0  0  0  0  0  0  0  0  0
   12.6658  -17.5767   23.3679 C   0  0  0  0  0  0  0  0  0  0  0  0
   13.8964  -18.1627   23.5488 O   0  0  0  0  0  0  0  0  0  0  0  0
   12.5646  -16.6778   22.5077 O   0  0  0  0  0  0  0  0  0  0  0  0
  2  3  2  0
  2  1  1  0
  4  3  1  0
  5  4  2  0
  6  5  1  0
  7  6  1  0
  7  8  1  6
  9  7  1  0
  9 10  2  0
 11  5  1  0
 11 12  2  0
 12  2  1  0
 13 14  1  0
 14 15  2  0
 15 16  1  0
 17 16  2  0
 17 18  1  0
 19 18  1  1
 19 20  1  0
 20  9  1  0
 21 25  1  0
 21 19  1  0
 22 21  2  0
 23 17  1  0
 24 23  2  0
 24 14  1  0
 26 25  1  0
 27 26  1  0
 28 27  1  0
 29 27  2  0
M  END
$$$$
