YYG.pdb
     RDKit          3D

 29 30  0  0  1  0  0  0  0  0999 V2000
   11.7355  -15.3471   31.2906 O   0  0  0  0  0  0  0  0  0  0  0  0
   11.2323  -15.6130   30.0073 C   0  0  0  0  0  0  0  0  0  0  0  0
   10.7701  -14.6231   29.1857 C   0  0  0  0  0  0  0  0  0  0  0  0
   10.2857  -14.9222   27.9396 C   0  0  0  0  0  0  0  0  0  0  0  0
   10.2599  -16.2219   27.5040 C   0  0  0  0  0  0  0  0  0  0  0  0
    9.7372  -16.5781   26.1857 C   0  0  0  0  0  0  0  0  0  0  0  0
    8.2691  -16.7999   26.1269 C   0  0  2  0  0  0  0  0  0  0  0  0
    7.8455  -17.9941   26.8221 N   0  0  0  0  0  0  0  0  0  0  0  0
    7.7202  -16.6978   24.7593 C   0  0  0  0  0  0  0  0  0  0  0  0
    7.0441  -17.5942   24.2131 O   0  0  0  0  0  0  0  0  0  0  0  0
   10.7279  -17.2095   28.3391 C   0  0  0  0  0  0  0  0  0  0  0  0
   11.2125  -16.9290   29.5803 C   0  0  0  0  0  0  0  0  0  0  0  0
    6.1307  -11.2247   27.4980 O   0  0  0  0  0  0  0  0  0  0  0  0
    6.3430  -11.8743   26.2810 C   0  0  0  0  0  0  0  0  0  0  0  0
    7.5079  -11.6020   25.6114 C   0  0  0  0  0  0  0  0  0  0  0  0
    7.7540  -12.2241   24.4071 C   0  0  0  0  0  0  0  0  0  0  0  0
    6.8237  -13.1164   23.8868 C   0  0  0  0  0  0  0  0  0  0  0  0
    7.1294  -13.7707   22.6134 C   0  0  0  0  0  0  0  0  0  0  0  0
    7.4808  -15.2281   22.7104 C   0  0  2  0  0  0  0  0  0  0  0  0
    7.9808  -15.5108   24.0198 N   0  0  0  0  0  0  0  0  0  0  0  0
    8.4978  -15.4807   21.6441 C   0  0  0  0  0  0  0  0  0  0  0  0
    8.1437  -15.1722   20.4770 O   0  0  0  0  0  0  0  0  0  0  0  0
    5.6460  -13.3914   24.5632 C   0  0  0  0  0  0  0  0  0  0  0  0
    5.4002  -12.7615   25.7794 C   0  0  0  0  0  0  0  0  0  0  0  0
    9.7682  -16.0189   21.8663 N   0  0  0  0  0  0  0  0  0  0  0  0
   10.6784  -16.2291   20.7591 C   0  0  0  0  0  0  0  0  0  0  0  0
   12.0053  -16.6920   21.2905 C   0  0  0  0  0  0  0  0  0  0  0  0
   13.1145  -16.8087   20.4865 O   0  0  0  0  0  0  0  0  0  0  0  0
   12.1225  -16.9842   22.4984 O   0  0  0  0  0  0  0  0  0  0  0  0
  2  3  2  0
  2  1  1  0
  4  3  1  0
  5  4  2  0
  6  5  1  0
  7  6  1  0
  7  8  1  6
  9  7  1  0
  9 10  2  0
 11  5  1  0
 11 12  2  0
 12  2  1  0
 13 14  1  0
 14 15  2  0
 15 16  1  0
 17 16  2  0
 17 18  1  0
 19 18  1  1
 19 20  1  0
 20  9  1  0
 21 25  1  0
 21 19  1  0
 22 21  2  0
 23 17  1  0
 24 23  2  0
 24 14  1  0
 26 25  1  0
 27 26  1  0
 28 27  1  0
 29 27  2  0
M  END
$$$$
