YYG.pdb
     RDKit          3D

 29 30  0  0  1  0  0  0  0  0999 V2000
    8.4286  -11.7808   18.0672 O   0  0  0  0  0  0  0  0  0  0  0  0
    7.9741  -12.7614   18.9631 C   0  0  0  0  0  0  0  0  0  0  0  0
    7.6001  -12.4623   20.2434 C   0  0  0  0  0  0  0  0  0  0  0  0
    7.1623  -13.4472   21.0889 C   0  0  0  0  0  0  0  0  0  0  0  0
    7.0952  -14.7467   20.6569 C   0  0  0  0  0  0  0  0  0  0  0  0
    6.6457  -15.8246   21.5367 C   0  0  0  0  0  0  0  0  0  0  0  0
    7.7272  -16.6769   22.0952 C   0  0  2  0  0  0  0  0  0  0  0  0
    7.2419  -17.9168   22.6573 N   0  0  0  0  0  0  0  0  0  0  0  0
    8.6355  -15.9442   23.0009 C   0  0  0  0  0  0  0  0  0  0  0  0
    9.3155  -14.9563   22.6534 O   0  0  0  0  0  0  0  0  0  0  0  0
    7.4737  -15.0358   19.3666 C   0  0  0  0  0  0  0  0  0  0  0  0
    7.9111  -14.0686   18.5138 C   0  0  0  0  0  0  0  0  0  0  0  0
    5.8420  -10.7654   26.3114 O   0  0  0  0  0  0  0  0  0  0  0  0
    6.5502  -11.9670   26.3657 C   0  0  0  0  0  0  0  0  0  0  0  0
    7.9086  -11.8954   26.5357 C   0  0  0  0  0  0  0  0  0  0  0  0
    8.6425  -13.0598   26.5948 C   0  0  0  0  0  0  0  0  0  0  0  0
    8.0012  -14.2880   26.4823 C   0  0  0  0  0  0  0  0  0  0  0  0
    8.8132  -15.5031   26.5677 C   0  0  0  0  0  0  0  0  0  0  0  0
    9.6093  -15.8292   25.3362 C   0  0  2  0  0  0  0  0  0  0  0  0
    8.7452  -16.3930   24.3465 N   0  0  0  0  0  0  0  0  0  0  0  0
   10.6755  -16.7820   25.7728 C   0  0  0  0  0  0  0  0  0  0  0  0
   11.5428  -16.3028   26.5478 O   0  0  0  0  0  0  0  0  0  0  0  0
    6.6282  -14.3605   26.3099 C   0  0  0  0  0  0  0  0  0  0  0  0
    5.8896  -13.1827   26.2505 C   0  0  0  0  0  0  0  0  0  0  0  0
   10.7560  -18.1212   25.3815 N   0  0  0  0  0  0  0  0  0  0  0  0
   11.8174  -18.9688   25.8851 C   0  0  0  0  0  0  0  0  0  0  0  0
   11.3091  -19.7511   27.0628 C   0  0  0  0  0  0  0  0  0  0  0  0
   11.8939  -20.9283   27.4660 O   0  0  0  0  0  0  0  0  0  0  0  0
   10.3251  -19.3336   27.7075 O   0  0  0  0  0  0  0  0  0  0  0  0
  2  3  2  0
  2  1  1  0
  4  3  1  0
  5  4  2  0
  6  5  1  0
  7  6  1  0
  7  8  1  1
  9  7  1  0
  9 10  2  0
 11  5  1  0
 11 12  2  0
 12  2  1  0
 13 14  1  0
 14 15  2  0
 15 16  1  0
 17 16  2  0
 17 18  1  0
 19 18  1  1
 19 20  1  0
 20  9  1  0
 21 25  1  0
 21 19  1  0
 22 21  2  0
 23 17  1  0
 24 23  2  0
 24 14  1  0
 26 25  1  0
 27 26  1  0
 28 27  1  0
 29 27  2  0
M  END
$$$$
