YYG.pdb
     RDKit          3D

 29 30  0  0  1  0  0  0  0  0999 V2000
    5.9308  -13.2224   20.0187 O   0  0  0  0  0  0  0  0  0  0  0  0
    7.3067  -13.4633   19.8780 C   0  0  0  0  0  0  0  0  0  0  0  0
    8.0936  -12.7271   19.0370 C   0  0  0  0  0  0  0  0  0  0  0  0
    9.4330  -12.9926   18.9263 C   0  0  0  0  0  0  0  0  0  0  0  0
    9.9982  -14.0031   19.6607 C   0  0  0  0  0  0  0  0  0  0  0  0
   11.4213  -14.3224   19.5569 C   0  0  0  0  0  0  0  0  0  0  0  0
   11.8440  -14.9094   18.2589 C   0  0  2  0  0  0  0  0  0  0  0  0
   10.9933  -15.9920   17.8197 N   0  0  0  0  0  0  0  0  0  0  0  0
   13.2819  -15.2449   18.2136 C   0  0  0  0  0  0  0  0  0  0  0  0
   13.7265  -16.4094   18.2869 O   0  0  0  0  0  0  0  0  0  0  0  0
    9.1967  -14.7369   20.5040 C   0  0  0  0  0  0  0  0  0  0  0  0
    7.8641  -14.4857   20.6255 C   0  0  0  0  0  0  0  0  0  0  0  0
   21.8092  -13.1915   16.7926 O   0  0  0  0  0  0  0  0  0  0  0  0
   20.4318  -13.1941   17.0187 C   0  0  0  0  0  0  0  0  0  0  0  0
   19.8122  -11.9811   17.1737 C   0  0  0  0  0  0  0  0  0  0  0  0
   18.4534  -11.9424   17.3979 C   0  0  0  0  0  0  0  0  0  0  0  0
   17.7293  -13.1271   17.4640 C   0  0  0  0  0  0  0  0  0  0  0  0
   16.2847  -13.0438   17.6860 C   0  0  0  0  0  0  0  0  0  0  0  0
   15.6361  -14.3120   18.1635 C   0  0  2  0  0  0  0  0  0  0  0  0
   14.2148  -14.1788   18.0833 N   0  0  0  0  0  0  0  0  0  0  0  0
   16.1120  -14.5178   19.5657 C   0  0  0  0  0  0  0  0  0  0  0  0
   15.5277  -13.8278   20.4404 O   0  0  0  0  0  0  0  0  0  0  0  0
   18.3555  -14.3533   17.3078 C   0  0  0  0  0  0  0  0  0  0  0  0
   19.7281  -14.3893   17.0816 C   0  0  0  0  0  0  0  0  0  0  0  0
   17.1293  -15.3996   19.9404 N   0  0  0  0  0  0  0  0  0  0  0  0
   17.3748  -15.6826   21.3398 C   0  0  0  0  0  0  0  0  0  0  0  0
   18.5009  -16.6705   21.4546 C   0  0  0  0  0  0  0  0  0  0  0  0
   18.9937  -17.0794   22.6714 O   0  0  0  0  0  0  0  0  0  0  0  0
   19.0177  -17.1455   20.4224 O   0  0  0  0  0  0  0  0  0  0  0  0
  2  3  2  0
  2  1  1  0
  4  3  1  0
  5  4  2  0
  6  5  1  0
  7  6  1  0
  7  8  1  1
  9  7  1  0
  9 10  2  0
 11  5  1  0
 11 12  2  0
 12  2  1  0
 13 14  1  0
 14 15  2  0
 15 16  1  0
 17 16  2  0
 17 18  1  0
 19 18  1  1
 19 20  1  0
 20  9  1  0
 21 25  1  0
 21 19  1  0
 22 21  2  0
 23 17  1  0
 24 23  2  0
 24 14  1  0
 26 25  1  0
 27 26  1  0
 28 27  1  0
 29 27  2  0
M  END
$$$$
