YYG.pdb
     RDKit          3D

 29 30  0  0  1  0  0  0  0  0999 V2000
    8.1274  -14.2825   15.1093 O   0  0  0  0  0  0  0  0  0  0  0  0
    8.1192  -14.1872   16.5099 C   0  0  0  0  0  0  0  0  0  0  0  0
    7.4902  -13.1674   17.1678 C   0  0  0  0  0  0  0  0  0  0  0  0
    7.5047  -13.1082   18.5364 C   0  0  0  0  0  0  0  0  0  0  0  0
    8.1528  -14.0750   19.2612 C   0  0  0  0  0  0  0  0  0  0  0  0
    8.1996  -14.0352   20.7220 C   0  0  0  0  0  0  0  0  0  0  0  0
    7.3966  -15.0801   21.4086 C   0  0  2  0  0  0  0  0  0  0  0  0
    6.0022  -15.0677   21.0286 N   0  0  0  0  0  0  0  0  0  0  0  0
    7.6002  -15.1018   22.8715 C   0  0  0  0  0  0  0  0  0  0  0  0
    6.7601  -14.6861   23.6964 O   0  0  0  0  0  0  0  0  0  0  0  0
    8.7818  -15.0966   18.5884 C   0  0  0  0  0  0  0  0  0  0  0  0
    8.7766  -15.1699   17.2288 C   0  0  0  0  0  0  0  0  0  0  0  0
   10.4419  -14.5684   30.9008 O   0  0  0  0  0  0  0  0  0  0  0  0
    9.9835  -14.8293   29.6085 C   0  0  0  0  0  0  0  0  0  0  0  0
    9.9727  -16.1350   29.1908 C   0  0  0  0  0  0  0  0  0  0  0  0
    9.5265  -16.4328   27.9220 C   0  0  0  0  0  0  0  0  0  0  0  0
    9.0942  -15.4118   27.0835 C   0  0  0  0  0  0  0  0  0  0  0  0
    8.6108  -15.7703   25.7489 C   0  0  0  0  0  0  0  0  0  0  0  0
    9.4385  -15.2519   24.6074 C   0  0  2  0  0  0  0  0  0  0  0  0
    8.8269  -15.6227   23.3694 N   0  0  0  0  0  0  0  0  0  0  0  0
   10.7973  -15.8523   24.7753 C   0  0  0  0  0  0  0  0  0  0  0  0
   11.6421  -15.1218   25.3543 O   0  0  0  0  0  0  0  0  0  0  0  0
    9.1055  -14.0920   27.5053 C   0  0  0  0  0  0  0  0  0  0  0  0
    9.5568  -13.7942   28.7875 C   0  0  0  0  0  0  0  0  0  0  0  0
   11.1633  -17.1292   24.3409 N   0  0  0  0  0  0  0  0  0  0  0  0
   12.5555  -17.5298   24.3351 C   0  0  0  0  0  0  0  0  0  0  0  0
   12.9381  -18.0091   25.7066 C   0  0  0  0  0  0  0  0  0  0  0  0
   14.2022  -18.4666   25.9950 O   0  0  0  0  0  0  0  0  0  0  0  0
   12.0937  -17.9985   26.6259 O   0  0  0  0  0  0  0  0  0  0  0  0
  2  3  2  0
  2  1  1  0
  4  3  1  0
  5  4  2  0
  6  5  1  0
  7  6  1  0
  7  8  1  1
  9  7  1  0
  9 10  2  0
 11  5  1  0
 11 12  2  0
 12  2  1  0
 13 14  1  0
 14 15  2  0
 15 16  1  0
 17 16  2  0
 17 18  1  0
 19 18  1  1
 19 20  1  0
 20  9  1  0
 21 25  1  0
 21 19  1  0
 22 21  2  0
 23 17  1  0
 24 23  2  0
 24 14  1  0
 26 25  1  0
 27 26  1  0
 28 27  1  0
 29 27  2  0
M  END
$$$$
