YYG.pdb
     RDKit          3D

 29 30  0  0  1  0  0  0  0  0999 V2000
    7.0579  -12.9662   16.3192 O   0  0  0  0  0  0  0  0  0  0  0  0
    7.4738  -13.5034   17.5477 C   0  0  0  0  0  0  0  0  0  0  0  0
    8.1765  -14.6728   17.6317 C   0  0  0  0  0  0  0  0  0  0  0  0
    8.5645  -15.1659   18.8495 C   0  0  0  0  0  0  0  0  0  0  0  0
    8.2501  -14.4883   19.9993 C   0  0  0  0  0  0  0  0  0  0  0  0
    8.6365  -14.9928   21.3161 C   0  0  0  0  0  0  0  0  0  0  0  0
    9.4698  -16.2229   21.3019 C   0  0  2  0  0  0  0  0  0  0  0  0
    8.9889  -17.2256   20.3787 N   0  0  0  0  0  0  0  0  0  0  0  0
    9.7397  -16.7578   22.6522 C   0  0  0  0  0  0  0  0  0  0  0  0
   10.8706  -17.1111   23.0465 O   0  0  0  0  0  0  0  0  0  0  0  0
    7.5431  -13.3125   19.9025 C   0  0  0  0  0  0  0  0  0  0  0  0
    7.1501  -12.8090   18.7000 C   0  0  0  0  0  0  0  0  0  0  0  0
   10.1411  -14.2984   30.7349 O   0  0  0  0  0  0  0  0  0  0  0  0
    9.9038  -14.5962   29.3920 C   0  0  0  0  0  0  0  0  0  0  0  0
    9.1473  -13.7100   28.6699 C   0  0  0  0  0  0  0  0  0  0  0  0
    8.8918  -13.9687   27.3411 C   0  0  0  0  0  0  0  0  0  0  0  0
    9.4011  -15.1191   26.7502 C   0  0  0  0  0  0  0  0  0  0  0  0
    9.1226  -15.3499   25.3316 C   0  0  0  0  0  0  0  0  0  0  0  0
    8.7326  -16.7565   24.9762 C   0  0  2  0  0  0  0  0  0  0  0  0
    8.6468  -16.8816   23.5544 N   0  0  0  0  0  0  0  0  0  0  0  0
    7.4223  -17.0060   25.6513 C   0  0  0  0  0  0  0  0  0  0  0  0
    6.8482  -15.9845   26.1092 O   0  0  0  0  0  0  0  0  0  0  0  0
   10.1653  -16.0154   27.4800 C   0  0  0  0  0  0  0  0  0  0  0  0
   10.4218  -15.7514   28.8220 C   0  0  0  0  0  0  0  0  0  0  0  0
    6.8262  -18.2618   25.7946 N   0  0  0  0  0  0  0  0  0  0  0  0
    7.6356  -19.4632   25.7760 C   0  0  0  0  0  0  0  0  0  0  0  0
    8.1595  -19.7282   27.1590 C   0  0  0  0  0  0  0  0  0  0  0  0
    9.3455  -20.3887   27.3775 O   0  0  0  0  0  0  0  0  0  0  0  0
    7.5102  -19.3433   28.1531 O   0  0  0  0  0  0  0  0  0  0  0  0
  2  3  2  0
  2  1  1  0
  4  3  1  0
  5  4  2  0
  6  5  1  0
  7  6  1  0
  7  8  1  6
  9  7  1  0
  9 10  2  0
 11  5  1  0
 11 12  2  0
 12  2  1  0
 13 14  1  0
 14 15  2  0
 15 16  1  0
 17 16  2  0
 17 18  1  0
 19 18  1  6
 19 20  1  0
 20  9  1  0
 21 25  1  0
 21 19  1  0
 22 21  2  0
 23 17  1  0
 24 23  2  0
 24 14  1  0
 26 25  1  0
 27 26  1  0
 28 27  1  0
 29 27  2  0
M  END
$$$$
