YYG.pdb
     RDKit          3D

 29 30  0  0  1  0  0  0  0  0999 V2000
    7.2376  -13.6442   15.6687 O   0  0  0  0  0  0  0  0  0  0  0  0
    7.5476  -13.9922   16.9929 C   0  0  0  0  0  0  0  0  0  0  0  0
    7.6880  -13.0561   17.9791 C   0  0  0  0  0  0  0  0  0  0  0  0
    7.9917  -13.4347   19.2602 C   0  0  0  0  0  0  0  0  0  0  0  0
    8.1583  -14.7609   19.5657 C   0  0  0  0  0  0  0  0  0  0  0  0
    8.4962  -15.1990   20.9191 C   0  0  0  0  0  0  0  0  0  0  0  0
    9.6916  -14.5472   21.5143 C   0  0  2  0  0  0  0  0  0  0  0  0
   10.8381  -14.5488   20.6343 N   0  0  0  0  0  0  0  0  0  0  0  0
   10.0020  -15.0333   22.8743 C   0  0  0  0  0  0  0  0  0  0  0  0
   11.1612  -15.2322   23.2935 O   0  0  0  0  0  0  0  0  0  0  0  0
    8.0143  -15.6939   18.5654 C   0  0  0  0  0  0  0  0  0  0  0  0
    7.7126  -15.3342   17.2873 C   0  0  0  0  0  0  0  0  0  0  0  0
    6.4826  -10.1605   27.2507 O   0  0  0  0  0  0  0  0  0  0  0  0
    6.7476  -11.4818   26.8866 C   0  0  0  0  0  0  0  0  0  0  0  0
    8.0605  -11.8490   26.7430 C   0  0  0  0  0  0  0  0  0  0  0  0
    8.3624  -13.1446   26.3852 C   0  0  0  0  0  0  0  0  0  0  0  0
    7.3382  -14.0606   26.1749 C   0  0  0  0  0  0  0  0  0  0  0  0
    7.6999  -15.4323   25.8132 C   0  0  0  0  0  0  0  0  0  0  0  0
    9.0390  -15.5878   25.1503 C   0  0  2  0  0  0  0  0  0  0  0  0
    8.9167  -15.2941   23.7563 N   0  0  0  0  0  0  0  0  0  0  0  0
    9.4637  -16.9991   25.4011 C   0  0  0  0  0  0  0  0  0  0  0  0
    9.5173  -17.3394   26.6111 O   0  0  0  0  0  0  0  0  0  0  0  0
    6.0110  -13.6895   26.3195 C   0  0  0  0  0  0  0  0  0  0  0  0
    5.7091  -12.3801   26.6810 C   0  0  0  0  0  0  0  0  0  0  0  0
    9.7908  -17.9219   24.4039 N   0  0  0  0  0  0  0  0  0  0  0  0
   10.0285  -19.3107   24.7405 C   0  0  0  0  0  0  0  0  0  0  0  0
   11.4486  -19.4713   25.2040 C   0  0  0  0  0  0  0  0  0  0  0  0
   11.9542  -20.6855   25.6045 O   0  0  0  0  0  0  0  0  0  0  0  0
   12.2080  -18.4810   25.2328 O   0  0  0  0  0  0  0  0  0  0  0  0
  2  3  2  0
  2  1  1  0
  4  3  1  0
  5  4  2  0
  6  5  1  0
  7  6  1  0
  7  8  1  6
  9  7  1  0
  9 10  2  0
 11  5  1  0
 11 12  2  0
 12  2  1  0
 13 14  1  0
 14 15  2  0
 15 16  1  0
 17 16  2  0
 17 18  1  0
 19 18  1  1
 19 20  1  0
 20  9  1  0
 21 25  1  0
 21 19  1  0
 22 21  2  0
 23 17  1  0
 24 23  2  0
 24 14  1  0
 26 25  1  0
 27 26  1  0
 28 27  1  0
 29 27  2  0
M  END
$$$$
