RDC.pdb
     RDKit          3D

 26 25  0  0  1  0  0  0  0  0999 V2000
    7.8106  -13.1498   17.2744 N   0  0  0  0  0  0  0  0  0  0  0  0
    8.5061  -13.0346   18.4998 C   0  0  0  0  0  0  0  0  0  0  0  0
    8.5820  -11.9298   19.1642 N   0  0  0  0  0  0  0  0  0  0  0  0
    9.1431  -14.2280   18.9909 N   0  0  0  0  0  0  0  0  0  0  0  0
    8.2720  -15.2657   19.5224 C   0  0  0  0  0  0  0  0  0  0  0  0
    7.4068  -14.6541   20.6117 C   0  0  0  0  0  0  0  0  0  0  0  0
    7.2989  -15.5897   21.7702 C   0  0  0  0  0  0  0  0  0  0  0  0
    7.9719  -16.9132   21.5734 C   0  0  2  0  0  0  0  0  0  0  0  0
    7.0639  -17.9522   21.1591 N   0  0  0  0  0  0  0  0  0  0  0  0
    8.6615  -17.2537   22.8520 C   0  0  0  0  0  0  0  0  0  0  0  0
    7.9662  -17.6811   23.8053 O   0  0  0  0  0  0  0  0  0  0  0  0
    9.1765  -11.8858   20.0132 N   0  0  0  0  0  0  0  0  0  0  0  0
   10.0558  -17.1225   23.0520 C   0  0  2  0  0  0  0  0  0  0  0  0
   10.7262  -17.3812   24.2896 C   0  0  0  0  0  0  0  0  0  0  0  0
   12.1670  -17.8020   24.1017 C   0  0  0  0  0  0  0  0  0  0  0  0
   12.3483  -19.2735   24.1237 O   0  0  0  0  0  0  0  0  0  0  0  0
   11.4298  -20.0907   24.3774 C   0  0  0  0  0  0  0  0  0  0  0  0
   10.7572  -16.1698   25.1752 O   0  0  0  0  0  0  0  0  0  0  0  0
   10.8062  -15.0252   24.6589 O   0  0  0  0  0  0  0  0  0  0  0  0
   13.6056  -19.7894   23.8487 N   0  0  0  0  0  0  0  0  0  0  0  0
   10.7328  -16.2782   26.5722 C   0  0  1  0  0  0  0  0  0  0  0  0
   10.4303  -15.2127   27.4872 C   0  0  0  0  0  0  0  0  0  0  0  0
    9.1196  -14.5480   27.2532 S   0  0  0  0  0  0  0  0  0  0  0  0
    8.9738  -13.1893   28.4738 C   0  0  0  0  0  0  0  0  0  0  0  0
   10.4586  -15.7600   28.8671 O   0  0  0  0  0  0  0  0  0  0  0  0
   10.7405  -14.9487   29.9665 O   0  0  0  0  0  0  0  0  0  0  0  0
  2  1  1  0
  2  4  1  0
  3  2  2  0
  4  5  1  0
  5  6  1  0
  6  7  1  0
  7  8  1  0
  8 10  1  0
  8  9  1  1
 10 11  2  0
 12 13  1  0
 12 10  1  0
 13 17  1  0
 13 14  1  6
 15 19  1  0
 15 14  1  0
 16 15  2  0
 17 18  2  0
 17 20  1  0
 20 21  1  0
 21 24  1  0
 22 23  1  0
 21 22  1  1
 24 26  2  0
 24 25  1  0
M  END
$$$$
