RDC.pdb
     RDKit          3D

 26 25  0  0  1  0  0  0  0  0999 V2000
    8.6425  -15.2623   15.6534 N   0  0  0  0  0  0  0  0  0  0  0  0
    7.9511  -14.1014   15.2377 C   0  0  0  0  0  0  0  0  0  0  0  0
    7.9687  -13.6704   14.0204 N   0  0  0  0  0  0  0  0  0  0  0  0
    7.2073  -13.4001   16.2506 N   0  0  0  0  0  0  0  0  0  0  0  0
    7.1413  -14.0216   17.5649 C   0  0  0  0  0  0  0  0  0  0  0  0
    8.4002  -13.6545   18.3328 C   0  0  0  0  0  0  0  0  0  0  0  0
    8.3166  -14.1641   19.7336 C   0  0  0  0  0  0  0  0  0  0  0  0
    9.4734  -13.7897   20.6082 C   0  0  2  0  0  0  0  0  0  0  0  0
   10.7261  -13.7432   19.8981 N   0  0  0  0  0  0  0  0  0  0  0  0
    9.5092  -14.7651   21.7368 C   0  0  0  0  0  0  0  0  0  0  0  0
    8.4751  -14.9034   22.4342 O   0  0  0  0  0  0  0  0  0  0  0  0
    7.3646  -12.8699   13.7547 N   0  0  0  0  0  0  0  0  0  0  0  0
   10.6431  -15.5441   22.0666 C   0  0  1  0  0  0  0  0  0  0  0  0
   10.7099  -16.4543   23.1688 C   0  0  0  0  0  0  0  0  0  0  0  0
   11.8480  -17.4434   23.0471 C   0  0  0  0  0  0  0  0  0  0  0  0
   11.7457  -18.2989   21.8404 O   0  0  0  0  0  0  0  0  0  0  0  0
   12.4807  -18.1789   20.8299 C   0  0  0  0  0  0  0  0  0  0  0  0
   10.9138  -15.7417   24.4739 O   0  0  0  0  0  0  0  0  0  0  0  0
   11.4546  -14.6074   24.4832 O   0  0  0  0  0  0  0  0  0  0  0  0
   10.7823  -19.2958   21.8159 N   0  0  0  0  0  0  0  0  0  0  0  0
   10.5157  -16.3082   25.6922 C   0  0  2  0  0  0  0  0  0  0  0  0
   10.3368  -15.5945   26.9261 C   0  0  0  0  0  0  0  0  0  0  0  0
    9.3589  -14.4748   26.8584 S   0  0  0  0  0  0  0  0  0  0  0  0
    9.3266  -13.6810   28.5095 C   0  0  0  0  0  0  0  0  0  0  0  0
    9.8989  -16.5604   27.9652 O   0  0  0  0  0  0  0  0  0  0  0  0
   10.3205  -16.4454   29.2901 O   0  0  0  0  0  0  0  0  0  0  0  0
  2  1  1  0
  2  4  1  0
  3  2  2  0
  4  5  1  0
  5  6  1  0
  6  7  1  0
  7  8  1  0
  8 10  1  0
  8  9  1  6
 10 11  2  0
 12 13  1  0
 12 10  1  0
 13 17  1  0
 13 14  1  1
 15 19  1  0
 15 14  1  0
 16 15  2  0
 17 18  2  0
 17 20  1  0
 20 21  1  0
 21 24  1  0
 22 23  1  0
 21 22  1  6
 24 26  2  0
 24 25  1  0
M  END
$$$$
