RDC.pdb
     RDKit          3D

 26 25  0  0  1  0  0  0  0  0999 V2000
   12.6966  -19.7419   17.1439 N   0  0  0  0  0  0  0  0  0  0  0  0
   13.6946  -19.4148   18.0903 C   0  0  0  0  0  0  0  0  0  0  0  0
   14.9571  -19.4440   17.8195 N   0  0  0  0  0  0  0  0  0  0  0  0
   13.2369  -19.0382   19.4016 N   0  0  0  0  0  0  0  0  0  0  0  0
   12.0617  -19.7298   19.9103 C   0  0  0  0  0  0  0  0  0  0  0  0
   10.8882  -18.7648   19.8832 C   0  0  0  0  0  0  0  0  0  0  0  0
   10.7384  -18.0981   21.2106 C   0  0  0  0  0  0  0  0  0  0  0  0
   10.5260  -19.0322   22.3620 C   0  0  2  0  0  0  0  0  0  0  0  0
    9.6825  -20.1526   22.0320 N   0  0  0  0  0  0  0  0  0  0  0  0
    9.9675  -18.2276   23.4877 C   0  0  0  0  0  0  0  0  0  0  0  0
    9.4103  -17.1361   23.2174 O   0  0  0  0  0  0  0  0  0  0  0  0
   15.6449  -19.2918   18.5811 N   0  0  0  0  0  0  0  0  0  0  0  0
   10.0300  -18.6246   24.8442 C   0  0  1  0  0  0  0  0  0  0  0  0
    9.3789  -17.9422   25.9205 C   0  0  0  0  0  0  0  0  0  0  0  0
    9.1118  -18.8384   27.1095 C   0  0  0  0  0  0  0  0  0  0  0  0
    8.1694  -19.9414   26.8036 O   0  0  0  0  0  0  0  0  0  0  0  0
    7.1093  -19.7977   26.1467 C   0  0  0  0  0  0  0  0  0  0  0  0
   10.1995  -16.7966   26.4370 O   0  0  0  0  0  0  0  0  0  0  0  0
   11.4535  -16.8782   26.4278 O   0  0  0  0  0  0  0  0  0  0  0  0
    8.4674  -21.2139   27.2667 N   0  0  0  0  0  0  0  0  0  0  0  0
    9.6040  -15.6292   26.9332 C   0  0  2  0  0  0  0  0  0  0  0  0
   10.3020  -14.5247   27.5306 C   0  0  0  0  0  0  0  0  0  0  0  0
    9.6457  -13.2023   27.3434 S   0  0  0  0  0  0  0  0  0  0  0  0
    7.8420  -13.4584   27.5386 C   0  0  0  0  0  0  0  0  0  0  0  0
   10.4468  -14.7945   28.9835 O   0  0  0  0  0  0  0  0  0  0  0  0
   11.2158  -13.9691   29.8042 O   0  0  0  0  0  0  0  0  0  0  0  0
  2  1  1  0
  2  4  1  0
  3  2  2  0
  4  5  1  0
  5  6  1  0
  6  7  1  0
  7  8  1  0
  8 10  1  0
  8  9  1  6
 10 11  2  0
 12 13  1  0
 12 10  1  0
 13 17  1  0
 13 14  1  6
 15 19  1  0
 15 14  1  0
 16 15  2  0
 17 18  2  0
 17 20  1  0
 20 21  1  0
 21 24  1  0
 22 23  1  0
 21 22  1  6
 24 26  2  0
 24 25  1  0
M  END
$$$$
