RDC.pdb
     RDKit          3D

 26 25  0  0  1  0  0  0  0  0999 V2000
    7.6448  -12.6430   16.1813 N   0  0  0  0  0  0  0  0  0  0  0  0
    7.7196  -13.8723   16.8754 C   0  0  0  0  0  0  0  0  0  0  0  0
    8.3050  -14.9177   16.3934 N   0  0  0  0  0  0  0  0  0  0  0  0
    7.1017  -13.9144   18.1744 N   0  0  0  0  0  0  0  0  0  0  0  0
    7.1502  -15.1845   18.8834 C   0  0  0  0  0  0  0  0  0  0  0  0
    8.5649  -15.3929   19.3977 C   0  0  0  0  0  0  0  0  0  0  0  0
    8.7532  -14.6755   20.6934 C   0  0  0  0  0  0  0  0  0  0  0  0
   10.1054  -14.8455   21.3147 C   0  0  2  0  0  0  0  0  0  0  0  0
   11.0420  -15.5202   20.4526 N   0  0  0  0  0  0  0  0  0  0  0  0
    9.9123  -15.5720   22.6036 C   0  0  0  0  0  0  0  0  0  0  0  0
    9.0242  -15.1607   23.3890 O   0  0  0  0  0  0  0  0  0  0  0  0
    8.3038  -15.7995   16.9398 N   0  0  0  0  0  0  0  0  0  0  0  0
   10.6738  -16.6993   22.9921 C   0  0  1  0  0  0  0  0  0  0  0  0
   10.5381  -17.3780   24.2446 C   0  0  0  0  0  0  0  0  0  0  0  0
   11.2830  -18.6939   24.2846 C   0  0  0  0  0  0  0  0  0  0  0  0
   10.6941  -19.7204   23.3912 O   0  0  0  0  0  0  0  0  0  0  0  0
    9.4651  -19.9650   23.3165 C   0  0  0  0  0  0  0  0  0  0  0  0
   11.0709  -16.5618   25.3860 O   0  0  0  0  0  0  0  0  0  0  0  0
   12.2273  -16.0753   25.3138 O   0  0  0  0  0  0  0  0  0  0  0  0
   11.5440  -20.4615   22.5844 N   0  0  0  0  0  0  0  0  0  0  0  0
   10.3108  -16.3241   26.5390 C   0  0  1  0  0  0  0  0  0  0  0  0
   10.7137  -15.5091   27.6514 C   0  0  0  0  0  0  0  0  0  0  0  0
    9.8553  -14.3170   27.8894 S   0  0  0  0  0  0  0  0  0  0  0  0
   10.5808  -13.3977   29.2987 C   0  0  0  0  0  0  0  0  0  0  0  0
   10.7208  -16.3548   28.8718 O   0  0  0  0  0  0  0  0  0  0  0  0
   11.3578  -15.9398   30.0415 O   0  0  0  0  0  0  0  0  0  0  0  0
  2  1  1  0
  2  4  1  0
  3  2  2  0
  4  5  1  0
  5  6  1  0
  6  7  1  0
  7  8  1  0
  8 10  1  0
  8  9  1  6
 10 11  2  0
 12 13  1  0
 12 10  1  0
 13 17  1  0
 13 14  1  1
 15 19  1  0
 15 14  1  0
 16 15  2  0
 17 18  2  0
 17 20  1  0
 20 21  1  0
 21 24  1  0
 22 23  1  0
 21 22  1  1
 24 26  2  0
 24 25  1  0
M  END
$$$$
