RDC.pdb
     RDKit          3D

 26 25  0  0  1  0  0  0  0  0999 V2000
    7.8959  -13.9789   16.8188 N   0  0  0  0  0  0  0  0  0  0  0  0
    8.0241  -13.3761   18.0911 C   0  0  0  0  0  0  0  0  0  0  0  0
    8.4558  -12.1703   18.2578 N   0  0  0  0  0  0  0  0  0  0  0  0
    7.6448  -14.1796   19.2231 N   0  0  0  0  0  0  0  0  0  0  0  0
    8.3173  -13.8979   20.4827 C   0  0  0  0  0  0  0  0  0  0  0  0
    7.7538  -14.8267   21.5453 C   0  0  0  0  0  0  0  0  0  0  0  0
    7.2884  -16.1008   20.9217 C   0  0  0  0  0  0  0  0  0  0  0  0
    8.2998  -17.2055   20.9203 C   0  0  2  0  0  0  0  0  0  0  0  0
    7.7800  -18.4463   20.4047 N   0  0  0  0  0  0  0  0  0  0  0  0
    8.7999  -17.3498   22.3187 C   0  0  0  0  0  0  0  0  0  0  0  0
    7.9703  -17.6212   23.2203 O   0  0  0  0  0  0  0  0  0  0  0  0
    8.6276  -11.8192   19.2187 N   0  0  0  0  0  0  0  0  0  0  0  0
   10.1573  -17.1980   22.6875 C   0  0  2  0  0  0  0  0  0  0  0  0
   10.6571  -17.3411   24.0208 C   0  0  0  0  0  0  0  0  0  0  0  0
   12.1162  -17.7379   24.0629 C   0  0  0  0  0  0  0  0  0  0  0  0
   12.5190  -18.3277   25.3622 O   0  0  0  0  0  0  0  0  0  0  0  0
   11.7893  -18.3417   26.3836 C   0  0  0  0  0  0  0  0  0  0  0  0
   10.5491  -16.0635   24.8009 O   0  0  0  0  0  0  0  0  0  0  0  0
   11.0826  -15.0171   24.3542 O   0  0  0  0  0  0  0  0  0  0  0  0
   13.7769  -18.9017   25.4668 N   0  0  0  0  0  0  0  0  0  0  0  0
    9.8654  -16.0024   26.0227 C   0  0  1  0  0  0  0  0  0  0  0  0
    9.7494  -14.8388   26.8572 C   0  0  0  0  0  0  0  0  0  0  0  0
    8.4065  -14.1975   26.8435 S   0  0  0  0  0  0  0  0  0  0  0  0
    8.5324  -12.6522   27.8200 C   0  0  0  0  0  0  0  0  0  0  0  0
   10.0887  -15.2269   28.2497 O   0  0  0  0  0  0  0  0  0  0  0  0
   10.2301  -14.2727   29.2576 O   0  0  0  0  0  0  0  0  0  0  0  0
  2  1  1  0
  2  4  1  0
  3  2  2  0
  4  5  1  0
  5  6  1  0
  6  7  1  0
  7  8  1  0
  8 10  1  0
  8  9  1  1
 10 11  2  0
 12 13  1  0
 12 10  1  0
 13 17  1  0
 13 14  1  6
 15 19  1  0
 15 14  1  0
 16 15  2  0
 17 18  2  0
 17 20  1  0
 20 21  1  0
 21 24  1  0
 22 23  1  0
 21 22  1  1
 24 26  2  0
 24 25  1  0
M  END
$$$$
