RDC.pdb
     RDKit          3D

 26 25  0  0  1  0  0  0  0  0999 V2000
    7.7022  -14.3610   15.9602 N   0  0  0  0  0  0  0  0  0  0  0  0
    8.1550  -13.8816   17.2107 C   0  0  0  0  0  0  0  0  0  0  0  0
    9.2197  -13.1630   17.3448 N   0  0  0  0  0  0  0  0  0  0  0  0
    7.3624  -14.2351   18.3587 N   0  0  0  0  0  0  0  0  0  0  0  0
    7.7296  -13.6184   19.6248 C   0  0  0  0  0  0  0  0  0  0  0  0
    6.8170  -14.1681   20.7084 C   0  0  0  0  0  0  0  0  0  0  0  0
    7.6248  -14.8261   21.7777 C   0  0  0  0  0  0  0  0  0  0  0  0
    8.1253  -16.1953   21.4339 C   0  0  2  0  0  0  0  0  0  0  0  0
    7.0894  -17.0685   20.9439 N   0  0  0  0  0  0  0  0  0  0  0  0
    8.7855  -16.7447   22.6539 C   0  0  0  0  0  0  0  0  0  0  0  0
    8.0715  -17.3369   23.4992 O   0  0  0  0  0  0  0  0  0  0  0  0
    9.5075  -12.8507   18.2913 N   0  0  0  0  0  0  0  0  0  0  0  0
   10.1721  -16.6366   22.9133 C   0  0  2  0  0  0  0  0  0  0  0  0
   10.8210  -17.1445   24.0833 C   0  0  0  0  0  0  0  0  0  0  0  0
   12.1339  -17.8307   23.7771 C   0  0  0  0  0  0  0  0  0  0  0  0
   12.9249  -17.1304   22.7367 O   0  0  0  0  0  0  0  0  0  0  0  0
   12.4267  -16.6009   21.7133 C   0  0  0  0  0  0  0  0  0  0  0  0
   11.1382  -16.0558   25.0666 O   0  0  0  0  0  0  0  0  0  0  0  0
   11.4710  -14.9189   24.6471 O   0  0  0  0  0  0  0  0  0  0  0  0
   14.3001  -17.0494   22.8937 N   0  0  0  0  0  0  0  0  0  0  0  0
   11.0739  -16.2712   26.4498 C   0  0  1  0  0  0  0  0  0  0  0  0
   10.7482  -15.2779   27.4352 C   0  0  0  0  0  0  0  0  0  0  0  0
    9.4559  -14.5767   27.2051 S   0  0  0  0  0  0  0  0  0  0  0  0
    9.2556  -13.3506   28.5519 C   0  0  0  0  0  0  0  0  0  0  0  0
   10.7149  -15.9342   28.7667 O   0  0  0  0  0  0  0  0  0  0  0  0
   11.2539  -15.3175   29.8961 O   0  0  0  0  0  0  0  0  0  0  0  0
  2  1  1  0
  2  4  1  0
  3  2  2  0
  4  5  1  0
  5  6  1  0
  6  7  1  0
  7  8  1  0
  8 10  1  0
  8  9  1  1
 10 11  2  0
 12 13  1  0
 12 10  1  0
 13 17  1  0
 13 14  1  6
 15 19  1  0
 15 14  1  0
 16 15  2  0
 17 18  2  0
 17 20  1  0
 20 21  1  0
 21 24  1  0
 22 23  1  0
 21 22  1  1
 24 26  2  0
 24 25  1  0
M  END
$$$$
