RDC.pdb
     RDKit          3D

 26 25  0  0  1  0  0  0  0  0999 V2000
   11.8375  -14.3928   20.8070 N   0  0  0  0  0  0  0  0  0  0  0  0
   11.4896  -14.1741   19.4543 C   0  0  0  0  0  0  0  0  0  0  0  0
   11.8930  -14.9357   18.4924 N   0  0  0  0  0  0  0  0  0  0  0  0
   10.6462  -13.0399   19.1839 N   0  0  0  0  0  0  0  0  0  0  0  0
    9.2528  -13.3182   18.8692 C   0  0  0  0  0  0  0  0  0  0  0  0
    8.4043  -12.9366   20.0706 C   0  0  0  0  0  0  0  0  0  0  0  0
    7.2103  -13.8280   20.1624 C   0  0  0  0  0  0  0  0  0  0  0  0
    7.5232  -15.2906   20.2428 C   0  0  2  0  0  0  0  0  0  0  0  0
    6.6221  -16.1042   19.4672 N   0  0  0  0  0  0  0  0  0  0  0  0
    7.5107  -15.6674   21.6865 C   0  0  0  0  0  0  0  0  0  0  0  0
    6.4202  -15.6104   22.3050 O   0  0  0  0  0  0  0  0  0  0  0  0
   11.6596  -14.6859   17.5130 N   0  0  0  0  0  0  0  0  0  0  0  0
    8.6588  -16.0858   22.3994 C   0  0  2  0  0  0  0  0  0  0  0  0
    8.6759  -16.4076   23.7937 C   0  0  0  0  0  0  0  0  0  0  0  0
    9.7399  -17.4219   24.1506 C   0  0  0  0  0  0  0  0  0  0  0  0
    9.7008  -17.8252   25.5769 O   0  0  0  0  0  0  0  0  0  0  0  0
    8.7664  -17.5354   26.3635 C   0  0  0  0  0  0  0  0  0  0  0  0
    8.9465  -15.2016   24.6450 O   0  0  0  0  0  0  0  0  0  0  0  0
   10.0467  -14.6034   24.5411 O   0  0  0  0  0  0  0  0  0  0  0  0
   10.7562  -18.5683   26.0835 N   0  0  0  0  0  0  0  0  0  0  0  0
    8.0010  -14.7188   25.5598 C   0  0  2  0  0  0  0  0  0  0  0  0
    8.1526  -13.5474   26.3775 C   0  0  0  0  0  0  0  0  0  0  0  0
    6.9535  -12.6675   26.4286 S   0  0  0  0  0  0  0  0  0  0  0  0
    5.5215  -13.7253   26.8620 C   0  0  0  0  0  0  0  0  0  0  0  0
    8.4968  -13.9809   27.7553 O   0  0  0  0  0  0  0  0  0  0  0  0
    8.4723  -15.3265   28.1227 O   0  0  0  0  0  0  0  0  0  0  0  0
  2  1  1  0
  2  4  1  0
  3  2  2  0
  4  5  1  0
  5  6  1  0
  6  7  1  0
  7  8  1  0
  8 10  1  0
  8  9  1  6
 10 11  2  0
 12 13  1  0
 12 10  1  0
 13 17  1  0
 13 14  1  6
 15 19  1  0
 15 14  1  0
 16 15  2  0
 17 18  2  0
 17 20  1  0
 20 21  1  0
 21 24  1  0
 22 23  1  0
 21 22  1  6
 24 26  2  0
 24 25  1  0
M  END
$$$$
