RDC.pdb
     RDKit          3D

 26 25  0  0  1  0  0  0  0  0999 V2000
    7.6650  -12.3160   20.4769 N   0  0  0  0  0  0  0  0  0  0  0  0
    8.0528  -12.9614   19.2804 C   0  0  0  0  0  0  0  0  0  0  0  0
    7.4329  -12.7963   18.1594 N   0  0  0  0  0  0  0  0  0  0  0  0
    9.1954  -13.8325   19.3623 N   0  0  0  0  0  0  0  0  0  0  0  0
    9.0861  -14.9760   20.2560 C   0  0  0  0  0  0  0  0  0  0  0  0
    7.7232  -14.9320   20.9266 C   0  0  0  0  0  0  0  0  0  0  0  0
    7.7755  -15.6280   22.2464 C   0  0  0  0  0  0  0  0  0  0  0  0
    8.3827  -16.9968   22.2108 C   0  0  2  0  0  0  0  0  0  0  0  0
    7.4272  -18.0304   21.9036 N   0  0  0  0  0  0  0  0  0  0  0  0
    9.0425  -17.2229   23.5298 C   0  0  0  0  0  0  0  0  0  0  0  0
    8.3140  -17.3452   24.5444 O   0  0  0  0  0  0  0  0  0  0  0  0
    7.7940  -13.2602   17.3047 N   0  0  0  0  0  0  0  0  0  0  0  0
   10.4440  -17.3075   23.7032 C   0  0  2  0  0  0  0  0  0  0  0  0
   11.0960  -17.4998   24.9625 C   0  0  0  0  0  0  0  0  0  0  0  0
   12.4613  -18.1368   24.8272 C   0  0  0  0  0  0  0  0  0  0  0  0
   12.4475  -19.3662   23.9983 O   0  0  0  0  0  0  0  0  0  0  0  0
   11.7462  -20.3761   24.2515 C   0  0  0  0  0  0  0  0  0  0  0  0
   11.3102  -16.2032   25.6875 O   0  0  0  0  0  0  0  0  0  0  0  0
   12.1377  -15.3709   25.2384 O   0  0  0  0  0  0  0  0  0  0  0  0
   13.2550  -19.4141   22.8722 N   0  0  0  0  0  0  0  0  0  0  0  0
   10.6092  -15.8906   26.8599 C   0  0  1  0  0  0  0  0  0  0  0  0
   10.8804  -14.7742   27.7225 C   0  0  0  0  0  0  0  0  0  0  0  0
   10.0434  -13.5717   27.4618 S   0  0  0  0  0  0  0  0  0  0  0  0
    8.2960  -14.1223   27.4304 C   0  0  0  0  0  0  0  0  0  0  0  0
   10.6807  -15.2104   29.1277 O   0  0  0  0  0  0  0  0  0  0  0  0
   11.0455  -14.3974   30.2012 O   0  0  0  0  0  0  0  0  0  0  0  0
  2  1  1  0
  2  4  1  0
  3  2  2  0
  4  5  1  0
  5  6  1  0
  6  7  1  0
  7  8  1  0
  8 10  1  0
  8  9  1  1
 10 11  2  0
 12 13  1  0
 12 10  1  0
 13 17  1  0
 13 14  1  1
 15 19  1  0
 15 14  1  0
 16 15  2  0
 17 18  2  0
 17 20  1  0
 20 21  1  0
 21 24  1  0
 22 23  1  0
 21 22  1  6
 24 26  2  0
 24 25  1  0
M  END
$$$$
