RDC.pdb
     RDKit          3D

 26 25  0  0  1  0  0  0  0  0999 V2000
    6.7796  -12.4352   17.9986 N   0  0  0  0  0  0  0  0  0  0  0  0
    8.0448  -12.9575   18.3524 C   0  0  0  0  0  0  0  0  0  0  0  0
    8.9981  -12.2286   18.8298 N   0  0  0  0  0  0  0  0  0  0  0  0
    8.2339  -14.3704   18.1547 N   0  0  0  0  0  0  0  0  0  0  0  0
    8.7120  -15.1348   19.2972 C   0  0  0  0  0  0  0  0  0  0  0  0
    7.6124  -15.1689   20.3454 C   0  0  0  0  0  0  0  0  0  0  0  0
    8.0273  -16.0193   21.5002 C   0  0  0  0  0  0  0  0  0  0  0  0
    9.4035  -15.7416   22.0221 C   0  0  2  0  0  0  0  0  0  0  0  0
   10.4433  -16.3135   21.2051 N   0  0  0  0  0  0  0  0  0  0  0  0
    9.4557  -16.2481   23.4247 C   0  0  0  0  0  0  0  0  0  0  0  0
    8.5308  -15.9223   24.2078 O   0  0  0  0  0  0  0  0  0  0  0  0
    9.8821  -12.6800   19.1313 N   0  0  0  0  0  0  0  0  0  0  0  0
   10.4892  -17.0754   23.9235 C   0  0  1  0  0  0  0  0  0  0  0  0
   10.6147  -17.4831   25.2895 C   0  0  0  0  0  0  0  0  0  0  0  0
   11.6474  -18.5707   25.4866 C   0  0  0  0  0  0  0  0  0  0  0  0
   11.4831  -19.7034   24.5439 O   0  0  0  0  0  0  0  0  0  0  0  0
   10.4731  -20.4481   24.5098 C   0  0  0  0  0  0  0  0  0  0  0  0
   11.0296  -16.3473   26.1785 O   0  0  0  0  0  0  0  0  0  0  0  0
   12.0768  -15.7045   25.9154 O   0  0  0  0  0  0  0  0  0  0  0  0
   12.5016  -19.9651   23.6401 N   0  0  0  0  0  0  0  0  0  0  0  0
   10.2778  -15.9794   27.3024 C   0  0  1  0  0  0  0  0  0  0  0  0
   10.6366  -14.9612   28.2502 C   0  0  0  0  0  0  0  0  0  0  0  0
    9.6066  -13.9048   28.4449 S   0  0  0  0  0  0  0  0  0  0  0  0
    9.0009  -13.4238   26.7838 C   0  0  0  0  0  0  0  0  0  0  0  0
   10.9159  -15.6142   29.5541 O   0  0  0  0  0  0  0  0  0  0  0  0
   11.3911  -14.8869   30.6457 O   0  0  0  0  0  0  0  0  0  0  0  0
  2  1  1  0
  2  4  1  0
  3  2  2  0
  4  5  1  0
  5  6  1  0
  6  7  1  0
  7  8  1  0
  8 10  1  0
  8  9  1  6
 10 11  2  0
 12 13  1  0
 12 10  1  0
 13 17  1  0
 13 14  1  1
 15 19  1  0
 15 14  1  0
 16 15  2  0
 17 18  2  0
 17 20  1  0
 20 21  1  0
 21 24  1  0
 22 23  1  0
 21 22  1  1
 24 26  2  0
 24 25  1  0
M  END
$$$$
