RDC.pdb
     RDKit          3D

 26 25  0  0  1  0  0  0  0  0999 V2000
    8.3274  -12.0955   20.1045 N   0  0  0  0  0  0  0  0  0  0  0  0
    8.3852  -13.0568   19.0695 C   0  0  0  0  0  0  0  0  0  0  0  0
    8.9102  -12.8158   17.9144 N   0  0  0  0  0  0  0  0  0  0  0  0
    7.8215  -14.3484   19.3609 N   0  0  0  0  0  0  0  0  0  0  0  0
    7.2960  -14.5474   20.7035 C   0  0  0  0  0  0  0  0  0  0  0  0
    6.6409  -15.9172   20.7638 C   0  0  0  0  0  0  0  0  0  0  0  0
    7.2988  -16.8461   19.7978 C   0  0  0  0  0  0  0  0  0  0  0  0
    7.7399  -18.1521   20.3835 C   0  0  2  0  0  0  0  0  0  0  0  0
    6.6911  -18.8330   21.0990 N   0  0  0  0  0  0  0  0  0  0  0  0
    8.9172  -17.8711   21.2560 C   0  0  0  0  0  0  0  0  0  0  0  0
    9.1808  -18.6826   22.1762 O   0  0  0  0  0  0  0  0  0  0  0  0
    8.8954  -13.5528   17.1844 N   0  0  0  0  0  0  0  0  0  0  0  0
    9.7548  -16.7409   21.1056 C   0  0  2  0  0  0  0  0  0  0  0  0
   11.0094  -16.5659   21.7715 C   0  0  0  0  0  0  0  0  0  0  0  0
   11.8111  -15.4071   21.2213 C   0  0  0  0  0  0  0  0  0  0  0  0
   12.2276  -15.6078   19.8125 O   0  0  0  0  0  0  0  0  0  0  0  0
   12.6693  -16.6915   19.3582 C   0  0  0  0  0  0  0  0  0  0  0  0
   10.8339  -16.2938   23.2370 O   0  0  0  0  0  0  0  0  0  0  0  0
   11.8307  -15.9738   23.9321 O   0  0  0  0  0  0  0  0  0  0  0  0
   12.1274  -14.5395   18.9343 N   0  0  0  0  0  0  0  0  0  0  0  0
    9.5813  -16.3867   23.8584 C   0  0  1  0  0  0  0  0  0  0  0  0
    9.3106  -16.0973   25.2392 C   0  0  0  0  0  0  0  0  0  0  0  0
    7.9944  -15.4500   25.4905 S   0  0  0  0  0  0  0  0  0  0  0  0
    8.0567  -13.7813   24.7362 C   0  0  0  0  0  0  0  0  0  0  0  0
    9.3823  -17.3671   26.0054 O   0  0  0  0  0  0  0  0  0  0  0  0
    9.1840  -17.3967   27.3860 O   0  0  0  0  0  0  0  0  0  0  0  0
  2  1  1  0
  2  4  1  0
  3  2  2  0
  4  5  1  0
  5  6  1  0
  6  7  1  0
  7  8  1  0
  8 10  1  0
  8  9  1  1
 10 11  2  0
 12 13  1  0
 12 10  1  0
 13 17  1  0
 13 14  1  6
 15 19  1  0
 15 14  1  0
 16 15  2  0
 17 18  2  0
 17 20  1  0
 20 21  1  0
 21 24  1  0
 22 23  1  0
 21 22  1  1
 24 26  2  0
 24 25  1  0
M  END
$$$$
