RDC.pdb
     RDKit          3D

 26 25  0  0  1  0  0  0  0  0999 V2000
    7.9191  -13.4225   16.1914 N   0  0  0  0  0  0  0  0  0  0  0  0
    8.3326  -13.5850   17.5335 C   0  0  0  0  0  0  0  0  0  0  0  0
    9.4860  -14.0651   17.8608 N   0  0  0  0  0  0  0  0  0  0  0  0
    7.3933  -13.1841   18.5474 N   0  0  0  0  0  0  0  0  0  0  0  0
    7.7645  -13.4524   19.9289 C   0  0  0  0  0  0  0  0  0  0  0  0
    7.7476  -14.9562   20.1464 C   0  0  0  0  0  0  0  0  0  0  0  0
    7.9996  -15.2718   21.5837 C   0  0  0  0  0  0  0  0  0  0  0  0
    7.8897  -16.7233   21.9366 C   0  0  2  0  0  0  0  0  0  0  0  0
    6.5588  -17.2471   21.7636 N   0  0  0  0  0  0  0  0  0  0  0  0
    8.3693  -16.8751   23.3413 C   0  0  0  0  0  0  0  0  0  0  0  0
    7.5262  -16.7979   24.2677 O   0  0  0  0  0  0  0  0  0  0  0  0
    9.7593  -14.0965   18.8611 N   0  0  0  0  0  0  0  0  0  0  0  0
    9.7217  -17.1014   23.6899 C   0  0  2  0  0  0  0  0  0  0  0  0
   10.1917  -17.3104   25.0253 C   0  0  0  0  0  0  0  0  0  0  0  0
   11.5073  -18.0552   25.0763 C   0  0  0  0  0  0  0  0  0  0  0  0
   12.4463  -17.6469   24.0038 O   0  0  0  0  0  0  0  0  0  0  0  0
   13.3272  -16.7630   24.1405 C   0  0  0  0  0  0  0  0  0  0  0  0
   10.4165  -16.0156   25.7504 O   0  0  0  0  0  0  0  0  0  0  0  0
   11.0905  -15.1073   25.2031 O   0  0  0  0  0  0  0  0  0  0  0  0
   12.3545  -18.2732   22.7702 N   0  0  0  0  0  0  0  0  0  0  0  0
    9.8927  -15.7878   27.0301 C   0  0  1  0  0  0  0  0  0  0  0  0
   10.1167  -14.6138   27.8272 C   0  0  0  0  0  0  0  0  0  0  0  0
    8.9279  -13.7316   27.9791 S   0  0  0  0  0  0  0  0  0  0  0  0
    8.3428  -13.3132   26.2939 C   0  0  0  0  0  0  0  0  0  0  0  0
   10.5788  -15.0430   29.1714 O   0  0  0  0  0  0  0  0  0  0  0  0
   10.9661  -14.1154   30.1387 O   0  0  0  0  0  0  0  0  0  0  0  0
  2  1  1  0
  2  4  1  0
  3  2  2  0
  4  5  1  0
  5  6  1  0
  6  7  1  0
  7  8  1  0
  8 10  1  0
  8  9  1  1
 10 11  2  0
 12 13  1  0
 12 10  1  0
 13 17  1  0
 13 14  1  6
 15 19  1  0
 15 14  1  0
 16 15  2  0
 17 18  2  0
 17 20  1  0
 20 21  1  0
 21 24  1  0
 22 23  1  0
 21 22  1  1
 24 26  2  0
 24 25  1  0
M  END
$$$$
