RDC.pdb
     RDKit          3D

 26 25  0  0  1  0  0  0  0  0999 V2000
   10.2183  -13.1421   20.1774 N   0  0  0  0  0  0  0  0  0  0  0  0
    9.1336  -12.3914   19.6690 C   0  0  0  0  0  0  0  0  0  0  0  0
    9.0891  -11.1014   19.7132 N   0  0  0  0  0  0  0  0  0  0  0  0
    8.0524  -13.1404   19.0851 N   0  0  0  0  0  0  0  0  0  0  0  0
    8.0745  -14.5829   19.2771 C   0  0  0  0  0  0  0  0  0  0  0  0
    6.8148  -14.9864   20.0253 C   0  0  0  0  0  0  0  0  0  0  0  0
    7.1637  -15.4963   21.3844 C   0  0  0  0  0  0  0  0  0  0  0  0
    8.4191  -16.3109   21.4463 C   0  0  2  0  0  0  0  0  0  0  0  0
    8.3661  -17.4932   20.6248 N   0  0  0  0  0  0  0  0  0  0  0  0
    8.6628  -16.6405   22.8810 C   0  0  0  0  0  0  0  0  0  0  0  0
    8.1999  -15.8671   23.7542 O   0  0  0  0  0  0  0  0  0  0  0  0
    8.2384  -10.6095   19.3805 N   0  0  0  0  0  0  0  0  0  0  0  0
    9.3867  -17.7761   23.3145 C   0  0  1  0  0  0  0  0  0  0  0  0
    9.6671  -18.0861   24.6831 C   0  0  0  0  0  0  0  0  0  0  0  0
   10.5220  -19.3238   24.8429 C   0  0  0  0  0  0  0  0  0  0  0  0
   10.6170  -19.7848   26.2490 O   0  0  0  0  0  0  0  0  0  0  0  0
   10.0523  -19.2152   27.2146 C   0  0  0  0  0  0  0  0  0  0  0  0
   10.4074  -16.9758   25.3700 O   0  0  0  0  0  0  0  0  0  0  0  0
   10.9924  -16.1021   24.6820 O   0  0  0  0  0  0  0  0  0  0  0  0
   11.3735  -20.9135   26.5256 N   0  0  0  0  0  0  0  0  0  0  0  0
   10.4660  -16.8838   26.7671 C   0  0  2  0  0  0  0  0  0  0  0  0
   10.6125  -15.6681   27.5184 C   0  0  0  0  0  0  0  0  0  0  0  0
    9.5181  -14.6798   27.3180 S   0  0  0  0  0  0  0  0  0  0  0  0
   10.0299  -13.1272   28.1455 C   0  0  0  0  0  0  0  0  0  0  0  0
   10.6953  -16.0166   28.9593 O   0  0  0  0  0  0  0  0  0  0  0  0
   11.0785  -15.0755   29.9152 O   0  0  0  0  0  0  0  0  0  0  0  0
  2  1  1  0
  2  4  1  0
  3  2  2  0
  4  5  1  0
  5  6  1  0
  6  7  1  0
  7  8  1  0
  8 10  1  0
  8  9  1  6
 10 11  2  0
 12 13  1  0
 12 10  1  0
 13 17  1  0
 13 14  1  6
 15 19  1  0
 15 14  1  0
 16 15  2  0
 17 18  2  0
 17 20  1  0
 20 21  1  0
 21 24  1  0
 22 23  1  0
 21 22  1  1
 24 26  2  0
 24 25  1  0
M  END
$$$$
