RDC.pdb
     RDKit          3D

 26 25  0  0  1  0  0  0  0  0999 V2000
    6.7512  -15.2006   16.3137 N   0  0  0  0  0  0  0  0  0  0  0  0
    7.9956  -14.6490   15.9320 C   0  0  0  0  0  0  0  0  0  0  0  0
    8.8010  -15.2334   15.1087 N   0  0  0  0  0  0  0  0  0  0  0  0
    8.3390  -13.3775   16.5119 N   0  0  0  0  0  0  0  0  0  0  0  0
    8.6228  -13.3624   17.9393 C   0  0  0  0  0  0  0  0  0  0  0  0
    7.6140  -14.2584   18.6383 C   0  0  0  0  0  0  0  0  0  0  0  0
    7.4769  -13.8606   20.0708 C   0  0  0  0  0  0  0  0  0  0  0  0
    8.7727  -13.6214   20.7829 C   0  0  2  0  0  0  0  0  0  0  0  0
    9.9147  -13.6608   19.9055 N   0  0  0  0  0  0  0  0  0  0  0  0
    8.8728  -14.6356   21.8727 C   0  0  0  0  0  0  0  0  0  0  0  0
    7.8801  -14.8006   22.6226 O   0  0  0  0  0  0  0  0  0  0  0  0
    9.7020  -14.7787   14.8685 N   0  0  0  0  0  0  0  0  0  0  0  0
   10.0238  -15.4232   22.1100 C   0  0  2  0  0  0  0  0  0  0  0  0
   10.1498  -16.3784   23.1682 C   0  0  0  0  0  0  0  0  0  0  0  0
   11.1425  -17.4760   22.8550 C   0  0  0  0  0  0  0  0  0  0  0  0
   10.6508  -18.4262   21.8284 O   0  0  0  0  0  0  0  0  0  0  0  0
    9.4724  -18.8556   21.7756 C   0  0  0  0  0  0  0  0  0  0  0  0
   10.6184  -15.7434   24.4448 O   0  0  0  0  0  0  0  0  0  0  0  0
   11.3556  -14.7268   24.3976 O   0  0  0  0  0  0  0  0  0  0  0  0
   11.5388  -18.8746   20.8624 N   0  0  0  0  0  0  0  0  0  0  0  0
   10.2553  -16.2547   25.6980 C   0  0  1  0  0  0  0  0  0  0  0  0
   10.1873  -15.5013   26.9193 C   0  0  0  0  0  0  0  0  0  0  0  0
    9.1615  -14.4232   26.9264 S   0  0  0  0  0  0  0  0  0  0  0  0
    9.2835  -13.5676   28.5421 C   0  0  0  0  0  0  0  0  0  0  0  0
    9.9111  -16.4425   28.0340 O   0  0  0  0  0  0  0  0  0  0  0  0
   10.4129  -16.2196   29.3165 O   0  0  0  0  0  0  0  0  0  0  0  0
  2  1  1  0
  2  4  1  0
  3  2  2  0
  4  5  1  0
  5  6  1  0
  6  7  1  0
  7  8  1  0
  8 10  1  0
  8  9  1  6
 10 11  2  0
 12 13  1  0
 12 10  1  0
 13 17  1  0
 13 14  1  1
 15 19  1  0
 15 14  1  0
 16 15  2  0
 17 18  2  0
 17 20  1  0
 20 21  1  0
 21 24  1  0
 22 23  1  0
 21 22  1  1
 24 26  2  0
 24 25  1  0
M  END
$$$$
