RDC.pdb
     RDKit          3D

 26 25  0  0  1  0  0  0  0  0999 V2000
    9.7224  -14.6767   18.4965 N   0  0  0  0  0  0  0  0  0  0  0  0
    8.4487  -14.0989   18.2902 C   0  0  0  0  0  0  0  0  0  0  0  0
    7.9669  -13.8594   17.1161 N   0  0  0  0  0  0  0  0  0  0  0  0
    7.6901  -13.7794   19.4706 N   0  0  0  0  0  0  0  0  0  0  0  0
    7.7089  -14.7580   20.5477 C   0  0  0  0  0  0  0  0  0  0  0  0
    6.2740  -15.1281   20.8844 C   0  0  0  0  0  0  0  0  0  0  0  0
    6.2485  -16.2653   21.8514 C   0  0  0  0  0  0  0  0  0  0  0  0
    6.7298  -15.9290   23.2293 C   0  0  2  0  0  0  0  0  0  0  0  0
    6.7662  -14.5115   23.4843 N   0  0  0  0  0  0  0  0  0  0  0  0
    8.0720  -16.5591   23.3956 C   0  0  0  0  0  0  0  0  0  0  0  0
    8.1603  -17.8058   23.2816 O   0  0  0  0  0  0  0  0  0  0  0  0
    7.0808  -13.3272   17.0281 N   0  0  0  0  0  0  0  0  0  0  0  0
    9.2527  -15.8314   23.6748 C   0  0  2  0  0  0  0  0  0  0  0  0
   10.5013  -16.4225   24.0483 C   0  0  0  0  0  0  0  0  0  0  0  0
   11.5843  -16.2137   23.0131 C   0  0  0  0  0  0  0  0  0  0  0  0
   12.7389  -17.1270   23.1902 O   0  0  0  0  0  0  0  0  0  0  0  0
   12.8309  -17.9720   24.1140 C   0  0  0  0  0  0  0  0  0  0  0  0
   11.0325  -15.8496   25.3298 O   0  0  0  0  0  0  0  0  0  0  0  0
   11.6624  -14.7624   25.3090 O   0  0  0  0  0  0  0  0  0  0  0  0
   13.7871  -17.0516   22.2856 N   0  0  0  0  0  0  0  0  0  0  0  0
   10.8455  -16.4963   26.5589 C   0  0  1  0  0  0  0  0  0  0  0  0
   10.7932  -15.8522   27.8419 C   0  0  0  0  0  0  0  0  0  0  0  0
    9.7609  -14.7867   27.9590 S   0  0  0  0  0  0  0  0  0  0  0  0
    9.9159  -14.0618   29.6347 C   0  0  0  0  0  0  0  0  0  0  0  0
   10.5418  -16.8886   28.8750 O   0  0  0  0  0  0  0  0  0  0  0  0
   11.1053  -16.7994   30.1481 O   0  0  0  0  0  0  0  0  0  0  0  0
  2  1  1  0
  2  4  1  0
  3  2  2  0
  4  5  1  0
  5  6  1  0
  6  7  1  0
  7  8  1  0
  8 10  1  0
  8  9  1  6
 10 11  2  0
 12 13  1  0
 12 10  1  0
 13 17  1  0
 13 14  1  6
 15 19  1  0
 15 14  1  0
 16 15  2  0
 17 18  2  0
 17 20  1  0
 20 21  1  0
 21 24  1  0
 22 23  1  0
 21 22  1  1
 24 26  2  0
 24 25  1  0
M  END
$$$$
