ASK.pdb
     RDKit          3D

 21 20  0  0  1  0  0  0  0  0999 V2000
   27.2857  -17.9678  -14.7761 C   0  0  0  0  0  0  0  0  0  0  0  0
   27.8603  -19.3754  -14.6346 C   0  0  2  0  0  0  0  0  0  0  0  0
   28.2089  -19.8347  -15.9485 N   0  0  0  0  0  0  0  0  0  0  0  0
   26.7991  -20.2000  -14.0068 C   0  0  0  0  0  0  0  0  0  0  0  0
   25.9701  -20.7655  -14.7493 O   0  0  0  0  0  0  0  0  0  0  0  0
   26.9875  -21.6163  -10.0629 O   0  0  0  0  0  0  0  0  0  0  0  0
   25.8141  -20.9950  -10.4818 C   0  0  0  0  0  0  0  0  0  0  0  0
   25.6152  -21.0989  -11.9743 C   0  0  2  0  0  0  0  0  0  0  0  0
   26.6945  -20.3667  -12.6072 N   0  0  0  0  0  0  0  0  0  0  0  0
   24.2973  -20.4382  -12.2816 C   0  0  0  0  0  0  0  0  0  0  0  0
   24.1879  -19.1971  -12.1741 O   0  0  0  0  0  0  0  0  0  0  0  0
   23.2037  -21.2203  -12.6858 N   0  0  0  0  0  0  0  0  0  0  0  0
   21.9287  -20.5480  -13.1772 C   0  0  1  0  0  0  0  0  0  0  0  0
   21.8191  -21.0593  -14.5585 C   0  0  0  0  0  0  0  0  0  0  0  0
   20.8628  -20.5964  -15.5411 C   0  0  0  0  0  0  0  0  0  0  0  0
   20.8716  -21.2851  -16.8607 C   0  0  0  0  0  0  0  0  0  0  0  0
   19.8678  -20.6043  -17.8227 C   0  0  0  0  0  0  0  0  0  0  0  0
   19.8279  -21.3701  -19.0400 N   0  0  0  0  0  0  0  0  0  0  0  0
   20.9403  -21.0066  -12.1852 C   0  0  0  0  0  0  0  0  0  0  0  0
   21.1935  -22.0828  -11.5363 O   0  0  0  0  0  0  0  0  0  0  0  0
   19.7500  -20.4221  -11.8414 O   0  0  0  0  0  0  0  0  0  0  0  0
  2  1  1  6
  2  4  1  0
  3  2  1  0
  4  5  2  0
  8  7  1  1
  7  6  1  0
  8 10  1  0
  9  4  1  0
  9  8  1  0
 10 11  2  0
 12 10  1  0
 12 13  1  0
 13 19  1  0
 14 15  1  0
 13 14  1  6
 16 15  1  0
 17 18  1  0
 17 16  1  0
 19 21  1  0
 20 19  2  0
M  END
$$$$
