ASK.pdb
     RDKit          3D

 21 20  0  0  1  0  0  0  0  0999 V2000
   21.8981   -1.9128  -19.4467 C   0  0  0  0  0  0  0  0  0  0  0  0
   22.6366   -1.7836  -18.1164 C   0  0  2  0  0  0  0  0  0  0  0  0
   23.7290   -0.8747  -18.3144 N   0  0  0  0  0  0  0  0  0  0  0  0
   23.0907   -3.1488  -17.7551 C   0  0  0  0  0  0  0  0  0  0  0  0
   23.7919   -3.7770  -18.5748 O   0  0  0  0  0  0  0  0  0  0  0  0
   21.7272   -4.9469  -14.2665 O   0  0  0  0  0  0  0  0  0  0  0  0
   23.0478   -5.1872  -14.6362 C   0  0  0  0  0  0  0  0  0  0  0  0
   23.2550   -5.0617  -16.1258 C   0  0  2  0  0  0  0  0  0  0  0  0
   22.7597   -3.7586  -16.5238 N   0  0  0  0  0  0  0  0  0  0  0  0
   22.4287   -6.1434  -16.7697 C   0  0  0  0  0  0  0  0  0  0  0  0
   21.2671   -5.8872  -17.1557 O   0  0  0  0  0  0  0  0  0  0  0  0
   22.9687   -7.4293  -16.9312 N   0  0  0  0  0  0  0  0  0  0  0  0
   22.1536   -8.5148  -17.6214 C   0  0  1  0  0  0  0  0  0  0  0  0
   23.2016   -9.4534  -18.0708 C   0  0  0  0  0  0  0  0  0  0  0  0
   22.9994  -10.5343  -19.0115 C   0  0  0  0  0  0  0  0  0  0  0  0
   24.2067  -11.3057  -19.4153 C   0  0  0  0  0  0  0  0  0  0  0  0
   23.8010  -12.4920  -20.3233 C   0  0  0  0  0  0  0  0  0  0  0  0
   25.0022  -13.1657  -20.7396 N   0  0  0  0  0  0  0  0  0  0  0  0
   21.2477   -8.9481  -16.5429 C   0  0  0  0  0  0  0  0  0  0  0  0
   21.6336   -8.7860  -15.3312 O   0  0  0  0  0  0  0  0  0  0  0  0
   20.0053   -9.5139  -16.6553 O   0  0  0  0  0  0  0  0  0  0  0  0
  2  1  1  6
  2  4  1  0
  3  2  1  0
  4  5  2  0
  8  7  1  1
  7  6  1  0
  8 10  1  0
  9  4  1  0
  9  8  1  0
 10 11  2  0
 12 10  1  0
 12 13  1  0
 13 19  1  0
 14 15  1  0
 13 14  1  1
 16 15  1  0
 17 18  1  0
 17 16  1  0
 19 21  1  0
 20 19  2  0
M  END
$$$$
