ASK.pdb
     RDKit          3D

 21 20  0  0  1  0  0  0  0  0999 V2000
   18.7966  -14.9087  -18.5983 C   0  0  0  0  0  0  0  0  0  0  0  0
   19.6520  -13.6460  -18.6738 C   0  0  2  0  0  0  0  0  0  0  0  0
   20.8857  -13.9178  -17.9933 N   0  0  0  0  0  0  0  0  0  0  0  0
   18.8678  -12.5690  -18.0214 C   0  0  0  0  0  0  0  0  0  0  0  0
   17.7915  -12.2175  -18.5469 O   0  0  0  0  0  0  0  0  0  0  0  0
   18.2297   -9.9070  -14.0068 O   0  0  0  0  0  0  0  0  0  0  0  0
   18.9659  -10.8303  -14.7443 C   0  0  0  0  0  0  0  0  0  0  0  0
   18.5466  -10.8670  -16.1937 C   0  0  2  0  0  0  0  0  0  0  0  0
   19.2938  -11.9316  -16.8340 N   0  0  0  0  0  0  0  0  0  0  0  0
   18.9330   -9.5389  -16.7891 C   0  0  0  0  0  0  0  0  0  0  0  0
   20.1097   -9.3500  -17.1681 O   0  0  0  0  0  0  0  0  0  0  0  0
   17.9700   -8.5248  -16.9135 N   0  0  0  0  0  0  0  0  0  0  0  0
   18.3619   -7.1711  -17.4906 C   0  0  1  0  0  0  0  0  0  0  0  0
   17.0760   -6.6741  -18.0207 C   0  0  0  0  0  0  0  0  0  0  0  0
   16.8524   -5.3426  -18.5414 C   0  0  0  0  0  0  0  0  0  0  0  0
   15.4862   -5.0433  -19.0511 C   0  0  0  0  0  0  0  0  0  0  0  0
   15.4271   -3.5955  -19.5960 C   0  0  0  0  0  0  0  0  0  0  0  0
   14.1574   -3.4166  -20.2487 N   0  0  0  0  0  0  0  0  0  0  0  0
   18.9382   -6.4939  -16.3155 C   0  0  0  0  0  0  0  0  0  0  0  0
   19.6392   -5.4387  -16.5125 O   0  0  0  0  0  0  0  0  0  0  0  0
   18.8221   -6.8407  -14.9954 O   0  0  0  0  0  0  0  0  0  0  0  0
  2  1  1  1
  2  4  1  0
  3  2  1  0
  4  5  2  0
  8  7  1  1
  7  6  1  0
  8 10  1  0
  9  4  1  0
  9  8  1  0
 10 11  2  0
 12 10  1  0
 12 13  1  0
 13 19  1  0
 14 15  1  0
 13 14  1  1
 16 15  1  0
 17 18  1  0
 17 16  1  0
 19 21  1  0
 20 19  2  0
M  END
$$$$
