ASK.pdb
     RDKit          3D

 21 20  0  0  1  0  0  0  0  0999 V2000
   20.0570  -14.6262  -18.5738 C   0  0  0  0  0  0  0  0  0  0  0  0
   20.1644  -13.1996  -19.1077 C   0  0  2  0  0  0  0  0  0  0  0  0
   21.0722  -13.2206  -20.2187 N   0  0  0  0  0  0  0  0  0  0  0  0
   20.6600  -12.3678  -17.9839 C   0  0  0  0  0  0  0  0  0  0  0  0
   20.0778  -12.4509  -16.8827 O   0  0  0  0  0  0  0  0  0  0  0  0
   23.5822   -9.4500  -18.6742 O   0  0  0  0  0  0  0  0  0  0  0  0
   23.5458  -10.0675  -17.4269 C   0  0  0  0  0  0  0  0  0  0  0  0
   22.1643  -10.5639  -17.0763 C   0  0  2  0  0  0  0  0  0  0  0  0
   21.7604  -11.4908  -18.1154 N   0  0  0  0  0  0  0  0  0  0  0  0
   21.2586   -9.3609  -17.0813 C   0  0  0  0  0  0  0  0  0  0  0  0
   20.6266   -9.0669  -18.1196 O   0  0  0  0  0  0  0  0  0  0  0  0
   21.1314   -8.5801  -15.9214 N   0  0  0  0  0  0  0  0  0  0  0  0
   20.1368   -7.4275  -15.8863 C   0  0  1  0  0  0  0  0  0  0  0  0
   18.8432   -8.1345  -15.7950 C   0  0  0  0  0  0  0  0  0  0  0  0
   17.5587   -7.4939  -15.6123 C   0  0  0  0  0  0  0  0  0  0  0  0
   16.3840   -8.3890  -15.4266 C   0  0  0  0  0  0  0  0  0  0  0  0
   15.1077   -7.5479  -15.1813 C   0  0  0  0  0  0  0  0  0  0  0  0
   14.0105   -8.4543  -14.9700 N   0  0  0  0  0  0  0  0  0  0  0  0
   20.5964   -6.6636  -14.7129 C   0  0  0  0  0  0  0  0  0  0  0  0
   21.2715   -7.2846  -13.8173 O   0  0  0  0  0  0  0  0  0  0  0  0
   20.4031   -5.3360  -14.4367 O   0  0  0  0  0  0  0  0  0  0  0  0
  2  1  1  1
  2  4  1  0
  3  2  1  0
  4  5  2  0
  8  7  1  6
  7  6  1  0
  8 10  1  0
  9  4  1  0
  9  8  1  0
 10 11  2  0
 12 10  1  0
 12 13  1  0
 13 19  1  0
 14 15  1  0
 13 14  1  1
 16 15  1  0
 17 18  1  0
 17 16  1  0
 19 21  1  0
 20 19  2  0
M  END
$$$$
