ASK.pdb
     RDKit          3D

 21 20  0  0  1  0  0  0  0  0999 V2000
   14.0970   -8.3678   -8.3568 C   0  0  0  0  0  0  0  0  0  0  0  0
   15.3799   -7.5669   -8.1457 C   0  0  2  0  0  0  0  0  0  0  0  0
   15.0175   -6.3250   -7.5250 N   0  0  0  0  0  0  0  0  0  0  0  0
   15.9814   -7.3775   -9.4884 C   0  0  0  0  0  0  0  0  0  0  0  0
   15.6459   -6.3753  -10.1526 O   0  0  0  0  0  0  0  0  0  0  0  0
   19.1567   -9.1561  -12.7675 O   0  0  0  0  0  0  0  0  0  0  0  0
   18.4973   -9.2410  -11.5443 C   0  0  0  0  0  0  0  0  0  0  0  0
   17.5309   -8.1004  -11.3368 C   0  0  2  0  0  0  0  0  0  0  0  0
   16.9143   -8.2859  -10.0379 N   0  0  0  0  0  0  0  0  0  0  0  0
   16.4906   -8.2131  -12.4197 C   0  0  0  0  0  0  0  0  0  0  0  0
   15.6022   -9.0892  -12.3349 O   0  0  0  0  0  0  0  0  0  0  0  0
   16.5266   -7.3345  -13.5142 N   0  0  0  0  0  0  0  0  0  0  0  0
   15.5180   -7.4873  -14.6450 C   0  0  1  0  0  0  0  0  0  0  0  0
   14.9567   -6.1251  -14.7482 C   0  0  0  0  0  0  0  0  0  0  0  0
   13.8370   -5.7504  -15.5848 C   0  0  0  0  0  0  0  0  0  0  0  0
   13.4507   -4.3129  -15.5827 C   0  0  0  0  0  0  0  0  0  0  0  0
   12.2418   -4.0855  -16.5227 C   0  0  0  0  0  0  0  0  0  0  0  0
   12.0621   -2.6669  -16.6822 N   0  0  0  0  0  0  0  0  0  0  0  0
   16.3666   -7.9753  -15.7465 C   0  0  0  0  0  0  0  0  0  0  0  0
   17.6362   -7.9855  -15.5693 O   0  0  0  0  0  0  0  0  0  0  0  0
   15.9770   -8.4420  -16.9741 O   0  0  0  0  0  0  0  0  0  0  0  0
  2  1  1  6
  2  4  1  0
  3  2  1  0
  4  5  2  0
  8  7  1  6
  7  6  1  0
  8 10  1  0
  9  4  1  0
  9  8  1  0
 10 11  2  0
 12 10  1  0
 12 13  1  0
 13 19  1  0
 14 15  1  0
 13 14  1  6
 16 15  1  0
 17 18  1  0
 17 16  1  0
 19 21  1  0
 20 19  2  0
M  END
$$$$
