ASK.pdb
     RDKit          3D

 21 20  0  0  1  0  0  0  0  0999 V2000
   22.0368  -18.5607  -16.0686 C   0  0  0  0  0  0  0  0  0  0  0  0
   23.2036  -19.1091  -16.8868 C   0  0  2  0  0  0  0  0  0  0  0  0
   23.6401  -20.3229  -16.2584 N   0  0  0  0  0  0  0  0  0  0  0  0
   24.2500  -18.0576  -16.8813 C   0  0  0  0  0  0  0  0  0  0  0  0
   23.9192  -16.8932  -16.5762 O   0  0  0  0  0  0  0  0  0  0  0  0
   27.9663  -19.1019  -18.1518 O   0  0  0  0  0  0  0  0  0  0  0  0
   27.9532  -17.9711  -17.3398 C   0  0  0  0  0  0  0  0  0  0  0  0
   26.6059  -17.2909  -17.3309 C   0  0  2  0  0  0  0  0  0  0  0  0
   25.5987  -18.3262  -17.2071 N   0  0  0  0  0  0  0  0  0  0  0  0
   26.4650  -16.5938  -18.6582 C   0  0  0  0  0  0  0  0  0  0  0  0
   25.8883  -17.1748  -19.6037 O   0  0  0  0  0  0  0  0  0  0  0  0
   26.9817  -15.2988  -18.8231 N   0  0  0  0  0  0  0  0  0  0  0  0
   26.7580  -14.5520  -20.1314 C   0  0  1  0  0  0  0  0  0  0  0  0
   25.6499  -13.6395  -19.7839 C   0  0  0  0  0  0  0  0  0  0  0  0
   25.0261  -12.7065  -20.6973 C   0  0  0  0  0  0  0  0  0  0  0  0
   23.8988  -11.8960  -20.1608 C   0  0  0  0  0  0  0  0  0  0  0  0
   23.3232  -10.9842  -21.2717 C   0  0  0  0  0  0  0  0  0  0  0  0
   22.2820  -10.1782  -20.6917 N   0  0  0  0  0  0  0  0  0  0  0  0
   28.0879  -13.9682  -20.3804 C   0  0  0  0  0  0  0  0  0  0  0  0
   28.9879  -14.1144  -19.4792 O   0  0  0  0  0  0  0  0  0  0  0  0
   28.5159  -13.2721  -21.4798 O   0  0  0  0  0  0  0  0  0  0  0  0
  2  1  1  1
  2  4  1  0
  3  2  1  0
  4  5  2  0
  8  7  1  6
  7  6  1  0
  8 10  1  0
  9  4  1  0
  9  8  1  0
 10 11  2  0
 12 10  1  0
 12 13  1  0
 13 19  1  0
 14 15  1  0
 13 14  1  1
 16 15  1  0
 17 18  1  0
 17 16  1  0
 19 21  1  0
 20 19  2  0
M  END
$$$$
