ASK.pdb
     RDKit          3D

 21 20  0  0  1  0  0  0  0  0999 V2000
   16.9312  -13.9673  -14.4539 C   0  0  0  0  0  0  0  0  0  0  0  0
   16.3516  -13.3651  -15.7319 C   0  0  2  0  0  0  0  0  0  0  0  0
   16.1241  -14.4415  -16.6530 N   0  0  0  0  0  0  0  0  0  0  0  0
   17.3555  -12.3930  -16.2297 C   0  0  0  0  0  0  0  0  0  0  0  0
   18.4560  -12.8279  -16.6273 O   0  0  0  0  0  0  0  0  0  0  0  0
   16.7608   -8.3103  -15.7049 O   0  0  0  0  0  0  0  0  0  0  0  0
   17.3820   -8.7133  -16.8839 C   0  0  0  0  0  0  0  0  0  0  0  0
   18.0901  -10.0374  -16.7317 C   0  0  2  0  0  0  0  0  0  0  0  0
   17.1111  -11.0016  -16.2693 N   0  0  0  0  0  0  0  0  0  0  0  0
   19.1525   -9.8413  -15.6827 C   0  0  0  0  0  0  0  0  0  0  0  0
   18.9161  -10.1583  -14.4964 O   0  0  0  0  0  0  0  0  0  0  0  0
   20.3983   -9.3046  -16.0450 N   0  0  0  0  0  0  0  0  0  0  0  0
   21.5184   -9.2218  -15.0166 C   0  0  1  0  0  0  0  0  0  0  0  0
   22.6867   -9.6891  -15.7899 C   0  0  0  0  0  0  0  0  0  0  0  0
   23.9270  -10.1629  -15.2143 C   0  0  0  0  0  0  0  0  0  0  0  0
   25.0224  -10.4967  -16.1652 C   0  0  0  0  0  0  0  0  0  0  0  0
   26.2342  -11.0790  -15.3975 C   0  0  0  0  0  0  0  0  0  0  0  0
   27.2053  -11.5174  -16.3644 N   0  0  0  0  0  0  0  0  0  0  0  0
   21.4669   -7.8026  -14.6232 C   0  0  0  0  0  0  0  0  0  0  0  0
   20.9789   -6.9633  -15.4603 O   0  0  0  0  0  0  0  0  0  0  0  0
   21.8753   -7.2338  -13.4459 O   0  0  0  0  0  0  0  0  0  0  0  0
  2  1  1  1
  2  4  1  0
  3  2  1  0
  4  5  2  0
  8  7  1  1
  7  6  1  0
  8 10  1  0
  9  4  1  0
  9  8  1  0
 10 11  2  0
 12 10  1  0
 12 13  1  0
 13 19  1  0
 14 15  1  0
 13 14  1  6
 16 15  1  0
 17 18  1  0
 17 16  1  0
 19 21  1  0
 20 19  2  0
M  END
$$$$
