ASK.pdb
     RDKit          3D

 21 20  0  0  1  0  0  0  0  0999 V2000
   26.7111  -11.2087  -15.7416 C   0  0  0  0  0  0  0  0  0  0  0  0
   25.3729  -11.9005  -15.9913 C   0  0  2  0  0  0  0  0  0  0  0  0
   25.5690  -12.8550  -17.0446 N   0  0  0  0  0  0  0  0  0  0  0  0
   24.4122  -10.8330  -16.3627 C   0  0  0  0  0  0  0  0  0  0  0  0
   24.4697  -10.3582  -17.5158 O   0  0  0  0  0  0  0  0  0  0  0  0
   21.3231  -10.0955  -13.8345 O   0  0  0  0  0  0  0  0  0  0  0  0
   21.1464   -9.7567  -15.1733 C   0  0  0  0  0  0  0  0  0  0  0  0
   22.4418   -9.3562  -15.8361 C   0  0  2  0  0  0  0  0  0  0  0  0
   23.4409  -10.3382  -15.4631 N   0  0  0  0  0  0  0  0  0  0  0  0
   22.8139   -8.0080  -15.2781 C   0  0  0  0  0  0  0  0  0  0  0  0
   23.6319   -7.9334  -14.3351 O   0  0  0  0  0  0  0  0  0  0  0  0
   22.2401   -6.8471  -15.8207 N   0  0  0  0  0  0  0  0  0  0  0  0
   22.6542   -5.4784  -15.2971 C   0  0  1  0  0  0  0  0  0  0  0  0
   22.1523   -4.5758  -16.3529 C   0  0  0  0  0  0  0  0  0  0  0  0
   22.6910   -4.4862  -17.6930 C   0  0  0  0  0  0  0  0  0  0  0  0
   21.9925   -3.5706  -18.6360 C   0  0  0  0  0  0  0  0  0  0  0  0
   22.6484   -3.6475  -20.0362 C   0  0  0  0  0  0  0  0  0  0  0  0
   24.0665   -3.4661  -19.8746 N   0  0  0  0  0  0  0  0  0  0  0  0
   21.9939   -5.4432  -13.9801 C   0  0  0  0  0  0  0  0  0  0  0  0
   20.9785   -6.2037  -13.7953 O   0  0  0  0  0  0  0  0  0  0  0  0
   22.3268   -4.6912  -12.8846 O   0  0  0  0  0  0  0  0  0  0  0  0
  2  1  1  6
  2  4  1  0
  3  2  1  0
  4  5  2  0
  8  7  1  1
  7  6  1  0
  8 10  1  0
  9  4  1  0
  9  8  1  0
 10 11  2  0
 12 10  1  0
 12 13  1  0
 13 19  1  0
 14 15  1  0
 13 14  1  6
 16 15  1  0
 17 18  1  0
 17 16  1  0
 19 21  1  0
 20 19  2  0
M  END
$$$$
