ASK.pdb
     RDKit          3D

 21 20  0  0  1  0  0  0  0  0999 V2000
   24.2968  -13.6123  -19.6450 C   0  0  0  0  0  0  0  0  0  0  0  0
   25.3643  -13.7085  -18.5574 C   0  0  2  0  0  0  0  0  0  0  0  0
   25.4298  -15.0782  -18.1351 N   0  0  0  0  0  0  0  0  0  0  0  0
   24.9359  -12.7973  -17.4680 C   0  0  0  0  0  0  0  0  0  0  0  0
   23.7809  -12.9212  -17.0109 O   0  0  0  0  0  0  0  0  0  0  0  0
   27.2491   -9.5176  -16.5495 O   0  0  0  0  0  0  0  0  0  0  0  0
   26.5834  -10.0948  -15.4716 C   0  0  0  0  0  0  0  0  0  0  0  0
   25.3632  -10.8707  -15.9039 C   0  0  2  0  0  0  0  0  0  0  0  0
   25.7837  -11.8008  -16.9335 N   0  0  0  0  0  0  0  0  0  0  0  0
   24.3965   -9.8701  -16.4799 C   0  0  0  0  0  0  0  0  0  0  0  0
   24.4544   -9.5834  -17.6958 O   0  0  0  0  0  0  0  0  0  0  0  0
   23.4392   -9.2680  -15.6479 N   0  0  0  0  0  0  0  0  0  0  0  0
   22.4585   -8.2563  -16.2257 C   0  0  1  0  0  0  0  0  0  0  0  0
   21.4033   -9.1273  -16.7817 C   0  0  0  0  0  0  0  0  0  0  0  0
   21.1752   -9.3576  -18.1920 C   0  0  0  0  0  0  0  0  0  0  0  0
   20.0818  -10.3027  -18.5482 C   0  0  0  0  0  0  0  0  0  0  0  0
   19.9793  -10.4422  -20.0866 C   0  0  0  0  0  0  0  0  0  0  0  0
   18.8874  -11.3314  -20.3817 N   0  0  0  0  0  0  0  0  0  0  0  0
   22.1338   -7.4373  -15.0444 C   0  0  0  0  0  0  0  0  0  0  0  0
   22.2530   -7.9761  -13.8873 O   0  0  0  0  0  0  0  0  0  0  0  0
   21.7138   -6.1341  -15.0057 O   0  0  0  0  0  0  0  0  0  0  0  0
  2  1  1  6
  2  4  1  0
  3  2  1  0
  4  5  2  0
  8  7  1  6
  7  6  1  0
  8 10  1  0
  9  4  1  0
  9  8  1  0
 10 11  2  0
 12 10  1  0
 12 13  1  0
 13 19  1  0
 14 15  1  0
 13 14  1  1
 16 15  1  0
 17 18  1  0
 17 16  1  0
 19 21  1  0
 20 19  2  0
M  END
$$$$
