CKH.pdb
     RDKit          3D

 26 26  0  0  1  0  0  0  0  0999 V2000
   27.1649  -20.4807  -16.7531 N   0  0  0  0  0  0  0  0  0  0  0  0
   25.8981  -19.9470  -17.2055 C   0  0  1  0  0  0  0  0  0  0  0  0
   24.8238  -21.0183  -17.1567 C   0  0  0  0  0  0  0  0  0  0  0  0
   25.3833  -22.4629  -18.0946 S   0  0  0  0  0  0  0  0  0  0  0  0
   25.4896  -18.7639  -16.4092 C   0  0  0  0  0  0  0  0  0  0  0  0
   26.3566  -17.9288  -16.0819 O   0  0  0  0  0  0  0  0  0  0  0  0
   24.1632  -18.5524  -16.0122 N   0  0  0  0  0  0  0  0  0  0  0  0
   23.6203  -17.2887  -15.5599 C   0  0  1  0  0  0  0  0  0  0  0  0
   24.0565  -16.1492  -16.3987 C   0  0  0  0  0  0  0  0  0  0  0  0
   23.4824  -14.8329  -15.9912 C   0  0  0  0  0  0  0  0  0  0  0  0
   24.0362  -13.6984  -16.8785 C   0  0  0  0  0  0  0  0  0  0  0  0
   23.4743  -12.3735  -16.4599 C   0  0  0  0  0  0  0  0  0  0  0  0
   23.8826  -11.3506  -17.4353 N   0  0  0  0  0  0  0  0  0  0  0  0
   22.1799  -17.4583  -15.3591 C   0  0  0  0  0  0  0  0  0  0  0  0
   21.3571  -17.8043  -16.2649 O   0  0  0  0  0  0  0  0  0  0  0  0
   21.6114  -17.2334  -14.0837 N   0  0  0  0  0  0  0  0  0  0  0  0
   20.1946  -17.4027  -13.8616 C   0  0  1  0  0  0  0  0  0  0  0  0
   19.3926  -16.6650  -14.9138 C   0  0  0  0  0  0  0  0  0  0  0  0
   19.5426  -15.2023  -14.8059 C   0  0  0  0  0  0  0  0  0  0  0  0
   20.2834  -14.5113  -13.8750 C   0  0  0  0  0  0  0  0  0  0  0  0
   20.1421  -13.1816  -14.1414 N   0  0  0  0  0  0  0  0  0  0  0  0
   19.3405  -13.0412  -15.2025 C   0  0  0  0  0  0  0  0  0  0  0  0
   18.9821  -14.2573  -15.5992 N   0  0  0  0  0  0  0  0  0  0  0  0
   19.8024  -18.8280  -13.8174 C   0  0  0  0  0  0  0  0  0  0  0  0
   20.7166  -19.8534  -13.9295 O   0  0  0  0  0  0  0  0  0  0  0  0
   18.5897  -19.1194  -13.6723 O   0  0  0  0  0  0  0  0  0  0  0  0
  2  1  1  1
  2  5  1  0
  3  2  1  0
  4  3  1  0
  5  6  2  0
  7  5  1  0
  7  8  1  0
  8 14  1  0
  8  9  1  6
 10  9  1  0
 11 10  1  0
 12 11  1  0
 13 12  1  0
 14 15  2  0
 16 17  1  0
 16 14  1  0
 17 24  1  0
 17 18  1  6
 19 23  1  0
 19 18  1  0
 20 19  2  0
 21 20  1  0
 21 22  1  0
 22 23  2  0
 24 26  2  0
 24 25  1  0
M  END
$$$$
