CKH.pdb
     RDKit          3D

 26 26  0  0  1  0  0  0  0  0999 V2000
   27.2706  -20.6067  -10.4916 N   0  0  0  0  0  0  0  0  0  0  0  0
   25.9123  -20.9752  -10.8287 C   0  0  1  0  0  0  0  0  0  0  0  0
   24.9386  -20.3878   -9.8232 C   0  0  0  0  0  0  0  0  0  0  0  0
   25.5775  -20.6589   -8.1505 S   0  0  0  0  0  0  0  0  0  0  0  0
   25.5581  -20.5503  -12.2053 C   0  0  0  0  0  0  0  0  0  0  0  0
   25.7424  -19.3616  -12.5356 O   0  0  0  0  0  0  0  0  0  0  0  0
   25.0237  -21.4387  -13.1470 N   0  0  0  0  0  0  0  0  0  0  0  0
   24.6914  -21.1018  -14.5154 C   0  0  1  0  0  0  0  0  0  0  0  0
   25.3072  -22.0262  -15.4946 C   0  0  0  0  0  0  0  0  0  0  0  0
   26.7998  -22.0038  -15.5040 C   0  0  0  0  0  0  0  0  0  0  0  0
   27.3512  -22.8975  -16.6345 C   0  0  0  0  0  0  0  0  0  0  0  0
   28.8476  -22.9614  -16.5797 C   0  0  0  0  0  0  0  0  0  0  0  0
   29.3251  -23.8948  -17.6120 N   0  0  0  0  0  0  0  0  0  0  0  0
   23.2422  -20.9093  -14.5973 C   0  0  0  0  0  0  0  0  0  0  0  0
   22.3874  -21.5247  -13.8847 O   0  0  0  0  0  0  0  0  0  0  0  0
   22.7019  -19.9832  -15.5196 N   0  0  0  0  0  0  0  0  0  0  0  0
   21.3664  -19.4603  -15.3513 C   0  0  1  0  0  0  0  0  0  0  0  0
   21.2285  -18.7545  -14.0181 C   0  0  0  0  0  0  0  0  0  0  0  0
   19.8851  -18.1776  -13.8286 C   0  0  0  0  0  0  0  0  0  0  0  0
   18.8180  -18.2596  -14.6932 C   0  0  0  0  0  0  0  0  0  0  0  0
   17.7759  -17.5882  -14.1255 N   0  0  0  0  0  0  0  0  0  0  0  0
   18.1735  -17.1010  -12.9454 C   0  0  0  0  0  0  0  0  0  0  0  0
   19.4413  -17.4569  -12.7701 N   0  0  0  0  0  0  0  0  0  0  0  0
   20.9759  -18.5586  -16.4567 C   0  0  0  0  0  0  0  0  0  0  0  0
   21.7991  -18.3028  -17.5321 O   0  0  0  0  0  0  0  0  0  0  0  0
   19.8509  -18.0024  -16.4173 O   0  0  0  0  0  0  0  0  0  0  0  0
  2  1  1  1
  2  5  1  0
  3  2  1  0
  4  3  1  0
  5  6  2  0
  7  5  1  0
  7  8  1  0
  8 14  1  0
  8  9  1  6
 10  9  1  0
 11 10  1  0
 12 11  1  0
 13 12  1  0
 14 15  2  0
 16 17  1  0
 16 14  1  0
 17 24  1  0
 17 18  1  1
 19 23  1  0
 19 18  1  0
 20 19  2  0
 21 20  1  0
 21 22  1  0
 22 23  2  0
 24 26  2  0
 24 25  1  0
M  END
$$$$
