CKH.pdb
     RDKit          3D

 26 26  0  0  1  0  0  0  0  0999 V2000
   38.3506   -8.8300   -6.6877 N   0  0  0  0  0  0  0  0  0  0  0  0
   39.5694   -9.3495   -6.1054 C   0  0  1  0  0  0  0  0  0  0  0  0
   39.6108  -10.8623   -6.2242 C   0  0  0  0  0  0  0  0  0  0  0  0
   38.0789  -11.5525   -5.5485 S   0  0  0  0  0  0  0  0  0  0  0  0
   40.7721   -8.7456   -6.7295 C   0  0  0  0  0  0  0  0  0  0  0  0
   41.8992   -9.1602   -6.3921 O   0  0  0  0  0  0  0  0  0  0  0  0
   40.6852   -7.7252   -7.6850 N   0  0  0  0  0  0  0  0  0  0  0  0
   41.7990   -7.1997   -8.4464 C   0  0  1  0  0  0  0  0  0  0  0  0
   42.6341   -8.2668   -9.0434 C   0  0  0  0  0  0  0  0  0  0  0  0
   43.9473   -8.4701   -8.3634 C   0  0  0  0  0  0  0  0  0  0  0  0
   44.0107   -9.8649   -7.7063 C   0  0  0  0  0  0  0  0  0  0  0  0
   45.3295  -10.0721   -7.0250 C   0  0  0  0  0  0  0  0  0  0  0  0
   45.3385  -11.4009   -6.3935 N   0  0  0  0  0  0  0  0  0  0  0  0
   41.2859   -6.1679   -9.3497 C   0  0  0  0  0  0  0  0  0  0  0  0
   41.9875   -5.5347  -10.2006 O   0  0  0  0  0  0  0  0  0  0  0  0
   39.9175   -5.8121   -9.3138 N   0  0  0  0  0  0  0  0  0  0  0  0
   39.3863   -4.8118  -10.2097 C   0  0  1  0  0  0  0  0  0  0  0  0
   38.0299   -5.2291  -10.7396 C   0  0  0  0  0  0  0  0  0  0  0  0
   38.1181   -6.3858  -11.6494 C   0  0  0  0  0  0  0  0  0  0  0  0
   39.2575   -7.0569  -12.0291 C   0  0  0  0  0  0  0  0  0  0  0  0
   38.8828   -8.0568  -12.8770 N   0  0  0  0  0  0  0  0  0  0  0  0
   37.5544   -8.0160  -13.0253 C   0  0  0  0  0  0  0  0  0  0  0  0
   37.0981   -7.0107  -12.2863 N   0  0  0  0  0  0  0  0  0  0  0  0
   39.3055   -3.4788   -9.5740 C   0  0  0  0  0  0  0  0  0  0  0  0
   38.8914   -2.3550  -10.2560 O   0  0  0  0  0  0  0  0  0  0  0  0
   39.6259   -3.3626   -8.3655 O   0  0  0  0  0  0  0  0  0  0  0  0
  2  1  1  6
  2  5  1  0
  3  2  1  0
  4  3  1  0
  5  6  2  0
  7  5  1  0
  7  8  1  0
  8 14  1  0
  8  9  1  6
 10  9  1  0
 11 10  1  0
 12 11  1  0
 13 12  1  0
 14 15  2  0
 16 17  1  0
 16 14  1  0
 17 24  1  0
 17 18  1  1
 19 23  1  0
 19 18  1  0
 20 19  2  0
 21 20  1  0
 21 22  1  0
 22 23  2  0
 24 26  2  0
 24 25  1  0
M  END
$$$$
