CKH.pdb
     RDKit          3D

 26 26  0  0  1  0  0  0  0  0999 V2000
   32.3942  -15.9033  -20.4639 N   0  0  0  0  0  0  0  0  0  0  0  0
   31.5810  -14.8989  -19.8125 C   0  0  1  0  0  0  0  0  0  0  0  0
   32.2344  -13.5334  -19.9248 C   0  0  0  0  0  0  0  0  0  0  0  0
   31.2153  -12.3147  -19.0554 S   0  0  0  0  0  0  0  0  0  0  0  0
   30.2064  -14.8653  -20.3697 C   0  0  0  0  0  0  0  0  0  0  0  0
   30.0574  -14.8739  -21.6081 O   0  0  0  0  0  0  0  0  0  0  0  0
   29.0699  -14.8243  -19.5522 N   0  0  0  0  0  0  0  0  0  0  0  0
   27.7040  -14.7529  -20.0272 C   0  0  1  0  0  0  0  0  0  0  0  0
   26.7724  -15.5564  -19.2033 C   0  0  0  0  0  0  0  0  0  0  0  0
   26.9553  -17.0322  -19.3341 C   0  0  0  0  0  0  0  0  0  0  0  0
   25.9362  -17.7877  -18.4556 C   0  0  0  0  0  0  0  0  0  0  0  0
   26.1544  -19.2680  -18.5417 C   0  0  0  0  0  0  0  0  0  0  0  0
   25.2386  -19.9421  -17.6082 N   0  0  0  0  0  0  0  0  0  0  0  0
   27.3676  -13.3430  -20.2343 C   0  0  0  0  0  0  0  0  0  0  0  0
   27.6915  -12.3971  -19.4486 O   0  0  0  0  0  0  0  0  0  0  0  0
   26.6301  -12.9514  -21.3758 N   0  0  0  0  0  0  0  0  0  0  0  0
   26.2284  -11.5772  -21.5651 C   0  0  1  0  0  0  0  0  0  0  0  0
   27.0467  -10.9228  -22.6591 C   0  0  0  0  0  0  0  0  0  0  0  0
   26.6666   -9.5146  -22.8736 C   0  0  0  0  0  0  0  0  0  0  0  0
   26.4241   -8.5651  -21.9080 C   0  0  0  0  0  0  0  0  0  0  0  0
   26.1046   -7.4027  -22.5450 N   0  0  0  0  0  0  0  0  0  0  0  0
   26.1448   -7.6138  -23.8650 C   0  0  0  0  0  0  0  0  0  0  0  0
   26.4828   -8.8838  -24.0588 N   0  0  0  0  0  0  0  0  0  0  0  0
   24.7835  -11.4524  -21.8551 C   0  0  0  0  0  0  0  0  0  0  0  0
   24.0514  -10.3358  -21.5132 O   0  0  0  0  0  0  0  0  0  0  0  0
   24.1972  -12.3989  -22.4357 O   0  0  0  0  0  0  0  0  0  0  0  0
  2  1  1  6
  2  5  1  0
  3  2  1  0
  4  3  1  0
  5  6  2  0
  7  5  1  0
  7  8  1  0
  8 14  1  0
  8  9  1  1
 10  9  1  0
 11 10  1  0
 12 11  1  0
 13 12  1  0
 14 15  2  0
 16 17  1  0
 16 14  1  0
 17 24  1  0
 17 18  1  6
 19 23  1  0
 19 18  1  0
 20 19  2  0
 21 20  1  0
 21 22  1  0
 22 23  2  0
 24 26  2  0
 24 25  1  0
M  END
$$$$
