CKH.pdb
     RDKit          3D

 26 26  0  0  1  0  0  0  0  0999 V2000
   24.5641  -10.6557  -16.8917 N   0  0  0  0  0  0  0  0  0  0  0  0
   24.2001   -9.4669  -17.6324 C   0  0  1  0  0  0  0  0  0  0  0  0
   24.4510   -9.6690  -19.1158 C   0  0  0  0  0  0  0  0  0  0  0  0
   26.2139   -9.4332  -19.4569 S   0  0  0  0  0  0  0  0  0  0  0  0
   22.7868   -9.0859  -17.3910 C   0  0  0  0  0  0  0  0  0  0  0  0
   22.3717   -7.9967  -17.8351 O   0  0  0  0  0  0  0  0  0  0  0  0
   21.9024   -9.9078  -16.6811 N   0  0  0  0  0  0  0  0  0  0  0  0
   20.5317   -9.5726  -16.3568 C   0  0  1  0  0  0  0  0  0  0  0  0
   19.6518  -10.7624  -16.3057 C   0  0  0  0  0  0  0  0  0  0  0  0
   18.2265  -10.4573  -15.9834 C   0  0  0  0  0  0  0  0  0  0  0  0
   17.3817  -11.7485  -15.9729 C   0  0  0  0  0  0  0  0  0  0  0  0
   16.0490  -11.5171  -16.6183 C   0  0  0  0  0  0  0  0  0  0  0  0
   15.3052  -12.7861  -16.6492 N   0  0  0  0  0  0  0  0  0  0  0  0
   20.5430   -8.6982  -15.1824 C   0  0  0  0  0  0  0  0  0  0  0  0
   21.1316   -8.9630  -14.0867 O   0  0  0  0  0  0  0  0  0  0  0  0
   19.8650   -7.4574  -15.2169 N   0  0  0  0  0  0  0  0  0  0  0  0
   19.8041   -6.6115  -14.0480 C   0  0  1  0  0  0  0  0  0  0  0  0
   21.1917   -6.3501  -13.4995 C   0  0  0  0  0  0  0  0  0  0  0  0
   21.9558   -5.4101  -14.3398 C   0  0  0  0  0  0  0  0  0  0  0  0
   21.5122   -4.7557  -15.4657 C   0  0  0  0  0  0  0  0  0  0  0  0
   22.5402   -3.9883  -15.9275 N   0  0  0  0  0  0  0  0  0  0  0  0
   23.5935   -4.1541  -15.1203 C   0  0  0  0  0  0  0  0  0  0  0  0
   23.2388   -5.0091  -14.1674 N   0  0  0  0  0  0  0  0  0  0  0  0
   19.1056   -5.3360  -14.3172 C   0  0  0  0  0  0  0  0  0  0  0  0
   18.8584   -4.4029  -13.3334 O   0  0  0  0  0  0  0  0  0  0  0  0
   18.7213   -5.0898  -15.4870 O   0  0  0  0  0  0  0  0  0  0  0  0
  2  1  1  1
  2  5  1  0
  3  2  1  0
  4  3  1  0
  5  6  2  0
  7  5  1  0
  7  8  1  0
  8 14  1  0
  8  9  1  1
 10  9  1  0
 11 10  1  0
 12 11  1  0
 13 12  1  0
 14 15  2  0
 16 17  1  0
 16 14  1  0
 17 24  1  0
 17 18  1  6
 19 23  1  0
 19 18  1  0
 20 19  2  0
 21 20  1  0
 21 22  1  0
 22 23  2  0
 24 26  2  0
 24 25  1  0
M  END
$$$$
