CKH.pdb
     RDKit          3D

 26 26  0  0  1  0  0  0  0  0999 V2000
   27.7032  -17.9086  -19.5063 N   0  0  0  0  0  0  0  0  0  0  0  0
   26.7464  -17.4347  -18.5293 C   0  0  1  0  0  0  0  0  0  0  0  0
   25.8472  -16.3746  -19.1390 C   0  0  0  0  0  0  0  0  0  0  0  0
   26.8310  -14.8974  -19.4987 S   0  0  0  0  0  0  0  0  0  0  0  0
   25.9370  -18.5475  -17.9750 C   0  0  0  0  0  0  0  0  0  0  0  0
   25.4329  -19.3757  -18.7599 O   0  0  0  0  0  0  0  0  0  0  0  0
   25.7195  -18.7000  -16.5998 N   0  0  0  0  0  0  0  0  0  0  0  0
   24.9647  -19.7745  -15.9898 C   0  0  1  0  0  0  0  0  0  0  0  0
   25.6011  -20.2873  -14.7551 C   0  0  0  0  0  0  0  0  0  0  0  0
   24.7655  -21.2628  -13.9944 C   0  0  0  0  0  0  0  0  0  0  0  0
   24.9581  -22.6913  -14.5450 C   0  0  0  0  0  0  0  0  0  0  0  0
   24.1033  -23.6691  -13.7969 C   0  0  0  0  0  0  0  0  0  0  0  0
   24.1303  -24.9626  -14.4975 N   0  0  0  0  0  0  0  0  0  0  0  0
   23.5662  -19.3512  -15.8950 C   0  0  0  0  0  0  0  0  0  0  0  0
   23.1519  -18.3655  -15.2067 O   0  0  0  0  0  0  0  0  0  0  0  0
   22.5637  -20.0561  -16.6011 N   0  0  0  0  0  0  0  0  0  0  0  0
   21.1650  -19.7580  -16.4005 C   0  0  1  0  0  0  0  0  0  0  0  0
   20.2983  -20.6019  -17.3124 C   0  0  0  0  0  0  0  0  0  0  0  0
   18.8649  -20.2907  -17.1649 C   0  0  0  0  0  0  0  0  0  0  0  0
   18.2924  -19.4312  -16.2559 C   0  0  0  0  0  0  0  0  0  0  0  0
   16.9458  -19.4434  -16.4696 N   0  0  0  0  0  0  0  0  0  0  0  0
   16.6807  -20.2812  -17.4777 C   0  0  0  0  0  0  0  0  0  0  0  0
   17.8361  -20.7885  -17.8931 N   0  0  0  0  0  0  0  0  0  0  0  0
   20.7535  -19.9307  -14.9904 C   0  0  0  0  0  0  0  0  0  0  0  0
   21.1608  -21.0014  -14.2240 O   0  0  0  0  0  0  0  0  0  0  0  0
   20.0035  -19.0701  -14.4675 O   0  0  0  0  0  0  0  0  0  0  0  0
  2  1  1  6
  2  5  1  0
  3  2  1  0
  4  3  1  0
  5  6  2  0
  7  5  1  0
  7  8  1  0
  8 14  1  0
  8  9  1  1
 10  9  1  0
 11 10  1  0
 12 11  1  0
 13 12  1  0
 14 15  2  0
 16 17  1  0
 16 14  1  0
 17 24  1  0
 17 18  1  6
 19 23  1  0
 19 18  1  0
 20 19  2  0
 21 20  1  0
 21 22  1  0
 22 23  2  0
 24 26  2  0
 24 25  1  0
M  END
$$$$
