CKH.pdb
     RDKit          3D

 26 26  0  0  1  0  0  0  0  0999 V2000
   24.4139  -16.3815  -17.0629 N   0  0  0  0  0  0  0  0  0  0  0  0
   23.9570  -15.3185  -16.1937 C   0  0  1  0  0  0  0  0  0  0  0  0
   25.1297  -14.6914  -15.4617 C   0  0  0  0  0  0  0  0  0  0  0  0
   25.8794  -15.9287  -14.3724 S   0  0  0  0  0  0  0  0  0  0  0  0
   23.2011  -14.2868  -16.9454 C   0  0  0  0  0  0  0  0  0  0  0  0
   23.6469  -13.8918  -18.0415 O   0  0  0  0  0  0  0  0  0  0  0  0
   22.0036  -13.7410  -16.4662 N   0  0  0  0  0  0  0  0  0  0  0  0
   21.2269  -12.7190  -17.1360 C   0  0  1  0  0  0  0  0  0  0  0  0
   19.9306  -13.2278  -17.6391 C   0  0  0  0  0  0  0  0  0  0  0  0
   18.9695  -13.6228  -16.5673 C   0  0  0  0  0  0  0  0  0  0  0  0
   17.6091  -14.0233  -17.1756 C   0  0  0  0  0  0  0  0  0  0  0  0
   16.6487  -14.4389  -16.1027 C   0  0  0  0  0  0  0  0  0  0  0  0
   15.3709  -14.8191  -16.7250 N   0  0  0  0  0  0  0  0  0  0  0  0
   21.1918  -11.5361  -16.2737 C   0  0  0  0  0  0  0  0  0  0  0  0
   21.1143  -11.5657  -15.0048 O   0  0  0  0  0  0  0  0  0  0  0  0
   21.2454  -10.2427  -16.8435 N   0  0  0  0  0  0  0  0  0  0  0  0
   21.0650   -9.0641  -16.0287 C   0  0  1  0  0  0  0  0  0  0  0  0
   22.3347   -8.2390  -15.9867 C   0  0  0  0  0  0  0  0  0  0  0  0
   22.1836   -7.0243  -15.1650 C   0  0  0  0  0  0  0  0  0  0  0  0
   22.2258   -6.9414  -13.7923 C   0  0  0  0  0  0  0  0  0  0  0  0
   22.0415   -5.6337  -13.4532 N   0  0  0  0  0  0  0  0  0  0  0  0
   21.8887   -4.9192  -14.5733 C   0  0  0  0  0  0  0  0  0  0  0  0
   21.9747   -5.7579  -15.5999 N   0  0  0  0  0  0  0  0  0  0  0  0
   19.9263   -8.2382  -16.4854 C   0  0  0  0  0  0  0  0  0  0  0  0
   19.6709   -7.9978  -17.8183 O   0  0  0  0  0  0  0  0  0  0  0  0
   19.1599   -7.7343  -15.6279 O   0  0  0  0  0  0  0  0  0  0  0  0
  2  1  1  6
  2  5  1  0
  3  2  1  0
  4  3  1  0
  5  6  2  0
  7  5  1  0
  7  8  1  0
  8 14  1  0
  8  9  1  1
 10  9  1  0
 11 10  1  0
 12 11  1  0
 13 12  1  0
 14 15  2  0
 16 17  1  0
 16 14  1  0
 17 24  1  0
 17 18  1  6
 19 23  1  0
 19 18  1  0
 20 19  2  0
 21 20  1  0
 21 22  1  0
 22 23  2  0
 24 26  2  0
 24 25  1  0
M  END
$$$$
