CKH.pdb
     RDKit          3D

 26 26  0  0  1  0  0  0  0  0999 V2000
   22.9946  -17.0745  -20.8229 N   0  0  0  0  0  0  0  0  0  0  0  0
   23.2749  -16.5483  -19.5042 C   0  0  1  0  0  0  0  0  0  0  0  0
   22.5924  -15.2060  -19.3131 C   0  0  0  0  0  0  0  0  0  0  0  0
   23.0001  -14.1288  -20.7106 S   0  0  0  0  0  0  0  0  0  0  0  0
   22.8640  -17.4970  -18.4403 C   0  0  0  0  0  0  0  0  0  0  0  0
   21.6953  -17.9332  -18.4398 O   0  0  0  0  0  0  0  0  0  0  0  0
   23.7439  -17.9198  -17.4360 N   0  0  0  0  0  0  0  0  0  0  0  0
   23.3983  -18.8059  -16.3443 C   0  0  1  0  0  0  0  0  0  0  0  0
   24.5793  -19.4920  -15.7727 C   0  0  0  0  0  0  0  0  0  0  0  0
   25.2221  -20.4756  -16.6934 C   0  0  0  0  0  0  0  0  0  0  0  0
   26.4095  -21.1760  -16.0001 C   0  0  0  0  0  0  0  0  0  0  0  0
   27.0637  -22.1555  -16.9268 C   0  0  0  0  0  0  0  0  0  0  0  0
   28.2499  -22.7214  -16.2655 N   0  0  0  0  0  0  0  0  0  0  0  0
   22.5382  -18.0697  -15.4158 C   0  0  0  0  0  0  0  0  0  0  0  0
   22.7535  -16.8825  -15.0140 O   0  0  0  0  0  0  0  0  0  0  0  0
   21.3706  -18.6776  -14.8986 N   0  0  0  0  0  0  0  0  0  0  0  0
   20.3559  -17.8928  -14.2354 C   0  0  1  0  0  0  0  0  0  0  0  0
   19.8894  -16.7562  -15.1216 C   0  0  0  0  0  0  0  0  0  0  0  0
   18.7991  -15.9790  -14.5045 C   0  0  0  0  0  0  0  0  0  0  0  0
   18.2409  -16.1756  -13.2625 C   0  0  0  0  0  0  0  0  0  0  0  0
   17.2676  -15.2355  -13.0954 N   0  0  0  0  0  0  0  0  0  0  0  0
   17.2155  -14.4744  -14.1938 C   0  0  0  0  0  0  0  0  0  0  0  0
   18.1370  -14.9239  -15.0384 N   0  0  0  0  0  0  0  0  0  0  0  0
   19.2063  -18.7166  -13.8028 C   0  0  0  0  0  0  0  0  0  0  0  0
   18.5011  -18.4584  -12.6471 O   0  0  0  0  0  0  0  0  0  0  0  0
   18.8561  -19.6905  -14.5138 O   0  0  0  0  0  0  0  0  0  0  0  0
  2  1  1  6
  2  5  1  0
  3  2  1  0
  4  3  1  0
  5  6  2  0
  7  5  1  0
  7  8  1  0
  8 14  1  0
  8  9  1  1
 10  9  1  0
 11 10  1  0
 12 11  1  0
 13 12  1  0
 14 15  2  0
 16 17  1  0
 16 14  1  0
 17 24  1  0
 17 18  1  6
 19 23  1  0
 19 18  1  0
 20 19  2  0
 21 20  1  0
 21 22  1  0
 22 23  2  0
 24 26  2  0
 24 25  1  0
M  END
$$$$
