CKH.pdb
     RDKit          3D

 26 26  0  0  1  0  0  0  0  0999 V2000
   27.1862  -13.2737  -17.6142 N   0  0  0  0  0  0  0  0  0  0  0  0
   25.7746  -13.0888  -17.3545 C   0  0  1  0  0  0  0  0  0  0  0  0
   25.3624  -13.8436  -16.1036 C   0  0  0  0  0  0  0  0  0  0  0  0
   23.6041  -13.5494  -15.7854 S   0  0  0  0  0  0  0  0  0  0  0  0
   25.4264  -11.6518  -17.2334 C   0  0  0  0  0  0  0  0  0  0  0  0
   26.1417  -10.9157  -16.5244 O   0  0  0  0  0  0  0  0  0  0  0  0
   24.3216  -11.0932  -17.8884 N   0  0  0  0  0  0  0  0  0  0  0  0
   23.9099   -9.7082  -17.7944 C   0  0  1  0  0  0  0  0  0  0  0  0
   23.9285   -9.0190  -19.1048 C   0  0  0  0  0  0  0  0  0  0  0  0
   23.5289   -7.5818  -19.0472 C   0  0  0  0  0  0  0  0  0  0  0  0
   23.5673   -6.9486  -20.4538 C   0  0  0  0  0  0  0  0  0  0  0  0
   23.0797   -5.5320  -20.4126 C   0  0  0  0  0  0  0  0  0  0  0  0
   23.2301   -4.9348  -21.7489 N   0  0  0  0  0  0  0  0  0  0  0  0
   22.6631   -9.6552  -17.0286 C   0  0  0  0  0  0  0  0  0  0  0  0
   21.6740  -10.4362  -17.1984 O   0  0  0  0  0  0  0  0  0  0  0  0
   22.4956   -8.6835  -16.0147 N   0  0  0  0  0  0  0  0  0  0  0  0
   21.2864   -8.6328  -15.2268 C   0  0  1  0  0  0  0  0  0  0  0  0
   21.5211   -9.2024  -13.8429 C   0  0  0  0  0  0  0  0  0  0  0  0
   20.3280   -9.0910  -12.9841 C   0  0  0  0  0  0  0  0  0  0  0  0
   19.0784   -8.6500  -13.3540 C   0  0  0  0  0  0  0  0  0  0  0  0
   18.2780   -8.7096  -12.2518 N   0  0  0  0  0  0  0  0  0  0  0  0
   18.9989   -9.1719  -11.2247 C   0  0  0  0  0  0  0  0  0  0  0  0
   20.2302   -9.4000  -11.6682 N   0  0  0  0  0  0  0  0  0  0  0  0
   20.7358   -7.2632  -15.1359 C   0  0  0  0  0  0  0  0  0  0  0  0
   19.3820   -7.0089  -15.0886 O   0  0  0  0  0  0  0  0  0  0  0  0
   21.5299   -6.2912  -15.1000 O   0  0  0  0  0  0  0  0  0  0  0  0
  2  1  1  1
  2  5  1  0
  3  2  1  0
  4  3  1  0
  5  6  2  0
  7  5  1  0
  7  8  1  0
  8 14  1  0
  8  9  1  6
 10  9  1  0
 11 10  1  0
 12 11  1  0
 13 12  1  0
 14 15  2  0
 16 17  1  0
 16 14  1  0
 17 24  1  0
 17 18  1  1
 19 23  1  0
 19 18  1  0
 20 19  2  0
 21 20  1  0
 21 22  1  0
 22 23  2  0
 24 26  2  0
 24 25  1  0
M  END
$$$$
