CKH.pdb
     RDKit          3D

 26 26  0  0  1  0  0  0  0  0999 V2000
   20.6647  -17.2130  -18.9120 N   0  0  0  0  0  0  0  0  0  0  0  0
   20.6403  -18.1107  -17.7771 C   0  0  1  0  0  0  0  0  0  0  0  0
   19.2215  -18.2786  -17.2645 C   0  0  0  0  0  0  0  0  0  0  0  0
   18.7405  -16.7904  -16.3515 S   0  0  0  0  0  0  0  0  0  0  0  0
   21.2318  -19.4293  -18.1125 C   0  0  0  0  0  0  0  0  0  0  0  0
   20.8487  -20.0172  -19.1439 O   0  0  0  0  0  0  0  0  0  0  0  0
   22.2060  -20.0367  -17.3103 N   0  0  0  0  0  0  0  0  0  0  0  0
   22.8080  -21.3286  -17.5651 C   0  0  1  0  0  0  0  0  0  0  0  0
   24.1446  -21.2197  -18.1928 C   0  0  0  0  0  0  0  0  0  0  0  0
   25.2111  -20.7121  -17.2800 C   0  0  0  0  0  0  0  0  0  0  0  0
   26.5751  -20.6788  -18.0007 C   0  0  0  0  0  0  0  0  0  0  0  0
   27.6507  -20.1861  -17.0806 C   0  0  0  0  0  0  0  0  0  0  0  0
   28.9358  -20.1980  -17.7967 N   0  0  0  0  0  0  0  0  0  0  0  0
   22.7069  -22.1267  -16.3416 C   0  0  0  0  0  0  0  0  0  0  0  0
   22.3533  -21.6736  -15.2073 O   0  0  0  0  0  0  0  0  0  0  0  0
   23.0136  -23.5071  -16.3694 N   0  0  0  0  0  0  0  0  0  0  0  0
   22.9152  -24.3140  -15.1758 C   0  0  1  0  0  0  0  0  0  0  0  0
   21.5552  -24.1536  -14.5280 C   0  0  0  0  0  0  0  0  0  0  0  0
   21.4158  -24.9760  -13.3124 C   0  0  0  0  0  0  0  0  0  0  0  0
   22.3857  -25.7516  -12.7204 C   0  0  0  0  0  0  0  0  0  0  0  0
   21.8297  -26.3389  -11.6227 N   0  0  0  0  0  0  0  0  0  0  0  0
   20.5549  -25.9464  -11.5276 C   0  0  0  0  0  0  0  0  0  0  0  0
   20.3095  -25.1276  -12.5444 N   0  0  0  0  0  0  0  0  0  0  0  0
   23.1962  -25.7415  -15.4416 C   0  0  0  0  0  0  0  0  0  0  0  0
   23.1363  -26.7055  -14.4584 O   0  0  0  0  0  0  0  0  0  0  0  0
   23.5017  -26.0928  -16.6077 O   0  0  0  0  0  0  0  0  0  0  0  0
  2  1  1  6
  2  5  1  0
  3  2  1  0
  4  3  1  0
  5  6  2  0
  7  5  1  0
  7  8  1  0
  8 14  1  0
  8  9  1  1
 10  9  1  0
 11 10  1  0
 12 11  1  0
 13 12  1  0
 14 15  2  0
 16 17  1  0
 16 14  1  0
 17 24  1  0
 17 18  1  6
 19 23  1  0
 19 18  1  0
 20 19  2  0
 21 20  1  0
 21 22  1  0
 22 23  2  0
 24 26  2  0
 24 25  1  0
M  END
$$$$
