CKH.pdb
     RDKit          3D

 26 26  0  0  1  0  0  0  0  0999 V2000
   18.9170  -26.8527   -3.1678 N   0  0  0  0  0  0  0  0  0  0  0  0
   17.4701  -26.8214   -3.1770 C   0  0  1  0  0  0  0  0  0  0  0  0
   16.9300  -26.8652   -1.7590 C   0  0  0  0  0  0  0  0  0  0  0  0
   15.1717  -27.2957   -1.8069 S   0  0  0  0  0  0  0  0  0  0  0  0
   16.9554  -25.6286   -3.8932 C   0  0  0  0  0  0  0  0  0  0  0  0
   17.4835  -24.5198   -3.6751 O   0  0  0  0  0  0  0  0  0  0  0  0
   15.8962  -25.7051   -4.8064 N   0  0  0  0  0  0  0  0  0  0  0  0
   15.4116  -24.6057   -5.6144 C   0  0  1  0  0  0  0  0  0  0  0  0
   15.3470  -24.9433   -7.0547 C   0  0  0  0  0  0  0  0  0  0  0  0
   14.8651  -23.8297   -7.9242 C   0  0  0  0  0  0  0  0  0  0  0  0
   15.7082  -23.7410   -9.2136 C   0  0  0  0  0  0  0  0  0  0  0  0
   15.3937  -22.4854   -9.9690 C   0  0  0  0  0  0  0  0  0  0  0  0
   16.2840  -22.3934  -11.1368 N   0  0  0  0  0  0  0  0  0  0  0  0
   14.1907  -24.0884   -4.9934 C   0  0  0  0  0  0  0  0  0  0  0  0
   13.3115  -24.8034   -4.4164 O   0  0  0  0  0  0  0  0  0  0  0  0
   13.9220  -22.6999   -5.0088 N   0  0  0  0  0  0  0  0  0  0  0  0
   12.7233  -22.1686   -4.4036 C   0  0  1  0  0  0  0  0  0  0  0  0
   13.0650  -21.2513   -3.2474 C   0  0  0  0  0  0  0  0  0  0  0  0
   13.5228  -21.9964   -2.0606 C   0  0  0  0  0  0  0  0  0  0  0  0
   12.7764  -22.8439   -1.2748 C   0  0  0  0  0  0  0  0  0  0  0  0
   13.5915  -23.3159   -0.2891 N   0  0  0  0  0  0  0  0  0  0  0  0
   14.8080  -22.7841   -0.4492 C   0  0  0  0  0  0  0  0  0  0  0  0
   14.7631  -21.9917   -1.5146 N   0  0  0  0  0  0  0  0  0  0  0  0
   11.8659  -21.4677   -5.3838 C   0  0  0  0  0  0  0  0  0  0  0  0
   10.6825  -20.8555   -5.0311 O   0  0  0  0  0  0  0  0  0  0  0  0
   12.2269  -21.4268   -6.5857 O   0  0  0  0  0  0  0  0  0  0  0  0
  2  1  1  1
  2  5  1  0
  3  2  1  0
  4  3  1  0
  5  6  2  0
  7  5  1  0
  7  8  1  0
  8 14  1  0
  8  9  1  6
 10  9  1  0
 11 10  1  0
 12 11  1  0
 13 12  1  0
 14 15  2  0
 16 17  1  0
 16 14  1  0
 17 24  1  0
 17 18  1  1
 19 23  1  0
 19 18  1  0
 20 19  2  0
 21 20  1  0
 21 22  1  0
 22 23  2  0
 24 26  2  0
 24 25  1  0
M  END
$$$$
