AIM.pdb
     RDKit          3D

 22 21  0  0  1  0  0  0  0  0999 V2000
   20.9254  -19.9927  -13.8844 C   0  0  0  0  0  0  0  0  0  0  0  0
   22.2836  -19.9863  -13.2329 C   0  0  2  0  0  0  0  0  0  0  0  0
   23.2667  -20.3872  -14.1940 N   0  0  0  0  0  0  0  0  0  0  0  0
   22.3314  -20.7963  -11.9962 C   0  0  0  0  0  0  0  0  0  0  0  0
   22.3772  -22.0316  -12.0121 O   0  0  0  0  0  0  0  0  0  0  0  0
   25.7994  -19.6891   -7.9173 C   0  0  0  0  0  0  0  0  0  0  0  0
   24.9487  -20.3879   -8.9679 C   0  0  0  0  0  0  0  0  0  0  0  0
   23.5362  -20.5631   -8.5126 C   0  0  2  0  0  0  0  0  0  0  0  0
   23.4847  -21.4830   -7.3094 C   0  0  0  0  0  0  0  0  0  0  0  0
   22.5191  -20.9465   -9.4822 C   0  0  2  0  0  0  0  0  0  0  0  0
   22.3300  -20.2562  -10.6853 N   0  0  0  0  0  0  0  0  0  0  0  0
   21.1768  -21.2425   -8.9158 C   0  0  0  0  0  0  0  0  0  0  0  0
   20.3398  -20.3106   -8.8495 O   0  0  0  0  0  0  0  0  0  0  0  0
   17.3492  -24.5897  -11.3731 C   0  0  0  0  0  0  0  0  0  0  0  0
   16.7533  -25.2537   -9.8038 S   0  0  0  0  0  0  0  0  0  0  0  0
   17.4333  -24.2173   -8.4642 C   0  0  0  0  0  0  0  0  0  0  0  0
   18.8053  -23.7975   -8.8983 C   0  0  0  0  0  0  0  0  0  0  0  0
   19.4510  -22.8119   -7.9761 C   0  0  2  0  0  0  0  0  0  0  0  0
   20.8009  -22.5235   -8.4493 N   0  0  0  0  0  0  0  0  0  0  0  0
   19.5622  -23.2813   -6.5790 C   0  0  0  0  0  0  0  0  0  0  0  0
   20.6616  -23.7271   -6.1255 O   0  0  0  0  0  0  0  0  0  0  0  0
   18.4706  -23.2459   -5.7268 O   0  0  0  0  0  0  0  0  0  0  0  0
  2  1  1  6
  2  4  1  0
  3  2  1  0
  4 11  1  0
  5  4  2  0
  6  7  1  0
  8  9  1  1
  8  7  1  0
 10  8  1  0
 10 12  1  0
 10 11  1  6
 12 13  2  0
 12 19  1  0
 15 14  1  0
 16 15  1  0
 17 16  1  0
 18 17  1  6
 18 20  1  0
 19 18  1  0
 20 22  1  0
 21 20  2  0
M  END
$$$$
