AIM.pdb
     RDKit          3D

 22 21  0  0  1  0  0  0  0  0999 V2000
   28.8415  -17.9799  -14.8226 C   0  0  0  0  0  0  0  0  0  0  0  0
   27.6018  -18.7288  -15.2368 C   0  0  2  0  0  0  0  0  0  0  0  0
   27.1259  -18.1976  -16.4787 N   0  0  0  0  0  0  0  0  0  0  0  0
   26.5608  -18.7422  -14.1860 C   0  0  0  0  0  0  0  0  0  0  0  0
   25.9979  -17.7135  -13.7947 O   0  0  0  0  0  0  0  0  0  0  0  0
   21.7050  -20.2865  -14.5379 C   0  0  0  0  0  0  0  0  0  0  0  0
   23.0616  -19.6917  -14.1888 C   0  0  0  0  0  0  0  0  0  0  0  0
   23.6978  -20.3976  -13.0355 C   0  0  2  0  0  0  0  0  0  0  0  0
   22.7636  -20.3972  -11.8422 C   0  0  0  0  0  0  0  0  0  0  0  0
   25.0413  -20.0162  -12.6220 C   0  0  2  0  0  0  0  0  0  0  0  0
   26.1044  -19.9116  -13.5268 N   0  0  0  0  0  0  0  0  0  0  0  0
   25.5514  -20.6973  -11.4030 C   0  0  0  0  0  0  0  0  0  0  0  0
   25.5736  -21.9514  -11.3868 O   0  0  0  0  0  0  0  0  0  0  0  0
   28.5319  -19.6854   -4.1495 C   0  0  0  0  0  0  0  0  0  0  0  0
   28.1591  -19.0108   -5.7819 S   0  0  0  0  0  0  0  0  0  0  0  0
   27.2070  -20.2673   -6.7016 C   0  0  0  0  0  0  0  0  0  0  0  0
   27.0206  -19.7353   -8.0906 C   0  0  0  0  0  0  0  0  0  0  0  0
   26.2866  -20.6714   -8.9981 C   0  0  2  0  0  0  0  0  0  0  0  0
   26.0117  -19.9981  -10.2632 N   0  0  0  0  0  0  0  0  0  0  0  0
   24.9943  -21.1418   -8.4567 C   0  0  0  0  0  0  0  0  0  0  0  0
   23.9088  -20.5531   -8.7538 O   0  0  0  0  0  0  0  0  0  0  0  0
   24.9326  -22.2380   -7.6120 O   0  0  0  0  0  0  0  0  0  0  0  0
  2  1  1  1
  2  4  1  0
  3  2  1  0
  4 11  1  0
  5  4  2  0
  6  7  1  0
  8  9  1  1
  8  7  1  0
 10  8  1  0
 10 12  1  0
 10 11  1  6
 12 13  2  0
 12 19  1  0
 15 14  1  0
 16 15  1  0
 17 16  1  0
 18 17  1  1
 18 20  1  0
 19 18  1  0
 20 22  1  0
 21 20  2  0
M  END
$$$$
