AIM.pdb
     RDKit          3D

 22 21  0  0  1  0  0  0  0  0999 V2000
   28.9528  -21.0673  -14.7236 C   0  0  0  0  0  0  0  0  0  0  0  0
   27.8490  -20.1069  -14.3651 C   0  0  2  0  0  0  0  0  0  0  0  0
   28.4250  -18.9048  -13.8415 N   0  0  0  0  0  0  0  0  0  0  0  0
   26.8436  -20.7003  -13.4568 C   0  0  0  0  0  0  0  0  0  0  0  0
   26.3067  -21.7910  -13.6811 O   0  0  0  0  0  0  0  0  0  0  0  0
   26.9792  -20.1221   -7.8545 C   0  0  0  0  0  0  0  0  0  0  0  0
   26.8905  -20.7325   -9.2457 C   0  0  0  0  0  0  0  0  0  0  0  0
   25.5875  -20.4206   -9.9074 C   0  0  2  0  0  0  0  0  0  0  0  0
   24.4539  -21.1232   -9.1877 C   0  0  0  0  0  0  0  0  0  0  0  0
   25.4593  -20.6041  -11.3467 C   0  0  2  0  0  0  0  0  0  0  0  0
   26.3953  -20.0958  -12.2551 N   0  0  0  0  0  0  0  0  0  0  0  0
   24.1049  -20.3497  -11.9043 C   0  0  0  0  0  0  0  0  0  0  0  0
   23.7624  -19.1621  -12.1182 O   0  0  0  0  0  0  0  0  0  0  0  0
   21.5191  -22.9768  -16.9399 C   0  0  0  0  0  0  0  0  0  0  0  0
   20.1432  -23.2448  -15.8024 S   0  0  0  0  0  0  0  0  0  0  0  0
   20.2496  -21.9817  -14.4893 C   0  0  0  0  0  0  0  0  0  0  0  0
   21.6091  -22.1152  -13.8720 C   0  0  0  0  0  0  0  0  0  0  0  0
   21.8802  -21.1123  -12.7952 C   0  0  2  0  0  0  0  0  0  0  0  0
   23.1867  -21.3826  -12.2042 N   0  0  0  0  0  0  0  0  0  0  0  0
   20.8876  -21.1248  -11.7002 C   0  0  0  0  0  0  0  0  0  0  0  0
   21.1185  -21.7457  -10.6165 O   0  0  0  0  0  0  0  0  0  0  0  0
   19.6796  -20.4585  -11.8263 O   0  0  0  0  0  0  0  0  0  0  0  0
  2  1  1  1
  2  4  1  0
  3  2  1  0
  4 11  1  0
  5  4  2  0
  6  7  1  0
  8  9  1  1
  8  7  1  0
 10  8  1  0
 10 12  1  0
 10 11  1  6
 12 13  2  0
 12 19  1  0
 15 14  1  0
 16 15  1  0
 17 16  1  0
 18 17  1  6
 18 20  1  0
 19 18  1  0
 20 22  1  0
 21 20  2  0
M  END
$$$$
