AIM.pdb
     RDKit          3D

 22 21  0  0  1  0  0  0  0  0999 V2000
   18.8883  -31.9980   -6.4086 C   0  0  0  0  0  0  0  0  0  0  0  0
   19.5784  -32.5583   -7.6247 C   0  0  2  0  0  0  0  0  0  0  0  0
   18.6940  -33.4691   -8.2878 N   0  0  0  0  0  0  0  0  0  0  0  0
   20.8913  -33.1638   -7.3124 C   0  0  0  0  0  0  0  0  0  0  0  0
   21.0017  -34.2760   -6.7842 O   0  0  0  0  0  0  0  0  0  0  0  0
   26.7517  -33.3734   -9.3055 C   0  0  0  0  0  0  0  0  0  0  0  0
   25.7600  -33.6770   -8.1919 C   0  0  0  0  0  0  0  0  0  0  0  0
   24.5057  -32.8768   -8.3312 C   0  0  2  0  0  0  0  0  0  0  0  0
   24.8341  -31.3998   -8.4161 C   0  0  0  0  0  0  0  0  0  0  0  0
   23.4146  -33.0958   -7.3914 C   0  0  2  0  0  0  0  0  0  0  0  0
   22.1402  -32.5477   -7.5790 N   0  0  0  0  0  0  0  0  0  0  0  0
   23.7673  -32.9371   -5.9559 C   0  0  0  0  0  0  0  0  0  0  0  0
   23.6283  -31.8069   -5.4299 O   0  0  0  0  0  0  0  0  0  0  0  0
   21.7626  -33.8981    0.3708 C   0  0  0  0  0  0  0  0  0  0  0  0
   22.5712  -35.2316   -0.5384 S   0  0  0  0  0  0  0  0  0  0  0  0
   23.9884  -34.5152   -1.4380 C   0  0  0  0  0  0  0  0  0  0  0  0
   23.6002  -34.4667   -2.8851 C   0  0  0  0  0  0  0  0  0  0  0  0
   24.6233  -33.8124   -3.7592 C   0  0  2  0  0  0  0  0  0  0  0  0
   24.2514  -33.9994   -5.1577 N   0  0  0  0  0  0  0  0  0  0  0  0
   25.9898  -34.3493   -3.5886 C   0  0  0  0  0  0  0  0  0  0  0  0
   26.4950  -35.1345   -4.4496 O   0  0  0  0  0  0  0  0  0  0  0  0
   26.7560  -34.0092   -2.4858 O   0  0  0  0  0  0  0  0  0  0  0  0
  2  1  1  1
  2  4  1  0
  3  2  1  0
  4 11  1  0
  5  4  2  0
  6  7  1  0
  8  9  1  1
  8  7  1  0
 10  8  1  0
 10 12  1  0
 10 11  1  6
 12 13  2  0
 12 19  1  0
 15 14  1  0
 16 15  1  0
 17 16  1  0
 18 17  1  1
 18 20  1  0
 19 18  1  0
 20 22  1  0
 21 20  2  0
M  END
$$$$
