AIM.pdb
     RDKit          3D

 22 21  0  0  1  0  0  0  0  0999 V2000
   20.8068  -18.1740  -11.0497 C   0  0  0  0  0  0  0  0  0  0  0  0
   21.0959  -19.4593  -11.7801 C   0  0  2  0  0  0  0  0  0  0  0  0
   19.9091  -20.2605  -11.8071 N   0  0  0  0  0  0  0  0  0  0  0  0
   22.2610  -20.1843  -11.2282 C   0  0  0  0  0  0  0  0  0  0  0  0
   22.1492  -21.0656  -10.3685 O   0  0  0  0  0  0  0  0  0  0  0  0
   25.0838  -23.1220  -14.4717 C   0  0  0  0  0  0  0  0  0  0  0  0
   24.4086  -22.5815  -13.2196 C   0  0  0  0  0  0  0  0  0  0  0  0
   25.2734  -21.5954  -12.5035 C   0  0  2  0  0  0  0  0  0  0  0  0
   26.5536  -22.2615  -12.0407 C   0  0  0  0  0  0  0  0  0  0  0  0
   24.7022  -20.8005  -11.4248 C   0  0  2  0  0  0  0  0  0  0  0  0
   23.6049  -19.9527  -11.6164 N   0  0  0  0  0  0  0  0  0  0  0  0
   25.6852  -20.0809  -10.5728 C   0  0  0  0  0  0  0  0  0  0  0  0
   26.0872  -18.9539  -10.9493 O   0  0  0  0  0  0  0  0  0  0  0  0
   26.6557  -19.4572   -4.4722 C   0  0  0  0  0  0  0  0  0  0  0  0
   28.3258  -20.0594   -4.7989 S   0  0  0  0  0  0  0  0  0  0  0  0
   28.6403  -19.8912   -6.5888 C   0  0  0  0  0  0  0  0  0  0  0  0
   27.3695  -20.2711   -7.2872 C   0  0  0  0  0  0  0  0  0  0  0  0
   27.4442  -20.1502   -8.7767 C   0  0  2  0  0  0  0  0  0  0  0  0
   26.1872  -20.6073   -9.3600 N   0  0  0  0  0  0  0  0  0  0  0  0
   28.5309  -20.9429   -9.3892 C   0  0  0  0  0  0  0  0  0  0  0  0
   28.3832  -22.1827   -9.6222 O   0  0  0  0  0  0  0  0  0  0  0  0
   29.7387  -20.3544   -9.7266 O   0  0  0  0  0  0  0  0  0  0  0  0
  2  1  1  1
  2  4  1  0
  3  2  1  0
  4 11  1  0
  5  4  2  0
  6  7  1  0
  8  9  1  1
  8  7  1  0
 10  8  1  0
 10 12  1  0
 10 11  1  6
 12 13  2  0
 12 19  1  0
 15 14  1  0
 16 15  1  0
 17 16  1  0
 18 17  1  1
 18 20  1  0
 19 18  1  0
 20 22  1  0
 21 20  2  0
M  END
$$$$
