AIM.pdb
     RDKit          3D

 22 21  0  0  1  0  0  0  0  0999 V2000
   19.3758  -11.2816  -20.4782 C   0  0  0  0  0  0  0  0  0  0  0  0
   20.2601  -11.9757  -19.4755 C   0  0  2  0  0  0  0  0  0  0  0  0
   19.7913  -13.3155  -19.2850 N   0  0  0  0  0  0  0  0  0  0  0  0
   20.3842  -11.2289  -18.2047 C   0  0  0  0  0  0  0  0  0  0  0  0
   19.4251  -11.0411  -17.4477 O   0  0  0  0  0  0  0  0  0  0  0  0
   24.7717  -11.6714  -14.6889 C   0  0  0  0  0  0  0  0  0  0  0  0
   23.4558  -11.6369  -15.4525 C   0  0  0  0  0  0  0  0  0  0  0  0
   22.9888  -10.2377  -15.6920 C   0  0  2  0  0  0  0  0  0  0  0  0
   22.8754   -9.4919  -14.3777 C   0  0  0  0  0  0  0  0  0  0  0  0
   21.7983  -10.0143  -16.5010 C   0  0  2  0  0  0  0  0  0  0  0  0
   21.5909  -10.6587  -17.7263 N   0  0  0  0  0  0  0  0  0  0  0  0
   21.3957   -8.5926  -16.6648 C   0  0  0  0  0  0  0  0  0  0  0  0
   22.0761   -7.8650  -17.4271 O   0  0  0  0  0  0  0  0  0  0  0  0
   15.4040   -6.3503  -15.5813 C   0  0  0  0  0  0  0  0  0  0  0  0
   16.0757   -5.3665  -16.9375 S   0  0  0  0  0  0  0  0  0  0  0  0
   17.8741   -5.2037  -16.6725 C   0  0  0  0  0  0  0  0  0  0  0  0
   18.4158   -6.5938  -16.5266 C   0  0  0  0  0  0  0  0  0  0  0  0
   19.8786   -6.6381  -16.2148 C   0  0  2  0  0  0  0  0  0  0  0  0
   20.2833   -8.0238  -16.0024 N   0  0  0  0  0  0  0  0  0  0  0  0
   20.2577   -5.8757  -15.0066 C   0  0  0  0  0  0  0  0  0  0  0  0
   20.3105   -6.4385  -13.8693 O   0  0  0  0  0  0  0  0  0  0  0  0
   20.5668   -4.5275  -15.0831 O   0  0  0  0  0  0  0  0  0  0  0  0
  2  1  1  6
  2  4  1  0
  3  2  1  0
  4 11  1  0
  5  4  2  0
  6  7  1  0
  8  9  1  1
  8  7  1  0
 10  8  1  0
 10 12  1  0
 10 11  1  6
 12 13  2  0
 12 19  1  0
 15 14  1  0
 16 15  1  0
 17 16  1  0
 18 17  1  1
 18 20  1  0
 19 18  1  0
 20 22  1  0
 21 20  2  0
M  END
$$$$
