AIM.pdb
     RDKit          3D

 22 21  0  0  1  0  0  0  0  0999 V2000
   20.8328  -17.5138  -14.4311 C   0  0  0  0  0  0  0  0  0  0  0  0
   21.6461  -17.2245  -15.6656 C   0  0  2  0  0  0  0  0  0  0  0  0
   20.8922  -17.6025  -16.8232 N   0  0  0  0  0  0  0  0  0  0  0  0
   22.9869  -17.8482  -15.6296 C   0  0  0  0  0  0  0  0  0  0  0  0
   23.1505  -19.0735  -15.6378 O   0  0  0  0  0  0  0  0  0  0  0  0
   28.0612  -18.3167  -17.7901 C   0  0  0  0  0  0  0  0  0  0  0  0
   27.9175  -17.6545  -16.4275 C   0  0  0  0  0  0  0  0  0  0  0  0
   26.6031  -16.9583  -16.2837 C   0  0  2  0  0  0  0  0  0  0  0  0
   26.8029  -15.5831  -15.6793 C   0  0  0  0  0  0  0  0  0  0  0  0
   25.5041  -17.6448  -15.6183 C   0  0  2  0  0  0  0  0  0  0  0  0
   24.2050  -17.1242  -15.5824 N   0  0  0  0  0  0  0  0  0  0  0  0
   25.8123  -18.1827  -14.2671 C   0  0  0  0  0  0  0  0  0  0  0  0
   25.9357  -17.3724  -13.3175 O   0  0  0  0  0  0  0  0  0  0  0  0
   23.5773  -20.5614   -9.6869 C   0  0  0  0  0  0  0  0  0  0  0  0
   25.3522  -20.7490   -9.4164 S   0  0  0  0  0  0  0  0  0  0  0  0
   26.0468  -21.6303  -10.8558 C   0  0  0  0  0  0  0  0  0  0  0  0
   25.5211  -20.9403  -12.0784 C   0  0  0  0  0  0  0  0  0  0  0  0
   26.5250  -20.0537  -12.7453 C   0  0  2  0  0  0  0  0  0  0  0  0
   25.9723  -19.5628  -14.0035 N   0  0  0  0  0  0  0  0  0  0  0  0
   27.8052  -20.7242  -13.0555 C   0  0  0  0  0  0  0  0  0  0  0  0
   28.0115  -21.2418  -14.1968 O   0  0  0  0  0  0  0  0  0  0  0  0
   28.8144  -20.8045  -12.1099 O   0  0  0  0  0  0  0  0  0  0  0  0
  2  1  1  1
  2  4  1  0
  3  2  1  0
  4 11  1  0
  5  4  2  0
  6  7  1  0
  8  9  1  1
  8  7  1  0
 10  8  1  0
 10 12  1  0
 10 11  1  1
 12 13  2  0
 12 19  1  0
 15 14  1  0
 16 15  1  0
 17 16  1  0
 18 17  1  6
 18 20  1  0
 19 18  1  0
 20 22  1  0
 21 20  2  0
M  END
$$$$
