AIM.pdb
     RDKit          3D

 22 21  0  0  1  0  0  0  0  0999 V2000
   18.3261  -12.9361  -18.8626 C   0  0  0  0  0  0  0  0  0  0  0  0
   18.6174  -12.1914  -20.1393 C   0  0  2  0  0  0  0  0  0  0  0  0
   19.1372  -13.1083  -21.1089 N   0  0  0  0  0  0  0  0  0  0  0  0
   19.4967  -11.0199  -19.9332 C   0  0  0  0  0  0  0  0  0  0  0  0
   20.7269  -11.1170  -19.8594 O   0  0  0  0  0  0  0  0  0  0  0  0
   18.1801   -5.6716  -21.6601 C   0  0  0  0  0  0  0  0  0  0  0  0
   18.7581   -7.0631  -21.4470 C   0  0  0  0  0  0  0  0  0  0  0  0
   19.3461   -7.2176  -20.0820 C   0  0  2  0  0  0  0  0  0  0  0  0
   20.4292   -6.1814  -19.8586 C   0  0  0  0  0  0  0  0  0  0  0  0
   19.8096   -8.5298  -19.6519 C   0  0  2  0  0  0  0  0  0  0  0  0
   19.0346   -9.6861  -19.8006 N   0  0  0  0  0  0  0  0  0  0  0  0
   20.4346   -8.5756  -18.3038 C   0  0  0  0  0  0  0  0  0  0  0  0
   19.6834   -8.6239  -17.3004 O   0  0  0  0  0  0  0  0  0  0  0  0
   26.7991  -10.7417  -14.2978 C   0  0  0  0  0  0  0  0  0  0  0  0
   25.9910  -10.4257  -15.8808 S   0  0  0  0  0  0  0  0  0  0  0  0
   24.4199   -9.5604  -15.5433 C   0  0  0  0  0  0  0  0  0  0  0  0
   23.7103   -9.4274  -16.8570 C   0  0  0  0  0  0  0  0  0  0  0  0
   22.4261   -8.6644  -16.7707 C   0  0  2  0  0  0  0  0  0  0  0  0
   21.8341   -8.5672  -18.1008 N   0  0  0  0  0  0  0  0  0  0  0  0
   22.5794   -7.2887  -16.2524 C   0  0  0  0  0  0  0  0  0  0  0  0
   22.8470   -6.3230  -17.0328 O   0  0  0  0  0  0  0  0  0  0  0  0
   22.4339   -7.0160  -14.9021 O   0  0  0  0  0  0  0  0  0  0  0  0
  2  1  1  1
  2  4  1  0
  3  2  1  0
  4 11  1  0
  5  4  2  0
  6  7  1  0
  8  9  1  6
  8  7  1  0
 10  8  1  0
 10 12  1  0
 10 11  1  1
 12 13  2  0
 12 19  1  0
 15 14  1  0
 16 15  1  0
 17 16  1  0
 18 17  1  6
 18 20  1  0
 19 18  1  0
 20 22  1  0
 21 20  2  0
M  END
$$$$
