SWE.pdb
     RDKit          3D

 30 31  0  0  1  0  0  0  0  0999 V2000
   27.7558  -21.2962  -15.7390 O   0  0  0  0  0  0  0  0  0  0  0  0
   26.5034  -20.8394  -15.3639 C   0  0  0  0  0  0  0  0  0  0  0  0
   26.6162  -19.3432  -15.0880 C   0  0  2  0  0  0  0  0  0  0  0  0
   27.3300  -19.1447  -13.8597 N   0  0  0  0  0  0  0  0  0  0  0  0
   25.2244  -18.8240  -15.0310 C   0  0  0  0  0  0  0  0  0  0  0  0
   24.6599  -18.8465  -13.9076 O   0  0  0  0  0  0  0  0  0  0  0  0
   24.6158  -18.3385  -16.2240 N   0  0  0  0  0  0  0  0  0  0  0  0
   23.3522  -17.6512  -16.0906 C   0  0  1  0  0  0  0  0  0  0  0  0
   23.3839  -16.4143  -16.9203 C   0  0  0  0  0  0  0  0  0  0  0  0
   24.2341  -15.3684  -16.3072 C   0  0  0  0  0  0  0  0  0  0  0  0
   23.8818  -14.4817  -15.3201 C   0  0  0  0  0  0  0  0  0  0  0  0
   24.9230  -13.6845  -15.0246 N   0  0  0  0  0  0  0  0  0  0  0  0
   25.9676  -14.0498  -15.8233 C   0  0  0  0  0  0  0  0  0  0  0  0
   27.2657  -13.5781  -15.9467 C   0  0  0  0  0  0  0  0  0  0  0  0
   28.1337  -14.1428  -16.8569 C   0  0  0  0  0  0  0  0  0  0  0  0
   27.7086  -15.1904  -17.6563 C   0  0  0  0  0  0  0  0  0  0  0  0
   26.4309  -15.6682  -17.5474 C   0  0  0  0  0  0  0  0  0  0  0  0
   25.5475  -15.0957  -16.6232 C   0  0  0  0  0  0  0  0  0  0  0  0
   22.2707  -18.5857  -16.3847 C   0  0  0  0  0  0  0  0  0  0  0  0
   22.4493  -19.3887  -17.3538 O   0  0  0  0  0  0  0  0  0  0  0  0
   21.0539  -18.6849  -15.7034 N   0  0  0  0  0  0  0  0  0  0  0  0
   20.1133  -19.7423  -15.9644 C   0  0  1  0  0  0  0  0  0  0  0  0
   19.1450  -19.9339  -14.8312 C   0  0  0  0  0  0  0  0  0  0  0  0
   18.3546  -18.7527  -14.4265 C   0  0  0  0  0  0  0  0  0  0  0  0
   18.0703  -18.6677  -12.9729 C   0  0  0  0  0  0  0  0  0  0  0  0
   18.0403  -19.6462  -12.1877 O   0  0  0  0  0  0  0  0  0  0  0  0
   19.4324  -19.5761  -17.2722 C   0  0  0  0  0  0  0  0  0  0  0  0
   18.8804  -20.5435  -17.8794 O   0  0  0  0  0  0  0  0  0  0  0  0
   17.8050  -17.4271  -12.3588 O   0  0  0  0  0  0  0  0  0  0  0  0
   19.3568  -18.3490  -17.9139 O   0  0  0  0  0  0  0  0  0  0  0  0
  2  3  1  0
  2  1  1  0
  3  4  1  1
  5  6  2  0
  5  3  1  0
  7  5  1  0
  8  7  1  0
  9 10  1  0
  8  9  1  6
 10 18  1  0
 10 11  2  0
 11 12  1  0
 13 12  1  0
 13 14  2  0
 15 14  1  0
 16 15  2  0
 17 18  2  0
 17 16  1  0
 18 13  1  0
 19 20  2  0
 19  8  1  0
 21 19  1  0
 22 23  1  1
 22 21  1  0
 24 25  1  0
 24 23  1  0
 25 29  1  0
 26 25  2  0
 27 22  1  0
 28 27  2  0
 30 27  1  0
M  END
$$$$
