SWE.pdb
     RDKit          3D

 30 31  0  0  1  0  0  0  0  0999 V2000
   26.0602  -28.1133  -16.7274 O   0  0  0  0  0  0  0  0  0  0  0  0
   26.7918  -27.5944  -17.7825 C   0  0  0  0  0  0  0  0  0  0  0  0
   27.4215  -26.2861  -17.3144 C   0  0  2  0  0  0  0  0  0  0  0  0
   28.1918  -26.5331  -16.1299 N   0  0  0  0  0  0  0  0  0  0  0  0
   26.2965  -25.3432  -17.0788 C   0  0  0  0  0  0  0  0  0  0  0  0
   26.1074  -24.9768  -15.8909 O   0  0  0  0  0  0  0  0  0  0  0  0
   25.5091  -24.9126  -18.1852 N   0  0  0  0  0  0  0  0  0  0  0  0
   24.4896  -23.9223  -17.9270 C   0  0  1  0  0  0  0  0  0  0  0  0
   24.3320  -23.0637  -19.1342 C   0  0  0  0  0  0  0  0  0  0  0  0
   23.3316  -21.9941  -18.9156 C   0  0  0  0  0  0  0  0  0  0  0  0
   23.3106  -21.0681  -17.9023 C   0  0  0  0  0  0  0  0  0  0  0  0
   22.2448  -20.2604  -18.0391 N   0  0  0  0  0  0  0  0  0  0  0  0
   21.5600  -20.6584  -19.1505 C   0  0  0  0  0  0  0  0  0  0  0  0
   20.4031  -20.1938  -19.7578 C   0  0  0  0  0  0  0  0  0  0  0  0
   19.9200  -20.7964  -20.8999 C   0  0  0  0  0  0  0  0  0  0  0  0
   20.5934  -21.8750  -21.4478 C   0  0  0  0  0  0  0  0  0  0  0  0
   21.7365  -22.3461  -20.8613 C   0  0  0  0  0  0  0  0  0  0  0  0
   22.2291  -21.7353  -19.7009 C   0  0  0  0  0  0  0  0  0  0  0  0
   23.2806  -24.5957  -17.4644 C   0  0  0  0  0  0  0  0  0  0  0  0
   23.0217  -25.7314  -17.9733 O   0  0  0  0  0  0  0  0  0  0  0  0
   22.3762  -24.1131  -16.5136 N   0  0  0  0  0  0  0  0  0  0  0  0
   21.2157  -24.8623  -16.1102 C   0  0  1  0  0  0  0  0  0  0  0  0
   21.1880  -25.1130  -14.6287 C   0  0  0  0  0  0  0  0  0  0  0  0
   20.0106  -25.8320  -14.0990 C   0  0  0  0  0  0  0  0  0  0  0  0
   20.0428  -26.0773  -12.6361 C   0  0  0  0  0  0  0  0  0  0  0  0
   19.2030  -25.6362  -11.8145 O   0  0  0  0  0  0  0  0  0  0  0  0
   19.9565  -24.2554  -16.6078 C   0  0  0  0  0  0  0  0  0  0  0  0
   18.9930  -24.9531  -17.0485 O   0  0  0  0  0  0  0  0  0  0  0  0
   21.0642  -26.8557  -12.0552 O   0  0  0  0  0  0  0  0  0  0  0  0
   19.7538  -22.8836  -16.6220 O   0  0  0  0  0  0  0  0  0  0  0  0
  2  3  1  0
  2  1  1  0
  3  4  1  1
  5  6  2  0
  5  3  1  0
  7  5  1  0
  8  7  1  0
  9 10  1  0
  8  9  1  6
 10 18  1  0
 10 11  2  0
 11 12  1  0
 13 12  1  0
 13 14  2  0
 15 14  1  0
 16 15  2  0
 17 18  2  0
 17 16  1  0
 18 13  1  0
 19 20  2  0
 19  8  1  0
 21 19  1  0
 22 23  1  1
 22 21  1  0
 24 25  1  0
 24 23  1  0
 25 29  1  0
 26 25  2  0
 27 22  1  0
 28 27  2  0
 30 27  1  0
M  END
$$$$
