SWE.pdb
     RDKit          3D

 30 31  0  0  1  0  0  0  0  0999 V2000
   27.9486  -18.6389  -14.8302 O   0  0  0  0  0  0  0  0  0  0  0  0
   27.2483  -19.7945  -15.1336 C   0  0  0  0  0  0  0  0  0  0  0  0
   27.9306  -20.9551  -14.4161 C   0  0  2  0  0  0  0  0  0  0  0  0
   27.9265  -22.1049  -15.2736 N   0  0  0  0  0  0  0  0  0  0  0  0
   27.1663  -21.1755  -13.1601 C   0  0  0  0  0  0  0  0  0  0  0  0
   26.0883  -21.8149  -13.2611 O   0  0  0  0  0  0  0  0  0  0  0  0
   27.6826  -20.6634  -11.9351 N   0  0  0  0  0  0  0  0  0  0  0  0
   26.9165  -20.9155  -10.7366 C   0  0  1  0  0  0  0  0  0  0  0  0
   27.7902  -20.7003   -9.5494 C   0  0  0  0  0  0  0  0  0  0  0  0
   27.0129  -20.7239   -8.2892 C   0  0  0  0  0  0  0  0  0  0  0  0
   25.7297  -21.1780   -8.1107 C   0  0  0  0  0  0  0  0  0  0  0  0
   25.3663  -21.0364   -6.8242 N   0  0  0  0  0  0  0  0  0  0  0  0
   26.4183  -20.4852   -6.1520 C   0  0  0  0  0  0  0  0  0  0  0  0
   26.6006  -20.1244   -4.8255 C   0  0  0  0  0  0  0  0  0  0  0  0
   27.7928  -19.5738   -4.4059 C   0  0  0  0  0  0  0  0  0  0  0  0
   28.8192  -19.3780   -5.3143 C   0  0  0  0  0  0  0  0  0  0  0  0
   28.6562  -19.7284   -6.6271 C   0  0  0  0  0  0  0  0  0  0  0  0
   27.4456  -20.2880   -7.0555 C   0  0  0  0  0  0  0  0  0  0  0  0
   25.6945  -20.1191  -10.7787 C   0  0  0  0  0  0  0  0  0  0  0  0
   25.8161  -18.8907  -11.0821 O   0  0  0  0  0  0  0  0  0  0  0  0
   24.3991  -20.5757  -10.5172 N   0  0  0  0  0  0  0  0  0  0  0  0
   23.2352  -19.9422  -11.0785 C   0  0  1  0  0  0  0  0  0  0  0  0
   23.3213  -19.8184  -12.5737 C   0  0  0  0  0  0  0  0  0  0  0  0
   22.1824  -20.3506  -13.3505 C   0  0  0  0  0  0  0  0  0  0  0  0
   22.3333  -20.2416  -14.8224 C   0  0  0  0  0  0  0  0  0  0  0  0
   23.0931  -20.9545  -15.5220 O   0  0  0  0  0  0  0  0  0  0  0  0
   21.9762  -20.5885  -10.6330 C   0  0  0  0  0  0  0  0  0  0  0  0
   21.8450  -21.8485  -10.5666 O   0  0  0  0  0  0  0  0  0  0  0  0
   21.5994  -19.2881  -15.5565 O   0  0  0  0  0  0  0  0  0  0  0  0
   20.8611  -19.8531  -10.2601 O   0  0  0  0  0  0  0  0  0  0  0  0
  2  3  1  0
  2  1  1  0
  3  4  1  6
  5  6  2  0
  5  3  1  0
  7  5  1  0
  8  7  1  0
  9 10  1  0
  8  9  1  1
 10 18  1  0
 10 11  2  0
 11 12  1  0
 13 12  1  0
 13 14  2  0
 15 14  1  0
 16 15  2  0
 17 18  2  0
 17 16  1  0
 18 13  1  0
 19 20  2  0
 19  8  1  0
 21 19  1  0
 22 23  1  6
 22 21  1  0
 24 25  1  0
 24 23  1  0
 25 29  1  0
 26 25  2  0
 27 22  1  0
 28 27  2  0
 30 27  1  0
M  END
$$$$
