SWE.pdb
     RDKit          3D

 30 31  0  0  1  0  0  0  0  0999 V2000
   24.4467  -24.3270  -13.5318 O   0  0  0  0  0  0  0  0  0  0  0  0
   24.5743  -23.3525  -14.5074 C   0  0  0  0  0  0  0  0  0  0  0  0
   25.0756  -22.0797  -13.8323 C   0  0  2  0  0  0  0  0  0  0  0  0
   25.4701  -22.3854  -12.4875 N   0  0  0  0  0  0  0  0  0  0  0  0
   23.9532  -21.1067  -13.8919 C   0  0  0  0  0  0  0  0  0  0  0  0
   23.2916  -20.9439  -12.8350 O   0  0  0  0  0  0  0  0  0  0  0  0
   23.6910  -20.4242  -15.1145 N   0  0  0  0  0  0  0  0  0  0  0  0
   22.5412  -19.5505  -15.1520 C   0  0  1  0  0  0  0  0  0  0  0  0
   22.7323  -18.5450  -16.2345 C   0  0  0  0  0  0  0  0  0  0  0  0
   21.6296  -17.5571  -16.2617 C   0  0  0  0  0  0  0  0  0  0  0  0
   21.3555  -16.5892  -15.3275 C   0  0  0  0  0  0  0  0  0  0  0  0
   20.2727  -15.8846  -15.6991 N   0  0  0  0  0  0  0  0  0  0  0  0
   19.8317  -16.3929  -16.8863 C   0  0  0  0  0  0  0  0  0  0  0  0
   18.7706  -16.0600  -17.7147 C   0  0  0  0  0  0  0  0  0  0  0  0
   18.5485  -16.7559  -18.8840 C   0  0  0  0  0  0  0  0  0  0  0  0
   19.3906  -17.7968  -19.2372 C   0  0  0  0  0  0  0  0  0  0  0  0
   20.4424  -18.1385  -18.4311 C   0  0  0  0  0  0  0  0  0  0  0  0
   20.6697  -17.4327  -17.2427 C   0  0  0  0  0  0  0  0  0  0  0  0
   21.3319  -20.3618  -15.2450 C   0  0  0  0  0  0  0  0  0  0  0  0
   21.4296  -21.4766  -15.8480 O   0  0  0  0  0  0  0  0  0  0  0  0
   20.0726  -20.0326  -14.7345 N   0  0  0  0  0  0  0  0  0  0  0  0
   18.9357  -20.9029  -14.8788 C   0  0  1  0  0  0  0  0  0  0  0  0
   18.1925  -21.0859  -13.5855 C   0  0  0  0  0  0  0  0  0  0  0  0
   16.9465  -21.8782  -13.6422 C   0  0  0  0  0  0  0  0  0  0  0  0
   16.2524  -22.0329  -12.3401 C   0  0  0  0  0  0  0  0  0  0  0  0
   16.8216  -22.0738  -11.2224 O   0  0  0  0  0  0  0  0  0  0  0  0
   18.0471  -20.4838  -15.9908 C   0  0  0  0  0  0  0  0  0  0  0  0
   17.6558  -21.2894  -16.8891 O   0  0  0  0  0  0  0  0  0  0  0  0
   14.8491  -22.1482  -12.2773 O   0  0  0  0  0  0  0  0  0  0  0  0
   17.5877  -19.1815  -16.1174 O   0  0  0  0  0  0  0  0  0  0  0  0
  2  3  1  0
  2  1  1  0
  3  4  1  1
  5  6  2  0
  5  3  1  0
  7  5  1  0
  8  7  1  0
  9 10  1  0
  8  9  1  6
 10 18  1  0
 10 11  2  0
 11 12  1  0
 13 12  1  0
 13 14  2  0
 15 14  1  0
 16 15  2  0
 17 18  2  0
 17 16  1  0
 18 13  1  0
 19 20  2  0
 19  8  1  0
 21 19  1  0
 22 23  1  1
 22 21  1  0
 24 25  1  0
 24 23  1  0
 25 29  1  0
 26 25  2  0
 27 22  1  0
 28 27  2  0
 30 27  1  0
M  END
$$$$
