SWE.pdb
     RDKit          3D

 30 31  0  0  1  0  0  0  0  0999 V2000
   14.2560  -13.4745   11.5606 O   0  0  0  0  0  0  0  0  0  0  0  0
   13.5478  -14.3799   10.7884 C   0  0  0  0  0  0  0  0  0  0  0  0
   13.1087  -13.6635    9.5151 C   0  0  2  0  0  0  0  0  0  0  0  0
   11.6762  -13.5965    9.4841 N   0  0  0  0  0  0  0  0  0  0  0  0
   13.6693  -14.4462    8.3823 C   0  0  0  0  0  0  0  0  0  0  0  0
   13.0783  -15.5167    8.0896 O   0  0  0  0  0  0  0  0  0  0  0  0
   14.8203  -13.9544    7.7018 N   0  0  0  0  0  0  0  0  0  0  0  0
   15.3262  -14.7421    6.6016 C   0  0  1  0  0  0  0  0  0  0  0  0
   15.9204  -13.8289    5.5855 C   0  0  0  0  0  0  0  0  0  0  0  0
   16.4699  -14.5794    4.4334 C   0  0  0  0  0  0  0  0  0  0  0  0
   15.9883  -15.7461    3.8934 C   0  0  0  0  0  0  0  0  0  0  0  0
   16.7549  -16.1236    2.8556 N   0  0  0  0  0  0  0  0  0  0  0  0
   17.7477  -15.1983    2.7122 C   0  0  0  0  0  0  0  0  0  0  0  0
   18.8043  -15.0843    1.8214 C   0  0  0  0  0  0  0  0  0  0  0  0
   19.6801  -14.0227    1.9043 C   0  0  0  0  0  0  0  0  0  0  0  0
   19.5059  -13.0603    2.8844 C   0  0  0  0  0  0  0  0  0  0  0  0
   18.4685  -13.1576    3.7715 C   0  0  0  0  0  0  0  0  0  0  0  0
   17.5776  -14.2353    3.6890 C   0  0  0  0  0  0  0  0  0  0  0  0
   16.2155  -15.7732    7.1262 C   0  0  0  0  0  0  0  0  0  0  0  0
   16.9514  -15.4539    8.1123 O   0  0  0  0  0  0  0  0  0  0  0  0
   16.3381  -17.0818    6.6494 N   0  0  0  0  0  0  0  0  0  0  0  0
   17.0066  -18.1116    7.4001 C   0  0  1  0  0  0  0  0  0  0  0  0
   16.5219  -18.1847    8.8207 C   0  0  0  0  0  0  0  0  0  0  0  0
   17.4283  -17.6529    9.8596 C   0  0  0  0  0  0  0  0  0  0  0  0
   17.9137  -18.6626   10.8322 C   0  0  0  0  0  0  0  0  0  0  0  0
   17.1771  -19.3830   11.5487 O   0  0  0  0  0  0  0  0  0  0  0  0
   16.9573  -19.4263    6.7141 C   0  0  0  0  0  0  0  0  0  0  0  0
   16.2913  -19.6141    5.6509 O   0  0  0  0  0  0  0  0  0  0  0  0
   19.2933  -18.8835   11.0183 O   0  0  0  0  0  0  0  0  0  0  0  0
   17.6384  -20.5349    7.1940 O   0  0  0  0  0  0  0  0  0  0  0  0
  2  3  1  0
  2  1  1  0
  3  4  1  6
  5  6  2  0
  5  3  1  0
  7  5  1  0
  8  7  1  0
  9 10  1  0
  8  9  1  6
 10 18  1  0
 10 11  2  0
 11 12  1  0
 13 12  1  0
 13 14  2  0
 15 14  1  0
 16 15  2  0
 17 18  2  0
 17 16  1  0
 18 13  1  0
 19 20  2  0
 19  8  1  0
 21 19  1  0
 22 23  1  1
 22 21  1  0
 24 25  1  0
 24 23  1  0
 25 29  1  0
 26 25  2  0
 27 22  1  0
 28 27  2  0
 30 27  1  0
M  END
$$$$
