SWE.pdb
     RDKit          3D

 30 31  0  0  1  0  0  0  0  0999 V2000
   26.9259  -18.9865  -15.0334 O   0  0  0  0  0  0  0  0  0  0  0  0
   28.1518  -19.3256  -14.4858 C   0  0  0  0  0  0  0  0  0  0  0  0
   28.1530  -20.8316  -14.2421 C   0  0  2  0  0  0  0  0  0  0  0  0
   27.5936  -21.4928  -15.3854 N   0  0  0  0  0  0  0  0  0  0  0  0
   27.3572  -21.0542  -13.0063 C   0  0  0  0  0  0  0  0  0  0  0  0
   26.2640  -21.6607  -13.1414 O   0  0  0  0  0  0  0  0  0  0  0  0
   27.8624  -20.5807  -11.7612 N   0  0  0  0  0  0  0  0  0  0  0  0
   27.0886  -20.8752  -10.5774 C   0  0  1  0  0  0  0  0  0  0  0  0
   27.8960  -20.5317   -9.3735 C   0  0  0  0  0  0  0  0  0  0  0  0
   27.0902  -20.6175   -8.1342 C   0  0  0  0  0  0  0  0  0  0  0  0
   25.8207  -21.1223   -7.9997 C   0  0  0  0  0  0  0  0  0  0  0  0
   25.4216  -21.0287   -6.7194 N   0  0  0  0  0  0  0  0  0  0  0  0
   26.4362  -20.4583   -6.0070 C   0  0  0  0  0  0  0  0  0  0  0  0
   26.5732  -20.1271   -4.6674 C   0  0  0  0  0  0  0  0  0  0  0  0
   27.7340  -19.5452   -4.2039 C   0  0  0  0  0  0  0  0  0  0  0  0
   28.7740  -19.2880   -5.0811 C   0  0  0  0  0  0  0  0  0  0  0  0
   28.6554  -19.6085   -6.4062 C   0  0  0  0  0  0  0  0  0  0  0  0
   27.4768  -20.1997   -6.8791 C   0  0  0  0  0  0  0  0  0  0  0  0
   25.7917  -20.2146  -10.6821 C   0  0  0  0  0  0  0  0  0  0  0  0
   25.7953  -18.9466  -10.7717 O   0  0  0  0  0  0  0  0  0  0  0  0
   24.5419  -20.8411  -10.6934 N   0  0  0  0  0  0  0  0  0  0  0  0
   23.3213  -20.1124  -10.9175 C   0  0  1  0  0  0  0  0  0  0  0  0
   22.9340  -20.0855  -12.3693 C   0  0  0  0  0  0  0  0  0  0  0  0
   22.5584  -21.3775  -12.9802 C   0  0  0  0  0  0  0  0  0  0  0  0
   22.1780  -21.2969  -14.4120 C   0  0  0  0  0  0  0  0  0  0  0  0
   22.1062  -20.2358  -15.0782 O   0  0  0  0  0  0  0  0  0  0  0  0
   22.2189  -20.5843  -10.0436 C   0  0  0  0  0  0  0  0  0  0  0  0
   21.0831  -20.0198  -10.0169 O   0  0  0  0  0  0  0  0  0  0  0  0
   21.8601  -22.4594  -15.1428 O   0  0  0  0  0  0  0  0  0  0  0  0
   22.3620  -21.6750   -9.1993 O   0  0  0  0  0  0  0  0  0  0  0  0
  2  3  1  0
  2  1  1  0
  3  4  1  6
  5  6  2  0
  5  3  1  0
  7  5  1  0
  8  7  1  0
  9 10  1  0
  8  9  1  1
 10 18  1  0
 10 11  2  0
 11 12  1  0
 13 12  1  0
 13 14  2  0
 15 14  1  0
 16 15  2  0
 17 18  2  0
 17 16  1  0
 18 13  1  0
 19 20  2  0
 19  8  1  0
 21 19  1  0
 22 23  1  6
 22 21  1  0
 24 25  1  0
 24 23  1  0
 25 29  1  0
 26 25  2  0
 27 22  1  0
 28 27  2  0
 30 27  1  0
M  END
$$$$
