SWE.pdb
     RDKit          3D

 30 31  0  0  1  0  0  0  0  0999 V2000
   25.6366  -14.0500  -17.0718 O   0  0  0  0  0  0  0  0  0  0  0  0
   25.9361  -12.9783  -17.8960 C   0  0  0  0  0  0  0  0  0  0  0  0
   26.1256  -11.7493  -17.0124 C   0  0  2  0  0  0  0  0  0  0  0  0
   26.5289  -12.1707  -15.7020 N   0  0  0  0  0  0  0  0  0  0  0  0
   24.8220  -11.0347  -17.0075 C   0  0  0  0  0  0  0  0  0  0  0  0
   24.4078  -10.6097  -18.1161 O   0  0  0  0  0  0  0  0  0  0  0  0
   24.1247  -10.8722  -15.7758 N   0  0  0  0  0  0  0  0  0  0  0  0
   22.8318  -10.2300  -15.8264 C   0  0  1  0  0  0  0  0  0  0  0  0
   21.8354  -11.0924  -15.1317 C   0  0  0  0  0  0  0  0  0  0  0  0
   21.1750  -12.0275  -16.0709 C   0  0  0  0  0  0  0  0  0  0  0  0
   21.7747  -12.8105  -17.0258 C   0  0  0  0  0  0  0  0  0  0  0  0
   20.8461  -13.5262  -17.6836 N   0  0  0  0  0  0  0  0  0  0  0  0
   19.6270  -13.2114  -17.1573 C   0  0  0  0  0  0  0  0  0  0  0  0
   18.3401  -13.6399  -17.4457 C   0  0  0  0  0  0  0  0  0  0  0  0
   17.2621  -13.1457  -16.7423 C   0  0  0  0  0  0  0  0  0  0  0  0
   17.4630  -12.2134  -15.7385 C   0  0  0  0  0  0  0  0  0  0  0  0
   18.7263  -11.7798  -15.4410 C   0  0  0  0  0  0  0  0  0  0  0  0
   19.8228  -12.2806  -16.1545 C   0  0  0  0  0  0  0  0  0  0  0  0
   22.9583   -8.8685  -15.3168 C   0  0  0  0  0  0  0  0  0  0  0  0
   23.6039   -8.7157  -14.2325 O   0  0  0  0  0  0  0  0  0  0  0  0
   22.4376   -7.7122  -15.9056 N   0  0  0  0  0  0  0  0  0  0  0  0
   22.6038   -6.4102  -15.3156 C   0  0  1  0  0  0  0  0  0  0  0  0
   22.3107   -5.3037  -16.2893 C   0  0  0  0  0  0  0  0  0  0  0  0
   20.8898   -4.9443  -16.4777 C   0  0  0  0  0  0  0  0  0  0  0  0
   20.6551   -3.8275  -17.4259 C   0  0  0  0  0  0  0  0  0  0  0  0
   20.4757   -3.9587  -18.6610 O   0  0  0  0  0  0  0  0  0  0  0  0
   21.8448   -6.2685  -14.0485 C   0  0  0  0  0  0  0  0  0  0  0  0
   20.8589   -7.0125  -13.7595 O   0  0  0  0  0  0  0  0  0  0  0  0
   20.6177   -2.4922  -16.9762 O   0  0  0  0  0  0  0  0  0  0  0  0
   22.1672   -5.3111  -13.0985 O   0  0  0  0  0  0  0  0  0  0  0  0
  2  3  1  0
  2  1  1  0
  3  4  1  1
  5  6  2  0
  5  3  1  0
  7  5  1  0
  8  7  1  0
  9 10  1  0
  8  9  1  1
 10 18  1  0
 10 11  2  0
 11 12  1  0
 13 12  1  0
 13 14  2  0
 15 14  1  0
 16 15  2  0
 17 18  2  0
 17 16  1  0
 18 13  1  0
 19 20  2  0
 19  8  1  0
 21 19  1  0
 22 23  1  6
 22 21  1  0
 24 25  1  0
 24 23  1  0
 25 29  1  0
 26 25  2  0
 27 22  1  0
 28 27  2  0
 30 27  1  0
M  END
$$$$
