SWE.pdb
     RDKit          3D

 30 31  0  0  1  0  0  0  0  0999 V2000
   26.9226  -38.5741   -0.1692 O   0  0  0  0  0  0  0  0  0  0  0  0
   27.4004  -37.5724    0.6590 C   0  0  0  0  0  0  0  0  0  0  0  0
   26.6976  -36.2743    0.2739 C   0  0  2  0  0  0  0  0  0  0  0  0
   27.1490  -35.8631   -1.0241 N   0  0  0  0  0  0  0  0  0  0  0  0
   27.0330  -35.2884    1.3349 C   0  0  0  0  0  0  0  0  0  0  0  0
   27.9485  -34.4673    1.0725 O   0  0  0  0  0  0  0  0  0  0  0  0
   26.3163  -35.3231    2.5656 N   0  0  0  0  0  0  0  0  0  0  0  0
   26.1453  -34.0724    3.2680 C   0  0  1  0  0  0  0  0  0  0  0  0
   25.5036  -33.0873    2.3531 C   0  0  0  0  0  0  0  0  0  0  0  0
   25.1499  -31.8359    3.0613 C   0  0  0  0  0  0  0  0  0  0  0  0
   25.9500  -31.0976    3.8975 C   0  0  0  0  0  0  0  0  0  0  0  0
   25.2768  -30.0260    4.3509 N   0  0  0  0  0  0  0  0  0  0  0  0
   24.0249  -30.0600    3.8087 C   0  0  0  0  0  0  0  0  0  0  0  0
   22.9265  -29.2218    3.9272 C   0  0  0  0  0  0  0  0  0  0  0  0
   21.7563  -29.4995    3.2532 C   0  0  0  0  0  0  0  0  0  0  0  0
   21.6738  -30.6244    2.4501 C   0  0  0  0  0  0  0  0  0  0  0  0
   22.7482  -31.4622    2.3220 C   0  0  0  0  0  0  0  0  0  0  0  0
   23.9381  -31.1818    3.0060 C   0  0  0  0  0  0  0  0  0  0  0  0
   25.4437  -34.3250    4.5222 C   0  0  0  0  0  0  0  0  0  0  0  0
   24.4586  -35.1275    4.4812 O   0  0  0  0  0  0  0  0  0  0  0  0
   25.7493  -33.7696    5.7684 N   0  0  0  0  0  0  0  0  0  0  0  0
   25.0560  -34.1537    6.9695 C   0  0  1  0  0  0  0  0  0  0  0  0
   25.8337  -33.8104    8.2089 C   0  0  0  0  0  0  0  0  0  0  0  0
   27.0915  -34.5537    8.4304 C   0  0  0  0  0  0  0  0  0  0  0  0
   27.8330  -34.1630    9.6546 C   0  0  0  0  0  0  0  0  0  0  0  0
   29.0122  -33.7342    9.6749 O   0  0  0  0  0  0  0  0  0  0  0  0
   23.6678  -33.6313    7.0064 C   0  0  0  0  0  0  0  0  0  0  0  0
   22.7999  -34.0638    7.8244 O   0  0  0  0  0  0  0  0  0  0  0  0
   27.2304  -34.2539   10.9256 O   0  0  0  0  0  0  0  0  0  0  0  0
   23.2315  -32.6345    6.1467 O   0  0  0  0  0  0  0  0  0  0  0  0
  2  3  1  0
  2  1  1  0
  3  4  1  6
  5  6  2  0
  5  3  1  0
  7  5  1  0
  8  7  1  0
  9 10  1  0
  8  9  1  6
 10 18  1  0
 10 11  2  0
 11 12  1  0
 13 12  1  0
 13 14  2  0
 15 14  1  0
 16 15  2  0
 17 18  2  0
 17 16  1  0
 18 13  1  0
 19 20  2  0
 19  8  1  0
 21 19  1  0
 22 23  1  1
 22 21  1  0
 24 25  1  0
 24 23  1  0
 25 29  1  0
 26 25  2  0
 27 22  1  0
 28 27  2  0
 30 27  1  0
M  END
$$$$
