SWE.pdb
     RDKit          3D

 30 31  0  0  1  0  0  0  0  0999 V2000
   24.8116  -22.1638  -18.6579 O   0  0  0  0  0  0  0  0  0  0  0  0
   25.8125  -21.4605  -18.0089 C   0  0  0  0  0  0  0  0  0  0  0  0
   26.4497  -22.3944  -16.9846 C   0  0  2  0  0  0  0  0  0  0  0  0
   26.9253  -23.5707  -17.6536 N   0  0  0  0  0  0  0  0  0  0  0  0
   25.3946  -22.6943  -15.9812 C   0  0  0  0  0  0  0  0  0  0  0  0
   25.1816  -23.9084  -15.7328 O   0  0  0  0  0  0  0  0  0  0  0  0
   24.6956  -21.6160  -15.3663 N   0  0  0  0  0  0  0  0  0  0  0  0
   23.9228  -21.9164  -14.1833 C   0  0  1  0  0  0  0  0  0  0  0  0
   24.1153  -20.8239  -13.1890 C   0  0  0  0  0  0  0  0  0  0  0  0
   23.0458  -19.8043  -13.2856 C   0  0  0  0  0  0  0  0  0  0  0  0
   22.8510  -18.8950  -14.2955 C   0  0  0  0  0  0  0  0  0  0  0  0
   21.7752  -18.1344  -14.0284 N   0  0  0  0  0  0  0  0  0  0  0  0
   21.2590  -18.5467  -12.8343 C   0  0  0  0  0  0  0  0  0  0  0  0
   20.1707  -18.1252  -12.0855 C   0  0  0  0  0  0  0  0  0  0  0  0
   19.8685  -18.7314  -10.8846 C   0  0  0  0  0  0  0  0  0  0  0  0
   20.6566  -19.7705  -10.4195 C   0  0  0  0  0  0  0  0  0  0  0  0
   21.7343  -20.1989  -11.1459 C   0  0  0  0  0  0  0  0  0  0  0  0
   22.0430  -19.5843  -12.3662 C   0  0  0  0  0  0  0  0  0  0  0  0
   22.5425  -22.1839  -14.5738 C   0  0  0  0  0  0  0  0  0  0  0  0
   22.1750  -21.7675  -15.7172 O   0  0  0  0  0  0  0  0  0  0  0  0
   21.5817  -22.8552  -13.8116 N   0  0  0  0  0  0  0  0  0  0  0  0
   20.2263  -23.0254  -14.2643 C   0  0  1  0  0  0  0  0  0  0  0  0
   19.9717  -24.4112  -14.7871 C   0  0  0  0  0  0  0  0  0  0  0  0
   18.6337  -24.6697  -15.3584 C   0  0  0  0  0  0  0  0  0  0  0  0
   18.6429  -25.1460  -16.7634 C   0  0  0  0  0  0  0  0  0  0  0  0
   17.7079  -24.9820  -17.5843 O   0  0  0  0  0  0  0  0  0  0  0  0
   19.2371  -22.6144  -13.2376 C   0  0  0  0  0  0  0  0  0  0  0  0
   19.3108  -22.9974  -12.0304 O   0  0  0  0  0  0  0  0  0  0  0  0
   19.7521  -25.8425  -17.2842 O   0  0  0  0  0  0  0  0  0  0  0  0
   18.1674  -21.7835  -13.5345 O   0  0  0  0  0  0  0  0  0  0  0  0
  2  3  1  0
  2  1  1  0
  3  4  1  6
  5  6  2  0
  5  3  1  0
  7  5  1  0
  8  7  1  0
  9 10  1  0
  8  9  1  1
 10 18  1  0
 10 11  2  0
 11 12  1  0
 13 12  1  0
 13 14  2  0
 15 14  1  0
 16 15  2  0
 17 18  2  0
 17 16  1  0
 18 13  1  0
 19 20  2  0
 19  8  1  0
 21 19  1  0
 22 23  1  1
 22 21  1  0
 24 25  1  0
 24 23  1  0
 25 29  1  0
 26 25  2  0
 27 22  1  0
 28 27  2  0
 30 27  1  0
M  END
$$$$
