SWE.pdb
     RDKit          3D

 30 31  0  0  1  0  0  0  0  0999 V2000
   25.1916  -17.6866  -17.8202 O   0  0  0  0  0  0  0  0  0  0  0  0
   26.5567  -17.6425  -17.5918 C   0  0  0  0  0  0  0  0  0  0  0  0
   27.0825  -19.0740  -17.6311 C   0  0  2  0  0  0  0  0  0  0  0  0
   26.8167  -19.6366  -18.9235 N   0  0  0  0  0  0  0  0  0  0  0  0
   26.3891  -19.8028  -16.5365 C   0  0  0  0  0  0  0  0  0  0  0  0
   25.4854  -20.6072  -16.8789 O   0  0  0  0  0  0  0  0  0  0  0  0
   26.7753  -19.5585  -15.1871 N   0  0  0  0  0  0  0  0  0  0  0  0
   26.1299  -20.3441  -14.1609 C   0  0  1  0  0  0  0  0  0  0  0  0
   27.0094  -20.3870  -12.9593 C   0  0  0  0  0  0  0  0  0  0  0  0
   26.3669  -21.1117  -11.8392 C   0  0  0  0  0  0  0  0  0  0  0  0
   25.9107  -22.4065  -11.8377 C   0  0  0  0  0  0  0  0  0  0  0  0
   25.3882  -22.7089  -10.6366 N   0  0  0  0  0  0  0  0  0  0  0  0
   25.5018  -21.6048   -9.8425 C   0  0  0  0  0  0  0  0  0  0  0  0
   25.1358  -21.3501   -8.5295 C   0  0  0  0  0  0  0  0  0  0  0  0
   25.3727  -20.1161   -7.9620 C   0  0  0  0  0  0  0  0  0  0  0  0
   25.9813  -19.1202   -8.7071 C   0  0  0  0  0  0  0  0  0  0  0  0
   26.3488  -19.3547  -10.0042 C   0  0  0  0  0  0  0  0  0  0  0  0
   26.1090  -20.6078  -10.5826 C   0  0  0  0  0  0  0  0  0  0  0  0
   24.7830  -19.8263  -13.9440 C   0  0  0  0  0  0  0  0  0  0  0  0
   24.6505  -18.5629  -13.8992 O   0  0  0  0  0  0  0  0  0  0  0  0
   23.6205  -20.5856  -13.7802 N   0  0  0  0  0  0  0  0  0  0  0  0
   22.3551  -19.9873  -13.4459 C   0  0  1  0  0  0  0  0  0  0  0  0
   21.4434  -19.8840  -14.6362 C   0  0  0  0  0  0  0  0  0  0  0  0
   20.9509  -21.1548  -15.2073 C   0  0  0  0  0  0  0  0  0  0  0  0
   19.8781  -21.0023  -16.2208 C   0  0  0  0  0  0  0  0  0  0  0  0
   19.3301  -19.9165  -16.5299 O   0  0  0  0  0  0  0  0  0  0  0  0
   21.7077  -20.6553  -12.2900 C   0  0  0  0  0  0  0  0  0  0  0  0
   20.7651  -20.1167  -11.6337 O   0  0  0  0  0  0  0  0  0  0  0  0
   19.3881  -22.1180  -16.9292 O   0  0  0  0  0  0  0  0  0  0  0  0
   22.0937  -21.9139  -11.8541 O   0  0  0  0  0  0  0  0  0  0  0  0
  2  3  1  0
  2  1  1  0
  3  4  1  6
  5  6  2  0
  5  3  1  0
  7  5  1  0
  8  7  1  0
  9 10  1  0
  8  9  1  1
 10 18  1  0
 10 11  2  0
 11 12  1  0
 13 12  1  0
 13 14  2  0
 15 14  1  0
 16 15  2  0
 17 18  2  0
 17 16  1  0
 18 13  1  0
 19 20  2  0
 19  8  1  0
 21 19  1  0
 22 23  1  6
 22 21  1  0
 24 25  1  0
 24 23  1  0
 25 29  1  0
 26 25  2  0
 27 22  1  0
 28 27  2  0
 30 27  1  0
M  END
$$$$
