SWE.pdb
     RDKit          3D

 30 31  0  0  1  0  0  0  0  0999 V2000
   26.7019  -19.2788  -15.6074 O   0  0  0  0  0  0  0  0  0  0  0  0
   27.6825  -19.1251  -14.6418 C   0  0  0  0  0  0  0  0  0  0  0  0
   28.0504  -20.5128  -14.1259 C   0  0  2  0  0  0  0  0  0  0  0  0
   28.2792  -21.3835  -15.2426 N   0  0  0  0  0  0  0  0  0  0  0  0
   26.9131  -20.9571  -13.2778 C   0  0  0  0  0  0  0  0  0  0  0  0
   26.2330  -21.9234  -13.7079 O   0  0  0  0  0  0  0  0  0  0  0  0
   26.6582  -20.2815  -12.0498 N   0  0  0  0  0  0  0  0  0  0  0  0
   25.5531  -20.7562  -11.2496 C   0  0  1  0  0  0  0  0  0  0  0  0
   25.7518  -20.3162   -9.8403 C   0  0  0  0  0  0  0  0  0  0  0  0
   27.1024  -20.6672   -9.3450 C   0  0  0  0  0  0  0  0  0  0  0  0
   28.0225  -21.4893   -9.9469 C   0  0  0  0  0  0  0  0  0  0  0  0
   29.1339  -21.5647   -9.1945 N   0  0  0  0  0  0  0  0  0  0  0  0
   28.9432  -20.7864   -8.0898 C   0  0  0  0  0  0  0  0  0  0  0  0
   29.7429  -20.4978   -6.9943 C   0  0  0  0  0  0  0  0  0  0  0  0
   29.2908  -19.6597   -5.9972 C   0  0  0  0  0  0  0  0  0  0  0  0
   28.0278  -19.0997   -6.0876 C   0  0  0  0  0  0  0  0  0  0  0  0
   27.2256  -19.3739   -7.1618 C   0  0  0  0  0  0  0  0  0  0  0  0
   27.6830  -20.2252   -8.1759 C   0  0  0  0  0  0  0  0  0  0  0  0
   24.3019  -20.3400  -11.8745 C   0  0  0  0  0  0  0  0  0  0  0  0
   24.3403  -19.3029  -12.6086 O   0  0  0  0  0  0  0  0  0  0  0  0
   23.0614  -20.9716  -11.7449 N   0  0  0  0  0  0  0  0  0  0  0  0
   21.9014  -20.5407  -12.4796 C   0  0  1  0  0  0  0  0  0  0  0  0
   22.0833  -20.6853  -13.9644 C   0  0  0  0  0  0  0  0  0  0  0  0
   22.5319  -22.0059  -14.4527 C   0  0  0  0  0  0  0  0  0  0  0  0
   21.7513  -22.5401  -15.5957 C   0  0  0  0  0  0  0  0  0  0  0  0
   20.7287  -22.0000  -16.0830 O   0  0  0  0  0  0  0  0  0  0  0  0
   20.6581  -21.1882  -11.9933 C   0  0  0  0  0  0  0  0  0  0  0  0
   19.5125  -20.8885  -12.4483 O   0  0  0  0  0  0  0  0  0  0  0  0
   22.1283  -23.7402  -16.2315 O   0  0  0  0  0  0  0  0  0  0  0  0
   20.6711  -22.1644  -11.0084 O   0  0  0  0  0  0  0  0  0  0  0  0
  2  3  1  0
  2  1  1  0
  3  4  1  6
  5  6  2  0
  5  3  1  0
  7  5  1  0
  8  7  1  0
  9 10  1  0
  8  9  1  1
 10 18  1  0
 10 11  2  0
 11 12  1  0
 13 12  1  0
 13 14  2  0
 15 14  1  0
 16 15  2  0
 17 18  2  0
 17 16  1  0
 18 13  1  0
 19 20  2  0
 19  8  1  0
 21 19  1  0
 22 23  1  6
 22 21  1  0
 24 25  1  0
 24 23  1  0
 25 29  1  0
 26 25  2  0
 27 22  1  0
 28 27  2  0
 30 27  1  0
M  END
$$$$
