SWE.pdb
     RDKit          3D

 30 31  0  0  1  0  0  0  0  0999 V2000
   26.6190  -22.6117  -18.2694 O   0  0  0  0  0  0  0  0  0  0  0  0
   25.4954  -23.0505  -17.5894 C   0  0  0  0  0  0  0  0  0  0  0  0
   25.9096  -23.3577  -16.1537 C   0  0  2  0  0  0  0  0  0  0  0  0
   26.4518  -24.6843  -16.0950 N   0  0  0  0  0  0  0  0  0  0  0  0
   24.6852  -23.2030  -15.3247 C   0  0  0  0  0  0  0  0  0  0  0  0
   24.0061  -24.2418  -15.1229 O   0  0  0  0  0  0  0  0  0  0  0  0
   24.3522  -21.9159  -14.8129 N   0  0  0  0  0  0  0  0  0  0  0  0
   23.1482  -21.8089  -14.0218 C   0  0  1  0  0  0  0  0  0  0  0  0
   23.3599  -20.7932  -12.9529 C   0  0  0  0  0  0  0  0  0  0  0  0
   22.1380  -20.5939  -12.1406 C   0  0  0  0  0  0  0  0  0  0  0  0
   21.5962  -21.4613  -11.2247 C   0  0  0  0  0  0  0  0  0  0  0  0
   20.4836  -20.9295  -10.6895 N   0  0  0  0  0  0  0  0  0  0  0  0
   20.2925  -19.7035  -11.2576 C   0  0  0  0  0  0  0  0  0  0  0  0
   19.3199  -18.7300  -11.0865 C   0  0  0  0  0  0  0  0  0  0  0  0
   19.3685  -17.5557  -11.8074 C   0  0  0  0  0  0  0  0  0  0  0  0
   20.3960  -17.3436  -12.7109 C   0  0  0  0  0  0  0  0  0  0  0  0
   21.3640  -18.2938  -12.8920 C   0  0  0  0  0  0  0  0  0  0  0  0
   21.3165  -19.4875  -12.1605 C   0  0  0  0  0  0  0  0  0  0  0  0
   22.0163  -21.5687  -14.9110 C   0  0  0  0  0  0  0  0  0  0  0  0
   22.1860  -20.7249  -15.8464 O   0  0  0  0  0  0  0  0  0  0  0  0
   20.7599  -22.1773  -14.8349 N   0  0  0  0  0  0  0  0  0  0  0  0
   19.6876  -21.8364  -15.7321 C   0  0  1  0  0  0  0  0  0  0  0  0
   19.2298  -23.0152  -16.5441 C   0  0  0  0  0  0  0  0  0  0  0  0
   18.4593  -24.0543  -15.8298 C   0  0  0  0  0  0  0  0  0  0  0  0
   18.5456  -25.4090  -16.4286 C   0  0  0  0  0  0  0  0  0  0  0  0
   17.6028  -26.2359  -16.4752 O   0  0  0  0  0  0  0  0  0  0  0  0
   18.5680  -21.1574  -15.0342 C   0  0  0  0  0  0  0  0  0  0  0  0
   18.4128  -21.2196  -13.7767 O   0  0  0  0  0  0  0  0  0  0  0  0
   19.7456  -25.8693  -17.0073 O   0  0  0  0  0  0  0  0  0  0  0  0
   17.6189  -20.4101  -15.7153 O   0  0  0  0  0  0  0  0  0  0  0  0
  2  3  1  0
  2  1  1  0
  3  4  1  6
  5  6  2  0
  5  3  1  0
  7  5  1  0
  8  7  1  0
  9 10  1  0
  8  9  1  1
 10 18  1  0
 10 11  2  0
 11 12  1  0
 13 12  1  0
 13 14  2  0
 15 14  1  0
 16 15  2  0
 17 18  2  0
 17 16  1  0
 18 13  1  0
 19 20  2  0
 19  8  1  0
 21 19  1  0
 22 23  1  1
 22 21  1  0
 24 25  1  0
 24 23  1  0
 25 29  1  0
 26 25  2  0
 27 22  1  0
 28 27  2  0
 30 27  1  0
M  END
$$$$
