SWE.pdb
     RDKit          3D

 30 31  0  0  1  0  0  0  0  0999 V2000
   26.8068  -18.7842  -14.8833 O   0  0  0  0  0  0  0  0  0  0  0  0
   28.1751  -18.8428  -14.6786 C   0  0  0  0  0  0  0  0  0  0  0  0
   28.5524  -20.3054  -14.4649 C   0  0  2  0  0  0  0  0  0  0  0  0
   28.4236  -21.0100  -15.7077 N   0  0  0  0  0  0  0  0  0  0  0  0
   27.6349  -20.8233  -13.4161 C   0  0  0  0  0  0  0  0  0  0  0  0
   26.6907  -21.5569  -13.8052 O   0  0  0  0  0  0  0  0  0  0  0  0
   27.8674  -20.4707  -12.0555 N   0  0  0  0  0  0  0  0  0  0  0  0
   27.0677  -21.1359  -11.0530 C   0  0  1  0  0  0  0  0  0  0  0  0
   27.8843  -21.3092   -9.8191 C   0  0  0  0  0  0  0  0  0  0  0  0
   27.1812  -20.7919   -8.6230 C   0  0  0  0  0  0  0  0  0  0  0  0
   25.8291  -20.6160   -8.4630 C   0  0  0  0  0  0  0  0  0  0  0  0
   25.5707  -20.1250   -7.2385 N   0  0  0  0  0  0  0  0  0  0  0  0
   26.7617  -19.9770   -6.5888 C   0  0  0  0  0  0  0  0  0  0  0  0
   27.0903  -19.5187   -5.3219 C   0  0  0  0  0  0  0  0  0  0  0  0
   28.4059  -19.4724   -4.9121 C   0  0  0  0  0  0  0  0  0  0  0  0
   29.4102  -19.8865   -5.7706 C   0  0  0  0  0  0  0  0  0  0  0  0
   29.1035  -20.3415   -7.0242 C   0  0  0  0  0  0  0  0  0  0  0  0
   27.7674  -20.3893   -7.4425 C   0  0  0  0  0  0  0  0  0  0  0  0
   25.8135  -20.4087  -10.8876 C   0  0  0  0  0  0  0  0  0  0  0  0
   25.8853  -19.1411  -10.8230 O   0  0  0  0  0  0  0  0  0  0  0  0
   24.5368  -20.9706  -10.7928 N   0  0  0  0  0  0  0  0  0  0  0  0
   23.3429  -20.2074  -11.0437 C   0  0  1  0  0  0  0  0  0  0  0  0
   23.2191  -19.8039  -12.4861 C   0  0  0  0  0  0  0  0  0  0  0  0
   23.0427  -20.8945  -13.4676 C   0  0  0  0  0  0  0  0  0  0  0  0
   22.9208  -20.4447  -14.8762 C   0  0  0  0  0  0  0  0  0  0  0  0
   22.8727  -19.2466  -15.2467 O   0  0  0  0  0  0  0  0  0  0  0  0
   22.1259  -20.8886  -10.5374 C   0  0  0  0  0  0  0  0  0  0  0  0
   22.1403  -22.0875  -10.1229 O   0  0  0  0  0  0  0  0  0  0  0  0
   22.8485  -21.3777  -15.9301 O   0  0  0  0  0  0  0  0  0  0  0  0
   20.8934  -20.2552  -10.4854 O   0  0  0  0  0  0  0  0  0  0  0  0
  2  3  1  0
  2  1  1  0
  3  4  1  6
  5  6  2  0
  5  3  1  0
  7  5  1  0
  8  7  1  0
  9 10  1  0
  8  9  1  1
 10 18  1  0
 10 11  2  0
 11 12  1  0
 13 12  1  0
 13 14  2  0
 15 14  1  0
 16 15  2  0
 17 18  2  0
 17 16  1  0
 18 13  1  0
 19 20  2  0
 19  8  1  0
 21 19  1  0
 22 23  1  6
 22 21  1  0
 24 25  1  0
 24 23  1  0
 25 29  1  0
 26 25  2  0
 27 22  1  0
 28 27  2  0
 30 27  1  0
M  END
$$$$
