SWE.pdb
     RDKit          3D

 30 31  0  0  1  0  0  0  0  0999 V2000
   17.1673  -15.9629   11.2188 O   0  0  0  0  0  0  0  0  0  0  0  0
   18.0761  -15.7298   10.2003 C   0  0  0  0  0  0  0  0  0  0  0  0
   17.3283  -15.0580    9.0529 C   0  0  2  0  0  0  0  0  0  0  0  0
   16.0988  -14.5114    9.5499 N   0  0  0  0  0  0  0  0  0  0  0  0
   17.1124  -16.1093    8.0242 C   0  0  0  0  0  0  0  0  0  0  0  0
   15.9638  -16.6182    7.9707 O   0  0  0  0  0  0  0  0  0  0  0  0
   18.1925  -16.4774    7.1713 N   0  0  0  0  0  0  0  0  0  0  0  0
   17.9119  -17.4268    6.1193 C   0  0  1  0  0  0  0  0  0  0  0  0
   18.7672  -17.1110    4.9413 C   0  0  0  0  0  0  0  0  0  0  0  0
   18.2972  -15.8966    4.2364 C   0  0  0  0  0  0  0  0  0  0  0  0
   18.4214  -14.5933    4.6495 C   0  0  0  0  0  0  0  0  0  0  0  0
   17.8710  -13.7684    3.7418 N   0  0  0  0  0  0  0  0  0  0  0  0
   17.3816  -14.5351    2.7244 C   0  0  0  0  0  0  0  0  0  0  0  0
   16.7229  -14.2218    1.5451 C   0  0  0  0  0  0  0  0  0  0  0  0
   16.3294  -15.2171    0.6758 C   0  0  0  0  0  0  0  0  0  0  0  0
   16.5928  -16.5419    0.9801 C   0  0  0  0  0  0  0  0  0  0  0  0
   17.2419  -16.8685    2.1397 C   0  0  0  0  0  0  0  0  0  0  0  0
   17.6424  -15.8588    3.0243 C   0  0  0  0  0  0  0  0  0  0  0  0
   18.0408  -18.7785    6.6537 C   0  0  0  0  0  0  0  0  0  0  0  0
   18.8707  -18.9478    7.6016 O   0  0  0  0  0  0  0  0  0  0  0  0
   17.3391  -19.9091    6.2244 N   0  0  0  0  0  0  0  0  0  0  0  0
   17.2782  -21.1159    7.0059 C   0  0  1  0  0  0  0  0  0  0  0  0
   16.7782  -20.8648    8.4008 C   0  0  0  0  0  0  0  0  0  0  0  0
   17.7934  -20.8314    9.4739 C   0  0  0  0  0  0  0  0  0  0  0  0
   17.2460  -20.6188   10.8364 C   0  0  0  0  0  0  0  0  0  0  0  0
   16.0249  -20.5557   11.1188 O   0  0  0  0  0  0  0  0  0  0  0  0
   16.5242  -22.1920    6.3167 C   0  0  0  0  0  0  0  0  0  0  0  0
   15.6860  -21.9522    5.3952 O   0  0  0  0  0  0  0  0  0  0  0  0
   18.1030  -20.4684   11.9453 O   0  0  0  0  0  0  0  0  0  0  0  0
   16.6895  -23.5309    6.6380 O   0  0  0  0  0  0  0  0  0  0  0  0
  2  3  1  0
  2  1  1  0
  3  4  1  1
  5  6  2  0
  5  3  1  0
  7  5  1  0
  8  7  1  0
  9 10  1  0
  8  9  1  6
 10 18  1  0
 10 11  2  0
 11 12  1  0
 13 12  1  0
 13 14  2  0
 15 14  1  0
 16 15  2  0
 17 18  2  0
 17 16  1  0
 18 13  1  0
 19 20  2  0
 19  8  1  0
 21 19  1  0
 22 23  1  1
 22 21  1  0
 24 25  1  0
 24 23  1  0
 25 29  1  0
 26 25  2  0
 27 22  1  0
 28 27  2  0
 30 27  1  0
M  END
$$$$
