ICW.pdb
     RDKit          3D

 29 30  0  0  1  0  0  0  0  0999 V2000
    8.1151  -11.9560   20.2526 C   0  0  0  0  0  0  0  0  0  0  0  0
    7.7363  -13.3938   19.9957 C   0  0  0  0  0  0  0  0  0  0  0  0
    8.8109  -14.1310   19.2258 C   0  0  2  0  0  0  0  0  0  0  0  0
    8.9260  -13.4390   17.8706 C   0  0  0  0  0  0  0  0  0  0  0  0
    8.4352  -15.5704   19.0234 C   0  0  2  0  0  0  0  0  0  0  0  0
    7.2882  -15.6353   18.1606 N   0  0  0  0  0  0  0  0  0  0  0  0
    8.2562  -16.3057   20.2838 C   0  0  0  0  0  0  0  0  0  0  0  0
    7.1613  -16.3418   20.9139 O   0  0  0  0  0  0  0  0  0  0  0  0
    9.3214  -17.0517   20.9105 N   0  0  0  0  0  0  0  0  0  0  0  0
    9.1810  -17.6839   22.1841 C   0  0  1  0  0  0  0  0  0  0  0  0
    9.3724  -19.1696   22.0727 C   0  0  0  0  0  0  0  0  0  0  0  0
    9.4546  -20.0109   23.6488 S   0  0  0  0  0  0  0  0  0  0  0  0
   10.0217  -17.0725   23.2429 C   0  0  0  0  0  0  0  0  0  0  0  0
   11.2439  -16.8934   23.0068 O   0  0  0  0  0  0  0  0  0  0  0  0
    9.5508  -16.6720   24.5081 N   0  0  0  0  0  0  0  0  0  0  0  0
   10.4017  -16.2314   25.5982 C   0  0  1  0  0  0  0  0  0  0  0  0
    9.9344  -14.8378   25.9580 C   0  0  0  0  0  0  0  0  0  0  0  0
    8.4734  -14.7139   25.9835 C   0  0  0  0  0  0  0  0  0  0  0  0
    7.5325  -15.7189   25.9380 C   0  0  0  0  0  0  0  0  0  0  0  0
    6.2963  -15.1943   25.9838 N   0  0  0  0  0  0  0  0  0  0  0  0
    6.3716  -13.8392   26.0604 C   0  0  0  0  0  0  0  0  0  0  0  0
    5.4240  -12.8416   26.1296 C   0  0  0  0  0  0  0  0  0  0  0  0
    5.7895  -11.5218   26.2005 C   0  0  0  0  0  0  0  0  0  0  0  0
    7.1352  -11.2189   26.2007 C   0  0  0  0  0  0  0  0  0  0  0  0
    8.0933  -12.2075   26.1319 C   0  0  0  0  0  0  0  0  0  0  0  0
    7.7338  -13.5552   26.0593 C   0  0  0  0  0  0  0  0  0  0  0  0
   10.2903  -17.1746   26.7123 C   0  0  0  0  0  0  0  0  0  0  0  0
    9.3955  -18.2295   26.6653 O   0  0  0  0  0  0  0  0  0  0  0  0
   11.0096  -17.0341   27.7261 O   0  0  0  0  0  0  0  0  0  0  0  0
  2  1  1  0
  3  4  1  6
  3  2  1  0
  5  6  1  1
  5  3  1  0
  7  5  1  0
  8  7  2  0
  9  7  1  0
 10  9  1  0
 10 11  1  6
 12 11  1  0
 13 10  1  0
 13 14  2  0
 15 13  1  0
 16 15  1  0
 16 17  1  1
 17 18  1  0
 18 26  1  0
 18 19  2  0
 19 20  1  0
 21 22  2  0
 21 20  1  0
 23 22  1  0
 24 23  2  0
 25 24  1  0
 25 26  2  0
 26 21  1  0
 27 16  1  0
 28 27  1  0
 29 27  2  0
M  END
$$$$
