ICW.pdb
     RDKit          3D

 29 30  0  0  1  0  0  0  0  0999 V2000
    8.6070  -12.0851   20.5433 C   0  0  0  0  0  0  0  0  0  0  0  0
    7.9581  -13.4272   20.7762 C   0  0  0  0  0  0  0  0  0  0  0  0
    7.9782  -14.2868   19.5305 C   0  0  2  0  0  0  0  0  0  0  0  0
    7.1010  -13.5799   18.5012 C   0  0  0  0  0  0  0  0  0  0  0  0
    7.4208  -15.6523   19.8109 C   0  0  2  0  0  0  0  0  0  0  0  0
    6.0536  -15.5197   20.2320 N   0  0  0  0  0  0  0  0  0  0  0  0
    8.2433  -16.4334   20.7461 C   0  0  0  0  0  0  0  0  0  0  0  0
    8.0099  -16.4958   21.9866 O   0  0  0  0  0  0  0  0  0  0  0  0
    9.3923  -17.1985   20.3238 N   0  0  0  0  0  0  0  0  0  0  0  0
   10.2555  -17.8729   21.2412 C   0  0  1  0  0  0  0  0  0  0  0  0
   11.1753  -18.8175   20.5214 C   0  0  0  0  0  0  0  0  0  0  0  0
   12.3339  -19.6594   21.5925 S   0  0  0  0  0  0  0  0  0  0  0  0
   10.9750  -16.9551   22.1587 C   0  0  0  0  0  0  0  0  0  0  0  0
   11.4673  -15.8998   21.6838 O   0  0  0  0  0  0  0  0  0  0  0  0
   11.1517  -17.1773   23.5379 N   0  0  0  0  0  0  0  0  0  0  0  0
   11.9276  -16.3191   24.4141 C   0  0  1  0  0  0  0  0  0  0  0  0
   11.0444  -15.1307   24.7270 C   0  0  0  0  0  0  0  0  0  0  0  0
   10.0954  -15.3946   25.8132 C   0  0  0  0  0  0  0  0  0  0  0  0
    8.9988  -16.2281   25.8026 C   0  0  0  0  0  0  0  0  0  0  0  0
    8.3837  -16.1946   26.9967 N   0  0  0  0  0  0  0  0  0  0  0  0
    9.0419  -15.3482   27.8323 C   0  0  0  0  0  0  0  0  0  0  0  0
    8.8368  -14.9582   29.1376 C   0  0  0  0  0  0  0  0  0  0  0  0
    9.6786  -14.0659   29.7504 C   0  0  0  0  0  0  0  0  0  0  0  0
   10.7393  -13.5677   29.0228 C   0  0  0  0  0  0  0  0  0  0  0  0
   10.9556  -13.9497   27.7162 C   0  0  0  0  0  0  0  0  0  0  0  0
   10.1054  -14.8577   27.0810 C   0  0  0  0  0  0  0  0  0  0  0  0
   12.3160  -17.0701   25.6093 C   0  0  0  0  0  0  0  0  0  0  0  0
   11.8648  -18.3621   25.8161 O   0  0  0  0  0  0  0  0  0  0  0  0
   13.0659  -16.5457   26.4623 O   0  0  0  0  0  0  0  0  0  0  0  0
  2  1  1  0
  3  4  1  6
  3  2  1  0
  5  6  1  1
  5  3  1  0
  7  5  1  0
  8  7  2  0
  9  7  1  0
 10  9  1  0
 10 11  1  6
 12 11  1  0
 13 10  1  0
 13 14  2  0
 15 13  1  0
 16 15  1  0
 16 17  1  1
 17 18  1  0
 18 26  1  0
 18 19  2  0
 19 20  1  0
 21 22  2  0
 21 20  1  0
 23 22  1  0
 24 23  2  0
 25 24  1  0
 25 26  2  0
 26 21  1  0
 27 16  1  0
 28 27  1  0
 29 27  2  0
M  END
$$$$
