ICW.pdb
     RDKit          3D

 29 30  0  0  1  0  0  0  0  0999 V2000
    8.2136  -11.8277   20.6064 C   0  0  0  0  0  0  0  0  0  0  0  0
    8.6973  -13.2567   20.6277 C   0  0  0  0  0  0  0  0  0  0  0  0
    7.7625  -14.1796   19.8757 C   0  0  2  0  0  0  0  0  0  0  0  0
    6.4484  -14.1923   20.6514 C   0  0  0  0  0  0  0  0  0  0  0  0
    8.3197  -15.5722   19.8106 C   0  0  2  0  0  0  0  0  0  0  0  0
    7.5641  -16.3316   18.8532 N   0  0  0  0  0  0  0  0  0  0  0  0
    8.4108  -16.2223   21.1259 C   0  0  0  0  0  0  0  0  0  0  0  0
    7.4106  -16.7028   21.7307 O   0  0  0  0  0  0  0  0  0  0  0  0
    9.6567  -16.3671   21.8406 N   0  0  0  0  0  0  0  0  0  0  0  0
    9.7847  -17.1556   23.0252 C   0  0  1  0  0  0  0  0  0  0  0  0
   10.7365  -18.2980   22.8124 C   0  0  0  0  0  0  0  0  0  0  0  0
   12.3171  -17.8089   22.1333 S   0  0  0  0  0  0  0  0  0  0  0  0
   10.1041  -16.3572   24.2346 C   0  0  0  0  0  0  0  0  0  0  0  0
   10.8523  -15.3544   24.1083 O   0  0  0  0  0  0  0  0  0  0  0  0
    9.6280  -16.6393   25.5293 N   0  0  0  0  0  0  0  0  0  0  0  0
   10.3205  -16.2819   26.7537 C   0  0  1  0  0  0  0  0  0  0  0  0
    9.3161  -15.5291   27.5991 C   0  0  0  0  0  0  0  0  0  0  0  0
    8.0992  -15.1757   26.8612 C   0  0  0  0  0  0  0  0  0  0  0  0
    7.1709  -16.0211   26.2946 C   0  0  0  0  0  0  0  0  0  0  0  0
    6.1970  -15.3068   25.7058 N   0  0  0  0  0  0  0  0  0  0  0  0
    6.4410  -13.9783   25.8586 C   0  0  0  0  0  0  0  0  0  0  0  0
    5.7737  -12.8418   25.4574 C   0  0  0  0  0  0  0  0  0  0  0  0
    6.2580  -11.5941   25.7558 C   0  0  0  0  0  0  0  0  0  0  0  0
    7.4345  -11.5071   26.4704 C   0  0  0  0  0  0  0  0  0  0  0  0
    8.1119  -12.6364   26.8778 C   0  0  0  0  0  0  0  0  0  0  0  0
    7.6289  -13.9127   26.5801 C   0  0  0  0  0  0  0  0  0  0  0  0
   10.8148  -17.4969   27.4039 C   0  0  0  0  0  0  0  0  0  0  0  0
   11.6615  -17.4255   28.4965 O   0  0  0  0  0  0  0  0  0  0  0  0
   10.4733  -18.6207   26.9736 O   0  0  0  0  0  0  0  0  0  0  0  0
  2  1  1  0
  3  4  1  1
  3  2  1  0
  5  6  1  6
  5  3  1  0
  7  5  1  0
  8  7  2  0
  9  7  1  0
 10  9  1  0
 10 11  1  6
 12 11  1  0
 13 10  1  0
 13 14  2  0
 15 13  1  0
 16 15  1  0
 16 17  1  1
 17 18  1  0
 18 26  1  0
 18 19  2  0
 19 20  1  0
 21 22  2  0
 21 20  1  0
 23 22  1  0
 24 23  2  0
 25 24  1  0
 25 26  2  0
 26 21  1  0
 27 16  1  0
 28 27  1  0
 29 27  2  0
M  END
$$$$
