ICW.pdb
     RDKit          3D

 29 30  0  0  1  0  0  0  0  0999 V2000
    7.8070  -11.6674   19.3112 C   0  0  0  0  0  0  0  0  0  0  0  0
    7.7297  -13.1308   18.9523 C   0  0  0  0  0  0  0  0  0  0  0  0
    8.0685  -14.0188   20.1303 C   0  0  2  0  0  0  0  0  0  0  0  0
    9.5487  -13.7985   20.4283 C   0  0  0  0  0  0  0  0  0  0  0  0
    7.8336  -15.4642   19.7987 C   0  0  2  0  0  0  0  0  0  0  0  0
    6.5006  -15.6130   19.2837 N   0  0  0  0  0  0  0  0  0  0  0  0
    8.1286  -16.3711   20.9175 C   0  0  0  0  0  0  0  0  0  0  0  0
    7.3780  -16.4908   21.9271 O   0  0  0  0  0  0  0  0  0  0  0  0
    9.3064  -17.2049   20.9568 N   0  0  0  0  0  0  0  0  0  0  0  0
    9.6803  -17.9659   22.1069 C   0  0  1  0  0  0  0  0  0  0  0  0
   10.5942  -19.0973   21.7311 C   0  0  0  0  0  0  0  0  0  0  0  0
   11.3538  -19.9120   23.1304 S   0  0  0  0  0  0  0  0  0  0  0  0
   10.2152  -17.1370   23.2153 C   0  0  0  0  0  0  0  0  0  0  0  0
   11.2503  -16.4543   23.0055 O   0  0  0  0  0  0  0  0  0  0  0  0
    9.6462  -17.0546   24.5006 N   0  0  0  0  0  0  0  0  0  0  0  0
   10.3190  -16.5015   25.6616 C   0  0  1  0  0  0  0  0  0  0  0  0
    9.9503  -15.0344   25.7006 C   0  0  0  0  0  0  0  0  0  0  0  0
    8.5025  -14.8107   25.7647 C   0  0  0  0  0  0  0  0  0  0  0  0
    7.4913  -15.7396   25.6544 C   0  0  0  0  0  0  0  0  0  0  0  0
    6.2967  -15.1351   25.7674 N   0  0  0  0  0  0  0  0  0  0  0  0
    6.4700  -13.7999   25.9544 C   0  0  0  0  0  0  0  0  0  0  0  0
    5.5974  -12.7474   26.1242 C   0  0  0  0  0  0  0  0  0  0  0  0
    6.0574  -11.4672   26.2969 C   0  0  0  0  0  0  0  0  0  0  0  0
    7.4212  -11.2608   26.2960 C   0  0  0  0  0  0  0  0  0  0  0  0
    8.3050  -12.3050   26.1271 C   0  0  0  0  0  0  0  0  0  0  0  0
    7.8489  -13.6133   25.9504 C   0  0  0  0  0  0  0  0  0  0  0  0
    9.8943  -17.2273   26.8600 C   0  0  0  0  0  0  0  0  0  0  0  0
   10.4174  -16.9167   28.1032 O   0  0  0  0  0  0  0  0  0  0  0  0
    9.0471  -18.1433   26.7701 O   0  0  0  0  0  0  0  0  0  0  0  0
  2  1  1  0
  3  4  1  6
  3  2  1  0
  5  6  1  1
  5  3  1  0
  7  5  1  0
  8  7  2  0
  9  7  1  0
 10  9  1  0
 10 11  1  6
 12 11  1  0
 13 10  1  0
 13 14  2  0
 15 13  1  0
 16 15  1  0
 16 17  1  1
 17 18  1  0
 18 26  1  0
 18 19  2  0
 19 20  1  0
 21 22  2  0
 21 20  1  0
 23 22  1  0
 24 23  2  0
 25 24  1  0
 25 26  2  0
 26 21  1  0
 27 16  1  0
 28 27  1  0
 29 27  2  0
M  END
$$$$
