ICW.pdb
     RDKit          3D

 29 30  0  0  1  0  0  0  0  0999 V2000
    7.9306  -11.6703   19.2492 C   0  0  0  0  0  0  0  0  0  0  0  0
    8.0101  -13.1641   19.0530 C   0  0  0  0  0  0  0  0  0  0  0  0
    8.1799  -13.8970   20.3664 C   0  0  2  0  0  0  0  0  0  0  0  0
    9.5299  -13.4664   20.9324 C   0  0  0  0  0  0  0  0  0  0  0  0
    8.1754  -15.3837   20.1566 C   0  0  2  0  0  0  0  0  0  0  0  0
    6.9644  -15.7545   19.4784 N   0  0  0  0  0  0  0  0  0  0  0  0
    8.4046  -16.1444   21.3935 C   0  0  0  0  0  0  0  0  0  0  0  0
    7.4943  -16.3846   22.2365 O   0  0  0  0  0  0  0  0  0  0  0  0
    9.6953  -16.6835   21.7507 N   0  0  0  0  0  0  0  0  0  0  0  0
    9.8890  -17.5627   22.8602 C   0  0  1  0  0  0  0  0  0  0  0  0
   10.8818  -18.6398   22.5279 C   0  0  0  0  0  0  0  0  0  0  0  0
   10.4506  -19.6039   21.0845 S   0  0  0  0  0  0  0  0  0  0  0  0
   10.2076  -16.8558   24.1254 C   0  0  0  0  0  0  0  0  0  0  0  0
   10.9296  -15.8276   24.0700 O   0  0  0  0  0  0  0  0  0  0  0  0
    9.7584  -17.2524   25.3996 N   0  0  0  0  0  0  0  0  0  0  0  0
   10.1327  -16.6000   26.6409 C   0  0  1  0  0  0  0  0  0  0  0  0
    8.8723  -16.5326   27.4758 C   0  0  0  0  0  0  0  0  0  0  0  0
    7.8006  -15.7668   26.8316 C   0  0  0  0  0  0  0  0  0  0  0  0
    6.6856  -16.2450   26.1791 C   0  0  0  0  0  0  0  0  0  0  0  0
    5.9430  -15.2210   25.7260 N   0  0  0  0  0  0  0  0  0  0  0  0
    6.5311  -14.0411   26.0574 C   0  0  0  0  0  0  0  0  0  0  0  0
    6.1949  -12.7229   25.8405 C   0  0  0  0  0  0  0  0  0  0  0  0
    6.9918  -11.7047   26.2974 C   0  0  0  0  0  0  0  0  0  0  0  0
    8.1423  -12.0367   26.9821 C   0  0  0  0  0  0  0  0  0  0  0  0
    8.4901  -13.3516   27.2058 C   0  0  0  0  0  0  0  0  0  0  0  0
    7.6869  -14.3975   26.7455 C   0  0  0  0  0  0  0  0  0  0  0  0
   11.2030  -17.3625   27.2861 C   0  0  0  0  0  0  0  0  0  0  0  0
   11.8898  -16.8468   28.3715 O   0  0  0  0  0  0  0  0  0  0  0  0
   11.5092  -18.4974   26.8581 O   0  0  0  0  0  0  0  0  0  0  0  0
  2  1  1  0
  3  4  1  6
  3  2  1  0
  5  6  1  1
  5  3  1  0
  7  5  1  0
  8  7  2  0
  9  7  1  0
 10  9  1  0
 10 11  1  6
 12 11  1  0
 13 10  1  0
 13 14  2  0
 15 13  1  0
 16 15  1  0
 16 17  1  1
 17 18  1  0
 18 26  1  0
 18 19  2  0
 19 20  1  0
 21 22  2  0
 21 20  1  0
 23 22  1  0
 24 23  2  0
 25 24  1  0
 25 26  2  0
 26 21  1  0
 27 16  1  0
 28 27  1  0
 29 27  2  0
M  END
$$$$
