ICW.pdb
     RDKit          3D

 29 30  0  0  1  0  0  0  0  0999 V2000
    8.0443  -11.6484   19.2074 C   0  0  0  0  0  0  0  0  0  0  0  0
    7.9544  -13.1434   19.0250 C   0  0  0  0  0  0  0  0  0  0  0  0
    8.0493  -13.8791   20.3444 C   0  0  2  0  0  0  0  0  0  0  0  0
    9.4725  -13.6728   20.8549 C   0  0  0  0  0  0  0  0  0  0  0  0
    7.7902  -15.3465   20.1612 C   0  0  2  0  0  0  0  0  0  0  0  0
    6.5708  -15.5150   19.4203 N   0  0  0  0  0  0  0  0  0  0  0  0
    7.8122  -16.1010   21.4228 C   0  0  0  0  0  0  0  0  0  0  0  0
    6.9249  -15.9829   22.3148 O   0  0  0  0  0  0  0  0  0  0  0  0
    8.8544  -17.0448   21.7499 N   0  0  0  0  0  0  0  0  0  0  0  0
    8.9266  -17.7154   23.0095 C   0  0  1  0  0  0  0  0  0  0  0  0
    9.3222  -19.1537   22.8329 C   0  0  0  0  0  0  0  0  0  0  0  0
    9.4735  -20.0585   24.3682 S   0  0  0  0  0  0  0  0  0  0  0  0
    9.7633  -17.0063   24.0090 C   0  0  0  0  0  0  0  0  0  0  0  0
   10.8376  -16.4788   23.6228 O   0  0  0  0  0  0  0  0  0  0  0  0
    9.4433  -16.8767   25.3741 N   0  0  0  0  0  0  0  0  0  0  0  0
   10.3786  -16.4508   26.3989 C   0  0  1  0  0  0  0  0  0  0  0  0
    9.7903  -15.1968   27.0085 C   0  0  0  0  0  0  0  0  0  0  0  0
    8.3929  -14.9756   26.6231 C   0  0  0  0  0  0  0  0  0  0  0  0
    7.4156  -15.9167   26.3854 C   0  0  0  0  0  0  0  0  0  0  0  0
    6.2631  -15.3101   26.0554 N   0  0  0  0  0  0  0  0  0  0  0  0
    6.4319  -13.9613   26.0622 C   0  0  0  0  0  0  0  0  0  0  0  0
    5.5908  -12.9014   25.8034 C   0  0  0  0  0  0  0  0  0  0  0  0
    6.0365  -11.6072   25.8868 C   0  0  0  0  0  0  0  0  0  0  0  0
    7.3534  -11.3945   26.2376 C   0  0  0  0  0  0  0  0  0  0  0  0
    8.2053  -12.4461   26.4990 C   0  0  0  0  0  0  0  0  0  0  0  0
    7.7634  -13.7685   26.4175 C   0  0  0  0  0  0  0  0  0  0  0  0
   10.5546  -17.5290   27.3735 C   0  0  0  0  0  0  0  0  0  0  0  0
    9.7929  -18.6825   27.3043 O   0  0  0  0  0  0  0  0  0  0  0  0
   11.4029  -17.4161   28.2859 O   0  0  0  0  0  0  0  0  0  0  0  0
  2  1  1  0
  3  4  1  6
  3  2  1  0
  5  6  1  1
  5  3  1  0
  7  5  1  0
  8  7  2  0
  9  7  1  0
 10  9  1  0
 10 11  1  6
 12 11  1  0
 13 10  1  0
 13 14  2  0
 15 13  1  0
 16 15  1  0
 16 17  1  1
 17 18  1  0
 18 26  1  0
 18 19  2  0
 19 20  1  0
 21 22  2  0
 21 20  1  0
 23 22  1  0
 24 23  2  0
 25 24  1  0
 25 26  2  0
 26 21  1  0
 27 16  1  0
 28 27  1  0
 29 27  2  0
M  END
$$$$
