ICW.pdb
     RDKit          3D

 29 30  0  0  1  0  0  0  0  0999 V2000
    7.3865  -11.5326   19.2767 C   0  0  0  0  0  0  0  0  0  0  0  0
    7.8663  -12.9308   18.9744 C   0  0  0  0  0  0  0  0  0  0  0  0
    7.6953  -13.8545   20.1612 C   0  0  2  0  0  0  0  0  0  0  0  0
    8.5837  -13.3025   21.2723 C   0  0  0  0  0  0  0  0  0  0  0  0
    8.1273  -15.2516   19.8214 C   0  0  2  0  0  0  0  0  0  0  0  0
    7.4653  -15.6631   18.6145 N   0  0  0  0  0  0  0  0  0  0  0  0
    7.9521  -16.1989   20.9318 C   0  0  0  0  0  0  0  0  0  0  0  0
    6.8201  -16.5347   21.3823 O   0  0  0  0  0  0  0  0  0  0  0  0
    9.0639  -16.8281   21.6040 N   0  0  0  0  0  0  0  0  0  0  0  0
    8.9234  -17.5447   22.8322 C   0  0  1  0  0  0  0  0  0  0  0  0
    9.1551  -19.0148   22.6283 C   0  0  0  0  0  0  0  0  0  0  0  0
   10.8639  -19.5117   22.8072 S   0  0  0  0  0  0  0  0  0  0  0  0
    9.7337  -16.9819   23.9405 C   0  0  0  0  0  0  0  0  0  0  0  0
   10.8760  -16.5277   23.6749 O   0  0  0  0  0  0  0  0  0  0  0  0
    9.3174  -16.9162   25.2840 N   0  0  0  0  0  0  0  0  0  0  0  0
   10.1964  -16.6260   26.4018 C   0  0  1  0  0  0  0  0  0  0  0  0
    9.5961  -15.4296   27.1078 C   0  0  0  0  0  0  0  0  0  0  0  0
    8.3041  -15.0236   26.5456 C   0  0  0  0  0  0  0  0  0  0  0  0
    7.2305  -15.8208   26.2152 C   0  0  0  0  0  0  0  0  0  0  0  0
    6.2307  -15.0674   25.7274 N   0  0  0  0  0  0  0  0  0  0  0  0
    6.6002  -13.7593   25.7167 C   0  0  0  0  0  0  0  0  0  0  0  0
    5.9662  -12.6005   25.3254 C   0  0  0  0  0  0  0  0  0  0  0  0
    6.5900  -11.3835   25.4267 C   0  0  0  0  0  0  0  0  0  0  0  0
    7.8729  -11.3505   25.9322 C   0  0  0  0  0  0  0  0  0  0  0  0
    8.5184  -12.5026   26.3273 C   0  0  0  0  0  0  0  0  0  0  0  0
    7.8938  -13.7480   26.2291 C   0  0  0  0  0  0  0  0  0  0  0  0
   10.2920  -17.8062   27.2628 C   0  0  0  0  0  0  0  0  0  0  0  0
   11.1865  -17.8468   28.3183 O   0  0  0  0  0  0  0  0  0  0  0  0
    9.5594  -18.7976   27.0502 O   0  0  0  0  0  0  0  0  0  0  0  0
  2  1  1  0
  3  4  1  1
  3  2  1  0
  5  6  1  6
  5  3  1  0
  7  5  1  0
  8  7  2  0
  9  7  1  0
 10  9  1  0
 10 11  1  6
 12 11  1  0
 13 10  1  0
 13 14  2  0
 15 13  1  0
 16 15  1  0
 16 17  1  1
 17 18  1  0
 18 26  1  0
 18 19  2  0
 19 20  1  0
 21 22  2  0
 21 20  1  0
 23 22  1  0
 24 23  2  0
 25 24  1  0
 25 26  2  0
 26 21  1  0
 27 16  1  0
 28 27  1  0
 29 27  2  0
M  END
$$$$
