ICW.pdb
     RDKit          3D

 29 30  0  0  1  0  0  0  0  0999 V2000
    8.0171  -11.7435   18.8984 C   0  0  0  0  0  0  0  0  0  0  0  0
    8.3989  -13.1833   18.6587 C   0  0  0  0  0  0  0  0  0  0  0  0
    8.2382  -14.0245   19.9067 C   0  0  2  0  0  0  0  0  0  0  0  0
    9.2572  -13.5030   20.9157 C   0  0  0  0  0  0  0  0  0  0  0  0
    8.5137  -15.4719   19.6183 C   0  0  2  0  0  0  0  0  0  0  0  0
    7.6071  -15.9245   18.5998 N   0  0  0  0  0  0  0  0  0  0  0  0
    8.5025  -16.3154   20.8224 C   0  0  0  0  0  0  0  0  0  0  0  0
    7.4432  -16.7803   21.3312 O   0  0  0  0  0  0  0  0  0  0  0  0
    9.7064  -16.6849   21.5279 N   0  0  0  0  0  0  0  0  0  0  0  0
    9.7024  -17.5312   22.6792 C   0  0  1  0  0  0  0  0  0  0  0  0
   10.4229  -18.8202   22.4035 C   0  0  0  0  0  0  0  0  0  0  0  0
   10.4062  -19.9684   23.7746 S   0  0  0  0  0  0  0  0  0  0  0  0
   10.1810  -16.8556   23.9106 C   0  0  0  0  0  0  0  0  0  0  0  0
   11.1717  -16.0859   23.8235 O   0  0  0  0  0  0  0  0  0  0  0  0
    9.6043  -17.0117   25.1856 N   0  0  0  0  0  0  0  0  0  0  0  0
   10.0972  -16.3738   26.3924 C   0  0  1  0  0  0  0  0  0  0  0  0
    8.9042  -16.2409   27.3139 C   0  0  0  0  0  0  0  0  0  0  0  0
    7.7517  -15.6045   26.6680 C   0  0  0  0  0  0  0  0  0  0  0  0
    6.6215  -16.2052   26.1589 C   0  0  0  0  0  0  0  0  0  0  0  0
    5.7964  -15.2756   25.6486 N   0  0  0  0  0  0  0  0  0  0  0  0
    6.3426  -14.0399   25.7990 C   0  0  0  0  0  0  0  0  0  0  0  0
    5.9230  -12.7725   25.4590 C   0  0  0  0  0  0  0  0  0  0  0  0
    6.6944  -11.6732   25.7367 C   0  0  0  0  0  0  0  0  0  0  0  0
    7.9050  -11.8710   26.3673 C   0  0  0  0  0  0  0  0  0  0  0  0
    8.3365  -13.1337   26.7127 C   0  0  0  0  0  0  0  0  0  0  0  0
    7.5601  -14.2611   26.4354 C   0  0  0  0  0  0  0  0  0  0  0  0
   11.1719  -17.1858   26.9661 C   0  0  0  0  0  0  0  0  0  0  0  0
   11.9473  -16.7071   28.0079 O   0  0  0  0  0  0  0  0  0  0  0  0
   11.4012  -18.3299   26.5153 O   0  0  0  0  0  0  0  0  0  0  0  0
  2  1  1  0
  3  4  1  1
  3  2  1  0
  5  6  1  6
  5  3  1  0
  7  5  1  0
  8  7  2  0
  9  7  1  0
 10  9  1  0
 10 11  1  6
 12 11  1  0
 13 10  1  0
 13 14  2  0
 15 13  1  0
 16 15  1  0
 16 17  1  1
 17 18  1  0
 18 26  1  0
 18 19  2  0
 19 20  1  0
 21 22  2  0
 21 20  1  0
 23 22  1  0
 24 23  2  0
 25 24  1  0
 25 26  2  0
 26 21  1  0
 27 16  1  0
 28 27  1  0
 29 27  2  0
M  END
$$$$
