ICW.pdb
     RDKit          3D

 29 30  0  0  1  0  0  0  0  0999 V2000
   13.1469  -21.1007   19.6384 C   0  0  0  0  0  0  0  0  0  0  0  0
   11.8548  -20.4431   19.2204 C   0  0  0  0  0  0  0  0  0  0  0  0
   11.6493  -19.1130   19.9129 C   0  0  2  0  0  0  0  0  0  0  0  0
   11.5117  -19.4157   21.4021 C   0  0  0  0  0  0  0  0  0  0  0  0
   10.4015  -18.4383   19.4210 C   0  0  2  0  0  0  0  0  0  0  0  0
   10.4828  -18.2923   17.9940 N   0  0  0  0  0  0  0  0  0  0  0  0
   10.1110  -17.1771   20.1182 C   0  0  0  0  0  0  0  0  0  0  0  0
   10.8664  -16.1656   20.0614 O   0  0  0  0  0  0  0  0  0  0  0  0
    8.9327  -16.9875   20.9304 N   0  0  0  0  0  0  0  0  0  0  0  0
    8.6203  -15.7470   21.5669 C   0  0  1  0  0  0  0  0  0  0  0  0
    7.1358  -15.5805   21.7243 C   0  0  0  0  0  0  0  0  0  0  0  0
    6.6598  -14.0788   22.5710 S   0  0  0  0  0  0  0  0  0  0  0  0
    9.3620  -15.5299   22.8337 C   0  0  0  0  0  0  0  0  0  0  0  0
   10.0913  -14.5100   22.9320 O   0  0  0  0  0  0  0  0  0  0  0  0
    9.3120  -16.3886   23.9485 N   0  0  0  0  0  0  0  0  0  0  0  0
   10.1138  -16.2242   25.1470 C   0  0  1  0  0  0  0  0  0  0  0  0
    9.1454  -16.2688   26.3090 C   0  0  0  0  0  0  0  0  0  0  0  0
    7.9388  -15.4681   26.0780 C   0  0  0  0  0  0  0  0  0  0  0  0
    6.6989  -15.8973   25.6588 C   0  0  0  0  0  0  0  0  0  0  0  0
    5.8571  -14.8540   25.5683 N   0  0  0  0  0  0  0  0  0  0  0  0
    6.5001  -13.7091   25.9199 C   0  0  0  0  0  0  0  0  0  0  0  0
    6.1089  -12.3906   25.9990 C   0  0  0  0  0  0  0  0  0  0  0  0
    6.9870  -11.4141   26.3938 C   0  0  0  0  0  0  0  0  0  0  0  0
    8.2763  -11.7884   26.7103 C   0  0  0  0  0  0  0  0  0  0  0  0
    8.6805  -13.1041   26.6353 C   0  0  0  0  0  0  0  0  0  0  0  0
    7.7956  -14.1077   26.2347 C   0  0  0  0  0  0  0  0  0  0  0  0
   11.1221  -17.2841   25.2052 C   0  0  0  0  0  0  0  0  0  0  0  0
   12.1083  -17.2760   26.1763 O   0  0  0  0  0  0  0  0  0  0  0  0
   11.1011  -18.2151   24.3699 O   0  0  0  0  0  0  0  0  0  0  0  0
  2  1  1  0
  3  4  1  1
  3  2  1  0
  5  6  1  6
  5  3  1  0
  7  5  1  0
  8  7  2  0
  9  7  1  0
 10  9  1  0
 10 11  1  1
 12 11  1  0
 13 10  1  0
 13 14  2  0
 15 13  1  0
 16 15  1  0
 16 17  1  1
 17 18  1  0
 18 26  1  0
 18 19  2  0
 19 20  1  0
 21 22  2  0
 21 20  1  0
 23 22  1  0
 24 23  2  0
 25 24  1  0
 25 26  2  0
 26 21  1  0
 27 16  1  0
 28 27  1  0
 29 27  2  0
M  END
$$$$
