ICW.pdb
     RDKit          3D

 29 30  0  0  1  0  0  0  0  0999 V2000
    8.0028  -11.8125   19.7829 C   0  0  0  0  0  0  0  0  0  0  0  0
    7.7281  -13.2747   19.5319 C   0  0  0  0  0  0  0  0  0  0  0  0
    8.9773  -14.0189   19.1113 C   0  0  2  0  0  0  0  0  0  0  0  0
    9.4072  -13.4239   17.7736 C   0  0  0  0  0  0  0  0  0  0  0  0
    8.6982  -15.4843   18.9417 C   0  0  2  0  0  0  0  0  0  0  0  0
    7.7218  -15.6549   17.9016 N   0  0  0  0  0  0  0  0  0  0  0  0
    8.3315  -16.1539   20.1980 C   0  0  0  0  0  0  0  0  0  0  0  0
    7.1378  -16.4176   20.5183 O   0  0  0  0  0  0  0  0  0  0  0  0
    9.3091  -16.5684   21.1760 N   0  0  0  0  0  0  0  0  0  0  0  0
    8.9526  -17.1525   22.4303 C   0  0  1  0  0  0  0  0  0  0  0  0
    8.8452  -18.6465   22.3184 C   0  0  0  0  0  0  0  0  0  0  0  0
   10.4206  -19.4770   22.1537 S   0  0  0  0  0  0  0  0  0  0  0  0
    9.8225  -16.7197   23.5518 C   0  0  0  0  0  0  0  0  0  0  0  0
   11.0118  -16.4002   23.2970 O   0  0  0  0  0  0  0  0  0  0  0  0
    9.4141  -16.6382   24.8969 N   0  0  0  0  0  0  0  0  0  0  0  0
   10.3136  -16.4250   26.0157 C   0  0  1  0  0  0  0  0  0  0  0  0
    9.7623  -15.2392   26.7772 C   0  0  0  0  0  0  0  0  0  0  0  0
    8.3368  -15.0090   26.5218 C   0  0  0  0  0  0  0  0  0  0  0  0
    7.3542  -15.9421   26.2743 C   0  0  0  0  0  0  0  0  0  0  0  0
    6.1729  -15.3288   26.0905 N   0  0  0  0  0  0  0  0  0  0  0  0
    6.3272  -13.9834   26.2081 C   0  0  0  0  0  0  0  0  0  0  0  0
    5.4570  -12.9196   26.1128 C   0  0  0  0  0  0  0  0  0  0  0  0
    5.8938  -11.6306   26.2802 C   0  0  0  0  0  0  0  0  0  0  0  0
    7.2316  -11.4269   26.5472 C   0  0  0  0  0  0  0  0  0  0  0  0
    8.1127  -12.4825   26.6450 C   0  0  0  0  0  0  0  0  0  0  0  0
    7.6801  -13.7998   26.4766 C   0  0  0  0  0  0  0  0  0  0  0  0
   10.3768  -17.6426   26.8262 C   0  0  0  0  0  0  0  0  0  0  0  0
    9.5504  -18.7200   26.5580 O   0  0  0  0  0  0  0  0  0  0  0  0
   11.1857  -17.7206   27.7773 O   0  0  0  0  0  0  0  0  0  0  0  0
  2  1  1  0
  3  4  1  6
  3  2  1  0
  5  6  1  6
  5  3  1  0
  7  5  1  0
  8  7  2  0
  9  7  1  0
 10  9  1  0
 10 11  1  6
 12 11  1  0
 13 10  1  0
 13 14  2  0
 15 13  1  0
 16 15  1  0
 16 17  1  1
 17 18  1  0
 18 26  1  0
 18 19  2  0
 19 20  1  0
 21 22  2  0
 21 20  1  0
 23 22  1  0
 24 23  2  0
 25 24  1  0
 25 26  2  0
 26 21  1  0
 27 16  1  0
 28 27  1  0
 29 27  2  0
M  END
$$$$
