ICW.pdb
     RDKit          3D

 29 30  0  0  1  0  0  0  0  0999 V2000
    8.3529  -11.8920   21.0271 C   0  0  0  0  0  0  0  0  0  0  0  0
    7.7897  -13.2745   20.8083 C   0  0  0  0  0  0  0  0  0  0  0  0
    8.6019  -14.0615   19.8023 C   0  0  2  0  0  0  0  0  0  0  0  0
    8.4214  -13.3634   18.4574 C   0  0  0  0  0  0  0  0  0  0  0  0
    8.1093  -15.4762   19.7029 C   0  0  2  0  0  0  0  0  0  0  0  0
    6.7692  -15.4673   19.1850 N   0  0  0  0  0  0  0  0  0  0  0  0
    8.2408  -16.2257   20.9607 C   0  0  0  0  0  0  0  0  0  0  0  0
    7.2648  -16.4703   21.7253 O   0  0  0  0  0  0  0  0  0  0  0  0
    9.5022  -16.7477   21.4302 N   0  0  0  0  0  0  0  0  0  0  0  0
    9.6226  -17.5372   22.6150 C   0  0  1  0  0  0  0  0  0  0  0  0
   10.3474  -18.8227   22.3351 C   0  0  0  0  0  0  0  0  0  0  0  0
   10.4595  -19.9149   23.7470 S   0  0  0  0  0  0  0  0  0  0  0  0
   10.1926  -16.7930   23.7653 C   0  0  0  0  0  0  0  0  0  0  0  0
   11.2257  -16.1011   23.5769 O   0  0  0  0  0  0  0  0  0  0  0  0
    9.6593  -16.8017   25.0685 N   0  0  0  0  0  0  0  0  0  0  0  0
   10.3055  -16.2052   26.2231 C   0  0  1  0  0  0  0  0  0  0  0  0
    9.2198  -16.0162   27.2602 C   0  0  0  0  0  0  0  0  0  0  0  0
    8.0018  -15.4138   26.7089 C   0  0  0  0  0  0  0  0  0  0  0  0
    6.8885  -16.0507   26.2065 C   0  0  0  0  0  0  0  0  0  0  0  0
    5.9852  -15.1442   25.7973 N   0  0  0  0  0  0  0  0  0  0  0  0
    6.4605  -13.8888   26.0107 C   0  0  0  0  0  0  0  0  0  0  0  0
    5.9484  -12.6312   25.7778 C   0  0  0  0  0  0  0  0  0  0  0  0
    6.6625  -11.5054   26.0992 C   0  0  0  0  0  0  0  0  0  0  0  0
    7.9108  -11.6664   26.6635 C   0  0  0  0  0  0  0  0  0  0  0  0
    8.4347  -12.9189   26.9017 C   0  0  0  0  0  0  0  0  0  0  0  0
    7.7173  -14.0730   26.5788 C   0  0  0  0  0  0  0  0  0  0  0  0
   11.3847  -17.0816   26.6818 C   0  0  0  0  0  0  0  0  0  0  0  0
   11.5719  -18.3334   26.1219 O   0  0  0  0  0  0  0  0  0  0  0  0
   12.1543  -16.7033   27.5926 O   0  0  0  0  0  0  0  0  0  0  0  0
  2  1  1  0
  3  4  1  6
  3  2  1  0
  5  6  1  1
  5  3  1  0
  7  5  1  0
  8  7  2  0
  9  7  1  0
 10  9  1  0
 10 11  1  6
 12 11  1  0
 13 10  1  0
 13 14  2  0
 15 13  1  0
 16 15  1  0
 16 17  1  1
 17 18  1  0
 18 26  1  0
 18 19  2  0
 19 20  1  0
 21 22  2  0
 21 20  1  0
 23 22  1  0
 24 23  2  0
 25 24  1  0
 25 26  2  0
 26 21  1  0
 27 16  1  0
 28 27  1  0
 29 27  2  0
M  END
$$$$
