ICW.pdb
     RDKit          3D

 29 30  0  0  1  0  0  0  0  0999 V2000
    7.7680  -11.4561   19.5815 C   0  0  0  0  0  0  0  0  0  0  0  0
    7.6573  -12.9203   19.2344 C   0  0  0  0  0  0  0  0  0  0  0  0
    7.8956  -13.8049   20.4393 C   0  0  2  0  0  0  0  0  0  0  0  0
    9.3581  -13.6178   20.8325 C   0  0  0  0  0  0  0  0  0  0  0  0
    7.6471  -15.2472   20.1045 C   0  0  2  0  0  0  0  0  0  0  0  0
    6.3513  -15.3673   19.4957 N   0  0  0  0  0  0  0  0  0  0  0  0
    7.8365  -16.1492   21.2498 C   0  0  0  0  0  0  0  0  0  0  0  0
    7.0133  -16.2367   22.2047 O   0  0  0  0  0  0  0  0  0  0  0  0
    8.9843  -17.0149   21.3803 N   0  0  0  0  0  0  0  0  0  0  0  0
    9.2286  -17.8099   22.5422 C   0  0  1  0  0  0  0  0  0  0  0  0
    9.8963  -19.1053   22.1786 C   0  0  0  0  0  0  0  0  0  0  0  0
   10.3624  -20.1022   23.5885 S   0  0  0  0  0  0  0  0  0  0  0  0
    9.9390  -17.0780   23.6199 C   0  0  0  0  0  0  0  0  0  0  0  0
   11.0111  -16.4859   23.3341 O   0  0  0  0  0  0  0  0  0  0  0  0
    9.5001  -16.9942   24.9552 N   0  0  0  0  0  0  0  0  0  0  0  0
   10.3510  -16.6450   26.0779 C   0  0  1  0  0  0  0  0  0  0  0  0
    9.9105  -15.2683   26.5258 C   0  0  0  0  0  0  0  0  0  0  0  0
    8.4791  -15.0298   26.3148 C   0  0  0  0  0  0  0  0  0  0  0  0
    7.4868  -15.9558   26.0797 C   0  0  0  0  0  0  0  0  0  0  0  0
    6.3028  -15.3361   25.9398 N   0  0  0  0  0  0  0  0  0  0  0  0
    6.4649  -13.9933   26.0754 C   0  0  0  0  0  0  0  0  0  0  0  0
    5.5959  -12.9256   26.0227 C   0  0  0  0  0  0  0  0  0  0  0  0
    6.0415  -11.6408   26.1991 C   0  0  0  0  0  0  0  0  0  0  0  0
    7.3870  -11.4455   26.4314 C   0  0  0  0  0  0  0  0  0  0  0  0
    8.2670  -12.5050   26.4866 C   0  0  0  0  0  0  0  0  0  0  0  0
    7.8254  -13.8181   26.3085 C   0  0  0  0  0  0  0  0  0  0  0  0
   10.2103  -17.6570   27.1264 C   0  0  0  0  0  0  0  0  0  0  0  0
   11.0512  -17.6647   28.2258 O   0  0  0  0  0  0  0  0  0  0  0  0
    9.3207  -18.5318   27.0371 O   0  0  0  0  0  0  0  0  0  0  0  0
  2  1  1  0
  3  4  1  6
  3  2  1  0
  5  6  1  1
  5  3  1  0
  7  5  1  0
  8  7  2  0
  9  7  1  0
 10  9  1  0
 10 11  1  6
 12 11  1  0
 13 10  1  0
 13 14  2  0
 15 13  1  0
 16 15  1  0
 16 17  1  1
 17 18  1  0
 18 26  1  0
 18 19  2  0
 19 20  1  0
 21 22  2  0
 21 20  1  0
 23 22  1  0
 24 23  2  0
 25 24  1  0
 25 26  2  0
 26 21  1  0
 27 16  1  0
 28 27  1  0
 29 27  2  0
M  END
$$$$
