ICW.pdb
     RDKit          3D

 29 30  0  0  1  0  0  0  0  0999 V2000
    7.9725  -11.7041   18.8745 C   0  0  0  0  0  0  0  0  0  0  0  0
    8.0966  -13.1706   18.5426 C   0  0  0  0  0  0  0  0  0  0  0  0
    8.1965  -14.0242   19.7885 C   0  0  2  0  0  0  0  0  0  0  0  0
    9.5155  -13.6564   20.4620 C   0  0  0  0  0  0  0  0  0  0  0  0
    8.2016  -15.4846   19.4404 C   0  0  2  0  0  0  0  0  0  0  0  0
    7.0820  -15.7631   18.5841 N   0  0  0  0  0  0  0  0  0  0  0  0
    8.2637  -16.3614   20.6188 C   0  0  0  0  0  0  0  0  0  0  0  0
    7.3256  -16.4565   21.4602 O   0  0  0  0  0  0  0  0  0  0  0  0
    9.4071  -17.1914   20.9150 N   0  0  0  0  0  0  0  0  0  0  0  0
    9.5500  -17.9055   22.1443 C   0  0  1  0  0  0  0  0  0  0  0  0
   10.2424  -19.2206   21.9266 C   0  0  0  0  0  0  0  0  0  0  0  0
   10.7058  -20.0558   23.4387 S   0  0  0  0  0  0  0  0  0  0  0  0
   10.1689  -17.1007   23.2264 C   0  0  0  0  0  0  0  0  0  0  0  0
   11.2376  -16.4862   22.9778 O   0  0  0  0  0  0  0  0  0  0  0  0
    9.6453  -16.9700   24.5270 N   0  0  0  0  0  0  0  0  0  0  0  0
   10.3711  -16.4066   25.6505 C   0  0  1  0  0  0  0  0  0  0  0  0
    9.9154  -14.9681   25.7652 C   0  0  0  0  0  0  0  0  0  0  0  0
    8.4578  -14.8361   25.8558 C   0  0  0  0  0  0  0  0  0  0  0  0
    7.5030  -15.8186   25.7132 C   0  0  0  0  0  0  0  0  0  0  0  0
    6.2758  -15.2938   25.8678 N   0  0  0  0  0  0  0  0  0  0  0  0
    6.3709  -13.9606   26.1155 C   0  0  0  0  0  0  0  0  0  0  0  0
    5.4390  -12.9722   26.3445 C   0  0  0  0  0  0  0  0  0  0  0  0
    5.8235  -11.6757   26.5722 C   0  0  0  0  0  0  0  0  0  0  0  0
    7.1722  -11.3870   26.5659 C   0  0  0  0  0  0  0  0  0  0  0  0
    8.1149  -12.3665   26.3381 C   0  0  0  0  0  0  0  0  0  0  0  0
    7.7359  -13.6905   26.1050 C   0  0  0  0  0  0  0  0  0  0  0  0
   10.0878  -17.1911   26.8536 C   0  0  0  0  0  0  0  0  0  0  0  0
    9.2560  -18.2962   26.8035 O   0  0  0  0  0  0  0  0  0  0  0  0
   10.5998  -16.8666   27.9479 O   0  0  0  0  0  0  0  0  0  0  0  0
  2  1  1  0
  3  4  1  6
  3  2  1  0
  5  6  1  1
  5  3  1  0
  7  5  1  0
  8  7  2  0
  9  7  1  0
 10  9  1  0
 10 11  1  6
 12 11  1  0
 13 10  1  0
 13 14  2  0
 15 13  1  0
 16 15  1  0
 16 17  1  1
 17 18  1  0
 18 26  1  0
 18 19  2  0
 19 20  1  0
 21 22  2  0
 21 20  1  0
 23 22  1  0
 24 23  2  0
 25 24  1  0
 25 26  2  0
 26 21  1  0
 27 16  1  0
 28 27  1  0
 29 27  2  0
M  END
$$$$
