KQV.pdb
     RDKit          3D

 26 25  0  0  1  0  0  0  0  0999 V2000
   43.5644  -16.5905  -10.0277 N   0  0  0  0  0  0  0  0  0  0  0  0
   43.7908  -15.6513   -8.9685 C   0  0  1  0  0  0  0  0  0  0  0  0
   45.2250  -15.5009   -8.5936 C   0  0  0  0  0  0  0  0  0  0  0  0
   45.9089  -16.7145   -8.0916 C   0  0  0  0  0  0  0  0  0  0  0  0
   47.3035  -16.5815   -7.6150 C   0  0  0  0  0  0  0  0  0  0  0  0
   47.9175  -17.8222   -7.0391 C   0  0  0  0  0  0  0  0  0  0  0  0
   47.2934  -18.3173   -5.8613 N   0  0  0  0  0  0  0  0  0  0  0  0
   43.1663  -14.3502   -9.3511 C   0  0  0  0  0  0  0  0  0  0  0  0
   43.0219  -14.0530  -10.5915 O   0  0  0  0  0  0  0  0  0  0  0  0
   38.7365  -11.4217   -6.1560 N   0  0  0  0  0  0  0  0  0  0  0  0
   39.0530  -10.4381   -7.1146 C   0  0  0  0  0  0  0  0  0  0  0  0
   38.3378   -9.4275   -7.2251 O   0  0  0  0  0  0  0  0  0  0  0  0
   40.2337  -10.6189   -7.9804 C   0  0  0  0  0  0  0  0  0  0  0  0
   40.9104  -11.9273   -7.8570 C   0  0  0  0  0  0  0  0  0  0  0  0
   42.0749  -12.1379   -8.7695 C   0  0  2  0  0  0  0  0  0  0  0  0
   42.7206  -13.4148   -8.3933 N   0  0  0  0  0  0  0  0  0  0  0  0
   43.1069  -11.1043   -8.5386 C   0  0  0  0  0  0  0  0  0  0  0  0
   43.8868  -11.1486   -7.5224 O   0  0  0  0  0  0  0  0  0  0  0  0
   45.5536   -9.7284  -11.1500 C   0  0  0  0  0  0  0  0  0  0  0  0
   44.9179   -8.5506  -10.4252 C   0  0  2  0  0  0  0  0  0  0  0  0
   46.0618   -7.5630  -10.1636 C   0  0  0  0  0  0  0  0  0  0  0  0
   44.3660   -9.0233   -9.0867 C   0  0  2  0  0  0  0  0  0  0  0  0
   43.3316   -9.9974   -9.3968 N   0  0  0  0  0  0  0  0  0  0  0  0
   43.8236   -7.8338   -8.4022 C   0  0  0  0  0  0  0  0  0  0  0  0
   44.5488   -7.3028   -7.3453 O   0  0  0  0  0  0  0  0  0  0  0  0
   42.7472   -7.2576   -8.7024 O   0  0  0  0  0  0  0  0  0  0  0  0
  2  1  1  6
  3  2  1  0
  4  3  1  0
  5  4  1  0
  5  6  1  0
  7  6  1  0
  8  9  2  0
  8  2  1  0
 10 11  1  0
 11 12  2  0
 11 13  1  0
 13 14  1  0
 15 14  1  1
 15 16  1  0
 16  8  1  0
 17 15  1  0
 18 17  2  0
 20 19  1  1
 20 22  1  0
 21 20  1  0
 22 23  1  6
 22 24  1  0
 23 17  1  0
 24 25  1  0
 26 24  2  0
M  END
$$$$
