KQV.pdb
     RDKit          3D

 26 25  0  0  1  0  0  0  0  0999 V2000
   27.1569  -20.7353  -16.4264 N   0  0  0  0  0  0  0  0  0  0  0  0
   25.8751  -20.7071  -17.0678 C   0  0  1  0  0  0  0  0  0  0  0  0
   25.4216  -22.0364  -17.5655 C   0  0  0  0  0  0  0  0  0  0  0  0
   26.2105  -22.6357  -18.6659 C   0  0  0  0  0  0  0  0  0  0  0  0
   25.8779  -22.2460  -20.0541 C   0  0  0  0  0  0  0  0  0  0  0  0
   25.2502  -23.3136  -20.8992 C   0  0  0  0  0  0  0  0  0  0  0  0
   24.8127  -22.8907  -22.1844 N   0  0  0  0  0  0  0  0  0  0  0  0
   24.8923  -20.0887  -16.1293 C   0  0  0  0  0  0  0  0  0  0  0  0
   25.0117  -20.2784  -14.8654 O   0  0  0  0  0  0  0  0  0  0  0  0
   21.6044  -14.8827  -17.2729 N   0  0  0  0  0  0  0  0  0  0  0  0
   21.0741  -15.2756  -16.0275 C   0  0  0  0  0  0  0  0  0  0  0  0
   20.2890  -14.5248  -15.4234 O   0  0  0  0  0  0  0  0  0  0  0  0
   21.4577  -16.5785  -15.4515 C   0  0  0  0  0  0  0  0  0  0  0  0
   22.4587  -17.3400  -16.2282 C   0  0  0  0  0  0  0  0  0  0  0  0
   22.8560  -18.6585  -15.6479 C   0  0  2  0  0  0  0  0  0  0  0  0
   23.8176  -19.2916  -16.5772 N   0  0  0  0  0  0  0  0  0  0  0  0
   21.6981  -19.5774  -15.6103 C   0  0  0  0  0  0  0  0  0  0  0  0
   21.2806  -20.1759  -16.6641 O   0  0  0  0  0  0  0  0  0  0  0  0
   21.1539  -22.5728  -13.3904 C   0  0  0  0  0  0  0  0  0  0  0  0
   19.9297  -21.6773  -13.2625 C   0  0  2  0  0  0  0  0  0  0  0  0
   18.7261  -22.6274  -13.2387 C   0  0  0  0  0  0  0  0  0  0  0  0
   19.8260  -20.7897  -14.4958 C   0  0  2  0  0  0  0  0  0  0  0  0
   20.9605  -19.8816  -14.4375 N   0  0  0  0  0  0  0  0  0  0  0  0
   18.5370  -20.0771  -14.4043 C   0  0  0  0  0  0  0  0  0  0  0  0
   17.4255  -20.6625  -14.9932 O   0  0  0  0  0  0  0  0  0  0  0  0
   18.3634  -18.9721  -13.8303 O   0  0  0  0  0  0  0  0  0  0  0  0
  2  1  1  1
  3  2  1  0
  4  3  1  0
  5  4  1  0
  5  6  1  0
  7  6  1  0
  8  9  2  0
  8  2  1  0
 10 11  1  0
 11 12  2  0
 11 13  1  0
 13 14  1  0
 15 14  1  6
 15 16  1  0
 16  8  1  0
 17 15  1  0
 18 17  2  0
 20 19  1  6
 20 22  1  0
 21 20  1  0
 22 23  1  1
 22 24  1  0
 23 17  1  0
 24 25  1  0
 26 24  2  0
M  END
$$$$
