KQV.pdb
     RDKit          3D

 26 25  0  0  1  0  0  0  0  0999 V2000
   21.1800  -15.6388  -16.6507 N   0  0  0  0  0  0  0  0  0  0  0  0
   20.3799  -14.5004  -16.9959 C   0  0  1  0  0  0  0  0  0  0  0  0
   19.0592  -14.4615  -16.3069 C   0  0  0  0  0  0  0  0  0  0  0  0
   18.1771  -15.6350  -16.4995 C   0  0  0  0  0  0  0  0  0  0  0  0
   16.8408  -15.6139  -15.8643 C   0  0  0  0  0  0  0  0  0  0  0  0
   15.9813  -16.8172  -16.1119 C   0  0  0  0  0  0  0  0  0  0  0  0
   15.7312  -17.6289  -14.9715 N   0  0  0  0  0  0  0  0  0  0  0  0
   21.1840  -13.2670  -16.7484 C   0  0  0  0  0  0  0  0  0  0  0  0
   22.1005  -13.2734  -15.8496 O   0  0  0  0  0  0  0  0  0  0  0  0
   24.4753   -8.7199  -18.0211 N   0  0  0  0  0  0  0  0  0  0  0  0
   24.7712   -9.9702  -18.6007 C   0  0  0  0  0  0  0  0  0  0  0  0
   25.9521  -10.2837  -18.8287 O   0  0  0  0  0  0  0  0  0  0  0  0
   23.6723  -10.8970  -18.9322 C   0  0  0  0  0  0  0  0  0  0  0  0
   22.3179  -10.4175  -18.5848 C   0  0  0  0  0  0  0  0  0  0  0  0
   21.7997  -10.8612  -17.2552 C   0  0  2  0  0  0  0  0  0  0  0  0
   20.9775  -12.0723  -17.4702 N   0  0  0  0  0  0  0  0  0  0  0  0
   20.8655   -9.8571  -16.7025 C   0  0  0  0  0  0  0  0  0  0  0  0
   19.8078   -9.5037  -17.3346 O   0  0  0  0  0  0  0  0  0  0  0  0
   18.5803   -9.8994  -14.1303 C   0  0  0  0  0  0  0  0  0  0  0  0
   19.4370   -8.6939  -13.7703 C   0  0  2  0  0  0  0  0  0  0  0  0
   18.4565   -7.6299  -13.2619 C   0  0  0  0  0  0  0  0  0  0  0  0
   20.1179   -8.1685  -15.0273 C   0  0  2  0  0  0  0  0  0  0  0  0
   21.0405   -9.2092  -15.4528 N   0  0  0  0  0  0  0  0  0  0  0  0
   20.8170   -6.9253  -14.6488 C   0  0  0  0  0  0  0  0  0  0  0  0
   22.1733   -7.0004  -14.3666 O   0  0  0  0  0  0  0  0  0  0  0  0
   20.2775   -5.7931  -14.5607 O   0  0  0  0  0  0  0  0  0  0  0  0
  2  1  1  1
  3  2  1  0
  4  3  1  0
  5  4  1  0
  5  6  1  0
  7  6  1  0
  8  9  2  0
  8  2  1  0
 10 11  1  0
 11 12  2  0
 11 13  1  0
 13 14  1  0
 15 14  1  6
 15 16  1  0
 16  8  1  0
 17 15  1  0
 18 17  2  0
 20 19  1  6
 20 22  1  0
 21 20  1  0
 22 23  1  1
 22 24  1  0
 23 17  1  0
 24 25  1  0
 26 24  2  0
M  END
$$$$
