KQV.pdb
     RDKit          3D

 26 25  0  0  1  0  0  0  0  0999 V2000
   28.9440  -21.4759  -18.0251 N   0  0  0  0  0  0  0  0  0  0  0  0
   28.0127  -22.1327  -17.1553 C   0  0  1  0  0  0  0  0  0  0  0  0
   28.6358  -23.1541  -16.2671 C   0  0  0  0  0  0  0  0  0  0  0  0
   29.0277  -24.4330  -16.9019 C   0  0  0  0  0  0  0  0  0  0  0  0
   27.9545  -25.3697  -17.3025 C   0  0  0  0  0  0  0  0  0  0  0  0
   27.4894  -26.3217  -16.2417 C   0  0  0  0  0  0  0  0  0  0  0  0
   26.3613  -27.1141  -16.5903 N   0  0  0  0  0  0  0  0  0  0  0  0
   27.2710  -21.0902  -16.3857 C   0  0  0  0  0  0  0  0  0  0  0  0
   27.9168  -20.1365  -15.8189 O   0  0  0  0  0  0  0  0  0  0  0  0
   21.5969  -18.9246  -17.5941 N   0  0  0  0  0  0  0  0  0  0  0  0
   21.8245  -18.3510  -16.3269 C   0  0  0  0  0  0  0  0  0  0  0  0
   21.0267  -17.5124  -15.8738 O   0  0  0  0  0  0  0  0  0  0  0  0
   23.0117  -18.7527  -15.5487 C   0  0  0  0  0  0  0  0  0  0  0  0
   23.9356  -19.6757  -16.2413 C   0  0  0  0  0  0  0  0  0  0  0  0
   25.1329  -20.0986  -15.4535 C   0  0  2  0  0  0  0  0  0  0  0  0
   25.8666  -21.1068  -16.2499 N   0  0  0  0  0  0  0  0  0  0  0  0
   24.7192  -20.8087  -14.2242 C   0  0  0  0  0  0  0  0  0  0  0  0
   24.2185  -21.9879  -14.2655 O   0  0  0  0  0  0  0  0  0  0  0  0
   26.5108  -20.7595  -10.6258 C   0  0  0  0  0  0  0  0  0  0  0  0
   25.0266  -20.4308  -10.5487 C   0  0  2  0  0  0  0  0  0  0  0  0
   24.5098  -21.1541   -9.2989 C   0  0  0  0  0  0  0  0  0  0  0  0
   24.3213  -21.0043  -11.7707 C   0  0  2  0  0  0  0  0  0  0  0  0
   24.8371  -20.2720  -12.9165 N   0  0  0  0  0  0  0  0  0  0  0  0
   22.8754  -20.7842  -11.5741 C   0  0  0  0  0  0  0  0  0  0  0  0
   22.1308  -21.8099  -11.0100 O   0  0  0  0  0  0  0  0  0  0  0  0
   22.2584  -19.7321  -11.8795 O   0  0  0  0  0  0  0  0  0  0  0  0
  2  1  1  1
  3  2  1  0
  4  3  1  0
  5  4  1  0
  5  6  1  0
  7  6  1  0
  8  9  2  0
  8  2  1  0
 10 11  1  0
 11 12  2  0
 11 13  1  0
 13 14  1  0
 15 14  1  6
 15 16  1  0
 16  8  1  0
 17 15  1  0
 18 17  2  0
 20 19  1  6
 20 22  1  0
 21 20  1  0
 22 23  1  6
 22 24  1  0
 23 17  1  0
 24 25  1  0
 26 24  2  0
M  END
$$$$
