KQV.pdb
     RDKit          3D

 26 25  0  0  1  0  0  0  0  0999 V2000
   25.1862  -18.1115  -19.2557 N   0  0  0  0  0  0  0  0  0  0  0  0
   25.8535  -18.8697  -18.2382 C   0  0  1  0  0  0  0  0  0  0  0  0
   27.3015  -18.5471  -18.0993 C   0  0  0  0  0  0  0  0  0  0  0  0
   28.1555  -18.8143  -19.2790 C   0  0  0  0  0  0  0  0  0  0  0  0
   27.8384  -18.1118  -20.5422 C   0  0  0  0  0  0  0  0  0  0  0  0
   28.7237  -18.4343  -21.7085 C   0  0  0  0  0  0  0  0  0  0  0  0
   29.9698  -17.7497  -21.7314 N   0  0  0  0  0  0  0  0  0  0  0  0
   25.1090  -18.6946  -16.9559 C   0  0  0  0  0  0  0  0  0  0  0  0
   25.1858  -17.5815  -16.3212 O   0  0  0  0  0  0  0  0  0  0  0  0
   19.4484  -20.4900  -15.7751 N   0  0  0  0  0  0  0  0  0  0  0  0
   19.8506  -20.1642  -14.4641 C   0  0  0  0  0  0  0  0  0  0  0  0
   19.0262  -20.2049  -13.5347 O   0  0  0  0  0  0  0  0  0  0  0  0
   21.2506  -19.7765  -14.2075 C   0  0  0  0  0  0  0  0  0  0  0  0
   22.1263  -19.7553  -15.3982 C   0  0  0  0  0  0  0  0  0  0  0  0
   23.5807  -19.5494  -15.1235 C   0  0  2  0  0  0  0  0  0  0  0  0
   24.3112  -19.7167  -16.3993 N   0  0  0  0  0  0  0  0  0  0  0  0
   24.0977  -20.6191  -14.2431 C   0  0  0  0  0  0  0  0  0  0  0  0
   23.8049  -21.8514  -14.4397 O   0  0  0  0  0  0  0  0  0  0  0  0
   26.2065  -19.7517  -10.7088 C   0  0  0  0  0  0  0  0  0  0  0  0
   26.5286  -21.0308  -11.4683 C   0  0  2  0  0  0  0  0  0  0  0  0
   27.6173  -20.6464  -12.4778 C   0  0  0  0  0  0  0  0  0  0  0  0
   25.2926  -21.4852  -12.2335 C   0  0  2  0  0  0  0  0  0  0  0  0
   24.9475  -20.3932  -13.1300 N   0  0  0  0  0  0  0  0  0  0  0  0
   24.2379  -21.7388  -11.2330 C   0  0  0  0  0  0  0  0  0  0  0  0
   24.3065  -22.9128  -10.4969 O   0  0  0  0  0  0  0  0  0  0  0  0
   23.2732  -20.9694  -10.9918 O   0  0  0  0  0  0  0  0  0  0  0  0
  2  1  1  6
  3  2  1  0
  4  3  1  0
  5  4  1  0
  5  6  1  0
  7  6  1  0
  8  9  2  0
  8  2  1  0
 10 11  1  0
 11 12  2  0
 11 13  1  0
 13 14  1  0
 15 14  1  6
 15 16  1  0
 16  8  1  0
 17 15  1  0
 18 17  2  0
 20 19  1  6
 20 22  1  0
 21 20  1  0
 22 23  1  6
 22 24  1  0
 23 17  1  0
 24 25  1  0
 26 24  2  0
M  END
$$$$
