KQV.pdb
     RDKit          3D

 26 25  0  0  1  0  0  0  0  0999 V2000
   25.5025  -18.9599  -16.3360 N   0  0  0  0  0  0  0  0  0  0  0  0
   26.3827  -18.7750  -15.2195 C   0  0  1  0  0  0  0  0  0  0  0  0
   27.1274  -17.4847  -15.2473 C   0  0  0  0  0  0  0  0  0  0  0  0
   28.4038  -17.4729  -15.9977 C   0  0  0  0  0  0  0  0  0  0  0  0
   28.4245  -18.0804  -17.3468 C   0  0  0  0  0  0  0  0  0  0  0  0
   29.7540  -18.0858  -18.0399 C   0  0  0  0  0  0  0  0  0  0  0  0
   29.7746  -18.7304  -19.3072 N   0  0  0  0  0  0  0  0  0  0  0  0
   25.5931  -18.9459  -13.9639 C   0  0  0  0  0  0  0  0  0  0  0  0
   24.9007  -17.9658  -13.5081 O   0  0  0  0  0  0  0  0  0  0  0  0
   21.7063  -19.2078  -13.9148 N   0  0  0  0  0  0  0  0  0  0  0  0
   21.8606  -20.2416  -12.9692 C   0  0  0  0  0  0  0  0  0  0  0  0
   21.2252  -20.2049  -11.9016 O   0  0  0  0  0  0  0  0  0  0  0  0
   22.7783  -21.3602  -13.2570 C   0  0  0  0  0  0  0  0  0  0  0  0
   23.8681  -21.5488  -12.2763 C   0  0  0  0  0  0  0  0  0  0  0  0
   24.7344  -20.3543  -12.0397 C   0  0  2  0  0  0  0  0  0  0  0  0
   25.5742  -20.1580  -13.2418 N   0  0  0  0  0  0  0  0  0  0  0  0
   25.6908  -20.6177  -10.9431 C   0  0  0  0  0  0  0  0  0  0  0  0
   26.6509  -21.4565  -11.0758 O   0  0  0  0  0  0  0  0  0  0  0  0
   27.1299  -18.1095   -8.1655 C   0  0  0  0  0  0  0  0  0  0  0  0
   26.4972  -19.3474   -7.5458 C   0  0  2  0  0  0  0  0  0  0  0  0
   27.4332  -19.7591   -6.4028 C   0  0  0  0  0  0  0  0  0  0  0  0
   26.4672  -20.4664   -8.5786 C   0  0  2  0  0  0  0  0  0  0  0  0
   25.6437  -19.9827   -9.6755 N   0  0  0  0  0  0  0  0  0  0  0  0
   25.8763  -21.6454   -7.9166 C   0  0  0  0  0  0  0  0  0  0  0  0
   26.7037  -22.4348   -7.1310 O   0  0  0  0  0  0  0  0  0  0  0  0
   24.6721  -21.9954   -8.0080 O   0  0  0  0  0  0  0  0  0  0  0  0
  2  1  1  6
  3  2  1  0
  4  3  1  0
  5  4  1  0
  5  6  1  0
  7  6  1  0
  8  9  2  0
  8  2  1  0
 10 11  1  0
 11 12  2  0
 11 13  1  0
 13 14  1  0
 15 14  1  6
 15 16  1  0
 16  8  1  0
 17 15  1  0
 18 17  2  0
 20 19  1  6
 20 22  1  0
 21 20  1  0
 22 23  1  6
 22 24  1  0
 23 17  1  0
 24 25  1  0
 26 24  2  0
M  END
$$$$
