KQV.pdb
     RDKit          3D

 26 25  0  0  1  0  0  0  0  0999 V2000
   18.0159  -11.6045  -14.7913 N   0  0  0  0  0  0  0  0  0  0  0  0
   17.4335  -10.6592  -15.6983 C   0  0  1  0  0  0  0  0  0  0  0  0
   16.0709  -11.0369  -16.1684 C   0  0  0  0  0  0  0  0  0  0  0  0
   15.8383  -12.4740  -16.4383 C   0  0  0  0  0  0  0  0  0  0  0  0
   14.5006  -12.8850  -16.9192 C   0  0  0  0  0  0  0  0  0  0  0  0
   14.2893  -14.3608  -17.0788 C   0  0  0  0  0  0  0  0  0  0  0  0
   12.9738  -14.7479  -17.4549 N   0  0  0  0  0  0  0  0  0  0  0  0
   17.4571   -9.3124  -15.0543 C   0  0  0  0  0  0  0  0  0  0  0  0
   16.9993   -8.2946  -15.6885 O   0  0  0  0  0  0  0  0  0  0  0  0
   16.0837   -8.0984   -9.2547 N   0  0  0  0  0  0  0  0  0  0  0  0
   16.6925   -6.8730   -9.5931 C   0  0  0  0  0  0  0  0  0  0  0  0
   16.6454   -5.9175   -8.7996 O   0  0  0  0  0  0  0  0  0  0  0  0
   17.3815   -6.7365  -10.8904 C   0  0  0  0  0  0  0  0  0  0  0  0
   17.3173   -7.9261  -11.7656 C   0  0  0  0  0  0  0  0  0  0  0  0
   17.9656   -7.7762  -13.1036 C   0  0  2  0  0  0  0  0  0  0  0  0
   17.9702   -9.1038  -13.7565 N   0  0  0  0  0  0  0  0  0  0  0  0
   19.3925   -7.4197  -12.9504 C   0  0  0  0  0  0  0  0  0  0  0  0
   20.1859   -8.1192  -12.2263 O   0  0  0  0  0  0  0  0  0  0  0  0
   21.3910   -5.2891  -15.6706 C   0  0  0  0  0  0  0  0  0  0  0  0
   22.1418   -6.0698  -14.6013 C   0  0  2  0  0  0  0  0  0  0  0  0
   22.1163   -7.5313  -15.0652 C   0  0  0  0  0  0  0  0  0  0  0  0
   21.3895   -5.9640  -13.2812 C   0  0  2  0  0  0  0  0  0  0  0  0
   20.0063   -6.3040  -13.5754 N   0  0  0  0  0  0  0  0  0  0  0  0
   21.5335   -4.5711  -12.8158 C   0  0  0  0  0  0  0  0  0  0  0  0
   22.7099   -4.2179  -12.1706 O   0  0  0  0  0  0  0  0  0  0  0  0
   20.6680   -3.6703  -12.9582 O   0  0  0  0  0  0  0  0  0  0  0  0
  2  1  1  1
  3  2  1  0
  4  3  1  0
  5  4  1  0
  5  6  1  0
  7  6  1  0
  8  9  2  0
  8  2  1  0
 10 11  1  0
 11 12  2  0
 11 13  1  0
 13 14  1  0
 15 14  1  1
 15 16  1  0
 16  8  1  0
 17 15  1  0
 18 17  2  0
 20 19  1  6
 20 22  1  0
 21 20  1  0
 22 23  1  6
 22 24  1  0
 23 17  1  0
 24 25  1  0
 26 24  2  0
M  END
$$$$
