KQV.pdb
     RDKit          3D

 26 25  0  0  1  0  0  0  0  0999 V2000
   25.5430  -20.9106  -15.0950 N   0  0  0  0  0  0  0  0  0  0  0  0
   26.6739  -20.6623  -14.2495 C   0  0  1  0  0  0  0  0  0  0  0  0
   27.8066  -19.9862  -14.9424 C   0  0  0  0  0  0  0  0  0  0  0  0
   28.1078  -20.4420  -16.3187 C   0  0  0  0  0  0  0  0  0  0  0  0
   28.7856  -21.7464  -16.4880 C   0  0  0  0  0  0  0  0  0  0  0  0
   29.0851  -22.1478  -17.9012 C   0  0  0  0  0  0  0  0  0  0  0  0
   29.7316  -23.4056  -18.0503 N   0  0  0  0  0  0  0  0  0  0  0  0
   26.2085  -19.9024  -13.0515 C   0  0  0  0  0  0  0  0  0  0  0  0
   25.6771  -18.7433  -13.1990 O   0  0  0  0  0  0  0  0  0  0  0  0
   21.5009  -21.5725  -11.3671 N   0  0  0  0  0  0  0  0  0  0  0  0
   21.6779  -20.7266  -10.2537 C   0  0  0  0  0  0  0  0  0  0  0  0
   20.7092  -20.4491   -9.5260 O   0  0  0  0  0  0  0  0  0  0  0  0
   23.0156  -20.1770   -9.9625 C   0  0  0  0  0  0  0  0  0  0  0  0
   24.0558  -20.4876  -10.9658 C   0  0  0  0  0  0  0  0  0  0  0  0
   25.4294  -19.9964  -10.6416 C   0  0  2  0  0  0  0  0  0  0  0  0
   26.3298  -20.4097  -11.7404 N   0  0  0  0  0  0  0  0  0  0  0  0
   25.9532  -20.6800   -9.4395 C   0  0  0  0  0  0  0  0  0  0  0  0
   26.0004  -21.9585   -9.3605 O   0  0  0  0  0  0  0  0  0  0  0  0
   27.5524  -18.5405   -6.2428 C   0  0  0  0  0  0  0  0  0  0  0  0
   28.0204  -19.9645   -6.5072 C   0  0  2  0  0  0  0  0  0  0  0  0
   29.1492  -19.8415   -7.5381 C   0  0  0  0  0  0  0  0  0  0  0  0
   26.8794  -20.7612   -7.1261 C   0  0  2  0  0  0  0  0  0  0  0  0
   26.4450  -20.0074   -8.2916 N   0  0  0  0  0  0  0  0  0  0  0  0
   25.8216  -20.8618   -6.1021 C   0  0  0  0  0  0  0  0  0  0  0  0
   26.0836  -21.6138   -4.9660 O   0  0  0  0  0  0  0  0  0  0  0  0
   24.6915  -20.3159   -6.1771 O   0  0  0  0  0  0  0  0  0  0  0  0
  2  1  1  6
  3  2  1  0
  4  3  1  0
  5  4  1  0
  5  6  1  0
  7  6  1  0
  8  9  2  0
  8  2  1  0
 10 11  1  0
 11 12  2  0
 11 13  1  0
 13 14  1  0
 15 14  1  6
 15 16  1  0
 16  8  1  0
 17 15  1  0
 18 17  2  0
 20 19  1  6
 20 22  1  0
 21 20  1  0
 22 23  1  6
 22 24  1  0
 23 17  1  0
 24 25  1  0
 26 24  2  0
M  END
$$$$
