KQV.pdb
     RDKit          3D

 26 25  0  0  1  0  0  0  0  0999 V2000
   28.3286  -21.8738  -18.5452 N   0  0  0  0  0  0  0  0  0  0  0  0
   27.4478  -22.5224  -17.6184 C   0  0  1  0  0  0  0  0  0  0  0  0
   28.0558  -23.6963  -16.9310 C   0  0  0  0  0  0  0  0  0  0  0  0
   29.3786  -24.1413  -17.4255 C   0  0  0  0  0  0  0  0  0  0  0  0
   30.3685  -24.6184  -16.4345 C   0  0  0  0  0  0  0  0  0  0  0  0
   31.7265  -24.9506  -16.9762 C   0  0  0  0  0  0  0  0  0  0  0  0
   32.6947  -25.3186  -16.0020 N   0  0  0  0  0  0  0  0  0  0  0  0
   26.9433  -21.5004  -16.6540 C   0  0  0  0  0  0  0  0  0  0  0  0
   27.3189  -20.2781  -16.7661 O   0  0  0  0  0  0  0  0  0  0  0  0
   21.1683  -20.8820  -15.4861 N   0  0  0  0  0  0  0  0  0  0  0  0
   21.6673  -19.9177  -14.5873 C   0  0  0  0  0  0  0  0  0  0  0  0
   20.8911  -19.1050  -14.0563 O   0  0  0  0  0  0  0  0  0  0  0  0
   23.1109  -19.8825  -14.2852 C   0  0  0  0  0  0  0  0  0  0  0  0
   23.9470  -20.7884  -15.1008 C   0  0  0  0  0  0  0  0  0  0  0  0
   25.4041  -20.7919  -14.7691 C   0  0  2  0  0  0  0  0  0  0  0  0
   26.0568  -21.8237  -15.6048 N   0  0  0  0  0  0  0  0  0  0  0  0
   25.6165  -21.2373  -13.3752 C   0  0  0  0  0  0  0  0  0  0  0  0
   25.2686  -22.4070  -12.9830 O   0  0  0  0  0  0  0  0  0  0  0  0
   28.7226  -20.3431  -11.0987 C   0  0  0  0  0  0  0  0  0  0  0  0
   27.4219  -20.1233  -10.3394 C   0  0  2  0  0  0  0  0  0  0  0  0
   27.6664  -20.6852   -8.9335 C   0  0  0  0  0  0  0  0  0  0  0  0
   26.3120  -20.9299  -11.0007 C   0  0  2  0  0  0  0  0  0  0  0  0
   26.2133  -20.4388  -12.3660 N   0  0  0  0  0  0  0  0  0  0  0  0
   25.0802  -20.6785  -10.2280 C   0  0  0  0  0  0  0  0  0  0  0  0
   24.7661  -21.5545   -9.1990 O   0  0  0  0  0  0  0  0  0  0  0  0
   24.2851  -19.7255  -10.4290 O   0  0  0  0  0  0  0  0  0  0  0  0
  2  1  1  6
  3  2  1  0
  4  3  1  0
  5  4  1  0
  5  6  1  0
  7  6  1  0
  8  9  2  0
  8  2  1  0
 10 11  1  0
 11 12  2  0
 11 13  1  0
 13 14  1  0
 15 14  1  6
 15 16  1  0
 16  8  1  0
 17 15  1  0
 18 17  2  0
 20 19  1  6
 20 22  1  0
 21 20  1  0
 22 23  1  6
 22 24  1  0
 23 17  1  0
 24 25  1  0
 26 24  2  0
M  END
$$$$
