KQV.pdb
     RDKit          3D

 26 25  0  0  1  0  0  0  0  0999 V2000
   23.9318  -21.6001  -15.2035 N   0  0  0  0  0  0  0  0  0  0  0  0
   23.9492  -20.3087  -14.5812 C   0  0  1  0  0  0  0  0  0  0  0  0
   24.1786  -19.1851  -15.5326 C   0  0  0  0  0  0  0  0  0  0  0  0
   25.2318  -19.3866  -16.5537 C   0  0  0  0  0  0  0  0  0  0  0  0
   24.8559  -20.0531  -17.8202 C   0  0  0  0  0  0  0  0  0  0  0  0
   25.9543  -20.2039  -18.8295 C   0  0  0  0  0  0  0  0  0  0  0  0
   27.2474  -19.8186  -18.3807 N   0  0  0  0  0  0  0  0  0  0  0  0
   22.6851  -20.1432  -13.8041 C   0  0  0  0  0  0  0  0  0  0  0  0
   22.2867  -18.9673  -13.4780 O   0  0  0  0  0  0  0  0  0  0  0  0
   20.7053  -19.0680  -16.3141 N   0  0  0  0  0  0  0  0  0  0  0  0
   19.8265  -18.4833  -15.3801 C   0  0  0  0  0  0  0  0  0  0  0  0
   19.5516  -17.2738  -15.4606 O   0  0  0  0  0  0  0  0  0  0  0  0
   19.2402  -19.3156  -14.3125 C   0  0  0  0  0  0  0  0  0  0  0  0
   19.7162  -20.7144  -14.2717 C   0  0  0  0  0  0  0  0  0  0  0  0
   20.4673  -21.1028  -13.0396 C   0  0  2  0  0  0  0  0  0  0  0  0
   21.8946  -21.2413  -13.4035 N   0  0  0  0  0  0  0  0  0  0  0  0
   20.0556  -22.4482  -12.5849 C   0  0  0  0  0  0  0  0  0  0  0  0
   20.3514  -23.5025  -13.2513 O   0  0  0  0  0  0  0  0  0  0  0  0
   19.7404  -23.4999   -8.7019 C   0  0  0  0  0  0  0  0  0  0  0  0
   18.5700  -23.9880   -9.5437 C   0  0  2  0  0  0  0  0  0  0  0  0
   18.2722  -25.4088   -9.0490 C   0  0  0  0  0  0  0  0  0  0  0  0
   18.9971  -24.0596  -11.0039 C   0  0  2  0  0  0  0  0  0  0  0  0
   19.3187  -22.6973  -11.3986 N   0  0  0  0  0  0  0  0  0  0  0  0
   17.8519  -24.6026  -11.7597 C   0  0  0  0  0  0  0  0  0  0  0  0
   16.9143  -23.7078  -12.2545 O   0  0  0  0  0  0  0  0  0  0  0  0
   17.6557  -25.8223  -11.9934 O   0  0  0  0  0  0  0  0  0  0  0  0
  2  1  1  6
  3  2  1  0
  4  3  1  0
  5  4  1  0
  5  6  1  0
  7  6  1  0
  8  9  2  0
  8  2  1  0
 10 11  1  0
 11 12  2  0
 11 13  1  0
 13 14  1  0
 15 14  1  6
 15 16  1  0
 16  8  1  0
 17 15  1  0
 18 17  2  0
 20 19  1  1
 20 22  1  0
 21 20  1  0
 22 23  1  6
 22 24  1  0
 23 17  1  0
 24 25  1  0
 26 24  2  0
M  END
$$$$
