KQV.pdb
     RDKit          3D

 26 25  0  0  1  0  0  0  0  0999 V2000
   16.8909  -13.4758  -19.3546 N   0  0  0  0  0  0  0  0  0  0  0  0
   16.6661  -12.6899  -18.1768 C   0  0  1  0  0  0  0  0  0  0  0  0
   16.5649  -13.4943  -16.9266 C   0  0  0  0  0  0  0  0  0  0  0  0
   16.8952  -14.9334  -17.0367 C   0  0  0  0  0  0  0  0  0  0  0  0
   16.8669  -15.7511  -15.8037 C   0  0  0  0  0  0  0  0  0  0  0  0
   17.3894  -17.1501  -15.9361 C   0  0  0  0  0  0  0  0  0  0  0  0
   17.3658  -17.9219  -14.7420 N   0  0  0  0  0  0  0  0  0  0  0  0
   17.7327  -11.6483  -18.0949 C   0  0  0  0  0  0  0  0  0  0  0  0
   18.9112  -11.9071  -18.5329 O   0  0  0  0  0  0  0  0  0  0  0  0
   16.6556   -5.4771  -17.1338 N   0  0  0  0  0  0  0  0  0  0  0  0
   18.0627   -5.5195  -17.2027 C   0  0  0  0  0  0  0  0  0  0  0  0
   18.7167   -4.4628  -17.1777 O   0  0  0  0  0  0  0  0  0  0  0  0
   18.7475   -6.8223  -17.3045 C   0  0  0  0  0  0  0  0  0  0  0  0
   17.8551   -7.9959  -17.4104 C   0  0  0  0  0  0  0  0  0  0  0  0
   18.5418   -9.3197  -17.5061 C   0  0  2  0  0  0  0  0  0  0  0  0
   17.4997  -10.3692  -17.5466 N   0  0  0  0  0  0  0  0  0  0  0  0
   19.3130   -9.5930  -16.2744 C   0  0  0  0  0  0  0  0  0  0  0  0
   18.7461  -10.0227  -15.2081 O   0  0  0  0  0  0  0  0  0  0  0  0
   23.4259  -10.7437  -13.9640 C   0  0  0  0  0  0  0  0  0  0  0  0
   22.7160  -10.3293  -15.2450 C   0  0  2  0  0  0  0  0  0  0  0  0
   23.6239   -9.2793  -15.8970 C   0  0  0  0  0  0  0  0  0  0  0  0
   21.3870   -9.6739  -14.8930 C   0  0  2  0  0  0  0  0  0  0  0  0
   20.7155   -9.4162  -16.1570 N   0  0  0  0  0  0  0  0  0  0  0  0
   21.7020   -8.4290  -14.1658 C   0  0  0  0  0  0  0  0  0  0  0  0
   21.9744   -8.5183  -12.8084 O   0  0  0  0  0  0  0  0  0  0  0  0
   21.7437   -7.2834  -14.6823 O   0  0  0  0  0  0  0  0  0  0  0  0
  2  1  1  6
  3  2  1  0
  4  3  1  0
  5  4  1  0
  5  6  1  0
  7  6  1  0
  8  9  2  0
  8  2  1  0
 10 11  1  0
 11 12  2  0
 11 13  1  0
 13 14  1  0
 15 14  1  1
 15 16  1  0
 16  8  1  0
 17 15  1  0
 18 17  2  0
 20 19  1  1
 20 22  1  0
 21 20  1  0
 22 23  1  6
 22 24  1  0
 23 17  1  0
 24 25  1  0
 26 24  2  0
M  END
$$$$
