KQV.pdb
     RDKit          3D

 26 25  0  0  1  0  0  0  0  0999 V2000
   19.2886  -13.1916  -15.6618 N   0  0  0  0  0  0  0  0  0  0  0  0
   18.5083  -12.8445  -16.8134 C   0  0  1  0  0  0  0  0  0  0  0  0
   17.6153  -13.9390  -17.2875 C   0  0  0  0  0  0  0  0  0  0  0  0
   16.8914  -14.7014  -16.2449 C   0  0  0  0  0  0  0  0  0  0  0  0
   16.0753  -15.8605  -16.6695 C   0  0  0  0  0  0  0  0  0  0  0  0
   15.2529  -16.5080  -15.5962 C   0  0  0  0  0  0  0  0  0  0  0  0
   15.4307  -17.9122  -15.4599 N   0  0  0  0  0  0  0  0  0  0  0  0
   17.7561  -11.5905  -16.5121 C   0  0  0  0  0  0  0  0  0  0  0  0
   16.9657  -11.0941  -17.3934 O   0  0  0  0  0  0  0  0  0  0  0  0
   16.5137   -9.8378  -10.7054 N   0  0  0  0  0  0  0  0  0  0  0  0
   15.4163  -10.1484  -11.5336 C   0  0  0  0  0  0  0  0  0  0  0  0
   14.3437  -10.5207  -11.0277 O   0  0  0  0  0  0  0  0  0  0  0  0
   15.5524  -10.0282  -12.9977 C   0  0  0  0  0  0  0  0  0  0  0  0
   16.9017   -9.6601  -13.4763 C   0  0  0  0  0  0  0  0  0  0  0  0
   17.0922   -9.7017  -14.9579 C   0  0  2  0  0  0  0  0  0  0  0  0
   17.8778  -10.9133  -15.2802 N   0  0  0  0  0  0  0  0  0  0  0  0
   17.9333   -8.5700  -15.4035 C   0  0  0  0  0  0  0  0  0  0  0  0
   19.2073   -8.5836  -15.2631 O   0  0  0  0  0  0  0  0  0  0  0  0
   18.8764   -4.9087  -18.3927 C   0  0  0  0  0  0  0  0  0  0  0  0
   18.0266   -6.0731  -17.9038 C   0  0  2  0  0  0  0  0  0  0  0  0
   16.5727   -5.6008  -18.0264 C   0  0  0  0  0  0  0  0  0  0  0  0
   18.3319   -6.3354  -16.4349 C   0  0  2  0  0  0  0  0  0  0  0  0
   17.4278   -7.3950  -16.0166 N   0  0  0  0  0  0  0  0  0  0  0  0
   18.0822   -5.0730  -15.7128 C   0  0  0  0  0  0  0  0  0  0  0  0
   19.1115   -4.1450  -15.6473 O   0  0  0  0  0  0  0  0  0  0  0  0
   17.0017   -4.7679  -15.1468 O   0  0  0  0  0  0  0  0  0  0  0  0
  2  1  1  1
  3  2  1  0
  4  3  1  0
  5  4  1  0
  5  6  1  0
  7  6  1  0
  8  9  2  0
  8  2  1  0
 10 11  1  0
 11 12  2  0
 11 13  1  0
 13 14  1  0
 15 14  1  1
 15 16  1  0
 16  8  1  0
 17 15  1  0
 18 17  2  0
 20 19  1  1
 20 22  1  0
 21 20  1  0
 22 23  1  1
 22 24  1  0
 23 17  1  0
 24 25  1  0
 26 24  2  0
M  END
$$$$
