KQV.pdb
     RDKit          3D

 26 25  0  0  1  0  0  0  0  0999 V2000
   26.3103  -25.0900  -16.0955 N   0  0  0  0  0  0  0  0  0  0  0  0
   26.6523  -23.7607  -15.6816 C   0  0  1  0  0  0  0  0  0  0  0  0
   27.1575  -22.8975  -16.7861 C   0  0  0  0  0  0  0  0  0  0  0  0
   28.1931  -23.4861  -17.6656 C   0  0  0  0  0  0  0  0  0  0  0  0
   29.5346  -23.7346  -17.0926 C   0  0  0  0  0  0  0  0  0  0  0  0
   30.5595  -24.2783  -18.0423 C   0  0  0  0  0  0  0  0  0  0  0  0
   31.8605  -24.4534  -17.4955 N   0  0  0  0  0  0  0  0  0  0  0  0
   25.4705  -23.1635  -14.9917 C   0  0  0  0  0  0  0  0  0  0  0  0
   24.2859  -23.5268  -15.3271 O   0  0  0  0  0  0  0  0  0  0  0  0
   25.7490  -19.8802   -9.5703 N   0  0  0  0  0  0  0  0  0  0  0  0
   24.5796  -20.6668   -9.5513 C   0  0  0  0  0  0  0  0  0  0  0  0
   23.9594  -20.8297   -8.4865 O   0  0  0  0  0  0  0  0  0  0  0  0
   24.1020  -21.2912  -10.7997 C   0  0  0  0  0  0  0  0  0  0  0  0
   24.9171  -21.0041  -11.9990 C   0  0  0  0  0  0  0  0  0  0  0  0
   24.4308  -21.6211  -13.2702 C   0  0  2  0  0  0  0  0  0  0  0  0
   25.5993  -22.1991  -13.9697 N   0  0  0  0  0  0  0  0  0  0  0  0
   23.9125  -20.5813  -14.1850 C   0  0  0  0  0  0  0  0  0  0  0  0
   24.6777  -19.6801  -14.6804 O   0  0  0  0  0  0  0  0  0  0  0  0
   22.7971  -20.5988  -17.4618 C   0  0  0  0  0  0  0  0  0  0  0  0
   21.6220  -19.9732  -16.7240 C   0  0  2  0  0  0  0  0  0  0  0  0
   21.1228  -18.8415  -17.6306 C   0  0  0  0  0  0  0  0  0  0  0  0
   22.1150  -19.3687  -15.4158 C   0  0  2  0  0  0  0  0  0  0  0  0
   22.5582  -20.4850  -14.5957 N   0  0  0  0  0  0  0  0  0  0  0  0
   20.9713  -18.6557  -14.8148 C   0  0  0  0  0  0  0  0  0  0  0  0
   20.7057  -17.3656  -15.2504 O   0  0  0  0  0  0  0  0  0  0  0  0
   20.2111  -19.1278  -13.9315 O   0  0  0  0  0  0  0  0  0  0  0  0
  2  1  1  6
  3  2  1  0
  4  3  1  0
  5  4  1  0
  5  6  1  0
  7  6  1  0
  8  9  2  0
  8  2  1  0
 10 11  1  0
 11 12  2  0
 11 13  1  0
 13 14  1  0
 15 14  1  1
 15 16  1  0
 16  8  1  0
 17 15  1  0
 18 17  2  0
 20 19  1  6
 20 22  1  0
 21 20  1  0
 22 23  1  1
 22 24  1  0
 23 17  1  0
 24 25  1  0
 26 24  2  0
M  END
$$$$
