KQV.pdb
     RDKit          3D

 26 25  0  0  1  0  0  0  0  0999 V2000
   18.8134  -13.2426  -17.5747 N   0  0  0  0  0  0  0  0  0  0  0  0
   18.2217  -12.1425  -16.8709 C   0  0  1  0  0  0  0  0  0  0  0  0
   17.7489  -12.4888  -15.5010 C   0  0  0  0  0  0  0  0  0  0  0  0
   16.3682  -13.0119  -15.3895 C   0  0  0  0  0  0  0  0  0  0  0  0
   15.2485  -12.0495  -15.4868 C   0  0  0  0  0  0  0  0  0  0  0  0
   13.8794  -12.6154  -15.2562 C   0  0  0  0  0  0  0  0  0  0  0  0
   12.8157  -11.6736  -15.3166 N   0  0  0  0  0  0  0  0  0  0  0  0
   19.1942  -11.0097  -16.8647 C   0  0  0  0  0  0  0  0  0  0  0  0
   20.3659  -11.1783  -16.3682 O   0  0  0  0  0  0  0  0  0  0  0  0
   22.1769   -8.1720  -19.7984 N   0  0  0  0  0  0  0  0  0  0  0  0
   21.7993   -6.8662  -19.4256 C   0  0  0  0  0  0  0  0  0  0  0  0
   22.5791   -5.9173  -19.6161 O   0  0  0  0  0  0  0  0  0  0  0  0
   20.4779   -6.6383  -18.8105 C   0  0  0  0  0  0  0  0  0  0  0  0
   19.6375   -7.8450  -18.6589 C   0  0  0  0  0  0  0  0  0  0  0  0
   19.8441   -8.6185  -17.3971 C   0  0  2  0  0  0  0  0  0  0  0  0
   18.8773   -9.7383  -17.3883 N   0  0  0  0  0  0  0  0  0  0  0  0
   19.4879   -7.7956  -16.2213 C   0  0  0  0  0  0  0  0  0  0  0  0
   18.2672   -7.5421  -15.9235 O   0  0  0  0  0  0  0  0  0  0  0  0
   22.2061   -6.9727  -13.2747 C   0  0  0  0  0  0  0  0  0  0  0  0
   20.7133   -6.8822  -12.9920 C   0  0  2  0  0  0  0  0  0  0  0  0
   20.2592   -8.3208  -12.7157 C   0  0  0  0  0  0  0  0  0  0  0  0
   19.9964   -6.3751  -14.2364 C   0  0  2  0  0  0  0  0  0  0  0  0
   20.4344   -7.2267  -15.3310 N   0  0  0  0  0  0  0  0  0  0  0  0
   20.4068   -4.9703  -14.4253 C   0  0  0  0  0  0  0  0  0  0  0  0
   19.8817   -4.0166  -13.5654 O   0  0  0  0  0  0  0  0  0  0  0  0
   21.2015   -4.5643  -15.3111 O   0  0  0  0  0  0  0  0  0  0  0  0
  2  1  1  1
  3  2  1  0
  4  3  1  0
  5  4  1  0
  5  6  1  0
  7  6  1  0
  8  9  2  0
  8  2  1  0
 10 11  1  0
 11 12  2  0
 11 13  1  0
 13 14  1  0
 15 14  1  6
 15 16  1  0
 16  8  1  0
 17 15  1  0
 18 17  2  0
 20 19  1  6
 20 22  1  0
 21 20  1  0
 22 23  1  6
 22 24  1  0
 23 17  1  0
 24 25  1  0
 26 24  2  0
M  END
$$$$
