CRS.pdb
     RDKit          3D

 24 23  0  0  1  0  0  0  0  0999 V2000
    5.3456  -12.9559   26.8745 N   0  0  0  0  0  0  0  0  0  0  0  0
    6.1660  -12.7255   25.6616 C   0  0  1  0  0  0  0  0  0  0  0  0
    7.1284  -11.6206   25.9315 C   0  0  0  0  0  0  0  0  0  0  0  0
    8.3063  -12.1081   27.1996 S   0  0  0  0  0  0  0  0  0  0  0  0
    6.7677  -14.0128   25.2555 C   0  0  0  0  0  0  0  0  0  0  0  0
    6.9643  -14.9168   26.1573 O   0  0  0  0  0  0  0  0  0  0  0  0
   10.2763  -13.3211   19.6648 N   0  0  0  0  0  0  0  0  0  0  0  0
    9.0175  -13.3367   19.0137 C   0  0  0  0  0  0  0  0  0  0  0  0
    8.6178  -12.3639   18.2689 N   0  0  0  0  0  0  0  0  0  0  0  0
    8.1161  -14.4544   19.1563 N   0  0  0  0  0  0  0  0  0  0  0  0
    8.4640  -15.5921   19.9571 C   0  0  0  0  0  0  0  0  0  0  0  0
    8.6080  -15.1396   21.4130 C   0  0  0  0  0  0  0  0  0  0  0  0
    7.6848  -15.9916   22.2066 C   0  0  0  0  0  0  0  0  0  0  0  0
    7.7489  -15.7272   23.6949 C   0  0  2  0  0  0  0  0  0  0  0  0
    7.1651  -14.3957   23.9599 N   0  0  0  0  0  0  0  0  0  0  0  0
    9.1188  -15.8464   24.1655 C   0  0  0  0  0  0  0  0  0  0  0  0
    9.8732  -14.8561   24.1960 O   0  0  0  0  0  0  0  0  0  0  0  0
    7.7021  -12.3857   17.7813 O   0  0  0  0  0  0  0  0  0  0  0  0
   10.1033  -18.7818   26.6345 C   0  0  0  0  0  0  0  0  0  0  0  0
   11.1099  -17.8285   26.4207 C   0  0  1  0  0  0  0  0  0  0  0  0
   10.9896  -17.1765   25.0777 N   0  0  0  0  0  0  0  0  0  0  0  0
    9.6346  -17.0804   24.6004 C   0  0  0  0  0  0  0  0  0  0  0  0
   11.7999  -17.9722   24.1178 O   0  0  0  0  0  0  0  0  0  0  0  0
   11.2941  -18.4390   23.0649 O   0  0  0  0  0  0  0  0  0  0  0  0
  2  5  1  0
  2  1  1  1
  3  2  1  0
  4  3  1  0
  5  6  2  0
  7  8  1  0
  8  9  2  0
  8 10  1  0
 10 11  1  0
 11 12  1  0
 12 13  1  0
 14 13  1  6
 15 14  1  0
 15  5  1  0
 16 17  2  0
 16 14  1  0
 18 19  1  0
 20 19  1  1
 20 22  1  0
 20 21  1  0
 21 16  1  0
 22 24  1  0
 23 22  2  0
M  END
$$$$
