CRS.pdb
     RDKit          3D

 24 23  0  0  1  0  0  0  0  0999 V2000
    5.1158  -12.4103   26.6781 N   0  0  0  0  0  0  0  0  0  0  0  0
    6.1238  -12.0512   25.6523 C   0  0  1  0  0  0  0  0  0  0  0  0
    7.1784  -11.2097   26.2844 C   0  0  0  0  0  0  0  0  0  0  0  0
    8.1528  -12.1845   27.4392 S   0  0  0  0  0  0  0  0  0  0  0  0
    6.5978  -13.2951   25.0102 C   0  0  0  0  0  0  0  0  0  0  0  0
    6.4884  -14.4075   25.6581 O   0  0  0  0  0  0  0  0  0  0  0  0
    9.3757  -18.4444   20.0143 N   0  0  0  0  0  0  0  0  0  0  0  0
    8.4456  -18.1640   18.9823 C   0  0  0  0  0  0  0  0  0  0  0  0
    8.3563  -18.8915   17.9224 N   0  0  0  0  0  0  0  0  0  0  0  0
    7.5462  -17.0392   19.0722 N   0  0  0  0  0  0  0  0  0  0  0  0
    7.9866  -15.7749   19.5864 C   0  0  0  0  0  0  0  0  0  0  0  0
    8.2243  -15.9158   21.0927 C   0  0  0  0  0  0  0  0  0  0  0  0
    7.6899  -14.6773   21.7158 C   0  0  0  0  0  0  0  0  0  0  0  0
    7.6358  -14.7368   23.2266 C   0  0  2  0  0  0  0  0  0  0  0  0
    7.1713  -13.4277   23.7310 N   0  0  0  0  0  0  0  0  0  0  0  0
    8.9333  -15.1184   23.7588 C   0  0  0  0  0  0  0  0  0  0  0  0
    9.9038  -14.3404   23.6976 O   0  0  0  0  0  0  0  0  0  0  0  0
    7.7091  -18.6549   17.1465 O   0  0  0  0  0  0  0  0  0  0  0  0
    9.2121  -18.2075   26.3519 C   0  0  0  0  0  0  0  0  0  0  0  0
   10.3592  -17.4106   26.2224 C   0  0  1  0  0  0  0  0  0  0  0  0
   10.4237  -16.7318   24.8890 N   0  0  0  0  0  0  0  0  0  0  0  0
    9.1337  -16.3746   24.3585 C   0  0  0  0  0  0  0  0  0  0  0  0
   11.1105  -17.6552   23.9473 O   0  0  0  0  0  0  0  0  0  0  0  0
   12.2554  -18.1120   24.1978 O   0  0  0  0  0  0  0  0  0  0  0  0
  2  5  1  0
  2  1  1  1
  3  2  1  0
  4  3  1  0
  5  6  2  0
  7  8  1  0
  8  9  2  0
  8 10  1  0
 10 11  1  0
 11 12  1  0
 12 13  1  0
 14 13  1  6
 15 14  1  0
 15  5  1  0
 16 17  2  0
 16 14  1  0
 18 19  1  0
 20 19  1  1
 20 22  1  0
 20 21  1  0
 21 16  1  0
 22 24  1  0
 23 22  2  0
M  END
$$$$
