CRS.pdb
     RDKit          3D

 24 23  0  0  1  0  0  0  0  0999 V2000
    5.5524  -13.9084   26.8387 N   0  0  0  0  0  0  0  0  0  0  0  0
    6.2762  -12.9549   25.9644 C   0  0  1  0  0  0  0  0  0  0  0  0
    7.2241  -12.1607   26.7954 C   0  0  0  0  0  0  0  0  0  0  0  0
    6.5687  -11.9342   28.4544 S   0  0  0  0  0  0  0  0  0  0  0  0
    6.8830  -13.7135   24.8507 C   0  0  0  0  0  0  0  0  0  0  0  0
    6.9241  -15.0024   24.9286 O   0  0  0  0  0  0  0  0  0  0  0  0
    7.1691  -15.0758   17.1295 N   0  0  0  0  0  0  0  0  0  0  0  0
    8.5072  -14.6399   16.9616 C   0  0  0  0  0  0  0  0  0  0  0  0
    9.2691  -15.1052   16.0323 N   0  0  0  0  0  0  0  0  0  0  0  0
    9.0837  -13.6445   17.8326 N   0  0  0  0  0  0  0  0  0  0  0  0
    8.3370  -13.0900   18.9242 C   0  0  0  0  0  0  0  0  0  0  0  0
    8.4661  -14.0252   20.1300 C   0  0  0  0  0  0  0  0  0  0  0  0
    8.0286  -13.2409   21.3136 C   0  0  0  0  0  0  0  0  0  0  0  0
    7.8845  -14.0727   22.5691 C   0  0  2  0  0  0  0  0  0  0  0  0
    7.4394  -13.1900   23.6677 N   0  0  0  0  0  0  0  0  0  0  0  0
    9.1340  -14.7540   22.8638 C   0  0  0  0  0  0  0  0  0  0  0  0
   10.1127  -14.1290   23.3136 O   0  0  0  0  0  0  0  0  0  0  0  0
   10.2221  -14.7304   15.8642 O   0  0  0  0  0  0  0  0  0  0  0  0
    9.0655  -18.6927   23.6059 C   0  0  0  0  0  0  0  0  0  0  0  0
   10.2186  -17.9840   23.9744 C   0  0  1  0  0  0  0  0  0  0  0  0
   10.4745  -16.8185   23.0694 N   0  0  0  0  0  0  0  0  0  0  0  0
    9.2772  -16.1368   22.6512 C   0  0  0  0  0  0  0  0  0  0  0  0
   11.2000  -17.3275   21.8754 O   0  0  0  0  0  0  0  0  0  0  0  0
   12.3141  -17.9016   21.9827 O   0  0  0  0  0  0  0  0  0  0  0  0
  2  5  1  0
  2  1  1  1
  3  2  1  0
  4  3  1  0
  5  6  2  0
  7  8  1  0
  8  9  2  0
  8 10  1  0
 10 11  1  0
 11 12  1  0
 12 13  1  0
 14 13  1  6
 15 14  1  0
 15  5  1  0
 16 17  2  0
 16 14  1  0
 18 19  1  0
 20 19  1  1
 20 22  1  0
 20 21  1  0
 21 16  1  0
 22 24  1  0
 23 22  2  0
M  END
$$$$
