CRS.pdb
     RDKit          3D

 24 23  0  0  1  0  0  0  0  0999 V2000
    5.1875  -13.3230   26.7907 N   0  0  0  0  0  0  0  0  0  0  0  0
    6.4544  -13.0130   26.0862 C   0  0  1  0  0  0  0  0  0  0  0  0
    7.3686  -12.3036   27.0248 C   0  0  0  0  0  0  0  0  0  0  0  0
    6.7417  -10.6584   27.3903 S   0  0  0  0  0  0  0  0  0  0  0  0
    6.9814  -14.2651   25.5042 C   0  0  0  0  0  0  0  0  0  0  0  0
    6.9560  -15.3402   26.2202 O   0  0  0  0  0  0  0  0  0  0  0  0
    8.2974  -14.4972   17.2887 N   0  0  0  0  0  0  0  0  0  0  0  0
    8.4627  -13.4236   18.1990 C   0  0  0  0  0  0  0  0  0  0  0  0
    8.8725  -12.2613   17.8224 N   0  0  0  0  0  0  0  0  0  0  0  0
    8.1766  -13.5843   19.6041 N   0  0  0  0  0  0  0  0  0  0  0  0
    7.7034  -14.8327   20.1280 C   0  0  0  0  0  0  0  0  0  0  0  0
    7.4599  -14.6711   21.6312 C   0  0  0  0  0  0  0  0  0  0  0  0
    8.2466  -15.7411   22.2975 C   0  0  0  0  0  0  0  0  0  0  0  0
    8.1262  -15.7285   23.8056 C   0  0  2  0  0  0  0  0  0  0  0  0
    7.5244  -14.4431   24.2171 N   0  0  0  0  0  0  0  0  0  0  0  0
    9.4256  -15.9632   24.4129 C   0  0  0  0  0  0  0  0  0  0  0  0
   10.2925  -15.0694   24.4344 O   0  0  0  0  0  0  0  0  0  0  0  0
    9.0036  -11.4809   18.4936 O   0  0  0  0  0  0  0  0  0  0  0  0
   10.1625  -19.3150   26.6998 C   0  0  0  0  0  0  0  0  0  0  0  0
   11.1275  -18.2969   26.7093 C   0  0  1  0  0  0  0  0  0  0  0  0
   11.0799  -17.4666   25.4637 N   0  0  0  0  0  0  0  0  0  0  0  0
    9.7444  -17.2034   24.9944 C   0  0  0  0  0  0  0  0  0  0  0  0
   11.8432  -18.1897   24.4122 O   0  0  0  0  0  0  0  0  0  0  0  0
   11.3217  -18.4717   23.3028 O   0  0  0  0  0  0  0  0  0  0  0  0
  2  5  1  0
  2  1  1  1
  3  2  1  0
  4  3  1  0
  5  6  2  0
  7  8  1  0
  8  9  2  0
  8 10  1  0
 10 11  1  0
 11 12  1  0
 12 13  1  0
 14 13  1  6
 15 14  1  0
 15  5  1  0
 16 17  2  0
 16 14  1  0
 18 19  1  0
 20 19  1  1
 20 22  1  0
 20 21  1  0
 21 16  1  0
 22 24  1  0
 23 22  2  0
M  END
$$$$
