CRS.pdb
     RDKit          3D

 24 23  0  0  1  0  0  0  0  0999 V2000
    7.0437  -14.1697   18.4019 N   0  0  0  0  0  0  0  0  0  0  0  0
    8.2578  -13.8740   19.1993 C   0  0  1  0  0  0  0  0  0  0  0  0
    7.9918  -12.6907   20.0647 C   0  0  0  0  0  0  0  0  0  0  0  0
    8.5885  -11.1885   19.2770 S   0  0  0  0  0  0  0  0  0  0  0  0
    8.6606  -15.1068   19.9079 C   0  0  0  0  0  0  0  0  0  0  0  0
    7.7646  -15.7634   20.5676 O   0  0  0  0  0  0  0  0  0  0  0  0
   12.2543  -19.3829   17.7488 N   0  0  0  0  0  0  0  0  0  0  0  0
   11.9909  -20.7080   18.1771 C   0  0  0  0  0  0  0  0  0  0  0  0
   12.0801  -21.7172   17.3808 N   0  0  0  0  0  0  0  0  0  0  0  0
   11.6068  -20.9908   19.5389 N   0  0  0  0  0  0  0  0  0  0  0  0
   10.7491  -20.1028   20.2688 C   0  0  0  0  0  0  0  0  0  0  0  0
   11.5971  -18.9613   20.8372 C   0  0  0  0  0  0  0  0  0  0  0  0
   11.2202  -17.7433   20.0742 C   0  0  0  0  0  0  0  0  0  0  0  0
   10.2348  -16.8559   20.8024 C   0  0  2  0  0  0  0  0  0  0  0  0
    9.9455  -15.6814   19.9534 N   0  0  0  0  0  0  0  0  0  0  0  0
   10.7592  -16.4926   22.1083 C   0  0  0  0  0  0  0  0  0  0  0  0
   11.8491  -15.9003   22.2178 O   0  0  0  0  0  0  0  0  0  0  0  0
   11.8877  -22.6862   17.6983 O   0  0  0  0  0  0  0  0  0  0  0  0
    8.5883  -17.3260   25.5548 C   0  0  0  0  0  0  0  0  0  0  0  0
    9.5945  -16.3544   25.6618 C   0  0  1  0  0  0  0  0  0  0  0  0
   10.6163  -16.4822   24.5742 N   0  0  0  0  0  0  0  0  0  0  0  0
   10.0544  -16.7974   23.2866 C   0  0  0  0  0  0  0  0  0  0  0  0
   11.5692  -17.5506   24.9762 O   0  0  0  0  0  0  0  0  0  0  0  0
   11.7035  -18.5981   24.2928 O   0  0  0  0  0  0  0  0  0  0  0  0
  2  5  1  0
  2  1  1  1
  3  2  1  0
  4  3  1  0
  5  6  2  0
  7  8  1  0
  8  9  2  0
  8 10  1  0
 10 11  1  0
 11 12  1  0
 12 13  1  0
 14 13  1  6
 15 14  1  0
 15  5  1  0
 16 17  2  0
 16 14  1  0
 18 19  1  0
 20 19  1  6
 20 22  1  0
 20 21  1  0
 21 16  1  0
 22 24  1  0
 23 22  2  0
M  END
$$$$
