CRS.pdb
     RDKit          3D

 24 23  0  0  1  0  0  0  0  0999 V2000
    1.5145  -21.6271   20.2057 N   0  0  0  0  0  0  0  0  0  0  0  0
    2.7723  -20.8958   19.9216 C   0  0  1  0  0  0  0  0  0  0  0  0
    2.4798  -19.4362   19.8605 C   0  0  0  0  0  0  0  0  0  0  0  0
    1.4341  -19.0628   18.4461 S   0  0  0  0  0  0  0  0  0  0  0  0
    3.7833  -21.3042   20.9192 C   0  0  0  0  0  0  0  0  0  0  0  0
    3.4344  -21.3775   22.1609 O   0  0  0  0  0  0  0  0  0  0  0  0
    8.4298  -27.9887   19.8423 N   0  0  0  0  0  0  0  0  0  0  0  0
    7.0834  -28.0273   20.2830 C   0  0  0  0  0  0  0  0  0  0  0  0
    6.3899  -29.1135   20.2765 N   0  0  0  0  0  0  0  0  0  0  0  0
    6.4202  -26.8398   20.7644 N   0  0  0  0  0  0  0  0  0  0  0  0
    7.0993  -25.5775   20.8134 C   0  0  0  0  0  0  0  0  0  0  0  0
    6.1285  -24.5205   21.3478 C   0  0  0  0  0  0  0  0  0  0  0  0
    6.8573  -23.2264   21.3042 C   0  0  0  0  0  0  0  0  0  0  0  0
    6.0294  -22.0514   21.7762 C   0  0  2  0  0  0  0  0  0  0  0  0
    5.1293  -21.6410   20.6782 N   0  0  0  0  0  0  0  0  0  0  0  0
    6.8978  -20.9761   22.2256 C   0  0  0  0  0  0  0  0  0  0  0  0
    7.3506  -20.1408   21.4206 O   0  0  0  0  0  0  0  0  0  0  0  0
    5.3958  -29.1325   20.5733 O   0  0  0  0  0  0  0  0  0  0  0  0
    6.4214  -18.9746   25.5363 C   0  0  0  0  0  0  0  0  0  0  0  0
    7.3538  -18.5916   24.5607 C   0  0  1  0  0  0  0  0  0  0  0  0
    8.1034  -19.7650   24.0091 N   0  0  0  0  0  0  0  0  0  0  0  0
    7.2533  -20.8449   23.5799 C   0  0  0  0  0  0  0  0  0  0  0  0
    9.0248  -20.2491   25.0710 O   0  0  0  0  0  0  0  0  0  0  0  0
    9.8840  -19.4892   25.5875 O   0  0  0  0  0  0  0  0  0  0  0  0
  2  5  1  0
  2  1  1  1
  3  2  1  0
  4  3  1  0
  5  6  2  0
  7  8  1  0
  8  9  2  0
  8 10  1  0
 10 11  1  0
 11 12  1  0
 12 13  1  0
 14 13  1  6
 15 14  1  0
 15  5  1  0
 16 17  2  0
 16 14  1  0
 18 19  1  0
 20 19  1  6
 20 22  1  0
 20 21  1  0
 21 16  1  0
 22 24  1  0
 23 22  2  0
M  END
$$$$
