CRS.pdb
     RDKit          3D

 24 23  0  0  1  0  0  0  0  0999 V2000
    7.7076  -14.4971   18.1043 N   0  0  0  0  0  0  0  0  0  0  0  0
    8.7660  -14.5389   19.1414 C   0  0  1  0  0  0  0  0  0  0  0  0
    9.4937  -13.2388   19.1423 C   0  0  0  0  0  0  0  0  0  0  0  0
    8.4258  -11.9205   19.7378 S   0  0  0  0  0  0  0  0  0  0  0  0
    8.1440  -14.9245   20.4254 C   0  0  0  0  0  0  0  0  0  0  0  0
    6.8895  -14.6746   20.6061 O   0  0  0  0  0  0  0  0  0  0  0  0
    9.3333  -19.4073   27.0859 N   0  0  0  0  0  0  0  0  0  0  0  0
    7.9790  -19.8107   26.9774 C   0  0  0  0  0  0  0  0  0  0  0  0
    7.3237  -20.2913   27.9775 N   0  0  0  0  0  0  0  0  0  0  0  0
    7.2642  -19.7005   25.7288 N   0  0  0  0  0  0  0  0  0  0  0  0
    7.9139  -19.2316   24.5394 C   0  0  0  0  0  0  0  0  0  0  0  0
    7.6205  -17.7372   24.3788 C   0  0  0  0  0  0  0  0  0  0  0  0
    8.2309  -17.3299   23.0868 C   0  0  0  0  0  0  0  0  0  0  0  0
    8.0248  -15.8680   22.7563 C   0  0  2  0  0  0  0  0  0  0  0  0
    8.7682  -15.5583   21.5171 N   0  0  0  0  0  0  0  0  0  0  0  0
    8.4302  -15.0394   23.8794 C   0  0  0  0  0  0  0  0  0  0  0  0
    9.6347  -14.8558   24.1370 O   0  0  0  0  0  0  0  0  0  0  0  0
    6.3546  -20.6489   27.8786 O   0  0  0  0  0  0  0  0  0  0  0  0
    5.5968  -13.0272   26.2434 C   0  0  0  0  0  0  0  0  0  0  0  0
    6.8931  -12.5025   26.1335 C   0  0  1  0  0  0  0  0  0  0  0  0
    7.8974  -13.5564   25.7815 N   0  0  0  0  0  0  0  0  0  0  0  0
    7.4780  -14.4201   24.7086 C   0  0  0  0  0  0  0  0  0  0  0  0
    8.1463  -14.3661   27.0036 O   0  0  0  0  0  0  0  0  0  0  0  0
    7.9087  -15.6010   27.0294 O   0  0  0  0  0  0  0  0  0  0  0  0
  2  5  1  0
  2  1  1  6
  3  2  1  0
  4  3  1  0
  5  6  2  0
  7  8  1  0
  8  9  2  0
  8 10  1  0
 10 11  1  0
 11 12  1  0
 12 13  1  0
 14 13  1  1
 15 14  1  0
 15  5  1  0
 16 17  2  0
 16 14  1  0
 18 19  1  0
 20 19  1  6
 20 22  1  0
 20 21  1  0
 21 16  1  0
 22 24  1  0
 23 22  2  0
M  END
$$$$
