CRS.pdb
     RDKit          3D

 24 23  0  0  1  0  0  0  0  0999 V2000
    7.7157  -14.0376   17.1104 N   0  0  0  0  0  0  0  0  0  0  0  0
    8.5714  -13.6019   18.2397 C   0  0  1  0  0  0  0  0  0  0  0  0
    7.7750  -12.7187   19.1372 C   0  0  0  0  0  0  0  0  0  0  0  0
    8.4430  -12.7512   20.8063 S   0  0  0  0  0  0  0  0  0  0  0  0
    9.1507  -14.8039   18.8751 C   0  0  0  0  0  0  0  0  0  0  0  0
    8.4183  -15.8628   18.9812 O   0  0  0  0  0  0  0  0  0  0  0  0
   15.4687  -14.6130   17.9190 N   0  0  0  0  0  0  0  0  0  0  0  0
   15.0251  -14.9062   16.6052 C   0  0  0  0  0  0  0  0  0  0  0  0
   15.4345  -14.2435   15.5786 N   0  0  0  0  0  0  0  0  0  0  0  0
   14.0849  -15.9715   16.3542 N   0  0  0  0  0  0  0  0  0  0  0  0
   13.5625  -16.7693   17.4254 C   0  0  0  0  0  0  0  0  0  0  0  0
   12.5181  -15.9455   18.1841 C   0  0  0  0  0  0  0  0  0  0  0  0
   11.9613  -16.8417   19.2304 C   0  0  0  0  0  0  0  0  0  0  0  0
   10.8788  -16.1943   20.0658 C   0  0  2  0  0  0  0  0  0  0  0  0
   10.4513  -14.9486   19.3954 N   0  0  0  0  0  0  0  0  0  0  0  0
   11.3585  -15.9705   21.4195 C   0  0  0  0  0  0  0  0  0  0  0  0
   12.0907  -14.9992   21.6862 O   0  0  0  0  0  0  0  0  0  0  0  0
   15.1034  -14.4575   14.6188 O   0  0  0  0  0  0  0  0  0  0  0  0
    9.4990  -17.8611   24.4948 C   0  0  0  0  0  0  0  0  0  0  0  0
   10.2936  -16.7514   24.8188 C   0  0  1  0  0  0  0  0  0  0  0  0
   11.3919  -16.5375   23.8234 N   0  0  0  0  0  0  0  0  0  0  0  0
   11.0117  -16.8410   22.4682 C   0  0  0  0  0  0  0  0  0  0  0  0
   12.5357  -17.3990   24.2240 O   0  0  0  0  0  0  0  0  0  0  0  0
   13.0312  -17.3329   25.3783 O   0  0  0  0  0  0  0  0  0  0  0  0
  2  5  1  0
  2  1  1  6
  3  2  1  0
  4  3  1  0
  5  6  2  0
  7  8  1  0
  8  9  2  0
  8 10  1  0
 10 11  1  0
 11 12  1  0
 12 13  1  0
 14 13  1  6
 15 14  1  0
 15  5  1  0
 16 17  2  0
 16 14  1  0
 18 19  1  0
 20 19  1  6
 20 22  1  0
 20 21  1  0
 21 16  1  0
 22 24  1  0
 23 22  2  0
M  END
$$$$
