CRS.pdb
     RDKit          3D

 24 23  0  0  1  0  0  0  0  0999 V2000
    5.1645  -13.4662   26.8643 N   0  0  0  0  0  0  0  0  0  0  0  0
    6.0646  -12.7404   25.9367 C   0  0  1  0  0  0  0  0  0  0  0  0
    7.0138  -11.9126   26.7326 C   0  0  0  0  0  0  0  0  0  0  0  0
    8.0335  -12.9581   27.7816 S   0  0  0  0  0  0  0  0  0  0  0  0
    6.6840  -13.7245   25.0245 C   0  0  0  0  0  0  0  0  0  0  0  0
    6.6153  -14.9787   25.3267 O   0  0  0  0  0  0  0  0  0  0  0  0
    7.9390  -13.2101   16.4408 N   0  0  0  0  0  0  0  0  0  0  0  0
    8.1055  -14.3208   17.3053 C   0  0  0  0  0  0  0  0  0  0  0  0
    7.6303  -15.4855   17.0258 N   0  0  0  0  0  0  0  0  0  0  0  0
    8.8226  -14.1970   18.5513 N   0  0  0  0  0  0  0  0  0  0  0  0
    8.6818  -15.1758   19.5901 C   0  0  0  0  0  0  0  0  0  0  0  0
    7.6253  -14.6852   20.5842 C   0  0  0  0  0  0  0  0  0  0  0  0
    8.3670  -14.0076   21.6790 C   0  0  0  0  0  0  0  0  0  0  0  0
    8.0266  -14.5355   23.0553 C   0  0  2  0  0  0  0  0  0  0  0  0
    7.3618  -13.4589   23.8190 N   0  0  0  0  0  0  0  0  0  0  0  0
    9.2244  -15.0346   23.7099 C   0  0  0  0  0  0  0  0  0  0  0  0
   10.0901  -14.2513   24.1434 O   0  0  0  0  0  0  0  0  0  0  0  0
    7.7455  -16.2940   17.6660 O   0  0  0  0  0  0  0  0  0  0  0  0
    9.3304  -18.1115   26.0670 C   0  0  0  0  0  0  0  0  0  0  0  0
   10.4855  -18.1491   25.2719 C   0  0  2  0  0  0  0  0  0  0  0  0
   10.6607  -16.8922   24.4765 N   0  0  0  0  0  0  0  0  0  0  0  0
    9.4433  -16.4140   23.8745 C   0  0  0  0  0  0  0  0  0  0  0  0
   11.6652  -17.1682   23.4155 O   0  0  0  0  0  0  0  0  0  0  0  0
   11.3920  -17.0066   22.1984 O   0  0  0  0  0  0  0  0  0  0  0  0
  2  5  1  0
  2  1  1  1
  3  2  1  0
  4  3  1  0
  5  6  2  0
  7  8  1  0
  8  9  2  0
  8 10  1  0
 10 11  1  0
 11 12  1  0
 12 13  1  0
 14 13  1  6
 15 14  1  0
 15  5  1  0
 16 17  2  0
 16 14  1  0
 18 19  1  0
 20 19  1  1
 20 22  1  0
 20 21  1  0
 21 16  1  0
 22 24  1  0
 23 22  2  0
M  END
$$$$
