CRS.pdb
     RDKit          3D

 24 23  0  0  1  0  0  0  0  0999 V2000
    7.2932  -17.0667   27.7065 N   0  0  0  0  0  0  0  0  0  0  0  0
    7.5761  -15.7496   27.0880 C   0  0  1  0  0  0  0  0  0  0  0  0
    8.6382  -15.0634   27.8760 C   0  0  0  0  0  0  0  0  0  0  0  0
    8.3836  -13.2835   27.8587 S   0  0  0  0  0  0  0  0  0  0  0  0
    7.8784  -15.9629   25.6572 C   0  0  0  0  0  0  0  0  0  0  0  0
    8.4847  -17.0486   25.3070 O   0  0  0  0  0  0  0  0  0  0  0  0
    8.5601  -14.0319   16.6049 N   0  0  0  0  0  0  0  0  0  0  0  0
    8.4578  -13.6846   17.9751 C   0  0  0  0  0  0  0  0  0  0  0  0
    9.4738  -13.2846   18.6595 N   0  0  0  0  0  0  0  0  0  0  0  0
    7.1980  -13.7635   18.6741 N   0  0  0  0  0  0  0  0  0  0  0  0
    7.1019  -13.4504   20.0704 C   0  0  0  0  0  0  0  0  0  0  0  0
    7.8591  -14.5189   20.8642 C   0  0  0  0  0  0  0  0  0  0  0  0
    7.4865  -14.3206   22.2889 C   0  0  0  0  0  0  0  0  0  0  0  0
    8.0042  -15.4076   23.2050 C   0  0  2  0  0  0  0  0  0  0  0  0
    7.5737  -15.1019   24.5853 N   0  0  0  0  0  0  0  0  0  0  0  0
    9.4473  -15.5244   23.0769 C   0  0  0  0  0  0  0  0  0  0  0  0
   10.2029  -14.6441   23.5296 O   0  0  0  0  0  0  0  0  0  0  0  0
    9.3895  -13.0031   19.6547 O   0  0  0  0  0  0  0  0  0  0  0  0
   11.4653  -18.4014   24.0318 C   0  0  0  0  0  0  0  0  0  0  0  0
   12.0348  -18.0148   22.8095 C   0  0  2  0  0  0  0  0  0  0  0  0
   11.4655  -16.7233   22.3084 N   0  0  0  0  0  0  0  0  0  0  0  0
   10.0346  -16.6320   22.4397 C   0  0  0  0  0  0  0  0  0  0  0  0
   11.8431  -16.5914   20.8763 O   0  0  0  0  0  0  0  0  0  0  0  0
   10.9719  -16.4394   19.9817 O   0  0  0  0  0  0  0  0  0  0  0  0
  2  5  1  0
  2  1  1  1
  3  2  1  0
  4  3  1  0
  5  6  2  0
  7  8  1  0
  8  9  2  0
  8 10  1  0
 10 11  1  0
 11 12  1  0
 12 13  1  0
 14 13  1  6
 15 14  1  0
 15  5  1  0
 16 17  2  0
 16 14  1  0
 18 19  1  0
 20 19  1  1
 20 22  1  0
 20 21  1  0
 21 16  1  0
 22 24  1  0
 23 22  2  0
M  END
$$$$
