CRS.pdb
     RDKit          3D

 24 23  0  0  1  0  0  0  0  0999 V2000
    6.8434  -18.2177   25.3467 N   0  0  0  0  0  0  0  0  0  0  0  0
    7.9000  -17.1825   25.4447 C   0  0  1  0  0  0  0  0  0  0  0  0
    8.3532  -17.0867   26.8608 C   0  0  0  0  0  0  0  0  0  0  0  0
    9.6637  -15.8659   27.0205 S   0  0  0  0  0  0  0  0  0  0  0  0
    8.9526  -17.4972   24.4562 C   0  0  0  0  0  0  0  0  0  0  0  0
    9.3945  -18.7091   24.3860 O   0  0  0  0  0  0  0  0  0  0  0  0
    7.2970  -12.6673   20.7984 N   0  0  0  0  0  0  0  0  0  0  0  0
    7.5662  -13.2653   19.5419 C   0  0  0  0  0  0  0  0  0  0  0  0
    7.6438  -12.5756   18.4561 N   0  0  0  0  0  0  0  0  0  0  0  0
    7.7680  -14.6888   19.4196 N   0  0  0  0  0  0  0  0  0  0  0  0
    9.0520  -15.2807   19.6596 C   0  0  0  0  0  0  0  0  0  0  0  0
    9.1606  -15.6264   21.1475 C   0  0  0  0  0  0  0  0  0  0  0  0
   10.4915  -16.2610   21.3311 C   0  0  0  0  0  0  0  0  0  0  0  0
   10.6062  -17.0639   22.6082 C   0  0  2  0  0  0  0  0  0  0  0  0
    9.5550  -16.6107   23.5428 N   0  0  0  0  0  0  0  0  0  0  0  0
   11.9448  -16.9369   23.1602 C   0  0  0  0  0  0  0  0  0  0  0  0
   12.2549  -15.9602   23.8678 O   0  0  0  0  0  0  0  0  0  0  0  0
    7.8233  -13.0190   17.5352 O   0  0  0  0  0  0  0  0  0  0  0  0
   14.6831  -20.0286   22.7029 C   0  0  0  0  0  0  0  0  0  0  0  0
   14.8450  -19.1719   23.8018 C   0  0  1  0  0  0  0  0  0  0  0  0
   14.2084  -17.8361   23.5710 N   0  0  0  0  0  0  0  0  0  0  0  0
   12.9294  -17.9104   22.9139 C   0  0  0  0  0  0  0  0  0  0  0  0
   15.1454  -17.0283   22.7459 O   0  0  0  0  0  0  0  0  0  0  0  0
   14.8144  -16.6007   21.6102 O   0  0  0  0  0  0  0  0  0  0  0  0
  2  5  1  0
  2  1  1  1
  3  2  1  0
  4  3  1  0
  5  6  2  0
  7  8  1  0
  8  9  2  0
  8 10  1  0
 10 11  1  0
 11 12  1  0
 12 13  1  0
 14 13  1  6
 15 14  1  0
 15  5  1  0
 16 17  2  0
 16 14  1  0
 18 19  1  0
 20 19  1  1
 20 22  1  0
 20 21  1  0
 21 16  1  0
 22 24  1  0
 23 22  2  0
M  END
$$$$
