CRS.pdb
     RDKit          3D

 24 23  0  0  1  0  0  0  0  0999 V2000
    6.4204  -13.9638   20.6106 N   0  0  0  0  0  0  0  0  0  0  0  0
    7.5782  -14.1617   19.7063 C   0  0  1  0  0  0  0  0  0  0  0  0
    8.5774  -13.0856   19.9575 C   0  0  0  0  0  0  0  0  0  0  0  0
    8.1441  -11.5990   19.0433 S   0  0  0  0  0  0  0  0  0  0  0  0
    8.0709  -15.5445   19.8774 C   0  0  0  0  0  0  0  0  0  0  0  0
    8.1742  -16.0221   21.0734 O   0  0  0  0  0  0  0  0  0  0  0  0
   11.8154  -21.4322   16.3459 N   0  0  0  0  0  0  0  0  0  0  0  0
   10.8923  -22.4458   16.7057 C   0  0  0  0  0  0  0  0  0  0  0  0
   11.2408  -23.6807   16.8246 N   0  0  0  0  0  0  0  0  0  0  0  0
    9.5054  -22.1381   16.9580 N   0  0  0  0  0  0  0  0  0  0  0  0
    9.0080  -20.7981   16.8397 C   0  0  0  0  0  0  0  0  0  0  0  0
    9.2377  -20.0723   18.1684 C   0  0  0  0  0  0  0  0  0  0  0  0
    8.8055  -18.6668   17.9548 C   0  0  0  0  0  0  0  0  0  0  0  0
    8.9587  -17.7952   19.1819 C   0  0  2  0  0  0  0  0  0  0  0  0
    8.4526  -16.4438   18.8632 N   0  0  0  0  0  0  0  0  0  0  0  0
   10.3440  -17.7896   19.6215 C   0  0  0  0  0  0  0  0  0  0  0  0
   11.2271  -17.2283   18.9464 O   0  0  0  0  0  0  0  0  0  0  0  0
   10.5776  -24.4099   17.1491 O   0  0  0  0  0  0  0  0  0  0  0  0
   11.4320  -19.6566   23.1767 C   0  0  0  0  0  0  0  0  0  0  0  0
   12.2629  -18.6170   22.7332 C   0  0  1  0  0  0  0  0  0  0  0  0
   12.0969  -18.3517   21.2686 N   0  0  0  0  0  0  0  0  0  0  0  0
   10.7302  -18.4158   20.8201 C   0  0  0  0  0  0  0  0  0  0  0  0
   12.9090  -19.3582   20.5347 O   0  0  0  0  0  0  0  0  0  0  0  0
   12.3856  -20.1330   19.6932 O   0  0  0  0  0  0  0  0  0  0  0  0
  2  5  1  0
  2  1  1  1
  3  2  1  0
  4  3  1  0
  5  6  2  0
  7  8  1  0
  8  9  2  0
  8 10  1  0
 10 11  1  0
 11 12  1  0
 12 13  1  0
 14 13  1  6
 15 14  1  0
 15  5  1  0
 16 17  2  0
 16 14  1  0
 18 19  1  0
 20 19  1  1
 20 22  1  0
 20 21  1  0
 21 16  1  0
 22 24  1  0
 23 22  2  0
M  END
$$$$
