CRS.pdb
     RDKit          3D

 24 23  0  0  1  0  0  0  0  0999 V2000
    7.5438  -15.8201   15.1109 N   0  0  0  0  0  0  0  0  0  0  0  0
    8.5330  -15.0805   15.9305 C   0  0  1  0  0  0  0  0  0  0  0  0
    7.9871  -13.7306   16.2459 C   0  0  0  0  0  0  0  0  0  0  0  0
    7.8046  -12.7593   14.7437 S   0  0  0  0  0  0  0  0  0  0  0  0
    8.8876  -15.9155   17.0973 C   0  0  0  0  0  0  0  0  0  0  0  0
    7.9690  -16.6438   17.6402 O   0  0  0  0  0  0  0  0  0  0  0  0
   12.8835  -21.4497   21.1967 N   0  0  0  0  0  0  0  0  0  0  0  0
   12.5056  -21.9703   19.9338 C   0  0  0  0  0  0  0  0  0  0  0  0
   12.1244  -23.1918   19.7810 N   0  0  0  0  0  0  0  0  0  0  0  0
   12.5304  -21.1477   18.7486 N   0  0  0  0  0  0  0  0  0  0  0  0
   12.9837  -19.7879   18.7971 C   0  0  0  0  0  0  0  0  0  0  0  0
   11.8762  -18.9250   19.4087 C   0  0  0  0  0  0  0  0  0  0  0  0
   11.4931  -17.9389   18.3654 C   0  0  0  0  0  0  0  0  0  0  0  0
   10.3934  -16.9957   18.8012 C   0  0  2  0  0  0  0  0  0  0  0  0
   10.1492  -16.0258   17.7132 N   0  0  0  0  0  0  0  0  0  0  0  0
   10.7509  -16.3569   20.0568 C   0  0  0  0  0  0  0  0  0  0  0  0
   11.6240  -15.4699   20.0973 O   0  0  0  0  0  0  0  0  0  0  0  0
   11.8355  -23.5657   18.8572 O   0  0  0  0  0  0  0  0  0  0  0  0
    8.3581  -15.0266   22.9001 C   0  0  0  0  0  0  0  0  0  0  0  0
    9.3366  -15.8773   23.4354 C   0  0  2  0  0  0  0  0  0  0  0  0
   10.4869  -16.0710   22.4960 N   0  0  0  0  0  0  0  0  0  0  0  0
   10.1238  -16.7187   21.2624 C   0  0  0  0  0  0  0  0  0  0  0  0
   11.5117  -16.8847   23.2022 O   0  0  0  0  0  0  0  0  0  0  0  0
   11.8313  -18.0310   22.7945 O   0  0  0  0  0  0  0  0  0  0  0  0
  2  5  1  0
  2  1  1  1
  3  2  1  0
  4  3  1  0
  5  6  2  0
  7  8  1  0
  8  9  2  0
  8 10  1  0
 10 11  1  0
 11 12  1  0
 12 13  1  0
 14 13  1  6
 15 14  1  0
 15  5  1  0
 16 17  2  0
 16 14  1  0
 18 19  1  0
 20 19  1  6
 20 22  1  0
 20 21  1  0
 21 16  1  0
 22 24  1  0
 23 22  2  0
M  END
$$$$
