CRS.pdb
     RDKit          3D

 24 23  0  0  1  0  0  0  0  0999 V2000
    7.1539  -12.2169   23.7126 N   0  0  0  0  0  0  0  0  0  0  0  0
    7.5829  -12.2275   25.1315 C   0  0  1  0  0  0  0  0  0  0  0  0
    6.6503  -11.3787   25.9250 C   0  0  0  0  0  0  0  0  0  0  0  0
    5.0068  -12.1076   25.9543 S   0  0  0  0  0  0  0  0  0  0  0  0
    7.6994  -13.6336   25.5716 C   0  0  0  0  0  0  0  0  0  0  0  0
    7.9319  -13.8751   26.8193 O   0  0  0  0  0  0  0  0  0  0  0  0
    4.8877  -21.3961   22.7758 N   0  0  0  0  0  0  0  0  0  0  0  0
    5.8084  -21.7172   23.8043 C   0  0  0  0  0  0  0  0  0  0  0  0
    5.8594  -22.8887   24.3388 N   0  0  0  0  0  0  0  0  0  0  0  0
    6.7410  -20.7368   24.3053 N   0  0  0  0  0  0  0  0  0  0  0  0
    6.6495  -19.3586   23.9191 C   0  0  0  0  0  0  0  0  0  0  0  0
    7.7019  -18.5623   24.6960 C   0  0  0  0  0  0  0  0  0  0  0  0
    7.5819  -17.1546   24.2356 C   0  0  0  0  0  0  0  0  0  0  0  0
    7.7390  -16.1407   25.3474 C   0  0  2  0  0  0  0  0  0  0  0  0
    7.5801  -14.7879   24.7739 N   0  0  0  0  0  0  0  0  0  0  0  0
    9.0171  -16.3240   26.0145 C   0  0  0  0  0  0  0  0  0  0  0  0
   10.0880  -16.1198   25.4126 O   0  0  0  0  0  0  0  0  0  0  0  0
    6.4962  -23.1048   25.1290 O   0  0  0  0  0  0  0  0  0  0  0  0
   10.3065  -14.7366   28.8943 C   0  0  0  0  0  0  0  0  0  0  0  0
   10.6152  -16.0775   29.1668 C   0  0  2  0  0  0  0  0  0  0  0  0
   10.3602  -16.9635   27.9865 N   0  0  0  0  0  0  0  0  0  0  0  0
    9.0852  -16.7365   27.3573 C   0  0  0  0  0  0  0  0  0  0  0  0
   10.4393  -18.3720   28.4564 O   0  0  0  0  0  0  0  0  0  0  0  0
    9.5084  -19.1884   28.2350 O   0  0  0  0  0  0  0  0  0  0  0  0
  2  5  1  0
  2  1  1  6
  3  2  1  0
  4  3  1  0
  5  6  2  0
  7  8  1  0
  8  9  2  0
  8 10  1  0
 10 11  1  0
 11 12  1  0
 12 13  1  0
 14 13  1  6
 15 14  1  0
 15  5  1  0
 16 17  2  0
 16 14  1  0
 18 19  1  0
 20 19  1  6
 20 22  1  0
 20 21  1  0
 21 16  1  0
 22 24  1  0
 23 22  2  0
M  END
$$$$
