YRP.pdb
     RDKit          3D

 31 32  0  0  1  0  0  0  0  0999 V2000
   11.4900  -21.9459   30.3786 O   0  0  0  0  0  0  0  0  0  0  0  0
   11.3355  -20.7830   29.6329 C   0  0  0  0  0  0  0  0  0  0  0  0
   10.1076  -20.4068   29.1424 C   0  0  0  0  0  0  0  0  0  0  0  0
    9.9943  -19.2304   28.3975 C   0  0  0  0  0  0  0  0  0  0  0  0
   11.0844  -18.4313   28.1397 C   0  0  0  0  0  0  0  0  0  0  0  0
   10.9193  -17.1901   27.3439 C   0  0  0  0  0  0  0  0  0  0  0  0
   11.0825  -17.5850   25.8901 C   0  0  2  0  0  0  0  0  0  0  0  0
   12.4065  -18.0112   25.5762 N   0  0  0  0  0  0  0  0  0  0  0  0
   10.6389  -16.4678   25.0304 C   0  0  0  0  0  0  0  0  0  0  0  0
   11.2618  -15.3638   24.9853 O   0  0  0  0  0  0  0  0  0  0  0  0
   12.3176  -18.8102   28.6325 C   0  0  0  0  0  0  0  0  0  0  0  0
   12.4174  -19.9776   29.3683 C   0  0  0  0  0  0  0  0  0  0  0  0
    8.2764  -11.7171   19.6700 N   0  0  0  0  0  0  0  0  0  0  0  0
    8.4862  -13.0929   19.3836 C   0  0  0  0  0  0  0  0  0  0  0  0
    9.5299  -13.4512   18.7691 N   0  0  0  0  0  0  0  0  0  0  0  0
    7.4717  -14.0040   19.8238 N   0  0  0  0  0  0  0  0  0  0  0  0
    7.8873  -14.9801   20.8440 C   0  0  0  0  0  0  0  0  0  0  0  0
    7.0838  -14.8046   22.0830 C   0  0  0  0  0  0  0  0  0  0  0  0
    7.4549  -15.7112   23.1750 C   0  0  0  0  0  0  0  0  0  0  0  0
    8.6534  -15.3899   24.0231 C   0  0  2  0  0  0  0  0  0  0  0  0
    9.4752  -16.5405   24.1812 N   0  0  0  0  0  0  0  0  0  0  0  0
    8.1323  -14.8907   25.3237 C   0  0  0  0  0  0  0  0  0  0  0  0
    8.2599  -15.5888   26.3318 O   0  0  0  0  0  0  0  0  0  0  0  0
    9.8740  -14.3926   18.5502 N   0  0  0  0  0  0  0  0  0  0  0  0
    7.5066  -13.6335   25.3896 C   0  0  0  0  0  0  0  0  0  0  0  0
    7.2696  -12.7605   24.2205 C   0  0  0  0  0  0  0  0  0  0  0  0
    7.5569  -11.3898   24.7744 C   0  0  0  0  0  0  0  0  0  0  0  0
    7.7324  -11.5651   26.2909 C   0  0  1  0  0  0  0  0  0  0  0  0
    6.9668  -12.8723   26.5053 C   0  0  0  0  0  0  0  0  0  0  0  0
    5.5113  -12.6752   26.4397 O   0  0  0  0  0  0  0  0  0  0  0  0
    4.8740  -12.1576   27.5586 O   0  0  0  0  0  0  0  0  0  0  0  0
  2  1  1  0
  2  3  2  0
  4  3  1  0
  5  4  2  0
  6  5  1  0
  7  6  1  0
  7  8  1  1
  9  7  1  0
  9 10  2  0
 11 12  2  0
 11  5  1  0
 12  2  1  0
 14 13  1  0
 15 14  2  0
 16 14  1  0
 17 16  1  0
 18 19  1  0
 18 17  1  0
 20 19  1  6
 20 21  1  0
 21  9  1  0
 22 20  1  0
 23 22  2  0
 24 28  1  0
 24 22  1  0
 25 24  1  0
 26 25  1  0
 26 27  1  0
 27 28  1  0
 28 29  1  1
 29 31  2  0
 29 30  1  0
M  END
$$$$
