YRP.pdb
     RDKit          3D

 31 32  0  0  1  0  0  0  0  0999 V2000
   11.1019  -19.9871   30.2849 O   0  0  0  0  0  0  0  0  0  0  0  0
   11.3133  -19.0269   29.3022 C   0  0  0  0  0  0  0  0  0  0  0  0
   10.3852  -18.0440   29.0525 C   0  0  0  0  0  0  0  0  0  0  0  0
   10.6354  -17.0972   28.0563 C   0  0  0  0  0  0  0  0  0  0  0  0
   11.7932  -17.1201   27.3130 C   0  0  0  0  0  0  0  0  0  0  0  0
   12.0186  -16.0951   26.2642 C   0  0  0  0  0  0  0  0  0  0  0  0
   11.8136  -16.7884   24.9326 C   0  0  2  0  0  0  0  0  0  0  0  0
   12.9421  -17.5614   24.5299 N   0  0  0  0  0  0  0  0  0  0  0  0
   11.4349  -15.7852   23.9157 C   0  0  0  0  0  0  0  0  0  0  0  0
   12.0882  -14.7101   23.7536 O   0  0  0  0  0  0  0  0  0  0  0  0
   12.7249  -18.1081   27.5641 C   0  0  0  0  0  0  0  0  0  0  0  0
   12.4656  -19.0405   28.5529 C   0  0  0  0  0  0  0  0  0  0  0  0
    6.9557  -12.6708   18.4129 N   0  0  0  0  0  0  0  0  0  0  0  0
    7.5447  -13.5893   17.5029 C   0  0  0  0  0  0  0  0  0  0  0  0
    7.5594  -13.3233   16.2681 N   0  0  0  0  0  0  0  0  0  0  0  0
    8.0966  -14.7868   18.0636 N   0  0  0  0  0  0  0  0  0  0  0  0
    7.6442  -15.1243   19.4230 C   0  0  0  0  0  0  0  0  0  0  0  0
    8.6588  -14.7003   20.4241 C   0  0  0  0  0  0  0  0  0  0  0  0
    8.3972  -15.1784   21.7862 C   0  0  0  0  0  0  0  0  0  0  0  0
    9.3848  -14.8706   22.8765 C   0  0  2  0  0  0  0  0  0  0  0  0
   10.3047  -15.9446   23.0336 N   0  0  0  0  0  0  0  0  0  0  0  0
    8.5924  -14.6265   24.1114 C   0  0  0  0  0  0  0  0  0  0  0  0
    8.6509  -15.4405   25.0355 O   0  0  0  0  0  0  0  0  0  0  0  0
    7.9622  -13.8512   15.4861 N   0  0  0  0  0  0  0  0  0  0  0  0
    7.7926  -13.4747   24.2122 C   0  0  0  0  0  0  0  0  0  0  0  0
    7.6111  -12.4909   23.1240 C   0  0  0  0  0  0  0  0  0  0  0  0
    7.6163  -11.1804   23.8660 C   0  0  0  0  0  0  0  0  0  0  0  0
    7.5875  -11.5311   25.3619 C   0  0  1  0  0  0  0  0  0  0  0  0
    6.9910  -12.9387   25.3010 C   0  0  0  0  0  0  0  0  0  0  0  0
    5.5484  -12.9137   25.0187 O   0  0  0  0  0  0  0  0  0  0  0  0
    4.6746  -12.9172   26.0969 O   0  0  0  0  0  0  0  0  0  0  0  0
  2  1  1  0
  2  3  2  0
  4  3  1  0
  5  4  2  0
  6  5  1  0
  7  6  1  0
  7  8  1  6
  9  7  1  0
  9 10  2  0
 11 12  2  0
 11  5  1  0
 12  2  1  0
 14 13  1  0
 15 14  2  0
 16 14  1  0
 17 16  1  0
 18 19  1  0
 18 17  1  0
 20 19  1  6
 20 21  1  0
 21  9  1  0
 22 20  1  0
 23 22  2  0
 24 28  1  0
 24 22  1  0
 25 24  1  0
 26 25  1  0
 26 27  1  0
 27 28  1  0
 28 29  1  6
 29 31  2  0
 29 30  1  0
M  END
$$$$
