YRP.pdb
     RDKit          3D

 31 32  0  0  1  0  0  0  0  0999 V2000
    5.5724  -10.6479   27.7727 O   0  0  0  0  0  0  0  0  0  0  0  0
    6.2403  -11.8066   27.3936 C   0  0  0  0  0  0  0  0  0  0  0  0
    5.8598  -12.5190   26.2812 C   0  0  0  0  0  0  0  0  0  0  0  0
    6.5573  -13.6785   25.9337 C   0  0  0  0  0  0  0  0  0  0  0  0
    7.6226  -14.1305   26.6781 C   0  0  0  0  0  0  0  0  0  0  0  0
    8.3354  -15.3672   26.2733 C   0  0  0  0  0  0  0  0  0  0  0  0
    7.2741  -16.3451   25.8114 C   0  0  2  0  0  0  0  0  0  0  0  0
    7.1561  -17.4805   26.6659 N   0  0  0  0  0  0  0  0  0  0  0  0
    7.5440  -16.7290   24.4100 C   0  0  0  0  0  0  0  0  0  0  0  0
    8.2435  -17.7443   24.1121 O   0  0  0  0  0  0  0  0  0  0  0  0
    8.0040  -13.4145   27.7957 C   0  0  0  0  0  0  0  0  0  0  0  0
    7.3052  -12.2682   28.1300 C   0  0  0  0  0  0  0  0  0  0  0  0
   10.0971  -13.2013   18.1245 N   0  0  0  0  0  0  0  0  0  0  0  0
    9.1354  -13.6494   17.1795 C   0  0  0  0  0  0  0  0  0  0  0  0
    9.4915  -13.8910   15.9920 N   0  0  0  0  0  0  0  0  0  0  0  0
    7.7910  -13.8006   17.6516 N   0  0  0  0  0  0  0  0  0  0  0  0
    7.5854  -13.5528   19.0878 C   0  0  0  0  0  0  0  0  0  0  0  0
    8.0692  -14.7111   19.8852 C   0  0  0  0  0  0  0  0  0  0  0  0
    7.4065  -14.8665   21.1848 C   0  0  0  0  0  0  0  0  0  0  0  0
    7.7234  -16.0655   22.0337 C   0  0  2  0  0  0  0  0  0  0  0  0
    7.0392  -15.9896   23.2789 N   0  0  0  0  0  0  0  0  0  0  0  0
    9.2007  -16.0855   22.2066 C   0  0  0  0  0  0  0  0  0  0  0  0
    9.7055  -15.4699   23.1480 O   0  0  0  0  0  0  0  0  0  0  0  0
    8.9486  -14.2633   15.2051 N   0  0  0  0  0  0  0  0  0  0  0  0
   10.0004  -16.8051   21.3016 C   0  0  0  0  0  0  0  0  0  0  0  0
    9.4780  -17.5249   20.1209 C   0  0  0  0  0  0  0  0  0  0  0  0
   10.3119  -18.7789   20.1091 C   0  0  0  0  0  0  0  0  0  0  0  0
   11.4045  -18.5808   21.1715 C   0  0  2  0  0  0  0  0  0  0  0  0
   11.4327  -17.0532   21.2528 C   0  0  0  0  0  0  0  0  0  0  0  0
   12.0993  -16.4520   20.0885 O   0  0  0  0  0  0  0  0  0  0  0  0
   13.4405  -16.1161   20.2086 O   0  0  0  0  0  0  0  0  0  0  0  0
  2  1  1  0
  2  3  2  0
  4  3  1  0
  5  4  2  0
  6  5  1  0
  7  6  1  0
  7  8  1  1
  9  7  1  0
  9 10  2  0
 11 12  2  0
 11  5  1  0
 12  2  1  0
 14 13  1  0
 15 14  2  0
 16 14  1  0
 17 16  1  0
 18 19  1  0
 18 17  1  0
 20 19  1  6
 20 21  1  0
 21  9  1  0
 22 20  1  0
 23 22  2  0
 24 28  1  0
 24 22  1  0
 25 24  1  0
 26 25  1  0
 26 27  1  0
 27 28  1  0
 28 29  1  6
 29 31  2  0
 29 30  1  0
M  END
$$$$
