YRP.pdb
     RDKit          3D

 31 32  0  0  1  0  0  0  0  0999 V2000
    5.9934  -10.7854   26.8642 O   0  0  0  0  0  0  0  0  0  0  0  0
    6.4219  -12.1078   26.8530 C   0  0  0  0  0  0  0  0  0  0  0  0
    7.7124  -12.4433   27.1874 C   0  0  0  0  0  0  0  0  0  0  0  0
    8.1037  -13.7842   27.1641 C   0  0  0  0  0  0  0  0  0  0  0  0
    7.2277  -14.7859   26.8142 C   0  0  0  0  0  0  0  0  0  0  0  0
    7.6852  -16.1972   26.8024 C   0  0  0  0  0  0  0  0  0  0  0  0
    6.7538  -16.9447   25.8697 C   0  0  2  0  0  0  0  0  0  0  0  0
    6.4061  -18.2401   26.3535 N   0  0  0  0  0  0  0  0  0  0  0  0
    7.3562  -16.9975   24.5212 C   0  0  0  0  0  0  0  0  0  0  0  0
    8.1016  -17.9555   24.1532 O   0  0  0  0  0  0  0  0  0  0  0  0
    5.9315  -14.4479   26.4779 C   0  0  0  0  0  0  0  0  0  0  0  0
    5.5559  -13.1166   26.5043 C   0  0  0  0  0  0  0  0  0  0  0  0
    7.6214  -12.6509   16.9670 N   0  0  0  0  0  0  0  0  0  0  0  0
    8.2902  -13.9038   17.0068 C   0  0  0  0  0  0  0  0  0  0  0  0
    8.4553  -14.5582   15.9391 N   0  0  0  0  0  0  0  0  0  0  0  0
    8.7439  -14.3509   18.2903 N   0  0  0  0  0  0  0  0  0  0  0  0
    8.2434  -13.5901   19.4466 C   0  0  0  0  0  0  0  0  0  0  0  0
    8.8179  -14.1308   20.7072 C   0  0  0  0  0  0  0  0  0  0  0  0
    7.8172  -14.5907   21.6764 C   0  0  0  0  0  0  0  0  0  0  0  0
    8.0625  -15.8616   22.4403 C   0  0  2  0  0  0  0  0  0  0  0  0
    7.1476  -15.9763   23.5240 N   0  0  0  0  0  0  0  0  0  0  0  0
    9.4754  -15.8137   22.9027 C   0  0  0  0  0  0  0  0  0  0  0  0
    9.7651  -15.1269   23.8847 O   0  0  0  0  0  0  0  0  0  0  0  0
    8.9143  -15.4630   15.7863 N   0  0  0  0  0  0  0  0  0  0  0  0
   10.4591  -16.5511   22.2207 C   0  0  0  0  0  0  0  0  0  0  0  0
   10.2297  -17.2629   20.9457 C   0  0  0  0  0  0  0  0  0  0  0  0
   11.0158  -18.5332   21.1363 C   0  0  0  0  0  0  0  0  0  0  0  0
   11.8165  -18.3547   22.4357 C   0  0  2  0  0  0  0  0  0  0  0  0
   11.8541  -16.8278   22.5258 C   0  0  0  0  0  0  0  0  0  0  0  0
   12.7989  -16.2425   21.5635 O   0  0  0  0  0  0  0  0  0  0  0  0
   12.3070  -15.8473   20.3274 O   0  0  0  0  0  0  0  0  0  0  0  0
  2  1  1  0
  2  3  2  0
  4  3  1  0
  5  4  2  0
  6  5  1  0
  7  6  1  0
  7  8  1  1
  9  7  1  0
  9 10  2  0
 11 12  2  0
 11  5  1  0
 12  2  1  0
 14 13  1  0
 15 14  2  0
 16 14  1  0
 17 16  1  0
 18 19  1  0
 18 17  1  0
 20 19  1  1
 20 21  1  0
 21  9  1  0
 22 20  1  0
 23 22  2  0
 24 28  1  0
 24 22  1  0
 25 24  1  0
 26 25  1  0
 26 27  1  0
 27 28  1  0
 28 29  1  6
 29 31  2  0
 29 30  1  0
M  END
$$$$
