YRP.pdb
     RDKit          3D

 31 32  0  0  1  0  0  0  0  0999 V2000
    9.0622  -13.5572   14.7738 O   0  0  0  0  0  0  0  0  0  0  0  0
    8.4885  -13.7262   16.0287 C   0  0  0  0  0  0  0  0  0  0  0  0
    7.5522  -14.7059   16.2599 C   0  0  0  0  0  0  0  0  0  0  0  0
    6.9995  -14.8433   17.5356 C   0  0  0  0  0  0  0  0  0  0  0  0
    7.3688  -14.0206   18.5748 C   0  0  0  0  0  0  0  0  0  0  0  0
    6.7564  -14.2012   19.9141 C   0  0  0  0  0  0  0  0  0  0  0  0
    7.4132  -15.4212   20.5276 C   0  0  2  0  0  0  0  0  0  0  0  0
    7.0939  -16.6284   19.8392 N   0  0  0  0  0  0  0  0  0  0  0  0
    7.0657  -15.4902   21.9623 C   0  0  0  0  0  0  0  0  0  0  0  0
    5.8865  -15.7367   22.3591 O   0  0  0  0  0  0  0  0  0  0  0  0
    8.3091  -13.0363   18.3416 C   0  0  0  0  0  0  0  0  0  0  0  0
    8.8489  -12.9097   17.0740 C   0  0  0  0  0  0  0  0  0  0  0  0
    6.5312  -21.6912   25.8580 N   0  0  0  0  0  0  0  0  0  0  0  0
    7.8423  -21.1578   25.9811 C   0  0  0  0  0  0  0  0  0  0  0  0
    8.8243  -21.9396   26.1227 N   0  0  0  0  0  0  0  0  0  0  0  0
    7.9638  -19.7309   25.9348 N   0  0  0  0  0  0  0  0  0  0  0  0
    6.6973  -18.9814   25.9077 C   0  0  0  0  0  0  0  0  0  0  0  0
    6.9644  -17.5192   25.8623 C   0  0  0  0  0  0  0  0  0  0  0  0
    7.3053  -17.0103   24.5292 C   0  0  0  0  0  0  0  0  0  0  0  0
    7.6568  -15.5585   24.3634 C   0  0  2  0  0  0  0  0  0  0  0  0
    8.0282  -15.2860   23.0172 N   0  0  0  0  0  0  0  0  0  0  0  0
    8.7627  -15.2773   25.3175 C   0  0  0  0  0  0  0  0  0  0  0  0
    9.8822  -15.7444   25.0969 O   0  0  0  0  0  0  0  0  0  0  0  0
    9.8237  -21.7295   26.2208 N   0  0  0  0  0  0  0  0  0  0  0  0
    8.5216  -14.4832   26.4523 C   0  0  0  0  0  0  0  0  0  0  0  0
    7.1845  -14.0062   26.8643 C   0  0  0  0  0  0  0  0  0  0  0  0
    7.4703  -12.6052   27.3369 C   0  0  0  0  0  0  0  0  0  0  0  0
    9.0000  -12.4601   27.3576 C   0  0  1  0  0  0  0  0  0  0  0  0
    9.4124  -13.9298   27.4601 C   0  0  0  0  0  0  0  0  0  0  0  0
    9.1909  -14.4712   28.8089 O   0  0  0  0  0  0  0  0  0  0  0  0
   10.1197  -14.1646   29.7934 O   0  0  0  0  0  0  0  0  0  0  0  0
  2  1  1  0
  2  3  2  0
  4  3  1  0
  5  4  2  0
  6  5  1  0
  7  6  1  0
  7  8  1  6
  9  7  1  0
  9 10  2  0
 11 12  2  0
 11  5  1  0
 12  2  1  0
 14 13  1  0
 15 14  2  0
 16 14  1  0
 17 16  1  0
 18 19  1  0
 18 17  1  0
 20 19  1  6
 20 21  1  0
 21  9  1  0
 22 20  1  0
 23 22  2  0
 24 28  1  0
 24 22  1  0
 25 24  1  0
 26 25  1  0
 26 27  1  0
 27 28  1  0
 28 29  1  1
 29 31  2  0
 29 30  1  0
M  END
$$$$
