YRP.pdb
     RDKit          3D

 31 32  0  0  1  0  0  0  0  0999 V2000
    9.5966  -14.4491   14.8210 O   0  0  0  0  0  0  0  0  0  0  0  0
    9.2511  -14.3074   16.1600 C   0  0  0  0  0  0  0  0  0  0  0  0
    8.6493  -13.1622   16.6251 C   0  0  0  0  0  0  0  0  0  0  0  0
    8.3175  -13.0591   17.9782 C   0  0  0  0  0  0  0  0  0  0  0  0
    8.5769  -14.0788   18.8649 C   0  0  0  0  0  0  0  0  0  0  0  0
    8.2080  -13.9273   20.2939 C   0  0  0  0  0  0  0  0  0  0  0  0
    7.0759  -14.9008   20.5526 C   0  0  2  0  0  0  0  0  0  0  0  0
    5.8727  -14.5452   19.8752 N   0  0  0  0  0  0  0  0  0  0  0  0
    6.8748  -15.0359   22.0104 C   0  0  0  0  0  0  0  0  0  0  0  0
    6.3415  -14.1183   22.7050 O   0  0  0  0  0  0  0  0  0  0  0  0
    9.1819  -15.2287   18.3970 C   0  0  0  0  0  0  0  0  0  0  0  0
    9.5063  -15.3189   17.0550 C   0  0  0  0  0  0  0  0  0  0  0  0
    9.9563  -19.8283   28.9119 N   0  0  0  0  0  0  0  0  0  0  0  0
    8.6424  -19.5671   28.4384 C   0  0  0  0  0  0  0  0  0  0  0  0
    7.7406  -19.2252   29.2540 N   0  0  0  0  0  0  0  0  0  0  0  0
    8.4249  -19.7132   27.0297 N   0  0  0  0  0  0  0  0  0  0  0  0
    7.1100  -19.2730   26.5362 C   0  0  0  0  0  0  0  0  0  0  0  0
    7.1596  -17.8390   26.1453 C   0  0  0  0  0  0  0  0  0  0  0  0
    7.0512  -17.6043   24.7013 C   0  0  0  0  0  0  0  0  0  0  0  0
    7.1606  -16.2014   24.1735 C   0  0  2  0  0  0  0  0  0  0  0  0
    7.2631  -16.2091   22.7544 N   0  0  0  0  0  0  0  0  0  0  0  0
    8.3569  -15.5967   24.8183 C   0  0  0  0  0  0  0  0  0  0  0  0
    9.4719  -15.8060   24.3357 O   0  0  0  0  0  0  0  0  0  0  0  0
    7.7474  -19.2238   30.2800 N   0  0  0  0  0  0  0  0  0  0  0  0
    8.2035  -14.7946   25.9627 C   0  0  0  0  0  0  0  0  0  0  0  0
    6.8983  -14.3689   26.5106 C   0  0  0  0  0  0  0  0  0  0  0  0
    7.1700  -12.9489   26.9324 C   0  0  0  0  0  0  0  0  0  0  0  0
    8.6851  -12.7376   26.7862 C   0  0  2  0  0  0  0  0  0  0  0  0
    9.1716  -14.1862   26.8616 C   0  0  0  0  0  0  0  0  0  0  0  0
    9.1204  -14.7136   28.2330 O   0  0  0  0  0  0  0  0  0  0  0  0
   10.1529  -14.3784   29.0977 O   0  0  0  0  0  0  0  0  0  0  0  0
  2  1  1  0
  2  3  2  0
  4  3  1  0
  5  4  2  0
  6  5  1  0
  7  6  1  0
  7  8  1  6
  9  7  1  0
  9 10  2  0
 11 12  2  0
 11  5  1  0
 12  2  1  0
 14 13  1  0
 15 14  2  0
 16 14  1  0
 17 16  1  0
 18 19  1  0
 18 17  1  0
 20 19  1  1
 20 21  1  0
 21  9  1  0
 22 20  1  0
 23 22  2  0
 24 28  1  0
 24 22  1  0
 25 24  1  0
 26 25  1  0
 26 27  1  0
 27 28  1  0
 28 29  1  1
 29 31  2  0
 29 30  1  0
M  END
$$$$
