YRP.pdb
     RDKit          3D

 31 32  0  0  1  0  0  0  0  0999 V2000
   10.2671  -16.3524   31.6387 O   0  0  0  0  0  0  0  0  0  0  0  0
   10.3998  -15.9584   30.3122 C   0  0  0  0  0  0  0  0  0  0  0  0
    9.3061  -15.8505   29.4863 C   0  0  0  0  0  0  0  0  0  0  0  0
    9.4817  -15.4510   28.1592 C   0  0  0  0  0  0  0  0  0  0  0  0
   10.7270  -15.1594   27.6519 C   0  0  0  0  0  0  0  0  0  0  0  0
   10.8684  -14.7388   26.2361 C   0  0  0  0  0  0  0  0  0  0  0  0
   11.4028  -15.9389   25.4810 C   0  0  2  0  0  0  0  0  0  0  0  0
   12.7638  -16.2290   25.7919 N   0  0  0  0  0  0  0  0  0  0  0  0
   11.1945  -15.7336   24.0324 C   0  0  0  0  0  0  0  0  0  0  0  0
   11.7158  -14.7605   23.4078 O   0  0  0  0  0  0  0  0  0  0  0  0
   11.8252  -15.2684   28.4821 C   0  0  0  0  0  0  0  0  0  0  0  0
   11.6388  -15.6655   29.7942 C   0  0  0  0  0  0  0  0  0  0  0  0
   13.2647  -18.5171   17.5572 N   0  0  0  0  0  0  0  0  0  0  0  0
   13.5630  -19.4410   18.5945 C   0  0  0  0  0  0  0  0  0  0  0  0
   14.6691  -20.0510   18.5891 N   0  0  0  0  0  0  0  0  0  0  0  0
   12.5614  -19.6222   19.6030 N   0  0  0  0  0  0  0  0  0  0  0  0
   11.3494  -18.8001   19.4561 C   0  0  0  0  0  0  0  0  0  0  0  0
   11.3745  -17.6678   20.4199 C   0  0  0  0  0  0  0  0  0  0  0  0
   10.0550  -17.2862   20.9351 C   0  0  0  0  0  0  0  0  0  0  0  0
    9.9510  -16.1732   21.9396 C   0  0  2  0  0  0  0  0  0  0  0  0
   10.3913  -16.6134   23.2190 N   0  0  0  0  0  0  0  0  0  0  0  0
    8.5264  -15.7453   21.9541 C   0  0  0  0  0  0  0  0  0  0  0  0
    7.8407  -15.9677   22.9543 O   0  0  0  0  0  0  0  0  0  0  0  0
   15.0261  -20.7718   19.2260 N   0  0  0  0  0  0  0  0  0  0  0  0
    7.9815  -15.0924   20.8346 C   0  0  0  0  0  0  0  0  0  0  0  0
    8.7681  -14.6592   19.6605 C   0  0  0  0  0  0  0  0  0  0  0  0
    8.1487  -13.3275   19.3273 C   0  0  0  0  0  0  0  0  0  0  0  0
    6.9018  -13.1969   20.2160 C   0  0  1  0  0  0  0  0  0  0  0  0
    6.6259  -14.6712   20.5180 C   0  0  0  0  0  0  0  0  0  0  0  0
    6.0423  -15.3699   19.3635 O   0  0  0  0  0  0  0  0  0  0  0  0
    4.6623  -15.3456   19.2182 O   0  0  0  0  0  0  0  0  0  0  0  0
  2  1  1  0
  2  3  2  0
  4  3  1  0
  5  4  2  0
  6  5  1  0
  7  6  1  0
  7  8  1  6
  9  7  1  0
  9 10  2  0
 11 12  2  0
 11  5  1  0
 12  2  1  0
 14 13  1  0
 15 14  2  0
 16 14  1  0
 17 16  1  0
 18 19  1  0
 18 17  1  0
 20 19  1  6
 20 21  1  0
 21  9  1  0
 22 20  1  0
 23 22  2  0
 24 28  1  0
 24 22  1  0
 25 24  1  0
 26 25  1  0
 26 27  1  0
 27 28  1  0
 28 29  1  6
 29 31  2  0
 29 30  1  0
M  END
$$$$
