YRP.pdb
     RDKit          3D

 31 32  0  0  1  0  0  0  0  0999 V2000
    7.1624  -11.9675   17.1692 O   0  0  0  0  0  0  0  0  0  0  0  0
    7.7498  -12.9079   18.0077 C   0  0  0  0  0  0  0  0  0  0  0  0
    7.7937  -12.7224   19.3691 C   0  0  0  0  0  0  0  0  0  0  0  0
    8.3928  -13.6916   20.1775 C   0  0  0  0  0  0  0  0  0  0  0  0
    8.9434  -14.8351   19.6460 C   0  0  0  0  0  0  0  0  0  0  0  0
    9.5701  -15.8387   20.5411 C   0  0  0  0  0  0  0  0  0  0  0  0
    8.4812  -16.8247   20.9128 C   0  0  2  0  0  0  0  0  0  0  0  0
    7.6243  -17.1436   19.8186 N   0  0  0  0  0  0  0  0  0  0  0  0
    7.7303  -16.3043   22.0744 C   0  0  0  0  0  0  0  0  0  0  0  0
    6.8567  -15.3921   21.9583 O   0  0  0  0  0  0  0  0  0  0  0  0
    8.8992  -15.0205   18.2782 C   0  0  0  0  0  0  0  0  0  0  0  0
    8.3037  -14.0535   17.4880 C   0  0  0  0  0  0  0  0  0  0  0  0
    5.9929  -21.5050   25.8986 N   0  0  0  0  0  0  0  0  0  0  0  0
    7.2952  -21.5878   26.4606 C   0  0  0  0  0  0  0  0  0  0  0  0
    7.9036  -22.6947   26.4677 N   0  0  0  0  0  0  0  0  0  0  0  0
    7.8439  -20.3769   26.9950 N   0  0  0  0  0  0  0  0  0  0  0  0
    7.0184  -19.1703   26.8244 C   0  0  0  0  0  0  0  0  0  0  0  0
    7.5908  -18.2998   25.7632 C   0  0  0  0  0  0  0  0  0  0  0  0
    6.8687  -17.0383   25.5645 C   0  0  0  0  0  0  0  0  0  0  0  0
    7.3390  -16.0800   24.5066 C   0  0  2  0  0  0  0  0  0  0  0  0
    7.9264  -16.7860   23.4199 N   0  0  0  0  0  0  0  0  0  0  0  0
    8.3052  -15.1606   25.1651 C   0  0  0  0  0  0  0  0  0  0  0  0
    9.4493  -15.0663   24.7155 O   0  0  0  0  0  0  0  0  0  0  0  0
    8.8259  -22.9362   26.8467 N   0  0  0  0  0  0  0  0  0  0  0  0
    7.9044  -14.4106   26.2846 C   0  0  0  0  0  0  0  0  0  0  0  0
    6.5275  -14.3904   26.8220 C   0  0  0  0  0  0  0  0  0  0  0  0
    6.3468  -12.9437   27.1995 C   0  0  0  0  0  0  0  0  0  0  0  0
    7.7248  -12.2815   27.0436 C   0  0  1  0  0  0  0  0  0  0  0  0
    8.6321  -13.5076   27.1624 C   0  0  0  0  0  0  0  0  0  0  0  0
    8.7353  -13.9840   28.5494 O   0  0  0  0  0  0  0  0  0  0  0  0
    9.5942  -13.3102   29.4063 O   0  0  0  0  0  0  0  0  0  0  0  0
  2  1  1  0
  2  3  2  0
  4  3  1  0
  5  4  2  0
  6  5  1  0
  7  6  1  0
  7  8  1  6
  9  7  1  0
  9 10  2  0
 11 12  2  0
 11  5  1  0
 12  2  1  0
 14 13  1  0
 15 14  2  0
 16 14  1  0
 17 16  1  0
 18 19  1  0
 18 17  1  0
 20 19  1  1
 20 21  1  0
 21  9  1  0
 22 20  1  0
 23 22  2  0
 24 28  1  0
 24 22  1  0
 25 24  1  0
 26 25  1  0
 26 27  1  0
 27 28  1  0
 28 29  1  1
 29 31  2  0
 29 30  1  0
M  END
$$$$
