YRP.pdb
     RDKit          3D

 31 32  0  0  1  0  0  0  0  0999 V2000
    6.3471  -24.5894   28.7766 O   0  0  0  0  0  0  0  0  0  0  0  0
    6.7396  -23.2911   28.4721 C   0  0  0  0  0  0  0  0  0  0  0  0
    7.8678  -22.7367   29.0287 C   0  0  0  0  0  0  0  0  0  0  0  0
    8.2284  -21.4286   28.6965 C   0  0  0  0  0  0  0  0  0  0  0  0
    7.4816  -20.6741   27.8211 C   0  0  0  0  0  0  0  0  0  0  0  0
    7.9007  -19.2884   27.4961 C   0  0  0  0  0  0  0  0  0  0  0  0
    8.2974  -19.2897   26.0337 C   0  0  2  0  0  0  0  0  0  0  0  0
    9.4354  -20.1068   25.7681 N   0  0  0  0  0  0  0  0  0  0  0  0
    8.4952  -17.8963   25.5827 C   0  0  0  0  0  0  0  0  0  0  0  0
    9.2642  -17.0932   26.1931 O   0  0  0  0  0  0  0  0  0  0  0  0
    6.3482  -21.2315   27.2627 C   0  0  0  0  0  0  0  0  0  0  0  0
    6.0009  -22.5277   27.5998 C   0  0  0  0  0  0  0  0  0  0  0  0
    7.3751  -12.8711   18.7177 N   0  0  0  0  0  0  0  0  0  0  0  0
    8.4459  -13.4875   19.4192 C   0  0  0  0  0  0  0  0  0  0  0  0
    9.5065  -13.7876   18.8023 N   0  0  0  0  0  0  0  0  0  0  0  0
    8.2436  -13.7329   20.8163 N   0  0  0  0  0  0  0  0  0  0  0  0
    6.8411  -13.7946   21.2585 C   0  0  0  0  0  0  0  0  0  0  0  0
    6.7698  -14.1687   22.6961 C   0  0  0  0  0  0  0  0  0  0  0  0
    7.1130  -15.5681   22.9720 C   0  0  0  0  0  0  0  0  0  0  0  0
    7.7165  -15.9298   24.3000 C   0  0  2  0  0  0  0  0  0  0  0  0
    7.8385  -17.3419   24.4242 N   0  0  0  0  0  0  0  0  0  0  0  0
    6.8279  -15.3504   25.3427 C   0  0  0  0  0  0  0  0  0  0  0  0
    5.9352  -16.0479   25.8290 O   0  0  0  0  0  0  0  0  0  0  0  0
   10.3486  -14.2688   19.1369 N   0  0  0  0  0  0  0  0  0  0  0  0
    7.0169  -14.0220   25.7624 C   0  0  0  0  0  0  0  0  0  0  0  0
    7.9891  -13.0887   25.1553 C   0  0  0  0  0  0  0  0  0  0  0  0
    8.5286  -12.3551   26.3548 C   0  0  0  0  0  0  0  0  0  0  0  0
    7.6602  -12.7821   27.5486 C   0  0  1  0  0  0  0  0  0  0  0  0
    6.3955  -13.2370   26.8175 C   0  0  0  0  0  0  0  0  0  0  0  0
    5.6058  -12.0996   26.3235 O   0  0  0  0  0  0  0  0  0  0  0  0
    4.7910  -11.4322   27.2272 O   0  0  0  0  0  0  0  0  0  0  0  0
  2  1  1  0
  2  3  2  0
  4  3  1  0
  5  4  2  0
  6  5  1  0
  7  6  1  0
  7  8  1  1
  9  7  1  0
  9 10  2  0
 11 12  2  0
 11  5  1  0
 12  2  1  0
 14 13  1  0
 15 14  2  0
 16 14  1  0
 17 16  1  0
 18 19  1  0
 18 17  1  0
 20 19  1  6
 20 21  1  0
 21  9  1  0
 22 20  1  0
 23 22  2  0
 24 28  1  0
 24 22  1  0
 25 24  1  0
 26 25  1  0
 26 27  1  0
 27 28  1  0
 28 29  1  6
 29 31  2  0
 29 30  1  0
M  END
$$$$
