YRP.pdb
     RDKit          3D

 31 32  0  0  1  0  0  0  0  0999 V2000
    8.5174  -13.1218   16.0822 O   0  0  0  0  0  0  0  0  0  0  0  0
    8.1515  -13.3263   17.4076 C   0  0  0  0  0  0  0  0  0  0  0  0
    6.8915  -13.7629   17.7416 C   0  0  0  0  0  0  0  0  0  0  0  0
    6.5632  -13.9565   19.0856 C   0  0  0  0  0  0  0  0  0  0  0  0
    7.4718  -13.7218   20.0918 C   0  0  0  0  0  0  0  0  0  0  0  0
    7.0812  -13.9402   21.5063 C   0  0  0  0  0  0  0  0  0  0  0  0
    7.3242  -15.4069   21.7992 C   0  0  2  0  0  0  0  0  0  0  0  0
    6.4298  -16.2683   21.0984 N   0  0  0  0  0  0  0  0  0  0  0  0
    7.2768  -15.6250   23.2601 C   0  0  0  0  0  0  0  0  0  0  0  0
    6.3258  -15.1873   23.9763 O   0  0  0  0  0  0  0  0  0  0  0  0
    8.7373  -13.2827   19.7555 C   0  0  0  0  0  0  0  0  0  0  0  0
    9.0505  -13.0941   18.4211 C   0  0  0  0  0  0  0  0  0  0  0  0
    6.8062  -20.9758   23.6278 N   0  0  0  0  0  0  0  0  0  0  0  0
    7.8869  -21.2134   24.5190 C   0  0  0  0  0  0  0  0  0  0  0  0
    8.8322  -21.9734   24.1664 N   0  0  0  0  0  0  0  0  0  0  0  0
    7.8286  -20.5567   25.7912 N   0  0  0  0  0  0  0  0  0  0  0  0
    6.6316  -19.7350   26.0328 C   0  0  0  0  0  0  0  0  0  0  0  0
    6.8114  -18.3784   25.4506 C   0  0  0  0  0  0  0  0  0  0  0  0
    7.9658  -17.6440   25.9800 C   0  0  0  0  0  0  0  0  0  0  0  0
    8.3086  -16.2985   25.4051 C   0  0  2  0  0  0  0  0  0  0  0  0
    8.2957  -16.3459   23.9831 N   0  0  0  0  0  0  0  0  0  0  0  0
    9.6478  -15.9357   25.9414 C   0  0  0  0  0  0  0  0  0  0  0  0
   10.6160  -15.9120   25.1786 O   0  0  0  0  0  0  0  0  0  0  0  0
    9.6706  -22.2632   24.6818 N   0  0  0  0  0  0  0  0  0  0  0  0
    9.7932  -15.6221   27.3041 C   0  0  0  0  0  0  0  0  0  0  0  0
    8.6672  -15.5009   28.2540 C   0  0  0  0  0  0  0  0  0  0  0  0
    9.0794  -14.3241   29.0986 C   0  0  0  0  0  0  0  0  0  0  0  0
   10.5252  -13.9908   28.6987 C   0  0  1  0  0  0  0  0  0  0  0  0
   10.9648  -15.3360   28.1172 C   0  0  0  0  0  0  0  0  0  0  0  0
   11.2158  -16.3341   29.1671 O   0  0  0  0  0  0  0  0  0  0  0  0
   10.4111  -16.3056   30.2974 O   0  0  0  0  0  0  0  0  0  0  0  0
  2  1  1  0
  2  3  2  0
  4  3  1  0
  5  4  2  0
  6  5  1  0
  7  6  1  0
  7  8  1  6
  9  7  1  0
  9 10  2  0
 11 12  2  0
 11  5  1  0
 12  2  1  0
 14 13  1  0
 15 14  2  0
 16 14  1  0
 17 16  1  0
 18 19  1  0
 18 17  1  0
 20 19  1  1
 20 21  1  0
 21  9  1  0
 22 20  1  0
 23 22  2  0
 24 28  1  0
 24 22  1  0
 25 24  1  0
 26 25  1  0
 26 27  1  0
 27 28  1  0
 28 29  1  1
 29 31  2  0
 29 30  1  0
M  END
$$$$
