YRP.pdb
     RDKit          3D

 31 32  0  0  1  0  0  0  0  0999 V2000
    9.7964  -12.7453   16.4160 O   0  0  0  0  0  0  0  0  0  0  0  0
    8.9201  -13.2339   17.3781 C   0  0  0  0  0  0  0  0  0  0  0  0
    8.9159  -12.7356   18.6594 C   0  0  0  0  0  0  0  0  0  0  0  0
    8.0193  -13.2536   19.5971 C   0  0  0  0  0  0  0  0  0  0  0  0
    7.1332  -14.2549   19.2722 C   0  0  0  0  0  0  0  0  0  0  0  0
    6.1980  -14.7763   20.2993 C   0  0  0  0  0  0  0  0  0  0  0  0
    6.7477  -16.1170   20.7423 C   0  0  2  0  0  0  0  0  0  0  0  0
    6.2730  -17.2014   19.9473 N   0  0  0  0  0  0  0  0  0  0  0  0
    6.4573  -16.3108   22.1783 C   0  0  0  0  0  0  0  0  0  0  0  0
    5.2891  -16.5670   22.6009 O   0  0  0  0  0  0  0  0  0  0  0  0
    7.1384  -14.7553   17.9850 C   0  0  0  0  0  0  0  0  0  0  0  0
    8.0313  -14.2347   17.0654 C   0  0  0  0  0  0  0  0  0  0  0  0
    9.9439  -19.7591   29.4568 N   0  0  0  0  0  0  0  0  0  0  0  0
    8.8745  -19.8582   28.5267 C   0  0  0  0  0  0  0  0  0  0  0  0
    7.9750  -20.7282   28.6990 N   0  0  0  0  0  0  0  0  0  0  0  0
    8.8901  -18.9394   27.4273 N   0  0  0  0  0  0  0  0  0  0  0  0
    7.7919  -19.0828   26.4580 C   0  0  0  0  0  0  0  0  0  0  0  0
    7.9292  -18.0773   25.3709 C   0  0  0  0  0  0  0  0  0  0  0  0
    6.9373  -16.9976   25.4202 C   0  0  0  0  0  0  0  0  0  0  0  0
    7.0975  -15.8091   24.5144 C   0  0  2  0  0  0  0  0  0  0  0  0
    7.4668  -16.2263   23.2052 N   0  0  0  0  0  0  0  0  0  0  0  0
    8.1294  -14.9367   25.1362 C   0  0  0  0  0  0  0  0  0  0  0  0
    9.2452  -14.8596   24.6175 O   0  0  0  0  0  0  0  0  0  0  0  0
    7.1730  -20.9715   28.1072 N   0  0  0  0  0  0  0  0  0  0  0  0
    7.8216  -14.2108   26.3001 C   0  0  0  0  0  0  0  0  0  0  0  0
    6.4691  -14.1197   26.8897 C   0  0  0  0  0  0  0  0  0  0  0  0
    6.4038  -12.6819   27.3332 C   0  0  0  0  0  0  0  0  0  0  0  0
    7.8186  -12.1098   27.1528 C   0  0  2  0  0  0  0  0  0  0  0  0
    8.6411  -13.3994   27.1863 C   0  0  0  0  0  0  0  0  0  0  0  0
    8.7590  -13.9422   28.5476 O   0  0  0  0  0  0  0  0  0  0  0  0
    9.6920  -13.3668   29.3986 O   0  0  0  0  0  0  0  0  0  0  0  0
  2  1  1  0
  2  3  2  0
  4  3  1  0
  5  4  2  0
  6  5  1  0
  7  6  1  0
  7  8  1  6
  9  7  1  0
  9 10  2  0
 11 12  2  0
 11  5  1  0
 12  2  1  0
 14 13  1  0
 15 14  2  0
 16 14  1  0
 17 16  1  0
 18 19  1  0
 18 17  1  0
 20 19  1  1
 20 21  1  0
 21  9  1  0
 22 20  1  0
 23 22  2  0
 24 28  1  0
 24 22  1  0
 25 24  1  0
 26 25  1  0
 26 27  1  0
 27 28  1  0
 28 29  1  1
 29 31  2  0
 29 30  1  0
M  END
$$$$
