YRP.pdb
     RDKit          3D

 31 32  0  0  1  0  0  0  0  0999 V2000
    8.3494  -13.1642   15.2392 O   0  0  0  0  0  0  0  0  0  0  0  0
    8.0465  -13.3628   16.5813 C   0  0  0  0  0  0  0  0  0  0  0  0
    8.3418  -12.4113   17.5286 C   0  0  0  0  0  0  0  0  0  0  0  0
    8.0209  -12.6492   18.8673 C   0  0  0  0  0  0  0  0  0  0  0  0
    7.4126  -13.8168   19.2674 C   0  0  0  0  0  0  0  0  0  0  0  0
    7.0894  -14.0286   20.6998 C   0  0  0  0  0  0  0  0  0  0  0  0
    8.3621  -14.5171   21.3614 C   0  0  2  0  0  0  0  0  0  0  0  0
    8.9401  -15.6365   20.6937 N   0  0  0  0  0  0  0  0  0  0  0  0
    8.0917  -14.7981   22.7869 C   0  0  0  0  0  0  0  0  0  0  0  0
    7.7674  -13.8840   23.6043 O   0  0  0  0  0  0  0  0  0  0  0  0
    7.1167  -14.7723   18.3152 C   0  0  0  0  0  0  0  0  0  0  0  0
    7.4398  -14.5255   16.9927 C   0  0  0  0  0  0  0  0  0  0  0  0
    7.6864  -21.7439   24.7701 N   0  0  0  0  0  0  0  0  0  0  0  0
    6.2713  -21.6308   24.8282 C   0  0  0  0  0  0  0  0  0  0  0  0
    5.5998  -22.5007   25.4509 N   0  0  0  0  0  0  0  0  0  0  0  0
    5.6873  -20.5068   24.1583 N   0  0  0  0  0  0  0  0  0  0  0  0
    6.6251  -19.4505   23.7444 C   0  0  0  0  0  0  0  0  0  0  0  0
    6.4465  -18.2415   24.5917 C   0  0  0  0  0  0  0  0  0  0  0  0
    7.6973  -17.6863   25.1202 C   0  0  0  0  0  0  0  0  0  0  0  0
    8.0824  -16.2764   24.7703 C   0  0  2  0  0  0  0  0  0  0  0  0
    8.1725  -16.1198   23.3589 N   0  0  0  0  0  0  0  0  0  0  0  0
    9.3796  -16.0094   25.4474 C   0  0  0  0  0  0  0  0  0  0  0  0
   10.4312  -16.2159   24.8378 O   0  0  0  0  0  0  0  0  0  0  0  0
    4.5915  -22.5462   25.6347 N   0  0  0  0  0  0  0  0  0  0  0  0
    9.3923  -15.5239   26.7667 C   0  0  0  0  0  0  0  0  0  0  0  0
    8.1775  -15.2302   27.5561 C   0  0  0  0  0  0  0  0  0  0  0  0
    8.5608  -13.9700   28.2862 C   0  0  0  0  0  0  0  0  0  0  0  0
   10.0585  -13.7541   28.0179 C   0  0  1  0  0  0  0  0  0  0  0  0
   10.4818  -15.1819   27.6674 C   0  0  0  0  0  0  0  0  0  0  0  0
   10.5589  -16.0413   28.8578 O   0  0  0  0  0  0  0  0  0  0  0  0
   11.6925  -15.9503   29.6533 O   0  0  0  0  0  0  0  0  0  0  0  0
  2  1  1  0
  2  3  2  0
  4  3  1  0
  5  4  2  0
  6  5  1  0
  7  6  1  0
  7  8  1  6
  9  7  1  0
  9 10  2  0
 11 12  2  0
 11  5  1  0
 12  2  1  0
 14 13  1  0
 15 14  2  0
 16 14  1  0
 17 16  1  0
 18 19  1  0
 18 17  1  0
 20 19  1  6
 20 21  1  0
 21  9  1  0
 22 20  1  0
 23 22  2  0
 24 28  1  0
 24 22  1  0
 25 24  1  0
 26 25  1  0
 26 27  1  0
 27 28  1  0
 28 29  1  1
 29 31  2  0
 29 30  1  0
M  END
$$$$
