YRP.pdb
     RDKit          3D

 31 32  0  0  1  0  0  0  0  0999 V2000
    8.1781  -23.2604   29.1332 O   0  0  0  0  0  0  0  0  0  0  0  0
    8.3680  -21.9435   28.7307 C   0  0  0  0  0  0  0  0  0  0  0  0
    7.5417  -21.3537   27.8038 C   0  0  0  0  0  0  0  0  0  0  0  0
    7.7659  -20.0276   27.4259 C   0  0  0  0  0  0  0  0  0  0  0  0
    8.7972  -19.2894   27.9596 C   0  0  0  0  0  0  0  0  0  0  0  0
    8.9997  -17.8838   27.5299 C   0  0  0  0  0  0  0  0  0  0  0  0
    9.6770  -17.9402   26.1756 C   0  0  2  0  0  0  0  0  0  0  0  0
   11.0058  -18.4532   26.2407 N   0  0  0  0  0  0  0  0  0  0  0  0
    9.6272  -16.6016   25.5514 C   0  0  0  0  0  0  0  0  0  0  0  0
   10.2840  -15.6187   26.0112 O   0  0  0  0  0  0  0  0  0  0  0  0
    9.6272  -19.8828   28.8903 C   0  0  0  0  0  0  0  0  0  0  0  0
    9.3954  -21.1968   29.2562 C   0  0  0  0  0  0  0  0  0  0  0  0
    8.6171  -12.0880   19.7264 N   0  0  0  0  0  0  0  0  0  0  0  0
    7.9480  -13.1761   19.1043 C   0  0  0  0  0  0  0  0  0  0  0  0
    8.1566  -13.4222   17.8830 N   0  0  0  0  0  0  0  0  0  0  0  0
    7.0585  -13.9405   19.9275 N   0  0  0  0  0  0  0  0  0  0  0  0
    7.5831  -15.2269   20.4136 C   0  0  0  0  0  0  0  0  0  0  0  0
    8.4081  -15.0193   21.6334 C   0  0  0  0  0  0  0  0  0  0  0  0
    7.6306  -14.8779   22.8695 C   0  0  0  0  0  0  0  0  0  0  0  0
    8.3293  -14.9905   24.1953 C   0  0  2  0  0  0  0  0  0  0  0  0
    8.8375  -16.3064   24.3809 N   0  0  0  0  0  0  0  0  0  0  0  0
    7.3305  -14.6239   25.2347 C   0  0  0  0  0  0  0  0  0  0  0  0
    6.7190  -15.5174   25.8244 O   0  0  0  0  0  0  0  0  0  0  0  0
    7.8138  -14.1931   17.2993 N   0  0  0  0  0  0  0  0  0  0  0  0
    7.0985  -13.2700   25.5342 C   0  0  0  0  0  0  0  0  0  0  0  0
    7.5091  -12.1448   24.6681 C   0  0  0  0  0  0  0  0  0  0  0  0
    7.9757  -11.1188   25.6669 C   0  0  0  0  0  0  0  0  0  0  0  0
    7.5939  -11.6609   27.0532 C   0  0  1  0  0  0  0  0  0  0  0  0
    6.4645  -12.6193   26.6701 C   0  0  0  0  0  0  0  0  0  0  0  0
    5.2268  -11.9033   26.3282 O   0  0  0  0  0  0  0  0  0  0  0  0
    4.4188  -11.4676   27.3690 O   0  0  0  0  0  0  0  0  0  0  0  0
  2  1  1  0
  2  3  2  0
  4  3  1  0
  5  4  2  0
  6  5  1  0
  7  6  1  0
  7  8  1  1
  9  7  1  0
  9 10  2  0
 11 12  2  0
 11  5  1  0
 12  2  1  0
 14 13  1  0
 15 14  2  0
 16 14  1  0
 17 16  1  0
 18 19  1  0
 18 17  1  0
 20 19  1  6
 20 21  1  0
 21  9  1  0
 22 20  1  0
 23 22  2  0
 24 28  1  0
 24 22  1  0
 25 24  1  0
 26 25  1  0
 26 27  1  0
 27 28  1  0
 28 29  1  6
 29 31  2  0
 29 30  1  0
M  END
$$$$
