YRP.pdb
     RDKit          3D

 31 32  0  0  1  0  0  0  0  0999 V2000
   11.8305  -15.7713   31.0977 O   0  0  0  0  0  0  0  0  0  0  0  0
   11.4763  -16.4487   29.9366 C   0  0  0  0  0  0  0  0  0  0  0  0
   11.9816  -17.6957   29.6548 C   0  0  0  0  0  0  0  0  0  0  0  0
   11.6004  -18.3435   28.4772 C   0  0  0  0  0  0  0  0  0  0  0  0
   10.7267  -17.7650   27.5854 C   0  0  0  0  0  0  0  0  0  0  0  0
   10.3487  -18.4882   26.3462 C   0  0  0  0  0  0  0  0  0  0  0  0
   11.2518  -17.9637   25.2483 C   0  0  2  0  0  0  0  0  0  0  0  0
   12.6315  -17.9839   25.6077 N   0  0  0  0  0  0  0  0  0  0  0  0
   10.7999  -16.6139   24.8509 C   0  0  0  0  0  0  0  0  0  0  0  0
   11.2388  -15.5641   25.4114 O   0  0  0  0  0  0  0  0  0  0  0  0
   10.2199  -16.5120   27.8690 C   0  0  0  0  0  0  0  0  0  0  0  0
   10.6052  -15.8803   29.0381 C   0  0  0  0  0  0  0  0  0  0  0  0
    8.5979  -12.2793   18.4716 N   0  0  0  0  0  0  0  0  0  0  0  0
    7.6076  -13.2950   18.3920 C   0  0  0  0  0  0  0  0  0  0  0  0
    6.7809  -13.2884   17.4370 N   0  0  0  0  0  0  0  0  0  0  0  0
    7.6150  -14.2840   19.4288 N   0  0  0  0  0  0  0  0  0  0  0  0
    8.7843  -14.2653   20.3226 C   0  0  0  0  0  0  0  0  0  0  0  0
    8.7388  -15.4226   21.2554 C   0  0  0  0  0  0  0  0  0  0  0  0
    8.2035  -15.1048   22.5838 C   0  0  0  0  0  0  0  0  0  0  0  0
    9.1170  -15.1538   23.7762 C   0  0  2  0  0  0  0  0  0  0  0  0
    9.8346  -16.3821   23.8044 N   0  0  0  0  0  0  0  0  0  0  0  0
    8.2574  -14.9796   24.9776 C   0  0  0  0  0  0  0  0  0  0  0  0
    8.1470  -15.9096   25.7795 O   0  0  0  0  0  0  0  0  0  0  0  0
    6.0348  -13.9543   17.2081 N   0  0  0  0  0  0  0  0  0  0  0  0
    7.5869  -13.7617   25.1864 C   0  0  0  0  0  0  0  0  0  0  0  0
    7.5959  -12.6334   24.2314 C   0  0  0  0  0  0  0  0  0  0  0  0
    7.6948  -11.4376   25.1416 C   0  0  0  0  0  0  0  0  0  0  0  0
    7.5191  -11.9687   26.5729 C   0  0  1  0  0  0  0  0  0  0  0  0
    6.7742  -13.2749   26.2901 C   0  0  0  0  0  0  0  0  0  0  0  0
    5.3676  -13.0403   25.9323 O   0  0  0  0  0  0  0  0  0  0  0  0
    5.0248  -13.0706   24.5878 O   0  0  0  0  0  0  0  0  0  0  0  0
  2  1  1  0
  2  3  2  0
  4  3  1  0
  5  4  2  0
  6  5  1  0
  7  6  1  0
  7  8  1  1
  9  7  1  0
  9 10  2  0
 11 12  2  0
 11  5  1  0
 12  2  1  0
 14 13  1  0
 15 14  2  0
 16 14  1  0
 17 16  1  0
 18 19  1  0
 18 17  1  0
 20 19  1  6
 20 21  1  0
 21  9  1  0
 22 20  1  0
 23 22  2  0
 24 28  1  0
 24 22  1  0
 25 24  1  0
 26 25  1  0
 26 27  1  0
 27 28  1  0
 28 29  1  1
 29 31  2  0
 29 30  1  0
M  END
$$$$
