YRP.pdb
     RDKit          3D

 31 32  0  0  1  0  0  0  0  0999 V2000
    4.8167  -11.2859   28.4753 O   0  0  0  0  0  0  0  0  0  0  0  0
    5.6884  -11.8232   27.5352 C   0  0  0  0  0  0  0  0  0  0  0  0
    5.8140  -11.2737   26.2814 C   0  0  0  0  0  0  0  0  0  0  0  0
    6.7016  -11.8433   25.3653 C   0  0  0  0  0  0  0  0  0  0  0  0
    7.4599  -12.9461   25.6849 C   0  0  0  0  0  0  0  0  0  0  0  0
    8.3903  -13.5194   24.6814 C   0  0  0  0  0  0  0  0  0  0  0  0
    8.6012  -14.9693   25.0677 C   0  0  2  0  0  0  0  0  0  0  0  0
    9.3498  -15.1195   26.2719 N   0  0  0  0  0  0  0  0  0  0  0  0
    9.2195  -15.6890   23.9346 C   0  0  0  0  0  0  0  0  0  0  0  0
   10.4775  -15.7718   23.7947 O   0  0  0  0  0  0  0  0  0  0  0  0
    7.3329  -13.4978   26.9445 C   0  0  0  0  0  0  0  0  0  0  0  0
    6.4501  -12.9252   27.8429 C   0  0  0  0  0  0  0  0  0  0  0  0
    6.9290  -21.0414   24.8589 N   0  0  0  0  0  0  0  0  0  0  0  0
    6.4492  -20.7375   23.5566 C   0  0  0  0  0  0  0  0  0  0  0  0
    5.2482  -20.3784   23.4011 N   0  0  0  0  0  0  0  0  0  0  0  0
    7.3862  -20.8626   22.4798 N   0  0  0  0  0  0  0  0  0  0  0  0
    8.4988  -19.8990   22.4847 C   0  0  0  0  0  0  0  0  0  0  0  0
    8.3559  -18.9409   21.3563 C   0  0  0  0  0  0  0  0  0  0  0  0
    9.3849  -17.8959   21.3196 C   0  0  0  0  0  0  0  0  0  0  0  0
    8.9969  -16.4710   21.5984 C   0  0  2  0  0  0  0  0  0  0  0  0
    8.4522  -16.3495   22.9072 N   0  0  0  0  0  0  0  0  0  0  0  0
    8.0194  -16.0830   20.5465 C   0  0  0  0  0  0  0  0  0  0  0  0
    6.8499  -16.4616   20.6417 O   0  0  0  0  0  0  0  0  0  0  0  0
    4.7302  -20.1691   22.5406 N   0  0  0  0  0  0  0  0  0  0  0  0
    8.4366  -15.2902   19.4631 C   0  0  0  0  0  0  0  0  0  0  0  0
    9.7923  -14.7172   19.3257 C   0  0  0  0  0  0  0  0  0  0  0  0
    9.5119  -13.3500   18.7599 C   0  0  0  0  0  0  0  0  0  0  0  0
    8.0147  -13.3244   18.4146 C   0  0  1  0  0  0  0  0  0  0  0  0
    7.7411  -14.8231   18.2741 C   0  0  0  0  0  0  0  0  0  0  0  0
    8.2814  -15.3664   17.0194 O   0  0  0  0  0  0  0  0  0  0  0  0
    7.5267  -15.2110   15.8651 O   0  0  0  0  0  0  0  0  0  0  0  0
  2  1  1  0
  2  3  2  0
  4  3  1  0
  5  4  2  0
  6  5  1  0
  7  6  1  0
  7  8  1  1
  9  7  1  0
  9 10  2  0
 11 12  2  0
 11  5  1  0
 12  2  1  0
 14 13  1  0
 15 14  2  0
 16 14  1  0
 17 16  1  0
 18 19  1  0
 18 17  1  0
 20 19  1  6
 20 21  1  0
 21  9  1  0
 22 20  1  0
 23 22  2  0
 24 28  1  0
 24 22  1  0
 25 24  1  0
 26 25  1  0
 26 27  1  0
 27 28  1  0
 28 29  1  6
 29 31  2  0
 29 30  1  0
M  END
$$$$
