NIN.pdb
     RDKit          3D

 25 24  0  0  1  0  0  0  0  0999 V2000
   20.9482  -16.2783  -19.0587 N   0  0  0  0  0  0  0  0  0  0  0  0
   20.1624  -15.1109  -18.8741 C   0  0  0  0  0  0  0  0  0  0  0  0
   19.1402  -14.9948  -19.6074 O   0  0  0  0  0  0  0  0  0  0  0  0
   20.5098  -14.0740  -17.8784 C   0  0  0  0  0  0  0  0  0  0  0  0
   21.7596  -14.4410  -17.1032 C   0  0  2  0  0  0  0  0  0  0  0  0
   21.3623  -15.5233  -16.1960 N   0  0  0  0  0  0  0  0  0  0  0  0
   22.1612  -13.2696  -16.2815 C   0  0  0  0  0  0  0  0  0  0  0  0
   21.5161  -13.0265  -15.2087 O   0  0  0  0  0  0  0  0  0  0  0  0
   27.3133  -11.8540  -15.4937 C   0  0  0  0  0  0  0  0  0  0  0  0
   25.8411  -12.2431  -15.3426 C   0  0  0  0  0  0  0  0  0  0  0  0
   25.0341  -11.0343  -15.6909 C   0  0  2  0  0  0  0  0  0  0  0  0
   25.3426   -9.8347  -14.8222 C   0  0  0  0  0  0  0  0  0  0  0  0
   23.5485  -11.2908  -15.7695 C   0  0  2  0  0  0  0  0  0  0  0  0
   23.2246  -12.4020  -16.6221 N   0  0  0  0  0  0  0  0  0  0  0  0
   22.8354  -10.0494  -16.1813 C   0  0  0  0  0  0  0  0  0  0  0  0
   23.0998   -9.4783  -17.2947 O   0  0  0  0  0  0  0  0  0  0  0  0
   18.3783   -7.0254  -16.9377 N   0  0  0  0  0  0  0  0  0  0  0  0
   19.1314   -6.8903  -15.7351 C   0  0  0  0  0  0  0  0  0  0  0  0
   19.2730   -5.7877  -15.1506 O   0  0  0  0  0  0  0  0  0  0  0  0
   19.7598   -8.1244  -15.1792 C   0  0  0  0  0  0  0  0  0  0  0  0
   21.1227   -8.2326  -15.8276 C   0  0  2  0  0  0  0  0  0  0  0  0
   21.8348   -9.4179  -15.3956 N   0  0  0  0  0  0  0  0  0  0  0  0
   21.9170   -6.9946  -15.6169 C   0  0  0  0  0  0  0  0  0  0  0  0
   22.4967   -6.8502  -14.5146 O   0  0  0  0  0  0  0  0  0  0  0  0
   22.0201   -6.0351  -16.5871 O   0  0  0  0  0  0  0  0  0  0  0  0
  1  2  1  0
  2  3  2  0
  4  5  1  0
  4  2  1  0
  5  6  1  1
  7  5  1  0
  8  7  2  0
  9 10  1  0
 10 11  1  0
 11 12  1  1
 13 11  1  0
 13 14  1  6
 14  7  1  0
 15 22  1  0
 15 13  1  0
 16 15  2  0
 18 17  1  0
 19 18  2  0
 20 18  1  0
 21 20  1  1
 21 22  1  0
 23 25  1  0
 23 21  1  0
 24 23  2  0
M  END
$$$$
