NIN.pdb
     RDKit          3D

 25 24  0  0  1  0  0  0  0  0999 V2000
   29.3625  -19.2803  -17.7644 N   0  0  0  0  0  0  0  0  0  0  0  0
   27.9871  -19.4199  -18.0859 C   0  0  0  0  0  0  0  0  0  0  0  0
   27.5829  -18.8143  -19.1184 O   0  0  0  0  0  0  0  0  0  0  0  0
   27.0617  -20.2293  -17.2638 C   0  0  0  0  0  0  0  0  0  0  0  0
   27.7746  -20.8735  -16.0914 C   0  0  2  0  0  0  0  0  0  0  0  0
   28.4365  -22.0651  -16.6336 N   0  0  0  0  0  0  0  0  0  0  0  0
   26.7519  -21.3164  -15.1083 C   0  0  0  0  0  0  0  0  0  0  0  0
   26.1281  -22.4072  -15.3260 O   0  0  0  0  0  0  0  0  0  0  0  0
   25.3663  -21.1206   -9.2035 C   0  0  0  0  0  0  0  0  0  0  0  0
   24.8430  -21.4544  -10.6022 C   0  0  0  0  0  0  0  0  0  0  0  0
   25.8183  -20.8819  -11.5794 C   0  0  2  0  0  0  0  0  0  0  0  0
   26.1522  -19.4302  -11.3151 C   0  0  0  0  0  0  0  0  0  0  0  0
   25.4426  -21.1072  -13.0240 C   0  0  2  0  0  0  0  0  0  0  0  0
   26.4274  -20.5940  -13.9369 N   0  0  0  0  0  0  0  0  0  0  0  0
   24.0894  -20.5463  -13.2949 C   0  0  0  0  0  0  0  0  0  0  0  0
   23.9265  -19.2951  -13.5034 O   0  0  0  0  0  0  0  0  0  0  0  0
   19.4391  -19.5787  -14.3673 N   0  0  0  0  0  0  0  0  0  0  0  0
   19.7014  -20.7546  -15.1290 C   0  0  0  0  0  0  0  0  0  0  0  0
   18.9228  -21.1622  -16.0263 O   0  0  0  0  0  0  0  0  0  0  0  0
   20.9555  -21.5029  -14.8222 C   0  0  0  0  0  0  0  0  0  0  0  0
   21.6056  -20.7793  -13.6631 C   0  0  2  0  0  0  0  0  0  0  0  0
   22.9062  -21.3306  -13.3421 N   0  0  0  0  0  0  0  0  0  0  0  0
   20.7061  -20.7425  -12.4810 C   0  0  0  0  0  0  0  0  0  0  0  0
   20.9219  -21.5588  -11.5541 O   0  0  0  0  0  0  0  0  0  0  0  0
   19.6715  -19.8510  -12.3948 O   0  0  0  0  0  0  0  0  0  0  0  0
  1  2  1  0
  2  3  2  0
  4  5  1  0
  4  2  1  0
  5  6  1  6
  7  5  1  0
  8  7  2  0
  9 10  1  0
 10 11  1  0
 11 12  1  6
 13 11  1  0
 13 14  1  6
 14  7  1  0
 15 22  1  0
 15 13  1  0
 16 15  2  0
 18 17  1  0
 19 18  2  0
 20 18  1  0
 21 20  1  6
 21 22  1  0
 23 25  1  0
 23 21  1  0
 24 23  2  0
M  END
$$$$
