NIN.pdb
     RDKit          3D

 25 24  0  0  1  0  0  0  0  0999 V2000
   24.8854   -8.0223  -22.3718 N   0  0  0  0  0  0  0  0  0  0  0  0
   23.8623   -7.1899  -21.8473 C   0  0  0  0  0  0  0  0  0  0  0  0
   23.6305   -6.1163  -22.4717 O   0  0  0  0  0  0  0  0  0  0  0  0
   23.0981   -7.5472  -20.6326 C   0  0  0  0  0  0  0  0  0  0  0  0
   23.6003   -8.8382  -20.0169 C   0  0  2  0  0  0  0  0  0  0  0  0
   22.9914   -9.9174  -20.8023 N   0  0  0  0  0  0  0  0  0  0  0  0
   23.0824   -8.9257  -18.6267 C   0  0  0  0  0  0  0  0  0  0  0  0
   21.8507   -9.2054  -18.4506 O   0  0  0  0  0  0  0  0  0  0  0  0
   26.1698  -10.8488  -15.4445 C   0  0  0  0  0  0  0  0  0  0  0  0
   24.6533  -10.8321  -15.6485 C   0  0  0  0  0  0  0  0  0  0  0  0
   24.1655   -9.5014  -15.1740 C   0  0  2  0  0  0  0  0  0  0  0  0
   23.5215   -9.5502  -13.8059 C   0  0  0  0  0  0  0  0  0  0  0  0
   23.2910   -8.7783  -16.1697 C   0  0  2  0  0  0  0  0  0  0  0  0
   23.8811   -8.7154  -17.4791 N   0  0  0  0  0  0  0  0  0  0  0  0
   22.9385   -7.4257  -15.6545 C   0  0  0  0  0  0  0  0  0  0  0  0
   23.8488   -6.5780  -15.3573 O   0  0  0  0  0  0  0  0  0  0  0  0
   21.2849   -2.2471  -16.5503 N   0  0  0  0  0  0  0  0  0  0  0  0
   21.5357   -3.2686  -15.5884 C   0  0  0  0  0  0  0  0  0  0  0  0
   21.4835   -3.0552  -14.3517 O   0  0  0  0  0  0  0  0  0  0  0  0
   21.8691   -4.6282  -16.1053 C   0  0  0  0  0  0  0  0  0  0  0  0
   21.2696   -5.6113  -15.1236 C   0  0  2  0  0  0  0  0  0  0  0  0
   21.6042   -6.9809  -15.4569 N   0  0  0  0  0  0  0  0  0  0  0  0
   19.8035   -5.4100  -14.9901 C   0  0  0  0  0  0  0  0  0  0  0  0
   19.0502   -6.0626  -15.7509 O   0  0  0  0  0  0  0  0  0  0  0  0
   19.2797   -4.5429  -14.0702 O   0  0  0  0  0  0  0  0  0  0  0  0
  1  2  1  0
  2  3  2  0
  4  5  1  0
  4  2  1  0
  5  6  1  6
  7  5  1  0
  8  7  2  0
  9 10  1  0
 10 11  1  0
 11 12  1  1
 13 11  1  0
 13 14  1  6
 14  7  1  0
 15 22  1  0
 15 13  1  0
 16 15  2  0
 18 17  1  0
 19 18  2  0
 20 18  1  0
 21 20  1  6
 21 22  1  0
 23 25  1  0
 23 21  1  0
 24 23  2  0
M  END
$$$$
