NIN.pdb
     RDKit          3D

 25 24  0  0  1  0  0  0  0  0999 V2000
   21.5479  -15.1373  -20.7451 N   0  0  0  0  0  0  0  0  0  0  0  0
   20.8189  -13.9343  -20.5558 C   0  0  0  0  0  0  0  0  0  0  0  0
   19.9662  -13.6438  -21.4417 O   0  0  0  0  0  0  0  0  0  0  0  0
   21.0353  -13.0549  -19.3866 C   0  0  0  0  0  0  0  0  0  0  0  0
   22.1413  -13.5783  -18.4917 C   0  0  2  0  0  0  0  0  0  0  0  0
   21.5953  -14.7749  -17.8420 N   0  0  0  0  0  0  0  0  0  0  0  0
   22.4133  -12.5623  -17.4417 C   0  0  0  0  0  0  0  0  0  0  0  0
   21.6278  -12.4950  -16.4393 O   0  0  0  0  0  0  0  0  0  0  0  0
   27.3037  -11.2940  -15.5387 C   0  0  0  0  0  0  0  0  0  0  0  0
   25.8340  -11.6807  -15.7168 C   0  0  0  0  0  0  0  0  0  0  0  0
   25.0988  -10.4342  -16.0905 C   0  0  2  0  0  0  0  0  0  0  0  0
   25.2368   -9.3261  -15.0698 C   0  0  0  0  0  0  0  0  0  0  0  0
   23.6541  -10.6632  -16.4640 C   0  0  2  0  0  0  0  0  0  0  0  0
   23.5002  -11.6591  -17.4892 N   0  0  0  0  0  0  0  0  0  0  0  0
   23.0123   -9.3733  -16.8429 C   0  0  0  0  0  0  0  0  0  0  0  0
   23.3751   -8.7430  -17.8949 O   0  0  0  0  0  0  0  0  0  0  0  0
   18.4418   -5.7550  -16.3221 N   0  0  0  0  0  0  0  0  0  0  0  0
   19.2287   -6.5283  -17.2245 C   0  0  0  0  0  0  0  0  0  0  0  0
   19.4450   -6.1670  -18.4078 O   0  0  0  0  0  0  0  0  0  0  0  0
   19.8006   -7.8072  -16.7104 C   0  0  0  0  0  0  0  0  0  0  0  0
   21.2833   -7.5643  -16.5310 C   0  0  2  0  0  0  0  0  0  0  0  0
   21.9775   -8.7570  -16.0901 N   0  0  0  0  0  0  0  0  0  0  0  0
   21.5327   -6.4073  -15.6328 C   0  0  0  0  0  0  0  0  0  0  0  0
   21.6399   -6.6313  -14.4037 O   0  0  0  0  0  0  0  0  0  0  0  0
   21.6439   -5.1330  -16.1190 O   0  0  0  0  0  0  0  0  0  0  0  0
  1  2  1  0
  2  3  2  0
  4  5  1  0
  4  2  1  0
  5  6  1  1
  7  5  1  0
  8  7  2  0
  9 10  1  0
 10 11  1  0
 11 12  1  1
 13 11  1  0
 13 14  1  6
 14  7  1  0
 15 22  1  0
 15 13  1  0
 16 15  2  0
 18 17  1  0
 19 18  2  0
 20 18  1  0
 21 20  1  1
 21 22  1  0
 23 25  1  0
 23 21  1  0
 24 23  2  0
M  END
$$$$
