NIN.pdb
     RDKit          3D

 25 24  0  0  1  0  0  0  0  0999 V2000
   17.4813  -14.0845  -16.1281 N   0  0  0  0  0  0  0  0  0  0  0  0
   18.4837  -13.2962  -15.5048 C   0  0  0  0  0  0  0  0  0  0  0  0
   19.1012  -13.8264  -14.5384 O   0  0  0  0  0  0  0  0  0  0  0  0
   18.8004  -11.9226  -15.9520 C   0  0  0  0  0  0  0  0  0  0  0  0
   17.8165  -11.4350  -16.9971 C   0  0  2  0  0  0  0  0  0  0  0  0
   18.2718  -12.0053  -18.2697 N   0  0  0  0  0  0  0  0  0  0  0  0
   17.9235   -9.9554  -17.0858 C   0  0  0  0  0  0  0  0  0  0  0  0
   18.8738   -9.4522  -17.7713 O   0  0  0  0  0  0  0  0  0  0  0  0
   15.4073   -6.8795  -19.0787 C   0  0  0  0  0  0  0  0  0  0  0  0
   14.9054   -7.4455  -17.7485 C   0  0  0  0  0  0  0  0  0  0  0  0
   15.8272   -6.9406  -16.6859 C   0  0  2  0  0  0  0  0  0  0  0  0
   15.9995   -5.4377  -16.7039 C   0  0  0  0  0  0  0  0  0  0  0  0
   17.1602   -7.6479  -16.6439 C   0  0  2  0  0  0  0  0  0  0  0  0
   17.0267   -9.0661  -16.4500 N   0  0  0  0  0  0  0  0  0  0  0  0
   18.0373   -7.0272  -15.6121 C   0  0  0  0  0  0  0  0  0  0  0  0
   17.6638   -6.9519  -14.3913 O   0  0  0  0  0  0  0  0  0  0  0  0
   21.4795   -4.5826  -13.0805 N   0  0  0  0  0  0  0  0  0  0  0  0
   22.2791   -5.0391  -14.1686 C   0  0  0  0  0  0  0  0  0  0  0  0
   23.5209   -4.8568  -14.2134 O   0  0  0  0  0  0  0  0  0  0  0  0
   21.5820   -5.7558  -15.2764 C   0  0  0  0  0  0  0  0  0  0  0  0
   20.1169   -5.7916  -14.8995 C   0  0  2  0  0  0  0  0  0  0  0  0
   19.3200   -6.4847  -15.8911 N   0  0  0  0  0  0  0  0  0  0  0  0
   19.6008   -4.4263  -14.6215 C   0  0  0  0  0  0  0  0  0  0  0  0
   19.5098   -4.0661  -13.4240 O   0  0  0  0  0  0  0  0  0  0  0  0
   19.2331   -3.5794  -15.6316 O   0  0  0  0  0  0  0  0  0  0  0  0
  1  2  1  0
  2  3  2  0
  4  5  1  0
  4  2  1  0
  5  6  1  6
  7  5  1  0
  8  7  2  0
  9 10  1  0
 10 11  1  0
 11 12  1  6
 13 11  1  0
 13 14  1  1
 14  7  1  0
 15 22  1  0
 15 13  1  0
 16 15  2  0
 18 17  1  0
 19 18  2  0
 20 18  1  0
 21 20  1  6
 21 22  1  0
 23 25  1  0
 23 21  1  0
 24 23  2  0
M  END
$$$$
