NIN.pdb
     RDKit          3D

 25 24  0  0  1  0  0  0  0  0999 V2000
   30.5648  -21.9688  -17.4746 N   0  0  0  0  0  0  0  0  0  0  0  0
   29.1509  -21.8467  -17.4515 C   0  0  0  0  0  0  0  0  0  0  0  0
   28.5963  -21.4858  -18.5278 O   0  0  0  0  0  0  0  0  0  0  0  0
   28.3536  -22.1238  -16.2371 C   0  0  0  0  0  0  0  0  0  0  0  0
   27.1135  -21.2544  -16.1732 C   0  0  2  0  0  0  0  0  0  0  0  0
   27.5604  -19.9611  -15.6442 N   0  0  0  0  0  0  0  0  0  0  0  0
   26.1705  -21.8561  -15.1949 C   0  0  0  0  0  0  0  0  0  0  0  0
   25.8778  -23.0920  -15.3098 O   0  0  0  0  0  0  0  0  0  0  0  0
   24.8784  -20.0099   -9.8818 C   0  0  0  0  0  0  0  0  0  0  0  0
   24.6060  -20.0983  -11.3850 C   0  0  0  0  0  0  0  0  0  0  0  0
   24.9186  -21.4992  -11.8017 C   0  0  2  0  0  0  0  0  0  0  0  0
   26.3091  -21.9472  -11.4086 C   0  0  0  0  0  0  0  0  0  0  0  0
   24.6390  -21.7824  -13.2579 C   0  0  2  0  0  0  0  0  0  0  0  0
   25.5742  -21.1333  -14.1359 N   0  0  0  0  0  0  0  0  0  0  0  0
   23.2303  -21.4275  -13.5876 C   0  0  0  0  0  0  0  0  0  0  0  0
   22.9061  -20.2244  -13.8755 O   0  0  0  0  0  0  0  0  0  0  0  0
   17.5128  -22.9877  -13.6485 N   0  0  0  0  0  0  0  0  0  0  0  0
   18.5737  -22.6145  -14.5241 C   0  0  0  0  0  0  0  0  0  0  0  0
   18.3976  -21.8540  -15.5081 O   0  0  0  0  0  0  0  0  0  0  0  0
   19.9291  -23.1657  -14.2306 C   0  0  0  0  0  0  0  0  0  0  0  0
   20.7819  -21.9878  -13.8124 C   0  0  2  0  0  0  0  0  0  0  0  0
   22.1652  -22.3668  -13.6083 N   0  0  0  0  0  0  0  0  0  0  0  0
   20.2078  -21.3046  -12.6244 C   0  0  0  0  0  0  0  0  0  0  0  0
   20.5097  -21.7467  -11.4906 O   0  0  0  0  0  0  0  0  0  0  0  0
   19.3747  -20.2263  -12.7504 O   0  0  0  0  0  0  0  0  0  0  0  0
  1  2  1  0
  2  3  2  0
  4  5  1  0
  4  2  1  0
  5  6  1  1
  7  5  1  0
  8  7  2  0
  9 10  1  0
 10 11  1  0
 11 12  1  6
 13 11  1  0
 13 14  1  6
 14  7  1  0
 15 22  1  0
 15 13  1  0
 16 15  2  0
 18 17  1  0
 19 18  2  0
 20 18  1  0
 21 20  1  1
 21 22  1  0
 23 25  1  0
 23 21  1  0
 24 23  2  0
M  END
$$$$
