NIN.pdb
     RDKit          3D

 25 24  0  0  1  0  0  0  0  0999 V2000
   28.7071  -21.7308  -18.2325 N   0  0  0  0  0  0  0  0  0  0  0  0
   27.3220  -21.6260  -18.5245 C   0  0  0  0  0  0  0  0  0  0  0  0
   27.0135  -21.0510  -19.6063 O   0  0  0  0  0  0  0  0  0  0  0  0
   26.2811  -22.1574  -17.6183 C   0  0  0  0  0  0  0  0  0  0  0  0
   26.8892  -22.8348  -16.4061 C   0  0  2  0  0  0  0  0  0  0  0  0
   27.0442  -24.2464  -16.7746 N   0  0  0  0  0  0  0  0  0  0  0  0
   25.9160  -22.7508  -15.2862 C   0  0  0  0  0  0  0  0  0  0  0  0
   25.0164  -23.6496  -15.1904 O   0  0  0  0  0  0  0  0  0  0  0  0
   25.5579  -20.7941   -9.5393 C   0  0  0  0  0  0  0  0  0  0  0  0
   24.7842  -21.3923  -10.7161 C   0  0  0  0  0  0  0  0  0  0  0  0
   25.6443  -21.2327  -11.9279 C   0  0  2  0  0  0  0  0  0  0  0  0
   26.1448  -19.8191  -12.1279 C   0  0  0  0  0  0  0  0  0  0  0  0
   25.0308  -21.7844  -13.1921 C   0  0  2  0  0  0  0  0  0  0  0  0
   25.9290  -21.7251  -14.3130 N   0  0  0  0  0  0  0  0  0  0  0  0
   23.7407  -21.0967  -13.4780 C   0  0  0  0  0  0  0  0  0  0  0  0
   23.7201  -19.9268  -13.9944 O   0  0  0  0  0  0  0  0  0  0  0  0
   18.5238  -20.5553  -13.5305 N   0  0  0  0  0  0  0  0  0  0  0  0
   19.4350  -19.5241  -13.1592 C   0  0  0  0  0  0  0  0  0  0  0  0
   19.1279  -18.3070  -13.2041 O   0  0  0  0  0  0  0  0  0  0  0  0
   20.7936  -19.9424  -12.7054 C   0  0  0  0  0  0  0  0  0  0  0  0
   21.2241  -21.0566  -13.6344 C   0  0  2  0  0  0  0  0  0  0  0  0
   22.4676  -21.6659  -13.2087 N   0  0  0  0  0  0  0  0  0  0  0  0
   21.2842  -20.5877  -15.0430 C   0  0  0  0  0  0  0  0  0  0  0  0
   22.2139  -19.8097  -15.3631 O   0  0  0  0  0  0  0  0  0  0  0  0
   20.3601  -20.9848  -15.9709 O   0  0  0  0  0  0  0  0  0  0  0  0
  1  2  1  0
  2  3  2  0
  4  5  1  0
  4  2  1  0
  5  6  1  6
  7  5  1  0
  8  7  2  0
  9 10  1  0
 10 11  1  0
 11 12  1  6
 13 11  1  0
 13 14  1  6
 14  7  1  0
 15 22  1  0
 15 13  1  0
 16 15  2  0
 18 17  1  0
 19 18  2  0
 20 18  1  0
 21 20  1  1
 21 22  1  0
 23 25  1  0
 23 21  1  0
 24 23  2  0
M  END
$$$$
