NIN.pdb
     RDKit          3D

 25 24  0  0  1  0  0  0  0  0999 V2000
   29.2580  -21.1738  -18.0041 N   0  0  0  0  0  0  0  0  0  0  0  0
   27.9643  -20.5917  -18.0492 C   0  0  0  0  0  0  0  0  0  0  0  0
   27.7728  -19.7054  -18.9290 O   0  0  0  0  0  0  0  0  0  0  0  0
   26.8851  -20.9915  -17.1204 C   0  0  0  0  0  0  0  0  0  0  0  0
   27.3903  -21.9439  -16.0547 C   0  0  2  0  0  0  0  0  0  0  0  0
   27.5197  -23.2477  -16.7146 N   0  0  0  0  0  0  0  0  0  0  0  0
   26.3507  -22.0583  -14.9989 C   0  0  0  0  0  0  0  0  0  0  0  0
   25.5042  -23.0090  -15.0762 O   0  0  0  0  0  0  0  0  0  0  0  0
   25.2556  -20.6454   -9.1560 C   0  0  0  0  0  0  0  0  0  0  0  0
   24.6643  -21.1859  -10.4598 C   0  0  0  0  0  0  0  0  0  0  0  0
   25.6678  -20.9205  -11.5351 C   0  0  2  0  0  0  0  0  0  0  0  0
   26.1632  -19.4911  -11.5554 C   0  0  0  0  0  0  0  0  0  0  0  0
   25.2297  -21.3718  -12.9074 C   0  0  2  0  0  0  0  0  0  0  0  0
   26.2442  -21.1682  -13.9055 N   0  0  0  0  0  0  0  0  0  0  0  0
   23.9464  -20.7122  -13.2783 C   0  0  0  0  0  0  0  0  0  0  0  0
   23.8934  -19.4528  -13.4939 O   0  0  0  0  0  0  0  0  0  0  0  0
   19.3650  -20.3043  -16.2329 N   0  0  0  0  0  0  0  0  0  0  0  0
   19.3613  -20.8621  -14.9212 C   0  0  0  0  0  0  0  0  0  0  0  0
   18.4140  -20.6818  -14.1165 O   0  0  0  0  0  0  0  0  0  0  0  0
   20.5415  -21.6844  -14.5242 C   0  0  0  0  0  0  0  0  0  0  0  0
   21.4767  -20.7513  -13.7862 C   0  0  2  0  0  0  0  0  0  0  0  0
   22.7153  -21.4064  -13.4180 N   0  0  0  0  0  0  0  0  0  0  0  0
   20.8027  -20.1307  -12.6165 C   0  0  0  0  0  0  0  0  0  0  0  0
   20.7415  -20.7943  -11.5545 O   0  0  0  0  0  0  0  0  0  0  0  0
   20.2619  -18.8754  -12.6835 O   0  0  0  0  0  0  0  0  0  0  0  0
  1  2  1  0
  2  3  2  0
  4  5  1  0
  4  2  1  0
  5  6  1  6
  7  5  1  0
  8  7  2  0
  9 10  1  0
 10 11  1  0
 11 12  1  6
 13 11  1  0
 13 14  1  6
 14  7  1  0
 15 22  1  0
 15 13  1  0
 16 15  2  0
 18 17  1  0
 19 18  2  0
 20 18  1  0
 21 20  1  1
 21 22  1  0
 23 25  1  0
 23 21  1  0
 24 23  2  0
M  END
$$$$
