NIN.pdb
     RDKit          3D

 25 24  0  0  1  0  0  0  0  0999 V2000
   29.2664  -17.9906  -16.5026 N   0  0  0  0  0  0  0  0  0  0  0  0
   27.8613  -18.0177  -16.7015 C   0  0  0  0  0  0  0  0  0  0  0  0
   27.3936  -17.2037  -17.5470 O   0  0  0  0  0  0  0  0  0  0  0  0
   26.9766  -18.9454  -15.9640 C   0  0  0  0  0  0  0  0  0  0  0  0
   27.7404  -19.7304  -14.9160 C   0  0  2  0  0  0  0  0  0  0  0  0
   28.6054  -20.6521  -15.6606 N   0  0  0  0  0  0  0  0  0  0  0  0
   26.7670  -20.5360  -14.1337 C   0  0  0  0  0  0  0  0  0  0  0  0
   26.5499  -21.7421  -14.4863 O   0  0  0  0  0  0  0  0  0  0  0  0
   26.4639  -20.4322   -8.7636 C   0  0  0  0  0  0  0  0  0  0  0  0
   26.5475  -20.8790  -10.2247 C   0  0  0  0  0  0  0  0  0  0  0  0
   25.1880  -20.6891  -10.8158 C   0  0  2  0  0  0  0  0  0  0  0  0
   24.1109  -21.4877  -10.1151 C   0  0  0  0  0  0  0  0  0  0  0  0
   25.1365  -20.8874  -12.3115 C   0  0  2  0  0  0  0  0  0  0  0  0
   26.0621  -20.0400  -13.0128 N   0  0  0  0  0  0  0  0  0  0  0  0
   23.7415  -20.7121  -12.8038 C   0  0  0  0  0  0  0  0  0  0  0  0
   23.1525  -19.5800  -12.7200 O   0  0  0  0  0  0  0  0  0  0  0  0
   18.8168  -23.0163  -14.0954 N   0  0  0  0  0  0  0  0  0  0  0  0
   19.2784  -22.0514  -13.1533 C   0  0  0  0  0  0  0  0  0  0  0  0
   18.5555  -21.1076  -12.7482 O   0  0  0  0  0  0  0  0  0  0  0  0
   20.6760  -22.1993  -12.6514 C   0  0  0  0  0  0  0  0  0  0  0  0
   21.5723  -21.6138  -13.7207 C   0  0  2  0  0  0  0  0  0  0  0  0
   22.9751  -21.7555  -13.3881 N   0  0  0  0  0  0  0  0  0  0  0  0
   21.2065  -20.2039  -14.0146 C   0  0  0  0  0  0  0  0  0  0  0  0
   21.2238  -19.3836  -13.0665 O   0  0  0  0  0  0  0  0  0  0  0  0
   20.8600  -19.8010  -15.2756 O   0  0  0  0  0  0  0  0  0  0  0  0
  1  2  1  0
  2  3  2  0
  4  5  1  0
  4  2  1  0
  5  6  1  6
  7  5  1  0
  8  7  2  0
  9 10  1  0
 10 11  1  0
 11 12  1  1
 13 11  1  0
 13 14  1  6
 14  7  1  0
 15 22  1  0
 15 13  1  0
 16 15  2  0
 18 17  1  0
 19 18  2  0
 20 18  1  0
 21 20  1  1
 21 22  1  0
 23 25  1  0
 23 21  1  0
 24 23  2  0
M  END
$$$$
