NIN.pdb
     RDKit          3D

 25 24  0  0  1  0  0  0  0  0999 V2000
   25.6785  -17.0868  -18.4924 N   0  0  0  0  0  0  0  0  0  0  0  0
   24.3212  -17.4200  -18.2444 C   0  0  0  0  0  0  0  0  0  0  0  0
   23.4496  -16.6723  -18.7711 O   0  0  0  0  0  0  0  0  0  0  0  0
   23.9314  -18.5798  -17.4138 C   0  0  0  0  0  0  0  0  0  0  0  0
   25.1427  -19.2870  -16.8390 C   0  0  2  0  0  0  0  0  0  0  0  0
   25.6994  -20.0817  -17.9393 N   0  0  0  0  0  0  0  0  0  0  0  0
   24.6801  -20.2203  -15.7790 C   0  0  0  0  0  0  0  0  0  0  0  0
   24.2574  -21.3733  -16.1229 O   0  0  0  0  0  0  0  0  0  0  0  0
   25.1999  -21.4628   -9.8082 C   0  0  0  0  0  0  0  0  0  0  0  0
   24.4506  -21.7633  -11.1082 C   0  0  0  0  0  0  0  0  0  0  0  0
   24.8501  -20.7125  -12.0931 C   0  0  2  0  0  0  0  0  0  0  0  0
   24.7167  -19.3042  -11.5568 C   0  0  0  0  0  0  0  0  0  0  0  0
   24.1883  -20.8538  -13.4425 C   0  0  2  0  0  0  0  0  0  0  0  0
   24.6811  -19.9026  -14.4012 N   0  0  0  0  0  0  0  0  0  0  0  0
   22.7076  -20.7788  -13.2973 C   0  0  0  0  0  0  0  0  0  0  0  0
   22.1362  -19.6898  -12.9465 O   0  0  0  0  0  0  0  0  0  0  0  0
   17.3220  -23.6976  -14.2864 N   0  0  0  0  0  0  0  0  0  0  0  0
   18.2256  -22.6819  -13.8579 C   0  0  0  0  0  0  0  0  0  0  0  0
   17.8316  -21.5908  -13.3764 O   0  0  0  0  0  0  0  0  0  0  0  0
   19.6848  -22.9594  -14.0012 C   0  0  0  0  0  0  0  0  0  0  0  0
   20.4013  -21.7971  -13.3489 C   0  0  2  0  0  0  0  0  0  0  0  0
   21.8365  -21.8764  -13.5291 N   0  0  0  0  0  0  0  0  0  0  0  0
   20.0232  -21.6687  -11.9177 C   0  0  0  0  0  0  0  0  0  0  0  0
   19.1988  -20.7766  -11.6066 O   0  0  0  0  0  0  0  0  0  0  0  0
   20.5508  -22.4916  -10.9601 O   0  0  0  0  0  0  0  0  0  0  0  0
  1  2  1  0
  2  3  2  0
  4  5  1  0
  4  2  1  0
  5  6  1  6
  7  5  1  0
  8  7  2  0
  9 10  1  0
 10 11  1  0
 11 12  1  1
 13 11  1  0
 13 14  1  6
 14  7  1  0
 15 22  1  0
 15 13  1  0
 16 15  2  0
 18 17  1  0
 19 18  2  0
 20 18  1  0
 21 20  1  1
 21 22  1  0
 23 25  1  0
 23 21  1  0
 24 23  2  0
M  END
$$$$
