NIN.pdb
     RDKit          3D

 25 24  0  0  1  0  0  0  0  0999 V2000
   26.2746  -22.9043  -18.4533 N   0  0  0  0  0  0  0  0  0  0  0  0
   24.9026  -22.6235  -18.2222 C   0  0  0  0  0  0  0  0  0  0  0  0
   24.2155  -22.2911  -19.2291 O   0  0  0  0  0  0  0  0  0  0  0  0
   24.2938  -22.7106  -16.8773 C   0  0  0  0  0  0  0  0  0  0  0  0
   25.2944  -23.1834  -15.8413 C   0  0  2  0  0  0  0  0  0  0  0  0
   25.3382  -24.6443  -15.9674 N   0  0  0  0  0  0  0  0  0  0  0  0
   24.7654  -22.8487  -14.4934 C   0  0  0  0  0  0  0  0  0  0  0  0
   23.8733  -23.6037  -13.9830 O   0  0  0  0  0  0  0  0  0  0  0  0
   27.7827  -20.8405  -10.4866 C   0  0  0  0  0  0  0  0  0  0  0  0
   26.8066  -21.6832  -11.3103 C   0  0  0  0  0  0  0  0  0  0  0  0
   25.5613  -20.8725  -11.4714 C   0  0  2  0  0  0  0  0  0  0  0  0
   24.8831  -20.5453  -10.1593 C   0  0  0  0  0  0  0  0  0  0  0  0
   24.5837  -21.4426  -12.4705 C   0  0  2  0  0  0  0  0  0  0  0  0
   25.1963  -21.7339  -13.7379 N   0  0  0  0  0  0  0  0  0  0  0  0
   23.4120  -20.5343  -12.6164 C   0  0  0  0  0  0  0  0  0  0  0  0
   23.4256  -19.5752  -13.4623 O   0  0  0  0  0  0  0  0  0  0  0  0
   18.6347  -19.0639  -12.7093 N   0  0  0  0  0  0  0  0  0  0  0  0
   19.7123  -18.2075  -13.0790 C   0  0  0  0  0  0  0  0  0  0  0  0
   19.5268  -17.0790  -13.5982 O   0  0  0  0  0  0  0  0  0  0  0  0
   21.0973  -18.7019  -12.8252 C   0  0  0  0  0  0  0  0  0  0  0  0
   20.9505  -20.1046  -12.2769 C   0  0  2  0  0  0  0  0  0  0  0  0
   22.2213  -20.6550  -11.8516 N   0  0  0  0  0  0  0  0  0  0  0  0
   20.2537  -20.9894  -13.2461 C   0  0  0  0  0  0  0  0  0  0  0  0
   19.1887  -21.5392  -12.8778 O   0  0  0  0  0  0  0  0  0  0  0  0
   20.7483  -21.2055  -14.5036 O   0  0  0  0  0  0  0  0  0  0  0  0
  1  2  1  0
  2  3  2  0
  4  5  1  0
  4  2  1  0
  5  6  1  1
  7  5  1  0
  8  7  2  0
  9 10  1  0
 10 11  1  0
 11 12  1  1
 13 11  1  0
 13 14  1  6
 14  7  1  0
 15 22  1  0
 15 13  1  0
 16 15  2  0
 18 17  1  0
 19 18  2  0
 20 18  1  0
 21 20  1  6
 21 22  1  0
 23 25  1  0
 23 21  1  0
 24 23  2  0
M  END
$$$$
