NIN.pdb
     RDKit          3D

 25 24  0  0  1  0  0  0  0  0999 V2000
   21.6972  -21.4496  -19.5054 N   0  0  0  0  0  0  0  0  0  0  0  0
   21.4256  -20.6215  -18.3851 C   0  0  0  0  0  0  0  0  0  0  0  0
   21.4366  -19.3744  -18.5872 O   0  0  0  0  0  0  0  0  0  0  0  0
   21.1427  -21.1752  -17.0433 C   0  0  0  0  0  0  0  0  0  0  0  0
   22.0714  -20.5971  -15.9938 C   0  0  2  0  0  0  0  0  0  0  0  0
   23.3958  -21.1591  -16.2808 N   0  0  0  0  0  0  0  0  0  0  0  0
   21.6358  -21.0903  -14.6613 C   0  0  0  0  0  0  0  0  0  0  0  0
   22.2752  -22.0570  -14.1294 O   0  0  0  0  0  0  0  0  0  0  0  0
   20.7057  -17.5455  -11.5356 C   0  0  0  0  0  0  0  0  0  0  0  0
   21.2471  -18.9767  -11.5239 C   0  0  0  0  0  0  0  0  0  0  0  0
   20.0676  -19.8884  -11.6302 C   0  0  2  0  0  0  0  0  0  0  0  0
   19.5798  -20.3988  -10.2921 C   0  0  0  0  0  0  0  0  0  0  0  0
   20.2514  -21.0161  -12.6168 C   0  0  2  0  0  0  0  0  0  0  0  0
   20.5459  -20.5466  -13.9432 N   0  0  0  0  0  0  0  0  0  0  0  0
   19.0620  -21.9130  -12.5972 C   0  0  0  0  0  0  0  0  0  0  0  0
   17.9449  -21.5336  -13.0907 O   0  0  0  0  0  0  0  0  0  0  0  0
   15.8333  -25.5788  -12.3112 N   0  0  0  0  0  0  0  0  0  0  0  0
   17.0082  -26.3008  -11.9510 C   0  0  0  0  0  0  0  0  0  0  0  0
   17.0215  -27.5519  -11.8412 O   0  0  0  0  0  0  0  0  0  0  0  0
   18.2487  -25.5092  -11.7032 C   0  0  0  0  0  0  0  0  0  0  0  0
   17.8962  -24.0682  -12.0017 C   0  0  2  0  0  0  0  0  0  0  0  0
   19.0710  -23.2218  -12.0456 N   0  0  0  0  0  0  0  0  0  0  0  0
   16.8741  -23.5580  -11.0515 C   0  0  0  0  0  0  0  0  0  0  0  0
   17.2451  -23.2725   -9.8884 O   0  0  0  0  0  0  0  0  0  0  0  0
   15.5662  -23.4004  -11.4219 O   0  0  0  0  0  0  0  0  0  0  0  0
  1  2  1  0
  2  3  2  0
  4  5  1  0
  4  2  1  0
  5  6  1  6
  7  5  1  0
  8  7  2  0
  9 10  1  0
 10 11  1  0
 11 12  1  1
 13 11  1  0
 13 14  1  6
 14  7  1  0
 15 22  1  0
 15 13  1  0
 16 15  2  0
 18 17  1  0
 19 18  2  0
 20 18  1  0
 21 20  1  1
 21 22  1  0
 23 25  1  0
 23 21  1  0
 24 23  2  0
M  END
$$$$
