NIN.pdb
     RDKit          3D

 25 24  0  0  1  0  0  0  0  0999 V2000
   19.3160  -14.8222  -15.8387 N   0  0  0  0  0  0  0  0  0  0  0  0
   19.2036  -16.0079  -15.0668 C   0  0  0  0  0  0  0  0  0  0  0  0
   18.2352  -16.0667  -14.2575 O   0  0  0  0  0  0  0  0  0  0  0  0
   20.1635  -17.1261  -15.1917 C   0  0  0  0  0  0  0  0  0  0  0  0
   21.2312  -16.8321  -16.2267 C   0  0  2  0  0  0  0  0  0  0  0  0
   20.6065  -17.0921  -17.5284 N   0  0  0  0  0  0  0  0  0  0  0  0
   22.3415  -17.8024  -16.0417 C   0  0  0  0  0  0  0  0  0  0  0  0
   22.2050  -18.9821  -16.5064 O   0  0  0  0  0  0  0  0  0  0  0  0
   27.6568  -16.5589  -16.4608 C   0  0  0  0  0  0  0  0  0  0  0  0
   26.2721  -17.1922  -16.6120 C   0  0  0  0  0  0  0  0  0  0  0  0
   25.9690  -17.8872  -15.3240 C   0  0  2  0  0  0  0  0  0  0  0  0
   27.0236  -18.8946  -14.9218 C   0  0  0  0  0  0  0  0  0  0  0  0
   24.5838  -18.4840  -15.2606 C   0  0  2  0  0  0  0  0  0  0  0  0
   23.5496  -17.4921  -15.3757 N   0  0  0  0  0  0  0  0  0  0  0  0
   24.4339  -19.3007  -14.0237 C   0  0  0  0  0  0  0  0  0  0  0  0
   24.3378  -18.7439  -12.8764 O   0  0  0  0  0  0  0  0  0  0  0  0
   25.3431  -24.0996  -12.9828 N   0  0  0  0  0  0  0  0  0  0  0  0
   24.1315  -23.7501  -13.6471 C   0  0  0  0  0  0  0  0  0  0  0  0
   23.7641  -24.3055  -14.7120 O   0  0  0  0  0  0  0  0  0  0  0  0
   23.2943  -22.6821  -13.0264 C   0  0  0  0  0  0  0  0  0  0  0  0
   24.2128  -21.4993  -12.8088 C   0  0  2  0  0  0  0  0  0  0  0  0
   24.3873  -20.7202  -14.0176 N   0  0  0  0  0  0  0  0  0  0  0  0
   25.5111  -21.9280  -12.2270 C   0  0  0  0  0  0  0  0  0  0  0  0
   26.5195  -21.9184  -12.9721 O   0  0  0  0  0  0  0  0  0  0  0  0
   25.6160  -22.3232  -10.9211 O   0  0  0  0  0  0  0  0  0  0  0  0
  1  2  1  0
  2  3  2  0
  4  5  1  0
  4  2  1  0
  5  6  1  6
  7  5  1  0
  8  7  2  0
  9 10  1  0
 10 11  1  0
 11 12  1  6
 13 11  1  0
 13 14  1  1
 14  7  1  0
 15 22  1  0
 15 13  1  0
 16 15  2  0
 18 17  1  0
 19 18  2  0
 20 18  1  0
 21 20  1  6
 21 22  1  0
 23 25  1  0
 23 21  1  0
 24 23  2  0
M  END
$$$$
