NIN.pdb
     RDKit          3D

 25 24  0  0  1  0  0  0  0  0999 V2000
   16.6657  -11.6704  -20.5671 N   0  0  0  0  0  0  0  0  0  0  0  0
   17.9039  -11.2573  -20.0098 C   0  0  0  0  0  0  0  0  0  0  0  0
   18.9369  -11.4703  -20.7054 O   0  0  0  0  0  0  0  0  0  0  0  0
   17.9965  -10.6097  -18.6834 C   0  0  0  0  0  0  0  0  0  0  0  0
   18.9952  -11.3144  -17.7868 C   0  0  2  0  0  0  0  0  0  0  0  0
   18.2893  -12.4797  -17.2429 N   0  0  0  0  0  0  0  0  0  0  0  0
   19.3327  -10.4072  -16.6591 C   0  0  0  0  0  0  0  0  0  0  0  0
   18.4858  -10.2639  -15.7165 O   0  0  0  0  0  0  0  0  0  0  0  0
   24.0640  -10.4710  -14.2732 C   0  0  0  0  0  0  0  0  0  0  0  0
   22.5868  -10.4637  -14.6722 C   0  0  0  0  0  0  0  0  0  0  0  0
   22.1996   -9.0352  -14.8798 C   0  0  2  0  0  0  0  0  0  0  0  0
   22.4333   -8.1662  -13.6636 C   0  0  0  0  0  0  0  0  0  0  0  0
   20.8056   -8.8514  -15.4292 C   0  0  2  0  0  0  0  0  0  0  0  0
   20.5468   -9.6881  -16.5693 N   0  0  0  0  0  0  0  0  0  0  0  0
   20.5585   -7.4133  -15.7291 C   0  0  0  0  0  0  0  0  0  0  0  0
   21.3179   -6.7697  -16.5320 O   0  0  0  0  0  0  0  0  0  0  0  0
   19.3820   -3.1778  -18.2836 N   0  0  0  0  0  0  0  0  0  0  0  0
   18.4805   -3.9451  -17.4898 C   0  0  0  0  0  0  0  0  0  0  0  0
   17.3812   -3.4884  -17.0892 O   0  0  0  0  0  0  0  0  0  0  0  0
   18.8902   -5.3371  -17.1416 C   0  0  0  0  0  0  0  0  0  0  0  0
   19.1116   -5.3498  -15.6447 C   0  0  2  0  0  0  0  0  0  0  0  0
   19.4928   -6.6625  -15.1653 N   0  0  0  0  0  0  0  0  0  0  0  0
   17.9294   -4.8119  -14.9230 C   0  0  0  0  0  0  0  0  0  0  0  0
   16.9547   -5.5790  -14.7401 O   0  0  0  0  0  0  0  0  0  0  0  0
   17.8934   -3.5220  -14.4673 O   0  0  0  0  0  0  0  0  0  0  0  0
  1  2  1  0
  2  3  2  0
  4  5  1  0
  4  2  1  0
  5  6  1  1
  7  5  1  0
  8  7  2  0
  9 10  1  0
 10 11  1  0
 11 12  1  1
 13 11  1  0
 13 14  1  6
 14  7  1  0
 15 22  1  0
 15 13  1  0
 16 15  2  0
 18 17  1  0
 19 18  2  0
 20 18  1  0
 21 20  1  6
 21 22  1  0
 23 25  1  0
 23 21  1  0
 24 23  2  0
M  END
$$$$
