NGA.pdb
     RDKit          3D

 18 17  0  0  1  0  0  0  0  0999 V2000
    8.0637  -17.7177   17.0493 N   0  0  0  0  0  0  0  0  0  0  0  0
    8.6460  -17.5848   18.3433 C   0  0  0  0  0  0  0  0  0  0  0  0
    9.8272  -17.9895   18.4761 O   0  0  0  0  0  0  0  0  0  0  0  0
    7.9271  -17.0030   19.5024 C   0  0  0  0  0  0  0  0  0  0  0  0
    8.5380  -17.5103   20.7644 C   0  0  2  0  0  0  0  0  0  0  0  0
    8.3363  -18.9466   20.8168 N   0  0  0  0  0  0  0  0  0  0  0  0
    7.9745  -16.8975   21.9815 C   0  0  0  0  0  0  0  0  0  0  0  0
    8.2369  -15.7089   22.3122 O   0  0  0  0  0  0  0  0  0  0  0  0
    7.1036  -17.6046   22.8555 N   0  0  0  0  0  0  0  0  0  0  0  0
    6.5504  -17.0255   24.0342 C   0  0  0  0  0  0  0  0  0  0  0  0
    7.4470  -16.9836   25.1800 C   0  0  0  0  0  0  0  0  0  0  0  0
    7.0304  -16.5663   26.2832 O   0  0  0  0  0  0  0  0  0  0  0  0
    9.5470  -15.6962   26.6702 C   0  0  0  0  0  0  0  0  0  0  0  0
    9.7709  -17.1183   26.1377 C   0  0  2  0  0  0  0  0  0  0  0  0
    8.7941  -17.4043   25.0907 N   0  0  0  0  0  0  0  0  0  0  0  0
    9.5793  -18.0306   27.2643 C   0  0  0  0  0  0  0  0  0  0  0  0
    8.6227  -18.8323   27.2779 O   0  0  0  0  0  0  0  0  0  0  0  0
   10.4569  -18.0140   28.3267 O   0  0  0  0  0  0  0  0  0  0  0  0
  2  1  1  0
  3  2  2  0
  4  2  1  0
  5  4  1  0
  5  6  1  1
  7  5  1  0
  7  8  2  0
  9  7  1  0
 10  9  1  0
 11 10  1  0
 12 11  2  0
 14 13  1  1
 14 15  1  0
 14 16  1  0
 15 11  1  0
 16 18  1  0
 17 16  2  0
M  END
$$$$
