NGA.pdb
     RDKit          3D

 18 17  0  0  1  0  0  0  0  0999 V2000
    8.1407  -12.4381   17.7077 N   0  0  0  0  0  0  0  0  0  0  0  0
    7.8637  -13.7706   18.1309 C   0  0  0  0  0  0  0  0  0  0  0  0
    8.0814  -14.6850   17.2984 O   0  0  0  0  0  0  0  0  0  0  0  0
    7.3434  -14.1039   19.4789 C   0  0  0  0  0  0  0  0  0  0  0  0
    8.4773  -14.1484   20.4461 C   0  0  2  0  0  0  0  0  0  0  0  0
    9.4068  -15.1714   20.0035 N   0  0  0  0  0  0  0  0  0  0  0  0
    8.0616  -14.4382   21.8309 C   0  0  0  0  0  0  0  0  0  0  0  0
    7.3008  -13.6647   22.4743 O   0  0  0  0  0  0  0  0  0  0  0  0
    8.4902  -15.6028   22.5254 N   0  0  0  0  0  0  0  0  0  0  0  0
    8.1414  -15.8693   23.8811 C   0  0  0  0  0  0  0  0  0  0  0  0
    9.0529  -15.3170   24.8725 C   0  0  0  0  0  0  0  0  0  0  0  0
   10.2883  -15.3782   24.6865 O   0  0  0  0  0  0  0  0  0  0  0  0
    8.7134  -13.0978   27.8974 C   0  0  0  0  0  0  0  0  0  0  0  0
    9.4904  -14.0988   27.0312 C   0  0  2  0  0  0  0  0  0  0  0  0
    8.5856  -14.7035   26.0577 N   0  0  0  0  0  0  0  0  0  0  0  0
   10.0154  -15.1244   27.9318 C   0  0  0  0  0  0  0  0  0  0  0  0
    9.5548  -16.2843   27.9120 O   0  0  0  0  0  0  0  0  0  0  0  0
   11.0283  -14.8189   28.8148 O   0  0  0  0  0  0  0  0  0  0  0  0
  2  1  1  0
  3  2  2  0
  4  2  1  0
  5  4  1  0
  5  6  1  6
  7  5  1  0
  7  8  2  0
  9  7  1  0
 10  9  1  0
 11 10  1  0
 12 11  2  0
 14 13  1  1
 14 15  1  0
 14 16  1  0
 15 11  1  0
 16 18  1  0
 17 16  2  0
M  END
$$$$
