NGA.pdb
     RDKit          3D

 18 17  0  0  1  0  0  0  0  0999 V2000
    6.8420  -12.7733   18.1111 N   0  0  0  0  0  0  0  0  0  0  0  0
    7.8857  -13.5858   18.6418 C   0  0  0  0  0  0  0  0  0  0  0  0
    8.4782  -14.3436   17.8348 O   0  0  0  0  0  0  0  0  0  0  0  0
    8.2838  -13.5675   20.0701 C   0  0  0  0  0  0  0  0  0  0  0  0
    8.5629  -14.9613   20.5202 C   0  0  2  0  0  0  0  0  0  0  0  0
    7.2960  -15.6602   20.6332 N   0  0  0  0  0  0  0  0  0  0  0  0
    9.2731  -15.0344   21.8105 C   0  0  0  0  0  0  0  0  0  0  0  0
   10.3790  -14.4572   21.9964 O   0  0  0  0  0  0  0  0  0  0  0  0
    8.7582  -15.7571   22.9218 N   0  0  0  0  0  0  0  0  0  0  0  0
    8.3199  -15.1254   24.1216 C   0  0  0  0  0  0  0  0  0  0  0  0
    9.2663  -15.1757   25.2263 C   0  0  0  0  0  0  0  0  0  0  0  0
   10.3821  -15.7182   25.0676 O   0  0  0  0  0  0  0  0  0  0  0  0
    9.4373  -13.5667   28.6470 C   0  0  0  0  0  0  0  0  0  0  0  0
    9.9725  -14.4885   27.5425 C   0  0  2  0  0  0  0  0  0  0  0  0
    8.9660  -14.6246   26.4934 N   0  0  0  0  0  0  0  0  0  0  0  0
   10.2313  -15.7885   28.1602 C   0  0  0  0  0  0  0  0  0  0  0  0
    9.4998  -16.7684   27.9098 O   0  0  0  0  0  0  0  0  0  0  0  0
   11.2900  -15.9449   29.0284 O   0  0  0  0  0  0  0  0  0  0  0  0
  2  1  1  0
  3  2  2  0
  4  2  1  0
  5  4  1  0
  5  6  1  1
  7  5  1  0
  7  8  2  0
  9  7  1  0
 10  9  1  0
 11 10  1  0
 12 11  2  0
 14 13  1  1
 14 15  1  0
 14 16  1  0
 15 11  1  0
 16 18  1  0
 17 16  2  0
M  END
$$$$
