NGA.pdb
     RDKit          3D

 18 17  0  0  1  0  0  0  0  0999 V2000
   12.5777  -21.1327   25.0378 N   0  0  0  0  0  0  0  0  0  0  0  0
   13.3540  -21.8868   24.1106 C   0  0  0  0  0  0  0  0  0  0  0  0
   14.0625  -21.2349   23.3045 O   0  0  0  0  0  0  0  0  0  0  0  0
   13.3539  -23.3690   24.0663 C   0  0  0  0  0  0  0  0  0  0  0  0
   12.4861  -23.8931   25.1596 C   0  0  2  0  0  0  0  0  0  0  0  0
   11.3478  -23.0033   25.2969 N   0  0  0  0  0  0  0  0  0  0  0  0
   13.1744  -24.0027   26.4591 C   0  0  0  0  0  0  0  0  0  0  0  0
   13.4303  -25.1199   26.9858 O   0  0  0  0  0  0  0  0  0  0  0  0
   13.5914  -22.8610   27.1974 N   0  0  0  0  0  0  0  0  0  0  0  0
   14.3267  -22.9510   28.4147 C   0  0  0  0  0  0  0  0  0  0  0  0
   13.5199  -22.9243   29.6259 C   0  0  0  0  0  0  0  0  0  0  0  0
   12.2745  -23.0114   29.5479 O   0  0  0  0  0  0  0  0  0  0  0  0
   14.2247  -22.6279   33.3448 C   0  0  0  0  0  0  0  0  0  0  0  0
   13.2980  -22.7433   32.1266 C   0  0  2  0  0  0  0  0  0  0  0  0
   14.1017  -22.8016   30.9088 N   0  0  0  0  0  0  0  0  0  0  0  0
   12.4575  -21.5467   32.1154 C   0  0  0  0  0  0  0  0  0  0  0  0
   12.7109  -20.5988   31.3439 O   0  0  0  0  0  0  0  0  0  0  0  0
   11.3727  -21.4537   32.9601 O   0  0  0  0  0  0  0  0  0  0  0  0
  2  1  1  0
  3  2  2  0
  4  2  1  0
  5  4  1  0
  5  6  1  1
  7  5  1  0
  7  8  2  0
  9  7  1  0
 10  9  1  0
 11 10  1  0
 12 11  2  0
 14 13  1  1
 14 15  1  0
 14 16  1  0
 15 11  1  0
 16 18  1  0
 17 16  2  0
M  END
$$$$
