NGA.pdb
     RDKit          3D

 18 17  0  0  1  0  0  0  0  0999 V2000
    8.8476  -20.2280   19.2924 N   0  0  0  0  0  0  0  0  0  0  0  0
    9.6329  -19.4336   20.1775 C   0  0  0  0  0  0  0  0  0  0  0  0
   10.8790  -19.4921   20.0348 O   0  0  0  0  0  0  0  0  0  0  0  0
    9.0471  -18.5672   21.2287 C   0  0  0  0  0  0  0  0  0  0  0  0
    8.8960  -17.1826   20.6964 C   0  0  2  0  0  0  0  0  0  0  0  0
   10.1999  -16.5457   20.7216 N   0  0  0  0  0  0  0  0  0  0  0  0
    7.9395  -16.3580   21.4578 C   0  0  0  0  0  0  0  0  0  0  0  0
    7.0440  -15.6775   20.8869 O   0  0  0  0  0  0  0  0  0  0  0  0
    7.9661  -16.2783   22.8774 N   0  0  0  0  0  0  0  0  0  0  0  0
    6.9862  -15.5712   23.6327 C   0  0  0  0  0  0  0  0  0  0  0  0
    7.5081  -14.5050   24.4751 C   0  0  0  0  0  0  0  0  0  0  0  0
    8.7438  -14.3550   24.5976 O   0  0  0  0  0  0  0  0  0  0  0  0
    6.0013  -11.7381   26.5924 C   0  0  0  0  0  0  0  0  0  0  0  0
    7.1693  -12.5821   26.0636 C   0  0  2  0  0  0  0  0  0  0  0  0
    6.6554  -13.6178   25.1717 N   0  0  0  0  0  0  0  0  0  0  0  0
    7.8125  -13.1952   27.2251 C   0  0  0  0  0  0  0  0  0  0  0  0
    7.6305  -14.4014   27.4898 O   0  0  0  0  0  0  0  0  0  0  0  0
    8.6293  -12.4439   28.0420 O   0  0  0  0  0  0  0  0  0  0  0  0
  2  1  1  0
  3  2  2  0
  4  2  1  0
  5  4  1  0
  5  6  1  1
  7  5  1  0
  7  8  2  0
  9  7  1  0
 10  9  1  0
 11 10  1  0
 12 11  2  0
 14 13  1  1
 14 15  1  0
 14 16  1  0
 15 11  1  0
 16 18  1  0
 17 16  2  0
M  END
$$$$
