NGA.pdb
     RDKit          3D

 18 17  0  0  1  0  0  0  0  0999 V2000
    4.4618  -19.9311   21.6387 N   0  0  0  0  0  0  0  0  0  0  0  0
    3.7733  -18.6832   21.6351 C   0  0  0  0  0  0  0  0  0  0  0  0
    2.5826  -18.6955   21.2367 O   0  0  0  0  0  0  0  0  0  0  0  0
    4.3955  -17.4101   22.0720 C   0  0  0  0  0  0  0  0  0  0  0  0
    5.8159  -17.6616   22.4497 C   0  0  2  0  0  0  0  0  0  0  0  0
    5.8255  -18.4112   23.6924 N   0  0  0  0  0  0  0  0  0  0  0  0
    6.6087  -16.4301   22.6208 C   0  0  0  0  0  0  0  0  0  0  0  0
    7.0966  -15.8093   21.6371 O   0  0  0  0  0  0  0  0  0  0  0  0
    6.8722  -15.8671   23.8999 N   0  0  0  0  0  0  0  0  0  0  0  0
    7.7241  -14.7409   24.0905 C   0  0  0  0  0  0  0  0  0  0  0  0
    8.8044  -14.9394   25.0457 C   0  0  0  0  0  0  0  0  0  0  0  0
    9.9134  -15.3648   24.6536 O   0  0  0  0  0  0  0  0  0  0  0  0
    9.4292  -13.5228   28.4380 C   0  0  0  0  0  0  0  0  0  0  0  0
    9.7814  -14.5223   27.3276 C   0  0  2  0  0  0  0  0  0  0  0  0
    8.6437  -14.6645   26.4234 N   0  0  0  0  0  0  0  0  0  0  0  0
   10.0666  -15.8003   27.9788 C   0  0  0  0  0  0  0  0  0  0  0  0
    9.3282  -16.7888   27.7903 O   0  0  0  0  0  0  0  0  0  0  0  0
   11.1582  -15.9260   28.8104 O   0  0  0  0  0  0  0  0  0  0  0  0
  2  1  1  0
  3  2  2  0
  4  2  1  0
  5  4  1  0
  5  6  1  1
  7  5  1  0
  7  8  2  0
  9  7  1  0
 10  9  1  0
 11 10  1  0
 12 11  2  0
 14 13  1  1
 14 15  1  0
 14 16  1  0
 15 11  1  0
 16 18  1  0
 17 16  2  0
M  END
$$$$
