NGA.pdb
     RDKit          3D

 18 17  0  0  1  0  0  0  0  0999 V2000
   10.3918  -17.9564   18.4109 N   0  0  0  0  0  0  0  0  0  0  0  0
    9.0707  -17.5787   18.0324 C   0  0  0  0  0  0  0  0  0  0  0  0
    8.6698  -17.9725   16.9096 O   0  0  0  0  0  0  0  0  0  0  0  0
    8.1808  -16.7618   18.8925 C   0  0  0  0  0  0  0  0  0  0  0  0
    8.8890  -16.4371   20.1638 C   0  0  2  0  0  0  0  0  0  0  0  0
    8.7486  -17.5703   21.0596 N   0  0  0  0  0  0  0  0  0  0  0  0
    8.3783  -15.2256   20.8317 C   0  0  0  0  0  0  0  0  0  0  0  0
    8.6559  -14.0677   20.4157 O   0  0  0  0  0  0  0  0  0  0  0  0
    7.5442  -15.2860   21.9820 N   0  0  0  0  0  0  0  0  0  0  0  0
    6.9984  -14.1267   22.6055 C   0  0  0  0  0  0  0  0  0  0  0  0
    7.5628  -13.8033   23.9077 C   0  0  0  0  0  0  0  0  0  0  0  0
    8.5344  -14.4576   24.3464 O   0  0  0  0  0  0  0  0  0  0  0  0
    6.7698  -11.3184   26.6648 C   0  0  0  0  0  0  0  0  0  0  0  0
    7.6212  -12.4114   26.0040 C   0  0  2  0  0  0  0  0  0  0  0  0
    7.0446  -12.7594   24.7084 N   0  0  0  0  0  0  0  0  0  0  0  0
    7.5912  -13.5716   26.8937 C   0  0  0  0  0  0  0  0  0  0  0  0
    6.7477  -14.4769   26.7299 O   0  0  0  0  0  0  0  0  0  0  0  0
    8.4979  -13.6771   27.9260 O   0  0  0  0  0  0  0  0  0  0  0  0
  2  1  1  0
  3  2  2  0
  4  2  1  0
  5  4  1  0
  5  6  1  1
  7  5  1  0
  7  8  2  0
  9  7  1  0
 10  9  1  0
 11 10  1  0
 12 11  2  0
 14 13  1  1
 14 15  1  0
 14 16  1  0
 15 11  1  0
 16 18  1  0
 17 16  2  0
M  END
$$$$
