NGA.pdb
     RDKit          3D

 18 17  0  0  1  0  0  0  0  0999 V2000
    6.4585  -12.7247   19.0575 N   0  0  0  0  0  0  0  0  0  0  0  0
    7.6245  -13.5425   19.1105 C   0  0  0  0  0  0  0  0  0  0  0  0
    7.9292  -14.1614   18.0613 O   0  0  0  0  0  0  0  0  0  0  0  0
    8.4643  -13.6834   20.3245 C   0  0  0  0  0  0  0  0  0  0  0  0
    8.6036  -15.1294   20.6604 C   0  0  2  0  0  0  0  0  0  0  0  0
    7.3393  -15.5892   21.2048 N   0  0  0  0  0  0  0  0  0  0  0  0
    9.6789  -15.4098   21.6298 C   0  0  0  0  0  0  0  0  0  0  0  0
   10.8753  -15.5788   21.2679 O   0  0  0  0  0  0  0  0  0  0  0  0
    9.4360  -15.5069   23.0277 N   0  0  0  0  0  0  0  0  0  0  0  0
   10.4710  -15.7346   23.9803 C   0  0  0  0  0  0  0  0  0  0  0  0
   10.5572  -17.0977   24.4834 C   0  0  0  0  0  0  0  0  0  0  0  0
    9.5408  -17.8268   24.4871 O   0  0  0  0  0  0  0  0  0  0  0  0
   13.3494  -19.4454   25.4328 C   0  0  0  0  0  0  0  0  0  0  0  0
   11.8749  -19.0189   25.4366 C   0  0  2  0  0  0  0  0  0  0  0  0
   11.7678  -17.6373   24.9763 N   0  0  0  0  0  0  0  0  0  0  0  0
   11.4038  -19.1250   26.8169 C   0  0  0  0  0  0  0  0  0  0  0  0
   11.1459  -18.1003   27.4814 O   0  0  0  0  0  0  0  0  0  0  0  0
   11.2394  -20.3627   27.4000 O   0  0  0  0  0  0  0  0  0  0  0  0
  2  1  1  0
  3  2  2  0
  4  2  1  0
  5  4  1  0
  5  6  1  1
  7  5  1  0
  7  8  2  0
  9  7  1  0
 10  9  1  0
 11 10  1  0
 12 11  2  0
 14 13  1  1
 14 15  1  0
 14 16  1  0
 15 11  1  0
 16 18  1  0
 17 16  2  0
M  END
$$$$
