NGA.pdb
     RDKit          3D

 18 17  0  0  1  0  0  0  0  0999 V2000
    6.7139  -13.3984   18.7091 N   0  0  0  0  0  0  0  0  0  0  0  0
    7.6748  -14.3885   19.0665 C   0  0  0  0  0  0  0  0  0  0  0  0
    7.5419  -15.5211   18.5409 O   0  0  0  0  0  0  0  0  0  0  0  0
    8.7915  -14.1350   20.0085 C   0  0  0  0  0  0  0  0  0  0  0  0
    8.7499  -15.1463   21.1034 C   0  0  2  0  0  0  0  0  0  0  0  0
    7.3737  -15.5775   21.2662 N   0  0  0  0  0  0  0  0  0  0  0  0
    9.2550  -14.6415   22.3935 C   0  0  0  0  0  0  0  0  0  0  0  0
   10.4290  -14.1987   22.5226 O   0  0  0  0  0  0  0  0  0  0  0  0
    8.4541  -14.6219   23.5685 N   0  0  0  0  0  0  0  0  0  0  0  0
    8.8758  -14.0095   24.7841 C   0  0  0  0  0  0  0  0  0  0  0  0
    9.6792  -14.8554   25.6545 C   0  0  0  0  0  0  0  0  0  0  0  0
   10.6843  -15.4437   25.1982 O   0  0  0  0  0  0  0  0  0  0  0  0
   10.1713  -14.2180   29.1751 C   0  0  0  0  0  0  0  0  0  0  0  0
   10.3860  -15.2300   28.0411 C   0  0  2  0  0  0  0  0  0  0  0  0
    9.3600  -15.0398   27.0196 N   0  0  0  0  0  0  0  0  0  0  0  0
   10.2651  -16.5629   28.6304 C   0  0  0  0  0  0  0  0  0  0  0  0
    9.2764  -17.2821   28.3790 O   0  0  0  0  0  0  0  0  0  0  0  0
   11.2459  -17.0399   29.4727 O   0  0  0  0  0  0  0  0  0  0  0  0
  2  1  1  0
  3  2  2  0
  4  2  1  0
  5  4  1  0
  5  6  1  1
  7  5  1  0
  7  8  2  0
  9  7  1  0
 10  9  1  0
 11 10  1  0
 12 11  2  0
 14 13  1  1
 14 15  1  0
 14 16  1  0
 15 11  1  0
 16 18  1  0
 17 16  2  0
M  END
$$$$
