NGA.pdb
     RDKit          3D

 18 17  0  0  1  0  0  0  0  0999 V2000
    7.1200  -12.5293   18.6484 N   0  0  0  0  0  0  0  0  0  0  0  0
    7.4725  -13.7987   19.1923 C   0  0  0  0  0  0  0  0  0  0  0  0
    8.1197  -14.5736   18.4458 O   0  0  0  0  0  0  0  0  0  0  0  0
    7.1123  -14.2225   20.5669 C   0  0  0  0  0  0  0  0  0  0  0  0
    8.3283  -14.1799   21.4286 C   0  0  2  0  0  0  0  0  0  0  0  0
    9.4023  -14.8576   20.7260 N   0  0  0  0  0  0  0  0  0  0  0  0
    8.1396  -14.8103   22.7483 C   0  0  0  0  0  0  0  0  0  0  0  0
    7.2742  -14.3963   23.5672 O   0  0  0  0  0  0  0  0  0  0  0  0
    8.9179  -15.9198   23.1792 N   0  0  0  0  0  0  0  0  0  0  0  0
    8.7565  -16.5306   24.4564 C   0  0  0  0  0  0  0  0  0  0  0  0
    9.5781  -15.9674   25.5177 C   0  0  0  0  0  0  0  0  0  0  0  0
   10.6672  -16.5056   25.8157 O   0  0  0  0  0  0  0  0  0  0  0  0
    9.2007  -13.1464   28.0237 C   0  0  0  0  0  0  0  0  0  0  0  0
    9.9904  -14.2580   27.3187 C   0  0  2  0  0  0  0  0  0  0  0  0
    9.1841  -14.8151   26.2363 N   0  0  0  0  0  0  0  0  0  0  0  0
   10.2644  -15.2876   28.3204 C   0  0  0  0  0  0  0  0  0  0  0  0
    9.5509  -16.3091   28.3939 O   0  0  0  0  0  0  0  0  0  0  0  0
   11.3176  -15.1393   29.1967 O   0  0  0  0  0  0  0  0  0  0  0  0
  2  1  1  0
  3  2  2  0
  4  2  1  0
  5  4  1  0
  5  6  1  6
  7  5  1  0
  7  8  2  0
  9  7  1  0
 10  9  1  0
 11 10  1  0
 12 11  2  0
 14 13  1  1
 14 15  1  0
 14 16  1  0
 15 11  1  0
 16 18  1  0
 17 16  2  0
M  END
$$$$
