NGA.pdb
     RDKit          3D

 18 17  0  0  1  0  0  0  0  0999 V2000
    8.5434  -17.3784   14.7138 N   0  0  0  0  0  0  0  0  0  0  0  0
    9.4166  -17.6236   15.8132 C   0  0  0  0  0  0  0  0  0  0  0  0
   10.4654  -18.2694   15.5691 O   0  0  0  0  0  0  0  0  0  0  0  0
    9.1377  -17.1566   17.1927 C   0  0  0  0  0  0  0  0  0  0  0  0
   10.3647  -17.3197   18.0240 C   0  0  2  0  0  0  0  0  0  0  0  0
   10.3809  -18.6755   18.5417 N   0  0  0  0  0  0  0  0  0  0  0  0
   10.4462  -16.3706   19.1496 C   0  0  0  0  0  0  0  0  0  0  0  0
   10.4039  -15.1223   18.9734 O   0  0  0  0  0  0  0  0  0  0  0  0
   10.5771  -16.8006   20.4988 N   0  0  0  0  0  0  0  0  0  0  0  0
   10.5909  -15.8987   21.6020 C   0  0  0  0  0  0  0  0  0  0  0  0
   10.6729  -16.5280   22.9120 C   0  0  0  0  0  0  0  0  0  0  0  0
   10.7527  -17.7730   23.0021 O   0  0  0  0  0  0  0  0  0  0  0  0
   10.7504  -15.3042   26.5052 C   0  0  0  0  0  0  0  0  0  0  0  0
   10.8343  -16.3864   25.4199 C   0  0  2  0  0  0  0  0  0  0  0  0
   10.6657  -15.7712   24.1064 N   0  0  0  0  0  0  0  0  0  0  0  0
    9.7470  -17.3307   25.6741 C   0  0  0  0  0  0  0  0  0  0  0  0
    9.8439  -18.1828   26.5810 O   0  0  0  0  0  0  0  0  0  0  0  0
    8.6000  -17.2886   24.9116 O   0  0  0  0  0  0  0  0  0  0  0  0
  2  1  1  0
  3  2  2  0
  4  2  1  0
  5  4  1  0
  5  6  1  1
  7  5  1  0
  7  8  2  0
  9  7  1  0
 10  9  1  0
 11 10  1  0
 12 11  2  0
 14 13  1  1
 14 15  1  0
 14 16  1  0
 15 11  1  0
 16 18  1  0
 17 16  2  0
M  END
$$$$
