NGA.pdb
     RDKit          3D

 18 17  0  0  1  0  0  0  0  0999 V2000
    7.3714  -13.2489   17.2779 N   0  0  0  0  0  0  0  0  0  0  0  0
    8.1541  -13.5314   18.4350 C   0  0  0  0  0  0  0  0  0  0  0  0
    9.3803  -13.7316   18.2532 O   0  0  0  0  0  0  0  0  0  0  0  0
    7.5877  -13.5951   19.8039 C   0  0  0  0  0  0  0  0  0  0  0  0
    7.9270  -14.9120   20.4153 C   0  0  2  0  0  0  0  0  0  0  0  0
    7.2653  -15.9496   19.6460 N   0  0  0  0  0  0  0  0  0  0  0  0
    7.5261  -15.0276   21.8297 C   0  0  0  0  0  0  0  0  0  0  0  0
    6.3187  -15.1534   22.1722 O   0  0  0  0  0  0  0  0  0  0  0  0
    8.4712  -15.0048   22.8921 N   0  0  0  0  0  0  0  0  0  0  0  0
    8.1028  -15.1535   24.2606 C   0  0  0  0  0  0  0  0  0  0  0  0
    9.1816  -14.9466   25.2157 C   0  0  0  0  0  0  0  0  0  0  0  0
   10.3718  -15.0312   24.8403 O   0  0  0  0  0  0  0  0  0  0  0  0
    9.4657  -13.3797   28.5951 C   0  0  0  0  0  0  0  0  0  0  0  0
   10.0009  -14.3288   27.5141 C   0  0  2  0  0  0  0  0  0  0  0  0
    8.9297  -14.6485   26.5748 N   0  0  0  0  0  0  0  0  0  0  0  0
   10.4483  -15.5427   28.1958 C   0  0  0  0  0  0  0  0  0  0  0  0
    9.7744  -16.5916   28.1346 O   0  0  0  0  0  0  0  0  0  0  0  0
   11.6234  -15.5403   28.9157 O   0  0  0  0  0  0  0  0  0  0  0  0
  2  1  1  0
  3  2  2  0
  4  2  1  0
  5  4  1  0
  5  6  1  6
  7  5  1  0
  7  8  2  0
  9  7  1  0
 10  9  1  0
 11 10  1  0
 12 11  2  0
 14 13  1  1
 14 15  1  0
 14 16  1  0
 15 11  1  0
 16 18  1  0
 17 16  2  0
M  END
$$$$
