NGA.pdb
     RDKit          3D

 18 17  0  0  1  0  0  0  0  0999 V2000
    8.1417  -12.7725   16.3326 N   0  0  0  0  0  0  0  0  0  0  0  0
    7.4968  -13.7037   17.1976 C   0  0  0  0  0  0  0  0  0  0  0  0
    6.7223  -14.5326   16.6593 O   0  0  0  0  0  0  0  0  0  0  0  0
    7.7026  -13.7266   18.6659 C   0  0  0  0  0  0  0  0  0  0  0  0
    8.2843  -15.0417   19.0600 C   0  0  2  0  0  0  0  0  0  0  0  0
    7.1914  -15.9330   19.4028 N   0  0  0  0  0  0  0  0  0  0  0  0
    9.2163  -14.9578   20.1997 C   0  0  0  0  0  0  0  0  0  0  0  0
   10.3511  -14.4173   20.0944 O   0  0  0  0  0  0  0  0  0  0  0  0
    8.8960  -15.4785   21.4837 N   0  0  0  0  0  0  0  0  0  0  0  0
    9.7885  -15.4104   22.5925 C   0  0  0  0  0  0  0  0  0  0  0  0
   10.1535  -16.6956   23.1702 C   0  0  0  0  0  0  0  0  0  0  0  0
    9.3191  -17.6271   23.1968 O   0  0  0  0  0  0  0  0  0  0  0  0
   13.3007  -18.4977   23.9641 C   0  0  0  0  0  0  0  0  0  0  0  0
   11.8207  -18.2281   24.2690 C   0  0  2  0  0  0  0  0  0  0  0  0
   11.4378  -16.9340   23.7116 N   0  0  0  0  0  0  0  0  0  0  0  0
   11.6821  -18.2074   25.7247 C   0  0  0  0  0  0  0  0  0  0  0  0
   11.4635  -17.1365   26.3274 O   0  0  0  0  0  0  0  0  0  0  0  0
   11.7919  -19.3751   26.4481 O   0  0  0  0  0  0  0  0  0  0  0  0
  2  1  1  0
  3  2  2  0
  4  2  1  0
  5  4  1  0
  5  6  1  1
  7  5  1  0
  7  8  2  0
  9  7  1  0
 10  9  1  0
 11 10  1  0
 12 11  2  0
 14 13  1  1
 14 15  1  0
 14 16  1  0
 15 11  1  0
 16 18  1  0
 17 16  2  0
M  END
$$$$
