FAL.pdb
     RDKit          3D

 25 25  0  0  1  0  0  0  0  0999 V2000
    6.4765  -17.0087   21.0457 N   0  0  0  0  0  0  0  0  0  0  0  0
    7.6062  -16.3452   21.6148 C   0  0  1  0  0  0  0  0  0  0  0  0
    7.3965  -14.8575   21.7578 C   0  0  0  0  0  0  0  0  0  0  0  0
    7.6576  -14.1013   20.5367 C   0  0  0  0  0  0  0  0  0  0  0  0
    8.9415  -13.6720   20.2799 C   0  0  0  0  0  0  0  0  0  0  0  0
    9.2793  -12.9531   19.1525 C   0  0  0  0  0  0  0  0  0  0  0  0
    8.2950  -12.6496   18.2428 C   0  0  0  0  0  0  0  0  0  0  0  0
    7.0081  -13.0620   18.4687 C   0  0  0  0  0  0  0  0  0  0  0  0
    6.6940  -13.7832   19.6093 C   0  0  0  0  0  0  0  0  0  0  0  0
    7.8753  -16.8733   22.9742 C   0  0  0  0  0  0  0  0  0  0  0  0
    6.9399  -16.8783   23.8093 O   0  0  0  0  0  0  0  0  0  0  0  0
   10.5914  -18.6999   24.8645 C   0  0  0  0  0  0  0  0  0  0  0  0
    9.4581  -17.7123   24.7495 C   0  0  2  0  0  0  0  0  0  0  0  0
    9.1336  -17.3774   23.3944 N   0  0  0  0  0  0  0  0  0  0  0  0
    9.8259  -16.5272   25.5643 C   0  0  0  0  0  0  0  0  0  0  0  0
   10.8353  -15.8677   25.1549 O   0  0  0  0  0  0  0  0  0  0  0  0
    7.0077  -12.1588   27.4704 C   0  0  0  0  0  0  0  0  0  0  0  0
    8.0997  -13.0784   26.9346 C   0  0  2  0  0  0  0  0  0  0  0  0
    7.7970  -13.5719   25.5599 C   0  0  0  0  0  0  0  0  0  0  0  0
    8.4964  -14.1081   27.9240 C   0  0  0  0  0  0  0  0  0  0  0  0
    9.5934  -15.0442   27.5252 C   0  0  2  0  0  0  0  0  0  0  0  0
    9.1083  -16.1470   26.7224 N   0  0  0  0  0  0  0  0  0  0  0  0
   10.4802  -15.4814   28.6037 C   0  0  0  0  0  0  0  0  0  0  0  0
   10.4424  -16.6458   29.0502 O   0  0  0  0  0  0  0  0  0  0  0  0
   11.3861  -14.5949   29.1510 O   0  0  0  0  0  0  0  0  0  0  0  0
  2  3  1  0
  2  1  1  1
  2 10  1  0
  4  3  1  0
  4  9  2  0
  5  4  1  0
  6  5  2  0
  6  7  1  0
  7  8  2  0
  8  9  1  0
 10 14  1  0
 11 10  2  0
 13 12  1  6
 14 13  1  0
 15 16  2  0
 15 13  1  0
 18 20  1  0
 18 17  1  1
 18 19  1  0
 21 22  1  0
 21 20  1  1
 22 15  1  0
 23 21  1  0
 24 23  2  0
 25 23  1  0
M  END
$$$$
