FAL.pdb
     RDKit          3D

 25 25  0  0  1  0  0  0  0  0999 V2000
    6.1560  -17.4901   24.6968 N   0  0  0  0  0  0  0  0  0  0  0  0
    6.7472  -17.3709   23.4020 C   0  0  1  0  0  0  0  0  0  0  0  0
    6.3724  -16.0849   22.7069 C   0  0  0  0  0  0  0  0  0  0  0  0
    6.5199  -14.8952   23.5401 C   0  0  0  0  0  0  0  0  0  0  0  0
    6.0553  -14.9277   24.8369 C   0  0  0  0  0  0  0  0  0  0  0  0
    6.1529  -13.8520   25.6944 C   0  0  0  0  0  0  0  0  0  0  0  0
    6.7384  -12.6951   25.2393 C   0  0  0  0  0  0  0  0  0  0  0  0
    7.2107  -12.6304   23.9549 C   0  0  0  0  0  0  0  0  0  0  0  0
    7.1009  -13.7250   23.1125 C   0  0  0  0  0  0  0  0  0  0  0  0
    8.2258  -17.3828   23.5145 C   0  0  0  0  0  0  0  0  0  0  0  0
    8.7540  -18.1303   24.3716 O   0  0  0  0  0  0  0  0  0  0  0  0
   11.1936  -15.6183   21.9022 C   0  0  0  0  0  0  0  0  0  0  0  0
   10.5194  -16.6743   22.7407 C   0  0  2  0  0  0  0  0  0  0  0  0
    9.0888  -16.5961   22.7079 N   0  0  0  0  0  0  0  0  0  0  0  0
   11.0719  -16.5616   24.1139 C   0  0  0  0  0  0  0  0  0  0  0  0
   12.3422  -16.5773   24.2007 O   0  0  0  0  0  0  0  0  0  0  0  0
    9.4342  -14.4062   29.6466 C   0  0  0  0  0  0  0  0  0  0  0  0
   10.5396  -14.9117   28.7259 C   0  0  2  0  0  0  0  0  0  0  0  0
   11.7584  -14.0536   28.7841 C   0  0  0  0  0  0  0  0  0  0  0  0
   10.0330  -15.2328   27.3706 C   0  0  0  0  0  0  0  0  0  0  0  0
   10.8581  -16.1664   26.5422 C   0  0  2  0  0  0  0  0  0  0  0  0
   10.2491  -16.4441   25.2584 N   0  0  0  0  0  0  0  0  0  0  0  0
   11.3202  -17.3784   27.2192 C   0  0  0  0  0  0  0  0  0  0  0  0
   10.6189  -18.4091   27.2663 O   0  0  0  0  0  0  0  0  0  0  0  0
   12.5604  -17.3969   27.8255 O   0  0  0  0  0  0  0  0  0  0  0  0
  2  3  1  0
  2  1  1  1
  2 10  1  0
  4  3  1  0
  4  9  2  0
  5  4  1  0
  6  5  2  0
  6  7  1  0
  7  8  2  0
  8  9  1  0
 10 14  1  0
 11 10  2  0
 13 12  1  6
 14 13  1  0
 15 16  2  0
 15 13  1  0
 18 20  1  0
 18 17  1  1
 18 19  1  0
 21 22  1  0
 21 20  1  1
 22 15  1  0
 23 21  1  0
 24 23  2  0
 25 23  1  0
M  END
$$$$
