FAL.pdb
     RDKit          3D

 25 25  0  0  1  0  0  0  0  0999 V2000
    5.8965  -17.7830   20.4961 N   0  0  0  0  0  0  0  0  0  0  0  0
    6.7214  -16.7691   21.0722 C   0  0  1  0  0  0  0  0  0  0  0  0
    6.0663  -15.4096   21.0614 C   0  0  0  0  0  0  0  0  0  0  0  0
    6.9316  -14.3376   20.5787 C   0  0  0  0  0  0  0  0  0  0  0  0
    7.2331  -13.2922   21.4243 C   0  0  0  0  0  0  0  0  0  0  0  0
    8.0417  -12.2384   21.0534 C   0  0  0  0  0  0  0  0  0  0  0  0
    8.5720  -12.2266   19.7856 C   0  0  0  0  0  0  0  0  0  0  0  0
    8.2915  -13.2513   18.9205 C   0  0  0  0  0  0  0  0  0  0  0  0
    7.4762  -14.2991   19.3170 C   0  0  0  0  0  0  0  0  0  0  0  0
    7.0124  -17.0940   22.4895 C   0  0  0  0  0  0  0  0  0  0  0  0
    6.0488  -17.2828   23.2694 O   0  0  0  0  0  0  0  0  0  0  0  0
    9.6075  -18.5519   24.6282 C   0  0  0  0  0  0  0  0  0  0  0  0
    8.6121  -17.4412   24.4083 C   0  0  2  0  0  0  0  0  0  0  0  0
    8.3221  -17.2059   23.0247 N   0  0  0  0  0  0  0  0  0  0  0  0
    9.1389  -16.2380   25.1000 C   0  0  0  0  0  0  0  0  0  0  0  0
   10.1039  -15.6451   24.5182 O   0  0  0  0  0  0  0  0  0  0  0  0
    8.0966  -12.3645   25.2062 C   0  0  0  0  0  0  0  0  0  0  0  0
    7.2901  -13.0537   26.3014 C   0  0  2  0  0  0  0  0  0  0  0  0
    6.1367  -12.2255   26.7585 C   0  0  0  0  0  0  0  0  0  0  0  0
    8.1576  -13.6076   27.3678 C   0  0  0  0  0  0  0  0  0  0  0  0
    9.1935  -14.6031   26.9500 C   0  0  2  0  0  0  0  0  0  0  0  0
    8.6103  -15.7724   26.3266 N   0  0  0  0  0  0  0  0  0  0  0  0
   10.1922  -14.9453   27.9631 C   0  0  0  0  0  0  0  0  0  0  0  0
   10.2662  -16.0927   28.4473 O   0  0  0  0  0  0  0  0  0  0  0  0
   11.0810  -13.9854   28.4042 O   0  0  0  0  0  0  0  0  0  0  0  0
  2  3  1  0
  2  1  1  1
  2 10  1  0
  4  3  1  0
  4  9  2  0
  5  4  1  0
  6  5  2  0
  6  7  1  0
  7  8  2  0
  8  9  1  0
 10 14  1  0
 11 10  2  0
 13 12  1  6
 14 13  1  0
 15 16  2  0
 15 13  1  0
 18 20  1  0
 18 17  1  6
 18 19  1  0
 21 22  1  0
 21 20  1  1
 22 15  1  0
 23 21  1  0
 24 23  2  0
 25 23  1  0
M  END
$$$$
