FAL.pdb
     RDKit          3D

 25 25  0  0  1  0  0  0  0  0999 V2000
    7.1001  -17.2596   24.8288 N   0  0  0  0  0  0  0  0  0  0  0  0
    6.7055  -17.1087   23.4644 C   0  0  1  0  0  0  0  0  0  0  0  0
    6.1395  -15.7410   23.1699 C   0  0  0  0  0  0  0  0  0  0  0  0
    6.5020  -14.7245   24.1530 C   0  0  0  0  0  0  0  0  0  0  0  0
    5.8814  -14.7354   25.3833 C   0  0  0  0  0  0  0  0  0  0  0  0
    6.1616  -13.8151   26.3715 C   0  0  0  0  0  0  0  0  0  0  0  0
    7.1002  -12.8429   26.1222 C   0  0  0  0  0  0  0  0  0  0  0  0
    7.7355  -12.8046   24.9089 C   0  0  0  0  0  0  0  0  0  0  0  0
    7.4364  -13.7407   23.9322 C   0  0  0  0  0  0  0  0  0  0  0  0
    7.8765  -17.2895   22.5727 C   0  0  0  0  0  0  0  0  0  0  0  0
    7.7561  -16.9928   21.3603 O   0  0  0  0  0  0  0  0  0  0  0  0
   10.2826  -15.9141   21.8959 C   0  0  0  0  0  0  0  0  0  0  0  0
   10.3748  -17.0793   22.8481 C   0  0  2  0  0  0  0  0  0  0  0  0
    9.1353  -17.7810   23.0067 N   0  0  0  0  0  0  0  0  0  0  0  0
   10.9094  -16.5557   24.1301 C   0  0  0  0  0  0  0  0  0  0  0  0
   12.0740  -16.0439   24.0745 O   0  0  0  0  0  0  0  0  0  0  0  0
    9.4747  -13.6387   29.2092 C   0  0  0  0  0  0  0  0  0  0  0  0
   10.4934  -14.5243   28.4998 C   0  0  2  0  0  0  0  0  0  0  0  0
   11.8286  -13.8689   28.3868 C   0  0  0  0  0  0  0  0  0  0  0  0
    9.9485  -15.1123   27.2532 C   0  0  0  0  0  0  0  0  0  0  0  0
   10.7930  -16.1351   26.5607 C   0  0  2  0  0  0  0  0  0  0  0  0
   10.1804  -16.6169   25.3407 N   0  0  0  0  0  0  0  0  0  0  0  0
   11.2971  -17.2199   27.4031 C   0  0  0  0  0  0  0  0  0  0  0  0
   12.4138  -17.1542   27.9556 O   0  0  0  0  0  0  0  0  0  0  0  0
   10.5298  -18.3504   27.6007 O   0  0  0  0  0  0  0  0  0  0  0  0
  2  3  1  0
  2  1  1  1
  2 10  1  0
  4  3  1  0
  4  9  2  0
  5  4  1  0
  6  5  2  0
  6  7  1  0
  7  8  2  0
  8  9  1  0
 10 14  1  0
 11 10  2  0
 13 12  1  6
 14 13  1  0
 15 16  2  0
 15 13  1  0
 18 20  1  0
 18 17  1  6
 18 19  1  0
 21 22  1  0
 21 20  1  1
 22 15  1  0
 23 21  1  0
 24 23  2  0
 25 23  1  0
M  END
$$$$
