FAL.pdb
     RDKit          3D

 25 25  0  0  1  0  0  0  0  0999 V2000
    6.0330  -17.8422   24.0760 N   0  0  0  0  0  0  0  0  0  0  0  0
    6.7868  -16.6345   24.1931 C   0  0  1  0  0  0  0  0  0  0  0  0
    6.4174  -15.8340   25.4180 C   0  0  0  0  0  0  0  0  0  0  0  0
    6.2311  -14.4090   25.1617 C   0  0  0  0  0  0  0  0  0  0  0  0
    7.0088  -13.7967   24.2030 C   0  0  0  0  0  0  0  0  0  0  0  0
    6.9008  -12.4568   23.8949 C   0  0  0  0  0  0  0  0  0  0  0  0
    5.9783  -11.6954   24.5715 C   0  0  0  0  0  0  0  0  0  0  0  0
    5.1896  -12.2741   25.5307 C   0  0  0  0  0  0  0  0  0  0  0  0
    5.3171  -13.6227   25.8220 C   0  0  0  0  0  0  0  0  0  0  0  0
    8.2326  -16.9455   24.3037 C   0  0  0  0  0  0  0  0  0  0  0  0
    8.5799  -17.9377   24.9873 O   0  0  0  0  0  0  0  0  0  0  0  0
   11.4908  -15.6624   22.8024 C   0  0  0  0  0  0  0  0  0  0  0  0
   10.6444  -16.5450   23.6842 C   0  0  2  0  0  0  0  0  0  0  0  0
    9.2569  -16.1863   23.6805 N   0  0  0  0  0  0  0  0  0  0  0  0
   11.2450  -16.5126   25.0414 C   0  0  0  0  0  0  0  0  0  0  0  0
   12.5058  -16.3392   25.0830 O   0  0  0  0  0  0  0  0  0  0  0  0
   11.5931  -13.8829   28.0957 C   0  0  0  0  0  0  0  0  0  0  0  0
   10.2783  -14.6039   28.3728 C   0  0  2  0  0  0  0  0  0  0  0  0
    9.4514  -13.8965   29.3930 C   0  0  0  0  0  0  0  0  0  0  0  0
   10.4738  -16.0574   28.5864 C   0  0  0  0  0  0  0  0  0  0  0  0
   11.1498  -16.8187   27.4900 C   0  0  2  0  0  0  0  0  0  0  0  0
   10.4752  -16.6639   26.2184 N   0  0  0  0  0  0  0  0  0  0  0  0
   11.4717  -18.2142   27.7893 C   0  0  0  0  0  0  0  0  0  0  0  0
   12.1843  -18.5265   28.7647 O   0  0  0  0  0  0  0  0  0  0  0  0
   10.9825  -19.2213   26.9816 O   0  0  0  0  0  0  0  0  0  0  0  0
  2  3  1  0
  2  1  1  1
  2 10  1  0
  4  3  1  0
  4  9  2  0
  5  4  1  0
  6  5  2  0
  6  7  1  0
  7  8  2  0
  8  9  1  0
 10 14  1  0
 11 10  2  0
 13 12  1  6
 14 13  1  0
 15 16  2  0
 15 13  1  0
 18 20  1  0
 18 17  1  1
 18 19  1  0
 21 22  1  0
 21 20  1  1
 22 15  1  0
 23 21  1  0
 24 23  2  0
 25 23  1  0
M  END
$$$$
