FAL.pdb
     RDKit          3D

 25 25  0  0  1  0  0  0  0  0999 V2000
    6.9415  -18.0110   19.3064 N   0  0  0  0  0  0  0  0  0  0  0  0
    7.4596  -16.8559   19.9680 C   0  0  1  0  0  0  0  0  0  0  0  0
    6.4989  -15.6923   19.9459 C   0  0  0  0  0  0  0  0  0  0  0  0
    7.0080  -14.4898   20.5986 C   0  0  0  0  0  0  0  0  0  0  0  0
    6.6380  -14.2302   21.9002 C   0  0  0  0  0  0  0  0  0  0  0  0
    7.0708  -13.1200   22.5945 C   0  0  0  0  0  0  0  0  0  0  0  0
    7.9080  -12.2312   21.9640 C   0  0  0  0  0  0  0  0  0  0  0  0
    8.2947  -12.4605   20.6698 C   0  0  0  0  0  0  0  0  0  0  0  0
    7.8461  -13.5836   19.9935 C   0  0  0  0  0  0  0  0  0  0  0  0
    7.7281  -17.1636   21.3937 C   0  0  0  0  0  0  0  0  0  0  0  0
    6.7737  -17.5424   22.1134 O   0  0  0  0  0  0  0  0  0  0  0  0
   10.5378  -18.3145   23.4521 C   0  0  0  0  0  0  0  0  0  0  0  0
    9.2994  -17.4616   23.3439 C   0  0  2  0  0  0  0  0  0  0  0  0
    9.0063  -17.0559   22.0010 N   0  0  0  0  0  0  0  0  0  0  0  0
    9.4767  -16.3132   24.2677 C   0  0  0  0  0  0  0  0  0  0  0  0
   10.4825  -15.5678   24.0349 O   0  0  0  0  0  0  0  0  0  0  0  0
    8.5531  -11.9773   25.7204 C   0  0  0  0  0  0  0  0  0  0  0  0
    7.3783  -12.9489   25.6903 C   0  0  2  0  0  0  0  0  0  0  0  0
    6.0717  -12.2606   25.9009 C   0  0  0  0  0  0  0  0  0  0  0  0
    7.6251  -14.1482   26.5254 C   0  0  0  0  0  0  0  0  0  0  0  0
    8.8580  -14.9410   26.2254 C   0  0  2  0  0  0  0  0  0  0  0  0
    8.5915  -16.0553   25.3404 N   0  0  0  0  0  0  0  0  0  0  0  0
    9.6658  -15.3237   27.3837 C   0  0  0  0  0  0  0  0  0  0  0  0
   10.1991  -14.4696   28.1204 O   0  0  0  0  0  0  0  0  0  0  0  0
    9.8517  -16.6590   27.6814 O   0  0  0  0  0  0  0  0  0  0  0  0
  2  3  1  0
  2  1  1  1
  2 10  1  0
  4  3  1  0
  4  9  2  0
  5  4  1  0
  6  5  2  0
  6  7  1  0
  7  8  2  0
  8  9  1  0
 10 14  1  0
 11 10  2  0
 13 12  1  6
 14 13  1  0
 15 16  2  0
 15 13  1  0
 18 20  1  0
 18 17  1  1
 18 19  1  0
 21 22  1  0
 21 20  1  1
 22 15  1  0
 23 21  1  0
 24 23  2  0
 25 23  1  0
M  END
$$$$
