FAL.pdb
     RDKit          3D

 25 25  0  0  1  0  0  0  0  0999 V2000
    7.3458  -18.1184   20.8122 N   0  0  0  0  0  0  0  0  0  0  0  0
    7.8198  -16.8688   21.3162 C   0  0  1  0  0  0  0  0  0  0  0  0
    6.7097  -15.9986   21.8529 C   0  0  0  0  0  0  0  0  0  0  0  0
    7.1154  -14.6246   22.1331 C   0  0  0  0  0  0  0  0  0  0  0  0
    7.6781  -13.8762   21.1222 C   0  0  0  0  0  0  0  0  0  0  0  0
    8.0897  -12.5715   21.2966 C   0  0  0  0  0  0  0  0  0  0  0  0
    7.9335  -11.9887   22.5313 C   0  0  0  0  0  0  0  0  0  0  0  0
    7.3772  -12.7059   23.5575 C   0  0  0  0  0  0  0  0  0  0  0  0
    6.9715  -14.0155   23.3571 C   0  0  0  0  0  0  0  0  0  0  0  0
    8.7654  -17.0970   22.4356 C   0  0  0  0  0  0  0  0  0  0  0  0
    8.3788  -17.7780   23.4150 O   0  0  0  0  0  0  0  0  0  0  0  0
   12.4803  -16.7108   23.0269 C   0  0  0  0  0  0  0  0  0  0  0  0
   11.0565  -16.9221   23.4754 C   0  0  2  0  0  0  0  0  0  0  0  0
   10.0906  -16.5902   22.4701 N   0  0  0  0  0  0  0  0  0  0  0  0
   10.8732  -16.1489   24.7292 C   0  0  0  0  0  0  0  0  0  0  0  0
   11.9401  -15.7091   25.2674 O   0  0  0  0  0  0  0  0  0  0  0  0
    6.8652  -12.5576   27.1611 C   0  0  0  0  0  0  0  0  0  0  0  0
    8.2489  -13.1977   27.1882 C   0  0  2  0  0  0  0  0  0  0  0  0
    9.2612  -12.3836   26.4550 C   0  0  0  0  0  0  0  0  0  0  0  0
    8.2028  -14.6397   26.8492 C   0  0  0  0  0  0  0  0  0  0  0  0
    9.5133  -15.3239   26.6182 C   0  0  2  0  0  0  0  0  0  0  0  0
    9.6001  -15.9107   25.2976 N   0  0  0  0  0  0  0  0  0  0  0  0
    9.9455  -16.2430   27.6713 C   0  0  0  0  0  0  0  0  0  0  0  0
   10.5779  -15.8430   28.6697 O   0  0  0  0  0  0  0  0  0  0  0  0
    9.6541  -17.5888   27.5718 O   0  0  0  0  0  0  0  0  0  0  0  0
  2  3  1  0
  2  1  1  1
  2 10  1  0
  4  3  1  0
  4  9  2  0
  5  4  1  0
  6  5  2  0
  6  7  1  0
  7  8  2  0
  8  9  1  0
 10 14  1  0
 11 10  2  0
 13 12  1  6
 14 13  1  0
 15 16  2  0
 15 13  1  0
 18 20  1  0
 18 17  1  6
 18 19  1  0
 21 22  1  0
 21 20  1  1
 22 15  1  0
 23 21  1  0
 24 23  2  0
 25 23  1  0
M  END
$$$$
