FAL.pdb
     RDKit          3D

 25 25  0  0  1  0  0  0  0  0999 V2000
    5.5056  -17.5126   23.1716 N   0  0  0  0  0  0  0  0  0  0  0  0
    6.4661  -16.5363   23.5774 C   0  0  1  0  0  0  0  0  0  0  0  0
    6.4241  -16.2595   25.0603 C   0  0  0  0  0  0  0  0  0  0  0  0
    6.6126  -14.8541   25.4073 C   0  0  0  0  0  0  0  0  0  0  0  0
    7.6962  -14.1789   24.8890 C   0  0  0  0  0  0  0  0  0  0  0  0
    7.9521  -12.8516   25.1624 C   0  0  0  0  0  0  0  0  0  0  0  0
    7.0910  -12.1689   25.9876 C   0  0  0  0  0  0  0  0  0  0  0  0
    6.0040  -12.8115   26.5191 C   0  0  0  0  0  0  0  0  0  0  0  0
    5.7685  -14.1458   26.2293 C   0  0  0  0  0  0  0  0  0  0  0  0
    7.8365  -17.0112   23.2681 C   0  0  0  0  0  0  0  0  0  0  0  0
    8.1696  -18.1604   23.6432 O   0  0  0  0  0  0  0  0  0  0  0  0
   10.9959  -15.6065   21.6617 C   0  0  0  0  0  0  0  0  0  0  0  0
   10.2079  -16.5269   22.5588 C   0  0  2  0  0  0  0  0  0  0  0  0
    8.8033  -16.2423   22.5693 N   0  0  0  0  0  0  0  0  0  0  0  0
   10.8214  -16.4535   23.9085 C   0  0  0  0  0  0  0  0  0  0  0  0
   12.0383  -16.8212   23.9824 O   0  0  0  0  0  0  0  0  0  0  0  0
    9.8252  -13.9854   29.4887 C   0  0  0  0  0  0  0  0  0  0  0  0
   10.8276  -14.5117   28.4673 C   0  0  2  0  0  0  0  0  0  0  0  0
   12.0885  -13.7149   28.4522 C   0  0  0  0  0  0  0  0  0  0  0  0
   10.1998  -14.7630   27.1484 C   0  0  0  0  0  0  0  0  0  0  0  0
   10.8132  -15.8304   26.2981 C   0  0  2  0  0  0  0  0  0  0  0  0
   10.1089  -16.0057   25.0454 N   0  0  0  0  0  0  0  0  0  0  0  0
   11.0883  -17.1002   26.9710 C   0  0  0  0  0  0  0  0  0  0  0  0
   12.2115  -17.3571   27.4494 O   0  0  0  0  0  0  0  0  0  0  0  0
   10.0905  -18.0472   27.0868 O   0  0  0  0  0  0  0  0  0  0  0  0
  2  3  1  0
  2  1  1  1
  2 10  1  0
  4  3  1  0
  4  9  2  0
  5  4  1  0
  6  5  2  0
  6  7  1  0
  7  8  2  0
  8  9  1  0
 10 14  1  0
 11 10  2  0
 13 12  1  6
 14 13  1  0
 15 16  2  0
 15 13  1  0
 18 20  1  0
 18 17  1  1
 18 19  1  0
 21 22  1  0
 21 20  1  1
 22 15  1  0
 23 21  1  0
 24 23  2  0
 25 23  1  0
M  END
$$$$
