FAL.pdb
     RDKit          3D

 25 25  0  0  1  0  0  0  0  0999 V2000
    7.1926  -18.2272   21.4838 N   0  0  0  0  0  0  0  0  0  0  0  0
    7.5412  -17.0055   22.1365 C   0  0  1  0  0  0  0  0  0  0  0  0
    6.4985  -16.5591   23.1320 C   0  0  0  0  0  0  0  0  0  0  0  0
    6.7279  -15.2226   23.6727 C   0  0  0  0  0  0  0  0  0  0  0  0
    6.3959  -14.9685   24.9857 C   0  0  0  0  0  0  0  0  0  0  0  0
    6.5782  -13.7370   25.5793 C   0  0  0  0  0  0  0  0  0  0  0  0
    7.1142  -12.7160   24.8319 C   0  0  0  0  0  0  0  0  0  0  0  0
    7.4552  -12.9362   23.5233 C   0  0  0  0  0  0  0  0  0  0  0  0
    7.2622  -14.1826   22.9497 C   0  0  0  0  0  0  0  0  0  0  0  0
    8.8083  -17.1736   22.8885 C   0  0  0  0  0  0  0  0  0  0  0  0
    8.9240  -18.1623   23.6509 O   0  0  0  0  0  0  0  0  0  0  0  0
   12.2421  -15.5264   22.9273 C   0  0  0  0  0  0  0  0  0  0  0  0
   11.2093  -16.5452   23.3373 C   0  0  2  0  0  0  0  0  0  0  0  0
    9.9074  -16.2801   22.8001 N   0  0  0  0  0  0  0  0  0  0  0  0
   11.2198  -16.6066   24.8204 C   0  0  0  0  0  0  0  0  0  0  0  0
   12.3420  -16.8860   25.3533 O   0  0  0  0  0  0  0  0  0  0  0  0
   10.7811  -13.8727   28.4254 C   0  0  0  0  0  0  0  0  0  0  0  0
    9.4516  -14.1961   27.7524 C   0  0  2  0  0  0  0  0  0  0  0  0
    8.3497  -13.3087   28.2250 C   0  0  0  0  0  0  0  0  0  0  0  0
    9.1643  -15.6501   27.7558 C   0  0  0  0  0  0  0  0  0  0  0  0
   10.1340  -16.5343   27.0372 C   0  0  2  0  0  0  0  0  0  0  0  0
   10.0634  -16.3718   25.6003 N   0  0  0  0  0  0  0  0  0  0  0  0
   10.1361  -17.9396   27.4446 C   0  0  0  0  0  0  0  0  0  0  0  0
    9.6603  -18.8329   26.7151 O   0  0  0  0  0  0  0  0  0  0  0  0
   10.6740  -18.3013   28.6636 O   0  0  0  0  0  0  0  0  0  0  0  0
  2  3  1  0
  2  1  1  1
  2 10  1  0
  4  3  1  0
  4  9  2  0
  5  4  1  0
  6  5  2  0
  6  7  1  0
  7  8  2  0
  8  9  1  0
 10 14  1  0
 11 10  2  0
 13 12  1  1
 14 13  1  0
 15 16  2  0
 15 13  1  0
 18 20  1  0
 18 17  1  1
 18 19  1  0
 21 22  1  0
 21 20  1  1
 22 15  1  0
 23 21  1  0
 24 23  2  0
 25 23  1  0
M  END
$$$$
