FAL.pdb
     RDKit          3D

 25 25  0  0  1  0  0  0  0  0999 V2000
    6.4856  -18.6251   23.0106 N   0  0  0  0  0  0  0  0  0  0  0  0
    6.9523  -17.3480   23.4482 C   0  0  1  0  0  0  0  0  0  0  0  0
    6.2423  -16.8623   24.6882 C   0  0  0  0  0  0  0  0  0  0  0  0
    6.3744  -15.4277   24.9242 C   0  0  0  0  0  0  0  0  0  0  0  0
    6.9867  -14.6482   23.9670 C   0  0  0  0  0  0  0  0  0  0  0  0
    7.1541  -13.2862   24.1054 C   0  0  0  0  0  0  0  0  0  0  0  0
    6.6915  -12.6761   25.2465 C   0  0  0  0  0  0  0  0  0  0  0  0
    6.0780  -13.4231   26.2174 C   0  0  0  0  0  0  0  0  0  0  0  0
    5.9217  -14.7902   26.0548 C   0  0  0  0  0  0  0  0  0  0  0  0
    8.3958  -17.4201   23.7807 C   0  0  0  0  0  0  0  0  0  0  0  0
    8.7873  -18.3304   24.5492 O   0  0  0  0  0  0  0  0  0  0  0  0
   11.5975  -15.6222   22.7574 C   0  0  0  0  0  0  0  0  0  0  0  0
   10.7811  -16.6516   23.4967 C   0  0  2  0  0  0  0  0  0  0  0  0
    9.3706  -16.5178   23.2811 N   0  0  0  0  0  0  0  0  0  0  0  0
   11.1567  -16.5611   24.9301 C   0  0  0  0  0  0  0  0  0  0  0  0
   12.3737  -16.8215   25.1992 O   0  0  0  0  0  0  0  0  0  0  0  0
   11.6569  -13.4174   27.7250 C   0  0  0  0  0  0  0  0  0  0  0  0
   10.1761  -13.7795   27.7594 C   0  0  2  0  0  0  0  0  0  0  0  0
    9.3646  -12.7658   28.4935 C   0  0  0  0  0  0  0  0  0  0  0  0
    9.9568  -15.1935   28.1456 C   0  0  0  0  0  0  0  0  0  0  0  0
   10.6490  -16.2354   27.3247 C   0  0  2  0  0  0  0  0  0  0  0  0
   10.2300  -16.2095   25.9392 N   0  0  0  0  0  0  0  0  0  0  0  0
   10.6544  -17.5869   27.8852 C   0  0  0  0  0  0  0  0  0  0  0  0
   11.1970  -17.8389   28.9800 O   0  0  0  0  0  0  0  0  0  0  0  0
   10.0484  -18.6191   27.1972 O   0  0  0  0  0  0  0  0  0  0  0  0
  2  3  1  0
  2  1  1  1
  2 10  1  0
  4  3  1  0
  4  9  2  0
  5  4  1  0
  6  5  2  0
  6  7  1  0
  7  8  2  0
  8  9  1  0
 10 14  1  0
 11 10  2  0
 13 12  1  6
 14 13  1  0
 15 16  2  0
 15 13  1  0
 18 20  1  0
 18 17  1  1
 18 19  1  0
 21 22  1  0
 21 20  1  1
 22 15  1  0
 23 21  1  0
 24 23  2  0
 25 23  1  0
M  END
$$$$
