FAL.pdb
     RDKit          3D

 25 25  0  0  1  0  0  0  0  0999 V2000
    6.6417  -18.3548   22.3810 N   0  0  0  0  0  0  0  0  0  0  0  0
    7.1614  -17.1829   23.0110 C   0  0  1  0  0  0  0  0  0  0  0  0
    6.3905  -16.7974   24.2497 C   0  0  0  0  0  0  0  0  0  0  0  0
    6.7173  -15.4704   24.7631 C   0  0  0  0  0  0  0  0  0  0  0  0
    6.3409  -15.1409   26.0470 C   0  0  0  0  0  0  0  0  0  0  0  0
    6.6080  -13.9123   26.6136 C   0  0  0  0  0  0  0  0  0  0  0  0
    7.2787  -12.9726   25.8683 C   0  0  0  0  0  0  0  0  0  0  0  0
    7.6669  -13.2690   24.5882 C   0  0  0  0  0  0  0  0  0  0  0  0
    7.3867  -14.5109   24.0414 C   0  0  0  0  0  0  0  0  0  0  0  0
    8.5647  -17.4115   23.4327 C   0  0  0  0  0  0  0  0  0  0  0  0
    8.8218  -18.4201   24.1318 O   0  0  0  0  0  0  0  0  0  0  0  0
   11.9773  -15.8361   22.8190 C   0  0  0  0  0  0  0  0  0  0  0  0
   11.0048  -16.7757   23.4855 C   0  0  2  0  0  0  0  0  0  0  0  0
    9.6442  -16.5550   23.0931 N   0  0  0  0  0  0  0  0  0  0  0  0
   11.2101  -16.6514   24.9504 C   0  0  0  0  0  0  0  0  0  0  0  0
   12.3598  -16.9936   25.3776 O   0  0  0  0  0  0  0  0  0  0  0  0
    9.0166  -12.7057   28.1711 C   0  0  0  0  0  0  0  0  0  0  0  0
   10.1324  -13.7253   27.9699 C   0  0  2  0  0  0  0  0  0  0  0  0
   11.0506  -13.3443   26.8577 C   0  0  0  0  0  0  0  0  0  0  0  0
    9.6193  -15.1154   27.9440 C   0  0  0  0  0  0  0  0  0  0  0  0
   10.4622  -16.1362   27.2469 C   0  0  2  0  0  0  0  0  0  0  0  0
   10.2003  -16.1844   25.8238 N   0  0  0  0  0  0  0  0  0  0  0  0
   10.4885  -17.4649   27.8589 C   0  0  0  0  0  0  0  0  0  0  0  0
   10.9706  -17.6527   28.9942 O   0  0  0  0  0  0  0  0  0  0  0  0
    9.9712  -18.5472   27.1755 O   0  0  0  0  0  0  0  0  0  0  0  0
  2  3  1  0
  2  1  1  1
  2 10  1  0
  4  3  1  0
  4  9  2  0
  5  4  1  0
  6  5  2  0
  6  7  1  0
  7  8  2  0
  8  9  1  0
 10 14  1  0
 11 10  2  0
 13 12  1  6
 14 13  1  0
 15 16  2  0
 15 13  1  0
 18 20  1  0
 18 17  1  6
 18 19  1  0
 21 22  1  0
 21 20  1  1
 22 15  1  0
 23 21  1  0
 24 23  2  0
 25 23  1  0
M  END
$$$$
