VSW.pdb
     RDKit          3D

 28 29  0  0  1  0  0  0  0  0999 V2000
   27.5455  -18.5485  -18.2114 C   0  0  0  0  0  0  0  0  0  0  0  0
   26.0594  -18.6912  -18.0232 C   0  0  1  0  0  0  0  0  0  0  0  0
   25.4327  -17.3382  -18.2711 C   0  0  0  0  0  0  0  0  0  0  0  0
   25.4549  -19.7260  -18.9362 C   0  0  2  0  0  0  0  0  0  0  0  0
   25.5490  -19.3009  -20.3098 N   0  0  0  0  0  0  0  0  0  0  0  0
   24.0624  -20.0837  -18.5557 C   0  0  0  0  0  0  0  0  0  0  0  0
   23.1102  -19.3276  -18.8319 O   0  0  0  0  0  0  0  0  0  0  0  0
   22.2284  -23.5827  -18.9802 O   0  0  0  0  0  0  0  0  0  0  0  0
   22.2390  -23.1932  -17.6227 C   0  0  0  0  0  0  0  0  0  0  0  0
   22.4576  -21.7128  -17.4977 C   0  0  2  0  0  0  0  0  0  0  0  0
   23.7688  -21.2830  -17.8731 N   0  0  0  0  0  0  0  0  0  0  0  0
   22.2726  -21.3901  -16.0468 C   0  0  0  0  0  0  0  0  0  0  0  0
   23.2515  -21.3523  -15.2470 O   0  0  0  0  0  0  0  0  0  0  0  0
   20.9911  -21.1116  -15.4994 N   0  0  0  0  0  0  0  0  0  0  0  0
   20.8499  -20.7114  -14.1207 C   0  0  1  0  0  0  0  0  0  0  0  0
   21.4861  -19.3703  -13.8288 C   0  0  0  0  0  0  0  0  0  0  0  0
   21.1105  -18.3056  -14.7658 C   0  0  0  0  0  0  0  0  0  0  0  0
   19.8434  -17.9743  -15.2294 C   0  0  0  0  0  0  0  0  0  0  0  0
   19.9488  -16.9180  -16.0386 N   0  0  0  0  0  0  0  0  0  0  0  0
   21.2518  -16.5148  -16.1446 C   0  0  0  0  0  0  0  0  0  0  0  0
   21.8363  -15.4914  -16.8598 C   0  0  0  0  0  0  0  0  0  0  0  0
   23.1979  -15.3016  -16.8003 C   0  0  0  0  0  0  0  0  0  0  0  0
   23.9374  -16.1530  -16.0179 C   0  0  0  0  0  0  0  0  0  0  0  0
   23.3382  -17.1645  -15.3141 C   0  0  0  0  0  0  0  0  0  0  0  0
   21.9571  -17.3991  -15.3399 C   0  0  0  0  0  0  0  0  0  0  0  0
   19.4114  -20.6018  -13.7657 C   0  0  0  0  0  0  0  0  0  0  0  0
   19.1168  -20.3401  -12.5715 O   0  0  0  0  0  0  0  0  0  0  0  0
   18.4033  -20.7799  -14.7115 O   0  0  0  0  0  0  0  0  0  0  0  0
  2  1  1  6
  2  3  1  0
  2  4  1  0
  4  5  1  6
  6 11  1  0
  6  4  1  0
  7  6  2  0
  9  8  1  0
 10 11  1  0
 10  9  1  1
 12 10  1  0
 13 12  2  0
 14 12  1  0
 15 16  1  6
 15 14  1  0
 17 16  1  0
 18 17  2  0
 19 20  1  0
 19 18  1  0
 20 25  2  0
 21 20  1  0
 21 22  2  0
 22 23  1  0
 23 24  2  0
 25 17  1  0
 25 24  1  0
 26 15  1  0
 27 26  2  0
 28 26  1  0
M  END
$$$$
