VSW.pdb
     RDKit          3D

 28 29  0  0  1  0  0  0  0  0999 V2000
   25.8306  -16.7255  -13.7180 C   0  0  0  0  0  0  0  0  0  0  0  0
   25.6718  -17.3089  -15.0959 C   0  0  1  0  0  0  0  0  0  0  0  0
   25.8811  -16.1933  -16.0942 C   0  0  0  0  0  0  0  0  0  0  0  0
   26.6311  -18.4397  -15.3621 C   0  0  2  0  0  0  0  0  0  0  0  0
   26.5288  -18.8737  -16.7323 N   0  0  0  0  0  0  0  0  0  0  0  0
   26.4696  -19.5665  -14.4051 C   0  0  0  0  0  0  0  0  0  0  0  0
   25.4660  -20.3050  -14.4507 O   0  0  0  0  0  0  0  0  0  0  0  0
   29.7733  -20.8616  -12.3375 O   0  0  0  0  0  0  0  0  0  0  0  0
   28.6547  -21.7214  -12.3998 C   0  0  0  0  0  0  0  0  0  0  0  0
   27.3820  -20.9296  -12.4924 C   0  0  2  0  0  0  0  0  0  0  0  0
   27.4389  -19.8402  -13.4170 N   0  0  0  0  0  0  0  0  0  0  0  0
   27.1540  -20.3553  -11.1281 C   0  0  0  0  0  0  0  0  0  0  0  0
   28.0315  -19.6505  -10.5515 O   0  0  0  0  0  0  0  0  0  0  0  0
   25.9434  -20.5738  -10.4167 N   0  0  0  0  0  0  0  0  0  0  0  0
   25.9542  -20.7747   -8.9883 C   0  0  1  0  0  0  0  0  0  0  0  0
   25.8648  -19.4800   -8.2110 C   0  0  0  0  0  0  0  0  0  0  0  0
   27.0984  -19.1094   -7.5086 C   0  0  0  0  0  0  0  0  0  0  0  0
   27.9973  -18.0978   -7.8230 C   0  0  0  0  0  0  0  0  0  0  0  0
   28.9622  -18.0839   -6.9008 N   0  0  0  0  0  0  0  0  0  0  0  0
   28.7522  -19.0572   -5.9625 C   0  0  0  0  0  0  0  0  0  0  0  0
   29.4741  -19.4209   -4.8459 C   0  0  0  0  0  0  0  0  0  0  0  0
   29.0426  -20.4630   -4.0578 C   0  0  0  0  0  0  0  0  0  0  0  0
   27.8894  -21.1141   -4.4186 C   0  0  0  0  0  0  0  0  0  0  0  0
   27.1853  -20.7379   -5.5323 C   0  0  0  0  0  0  0  0  0  0  0  0
   27.5812  -19.6839   -6.3663 C   0  0  0  0  0  0  0  0  0  0  0  0
   24.7960  -21.6119   -8.5817 C   0  0  0  0  0  0  0  0  0  0  0  0
   23.9706  -21.9479   -9.4690 O   0  0  0  0  0  0  0  0  0  0  0  0
   24.6110  -22.0233   -7.2630 O   0  0  0  0  0  0  0  0  0  0  0  0
  2  1  1  1
  2  3  1  0
  2  4  1  0
  4  5  1  6
  6 11  1  0
  6  4  1  0
  7  6  2  0
  9  8  1  0
 10 11  1  0
 10  9  1  1
 12 10  1  0
 13 12  2  0
 14 12  1  0
 15 16  1  1
 15 14  1  0
 17 16  1  0
 18 17  2  0
 19 20  1  0
 19 18  1  0
 20 25  2  0
 21 20  1  0
 21 22  2  0
 22 23  1  0
 23 24  2  0
 25 17  1  0
 25 24  1  0
 26 15  1  0
 27 26  2  0
 28 26  1  0
M  END
$$$$
