VSW.pdb
     RDKit          3D

 28 29  0  0  1  0  0  0  0  0999 V2000
   28.1158  -15.1539  -14.8665 C   0  0  0  0  0  0  0  0  0  0  0  0
   27.4324  -16.4168  -14.4169 C   0  0  1  0  0  0  0  0  0  0  0  0
   26.0750  -16.0357  -13.8715 C   0  0  0  0  0  0  0  0  0  0  0  0
   27.2889  -17.4262  -15.5261 C   0  0  2  0  0  0  0  0  0  0  0  0
   26.7330  -16.8058  -16.7017 N   0  0  0  0  0  0  0  0  0  0  0  0
   26.5187  -18.6290  -15.1113 C   0  0  0  0  0  0  0  0  0  0  0  0
   25.2794  -18.6707  -15.2420 O   0  0  0  0  0  0  0  0  0  0  0  0
   28.5402  -22.1734  -14.4526 O   0  0  0  0  0  0  0  0  0  0  0  0
   27.1441  -22.2173  -14.6611 C   0  0  0  0  0  0  0  0  0  0  0  0
   26.4932  -20.9611  -14.1578 C   0  0  2  0  0  0  0  0  0  0  0  0
   27.1567  -19.7594  -14.5585 N   0  0  0  0  0  0  0  0  0  0  0  0
   26.5539  -21.0361  -12.6631 C   0  0  0  0  0  0  0  0  0  0  0  0
   27.6573  -21.0882  -12.0473 O   0  0  0  0  0  0  0  0  0  0  0  0
   25.3777  -21.0524  -11.8660 N   0  0  0  0  0  0  0  0  0  0  0  0
   25.4632  -21.1174  -10.4275 C   0  0  1  0  0  0  0  0  0  0  0  0
   26.2643  -19.9799   -9.8334 C   0  0  0  0  0  0  0  0  0  0  0  0
   27.4654  -20.4017   -9.1043 C   0  0  0  0  0  0  0  0  0  0  0  0
   28.5306  -21.1637   -9.5680 C   0  0  0  0  0  0  0  0  0  0  0  0
   29.4283  -21.2819   -8.5872 N   0  0  0  0  0  0  0  0  0  0  0  0
   29.0101  -20.6236   -7.4632 C   0  0  0  0  0  0  0  0  0  0  0  0
   29.5903  -20.4761   -6.2214 C   0  0  0  0  0  0  0  0  0  0  0  0
   28.9440  -19.7580   -5.2417 C   0  0  0  0  0  0  0  0  0  0  0  0
   27.7238  -19.2054   -5.5414 C   0  0  0  0  0  0  0  0  0  0  0  0
   27.1632  -19.3628   -6.7817 C   0  0  0  0  0  0  0  0  0  0  0  0
   27.7804  -20.0829   -7.8131 C   0  0  0  0  0  0  0  0  0  0  0  0
   24.1035  -21.0550   -9.8319 C   0  0  0  0  0  0  0  0  0  0  0  0
   23.9957  -21.2167   -8.5895 O   0  0  0  0  0  0  0  0  0  0  0  0
   22.9688  -20.8256  -10.6080 O   0  0  0  0  0  0  0  0  0  0  0  0
  2  1  1  6
  2  3  1  0
  2  4  1  0
  4  5  1  6
  6 11  1  0
  6  4  1  0
  7  6  2  0
  9  8  1  0
 10 11  1  0
 10  9  1  6
 12 10  1  0
 13 12  2  0
 14 12  1  0
 15 16  1  1
 15 14  1  0
 17 16  1  0
 18 17  2  0
 19 20  1  0
 19 18  1  0
 20 25  2  0
 21 20  1  0
 21 22  2  0
 22 23  1  0
 23 24  2  0
 25 17  1  0
 25 24  1  0
 26 15  1  0
 27 26  2  0
 28 26  1  0
M  END
$$$$
