VSW.pdb
     RDKit          3D

 28 29  0  0  1  0  0  0  0  0999 V2000
   17.7093  -13.3296  -15.4648 C   0  0  0  0  0  0  0  0  0  0  0  0
   18.5637  -12.1115  -15.6888 C   0  0  1  0  0  0  0  0  0  0  0  0
   19.8115  -12.2647  -14.8494 C   0  0  0  0  0  0  0  0  0  0  0  0
   18.9257  -11.9142  -17.1379 C   0  0  2  0  0  0  0  0  0  0  0  0
   19.4888  -13.1227  -17.6844 N   0  0  0  0  0  0  0  0  0  0  0  0
   19.8099  -10.7380  -17.3535 C   0  0  0  0  0  0  0  0  0  0  0  0
   21.0443  -10.8774  -17.4602 O   0  0  0  0  0  0  0  0  0  0  0  0
   18.1149   -7.2006  -18.6506 O   0  0  0  0  0  0  0  0  0  0  0  0
   19.4989   -7.4122  -18.8361 C   0  0  0  0  0  0  0  0  0  0  0  0
   20.0587   -8.2590  -17.7296 C   0  0  2  0  0  0  0  0  0  0  0  0
   19.2889   -9.4300  -17.4448 N   0  0  0  0  0  0  0  0  0  0  0  0
   20.0446   -7.3978  -16.5043 C   0  0  0  0  0  0  0  0  0  0  0  0
   19.1221   -7.4861  -15.6437 O   0  0  0  0  0  0  0  0  0  0  0  0
   21.0645   -6.4416  -16.2496 N   0  0  0  0  0  0  0  0  0  0  0  0
   21.0662   -5.6735  -15.0286 C   0  0  1  0  0  0  0  0  0  0  0  0
   22.2527   -5.9804  -14.1417 C   0  0  0  0  0  0  0  0  0  0  0  0
   23.4421   -6.4477  -14.8623 C   0  0  0  0  0  0  0  0  0  0  0  0
   24.2964   -5.7170  -15.6787 C   0  0  0  0  0  0  0  0  0  0  0  0
   25.2717   -6.5230  -16.1041 N   0  0  0  0  0  0  0  0  0  0  0  0
   25.1115   -7.7862  -15.6039 C   0  0  0  0  0  0  0  0  0  0  0  0
   25.8535   -8.9359  -15.7706 C   0  0  0  0  0  0  0  0  0  0  0  0
   25.4633  -10.1016  -15.1523 C   0  0  0  0  0  0  0  0  0  0  0  0
   24.3296  -10.0769  -14.3790 C   0  0  0  0  0  0  0  0  0  0  0  0
   23.6051   -8.9241  -14.2251 C   0  0  0  0  0  0  0  0  0  0  0  0
   23.9603   -7.7121  -14.8317 C   0  0  0  0  0  0  0  0  0  0  0  0
   21.1138   -4.2213  -15.3390 C   0  0  0  0  0  0  0  0  0  0  0  0
   21.2743   -3.8794  -16.5384 O   0  0  0  0  0  0  0  0  0  0  0  0
   20.9865   -3.2511  -14.3465 O   0  0  0  0  0  0  0  0  0  0  0  0
  2  1  1  6
  2  3  1  0
  2  4  1  0
  4  5  1  1
  6 11  1  0
  6  4  1  0
  7  6  2  0
  9  8  1  0
 10 11  1  0
 10  9  1  6
 12 10  1  0
 13 12  2  0
 14 12  1  0
 15 16  1  1
 15 14  1  0
 17 16  1  0
 18 17  2  0
 19 20  1  0
 19 18  1  0
 20 25  2  0
 21 20  1  0
 21 22  2  0
 22 23  1  0
 23 24  2  0
 25 17  1  0
 25 24  1  0
 26 15  1  0
 27 26  2  0
 28 26  1  0
M  END
$$$$
