VSW.pdb
     RDKit          3D

 28 29  0  0  1  0  0  0  0  0999 V2000
   29.1574  -19.1998  -17.8521 C   0  0  0  0  0  0  0  0  0  0  0  0
   29.3089  -17.7041  -17.7894 C   0  0  1  0  0  0  0  0  0  0  0  0
   30.0138  -17.2602  -19.0508 C   0  0  0  0  0  0  0  0  0  0  0  0
   27.9889  -16.9919  -17.6463 C   0  0  2  0  0  0  0  0  0  0  0  0
   28.1671  -15.5693  -17.7896 N   0  0  0  0  0  0  0  0  0  0  0  0
   27.2813  -17.3427  -16.3861 C   0  0  0  0  0  0  0  0  0  0  0  0
   27.7313  -16.9852  -15.2796 O   0  0  0  0  0  0  0  0  0  0  0  0
   23.6038  -19.3606  -16.6209 O   0  0  0  0  0  0  0  0  0  0  0  0
   23.8534  -18.5721  -15.4761 C   0  0  0  0  0  0  0  0  0  0  0  0
   25.3296  -18.4427  -15.2330 C   0  0  2  0  0  0  0  0  0  0  0  0
   26.0831  -18.0876  -16.3954 N   0  0  0  0  0  0  0  0  0  0  0  0
   25.7938  -19.7951  -14.7871 C   0  0  0  0  0  0  0  0  0  0  0  0
   26.4942  -20.5348  -15.5364 O   0  0  0  0  0  0  0  0  0  0  0  0
   25.4705  -20.3118  -13.5034 N   0  0  0  0  0  0  0  0  0  0  0  0
   25.8944  -21.6342  -13.1132 C   0  0  1  0  0  0  0  0  0  0  0  0
   26.9455  -21.6185  -12.0253 C   0  0  0  0  0  0  0  0  0  0  0  0
   26.5013  -21.0166  -10.7633 C   0  0  0  0  0  0  0  0  0  0  0  0
   25.2341  -20.5558  -10.4284 C   0  0  0  0  0  0  0  0  0  0  0  0
   25.2595  -20.1186   -9.1675 N   0  0  0  0  0  0  0  0  0  0  0  0
   26.5078  -20.2652   -8.6270 C   0  0  0  0  0  0  0  0  0  0  0  0
   27.0060  -19.9532   -7.3801 C   0  0  0  0  0  0  0  0  0  0  0  0
   28.3281  -20.1978   -7.0873 C   0  0  0  0  0  0  0  0  0  0  0  0
   29.1164  -20.7527   -8.0644 C   0  0  0  0  0  0  0  0  0  0  0  0
   28.6029  -21.0561   -9.2980 C   0  0  0  0  0  0  0  0  0  0  0  0
   27.2648  -20.8280   -9.6454 C   0  0  0  0  0  0  0  0  0  0  0  0
   24.7375  -22.4091  -12.5950 C   0  0  0  0  0  0  0  0  0  0  0  0
   23.6695  -21.7883  -12.3600 O   0  0  0  0  0  0  0  0  0  0  0  0
   24.8122  -23.7824  -12.3692 O   0  0  0  0  0  0  0  0  0  0  0  0
  2  1  1  6
  2  3  1  0
  2  4  1  0
  4  5  1  1
  6 11  1  0
  6  4  1  0
  7  6  2  0
  9  8  1  0
 10 11  1  0
 10  9  1  6
 12 10  1  0
 13 12  2  0
 14 12  1  0
 15 16  1  1
 15 14  1  0
 17 16  1  0
 18 17  2  0
 19 20  1  0
 19 18  1  0
 20 25  2  0
 21 20  1  0
 21 22  2  0
 22 23  1  0
 23 24  2  0
 25 17  1  0
 25 24  1  0
 26 15  1  0
 27 26  2  0
 28 26  1  0
M  END
$$$$
