VSW.pdb
     RDKit          3D

 28 29  0  0  1  0  0  0  0  0999 V2000
   26.5677  -20.7555  -18.8255 C   0  0  0  0  0  0  0  0  0  0  0  0
   27.1356  -21.1714  -17.4957 C   0  0  1  0  0  0  0  0  0  0  0  0
   28.6346  -20.9861  -17.5578 C   0  0  0  0  0  0  0  0  0  0  0  0
   26.5563  -20.3886  -16.3461 C   0  0  2  0  0  0  0  0  0  0  0  0
   27.3513  -20.5758  -15.1590 N   0  0  0  0  0  0  0  0  0  0  0  0
   25.1197  -20.6929  -16.1108 C   0  0  0  0  0  0  0  0  0  0  0  0
   24.2664  -20.4694  -16.9920 O   0  0  0  0  0  0  0  0  0  0  0  0
   23.7846  -21.4339  -12.2270 O   0  0  0  0  0  0  0  0  0  0  0  0
   23.1141  -22.1703  -13.2284 C   0  0  0  0  0  0  0  0  0  0  0  0
   23.3081  -21.5332  -14.5744 C   0  0  2  0  0  0  0  0  0  0  0  0
   24.6719  -21.2420  -14.8907 N   0  0  0  0  0  0  0  0  0  0  0  0
   22.5661  -20.2331  -14.5255 C   0  0  0  0  0  0  0  0  0  0  0  0
   23.0970  -19.1852  -14.0571 O   0  0  0  0  0  0  0  0  0  0  0  0
   21.2326  -20.1138  -15.0017 N   0  0  0  0  0  0  0  0  0  0  0  0
   20.5571  -18.8393  -14.9898 C   0  0  1  0  0  0  0  0  0  0  0  0
   21.0604  -17.8962  -16.0602 C   0  0  0  0  0  0  0  0  0  0  0  0
   20.3964  -18.0460  -17.3597 C   0  0  0  0  0  0  0  0  0  0  0  0
   19.1741  -17.5261  -17.7669 C   0  0  0  0  0  0  0  0  0  0  0  0
   18.9657  -17.8741  -19.0387 N   0  0  0  0  0  0  0  0  0  0  0  0
   20.0094  -18.6185  -19.5163 C   0  0  0  0  0  0  0  0  0  0  0  0
   20.2316  -19.1958  -20.7483 C   0  0  0  0  0  0  0  0  0  0  0  0
   21.3821  -19.9166  -20.9722 C   0  0  0  0  0  0  0  0  0  0  0  0
   22.2820  -20.0373  -19.9429 C   0  0  0  0  0  0  0  0  0  0  0  0
   22.0435  -19.4561  -18.7251 C   0  0  0  0  0  0  0  0  0  0  0  0
   20.8895  -18.7118  -18.4468 C   0  0  0  0  0  0  0  0  0  0  0  0
   19.1020  -19.0305  -15.2217 C   0  0  0  0  0  0  0  0  0  0  0  0
   18.7024  -20.1772  -15.5482 O   0  0  0  0  0  0  0  0  0  0  0  0
   18.1907  -17.9846  -15.0870 O   0  0  0  0  0  0  0  0  0  0  0  0
  2  1  1  6
  2  3  1  0
  2  4  1  0
  4  5  1  1
  6 11  1  0
  6  4  1  0
  7  6  2  0
  9  8  1  0
 10 11  1  0
 10  9  1  1
 12 10  1  0
 13 12  2  0
 14 12  1  0
 15 16  1  6
 15 14  1  0
 17 16  1  0
 18 17  2  0
 19 20  1  0
 19 18  1  0
 20 25  2  0
 21 20  1  0
 21 22  2  0
 22 23  1  0
 23 24  2  0
 25 17  1  0
 25 24  1  0
 26 15  1  0
 27 26  2  0
 28 26  1  0
M  END
$$$$
