VSW.pdb
     RDKit          3D

 28 29  0  0  1  0  0  0  0  0999 V2000
   19.3336  -22.0071  -18.1694 C   0  0  0  0  0  0  0  0  0  0  0  0
   20.4035  -22.6023  -17.2948 C   0  0  1  0  0  0  0  0  0  0  0  0
   21.2389  -23.5241  -18.1535 C   0  0  0  0  0  0  0  0  0  0  0  0
   21.2727  -21.5561  -16.6467 C   0  0  2  0  0  0  0  0  0  0  0  0
   21.8269  -20.6752  -17.6432 N   0  0  0  0  0  0  0  0  0  0  0  0
   22.3233  -22.1437  -15.7732 C   0  0  0  0  0  0  0  0  0  0  0  0
   22.0174  -22.7888  -14.7510 O   0  0  0  0  0  0  0  0  0  0  0  0
   26.3099  -21.1576  -16.5125 O   0  0  0  0  0  0  0  0  0  0  0  0
   26.1130  -22.4242  -15.9197 C   0  0  0  0  0  0  0  0  0  0  0  0
   24.7650  -22.4979  -15.2620 C   0  0  2  0  0  0  0  0  0  0  0  0
   23.6952  -21.9944  -16.0665 N   0  0  0  0  0  0  0  0  0  0  0  0
   24.8560  -21.6385  -14.0387 C   0  0  0  0  0  0  0  0  0  0  0  0
   24.3003  -20.5039  -13.9840 O   0  0  0  0  0  0  0  0  0  0  0  0
   25.5695  -22.0552  -12.8826 N   0  0  0  0  0  0  0  0  0  0  0  0
   25.7375  -21.1652  -11.7599 C   0  0  1  0  0  0  0  0  0  0  0  0
   26.4618  -21.8116  -10.5995 C   0  0  0  0  0  0  0  0  0  0  0  0
   26.5889  -20.9569   -9.4139 C   0  0  0  0  0  0  0  0  0  0  0  0
   25.5999  -20.2212   -8.7729 C   0  0  0  0  0  0  0  0  0  0  0  0
   26.1396  -19.6152   -7.7130 N   0  0  0  0  0  0  0  0  0  0  0  0
   27.4707  -19.9129   -7.6081 C   0  0  0  0  0  0  0  0  0  0  0  0
   28.4258  -19.5196   -6.6951 C   0  0  0  0  0  0  0  0  0  0  0  0
   29.7222  -19.9630   -6.8225 C   0  0  0  0  0  0  0  0  0  0  0  0
   30.0225  -20.7947   -7.8722 C   0  0  0  0  0  0  0  0  0  0  0  0
   29.0593  -21.1748   -8.7696 C   0  0  0  0  0  0  0  0  0  0  0  0
   27.7261  -20.7525   -8.6836 C   0  0  0  0  0  0  0  0  0  0  0  0
   26.5308  -19.9761  -12.1652 C   0  0  0  0  0  0  0  0  0  0  0  0
   27.5925  -20.1675  -12.8113 O   0  0  0  0  0  0  0  0  0  0  0  0
   26.1287  -18.6795  -11.8494 O   0  0  0  0  0  0  0  0  0  0  0  0
  2  1  1  6
  2  3  1  0
  2  4  1  0
  4  5  1  6
  6 11  1  0
  6  4  1  0
  7  6  2  0
  9  8  1  0
 10 11  1  0
 10  9  1  6
 12 10  1  0
 13 12  2  0
 14 12  1  0
 15 16  1  1
 15 14  1  0
 17 16  1  0
 18 17  2  0
 19 20  1  0
 19 18  1  0
 20 25  2  0
 21 20  1  0
 21 22  2  0
 22 23  1  0
 23 24  2  0
 25 17  1  0
 25 24  1  0
 26 15  1  0
 27 26  2  0
 28 26  1  0
M  END
$$$$
