VSW.pdb
     RDKit          3D

 28 29  0  0  1  0  0  0  0  0999 V2000
   27.4829  -35.5830  -10.7075 C   0  0  0  0  0  0  0  0  0  0  0  0
   26.0859  -35.1598  -11.0728 C   0  0  1  0  0  0  0  0  0  0  0  0
   25.9815  -35.1723  -12.5808 C   0  0  0  0  0  0  0  0  0  0  0  0
   25.0320  -36.0488  -10.4654 C   0  0  2  0  0  0  0  0  0  0  0  0
   23.7172  -35.6137  -10.8631 N   0  0  0  0  0  0  0  0  0  0  0  0
   25.1600  -36.1636   -8.9882 C   0  0  0  0  0  0  0  0  0  0  0  0
   24.8453  -35.2142   -8.2437 O   0  0  0  0  0  0  0  0  0  0  0  0
   26.7258  -39.7084   -7.3520 O   0  0  0  0  0  0  0  0  0  0  0  0
   25.8472  -38.9607   -6.5373 C   0  0  0  0  0  0  0  0  0  0  0  0
   25.8161  -37.5234   -6.9710 C   0  0  2  0  0  0  0  0  0  0  0  0
   25.6385  -37.3424   -8.3783 N   0  0  0  0  0  0  0  0  0  0  0  0
   27.1523  -36.9538   -6.6054 C   0  0  0  0  0  0  0  0  0  0  0  0
   28.1774  -37.1619   -7.3161 O   0  0  0  0  0  0  0  0  0  0  0  0
   27.3329  -36.1539   -5.4448 N   0  0  0  0  0  0  0  0  0  0  0  0
   28.6251  -35.5969   -5.1277 C   0  0  1  0  0  0  0  0  0  0  0  0
   28.7978  -34.1829   -5.6371 C   0  0  0  0  0  0  0  0  0  0  0  0
   27.6240  -33.3236   -5.4470 C   0  0  0  0  0  0  0  0  0  0  0  0
   26.9796  -32.9965   -4.2604 C   0  0  0  0  0  0  0  0  0  0  0  0
   25.9785  -32.1580   -4.5366 N   0  0  0  0  0  0  0  0  0  0  0  0
   25.9163  -31.9003   -5.8788 C   0  0  0  0  0  0  0  0  0  0  0  0
   25.0603  -31.1137   -6.6195 C   0  0  0  0  0  0  0  0  0  0  0  0
   25.2100  -31.0318   -7.9849 C   0  0  0  0  0  0  0  0  0  0  0  0
   26.2236  -31.7490   -8.5699 C   0  0  0  0  0  0  0  0  0  0  0  0
   27.0648  -32.5254   -7.8167 C   0  0  0  0  0  0  0  0  0  0  0  0
   26.9553  -32.6416   -6.4247 C   0  0  0  0  0  0  0  0  0  0  0  0
   28.8176  -35.5597   -3.6549 C   0  0  0  0  0  0  0  0  0  0  0  0
   27.8454  -35.8808   -2.9247 O   0  0  0  0  0  0  0  0  0  0  0  0
   30.0299  -35.1836   -3.0794 O   0  0  0  0  0  0  0  0  0  0  0  0
  2  1  1  6
  2  3  1  0
  2  4  1  0
  4  5  1  1
  6 11  1  0
  6  4  1  0
  7  6  2  0
  9  8  1  0
 10 11  1  0
 10  9  1  6
 12 10  1  0
 13 12  2  0
 14 12  1  0
 15 16  1  1
 15 14  1  0
 17 16  1  0
 18 17  2  0
 19 20  1  0
 19 18  1  0
 20 25  2  0
 21 20  1  0
 21 22  2  0
 22 23  1  0
 23 24  2  0
 25 17  1  0
 25 24  1  0
 26 15  1  0
 27 26  2  0
 28 26  1  0
M  END
$$$$
