VSW.pdb
     RDKit          3D

 28 29  0  0  1  0  0  0  0  0999 V2000
   27.5597  -20.6333  -18.5011 C   0  0  0  0  0  0  0  0  0  0  0  0
   28.7510  -19.7677  -18.8100 C   0  0  1  0  0  0  0  0  0  0  0  0
   28.8647  -19.6620  -20.3137 C   0  0  0  0  0  0  0  0  0  0  0  0
   28.6490  -18.3971  -18.1929 C   0  0  2  0  0  0  0  0  0  0  0  0
   29.7733  -17.5849  -18.5834 N   0  0  0  0  0  0  0  0  0  0  0  0
   28.4792  -18.4440  -16.7161 C   0  0  0  0  0  0  0  0  0  0  0  0
   29.4498  -18.6749  -15.9682 O   0  0  0  0  0  0  0  0  0  0  0  0
   26.8548  -15.7945  -14.7177 O   0  0  0  0  0  0  0  0  0  0  0  0
   26.2379  -16.9718  -14.2403 C   0  0  0  0  0  0  0  0  0  0  0  0
   26.9892  -18.1880  -14.7004 C   0  0  2  0  0  0  0  0  0  0  0  0
   27.2229  -18.2303  -16.1106 N   0  0  0  0  0  0  0  0  0  0  0  0
   26.1283  -19.3618  -14.3478 C   0  0  0  0  0  0  0  0  0  0  0  0
   25.2732  -19.8225  -15.1576 O   0  0  0  0  0  0  0  0  0  0  0  0
   26.2301  -20.0135  -13.0891 N   0  0  0  0  0  0  0  0  0  0  0  0
   25.4238  -21.1721  -12.7919 C   0  0  1  0  0  0  0  0  0  0  0  0
   25.9466  -21.9671  -11.6158 C   0  0  0  0  0  0  0  0  0  0  0  0
   26.1848  -21.1723  -10.4060 C   0  0  0  0  0  0  0  0  0  0  0  0
   25.2627  -20.4630   -9.6465 C   0  0  0  0  0  0  0  0  0  0  0  0
   25.8984  -19.9127   -8.6097 N   0  0  0  0  0  0  0  0  0  0  0  0
   27.2306  -20.2231   -8.6357 C   0  0  0  0  0  0  0  0  0  0  0  0
   28.2653  -19.8806   -7.7916 C   0  0  0  0  0  0  0  0  0  0  0  0
   29.5412  -20.3248   -8.0528 C   0  0  0  0  0  0  0  0  0  0  0  0
   29.7408  -21.1059   -9.1636 C   0  0  0  0  0  0  0  0  0  0  0  0
   28.6995  -21.4360   -9.9908 C   0  0  0  0  0  0  0  0  0  0  0  0
   27.3831  -21.0106   -9.7687 C   0  0  0  0  0  0  0  0  0  0  0  0
   24.0364  -20.7570  -12.4596 C   0  0  0  0  0  0  0  0  0  0  0  0
   23.8313  -19.5456  -12.1916 O   0  0  0  0  0  0  0  0  0  0  0  0
   22.9801  -21.6660  -12.4397 O   0  0  0  0  0  0  0  0  0  0  0  0
  2  1  1  6
  2  3  1  0
  2  4  1  0
  4  5  1  1
  6 11  1  0
  6  4  1  0
  7  6  2  0
  9  8  1  0
 10 11  1  0
 10  9  1  6
 12 10  1  0
 13 12  2  0
 14 12  1  0
 15 16  1  1
 15 14  1  0
 17 16  1  0
 18 17  2  0
 19 20  1  0
 19 18  1  0
 20 25  2  0
 21 20  1  0
 21 22  2  0
 22 23  1  0
 23 24  2  0
 25 17  1  0
 25 24  1  0
 26 15  1  0
 27 26  2  0
 28 26  1  0
M  END
$$$$
