VSW.pdb
     RDKit          3D

 28 29  0  0  1  0  0  0  0  0999 V2000
   23.1873  -19.0019  -17.9096 C   0  0  0  0  0  0  0  0  0  0  0  0
   22.9226  -18.7464  -16.4506 C   0  0  1  0  0  0  0  0  0  0  0  0
   21.4569  -19.0146  -16.1956 C   0  0  0  0  0  0  0  0  0  0  0  0
   23.7776  -19.5966  -15.5473 C   0  0  2  0  0  0  0  0  0  0  0  0
   23.5494  -20.9950  -15.8091 N   0  0  0  0  0  0  0  0  0  0  0  0
   23.6029  -19.2612  -14.1090 C   0  0  0  0  0  0  0  0  0  0  0  0
   23.8761  -18.1226  -13.6806 O   0  0  0  0  0  0  0  0  0  0  0  0
   21.5474  -21.9321  -11.7337 O   0  0  0  0  0  0  0  0  0  0  0  0
   21.6883  -20.6211  -11.2278 C   0  0  0  0  0  0  0  0  0  0  0  0
   22.9173  -19.9656  -11.7891 C   0  0  2  0  0  0  0  0  0  0  0  0
   23.1249  -20.2116  -13.1824 N   0  0  0  0  0  0  0  0  0  0  0  0
   24.0754  -20.5575  -11.0463 C   0  0  0  0  0  0  0  0  0  0  0  0
   24.7660  -21.4965  -11.5367 O   0  0  0  0  0  0  0  0  0  0  0  0
   24.4538  -20.0940   -9.7574 N   0  0  0  0  0  0  0  0  0  0  0  0
   25.5623  -20.6929   -9.0550 C   0  0  1  0  0  0  0  0  0  0  0  0
   26.6566  -19.7011   -8.7273 C   0  0  0  0  0  0  0  0  0  0  0  0
   27.8162  -20.2837   -8.0431 C   0  0  0  0  0  0  0  0  0  0  0  0
   28.6820  -21.2682   -8.5029 C   0  0  0  0  0  0  0  0  0  0  0  0
   29.6208  -21.4760   -7.5770 N   0  0  0  0  0  0  0  0  0  0  0  0
   29.4242  -20.6631   -6.4943 C   0  0  0  0  0  0  0  0  0  0  0  0
   30.1221  -20.5301   -5.3130 C   0  0  0  0  0  0  0  0  0  0  0  0
   29.7013  -19.6269   -4.3640 C   0  0  0  0  0  0  0  0  0  0  0  0
   28.5824  -18.8786   -4.6326 C   0  0  0  0  0  0  0  0  0  0  0  0
   27.9020  -19.0250   -5.8129 C   0  0  0  0  0  0  0  0  0  0  0  0
   28.2897  -19.9287   -6.8111 C   0  0  0  0  0  0  0  0  0  0  0  0
   25.0975  -21.2749   -7.7694 C   0  0  0  0  0  0  0  0  0  0  0  0
   25.9626  -21.7493   -6.9897 O   0  0  0  0  0  0  0  0  0  0  0  0
   23.7490  -21.3045   -7.4187 O   0  0  0  0  0  0  0  0  0  0  0  0
  2  1  1  6
  2  3  1  0
  2  4  1  0
  4  5  1  1
  6 11  1  0
  6  4  1  0
  7  6  2  0
  9  8  1  0
 10 11  1  0
 10  9  1  1
 12 10  1  0
 13 12  2  0
 14 12  1  0
 15 16  1  1
 15 14  1  0
 17 16  1  0
 18 17  2  0
 19 20  1  0
 19 18  1  0
 20 25  2  0
 21 20  1  0
 21 22  2  0
 22 23  1  0
 23 24  2  0
 25 17  1  0
 25 24  1  0
 26 15  1  0
 27 26  2  0
 28 26  1  0
M  END
$$$$
