VSW.pdb
     RDKit          3D

 28 29  0  0  1  0  0  0  0  0999 V2000
   29.0300  -16.6690  -16.4221 C   0  0  0  0  0  0  0  0  0  0  0  0
   27.6847  -17.2870  -16.1532 C   0  0  1  0  0  0  0  0  0  0  0  0
   26.9959  -16.4487  -15.1007 C   0  0  0  0  0  0  0  0  0  0  0  0
   26.8311  -17.3821  -17.3911 C   0  0  2  0  0  0  0  0  0  0  0  0
   26.7922  -16.1136  -18.0736 N   0  0  0  0  0  0  0  0  0  0  0  0
   25.4687  -17.9078  -17.1097 C   0  0  0  0  0  0  0  0  0  0  0  0
   24.6035  -17.1869  -16.5746 O   0  0  0  0  0  0  0  0  0  0  0  0
   24.4047  -22.0568  -17.8520 O   0  0  0  0  0  0  0  0  0  0  0  0
   23.4851  -20.9946  -17.9965 C   0  0  0  0  0  0  0  0  0  0  0  0
   23.8581  -19.8455  -17.1047 C   0  0  2  0  0  0  0  0  0  0  0  0
   25.1068  -19.2320  -17.4354 N   0  0  0  0  0  0  0  0  0  0  0  0
   23.9849  -20.4179  -15.7264 C   0  0  0  0  0  0  0  0  0  0  0  0
   25.1145  -20.6440  -15.2049 O   0  0  0  0  0  0  0  0  0  0  0  0
   22.8447  -20.7343  -14.9395 N   0  0  0  0  0  0  0  0  0  0  0  0
   22.9764  -21.0143  -13.5306 C   0  0  1  0  0  0  0  0  0  0  0  0
   23.6437  -19.8916  -12.7672 C   0  0  0  0  0  0  0  0  0  0  0  0
   24.8167  -20.3031  -11.9881 C   0  0  0  0  0  0  0  0  0  0  0  0
   26.0993  -20.5802  -12.4445 C   0  0  0  0  0  0  0  0  0  0  0  0
   26.8684  -20.8821  -11.3961 N   0  0  0  0  0  0  0  0  0  0  0  0
   26.1508  -20.8210  -10.2329 C   0  0  0  0  0  0  0  0  0  0  0  0
   26.5120  -21.0539   -8.9231 C   0  0  0  0  0  0  0  0  0  0  0  0
   25.5780  -20.9305   -7.9202 C   0  0  0  0  0  0  0  0  0  0  0  0
   24.2985  -20.5742   -8.2664 C   0  0  0  0  0  0  0  0  0  0  0  0
   23.9585  -20.3465   -9.5741 C   0  0  0  0  0  0  0  0  0  0  0  0
   24.8716  -20.4576  -10.6311 C   0  0  0  0  0  0  0  0  0  0  0  0
   21.6362  -21.2221  -12.9239 C   0  0  0  0  0  0  0  0  0  0  0  0
   20.6349  -20.7717  -13.5370 O   0  0  0  0  0  0  0  0  0  0  0  0
   21.4713  -21.8927  -11.7133 O   0  0  0  0  0  0  0  0  0  0  0  0
  2  1  1  6
  2  3  1  0
  2  4  1  0
  4  5  1  1
  6 11  1  0
  6  4  1  0
  7  6  2  0
  9  8  1  0
 10 11  1  0
 10  9  1  6
 12 10  1  0
 13 12  2  0
 14 12  1  0
 15 16  1  1
 15 14  1  0
 17 16  1  0
 18 17  2  0
 19 20  1  0
 19 18  1  0
 20 25  2  0
 21 20  1  0
 21 22  2  0
 22 23  1  0
 23 24  2  0
 25 17  1  0
 25 24  1  0
 26 15  1  0
 27 26  2  0
 28 26  1  0
M  END
$$$$
