VSW.pdb
     RDKit          3D

 28 29  0  0  1  0  0  0  0  0999 V2000
   20.7912  -13.7977  -18.0055 C   0  0  0  0  0  0  0  0  0  0  0  0
   19.8091  -12.6577  -18.0135 C   0  0  1  0  0  0  0  0  0  0  0  0
   19.0889  -12.6809  -19.3423 C   0  0  0  0  0  0  0  0  0  0  0  0
   18.8212  -12.7341  -16.8785 C   0  0  2  0  0  0  0  0  0  0  0  0
   18.1269  -13.9965  -16.9004 N   0  0  0  0  0  0  0  0  0  0  0  0
   17.8831  -11.5802  -16.8557 C   0  0  0  0  0  0  0  0  0  0  0  0
   16.8449  -11.5870  -17.5461 O   0  0  0  0  0  0  0  0  0  0  0  0
   17.7214   -9.1285  -13.6656 O   0  0  0  0  0  0  0  0  0  0  0  0
   16.7414   -8.9630  -14.6689 C   0  0  0  0  0  0  0  0  0  0  0  0
   17.3118   -9.2717  -16.0233 C   0  0  2  0  0  0  0  0  0  0  0  0
   18.1310  -10.4433  -16.0579 N   0  0  0  0  0  0  0  0  0  0  0  0
   18.1766   -8.1027  -16.3822 C   0  0  0  0  0  0  0  0  0  0  0  0
   19.4140   -8.0900  -16.1216 O   0  0  0  0  0  0  0  0  0  0  0  0
   17.6501   -6.9535  -17.0315 N   0  0  0  0  0  0  0  0  0  0  0  0
   18.5092   -5.8518  -17.3909 C   0  0  1  0  0  0  0  0  0  0  0  0
   17.8379   -4.8585  -18.3135 C   0  0  0  0  0  0  0  0  0  0  0  0
   18.6910   -3.7354  -18.7172 C   0  0  0  0  0  0  0  0  0  0  0  0
   20.0687   -3.7217  -18.8961 C   0  0  0  0  0  0  0  0  0  0  0  0
   20.4334   -2.5033  -19.3017 N   0  0  0  0  0  0  0  0  0  0  0  0
   19.3459   -1.6798  -19.4059 C   0  0  0  0  0  0  0  0  0  0  0  0
   19.2340   -0.3563  -19.7747 C   0  0  0  0  0  0  0  0  0  0  0  0
   17.9997    0.2517  -19.7878 C   0  0  0  0  0  0  0  0  0  0  0  0
   16.9058   -0.4946  -19.4265 C   0  0  0  0  0  0  0  0  0  0  0  0
   17.0371   -1.8092  -19.0630 C   0  0  0  0  0  0  0  0  0  0  0  0
   18.2699   -2.4743  -19.0344 C   0  0  0  0  0  0  0  0  0  0  0  0
   18.9237   -5.1091  -16.1726 C   0  0  0  0  0  0  0  0  0  0  0  0
   18.0752   -4.9575  -15.2569 O   0  0  0  0  0  0  0  0  0  0  0  0
   20.2083   -4.5881  -16.0287 O   0  0  0  0  0  0  0  0  0  0  0  0
  2  1  1  6
  2  3  1  0
  2  4  1  0
  4  5  1  6
  6 11  1  0
  6  4  1  0
  7  6  2  0
  9  8  1  0
 10 11  1  0
 10  9  1  1
 12 10  1  0
 13 12  2  0
 14 12  1  0
 15 16  1  6
 15 14  1  0
 17 16  1  0
 18 17  2  0
 19 20  1  0
 19 18  1  0
 20 25  2  0
 21 20  1  0
 21 22  2  0
 22 23  1  0
 23 24  2  0
 25 17  1  0
 25 24  1  0
 26 15  1  0
 27 26  2  0
 28 26  1  0
M  END
$$$$
