WTT.pdb
     RDKit          3D

 29 30  0  0  1  0  0  0  0  0999 V2000
    5.8597  -18.1896   24.6676 N   0  0  0  0  0  0  0  0  0  0  0  0
    6.6083  -16.9978   24.3971 C   0  0  1  0  0  0  0  0  0  0  0  0
    7.2905  -16.5397   25.6619 C   0  0  0  0  0  0  0  0  0  0  0  0
    6.6284  -15.3100   26.1545 C   0  0  0  0  0  0  0  0  0  0  0  0
    5.3179  -15.2443   26.6175 C   0  0  0  0  0  0  0  0  0  0  0  0
    5.0251  -14.0035   26.9857 N   0  0  0  0  0  0  0  0  0  0  0  0
    6.1137  -13.2311   26.7798 C   0  0  0  0  0  0  0  0  0  0  0  0
    6.3540  -11.8793   26.9899 C   0  0  0  0  0  0  0  0  0  0  0  0
    7.5849  -11.3098   26.6918 C   0  0  0  0  0  0  0  0  0  0  0  0
    8.5735  -12.1327   26.1754 C   0  0  0  0  0  0  0  0  0  0  0  0
    8.3459  -13.4941   25.9589 C   0  0  0  0  0  0  0  0  0  0  0  0
    7.1274  -14.0326   26.2595 C   0  0  0  0  0  0  0  0  0  0  0  0
    7.5643  -17.1575   23.2740 C   0  0  0  0  0  0  0  0  0  0  0  0
    8.1459  -18.2508   23.0501 O   0  0  0  0  0  0  0  0  0  0  0  0
    7.2133  -14.8975   19.9153 C   0  0  0  0  0  0  0  0  0  0  0  0
    8.6368  -15.2743   20.1786 C   0  0  1  0  0  0  0  0  0  0  0  0
    9.2871  -14.0959   20.6235 O   0  0  0  0  0  0  0  0  0  0  0  0
    8.8015  -16.2771   21.2903 C   0  0  2  0  0  0  0  0  0  0  0  0
    7.8965  -16.1124   22.3763 N   0  0  0  0  0  0  0  0  0  0  0  0
   10.2274  -16.3688   21.7321 C   0  0  0  0  0  0  0  0  0  0  0  0
   10.6922  -15.5553   22.5732 O   0  0  0  0  0  0  0  0  0  0  0  0
   12.2886  -19.2475   23.3557 C   0  0  0  0  0  0  0  0  0  0  0  0
   12.9057  -18.8165   22.0613 C   0  0  1  0  0  0  0  0  0  0  0  0
   12.5508  -19.7396   21.0778 O   0  0  0  0  0  0  0  0  0  0  0  0
   12.4814  -17.4100   21.6686 C   0  0  2  0  0  0  0  0  0  0  0  0
   11.1177  -17.3604   21.2361 N   0  0  0  0  0  0  0  0  0  0  0  0
   13.4276  -16.8179   20.7131 C   0  0  0  0  0  0  0  0  0  0  0  0
   13.0788  -16.4706   19.5658 O   0  0  0  0  0  0  0  0  0  0  0  0
   14.7417  -16.6382   21.0894 O   0  0  0  0  0  0  0  0  0  0  0  0
  2 13  1  0
  2  1  1  1
  3  2  1  0
  3  4  1  0
  4  5  2  0
  4 12  1  0
  5  6  1  0
  6  7  1  0
  7  8  2  0
  8  9  1  0
 10  9  2  0
 11 10  1  0
 12 11  2  0
 12  7  1  0
 13 19  1  0
 14 13  2  0
 16 17  1  0
 16 15  1  1
 18 19  1  1
 18 16  1  0
 20 21  2  0
 20 18  1  0
 23 22  1  1
 23 25  1  0
 24 23  1  0
 25 26  1  6
 25 27  1  0
 26 20  1  0
 27 28  2  0
 27 29  1  0
M  END
$$$$
