WTT.pdb
     RDKit          3D

 29 30  0  0  1  0  0  0  0  0999 V2000
    6.0101  -17.9886   24.7157 N   0  0  0  0  0  0  0  0  0  0  0  0
    6.8142  -16.8539   24.3695 C   0  0  1  0  0  0  0  0  0  0  0  0
    7.5631  -16.3823   25.5909 C   0  0  0  0  0  0  0  0  0  0  0  0
    6.8539  -15.2232   26.1798 C   0  0  0  0  0  0  0  0  0  0  0  0
    5.5519  -15.2537   26.6695 C   0  0  0  0  0  0  0  0  0  0  0  0
    5.2083  -14.0569   27.1285 N   0  0  0  0  0  0  0  0  0  0  0  0
    6.2543  -13.2200   26.9576 C   0  0  0  0  0  0  0  0  0  0  0  0
    6.4344  -11.8757   27.2572 C   0  0  0  0  0  0  0  0  0  0  0  0
    7.6304  -11.2275   26.9775 C   0  0  0  0  0  0  0  0  0  0  0  0
    8.6458  -11.9636   26.3875 C   0  0  0  0  0  0  0  0  0  0  0  0
    8.4786  -13.3164   26.0807 C   0  0  0  0  0  0  0  0  0  0  0  0
    7.2937  -13.9332   26.3647 C   0  0  0  0  0  0  0  0  0  0  0  0
    7.7215  -17.1152   23.2252 C   0  0  0  0  0  0  0  0  0  0  0  0
    8.1652  -18.2674   22.9818 O   0  0  0  0  0  0  0  0  0  0  0  0
    7.4645  -14.7453   19.9794 C   0  0  0  0  0  0  0  0  0  0  0  0
    8.8229  -15.3648   20.0728 C   0  0  1  0  0  0  0  0  0  0  0  0
    9.7180  -14.3179   20.4076 O   0  0  0  0  0  0  0  0  0  0  0  0
    8.9498  -16.3806   21.1777 C   0  0  2  0  0  0  0  0  0  0  0  0
    8.1562  -16.1085   22.3274 N   0  0  0  0  0  0  0  0  0  0  0  0
   10.3837  -16.6437   21.5114 C   0  0  0  0  0  0  0  0  0  0  0  0
   10.9243  -16.0873   22.5031 O   0  0  0  0  0  0  0  0  0  0  0  0
   12.2635  -20.0745   22.0520 C   0  0  0  0  0  0  0  0  0  0  0  0
   12.9152  -19.2485   20.9866 C   0  0  1  0  0  0  0  0  0  0  0  0
   12.5328  -19.7547   19.7445 O   0  0  0  0  0  0  0  0  0  0  0  0
   12.5576  -17.7755   21.1096 C   0  0  2  0  0  0  0  0  0  0  0  0
   11.1981  -17.5194   20.7421 N   0  0  0  0  0  0  0  0  0  0  0  0
   13.5312  -16.9327   20.4021 C   0  0  0  0  0  0  0  0  0  0  0  0
   14.7384  -16.9079   20.7192 O   0  0  0  0  0  0  0  0  0  0  0  0
   13.1043  -16.1431   19.3556 O   0  0  0  0  0  0  0  0  0  0  0  0
  2 13  1  0
  2  1  1  1
  3  2  1  0
  3  4  1  0
  4  5  2  0
  4 12  1  0
  5  6  1  0
  6  7  1  0
  7  8  2  0
  8  9  1  0
 10  9  2  0
 11 10  1  0
 12 11  2  0
 12  7  1  0
 13 19  1  0
 14 13  2  0
 16 17  1  0
 16 15  1  1
 18 19  1  1
 18 16  1  0
 20 21  2  0
 20 18  1  0
 23 22  1  1
 23 25  1  0
 24 23  1  0
 25 26  1  6
 25 27  1  0
 26 20  1  0
 27 28  2  0
 27 29  1  0
M  END
$$$$
