WTT.pdb
     RDKit          3D

 29 30  0  0  1  0  0  0  0  0999 V2000
    6.3628  -17.3081   24.6545 N   0  0  0  0  0  0  0  0  0  0  0  0
    7.3101  -16.3720   24.1251 C   0  0  1  0  0  0  0  0  0  0  0  0
    8.0499  -15.7138   25.2629 C   0  0  0  0  0  0  0  0  0  0  0  0
    7.1724  -14.7010   25.8932 C   0  0  0  0  0  0  0  0  0  0  0  0
    5.9905  -14.9849   26.5704 C   0  0  0  0  0  0  0  0  0  0  0  0
    5.4390  -13.8634   27.0168 N   0  0  0  0  0  0  0  0  0  0  0  0
    6.2269  -12.8285   26.6533 C   0  0  0  0  0  0  0  0  0  0  0  0
    6.1240  -11.4585   26.8578 C   0  0  0  0  0  0  0  0  0  0  0  0
    7.0863  -10.5819   26.3740 C   0  0  0  0  0  0  0  0  0  0  0  0
    8.1591  -11.1151   25.6770 C   0  0  0  0  0  0  0  0  0  0  0  0
    8.2756  -12.4910   25.4639 C   0  0  0  0  0  0  0  0  0  0  0  0
    7.3171  -13.3343   25.9488 C   0  0  0  0  0  0  0  0  0  0  0  0
    8.2342  -16.9804   23.1367 C   0  0  0  0  0  0  0  0  0  0  0  0
    8.6345  -18.1683   23.2485 O   0  0  0  0  0  0  0  0  0  0  0  0
    8.4169  -15.9551   19.2558 C   0  0  0  0  0  0  0  0  0  0  0  0
    9.7832  -16.2752   19.7740 C   0  0  1  0  0  0  0  0  0  0  0  0
   10.4964  -15.0506   19.8054 O   0  0  0  0  0  0  0  0  0  0  0  0
    9.7881  -16.7880   21.1902 C   0  0  2  0  0  0  0  0  0  0  0  0
    8.7340  -16.2883   22.0056 N   0  0  0  0  0  0  0  0  0  0  0  0
   11.1349  -16.6285   21.8208 C   0  0  0  0  0  0  0  0  0  0  0  0
   11.3952  -15.6230   22.5326 O   0  0  0  0  0  0  0  0  0  0  0  0
   12.8580  -18.7461   24.4219 C   0  0  0  0  0  0  0  0  0  0  0  0
   13.7251  -18.6766   23.2032 C   0  0  1  0  0  0  0  0  0  0  0  0
   13.5495  -19.8518   22.4729 O   0  0  0  0  0  0  0  0  0  0  0  0
   13.4160  -17.4541   22.3532 C   0  0  2  0  0  0  0  0  0  0  0  0
   12.1737  -17.5850   21.6542 N   0  0  0  0  0  0  0  0  0  0  0  0
   14.5507  -17.1110   21.4852 C   0  0  0  0  0  0  0  0  0  0  0  0
   14.4420  -17.0636   20.2424 O   0  0  0  0  0  0  0  0  0  0  0  0
   15.7748  -16.8322   22.0548 O   0  0  0  0  0  0  0  0  0  0  0  0
  2 13  1  0
  2  1  1  1
  3  2  1  0
  3  4  1  0
  4  5  2  0
  4 12  1  0
  5  6  1  0
  6  7  1  0
  7  8  2  0
  8  9  1  0
 10  9  2  0
 11 10  1  0
 12 11  2  0
 12  7  1  0
 13 19  1  0
 14 13  2  0
 16 17  1  0
 16 15  1  1
 18 19  1  1
 18 16  1  0
 20 21  2  0
 20 18  1  0
 23 22  1  1
 23 25  1  0
 24 23  1  0
 25 26  1  6
 25 27  1  0
 26 20  1  0
 27 28  2  0
 27 29  1  0
M  END
$$$$
