WTT.pdb
     RDKit          3D

 29 30  0  0  1  0  0  0  0  0999 V2000
    6.1036  -18.2548   24.9340 N   0  0  0  0  0  0  0  0  0  0  0  0
    6.8791  -17.1209   24.5255 C   0  0  1  0  0  0  0  0  0  0  0  0
    7.6955  -16.6281   25.6941 C   0  0  0  0  0  0  0  0  0  0  0  0
    7.1254  -15.3516   26.1827 C   0  0  0  0  0  0  0  0  0  0  0  0
    5.8814  -15.2186   26.7917 C   0  0  0  0  0  0  0  0  0  0  0  0
    5.6633  -13.9496   27.1130 N   0  0  0  0  0  0  0  0  0  0  0  0
    6.7371  -13.2244   26.7320 C   0  0  0  0  0  0  0  0  0  0  0  0
    7.0317  -11.8703   26.8268 C   0  0  0  0  0  0  0  0  0  0  0  0
    8.2311  -11.3573   26.3505 C   0  0  0  0  0  0  0  0  0  0  0  0
    9.1317  -12.2392   25.7743 C   0  0  0  0  0  0  0  0  0  0  0  0
    8.8486  -13.6036   25.6723 C   0  0  0  0  0  0  0  0  0  0  0  0
    7.6627  -14.0859   26.1476 C   0  0  0  0  0  0  0  0  0  0  0  0
    7.7192  -17.3936   23.3335 C   0  0  0  0  0  0  0  0  0  0  0  0
    8.2645  -18.5129   23.1500 O   0  0  0  0  0  0  0  0  0  0  0  0
    6.9642  -15.5843   19.8276 C   0  0  0  0  0  0  0  0  0  0  0  0
    8.4248  -15.8785   19.9617 C   0  0  1  0  0  0  0  0  0  0  0  0
    9.0682  -14.6307   20.1571 O   0  0  0  0  0  0  0  0  0  0  0  0
    8.7660  -16.7087   21.1712 C   0  0  2  0  0  0  0  0  0  0  0  0
    7.9732  -16.4351   22.3211 N   0  0  0  0  0  0  0  0  0  0  0  0
   10.2337  -16.6745   21.4568 C   0  0  0  0  0  0  0  0  0  0  0  0
   10.7358  -15.7324   22.1244 O   0  0  0  0  0  0  0  0  0  0  0  0
   12.4338  -19.3229   23.2094 C   0  0  0  0  0  0  0  0  0  0  0  0
   13.0008  -19.0002   21.8617 C   0  0  1  0  0  0  0  0  0  0  0  0
   12.6572  -20.0285   20.9842 O   0  0  0  0  0  0  0  0  0  0  0  0
   12.5126  -17.6557   21.3454 C   0  0  2  0  0  0  0  0  0  0  0  0
   11.1239  -17.6844   20.9992 N   0  0  0  0  0  0  0  0  0  0  0  0
   13.3804  -17.1531   20.2716 C   0  0  0  0  0  0  0  0  0  0  0  0
   12.9367  -16.8745   19.1384 O   0  0  0  0  0  0  0  0  0  0  0  0
   14.7262  -16.9821   20.5172 O   0  0  0  0  0  0  0  0  0  0  0  0
  2 13  1  0
  2  1  1  1
  3  2  1  0
  3  4  1  0
  4  5  2  0
  4 12  1  0
  5  6  1  0
  6  7  1  0
  7  8  2  0
  8  9  1  0
 10  9  2  0
 11 10  1  0
 12 11  2  0
 12  7  1  0
 13 19  1  0
 14 13  2  0
 16 17  1  0
 16 15  1  1
 18 19  1  1
 18 16  1  0
 20 21  2  0
 20 18  1  0
 23 22  1  1
 23 25  1  0
 24 23  1  0
 25 26  1  6
 25 27  1  0
 26 20  1  0
 27 28  2  0
 27 29  1  0
M  END
$$$$
