WTT.pdb
     RDKit          3D

 29 30  0  0  1  0  0  0  0  0999 V2000
    5.9847  -17.5356   24.1659 N   0  0  0  0  0  0  0  0  0  0  0  0
    6.7220  -16.3811   23.7447 C   0  0  1  0  0  0  0  0  0  0  0  0
    7.7178  -16.0080   24.8144 C   0  0  0  0  0  0  0  0  0  0  0  0
    7.0924  -15.0419   25.7465 C   0  0  0  0  0  0  0  0  0  0  0  0
    6.0940  -15.3554   26.6637 C   0  0  0  0  0  0  0  0  0  0  0  0
    5.7468  -14.2731   27.3487 N   0  0  0  0  0  0  0  0  0  0  0  0
    6.4924  -13.2357   26.9106 C   0  0  0  0  0  0  0  0  0  0  0  0
    6.5375  -11.8967   27.2770 C   0  0  0  0  0  0  0  0  0  0  0  0
    7.4115  -11.0091   26.6630 C   0  0  0  0  0  0  0  0  0  0  0  0
    8.2429  -11.4994   25.6682 C   0  0  0  0  0  0  0  0  0  0  0  0
    8.2083  -12.8439   25.2896 C   0  0  0  0  0  0  0  0  0  0  0  0
    7.3406  -13.6987   25.9073 C   0  0  0  0  0  0  0  0  0  0  0  0
    7.3660  -16.5576   22.4200 C   0  0  0  0  0  0  0  0  0  0  0  0
    7.7159  -17.6910   21.9997 O   0  0  0  0  0  0  0  0  0  0  0  0
    6.9391  -13.6441   19.5531 C   0  0  0  0  0  0  0  0  0  0  0  0
    8.1737  -14.4651   19.3541 C   0  0  1  0  0  0  0  0  0  0  0  0
    9.2675  -13.6347   19.7054 O   0  0  0  0  0  0  0  0  0  0  0  0
    8.2583  -15.6610   20.2658 C   0  0  2  0  0  0  0  0  0  0  0  0
    7.6361  -15.4852   21.5337 N   0  0  0  0  0  0  0  0  0  0  0  0
    9.6629  -16.1633   20.3734 C   0  0  0  0  0  0  0  0  0  0  0  0
   10.4250  -15.7479   21.2856 O   0  0  0  0  0  0  0  0  0  0  0  0
   13.0397  -19.6050   19.4021 C   0  0  0  0  0  0  0  0  0  0  0  0
   11.6458  -19.0840   19.2358 C   0  0  1  0  0  0  0  0  0  0  0  0
   10.7876  -19.8780   19.9963 O   0  0  0  0  0  0  0  0  0  0  0  0
   11.5333  -17.6209   19.6348 C   0  0  2  0  0  0  0  0  0  0  0  0
   10.2030  -17.1188   19.4695 N   0  0  0  0  0  0  0  0  0  0  0  0
   12.5600  -16.8088   18.9673 C   0  0  0  0  0  0  0  0  0  0  0  0
   12.3166  -16.1557   17.9316 O   0  0  0  0  0  0  0  0  0  0  0  0
   13.8322  -16.7630   19.4964 O   0  0  0  0  0  0  0  0  0  0  0  0
  2 13  1  0
  2  1  1  1
  3  2  1  0
  3  4  1  0
  4  5  2  0
  4 12  1  0
  5  6  1  0
  6  7  1  0
  7  8  2  0
  8  9  1  0
 10  9  2  0
 11 10  1  0
 12 11  2  0
 12  7  1  0
 13 19  1  0
 14 13  2  0
 16 17  1  0
 16 15  1  1
 18 19  1  1
 18 16  1  0
 20 21  2  0
 20 18  1  0
 23 22  1  1
 23 25  1  0
 24 23  1  0
 25 26  1  6
 25 27  1  0
 26 20  1  0
 27 28  2  0
 27 29  1  0
M  END
$$$$
