WTT.pdb
     RDKit          3D

 29 30  0  0  1  0  0  0  0  0999 V2000
    6.6182  -17.2739   23.7598 N   0  0  0  0  0  0  0  0  0  0  0  0
    7.9026  -16.6398   23.7129 C   0  0  1  0  0  0  0  0  0  0  0  0
    8.3074  -16.2301   25.1070 C   0  0  0  0  0  0  0  0  0  0  0  0
    7.3654  -15.2016   25.6052 C   0  0  0  0  0  0  0  0  0  0  0  0
    6.0916  -15.4640   26.0997 C   0  0  0  0  0  0  0  0  0  0  0  0
    5.5012  -14.3329   26.4645 N   0  0  0  0  0  0  0  0  0  0  0  0
    6.3532  -13.3126   26.2253 C   0  0  0  0  0  0  0  0  0  0  0  0
    6.2466  -11.9412   26.4180 C   0  0  0  0  0  0  0  0  0  0  0  0
    7.2857  -11.0823   26.0848 C   0  0  0  0  0  0  0  0  0  0  0  0
    8.4395  -11.6348   25.5513 C   0  0  0  0  0  0  0  0  0  0  0  0
    8.5606  -13.0123   25.3521 C   0  0  0  0  0  0  0  0  0  0  0  0
    7.5257  -13.8380   25.6871 C   0  0  0  0  0  0  0  0  0  0  0  0
    8.9367  -17.4754   23.0547 C   0  0  0  0  0  0  0  0  0  0  0  0
    8.9707  -18.7248   23.2022 O   0  0  0  0  0  0  0  0  0  0  0  0
   10.3154  -17.3255   19.3340 C   0  0  0  0  0  0  0  0  0  0  0  0
   11.4494  -17.3774   20.3083 C   0  0  1  0  0  0  0  0  0  0  0  0
   11.9732  -16.0624   20.3831 O   0  0  0  0  0  0  0  0  0  0  0  0
   11.0267  -17.7300   21.7103 C   0  0  2  0  0  0  0  0  0  0  0  0
    9.9533  -16.9471   22.2206 N   0  0  0  0  0  0  0  0  0  0  0  0
   12.2008  -17.7779   22.6355 C   0  0  0  0  0  0  0  0  0  0  0  0
   12.5260  -16.7674   23.3126 O   0  0  0  0  0  0  0  0  0  0  0  0
   15.6272  -20.3636   25.0972 C   0  0  0  0  0  0  0  0  0  0  0  0
   14.3773  -20.3288   24.2734 C   0  0  1  0  0  0  0  0  0  0  0  0
   13.3113  -20.7318   25.0774 O   0  0  0  0  0  0  0  0  0  0  0  0
   14.1241  -18.9514   23.6807 C   0  0  2  0  0  0  0  0  0  0  0  0
   12.9975  -18.9445   22.7976 N   0  0  0  0  0  0  0  0  0  0  0  0
   15.3474  -18.3976   23.0843 C   0  0  0  0  0  0  0  0  0  0  0  0
   15.6210  -18.5488   21.8757 O   0  0  0  0  0  0  0  0  0  0  0  0
   16.2233  -17.6888   23.8788 O   0  0  0  0  0  0  0  0  0  0  0  0
  2 13  1  0
  2  1  1  1
  3  2  1  0
  3  4  1  0
  4  5  2  0
  4 12  1  0
  5  6  1  0
  6  7  1  0
  7  8  2  0
  8  9  1  0
 10  9  2  0
 11 10  1  0
 12 11  2  0
 12  7  1  0
 13 19  1  0
 14 13  2  0
 16 17  1  0
 16 15  1  6
 18 19  1  1
 18 16  1  0
 20 21  2  0
 20 18  1  0
 23 22  1  1
 23 25  1  0
 24 23  1  0
 25 26  1  6
 25 27  1  0
 26 20  1  0
 27 28  2  0
 27 29  1  0
M  END
$$$$
