WTT.pdb
     RDKit          3D

 29 30  0  0  1  0  0  0  0  0999 V2000
    6.4085  -16.6894   25.4482 N   0  0  0  0  0  0  0  0  0  0  0  0
    7.2663  -15.8253   24.6923 C   0  0  1  0  0  0  0  0  0  0  0  0
    8.5298  -15.5680   25.4750 C   0  0  0  0  0  0  0  0  0  0  0  0
    8.2217  -14.6786   26.6184 C   0  0  0  0  0  0  0  0  0  0  0  0
    8.4572  -14.9909   27.9537 C   0  0  0  0  0  0  0  0  0  0  0  0
    8.0720  -13.9876   28.7323 N   0  0  0  0  0  0  0  0  0  0  0  0
    7.5813  -13.0046   27.9469 C   0  0  0  0  0  0  0  0  0  0  0  0
    7.0516  -11.7536   28.2365 C   0  0  0  0  0  0  0  0  0  0  0  0
    6.6054  -10.9077   27.2295 C   0  0  0  0  0  0  0  0  0  0  0  0
    6.7038  -11.3490   25.9193 C   0  0  0  0  0  0  0  0  0  0  0  0
    7.2344  -12.6047   25.6134 C   0  0  0  0  0  0  0  0  0  0  0  0
    7.6671  -13.4199   26.6200 C   0  0  0  0  0  0  0  0  0  0  0  0
    7.5492  -16.3388   23.3295 C   0  0  0  0  0  0  0  0  0  0  0  0
    7.4473  -17.5612   23.0482 O   0  0  0  0  0  0  0  0  0  0  0  0
    6.7040  -14.3432   19.9556 C   0  0  0  0  0  0  0  0  0  0  0  0
    8.0034  -15.0727   19.8249 C   0  0  1  0  0  0  0  0  0  0  0  0
    9.0223  -14.0889   19.8823 O   0  0  0  0  0  0  0  0  0  0  0  0
    8.2833  -16.0186   20.9632 C   0  0  2  0  0  0  0  0  0  0  0  0
    7.9503  -15.5118   22.2508 N   0  0  0  0  0  0  0  0  0  0  0  0
    9.6778  -16.5546   20.8935 C   0  0  0  0  0  0  0  0  0  0  0  0
   10.4147  -16.5607   21.9144 O   0  0  0  0  0  0  0  0  0  0  0  0
   11.2691  -18.5128   22.0645 C   0  0  0  0  0  0  0  0  0  0  0  0
   11.5306  -18.9232   20.6484 C   0  0  1  0  0  0  0  0  0  0  0  0
   10.5786  -19.8757   20.2854 O   0  0  0  0  0  0  0  0  0  0  0  0
   11.5058  -17.7365   19.6977 C   0  0  2  0  0  0  0  0  0  0  0  0
   10.2357  -17.0763   19.6942 N   0  0  0  0  0  0  0  0  0  0  0  0
   11.9783  -18.1187   18.3600 C   0  0  0  0  0  0  0  0  0  0  0  0
   11.2164  -18.1431   17.3714 O   0  0  0  0  0  0  0  0  0  0  0  0
   13.3022  -18.4618   18.1854 O   0  0  0  0  0  0  0  0  0  0  0  0
  2 13  1  0
  2  1  1  1
  3  2  1  0
  3  4  1  0
  4  5  2  0
  4 12  1  0
  5  6  1  0
  6  7  1  0
  7  8  2  0
  8  9  1  0
 10  9  2  0
 11 10  1  0
 12 11  2  0
 12  7  1  0
 13 19  1  0
 14 13  2  0
 16 17  1  0
 16 15  1  1
 18 19  1  1
 18 16  1  0
 20 21  2  0
 20 18  1  0
 23 22  1  1
 23 25  1  0
 24 23  1  0
 25 26  1  6
 25 27  1  0
 26 20  1  0
 27 28  2  0
 27 29  1  0
M  END
$$$$
