VLE.pdb
     RDKit          3D

 25 24  0  0  1  0  0  0  0  0999 V2000
   15.4507  -11.8354  -18.0138 C   0  0  0  0  0  0  0  0  0  0  0  0
   16.4799  -11.0697  -17.1612 C   0  0  2  0  0  0  0  0  0  0  0  0
   17.0612  -10.0166  -18.0748 C   0  0  0  0  0  0  0  0  0  0  0  0
   17.4933  -12.1270  -16.7520 C   0  0  2  0  0  0  0  0  0  0  0  0
   16.8180  -13.0856  -15.8574 N   0  0  0  0  0  0  0  0  0  0  0  0
   18.6307  -11.5803  -15.9763 C   0  0  0  0  0  0  0  0  0  0  0  0
   18.4523  -11.0963  -14.7998 O   0  0  0  0  0  0  0  0  0  0  0  0
   24.8241  -11.7718  -15.4024 C   0  0  0  0  0  0  0  0  0  0  0  0
   23.5344  -11.0155  -15.2480 C   0  0  1  0  0  0  0  0  0  0  0  0
   23.8123   -9.6222  -15.8427 C   0  0  0  0  0  0  0  0  0  0  0  0
   22.3707  -11.5553  -15.9948 C   0  0  0  0  0  0  0  0  0  0  0  0
   21.0573  -10.8926  -15.7777 C   0  0  2  0  0  0  0  0  0  0  0  0
   19.9685  -11.5563  -16.4700 N   0  0  0  0  0  0  0  0  0  0  0  0
   21.1478   -9.4458  -16.0510 C   0  0  0  0  0  0  0  0  0  0  0  0
   21.1592   -9.0131  -17.2537 O   0  0  0  0  0  0  0  0  0  0  0  0
   21.2227   -8.4518  -15.0453 N   0  0  0  0  0  0  0  0  0  0  0  0
   21.1241   -7.0337  -15.3259 C   0  0  1  0  0  0  0  0  0  0  0  0
   19.6779   -6.6578  -15.6590 C   0  0  0  0  0  0  0  0  0  0  0  0
   19.5073   -5.1719  -15.7583 C   0  0  0  0  0  0  0  0  0  0  0  0
   18.0826   -4.9058  -16.0841 C   0  0  0  0  0  0  0  0  0  0  0  0
   17.6695   -3.7107  -16.1844 O   0  0  0  0  0  0  0  0  0  0  0  0
   21.4564   -6.2924  -14.1001 C   0  0  0  0  0  0  0  0  0  0  0  0
   21.5620   -6.9694  -12.9013 O   0  0  0  0  0  0  0  0  0  0  0  0
   17.1505   -5.9083  -16.2912 O   0  0  0  0  0  0  0  0  0  0  0  0
   21.6537   -5.0396  -14.0861 O   0  0  0  0  0  0  0  0  0  0  0  0
  2  1  1  6
  2  4  1  0
  2  3  1  0
  4  6  1  0
  4  5  1  1
  6  7  2  0
  9  8  1  6
 10  9  1  0
 11  9  1  0
 12 11  1  6
 13  6  1  0
 13 12  1  0
 14 12  1  0
 14 15  2  0
 16 14  1  0
 17 18  1  1
 17 16  1  0
 19 18  1  0
 19 20  1  0
 20 21  2  0
 22 17  1  0
 23 22  1  0
 24 20  1  0
 25 22  2  0
M  END
$$$$
