VLE.pdb
     RDKit          3D

 25 24  0  0  1  0  0  0  0  0999 V2000
   20.6184  -11.4764  -20.7284 C   0  0  0  0  0  0  0  0  0  0  0  0
   21.0628  -10.5787  -19.5583 C   0  0  2  0  0  0  0  0  0  0  0  0
   21.5496   -9.2968  -20.1918 C   0  0  0  0  0  0  0  0  0  0  0  0
   22.1729  -11.3652  -18.8789 C   0  0  2  0  0  0  0  0  0  0  0  0
   21.5847  -12.5970  -18.3203 N   0  0  0  0  0  0  0  0  0  0  0  0
   22.7815  -10.6505  -17.7330 C   0  0  0  0  0  0  0  0  0  0  0  0
   22.1377  -10.5062  -16.6308 O   0  0  0  0  0  0  0  0  0  0  0  0
   28.2208  -10.7290  -16.6224 C   0  0  0  0  0  0  0  0  0  0  0  0
   26.7217  -10.6753  -16.5275 C   0  0  1  0  0  0  0  0  0  0  0  0
   26.3899  -11.1958  -15.1164 C   0  0  0  0  0  0  0  0  0  0  0  0
   26.1123   -9.3251  -16.6203 C   0  0  0  0  0  0  0  0  0  0  0  0
   24.6301   -9.2537  -16.7169 C   0  0  2  0  0  0  0  0  0  0  0  0
   24.0921  -10.0895  -17.7739 N   0  0  0  0  0  0  0  0  0  0  0  0
   24.1744   -7.8517  -16.7709 C   0  0  0  0  0  0  0  0  0  0  0  0
   24.4829   -7.1080  -17.7637 O   0  0  0  0  0  0  0  0  0  0  0  0
   23.3848   -7.2353  -15.7702 N   0  0  0  0  0  0  0  0  0  0  0  0
   22.8283   -5.9047  -15.9097 C   0  0  1  0  0  0  0  0  0  0  0  0
   21.6472   -5.9228  -16.8836 C   0  0  0  0  0  0  0  0  0  0  0  0
   21.0241   -4.5657  -17.0139 C   0  0  0  0  0  0  0  0  0  0  0  0
   19.9014   -4.6797  -17.9799 C   0  0  0  0  0  0  0  0  0  0  0  0
   19.7744   -5.7294  -18.6808 O   0  0  0  0  0  0  0  0  0  0  0  0
   22.2693   -5.4955  -14.6126 C   0  0  0  0  0  0  0  0  0  0  0  0
   22.1007   -6.4359  -13.6156 O   0  0  0  0  0  0  0  0  0  0  0  0
   18.9579   -3.6844  -18.1692 O   0  0  0  0  0  0  0  0  0  0  0  0
   21.9263   -4.3015  -14.3573 O   0  0  0  0  0  0  0  0  0  0  0  0
  2  1  1  6
  2  4  1  0
  2  3  1  0
  4  6  1  0
  4  5  1  1
  6  7  2  0
  9  8  1  1
 10  9  1  0
 11  9  1  0
 12 11  1  6
 13  6  1  0
 13 12  1  0
 14 12  1  0
 14 15  2  0
 16 14  1  0
 17 18  1  6
 17 16  1  0
 19 18  1  0
 19 20  1  0
 20 21  2  0
 22 17  1  0
 23 22  1  0
 24 20  1  0
 25 22  2  0
M  END
$$$$
