VLE.pdb
     RDKit          3D

 25 24  0  0  1  0  0  0  0  0999 V2000
   22.5657  -38.9633   -5.9275 C   0  0  0  0  0  0  0  0  0  0  0  0
   21.7599  -37.9800   -6.7972 C   0  0  2  0  0  0  0  0  0  0  0  0
   20.6995  -38.8137   -7.4769 C   0  0  0  0  0  0  0  0  0  0  0  0
   22.7815  -37.4099   -7.7687 C   0  0  2  0  0  0  0  0  0  0  0  0
   23.4091  -38.5359   -8.4852 N   0  0  0  0  0  0  0  0  0  0  0  0
   23.8881  -36.6878   -7.0993 C   0  0  0  0  0  0  0  0  0  0  0  0
   24.9312  -37.3162   -6.6903 O   0  0  0  0  0  0  0  0  0  0  0  0
   25.2044  -31.4515   -8.5978 C   0  0  0  0  0  0  0  0  0  0  0  0
   25.1941  -32.8937   -8.1748 C   0  0  1  0  0  0  0  0  0  0  0  0
   26.5789  -33.4386   -8.5722 C   0  0  0  0  0  0  0  0  0  0  0  0
   25.0581  -33.1432   -6.7180 C   0  0  0  0  0  0  0  0  0  0  0  0
   24.9827  -34.5608   -6.2754 C   0  0  2  0  0  0  0  0  0  0  0  0
   23.8721  -35.2801   -6.8708 N   0  0  0  0  0  0  0  0  0  0  0  0
   25.0380  -34.6551   -4.8042 C   0  0  0  0  0  0  0  0  0  0  0  0
   23.9798  -34.4978   -4.1047 O   0  0  0  0  0  0  0  0  0  0  0  0
   26.2194  -34.9212   -4.0705 N   0  0  0  0  0  0  0  0  0  0  0  0
   26.2320  -35.1141   -2.6344 C   0  0  1  0  0  0  0  0  0  0  0  0
   27.6111  -35.5948   -2.1755 C   0  0  0  0  0  0  0  0  0  0  0  0
   27.6873  -35.6941   -0.6818 C   0  0  0  0  0  0  0  0  0  0  0  0
   29.0727  -36.0986   -0.3302 C   0  0  0  0  0  0  0  0  0  0  0  0
   29.9173  -36.3264   -1.2489 O   0  0  0  0  0  0  0  0  0  0  0  0
   26.0291  -33.8091   -1.9876 C   0  0  0  0  0  0  0  0  0  0  0  0
   25.3526  -33.7415   -0.7857 O   0  0  0  0  0  0  0  0  0  0  0  0
   29.5132  -36.2470    0.9738 O   0  0  0  0  0  0  0  0  0  0  0  0
   26.4499  -32.7216   -2.4862 O   0  0  0  0  0  0  0  0  0  0  0  0
  2  1  1  1
  2  4  1  0
  2  3  1  0
  4  6  1  0
  4  5  1  1
  6  7  2  0
  9  8  1  1
 10  9  1  0
 11  9  1  0
 12 11  1  1
 13  6  1  0
 13 12  1  0
 14 12  1  0
 14 15  2  0
 16 14  1  0
 17 18  1  1
 17 16  1  0
 19 18  1  0
 19 20  1  0
 20 21  2  0
 22 17  1  0
 23 22  1  0
 24 20  1  0
 25 22  2  0
M  END
$$$$
