VLE.pdb
     RDKit          3D

 25 24  0  0  1  0  0  0  0  0999 V2000
   28.3947  -20.9305  -14.5012 C   0  0  0  0  0  0  0  0  0  0  0  0
   27.8370  -20.6644  -15.9122 C   0  0  2  0  0  0  0  0  0  0  0  0
   28.9131  -19.8887  -16.6346 C   0  0  0  0  0  0  0  0  0  0  0  0
   26.5757  -19.8495  -15.6726 C   0  0  2  0  0  0  0  0  0  0  0  0
   26.9562  -18.6179  -14.9560 N   0  0  0  0  0  0  0  0  0  0  0  0
   25.5901  -20.5354  -14.8053 C   0  0  0  0  0  0  0  0  0  0  0  0
   25.0275  -21.6264  -15.1841 O   0  0  0  0  0  0  0  0  0  0  0  0
   25.8626  -20.3462   -9.1947 C   0  0  0  0  0  0  0  0  0  0  0  0
   25.6945  -20.7144  -10.6422 C   0  0  1  0  0  0  0  0  0  0  0  0
   25.8205  -22.2489  -10.6834 C   0  0  0  0  0  0  0  0  0  0  0  0
   24.3766  -20.3949  -11.2456 C   0  0  0  0  0  0  0  0  0  0  0  0
   24.2042  -20.6845  -12.6939 C   0  0  2  0  0  0  0  0  0  0  0  0
   25.2096  -20.0444  -13.5215 N   0  0  0  0  0  0  0  0  0  0  0  0
   22.8177  -20.4177  -13.1212 C   0  0  0  0  0  0  0  0  0  0  0  0
   22.3779  -19.2191  -13.1826 O   0  0  0  0  0  0  0  0  0  0  0  0
   21.8933  -21.4253  -13.4890 N   0  0  0  0  0  0  0  0  0  0  0  0
   20.5561  -21.1359  -13.9663 C   0  0  1  0  0  0  0  0  0  0  0  0
   19.9671  -22.3611  -14.6703 C   0  0  0  0  0  0  0  0  0  0  0  0
   18.5345  -22.1380  -15.0506 C   0  0  0  0  0  0  0  0  0  0  0  0
   18.2805  -22.8964  -16.3024 C   0  0  0  0  0  0  0  0  0  0  0  0
   19.2086  -23.5871  -16.8226 O   0  0  0  0  0  0  0  0  0  0  0  0
   19.6901  -20.8895  -12.8036 C   0  0  0  0  0  0  0  0  0  0  0  0
   20.0389  -21.4067  -11.5717 O   0  0  0  0  0  0  0  0  0  0  0  0
   17.0601  -22.8971  -16.9560 O   0  0  0  0  0  0  0  0  0  0  0  0
   18.6185  -20.2149  -12.8749 O   0  0  0  0  0  0  0  0  0  0  0  0
  2  1  1  1
  2  4  1  0
  2  3  1  0
  4  6  1  0
  4  5  1  1
  6  7  2  0
  9  8  1  1
 10  9  1  0
 11  9  1  0
 12 11  1  1
 13  6  1  0
 13 12  1  0
 14 12  1  0
 14 15  2  0
 16 14  1  0
 17 18  1  1
 17 16  1  0
 19 18  1  0
 19 20  1  0
 20 21  2  0
 22 17  1  0
 23 22  1  0
 24 20  1  0
 25 22  2  0
M  END
$$$$
