VLE.pdb
     RDKit          3D

 25 24  0  0  1  0  0  0  0  0999 V2000
   25.5327  -12.1877  -16.5144 C   0  0  0  0  0  0  0  0  0  0  0  0
   24.7209  -13.4768  -16.2869 C   0  0  2  0  0  0  0  0  0  0  0  0
   25.7401  -14.5879  -16.1960 C   0  0  0  0  0  0  0  0  0  0  0  0
   23.8311  -13.5850  -17.5153 C   0  0  2  0  0  0  0  0  0  0  0  0
   24.6855  -13.4615  -18.7111 N   0  0  0  0  0  0  0  0  0  0  0  0
   22.8338  -12.4943  -17.6150 C   0  0  0  0  0  0  0  0  0  0  0  0
   23.1335  -11.3783  -18.1761 O   0  0  0  0  0  0  0  0  0  0  0  0
   18.2229  -10.2958  -19.1900 C   0  0  0  0  0  0  0  0  0  0  0  0
   18.0862  -11.1651  -17.9716 C   0  0  1  0  0  0  0  0  0  0  0  0
   16.8219  -12.0089  -18.2201 C   0  0  0  0  0  0  0  0  0  0  0  0
   19.1861  -12.1339  -17.7374 C   0  0  0  0  0  0  0  0  0  0  0  0
   20.4953  -11.5823  -17.2978 C   0  0  2  0  0  0  0  0  0  0  0  0
   21.5051  -12.6069  -17.1089 N   0  0  0  0  0  0  0  0  0  0  0  0
   20.3249  -10.6877  -16.1373 C   0  0  0  0  0  0  0  0  0  0  0  0
   20.0783  -11.1688  -14.9790 O   0  0  0  0  0  0  0  0  0  0  0  0
   20.4199   -9.2765  -16.2031 N   0  0  0  0  0  0  0  0  0  0  0  0
   20.3188   -8.4216  -15.0374 C   0  0  1  0  0  0  0  0  0  0  0  0
   21.2949   -7.2479  -15.1537 C   0  0  0  0  0  0  0  0  0  0  0  0
   21.1149   -6.2728  -14.0296 C   0  0  0  0  0  0  0  0  0  0  0  0
   22.1025   -5.1801  -14.2228 C   0  0  0  0  0  0  0  0  0  0  0  0
   22.9317   -5.2392  -15.1809 O   0  0  0  0  0  0  0  0  0  0  0  0
   18.9760   -7.8227  -15.0144 C   0  0  0  0  0  0  0  0  0  0  0  0
   18.4182   -7.4452  -13.8090 O   0  0  0  0  0  0  0  0  0  0  0  0
   22.1774   -4.0693  -13.3997 O   0  0  0  0  0  0  0  0  0  0  0  0
   18.2898   -7.6324  -16.0639 O   0  0  0  0  0  0  0  0  0  0  0  0
  2  1  1  6
  2  4  1  0
  2  3  1  0
  4  6  1  0
  4  5  1  6
  6  7  2  0
  9  8  1  6
 10  9  1  0
 11  9  1  0
 12 11  1  1
 13  6  1  0
 13 12  1  0
 14 12  1  0
 14 15  2  0
 16 14  1  0
 17 18  1  6
 17 16  1  0
 19 18  1  0
 19 20  1  0
 20 21  2  0
 22 17  1  0
 23 22  1  0
 24 20  1  0
 25 22  2  0
M  END
$$$$
