VLE.pdb
     RDKit          3D

 25 24  0  0  1  0  0  0  0  0999 V2000
   16.8262  -10.6678  -15.0338 C   0  0  0  0  0  0  0  0  0  0  0  0
   16.6069  -11.4702  -16.3302 C   0  0  2  0  0  0  0  0  0  0  0  0
   15.4432  -12.3905  -16.0464 C   0  0  0  0  0  0  0  0  0  0  0  0
   17.9163  -12.2146  -16.5400 C   0  0  2  0  0  0  0  0  0  0  0  0
   18.1101  -13.1293  -15.3995 N   0  0  0  0  0  0  0  0  0  0  0  0
   19.1010  -11.3254  -16.5527 C   0  0  0  0  0  0  0  0  0  0  0  0
   19.6826  -10.9891  -15.4578 O   0  0  0  0  0  0  0  0  0  0  0  0
   22.4318  -11.2457  -21.1321 C   0  0  0  0  0  0  0  0  0  0  0  0
   21.8299  -11.3047  -19.7562 C   0  0  1  0  0  0  0  0  0  0  0  0
   22.9052  -11.9684  -18.8755 C   0  0  0  0  0  0  0  0  0  0  0  0
   21.5297   -9.9971  -19.1211 C   0  0  0  0  0  0  0  0  0  0  0  0
   20.8916  -10.0245  -17.7782 C   0  0  2  0  0  0  0  0  0  0  0  0
   19.6636  -10.7968  -17.7519 N   0  0  0  0  0  0  0  0  0  0  0  0
   20.7531   -8.6599  -17.2349 C   0  0  0  0  0  0  0  0  0  0  0  0
   19.6600   -8.0132  -17.3788 O   0  0  0  0  0  0  0  0  0  0  0  0
   21.7763   -7.9784  -16.5324 N   0  0  0  0  0  0  0  0  0  0  0  0
   21.5773   -6.6913  -15.8970 C   0  0  1  0  0  0  0  0  0  0  0  0
   22.8105   -6.3093  -15.0743 C   0  0  0  0  0  0  0  0  0  0  0  0
   22.6540   -4.9558  -14.4494 C   0  0  0  0  0  0  0  0  0  0  0  0
   22.2176   -5.1595  -13.0442 C   0  0  0  0  0  0  0  0  0  0  0  0
   23.0141   -5.6769  -12.2033 O   0  0  0  0  0  0  0  0  0  0  0  0
   21.4648   -5.6668  -16.9460 C   0  0  0  0  0  0  0  0  0  0  0  0
   20.5536   -4.6395  -16.8009 O   0  0  0  0  0  0  0  0  0  0  0  0
   20.9606   -4.8104  -12.5807 O   0  0  0  0  0  0  0  0  0  0  0  0
   22.1737   -5.6785  -17.9976 O   0  0  0  0  0  0  0  0  0  0  0  0
  2  1  1  1
  2  4  1  0
  2  3  1  0
  4  6  1  0
  4  5  1  1
  6  7  2  0
  9  8  1  6
 10  9  1  0
 11  9  1  0
 12 11  1  6
 13  6  1  0
 13 12  1  0
 14 12  1  0
 14 15  2  0
 16 14  1  0
 17 18  1  1
 17 16  1  0
 19 18  1  0
 19 20  1  0
 20 21  2  0
 22 17  1  0
 23 22  1  0
 24 20  1  0
 25 22  2  0
M  END
$$$$
