VLE.pdb
     RDKit          3D

 25 24  0  0  1  0  0  0  0  0999 V2000
   23.0268  -16.9484  -15.7542 C   0  0  0  0  0  0  0  0  0  0  0  0
   21.5158  -16.6501  -15.7749 C   0  0  2  0  0  0  0  0  0  0  0  0
   20.8780  -17.8313  -16.4673 C   0  0  0  0  0  0  0  0  0  0  0  0
   21.3962  -15.3591  -16.5696 C   0  0  2  0  0  0  0  0  0  0  0  0
   22.0482  -15.5647  -17.8765 N   0  0  0  0  0  0  0  0  0  0  0  0
   22.0985  -14.2163  -15.9412 C   0  0  0  0  0  0  0  0  0  0  0  0
   21.7097  -13.7466  -14.8106 O   0  0  0  0  0  0  0  0  0  0  0  0
   27.5559  -13.1676  -16.7765 C   0  0  0  0  0  0  0  0  0  0  0  0
   26.1597  -13.3499  -16.2507 C   0  0  1  0  0  0  0  0  0  0  0  0
   26.3247  -13.5425  -14.7315 C   0  0  0  0  0  0  0  0  0  0  0  0
   25.2448  -12.1934  -16.4203 C   0  0  0  0  0  0  0  0  0  0  0  0
   23.8330  -12.3751  -15.9903 C   0  0  2  0  0  0  0  0  0  0  0  0
   23.2273  -13.5766  -16.5334 N   0  0  0  0  0  0  0  0  0  0  0  0
   23.0494  -11.1483  -16.2293 C   0  0  0  0  0  0  0  0  0  0  0  0
   22.5326  -10.9229  -17.3764 O   0  0  0  0  0  0  0  0  0  0  0  0
   22.8088  -10.1570  -15.2473 N   0  0  0  0  0  0  0  0  0  0  0  0
   21.7983   -9.1286  -15.3925 C   0  0  1  0  0  0  0  0  0  0  0  0
   20.3990   -9.7451  -15.3177 C   0  0  0  0  0  0  0  0  0  0  0  0
   19.6806   -9.6334  -16.6286 C   0  0  0  0  0  0  0  0  0  0  0  0
   18.3322  -10.2310  -16.4522 C   0  0  0  0  0  0  0  0  0  0  0  0
   18.2191  -11.4553  -16.1396 O   0  0  0  0  0  0  0  0  0  0  0  0
   21.8941   -8.2164  -14.2431 C   0  0  0  0  0  0  0  0  0  0  0  0
   21.2018   -7.0217  -14.2611 O   0  0  0  0  0  0  0  0  0  0  0  0
   17.1574   -9.5162  -16.6120 O   0  0  0  0  0  0  0  0  0  0  0  0
   22.5936   -8.4740  -13.2171 O   0  0  0  0  0  0  0  0  0  0  0  0
  2  1  1  6
  2  4  1  0
  2  3  1  0
  4  6  1  0
  4  5  1  6
  6  7  2  0
  9  8  1  6
 10  9  1  0
 11  9  1  0
 12 11  1  6
 13  6  1  0
 13 12  1  0
 14 12  1  0
 14 15  2  0
 16 14  1  0
 17 18  1  1
 17 16  1  0
 19 18  1  0
 19 20  1  0
 20 21  2  0
 22 17  1  0
 23 22  1  0
 24 20  1  0
 25 22  2  0
M  END
$$$$
