VLE.pdb
     RDKit          3D

 25 24  0  0  1  0  0  0  0  0999 V2000
   17.9399  -11.6933  -18.8745 C   0  0  0  0  0  0  0  0  0  0  0  0
   18.8414  -12.7658  -19.5146 C   0  0  2  0  0  0  0  0  0  0  0  0
   17.9417  -13.5560  -20.4352 C   0  0  0  0  0  0  0  0  0  0  0  0
   19.3521  -13.5819  -18.3375 C   0  0  2  0  0  0  0  0  0  0  0  0
   18.1887  -14.1815  -17.6577 N   0  0  0  0  0  0  0  0  0  0  0  0
   20.0437  -12.7651  -17.3134 C   0  0  0  0  0  0  0  0  0  0  0  0
   19.3833  -12.1962  -16.3699 O   0  0  0  0  0  0  0  0  0  0  0  0
   25.3863  -13.5565  -15.6039 C   0  0  0  0  0  0  0  0  0  0  0  0
   23.9174  -13.2479  -15.6820 C   0  0  1  0  0  0  0  0  0  0  0  0
   23.4291  -13.2474  -14.2212 C   0  0  0  0  0  0  0  0  0  0  0  0
   23.5611  -11.9169  -16.2338 C   0  0  0  0  0  0  0  0  0  0  0  0
   22.1151  -11.6221  -16.4170 C   0  0  2  0  0  0  0  0  0  0  0  0
   21.4552  -12.5613  -17.3045 N   0  0  0  0  0  0  0  0  0  0  0  0
   21.9098  -10.2075  -16.7815 C   0  0  0  0  0  0  0  0  0  0  0  0
   21.8397   -9.8584  -18.0091 O   0  0  0  0  0  0  0  0  0  0  0  0
   21.7741   -9.1578  -15.8410 N   0  0  0  0  0  0  0  0  0  0  0  0
   21.4069   -7.8060  -16.2119 C   0  0  1  0  0  0  0  0  0  0  0  0
   19.9818   -7.7774  -16.7706 C   0  0  0  0  0  0  0  0  0  0  0  0
   19.5684   -6.3862  -17.1452 C   0  0  0  0  0  0  0  0  0  0  0  0
   18.1796   -6.4574  -17.6673 C   0  0  0  0  0  0  0  0  0  0  0  0
   17.5770   -7.5728  -17.7114 O   0  0  0  0  0  0  0  0  0  0  0  0
   21.3745   -6.9818  -14.9945 C   0  0  0  0  0  0  0  0  0  0  0  0
   21.2804   -5.6084  -15.1031 O   0  0  0  0  0  0  0  0  0  0  0  0
   17.4811   -5.3518  -18.1219 O   0  0  0  0  0  0  0  0  0  0  0  0
   21.4309   -7.4759  -13.8278 O   0  0  0  0  0  0  0  0  0  0  0  0
  2  1  1  1
  2  4  1  0
  2  3  1  0
  4  6  1  0
  4  5  1  1
  6  7  2  0
  9  8  1  1
 10  9  1  0
 11  9  1  0
 12 11  1  6
 13  6  1  0
 13 12  1  0
 14 12  1  0
 14 15  2  0
 16 14  1  0
 17 18  1  1
 17 16  1  0
 19 18  1  0
 19 20  1  0
 20 21  2  0
 22 17  1  0
 23 22  1  0
 24 20  1  0
 25 22  2  0
M  END
$$$$
