VLE.pdb
     RDKit          3D

 25 24  0  0  1  0  0  0  0  0999 V2000
   27.7861  -16.5639  -16.2216 C   0  0  0  0  0  0  0  0  0  0  0  0
   26.5348  -17.3171  -15.7321 C   0  0  2  0  0  0  0  0  0  0  0  0
   25.8422  -16.3755  -14.7755 C   0  0  0  0  0  0  0  0  0  0  0  0
   27.0846  -18.5600  -15.0496 C   0  0  2  0  0  0  0  0  0  0  0  0
   27.7631  -19.3799  -16.0707 N   0  0  0  0  0  0  0  0  0  0  0  0
   26.0314  -19.4247  -14.4691 C   0  0  0  0  0  0  0  0  0  0  0  0
   25.3366  -20.2061  -15.2153 O   0  0  0  0  0  0  0  0  0  0  0  0
   26.3258  -20.5927   -8.9696 C   0  0  0  0  0  0  0  0  0  0  0  0
   26.2067  -20.6659  -10.4661 C   0  0  1  0  0  0  0  0  0  0  0  0
   26.5904  -22.1127  -10.8291 C   0  0  0  0  0  0  0  0  0  0  0  0
   24.8472  -20.4506  -11.0215 C   0  0  0  0  0  0  0  0  0  0  0  0
   24.7279  -20.3302  -12.4988 C   0  0  2  0  0  0  0  0  0  0  0  0
   25.7260  -19.4494  -13.0762 N   0  0  0  0  0  0  0  0  0  0  0  0
   23.3431  -20.0039  -12.8888 C   0  0  0  0  0  0  0  0  0  0  0  0
   22.7930  -18.9239  -12.4826 O   0  0  0  0  0  0  0  0  0  0  0  0
   22.5381  -20.8236  -13.7164 N   0  0  0  0  0  0  0  0  0  0  0  0
   21.1975  -20.4582  -14.1276 C   0  0  1  0  0  0  0  0  0  0  0  0
   21.1054  -20.4106  -15.6551 C   0  0  0  0  0  0  0  0  0  0  0  0
   21.4185  -19.0420  -16.1801 C   0  0  0  0  0  0  0  0  0  0  0  0
   22.2316  -19.2104  -17.4118 C   0  0  0  0  0  0  0  0  0  0  0  0
   22.1970  -20.3078  -18.0472 O   0  0  0  0  0  0  0  0  0  0  0  0
   20.2748  -21.5226  -13.7055 C   0  0  0  0  0  0  0  0  0  0  0  0
   20.7801  -22.6879  -13.1639 O   0  0  0  0  0  0  0  0  0  0  0  0
   23.0483  -18.2172  -17.9248 O   0  0  0  0  0  0  0  0  0  0  0  0
   19.0152  -21.4247  -13.8162 O   0  0  0  0  0  0  0  0  0  0  0  0
  2  1  1  1
  2  4  1  0
  2  3  1  0
  4  6  1  0
  4  5  1  6
  6  7  2  0
  9  8  1  1
 10  9  1  0
 11  9  1  0
 12 11  1  1
 13  6  1  0
 13 12  1  0
 14 12  1  0
 14 15  2  0
 16 14  1  0
 17 18  1  6
 17 16  1  0
 19 18  1  0
 19 20  1  0
 20 21  2  0
 22 17  1  0
 23 22  1  0
 24 20  1  0
 25 22  2  0
M  END
$$$$
