VLE.pdb
     RDKit          3D

 25 24  0  0  1  0  0  0  0  0999 V2000
   28.6334  -18.9064  -17.5910 C   0  0  0  0  0  0  0  0  0  0  0  0
   27.4292  -19.3511  -16.7397 C   0  0  2  0  0  0  0  0  0  0  0  0
   26.8708  -18.0853  -16.1335 C   0  0  0  0  0  0  0  0  0  0  0  0
   28.0248  -20.2934  -15.7054 C   0  0  2  0  0  0  0  0  0  0  0  0
   28.6209  -21.4381  -16.4193 N   0  0  0  0  0  0  0  0  0  0  0  0
   27.0157  -20.8693  -14.7866 C   0  0  0  0  0  0  0  0  0  0  0  0
   26.1916  -21.7666  -15.1937 O   0  0  0  0  0  0  0  0  0  0  0  0
   25.6135  -21.1892   -8.6668 C   0  0  0  0  0  0  0  0  0  0  0  0
   25.2482  -21.3830  -10.1118 C   0  0  1  0  0  0  0  0  0  0  0  0
   23.8844  -20.6867  -10.2781 C   0  0  0  0  0  0  0  0  0  0  0  0
   26.1549  -20.7505  -11.1022 C   0  0  0  0  0  0  0  0  0  0  0  0
   25.8562  -20.9802  -12.5407 C   0  0  2  0  0  0  0  0  0  0  0  0
   26.8948  -20.4777  -13.4205 N   0  0  0  0  0  0  0  0  0  0  0  0
   24.5019  -20.5025  -12.8784 C   0  0  0  0  0  0  0  0  0  0  0  0
   24.1733  -19.2851  -12.6691 O   0  0  0  0  0  0  0  0  0  0  0  0
   23.4916  -21.3175  -13.4441 N   0  0  0  0  0  0  0  0  0  0  0  0
   22.1915  -20.8097  -13.8335 C   0  0  1  0  0  0  0  0  0  0  0  0
   21.6351  -21.6199  -15.0073 C   0  0  0  0  0  0  0  0  0  0  0  0
   20.2500  -21.1767  -15.3708 C   0  0  0  0  0  0  0  0  0  0  0  0
   20.1875  -21.0728  -16.8513 C   0  0  0  0  0  0  0  0  0  0  0  0
   20.8584  -21.8741  -17.5703 O   0  0  0  0  0  0  0  0  0  0  0  0
   21.2550  -21.0257  -12.7205 C   0  0  0  0  0  0  0  0  0  0  0  0
   20.2356  -20.1204  -12.5015 O   0  0  0  0  0  0  0  0  0  0  0  0
   19.4217  -20.1297  -17.5151 O   0  0  0  0  0  0  0  0  0  0  0  0
   21.3370  -22.0184  -11.9354 O   0  0  0  0  0  0  0  0  0  0  0  0
  2  1  1  6
  2  4  1  0
  2  3  1  0
  4  6  1  0
  4  5  1  6
  6  7  2  0
  9  8  1  1
 10  9  1  0
 11  9  1  0
 12 11  1  1
 13  6  1  0
 13 12  1  0
 14 12  1  0
 14 15  2  0
 16 14  1  0
 17 18  1  6
 17 16  1  0
 19 18  1  0
 19 20  1  0
 20 21  2  0
 22 17  1  0
 23 22  1  0
 24 20  1  0
 25 22  2  0
M  END
$$$$
