VLE.pdb
     RDKit          3D

 25 24  0  0  1  0  0  0  0  0999 V2000
   19.9104  -18.4891  -17.0851 C   0  0  0  0  0  0  0  0  0  0  0  0
   21.2267  -19.1365  -17.5548 C   0  0  2  0  0  0  0  0  0  0  0  0
   20.9117  -20.6006  -17.7519 C   0  0  0  0  0  0  0  0  0  0  0  0
   22.1997  -18.8860  -16.4133 C   0  0  2  0  0  0  0  0  0  0  0  0
   21.6472  -19.5098  -15.1964 N   0  0  0  0  0  0  0  0  0  0  0  0
   22.3695  -17.4501  -16.0918 C   0  0  0  0  0  0  0  0  0  0  0  0
   21.5456  -16.8490  -15.3107 O   0  0  0  0  0  0  0  0  0  0  0  0
   27.4587  -15.1346  -16.6189 C   0  0  0  0  0  0  0  0  0  0  0  0
   26.1008  -15.5493  -16.1257 C   0  0  1  0  0  0  0  0  0  0  0  0
   26.1479  -15.3442  -14.5999 C   0  0  0  0  0  0  0  0  0  0  0  0
   24.9566  -14.7392  -16.6132 C   0  0  0  0  0  0  0  0  0  0  0  0
   23.5903  -15.2455  -16.3164 C   0  0  2  0  0  0  0  0  0  0  0  0
   23.4341  -16.6572  -16.6133 N   0  0  0  0  0  0  0  0  0  0  0  0
   22.5653  -14.3855  -16.9378 C   0  0  0  0  0  0  0  0  0  0  0  0
   21.9714  -14.7550  -18.0077 O   0  0  0  0  0  0  0  0  0  0  0  0
   22.1646  -13.1294  -16.4214 N   0  0  0  0  0  0  0  0  0  0  0  0
   20.9496  -12.4560  -16.8335 C   0  0  1  0  0  0  0  0  0  0  0  0
   19.7224  -13.2139  -16.3202 C   0  0  0  0  0  0  0  0  0  0  0  0
   18.4537  -12.4829  -16.6411 C   0  0  0  0  0  0  0  0  0  0  0  0
   17.3227  -13.3166  -16.1590 C   0  0  0  0  0  0  0  0  0  0  0  0
   17.5452  -14.2993  -15.3882 O   0  0  0  0  0  0  0  0  0  0  0  0
   20.9047  -11.1377  -16.1835 C   0  0  0  0  0  0  0  0  0  0  0  0
   21.8692  -10.8025  -15.2539 O   0  0  0  0  0  0  0  0  0  0  0  0
   16.0035  -13.0825  -16.5076 O   0  0  0  0  0  0  0  0  0  0  0  0
   20.0085  -10.2765  -16.4360 O   0  0  0  0  0  0  0  0  0  0  0  0
  2  1  1  1
  2  4  1  0
  2  3  1  0
  4  6  1  0
  4  5  1  1
  6  7  2  0
  9  8  1  6
 10  9  1  0
 11  9  1  0
 12 11  1  6
 13  6  1  0
 13 12  1  0
 14 12  1  0
 14 15  2  0
 16 14  1  0
 17 18  1  1
 17 16  1  0
 19 18  1  0
 19 20  1  0
 20 21  2  0
 22 17  1  0
 23 22  1  0
 24 20  1  0
 25 22  2  0
M  END
$$$$
