VLE.pdb
     RDKit          3D

 25 24  0  0  1  0  0  0  0  0999 V2000
   28.0808  -20.6287  -16.3288 C   0  0  0  0  0  0  0  0  0  0  0  0
   27.1577  -21.5596  -15.5202 C   0  0  2  0  0  0  0  0  0  0  0  0
   27.1985  -22.8909  -16.2325 C   0  0  0  0  0  0  0  0  0  0  0  0
   25.7936  -20.8907  -15.5874 C   0  0  2  0  0  0  0  0  0  0  0  0
   25.9717  -19.4577  -15.2874 N   0  0  0  0  0  0  0  0  0  0  0  0
   24.8395  -21.4014  -14.5759 C   0  0  0  0  0  0  0  0  0  0  0  0
   24.3793  -22.5983  -14.6511 O   0  0  0  0  0  0  0  0  0  0  0  0
   25.2261  -19.8953   -9.2406 C   0  0  0  0  0  0  0  0  0  0  0  0
   25.0231  -20.6040  -10.5503 C   0  0  1  0  0  0  0  0  0  0  0  0
   25.2493  -22.0954  -10.2393 C   0  0  0  0  0  0  0  0  0  0  0  0
   23.6629  -20.5093  -11.1369 C   0  0  0  0  0  0  0  0  0  0  0  0
   23.4562  -21.1217  -12.4761 C   0  0  2  0  0  0  0  0  0  0  0  0
   24.3797  -20.6188  -13.4758 N   0  0  0  0  0  0  0  0  0  0  0  0
   22.0385  -21.0429  -12.8763 C   0  0  0  0  0  0  0  0  0  0  0  0
   21.6099  -20.0445  -13.5496 O   0  0  0  0  0  0  0  0  0  0  0  0
   21.0706  -22.0284  -12.5650 N   0  0  0  0  0  0  0  0  0  0  0  0
   19.6845  -21.9335  -12.9766 C   0  0  1  0  0  0  0  0  0  0  0  0
   18.9425  -23.2310  -12.6455 C   0  0  0  0  0  0  0  0  0  0  0  0
   17.5032  -23.1592  -13.0580 C   0  0  0  0  0  0  0  0  0  0  0  0
   16.9737  -24.5469  -13.0781 C   0  0  0  0  0  0  0  0  0  0  0  0
   17.6531  -25.4904  -12.5708 O   0  0  0  0  0  0  0  0  0  0  0  0
   19.0321  -20.8859  -12.1769 C   0  0  0  0  0  0  0  0  0  0  0  0
   17.8165  -20.3739  -12.5853 O   0  0  0  0  0  0  0  0  0  0  0  0
   15.7505  -24.8855  -13.6312 O   0  0  0  0  0  0  0  0  0  0  0  0
   19.5380  -20.4184  -11.1120 O   0  0  0  0  0  0  0  0  0  0  0  0
  2  1  1  6
  2  4  1  0
  2  3  1  0
  4  6  1  0
  4  5  1  1
  6  7  2  0
  9  8  1  1
 10  9  1  0
 11  9  1  0
 12 11  1  1
 13  6  1  0
 13 12  1  0
 14 12  1  0
 14 15  2  0
 16 14  1  0
 17 18  1  1
 17 16  1  0
 19 18  1  0
 19 20  1  0
 20 21  2  0
 22 17  1  0
 23 22  1  0
 24 20  1  0
 25 22  2  0
M  END
$$$$
