VLE.pdb
     RDKit          3D

 25 24  0  0  1  0  0  0  0  0999 V2000
   26.1954  -18.4593  -17.3018 C   0  0  0  0  0  0  0  0  0  0  0  0
   27.2356  -17.9461  -16.2883 C   0  0  2  0  0  0  0  0  0  0  0  0
   28.3182  -17.2915  -17.1136 C   0  0  0  0  0  0  0  0  0  0  0  0
   27.7117  -19.1981  -15.5684 C   0  0  2  0  0  0  0  0  0  0  0  0
   28.0884  -20.1960  -16.5871 N   0  0  0  0  0  0  0  0  0  0  0  0
   26.6594  -19.8369  -14.7445 C   0  0  0  0  0  0  0  0  0  0  0  0
   25.8919  -20.7391  -15.2417 O   0  0  0  0  0  0  0  0  0  0  0  0
   26.4072  -20.6757   -8.9008 C   0  0  0  0  0  0  0  0  0  0  0  0
   26.1643  -20.9515  -10.3582 C   0  0  1  0  0  0  0  0  0  0  0  0
   25.1688  -22.1264  -10.3842 C   0  0  0  0  0  0  0  0  0  0  0  0
   25.5258  -19.8559  -11.1296 C   0  0  0  0  0  0  0  0  0  0  0  0
   25.3510  -20.0663  -12.5913 C   0  0  2  0  0  0  0  0  0  0  0  0
   26.4336  -19.5033  -13.3764 N   0  0  0  0  0  0  0  0  0  0  0  0
   24.0086  -19.6368  -13.0267 C   0  0  0  0  0  0  0  0  0  0  0  0
   23.7363  -18.3947  -13.1569 O   0  0  0  0  0  0  0  0  0  0  0  0
   22.9503  -20.5274  -13.3295 N   0  0  0  0  0  0  0  0  0  0  0  0
   21.6377  -20.0817  -13.7516 C   0  0  1  0  0  0  0  0  0  0  0  0
   21.6305  -19.8026  -15.2568 C   0  0  0  0  0  0  0  0  0  0  0  0
   22.1878  -20.9591  -16.0307 C   0  0  0  0  0  0  0  0  0  0  0  0
   22.1104  -20.6114  -17.4728 C   0  0  0  0  0  0  0  0  0  0  0  0
   21.5694  -19.5217  -17.8324 O   0  0  0  0  0  0  0  0  0  0  0  0
   20.6840  -21.1819  -13.5455 C   0  0  0  0  0  0  0  0  0  0  0  0
   21.1553  -22.4505  -13.2710 O   0  0  0  0  0  0  0  0  0  0  0  0
   22.6054  -21.4244  -18.4781 O   0  0  0  0  0  0  0  0  0  0  0  0
   19.4272  -21.0237  -13.6092 O   0  0  0  0  0  0  0  0  0  0  0  0
  2  1  1  6
  2  4  1  0
  2  3  1  0
  4  6  1  0
  4  5  1  6
  6  7  2  0
  9  8  1  1
 10  9  1  0
 11  9  1  0
 12 11  1  1
 13  6  1  0
 13 12  1  0
 14 12  1  0
 14 15  2  0
 16 14  1  0
 17 18  1  6
 17 16  1  0
 19 18  1  0
 19 20  1  0
 20 21  2  0
 22 17  1  0
 23 22  1  0
 24 20  1  0
 25 22  2  0
M  END
$$$$
