GML.pdb
     RDKit          3D

 21 20  0  0  1  0  0  0  0  0999 V2000
    8.7922  -16.4230   19.0223 N   0  0  0  0  0  0  0  0  0  0  0  0
    7.9736  -16.4780   20.1898 C   0  0  0  0  0  0  0  0  0  0  0  0
    8.7209  -15.8984   21.3577 C   0  0  0  0  0  0  0  0  0  0  0  0
    9.9331  -15.6830   21.1377 O   0  0  0  0  0  0  0  0  0  0  0  0
    6.3793  -12.5024   26.5152 C   0  0  0  0  0  0  0  0  0  0  0  0
    6.2748  -11.9884   24.7592 S   0  0  0  0  0  0  0  0  0  0  0  0
    7.3616  -13.0970   23.7925 C   0  0  0  0  0  0  0  0  0  0  0  0
    7.6840  -14.3425   24.5772 C   0  0  0  0  0  0  0  0  0  0  0  0
    8.5967  -15.2570   23.7817 C   0  0  2  0  0  0  0  0  0  0  0  0
    8.0381  -15.6539   22.5480 N   0  0  0  0  0  0  0  0  0  0  0  0
    9.2200  -16.3221   24.5737 C   0  0  0  0  0  0  0  0  0  0  0  0
    8.5801  -17.3758   24.7878 O   0  0  0  0  0  0  0  0  0  0  0  0
    9.6053  -13.7852   29.2769 C   0  0  0  0  0  0  0  0  0  0  0  0
   10.3967  -14.9412   28.6590 C   0  0  2  0  0  0  0  0  0  0  0  0
   11.8445  -14.7427   29.0059 C   0  0  0  0  0  0  0  0  0  0  0  0
   10.1562  -14.9737   27.1765 C   0  0  0  0  0  0  0  0  0  0  0  0
   10.7898  -16.1761   26.5606 C   0  0  2  0  0  0  0  0  0  0  0  0
   10.5228  -16.1937   25.1026 N   0  0  0  0  0  0  0  0  0  0  0  0
   10.3820  -17.4511   27.1426 C   0  0  0  0  0  0  0  0  0  0  0  0
    9.2283  -17.7415   27.4676 O   0  0  0  0  0  0  0  0  0  0  0  0
   11.3531  -18.4420   27.3613 O   0  0  0  0  0  0  0  0  0  0  0  0
  2  1  1  0
  2  3  1  0
  3  4  2  0
  5  6  1  0
  7  6  1  0
  8  7  1  0
  9  8  1  1
 10  3  1  0
 10  9  1  0
 11  9  1  0
 12 11  2  0
 14 13  1  1
 14 15  1  0
 17 16  1  1
 16 14  1  0
 17 18  1  0
 18 11  1  0
 19 17  1  0
 20 19  2  0
 21 19  1  0
M  END
$$$$
