GML.pdb
     RDKit          3D

 21 20  0  0  1  0  0  0  0  0999 V2000
    8.8277  -18.8426   20.7294 N   0  0  0  0  0  0  0  0  0  0  0  0
    7.9233  -18.3668   21.7254 C   0  0  0  0  0  0  0  0  0  0  0  0
    8.3592  -17.0073   22.1946 C   0  0  0  0  0  0  0  0  0  0  0  0
    9.4627  -16.6346   21.7388 O   0  0  0  0  0  0  0  0  0  0  0  0
    7.0030  -11.5601   27.2343 C   0  0  0  0  0  0  0  0  0  0  0  0
    5.9036  -12.5547   26.1568 S   0  0  0  0  0  0  0  0  0  0  0  0
    6.8362  -12.9577   24.6362 C   0  0  0  0  0  0  0  0  0  0  0  0
    6.5438  -14.3674   24.1909 C   0  0  0  0  0  0  0  0  0  0  0  0
    7.7878  -15.0172   23.6143 C   0  0  2  0  0  0  0  0  0  0  0  0
    7.5377  -16.2929   23.0649 N   0  0  0  0  0  0  0  0  0  0  0  0
    8.9737  -14.9109   24.4702 C   0  0  0  0  0  0  0  0  0  0  0  0
    9.5181  -13.7944   24.6205 O   0  0  0  0  0  0  0  0  0  0  0  0
    9.6223  -14.6712   29.8408 C   0  0  0  0  0  0  0  0  0  0  0  0
   10.4926  -15.0065   28.6265 C   0  0  2  0  0  0  0  0  0  0  0  0
   11.4439  -13.8636   28.4145 C   0  0  0  0  0  0  0  0  0  0  0  0
    9.6118  -15.2547   27.4352 C   0  0  0  0  0  0  0  0  0  0  0  0
   10.3782  -15.9062   26.3330 C   0  0  2  0  0  0  0  0  0  0  0  0
    9.5202  -16.0327   25.1308 N   0  0  0  0  0  0  0  0  0  0  0  0
   10.9415  -17.2113   26.6649 C   0  0  0  0  0  0  0  0  0  0  0  0
   11.9257  -17.3923   27.3857 O   0  0  0  0  0  0  0  0  0  0  0  0
   10.3400  -18.3667   26.1393 O   0  0  0  0  0  0  0  0  0  0  0  0
  2  1  1  0
  2  3  1  0
  3  4  2  0
  5  6  1  0
  7  6  1  0
  8  7  1  0
  9  8  1  1
 10  3  1  0
 10  9  1  0
 11  9  1  0
 12 11  2  0
 14 13  1  1
 14 15  1  0
 17 16  1  1
 16 14  1  0
 17 18  1  0
 18 11  1  0
 19 17  1  0
 20 19  2  0
 21 19  1  0
M  END
$$$$
