GML.pdb
     RDKit          3D

 21 20  0  0  1  0  0  0  0  0999 V2000
    5.2939  -19.8782   23.6611 N   0  0  0  0  0  0  0  0  0  0  0  0
    5.1816  -18.4944   23.9910 C   0  0  0  0  0  0  0  0  0  0  0  0
    6.4563  -17.7847   23.6305 C   0  0  0  0  0  0  0  0  0  0  0  0
    7.4830  -18.4933   23.7193 O   0  0  0  0  0  0  0  0  0  0  0  0
    7.0421  -12.9211   19.1578 C   0  0  0  0  0  0  0  0  0  0  0  0
    7.9559  -12.2624   20.6034 S   0  0  0  0  0  0  0  0  0  0  0  0
    8.3847  -13.6781   21.6788 C   0  0  0  0  0  0  0  0  0  0  0  0
    7.1419  -14.4108   22.1143 C   0  0  0  0  0  0  0  0  0  0  0  0
    7.4965  -15.5873   23.0044 C   0  0  2  0  0  0  0  0  0  0  0  0
    6.4030  -16.4476   23.2406 N   0  0  0  0  0  0  0  0  0  0  0  0
    8.2963  -15.2320   24.1809 C   0  0  0  0  0  0  0  0  0  0  0  0
    7.8717  -14.3524   24.9630 O   0  0  0  0  0  0  0  0  0  0  0  0
    9.6908  -13.1093   26.6766 C   0  0  0  0  0  0  0  0  0  0  0  0
    9.1094  -14.3777   27.3071 C   0  0  2  0  0  0  0  0  0  0  0  0
    9.1399  -14.2038   28.7987 C   0  0  0  0  0  0  0  0  0  0  0  0
    9.8992  -15.5700   26.8474 C   0  0  0  0  0  0  0  0  0  0  0  0
   10.4678  -15.3397   25.4872 C   0  0  2  0  0  0  0  0  0  0  0  0
    9.5332  -15.8540   24.4580 N   0  0  0  0  0  0  0  0  0  0  0  0
   11.7915  -15.9151   25.2696 C   0  0  0  0  0  0  0  0  0  0  0  0
   12.0277  -16.8905   24.5530 O   0  0  0  0  0  0  0  0  0  0  0  0
   12.8996  -15.3368   25.9105 O   0  0  0  0  0  0  0  0  0  0  0  0
  2  1  1  0
  2  3  1  0
  3  4  2  0
  5  6  1  0
  7  6  1  0
  8  7  1  0
  9  8  1  1
 10  3  1  0
 10  9  1  0
 11  9  1  0
 12 11  2  0
 14 13  1  6
 14 15  1  0
 17 16  1  1
 16 14  1  0
 17 18  1  0
 18 11  1  0
 19 17  1  0
 20 19  2  0
 21 19  1  0
M  END
$$$$
