GML.pdb
     RDKit          3D

 21 20  0  0  1  0  0  0  0  0999 V2000
    9.0131  -18.9249   16.8391 N   0  0  0  0  0  0  0  0  0  0  0  0
    8.2358  -18.5763   17.9839 C   0  0  0  0  0  0  0  0  0  0  0  0
    9.0571  -17.7258   18.9115 C   0  0  0  0  0  0  0  0  0  0  0  0
   10.2871  -17.9463   18.8589 O   0  0  0  0  0  0  0  0  0  0  0  0
    7.6575  -11.7739   21.7590 C   0  0  0  0  0  0  0  0  0  0  0  0
    6.9041  -12.5345   20.2715 S   0  0  0  0  0  0  0  0  0  0  0  0
    7.8676  -14.0360   19.8696 C   0  0  0  0  0  0  0  0  0  0  0  0
    8.2062  -14.8019   21.1225 C   0  0  0  0  0  0  0  0  0  0  0  0
    8.9856  -16.0601   20.7885 C   0  0  2  0  0  0  0  0  0  0  0  0
    8.4159  -16.7944   19.7264 N   0  0  0  0  0  0  0  0  0  0  0  0
    9.3957  -16.8423   21.9590 C   0  0  0  0  0  0  0  0  0  0  0  0
    8.7760  -17.8931   22.2369 O   0  0  0  0  0  0  0  0  0  0  0  0
   14.1338  -19.4930   21.8225 C   0  0  0  0  0  0  0  0  0  0  0  0
   12.9499  -19.2847   22.7709 C   0  0  2  0  0  0  0  0  0  0  0  0
   12.2383  -20.5999   22.9117 C   0  0  0  0  0  0  0  0  0  0  0  0
   12.0617  -18.2013   22.2289 C   0  0  0  0  0  0  0  0  0  0  0  0
   11.4477  -17.4123   23.3367 C   0  0  2  0  0  0  0  0  0  0  0  0
   10.4710  -16.4443   22.7830 N   0  0  0  0  0  0  0  0  0  0  0  0
   12.3997  -16.7057   24.1881 C   0  0  0  0  0  0  0  0  0  0  0  0
   12.8703  -15.5916   23.9470 O   0  0  0  0  0  0  0  0  0  0  0  0
   12.8315  -17.3141   25.3783 O   0  0  0  0  0  0  0  0  0  0  0  0
  2  1  1  0
  2  3  1  0
  3  4  2  0
  5  6  1  0
  7  6  1  0
  8  7  1  0
  9  8  1  1
 10  3  1  0
 10  9  1  0
 11  9  1  0
 12 11  2  0
 14 13  1  6
 14 15  1  0
 17 16  1  6
 16 14  1  0
 17 18  1  0
 18 11  1  0
 19 17  1  0
 20 19  2  0
 21 19  1  0
M  END
$$$$
