GML.pdb
     RDKit          3D

 21 20  0  0  1  0  0  0  0  0999 V2000
    8.3618  -19.0119   21.0654 N   0  0  0  0  0  0  0  0  0  0  0  0
    7.6795  -18.5147   22.2158 C   0  0  0  0  0  0  0  0  0  0  0  0
    8.2357  -17.1698   22.5902 C   0  0  0  0  0  0  0  0  0  0  0  0
    9.3293  -16.8958   22.0485 O   0  0  0  0  0  0  0  0  0  0  0  0
    6.7708  -10.6224   26.7366 C   0  0  0  0  0  0  0  0  0  0  0  0
    6.1066  -12.2560   26.2378 S   0  0  0  0  0  0  0  0  0  0  0  0
    7.1854  -12.9112   24.9144 C   0  0  0  0  0  0  0  0  0  0  0  0
    6.7366  -14.2872   24.4948 C   0  0  0  0  0  0  0  0  0  0  0  0
    7.9066  -15.0952   23.9652 C   0  0  2  0  0  0  0  0  0  0  0  0
    7.5233  -16.3618   23.4747 N   0  0  0  0  0  0  0  0  0  0  0  0
    9.0912  -15.0758   24.8292 C   0  0  0  0  0  0  0  0  0  0  0  0
    9.6640  -13.9862   25.0530 O   0  0  0  0  0  0  0  0  0  0  0  0
    9.9626  -14.8904   29.8583 C   0  0  0  0  0  0  0  0  0  0  0  0
   10.4664  -14.8663   28.4126 C   0  0  2  0  0  0  0  0  0  0  0  0
    9.7673  -13.7426   27.7021 C   0  0  0  0  0  0  0  0  0  0  0  0
   10.2120  -16.2018   27.7737 C   0  0  0  0  0  0  0  0  0  0  0  0
   10.7352  -16.2319   26.3766 C   0  0  2  0  0  0  0  0  0  0  0  0
    9.6053  -16.2521   25.4171 N   0  0  0  0  0  0  0  0  0  0  0  0
   11.6390  -17.3399   26.0831 C   0  0  0  0  0  0  0  0  0  0  0  0
   12.7160  -17.5408   26.6492 O   0  0  0  0  0  0  0  0  0  0  0  0
   11.2834  -18.2636   25.0865 O   0  0  0  0  0  0  0  0  0  0  0  0
  2  1  1  0
  2  3  1  0
  3  4  2  0
  5  6  1  0
  7  6  1  0
  8  7  1  0
  9  8  1  1
 10  3  1  0
 10  9  1  0
 11  9  1  0
 12 11  2  0
 14 13  1  1
 14 15  1  0
 17 16  1  1
 16 14  1  0
 17 18  1  0
 18 11  1  0
 19 17  1  0
 20 19  2  0
 21 19  1  0
M  END
$$$$
