GML.pdb
     RDKit          3D

 21 20  0  0  1  0  0  0  0  0999 V2000
    9.3520  -19.6108   20.9151 N   0  0  0  0  0  0  0  0  0  0  0  0
    8.3393  -18.9279   21.6529 C   0  0  0  0  0  0  0  0  0  0  0  0
    8.7406  -17.4933   21.8515 C   0  0  0  0  0  0  0  0  0  0  0  0
    9.9696  -17.3186   22.0036 O   0  0  0  0  0  0  0  0  0  0  0  0
    8.0145  -11.8614   20.2762 C   0  0  0  0  0  0  0  0  0  0  0  0
    7.5597  -13.1712   19.0776 S   0  0  0  0  0  0  0  0  0  0  0  0
    6.7361  -14.5120   20.0095 C   0  0  0  0  0  0  0  0  0  0  0  0
    6.8410  -14.2707   21.4933 C   0  0  0  0  0  0  0  0  0  0  0  0
    7.9354  -15.1285   22.1006 C   0  0  2  0  0  0  0  0  0  0  0  0
    7.7567  -16.5060   21.8514 N   0  0  0  0  0  0  0  0  0  0  0  0
    8.2877  -14.7681   23.4777 C   0  0  0  0  0  0  0  0  0  0  0  0
    8.5775  -13.5798   23.7411 O   0  0  0  0  0  0  0  0  0  0  0  0
    8.2559  -12.4019   26.9610 C   0  0  0  0  0  0  0  0  0  0  0  0
    7.3282  -13.1875   26.0301 C   0  0  2  0  0  0  0  0  0  0  0  0
    5.9699  -12.5493   26.0908 C   0  0  0  0  0  0  0  0  0  0  0  0
    7.3087  -14.6304   26.4474 C   0  0  0  0  0  0  0  0  0  0  0  0
    8.5127  -15.3488   25.9365 C   0  0  2  0  0  0  0  0  0  0  0  0
    8.3094  -15.7238   24.5168 N   0  0  0  0  0  0  0  0  0  0  0  0
    8.8909  -16.5336   26.7005 C   0  0  0  0  0  0  0  0  0  0  0  0
    8.6204  -17.6941   26.3828 O   0  0  0  0  0  0  0  0  0  0  0  0
    9.6181  -16.3729   27.8915 O   0  0  0  0  0  0  0  0  0  0  0  0
  2  1  1  0
  2  3  1  0
  3  4  2  0
  5  6  1  0
  7  6  1  0
  8  7  1  0
  9  8  1  1
 10  3  1  0
 10  9  1  0
 11  9  1  0
 12 11  2  0
 14 13  1  1
 14 15  1  0
 17 16  1  1
 16 14  1  0
 17 18  1  0
 18 11  1  0
 19 17  1  0
 20 19  2  0
 21 19  1  0
M  END
$$$$
