GML.pdb
     RDKit          3D

 21 20  0  0  1  0  0  0  0  0999 V2000
   10.7148  -16.6109   19.8294 N   0  0  0  0  0  0  0  0  0  0  0  0
    9.6128  -16.9520   20.6694 C   0  0  0  0  0  0  0  0  0  0  0  0
    9.7741  -16.2878   22.0077 C   0  0  0  0  0  0  0  0  0  0  0  0
   10.9489  -16.2720   22.4366 O   0  0  0  0  0  0  0  0  0  0  0  0
    6.1574  -11.6980   27.2933 C   0  0  0  0  0  0  0  0  0  0  0  0
    5.8726  -12.7384   25.8117 S   0  0  0  0  0  0  0  0  0  0  0  0
    7.3870  -13.7236   25.5280 C   0  0  0  0  0  0  0  0  0  0  0  0
    7.3154  -14.4398   24.2041 C   0  0  0  0  0  0  0  0  0  0  0  0
    8.5887  -15.2243   23.9485 C   0  0  2  0  0  0  0  0  0  0  0  0
    8.6519  -15.7610   22.6448 N   0  0  0  0  0  0  0  0  0  0  0  0
    8.9616  -16.1364   25.0344 C   0  0  0  0  0  0  0  0  0  0  0  0
    8.7547  -17.3628   24.8977 O   0  0  0  0  0  0  0  0  0  0  0  0
   11.2273  -13.6977   27.6231 C   0  0  0  0  0  0  0  0  0  0  0  0
   10.1330  -14.4433   28.3917 C   0  0  2  0  0  0  0  0  0  0  0  0
   10.0098  -13.8073   29.7468 C   0  0  0  0  0  0  0  0  0  0  0  0
   10.4825  -15.9023   28.4670 C   0  0  0  0  0  0  0  0  0  0  0  0
   10.3145  -16.5593   27.1378 C   0  0  2  0  0  0  0  0  0  0  0  0
    9.5483  -15.6711   26.2314 N   0  0  0  0  0  0  0  0  0  0  0  0
    9.6798  -17.8731   27.1781 C   0  0  0  0  0  0  0  0  0  0  0  0
    8.4762  -18.0808   27.0079 O   0  0  0  0  0  0  0  0  0  0  0  0
   10.4727  -19.0055   27.4274 O   0  0  0  0  0  0  0  0  0  0  0  0
  2  1  1  0
  2  3  1  0
  3  4  2  0
  5  6  1  0
  7  6  1  0
  8  7  1  0
  9  8  1  1
 10  3  1  0
 10  9  1  0
 11  9  1  0
 12 11  2  0
 14 13  1  6
 14 15  1  0
 17 16  1  1
 16 14  1  0
 17 18  1  0
 18 11  1  0
 19 17  1  0
 20 19  2  0
 21 19  1  0
M  END
$$$$
