GML.pdb
     RDKit          3D

 21 20  0  0  1  0  0  0  0  0999 V2000
    5.4504  -19.7214   22.3345 N   0  0  0  0  0  0  0  0  0  0  0  0
    5.3759  -18.3240   22.6139 C   0  0  0  0  0  0  0  0  0  0  0  0
    6.7427  -17.7114   22.4913 C   0  0  0  0  0  0  0  0  0  0  0  0
    7.6819  -18.5368   22.5252 O   0  0  0  0  0  0  0  0  0  0  0  0
    8.0545  -11.8328   19.9713 C   0  0  0  0  0  0  0  0  0  0  0  0
    7.2776  -13.2265   19.0697 S   0  0  0  0  0  0  0  0  0  0  0  0
    7.3372  -14.6930   20.1607 C   0  0  0  0  0  0  0  0  0  0  0  0
    7.9895  -14.3516   21.4756 C   0  0  0  0  0  0  0  0  0  0  0  0
    8.0476  -15.5697   22.3784 C   0  0  2  0  0  0  0  0  0  0  0  0
    6.8584  -16.3292   22.3547 N   0  0  0  0  0  0  0  0  0  0  0  0
    8.6131  -15.3082   23.7058 C   0  0  0  0  0  0  0  0  0  0  0  0
    9.7877  -14.8866   23.7952 O   0  0  0  0  0  0  0  0  0  0  0  0
    8.5474  -12.1717   26.3872 C   0  0  0  0  0  0  0  0  0  0  0  0
    7.2987  -13.0456   26.2417 C   0  0  2  0  0  0  0  0  0  0  0  0
    6.1270  -12.2610   26.7588 C   0  0  0  0  0  0  0  0  0  0  0  0
    7.5038  -14.3357   26.9835 C   0  0  0  0  0  0  0  0  0  0  0  0
    8.4244  -15.2400   26.2343 C   0  0  2  0  0  0  0  0  0  0  0  0
    7.8701  -15.5184   24.8880 N   0  0  0  0  0  0  0  0  0  0  0  0
    8.7253  -16.5016   26.9040 C   0  0  0  0  0  0  0  0  0  0  0  0
    8.3550  -17.6121   26.5162 O   0  0  0  0  0  0  0  0  0  0  0  0
    9.4922  -16.4824   28.0807 O   0  0  0  0  0  0  0  0  0  0  0  0
  2  1  1  0
  2  3  1  0
  3  4  2  0
  5  6  1  0
  7  6  1  0
  8  7  1  0
  9  8  1  1
 10  3  1  0
 10  9  1  0
 11  9  1  0
 12 11  2  0
 14 13  1  1
 14 15  1  0
 17 16  1  1
 16 14  1  0
 17 18  1  0
 18 11  1  0
 19 17  1  0
 20 19  2  0
 21 19  1  0
M  END
$$$$
