GML.pdb
     RDKit          3D

 21 20  0  0  1  0  0  0  0  0999 V2000
    9.1068  -16.2797   19.5504 N   0  0  0  0  0  0  0  0  0  0  0  0
    8.2103  -16.3650   20.6573 C   0  0  0  0  0  0  0  0  0  0  0  0
    8.8483  -15.7512   21.8717 C   0  0  0  0  0  0  0  0  0  0  0  0
   10.0980  -15.8017   21.8780 O   0  0  0  0  0  0  0  0  0  0  0  0
    5.3170  -11.9114   25.6020 C   0  0  0  0  0  0  0  0  0  0  0  0
    6.7281  -12.0397   26.7644 S   0  0  0  0  0  0  0  0  0  0  0  0
    7.9168  -13.2385   26.0614 C   0  0  0  0  0  0  0  0  0  0  0  0
    7.4133  -13.7788   24.7478 C   0  0  0  0  0  0  0  0  0  0  0  0
    8.4456  -14.6905   24.1112 C   0  0  2  0  0  0  0  0  0  0  0  0
    8.0361  -15.1950   22.8584 N   0  0  0  0  0  0  0  0  0  0  0  0
    9.0350  -15.6675   25.0323 C   0  0  0  0  0  0  0  0  0  0  0  0
    8.6407  -16.8544   24.9953 O   0  0  0  0  0  0  0  0  0  0  0  0
    9.6849  -14.0825   28.0507 C   0  0  0  0  0  0  0  0  0  0  0  0
   10.5770  -15.0867   28.7857 C   0  0  2  0  0  0  0  0  0  0  0  0
   11.2420  -14.3635   29.9218 C   0  0  0  0  0  0  0  0  0  0  0  0
   11.5637  -15.6775   27.8194 C   0  0  0  0  0  0  0  0  0  0  0  0
   10.8633  -16.3156   26.6666 C   0  0  2  0  0  0  0  0  0  0  0  0
   10.0360  -15.3080   25.9610 N   0  0  0  0  0  0  0  0  0  0  0  0
   10.0342  -17.4660   27.0124 C   0  0  0  0  0  0  0  0  0  0  0  0
    8.8418  -17.4089   27.3221 O   0  0  0  0  0  0  0  0  0  0  0  0
   10.6084  -18.7479   27.0008 O   0  0  0  0  0  0  0  0  0  0  0  0
  2  1  1  0
  2  3  1  0
  3  4  2  0
  5  6  1  0
  7  6  1  0
  8  7  1  0
  9  8  1  1
 10  3  1  0
 10  9  1  0
 11  9  1  0
 12 11  2  0
 14 13  1  6
 14 15  1  0
 17 16  1  1
 16 14  1  0
 17 18  1  0
 18 11  1  0
 19 17  1  0
 20 19  2  0
 21 19  1  0
M  END
$$$$
