GML.pdb
     RDKit          3D

 21 20  0  0  1  0  0  0  0  0999 V2000
    6.6246  -20.0936   23.5151 N   0  0  0  0  0  0  0  0  0  0  0  0
    6.5543  -19.3129   24.7075 C   0  0  0  0  0  0  0  0  0  0  0  0
    7.1111  -17.9417   24.4462 C   0  0  0  0  0  0  0  0  0  0  0  0
    7.9784  -17.9010   23.5460 O   0  0  0  0  0  0  0  0  0  0  0  0
    6.2252  -10.2312   25.8040 C   0  0  0  0  0  0  0  0  0  0  0  0
    5.4699  -11.8821   26.0543 S   0  0  0  0  0  0  0  0  0  0  0  0
    6.6122  -13.1254   25.3514 C   0  0  0  0  0  0  0  0  0  0  0  0
    6.1403  -14.5209   25.6692 C   0  0  0  0  0  0  0  0  0  0  0  0
    7.1552  -15.5493   25.2058 C   0  0  2  0  0  0  0  0  0  0  0  0
    6.6405  -16.8633   25.1934 N   0  0  0  0  0  0  0  0  0  0  0  0
    8.4869  -15.3897   25.7986 C   0  0  0  0  0  0  0  0  0  0  0  0
    8.6341  -14.6073   26.7638 O   0  0  0  0  0  0  0  0  0  0  0  0
   10.9802  -13.8305   27.6682 C   0  0  0  0  0  0  0  0  0  0  0  0
   10.2972  -15.1127   28.1517 C   0  0  2  0  0  0  0  0  0  0  0  0
   10.5201  -15.2204   29.6332 C   0  0  0  0  0  0  0  0  0  0  0  0
   10.8506  -16.2875   27.3966 C   0  0  0  0  0  0  0  0  0  0  0  0
   10.9485  -15.9850   25.9386 C   0  0  2  0  0  0  0  0  0  0  0  0
    9.6096  -16.0939   25.3117 N   0  0  0  0  0  0  0  0  0  0  0  0
   11.8968  -16.8147   25.2018 C   0  0  0  0  0  0  0  0  0  0  0  0
   11.6255  -17.8937   24.6699 O   0  0  0  0  0  0  0  0  0  0  0  0
   13.2256  -16.3786   25.0712 O   0  0  0  0  0  0  0  0  0  0  0  0
  2  1  1  0
  2  3  1  0
  3  4  2  0
  5  6  1  0
  7  6  1  0
  8  7  1  0
  9  8  1  1
 10  3  1  0
 10  9  1  0
 11  9  1  0
 12 11  2  0
 14 13  1  6
 14 15  1  0
 17 16  1  1
 16 14  1  0
 17 18  1  0
 18 11  1  0
 19 17  1  0
 20 19  2  0
 21 19  1  0
M  END
$$$$
