GML.pdb
     RDKit          3D

 21 20  0  0  1  0  0  0  0  0999 V2000
   10.2876  -16.5778   20.1621 N   0  0  0  0  0  0  0  0  0  0  0  0
    9.1655  -16.8705   20.9937 C   0  0  0  0  0  0  0  0  0  0  0  0
    9.3125  -16.1577   22.3085 C   0  0  0  0  0  0  0  0  0  0  0  0
   10.4943  -15.8955   22.6229 O   0  0  0  0  0  0  0  0  0  0  0  0
    6.8003  -11.3702   25.6020 C   0  0  0  0  0  0  0  0  0  0  0  0
    5.7651  -12.7524   26.2156 S   0  0  0  0  0  0  0  0  0  0  0  0
    6.7797  -14.2728   26.1549 C   0  0  0  0  0  0  0  0  0  0  0  0
    6.7464  -14.8797   24.7759 C   0  0  0  0  0  0  0  0  0  0  0  0
    8.1206  -15.3858   24.3788 C   0  0  2  0  0  0  0  0  0  0  0  0
    8.1710  -15.8544   23.0486 N   0  0  0  0  0  0  0  0  0  0  0  0
    8.7597  -16.2420   25.3831 C   0  0  0  0  0  0  0  0  0  0  0  0
    8.5850  -17.4798   25.3282 O   0  0  0  0  0  0  0  0  0  0  0  0
   11.2843  -13.6671   27.2716 C   0  0  0  0  0  0  0  0  0  0  0  0
   10.4846  -14.3722   28.3706 C   0  0  2  0  0  0  0  0  0  0  0  0
   10.7233  -13.6341   29.6567 C   0  0  0  0  0  0  0  0  0  0  0  0
   10.9023  -15.8133   28.4445 C   0  0  0  0  0  0  0  0  0  0  0  0
   10.4829  -16.5527   27.2181 C   0  0  2  0  0  0  0  0  0  0  0  0
    9.5677  -15.7104   26.4117 N   0  0  0  0  0  0  0  0  0  0  0  0
    9.8564  -17.8476   27.4660 C   0  0  0  0  0  0  0  0  0  0  0  0
   10.4126  -18.8097   28.0007 O   0  0  0  0  0  0  0  0  0  0  0  0
    8.5208  -18.0437   27.0781 O   0  0  0  0  0  0  0  0  0  0  0  0
  2  1  1  0
  2  3  1  0
  3  4  2  0
  5  6  1  0
  7  6  1  0
  8  7  1  0
  9  8  1  1
 10  3  1  0
 10  9  1  0
 11  9  1  0
 12 11  2  0
 14 13  1  6
 14 15  1  0
 17 16  1  1
 16 14  1  0
 17 18  1  0
 18 11  1  0
 19 17  1  0
 20 19  2  0
 21 19  1  0
M  END
$$$$
