GML.pdb
     RDKit          3D

 21 20  0  0  1  0  0  0  0  0999 V2000
    9.8179  -16.9233   19.8810 N   0  0  0  0  0  0  0  0  0  0  0  0
    8.6794  -16.8511   20.7383 C   0  0  0  0  0  0  0  0  0  0  0  0
    9.0336  -16.0891   21.9842 C   0  0  0  0  0  0  0  0  0  0  0  0
   10.2534  -15.8423   22.1076 O   0  0  0  0  0  0  0  0  0  0  0  0
    6.7048  -10.8970   25.6439 C   0  0  0  0  0  0  0  0  0  0  0  0
    5.9321  -12.4576   26.2151 S   0  0  0  0  0  0  0  0  0  0  0  0
    7.1503  -13.7997   25.9712 C   0  0  0  0  0  0  0  0  0  0  0  0
    6.8985  -14.5164   24.6697 C   0  0  0  0  0  0  0  0  0  0  0  0
    8.1769  -15.1444   24.1467 C   0  0  2  0  0  0  0  0  0  0  0  0
    8.0209  -15.7291   22.8717 N   0  0  0  0  0  0  0  0  0  0  0  0
    8.8998  -15.9502   25.1357 C   0  0  0  0  0  0  0  0  0  0  0  0
    8.6767  -17.1797   25.1999 O   0  0  0  0  0  0  0  0  0  0  0  0
   10.3856  -14.4037   30.2245 C   0  0  0  0  0  0  0  0  0  0  0  0
   10.8173  -14.6195   28.7714 C   0  0  2  0  0  0  0  0  0  0  0  0
   10.2237  -13.5127   27.9476 C   0  0  0  0  0  0  0  0  0  0  0  0
   10.3740  -15.9808   28.3166 C   0  0  0  0  0  0  0  0  0  0  0  0
   10.7216  -16.2023   26.8824 C   0  0  2  0  0  0  0  0  0  0  0  0
    9.8415  -15.3791   26.0191 N   0  0  0  0  0  0  0  0  0  0  0  0
   10.6646  -17.5936   26.4447 C   0  0  0  0  0  0  0  0  0  0  0  0
   11.6044  -18.2142   25.9423 O   0  0  0  0  0  0  0  0  0  0  0  0
    9.4632  -18.3060   26.5934 O   0  0  0  0  0  0  0  0  0  0  0  0
  2  1  1  0
  2  3  1  0
  3  4  2  0
  5  6  1  0
  7  6  1  0
  8  7  1  0
  9  8  1  1
 10  3  1  0
 10  9  1  0
 11  9  1  0
 12 11  2  0
 14 13  1  1
 14 15  1  0
 17 16  1  1
 16 14  1  0
 17 18  1  0
 18 11  1  0
 19 17  1  0
 20 19  2  0
 21 19  1  0
M  END
$$$$
