GML.pdb
     RDKit          3D

 21 20  0  0  1  0  0  0  0  0999 V2000
    8.7587  -18.7011   20.5997 N   0  0  0  0  0  0  0  0  0  0  0  0
    7.9745  -18.3045   21.7239 C   0  0  0  0  0  0  0  0  0  0  0  0
    8.3597  -16.9135   22.1423 C   0  0  0  0  0  0  0  0  0  0  0  0
    9.3977  -16.4800   21.5954 O   0  0  0  0  0  0  0  0  0  0  0  0
    6.4126  -11.0627   27.0661 C   0  0  0  0  0  0  0  0  0  0  0  0
    5.9072  -12.6889   26.3887 S   0  0  0  0  0  0  0  0  0  0  0  0
    6.9667  -13.0380   24.9395 C   0  0  0  0  0  0  0  0  0  0  0  0
    6.6262  -14.3791   24.3424 C   0  0  0  0  0  0  0  0  0  0  0  0
    7.8427  -14.9949   23.6767 C   0  0  2  0  0  0  0  0  0  0  0  0
    7.5667  -16.2381   23.0685 N   0  0  0  0  0  0  0  0  0  0  0  0
    9.0651  -14.9355   24.4845 C   0  0  0  0  0  0  0  0  0  0  0  0
    9.6470  -13.8373   24.6287 O   0  0  0  0  0  0  0  0  0  0  0  0
   10.0430  -15.0028   29.8469 C   0  0  0  0  0  0  0  0  0  0  0  0
   10.8111  -15.0489   28.5232 C   0  0  2  0  0  0  0  0  0  0  0  0
   11.5483  -13.7487   28.3753 C   0  0  0  0  0  0  0  0  0  0  0  0
    9.8490  -15.2998   27.3971 C   0  0  0  0  0  0  0  0  0  0  0  0
   10.5249  -15.9990   26.2653 C   0  0  2  0  0  0  0  0  0  0  0  0
    9.6057  -16.0826   25.1053 N   0  0  0  0  0  0  0  0  0  0  0  0
   11.0289  -17.3322   26.5803 C   0  0  0  0  0  0  0  0  0  0  0  0
   10.3621  -18.3684   26.5311 O   0  0  0  0  0  0  0  0  0  0  0  0
   12.3698  -17.4787   26.9721 O   0  0  0  0  0  0  0  0  0  0  0  0
  2  1  1  0
  2  3  1  0
  3  4  2  0
  5  6  1  0
  7  6  1  0
  8  7  1  0
  9  8  1  1
 10  3  1  0
 10  9  1  0
 11  9  1  0
 12 11  2  0
 14 13  1  1
 14 15  1  0
 17 16  1  1
 16 14  1  0
 17 18  1  0
 18 11  1  0
 19 17  1  0
 20 19  2  0
 21 19  1  0
M  END
$$$$
