SDR.pdb
     RDKit          3D

 26 25  0  0  1  0  0  0  0  0999 V2000
   12.9552  -18.1888   17.4581 O   0  0  0  0  0  0  0  0  0  0  0  0
   12.0546  -17.9018   18.4674 C   0  0  0  0  0  0  0  0  0  0  0  0
   11.1958  -19.1230   18.7615 C   0  0  2  0  0  0  0  0  0  0  0  0
   10.0558  -19.0855   17.8827 N   0  0  0  0  0  0  0  0  0  0  0  0
   10.7876  -19.1337   20.1810 C   0  0  0  0  0  0  0  0  0  0  0  0
    9.6335  -18.7960   20.5608 O   0  0  0  0  0  0  0  0  0  0  0  0
   11.6818  -19.5322   21.2403 N   0  0  0  0  0  0  0  0  0  0  0  0
   11.2412  -19.5623   22.6192 C   0  0  1  0  0  0  0  0  0  0  0  0
   12.2034  -20.4615   23.3693 C   0  0  0  0  0  0  0  0  0  0  0  0
   11.8666  -20.5647   24.7988 C   0  0  0  0  0  0  0  0  0  0  0  0
   10.6671  -20.7770   25.1473 O   0  0  0  0  0  0  0  0  0  0  0  0
   11.2088  -18.1987   23.2128 C   0  0  0  0  0  0  0  0  0  0  0  0
   12.1847  -17.4332   23.2244 O   0  0  0  0  0  0  0  0  0  0  0  0
   12.7859  -20.4449   25.8362 O   0  0  0  0  0  0  0  0  0  0  0  0
    5.6003  -13.2537   26.8912 N   0  0  0  0  0  0  0  0  0  0  0  0
    6.2618  -12.1494   26.2804 C   0  0  0  0  0  0  0  0  0  0  0  0
    6.1739  -10.9632   26.7615 N   0  0  0  0  0  0  0  0  0  0  0  0
    7.0321  -12.4169   25.0962 N   0  0  0  0  0  0  0  0  0  0  0  0
    7.0948  -13.7404   24.5633 C   0  0  0  0  0  0  0  0  0  0  0  0
    8.3548  -14.4956   24.8323 C   0  0  0  0  0  0  0  0  0  0  0  0
    8.5084  -15.8215   24.1674 C   0  0  0  0  0  0  0  0  0  0  0  0
    9.8218  -16.4340   24.3928 C   0  0  2  0  0  0  0  0  0  0  0  0
   10.0123  -17.7362   23.7980 N   0  0  0  0  0  0  0  0  0  0  0  0
   10.3463  -16.4117   25.7515 C   0  0  0  0  0  0  0  0  0  0  0  0
   10.3443  -17.5769   26.5425 O   0  0  0  0  0  0  0  0  0  0  0  0
   10.8213  -15.3789   26.2854 O   0  0  0  0  0  0  0  0  0  0  0  0
  1  2  1  0
  3  2  1  0
  3  4  1  6
  5  6  2  0
  5  3  1  0
  7  5  1  0
  8  7  1  0
  9 10  1  0
  8  9  1  1
 10 14  1  0
 10 11  2  0
 12 23  1  0
 12  8  1  0
 13 12  2  0
 16 15  1  0
 17 16  2  0
 18 16  1  0
 19 18  1  0
 20 19  1  0
 21 20  1  0
 22 21  1  1
 22 23  1  0
 24 22  1  0
 25 24  1  0
 26 24  2  0
M  END
$$$$
