SDR.pdb
     RDKit          3D

 26 25  0  0  1  0  0  0  0  0999 V2000
   13.0390  -16.1646   21.1522 O   0  0  0  0  0  0  0  0  0  0  0  0
   12.8398  -17.2554   21.9784 C   0  0  0  0  0  0  0  0  0  0  0  0
   11.4107  -17.7592   21.8399 C   0  0  2  0  0  0  0  0  0  0  0  0
   10.6514  -16.7532   21.1436 N   0  0  0  0  0  0  0  0  0  0  0  0
   10.8375  -18.0493   23.1699 C   0  0  0  0  0  0  0  0  0  0  0  0
    9.6870  -17.6648   23.5148 O   0  0  0  0  0  0  0  0  0  0  0  0
   11.5536  -18.7959   24.1750 N   0  0  0  0  0  0  0  0  0  0  0  0
   10.9762  -19.0365   25.4808 C   0  0  1  0  0  0  0  0  0  0  0  0
   11.3744  -20.4416   25.8862 C   0  0  0  0  0  0  0  0  0  0  0  0
   10.8686  -20.7982   27.2221 C   0  0  0  0  0  0  0  0  0  0  0  0
   11.6710  -20.8620   28.2005 O   0  0  0  0  0  0  0  0  0  0  0  0
   11.4450  -18.0378   26.4786 C   0  0  0  0  0  0  0  0  0  0  0  0
   12.6321  -17.7010   26.6050 O   0  0  0  0  0  0  0  0  0  0  0  0
    9.5375  -21.0809   27.5118 O   0  0  0  0  0  0  0  0  0  0  0  0
    6.2514  -12.1847   25.9976 N   0  0  0  0  0  0  0  0  0  0  0  0
    6.9589  -12.8576   24.9600 C   0  0  0  0  0  0  0  0  0  0  0  0
    6.5266  -12.8734   23.7521 N   0  0  0  0  0  0  0  0  0  0  0  0
    8.1801  -13.5247   25.3220 N   0  0  0  0  0  0  0  0  0  0  0  0
    8.3634  -14.0180   26.6496 C   0  0  0  0  0  0  0  0  0  0  0  0
    9.6834  -14.6558   26.9347 C   0  0  0  0  0  0  0  0  0  0  0  0
    9.8731  -15.2510   28.2888 C   0  0  0  0  0  0  0  0  0  0  0  0
   10.7921  -16.3939   28.2957 C   0  0  2  0  0  0  0  0  0  0  0  0
   10.5023  -17.4322   27.3344 N   0  0  0  0  0  0  0  0  0  0  0  0
   11.1281  -16.9746   29.5886 C   0  0  0  0  0  0  0  0  0  0  0  0
   11.7479  -16.1981   30.5867 O   0  0  0  0  0  0  0  0  0  0  0  0
   10.8901  -18.1718   29.8843 O   0  0  0  0  0  0  0  0  0  0  0  0
  1  2  1  0
  3  2  1  0
  3  4  1  1
  5  6  2  0
  5  3  1  0
  7  5  1  0
  8  7  1  0
  9 10  1  0
  8  9  1  1
 10 14  1  0
 10 11  2  0
 12 23  1  0
 12  8  1  0
 13 12  2  0
 16 15  1  0
 17 16  2  0
 18 16  1  0
 19 18  1  0
 20 19  1  0
 21 20  1  0
 22 21  1  1
 22 23  1  0
 24 22  1  0
 25 24  1  0
 26 24  2  0
M  END
$$$$
