SDR.pdb
     RDKit          3D

 26 25  0  0  1  0  0  0  0  0999 V2000
    9.7266  -17.9256   21.4733 O   0  0  0  0  0  0  0  0  0  0  0  0
   10.1296  -17.6760   20.1743 C   0  0  0  0  0  0  0  0  0  0  0  0
   10.4054  -18.9875   19.4537 C   0  0  2  0  0  0  0  0  0  0  0  0
    9.1474  -19.6614   19.2623 N   0  0  0  0  0  0  0  0  0  0  0  0
   11.3508  -19.8124   20.2331 C   0  0  0  0  0  0  0  0  0  0  0  0
   11.3914  -21.0697   20.1447 O   0  0  0  0  0  0  0  0  0  0  0  0
   12.3000  -19.2388   21.1554 N   0  0  0  0  0  0  0  0  0  0  0  0
   13.3537  -20.0416   21.7399 C   0  0  1  0  0  0  0  0  0  0  0  0
   14.1713  -20.5983   20.5916 C   0  0  0  0  0  0  0  0  0  0  0  0
   15.3151  -21.3978   21.0611 C   0  0  0  0  0  0  0  0  0  0  0  0
   15.1510  -22.2418   21.9916 O   0  0  0  0  0  0  0  0  0  0  0  0
   14.2022  -19.2418   22.6635 C   0  0  0  0  0  0  0  0  0  0  0  0
   15.3977  -18.9893   22.4499 O   0  0  0  0  0  0  0  0  0  0  0  0
   16.6062  -21.3020   20.5518 O   0  0  0  0  0  0  0  0  0  0  0  0
   10.7785  -20.5231   30.6660 N   0  0  0  0  0  0  0  0  0  0  0  0
   11.9280  -21.2918   30.3225 C   0  0  0  0  0  0  0  0  0  0  0  0
   12.8391  -21.5611   31.1849 N   0  0  0  0  0  0  0  0  0  0  0  0
   12.0294  -21.7528   28.9644 N   0  0  0  0  0  0  0  0  0  0  0  0
   11.9785  -20.8209   27.8834 C   0  0  0  0  0  0  0  0  0  0  0  0
   13.0106  -20.9966   26.8184 C   0  0  0  0  0  0  0  0  0  0  0  0
   12.7557  -20.3325   25.5078 C   0  0  0  0  0  0  0  0  0  0  0  0
   13.7673  -19.3290   25.1603 C   0  0  2  0  0  0  0  0  0  0  0  0
   13.6325  -18.7364   23.8501 N   0  0  0  0  0  0  0  0  0  0  0  0
   15.1596  -19.6613   25.4295 C   0  0  0  0  0  0  0  0  0  0  0  0
   15.9347  -18.8656   26.2951 O   0  0  0  0  0  0  0  0  0  0  0  0
   15.7378  -20.6531   24.9203 O   0  0  0  0  0  0  0  0  0  0  0  0
  1  2  1  0
  3  2  1  0
  3  4  1  1
  5  6  2  0
  5  3  1  0
  7  5  1  0
  8  7  1  0
  9 10  1  0
  8  9  1  6
 10 14  1  0
 10 11  2  0
 12 23  1  0
 12  8  1  0
 13 12  2  0
 16 15  1  0
 17 16  2  0
 18 16  1  0
 19 18  1  0
 20 19  1  0
 21 20  1  0
 22 21  1  6
 22 23  1  0
 24 22  1  0
 25 24  1  0
 26 24  2  0
M  END
$$$$
