SDR.pdb
     RDKit          3D

 26 25  0  0  1  0  0  0  0  0999 V2000
    9.3481  -12.4087   19.3456 O   0  0  0  0  0  0  0  0  0  0  0  0
    8.7870  -13.0047   18.2311 C   0  0  0  0  0  0  0  0  0  0  0  0
    7.7314  -14.0146   18.6568 C   0  0  2  0  0  0  0  0  0  0  0  0
    6.6706  -13.2967   19.3146 N   0  0  0  0  0  0  0  0  0  0  0  0
    8.3263  -15.0366   19.5419 C   0  0  0  0  0  0  0  0  0  0  0  0
    8.0532  -15.1166   20.7704 O   0  0  0  0  0  0  0  0  0  0  0  0
    9.2663  -16.0212   19.0646 N   0  0  0  0  0  0  0  0  0  0  0  0
    9.7243  -17.0947   19.9214 C   0  0  1  0  0  0  0  0  0  0  0  0
   10.3372  -18.1470   19.0191 C   0  0  0  0  0  0  0  0  0  0  0  0
   10.7537  -19.3450   19.7668 C   0  0  0  0  0  0  0  0  0  0  0  0
   10.0450  -19.7607   20.7312 O   0  0  0  0  0  0  0  0  0  0  0  0
   10.7090  -16.6107   20.9258 C   0  0  0  0  0  0  0  0  0  0  0  0
   11.6570  -15.8601   20.6492 O   0  0  0  0  0  0  0  0  0  0  0  0
   11.8997  -20.0855   19.4949 O   0  0  0  0  0  0  0  0  0  0  0  0
    8.8112  -15.7712   28.8769 N   0  0  0  0  0  0  0  0  0  0  0  0
    9.9849  -14.9635   28.8901 C   0  0  0  0  0  0  0  0  0  0  0  0
   10.0400  -13.8683   29.5562 N   0  0  0  0  0  0  0  0  0  0  0  0
   11.1091  -15.4240   28.1212 N   0  0  0  0  0  0  0  0  0  0  0  0
   10.9384  -16.4490   27.1414 C   0  0  0  0  0  0  0  0  0  0  0  0
   11.3252  -16.0902   25.7443 C   0  0  0  0  0  0  0  0  0  0  0  0
   11.0536  -17.1012   24.6823 C   0  0  0  0  0  0  0  0  0  0  0  0
   11.4666  -16.6622   23.3452 C   0  0  2  0  0  0  0  0  0  0  0  0
   10.5718  -17.0177   22.2687 N   0  0  0  0  0  0  0  0  0  0  0  0
   12.8504  -16.9032   22.9595 C   0  0  0  0  0  0  0  0  0  0  0  0
   13.3182  -18.2132   22.7399 O   0  0  0  0  0  0  0  0  0  0  0  0
   13.6880  -15.9807   22.8018 O   0  0  0  0  0  0  0  0  0  0  0  0
  1  2  1  0
  3  2  1  0
  3  4  1  1
  5  6  2  0
  5  3  1  0
  7  5  1  0
  8  7  1  0
  9 10  1  0
  8  9  1  6
 10 14  1  0
 10 11  2  0
 12 23  1  0
 12  8  1  0
 13 12  2  0
 16 15  1  0
 17 16  2  0
 18 16  1  0
 19 18  1  0
 20 19  1  0
 21 20  1  0
 22 21  1  1
 22 23  1  0
 24 22  1  0
 25 24  1  0
 26 24  2  0
M  END
$$$$
