SDR.pdb
     RDKit          3D

 26 25  0  0  1  0  0  0  0  0999 V2000
   10.7425  -18.7289   16.9487 O   0  0  0  0  0  0  0  0  0  0  0  0
   11.9534  -18.1186   17.2196 C   0  0  0  0  0  0  0  0  0  0  0  0
   11.8483  -17.2974   18.4963 C   0  0  2  0  0  0  0  0  0  0  0  0
   12.9690  -16.3943   18.5362 N   0  0  0  0  0  0  0  0  0  0  0  0
   11.8232  -18.1849   19.6768 C   0  0  0  0  0  0  0  0  0  0  0  0
   10.8241  -18.8945   19.9748 O   0  0  0  0  0  0  0  0  0  0  0  0
   12.9428  -18.3055   20.5783 N   0  0  0  0  0  0  0  0  0  0  0  0
   12.8905  -19.1931   21.7209 C   0  0  1  0  0  0  0  0  0  0  0  0
   14.1193  -20.0773   21.6481 C   0  0  0  0  0  0  0  0  0  0  0  0
   14.1757  -21.0419   22.7590 C   0  0  0  0  0  0  0  0  0  0  0  0
   13.1382  -21.6972   23.0744 O   0  0  0  0  0  0  0  0  0  0  0  0
   12.8506  -18.4356   23.0005 C   0  0  0  0  0  0  0  0  0  0  0  0
   12.9921  -18.9637   24.1139 O   0  0  0  0  0  0  0  0  0  0  0  0
   15.3113  -21.3044   23.5186 O   0  0  0  0  0  0  0  0  0  0  0  0
    6.9940  -14.2448   19.1943 N   0  0  0  0  0  0  0  0  0  0  0  0
    8.0352  -13.4125   19.6975 C   0  0  0  0  0  0  0  0  0  0  0  0
    8.2586  -12.2466   19.2107 N   0  0  0  0  0  0  0  0  0  0  0  0
    8.8320  -13.9342   20.7746 N   0  0  0  0  0  0  0  0  0  0  0  0
    8.2969  -14.9299   21.6476 C   0  0  0  0  0  0  0  0  0  0  0  0
    9.2230  -15.4432   22.7008 C   0  0  0  0  0  0  0  0  0  0  0  0
   10.5094  -16.0422   22.2425 C   0  0  0  0  0  0  0  0  0  0  0  0
   11.4209  -16.3695   23.3438 C   0  0  2  0  0  0  0  0  0  0  0  0
   12.6414  -17.0418   22.9635 N   0  0  0  0  0  0  0  0  0  0  0  0
   10.8438  -16.9907   24.5282 C   0  0  0  0  0  0  0  0  0  0  0  0
   11.1268  -16.4897   25.8135 O   0  0  0  0  0  0  0  0  0  0  0  0
   10.0771  -17.9841   24.4758 O   0  0  0  0  0  0  0  0  0  0  0  0
  1  2  1  0
  3  2  1  0
  3  4  1  1
  5  6  2  0
  5  3  1  0
  7  5  1  0
  8  7  1  0
  9 10  1  0
  8  9  1  1
 10 14  1  0
 10 11  2  0
 12 23  1  0
 12  8  1  0
 13 12  2  0
 16 15  1  0
 17 16  2  0
 18 16  1  0
 19 18  1  0
 20 19  1  0
 21 20  1  0
 22 21  1  6
 22 23  1  0
 24 22  1  0
 25 24  1  0
 26 24  2  0
M  END
$$$$
