SDR.pdb
     RDKit          3D

 26 25  0  0  1  0  0  0  0  0999 V2000
    6.9200  -23.1716   25.0982 O   0  0  0  0  0  0  0  0  0  0  0  0
    7.1681  -23.2066   23.7383 C   0  0  0  0  0  0  0  0  0  0  0  0
    8.2762  -24.2048   23.4368 C   0  0  2  0  0  0  0  0  0  0  0  0
    7.8046  -25.5150   23.8032 N   0  0  0  0  0  0  0  0  0  0  0  0
    9.5057  -23.8444   24.1718 C   0  0  0  0  0  0  0  0  0  0  0  0
    9.9917  -24.5681   25.0831 O   0  0  0  0  0  0  0  0  0  0  0  0
   10.2429  -22.6346   23.9007 N   0  0  0  0  0  0  0  0  0  0  0  0
   11.4770  -22.3389   24.5977 C   0  0  1  0  0  0  0  0  0  0  0  0
   12.2263  -21.3258   23.7555 C   0  0  0  0  0  0  0  0  0  0  0  0
   13.5950  -21.0984   24.2480 C   0  0  0  0  0  0  0  0  0  0  0  0
   14.1885  -22.0110   24.8963 O   0  0  0  0  0  0  0  0  0  0  0  0
   11.2202  -21.8135   25.9654 C   0  0  0  0  0  0  0  0  0  0  0  0
   10.2253  -21.1353   26.2632 O   0  0  0  0  0  0  0  0  0  0  0  0
   14.3177  -19.9252   24.0554 O   0  0  0  0  0  0  0  0  0  0  0  0
    8.6992  -24.8019   32.2031 N   0  0  0  0  0  0  0  0  0  0  0  0
    9.7212  -25.7321   31.8563 C   0  0  0  0  0  0  0  0  0  0  0  0
    9.4974  -26.9951   31.8219 N   0  0  0  0  0  0  0  0  0  0  0  0
   11.0201  -25.1980   31.5484 N   0  0  0  0  0  0  0  0  0  0  0  0
   11.2173  -23.7855   31.4741 C   0  0  0  0  0  0  0  0  0  0  0  0
   11.0029  -23.1642   30.1330 C   0  0  0  0  0  0  0  0  0  0  0  0
   12.2185  -22.8138   29.3434 C   0  0  0  0  0  0  0  0  0  0  0  0
   11.9914  -21.7318   28.3798 C   0  0  2  0  0  0  0  0  0  0  0  0
   12.1479  -22.0922   26.9900 N   0  0  0  0  0  0  0  0  0  0  0  0
   12.6291  -20.4504   28.6499 C   0  0  0  0  0  0  0  0  0  0  0  0
   11.9284  -19.4232   29.3110 O   0  0  0  0  0  0  0  0  0  0  0  0
   13.8128  -20.1914   28.3193 O   0  0  0  0  0  0  0  0  0  0  0  0
  1  2  1  0
  3  2  1  0
  3  4  1  1
  5  6  2  0
  5  3  1  0
  7  5  1  0
  8  7  1  0
  9 10  1  0
  8  9  1  6
 10 14  1  0
 10 11  2  0
 12 23  1  0
 12  8  1  0
 13 12  2  0
 16 15  1  0
 17 16  2  0
 18 16  1  0
 19 18  1  0
 20 19  1  0
 21 20  1  0
 22 21  1  1
 22 23  1  0
 24 22  1  0
 25 24  1  0
 26 24  2  0
M  END
$$$$
