SDR.pdb
     RDKit          3D

 26 25  0  0  1  0  0  0  0  0999 V2000
   11.0311  -19.8599   16.7612 O   0  0  0  0  0  0  0  0  0  0  0  0
    9.9410  -19.2555   17.3600 C   0  0  0  0  0  0  0  0  0  0  0  0
   10.3336  -17.8859   17.8943 C   0  0  2  0  0  0  0  0  0  0  0  0
   11.1191  -17.2246   16.8849 N   0  0  0  0  0  0  0  0  0  0  0  0
   11.0810  -18.0240   19.1608 C   0  0  0  0  0  0  0  0  0  0  0  0
   10.5751  -18.5308   20.1989 O   0  0  0  0  0  0  0  0  0  0  0  0
   12.4485  -17.5881   19.3038 N   0  0  0  0  0  0  0  0  0  0  0  0
   13.1286  -17.6655   20.5797 C   0  0  1  0  0  0  0  0  0  0  0  0
   14.6039  -17.4524   20.3059 C   0  0  0  0  0  0  0  0  0  0  0  0
   15.1818  -18.5410   19.5005 C   0  0  0  0  0  0  0  0  0  0  0  0
   14.9464  -19.7460   19.8130 O   0  0  0  0  0  0  0  0  0  0  0  0
   12.6098  -16.6532   21.5383 C   0  0  0  0  0  0  0  0  0  0  0  0
   12.7861  -15.4324   21.4075 O   0  0  0  0  0  0  0  0  0  0  0  0
   15.9930  -18.3524   18.3860 O   0  0  0  0  0  0  0  0  0  0  0  0
    6.9259  -12.9744   20.6936 N   0  0  0  0  0  0  0  0  0  0  0  0
    8.2024  -13.0483   20.0651 C   0  0  0  0  0  0  0  0  0  0  0  0
    8.5391  -12.2376   19.1293 N   0  0  0  0  0  0  0  0  0  0  0  0
    9.1014  -14.0739   20.5202 N   0  0  0  0  0  0  0  0  0  0  0  0
    8.5889  -15.2655   21.1178 C   0  0  0  0  0  0  0  0  0  0  0  0
    8.9989  -15.5175   22.5316 C   0  0  0  0  0  0  0  0  0  0  0  0
   10.3902  -15.1407   22.9139 C   0  0  0  0  0  0  0  0  0  0  0  0
   11.1307  -16.2325   23.5547 C   0  0  2  0  0  0  0  0  0  0  0  0
   11.8764  -17.0880   22.6613 N   0  0  0  0  0  0  0  0  0  0  0  0
   10.4238  -17.0267   24.5503 C   0  0  0  0  0  0  0  0  0  0  0  0
   10.2886  -18.4199   24.3955 O   0  0  0  0  0  0  0  0  0  0  0  0
    9.9069  -16.5299   25.5815 O   0  0  0  0  0  0  0  0  0  0  0  0
  1  2  1  0
  3  2  1  0
  3  4  1  6
  5  6  2  0
  5  3  1  0
  7  5  1  0
  8  7  1  0
  9 10  1  0
  8  9  1  6
 10 14  1  0
 10 11  2  0
 12 23  1  0
 12  8  1  0
 13 12  2  0
 16 15  1  0
 17 16  2  0
 18 16  1  0
 19 18  1  0
 20 19  1  0
 21 20  1  0
 22 21  1  6
 22 23  1  0
 24 22  1  0
 25 24  1  0
 26 24  2  0
M  END
$$$$
