SDR.pdb
     RDKit          3D

 26 25  0  0  1  0  0  0  0  0999 V2000
   12.8197  -20.1521   22.5286 O   0  0  0  0  0  0  0  0  0  0  0  0
   11.8712  -19.8802   21.5598 C   0  0  0  0  0  0  0  0  0  0  0  0
   11.8917  -18.3988   21.2126 C   0  0  2  0  0  0  0  0  0  0  0  0
   13.1764  -18.0960   20.6371 N   0  0  0  0  0  0  0  0  0  0  0  0
   11.6307  -17.5855   22.4176 C   0  0  0  0  0  0  0  0  0  0  0  0
   12.4997  -16.8295   22.9309 O   0  0  0  0  0  0  0  0  0  0  0  0
   10.3588  -17.5963   23.0978 N   0  0  0  0  0  0  0  0  0  0  0  0
   10.1264  -16.7674   24.2620 C   0  0  1  0  0  0  0  0  0  0  0  0
    8.8048  -16.0590   24.0413 C   0  0  0  0  0  0  0  0  0  0  0  0
    8.4964  -15.1097   25.1237 C   0  0  0  0  0  0  0  0  0  0  0  0
    9.2797  -15.0118   26.1147 O   0  0  0  0  0  0  0  0  0  0  0  0
   10.0996  -17.5744   25.5114 C   0  0  0  0  0  0  0  0  0  0  0  0
    9.8979  -18.7981   25.5323 O   0  0  0  0  0  0  0  0  0  0  0  0
    7.3786  -14.2819   25.1519 O   0  0  0  0  0  0  0  0  0  0  0  0
   11.7579  -22.9372   27.2799 N   0  0  0  0  0  0  0  0  0  0  0  0
   11.8233  -22.2848   28.5449 C   0  0  0  0  0  0  0  0  0  0  0  0
   11.8270  -22.9473   29.6437 N   0  0  0  0  0  0  0  0  0  0  0  0
   11.8813  -20.8482   28.5421 N   0  0  0  0  0  0  0  0  0  0  0  0
   13.1374  -20.1794   28.6630 C   0  0  0  0  0  0  0  0  0  0  0  0
   13.0919  -18.6874   28.6160 C   0  0  0  0  0  0  0  0  0  0  0  0
   12.3767  -18.0644   27.4653 C   0  0  0  0  0  0  0  0  0  0  0  0
   11.0963  -17.4551   27.8401 C   0  0  2  0  0  0  0  0  0  0  0  0
   10.3130  -16.9290   26.7466 N   0  0  0  0  0  0  0  0  0  0  0  0
   11.1009  -16.5233   28.9595 C   0  0  0  0  0  0  0  0  0  0  0  0
   11.4734  -15.1779   28.7741 O   0  0  0  0  0  0  0  0  0  0  0  0
   10.7795  -16.8544   30.1276 O   0  0  0  0  0  0  0  0  0  0  0  0
  1  2  1  0
  3  2  1  0
  3  4  1  1
  5  6  2  0
  5  3  1  0
  7  5  1  0
  8  7  1  0
  9 10  1  0
  8  9  1  6
 10 14  1  0
 10 11  2  0
 12 23  1  0
 12  8  1  0
 13 12  2  0
 16 15  1  0
 17 16  2  0
 18 16  1  0
 19 18  1  0
 20 19  1  0
 21 20  1  0
 22 21  1  6
 22 23  1  0
 24 22  1  0
 25 24  1  0
 26 24  2  0
M  END
$$$$
