SDR.pdb
     RDKit          3D

 26 25  0  0  1  0  0  0  0  0999 V2000
    7.9108  -15.6561   22.3899 O   0  0  0  0  0  0  0  0  0  0  0  0
    8.6477  -15.0986   21.3611 C   0  0  0  0  0  0  0  0  0  0  0  0
    9.6536  -16.1110   20.8334 C   0  0  2  0  0  0  0  0  0  0  0  0
    8.9198  -17.1816   20.2100 N   0  0  0  0  0  0  0  0  0  0  0  0
   10.5085  -16.6056   21.9317 C   0  0  0  0  0  0  0  0  0  0  0  0
   10.3784  -17.7561   22.4314 O   0  0  0  0  0  0  0  0  0  0  0  0
   11.5582  -15.8065   22.5151 N   0  0  0  0  0  0  0  0  0  0  0  0
   12.3408  -16.2984   23.6295 C   0  0  1  0  0  0  0  0  0  0  0  0
   13.6575  -15.5481   23.6079 C   0  0  0  0  0  0  0  0  0  0  0  0
   14.5374  -16.0027   22.5185 C   0  0  0  0  0  0  0  0  0  0  0  0
   14.5375  -17.2235   22.1797 O   0  0  0  0  0  0  0  0  0  0  0  0
   11.6335  -16.1022   24.9234 C   0  0  0  0  0  0  0  0  0  0  0  0
   12.1353  -15.5203   25.8971 O   0  0  0  0  0  0  0  0  0  0  0  0
   15.3993  -15.1765   21.8041 O   0  0  0  0  0  0  0  0  0  0  0  0
    5.8876  -19.5818   22.4035 N   0  0  0  0  0  0  0  0  0  0  0  0
    5.9316  -20.4387   23.5410 C   0  0  0  0  0  0  0  0  0  0  0  0
    5.4332  -21.6207   23.5120 N   0  0  0  0  0  0  0  0  0  0  0  0
    6.5560  -19.9234   24.7292 N   0  0  0  0  0  0  0  0  0  0  0  0
    6.9965  -18.5658   24.7786 C   0  0  0  0  0  0  0  0  0  0  0  0
    7.6330  -18.1302   26.0575 C   0  0  0  0  0  0  0  0  0  0  0  0
    8.1061  -16.7181   26.1355 C   0  0  0  0  0  0  0  0  0  0  0  0
    9.5594  -16.6019   26.2941 C   0  0  2  0  0  0  0  0  0  0  0  0
   10.3217  -16.5985   25.0673 N   0  0  0  0  0  0  0  0  0  0  0  0
   10.1947  -17.4571   27.2875 C   0  0  0  0  0  0  0  0  0  0  0  0
    9.9491  -17.2690   28.6613 O   0  0  0  0  0  0  0  0  0  0  0  0
   10.9786  -18.3910   26.9863 O   0  0  0  0  0  0  0  0  0  0  0  0
  1  2  1  0
  3  2  1  0
  3  4  1  1
  5  6  2  0
  5  3  1  0
  7  5  1  0
  8  7  1  0
  9 10  1  0
  8  9  1  1
 10 14  1  0
 10 11  2  0
 12 23  1  0
 12  8  1  0
 13 12  2  0
 16 15  1  0
 17 16  2  0
 18 16  1  0
 19 18  1  0
 20 19  1  0
 21 20  1  0
 22 21  1  6
 22 23  1  0
 24 22  1  0
 25 24  1  0
 26 24  2  0
M  END
$$$$
