SDR.pdb
     RDKit          3D

 26 25  0  0  1  0  0  0  0  0999 V2000
    7.8957  -13.1132   20.9349 O   0  0  0  0  0  0  0  0  0  0  0  0
    8.3730  -12.3410   19.8918 C   0  0  0  0  0  0  0  0  0  0  0  0
    8.7145  -13.2266   18.7025 C   0  0  2  0  0  0  0  0  0  0  0  0
    7.5124  -13.9075   18.2969 N   0  0  0  0  0  0  0  0  0  0  0  0
    9.7839  -14.1797   19.0626 C   0  0  0  0  0  0  0  0  0  0  0  0
    9.5492  -15.3727   19.3969 O   0  0  0  0  0  0  0  0  0  0  0  0
   11.1794  -13.8147   19.0582 N   0  0  0  0  0  0  0  0  0  0  0  0
   12.2084  -14.7902   19.3515 C   0  0  1  0  0  0  0  0  0  0  0  0
   13.4520  -14.3575   18.6011 C   0  0  0  0  0  0  0  0  0  0  0  0
   14.4925  -15.3992   18.6038 C   0  0  0  0  0  0  0  0  0  0  0  0
   14.2616  -16.5154   19.1571 O   0  0  0  0  0  0  0  0  0  0  0  0
   12.4704  -14.8862   20.8126 C   0  0  0  0  0  0  0  0  0  0  0  0
   13.0276  -13.9932   21.4688 O   0  0  0  0  0  0  0  0  0  0  0  0
   15.7520  -15.2573   18.0301 O   0  0  0  0  0  0  0  0  0  0  0  0
    6.9274  -17.0880   25.1657 N   0  0  0  0  0  0  0  0  0  0  0  0
    6.7199  -17.9069   24.0184 C   0  0  0  0  0  0  0  0  0  0  0  0
    5.7552  -18.7509   23.9603 N   0  0  0  0  0  0  0  0  0  0  0  0
    7.6402  -17.7525   22.9246 N   0  0  0  0  0  0  0  0  0  0  0  0
    9.0166  -18.0960   23.0894 C   0  0  0  0  0  0  0  0  0  0  0  0
    9.9489  -16.9585   23.3485 C   0  0  0  0  0  0  0  0  0  0  0  0
   11.3930  -17.2881   23.5208 C   0  0  0  0  0  0  0  0  0  0  0  0
   12.2894  -16.3018   22.9088 C   0  0  2  0  0  0  0  0  0  0  0  0
   12.0705  -16.0482   21.5039 N   0  0  0  0  0  0  0  0  0  0  0  0
   13.7133  -16.4268   23.1892 C   0  0  0  0  0  0  0  0  0  0  0  0
   14.1832  -16.4812   24.5156 O   0  0  0  0  0  0  0  0  0  0  0  0
   14.5854  -16.4936   22.2879 O   0  0  0  0  0  0  0  0  0  0  0  0
  1  2  1  0
  3  2  1  0
  3  4  1  1
  5  6  2  0
  5  3  1  0
  7  5  1  0
  8  7  1  0
  9 10  1  0
  8  9  1  6
 10 14  1  0
 10 11  2  0
 12 23  1  0
 12  8  1  0
 13 12  2  0
 16 15  1  0
 17 16  2  0
 18 16  1  0
 19 18  1  0
 20 19  1  0
 21 20  1  0
 22 21  1  6
 22 23  1  0
 24 22  1  0
 25 24  1  0
 26 24  2  0
M  END
$$$$
