SDR.pdb
     RDKit          3D

 26 25  0  0  1  0  0  0  0  0999 V2000
    6.6340  -16.8302   17.0075 O   0  0  0  0  0  0  0  0  0  0  0  0
    7.1586  -17.2637   15.8037 C   0  0  0  0  0  0  0  0  0  0  0  0
    7.6720  -18.6893   15.9429 C   0  0  2  0  0  0  0  0  0  0  0  0
    6.5322  -19.5622   16.0537 N   0  0  0  0  0  0  0  0  0  0  0  0
    8.5598  -18.8028   17.1180 C   0  0  0  0  0  0  0  0  0  0  0  0
    8.1689  -19.2621   18.2255 O   0  0  0  0  0  0  0  0  0  0  0  0
    9.9431  -18.3954   17.0849 N   0  0  0  0  0  0  0  0  0  0  0  0
   10.7652  -18.4426   18.2758 C   0  0  1  0  0  0  0  0  0  0  0  0
   12.2026  -18.2754   17.8254 C   0  0  0  0  0  0  0  0  0  0  0  0
   13.1590  -18.5300   18.9154 C   0  0  0  0  0  0  0  0  0  0  0  0
   12.7674  -19.1111   19.9709 O   0  0  0  0  0  0  0  0  0  0  0  0
   10.3815  -17.3837   19.2475 C   0  0  0  0  0  0  0  0  0  0  0  0
    9.5172  -16.5241   19.0182 O   0  0  0  0  0  0  0  0  0  0  0  0
   14.5037  -18.1744   18.8839 O   0  0  0  0  0  0  0  0  0  0  0  0
    6.3564  -20.1474   25.5566 N   0  0  0  0  0  0  0  0  0  0  0  0
    7.3912  -19.3275   26.0924 C   0  0  0  0  0  0  0  0  0  0  0  0
    7.7132  -19.3765   27.3334 N   0  0  0  0  0  0  0  0  0  0  0  0
    8.0609  -18.4362   25.1845 N   0  0  0  0  0  0  0  0  0  0  0  0
    7.4868  -18.1435   23.9100 C   0  0  0  0  0  0  0  0  0  0  0  0
    8.2615  -17.2068   23.0424 C   0  0  0  0  0  0  0  0  0  0  0  0
    9.1112  -17.8119   21.9768 C   0  0  0  0  0  0  0  0  0  0  0  0
   10.3743  -17.0968   21.7671 C   0  0  2  0  0  0  0  0  0  0  0  0
   11.0254  -17.3405   20.5011 N   0  0  0  0  0  0  0  0  0  0  0  0
   11.3448  -17.1201   22.8531 C   0  0  0  0  0  0  0  0  0  0  0  0
   11.8572  -15.9213   23.3857 O   0  0  0  0  0  0  0  0  0  0  0  0
   11.7710  -18.1833   23.3680 O   0  0  0  0  0  0  0  0  0  0  0  0
  1  2  1  0
  3  2  1  0
  3  4  1  1
  5  6  2  0
  5  3  1  0
  7  5  1  0
  8  7  1  0
  9 10  1  0
  8  9  1  6
 10 14  1  0
 10 11  2  0
 12 23  1  0
 12  8  1  0
 13 12  2  0
 16 15  1  0
 17 16  2  0
 18 16  1  0
 19 18  1  0
 20 19  1  0
 21 20  1  0
 22 21  1  1
 22 23  1  0
 24 22  1  0
 25 24  1  0
 26 24  2  0
M  END
$$$$
