SDR.pdb
     RDKit          3D

 26 25  0  0  1  0  0  0  0  0999 V2000
    9.6959  -14.4150   16.9086 O   0  0  0  0  0  0  0  0  0  0  0  0
    8.3603  -14.0568   16.9137 C   0  0  0  0  0  0  0  0  0  0  0  0
    7.9615  -13.5539   18.2933 C   0  0  2  0  0  0  0  0  0  0  0  0
    8.6618  -12.3191   18.5346 N   0  0  0  0  0  0  0  0  0  0  0  0
    8.2772  -14.5676   19.3202 C   0  0  0  0  0  0  0  0  0  0  0  0
    9.1698  -14.3967   20.1946 O   0  0  0  0  0  0  0  0  0  0  0  0
    7.5859  -15.8310   19.3987 N   0  0  0  0  0  0  0  0  0  0  0  0
    7.8850  -16.7833   20.4475 C   0  0  1  0  0  0  0  0  0  0  0  0
    6.9954  -17.9881   20.2151 C   0  0  0  0  0  0  0  0  0  0  0  0
    7.2255  -19.0482   21.2106 C   0  0  0  0  0  0  0  0  0  0  0  0
    7.9044  -18.7963   22.2502 O   0  0  0  0  0  0  0  0  0  0  0  0
    9.3216  -17.1691   20.4425 C   0  0  0  0  0  0  0  0  0  0  0  0
    9.9040  -17.6291   19.4486 O   0  0  0  0  0  0  0  0  0  0  0  0
    6.7438  -20.3490   21.1030 O   0  0  0  0  0  0  0  0  0  0  0  0
   14.7445  -13.4423   17.5235 N   0  0  0  0  0  0  0  0  0  0  0  0
   15.3350  -14.3471   18.4524 C   0  0  0  0  0  0  0  0  0  0  0  0
   16.5961  -14.5833   18.4521 N   0  0  0  0  0  0  0  0  0  0  0  0
   14.4576  -14.9910   19.3920 N   0  0  0  0  0  0  0  0  0  0  0  0
   13.0913  -14.5879   19.4922 C   0  0  0  0  0  0  0  0  0  0  0  0
   12.2988  -15.2263   20.5853 C   0  0  0  0  0  0  0  0  0  0  0  0
   12.3255  -16.7151   20.6647 C   0  0  0  0  0  0  0  0  0  0  0  0
   11.4946  -17.2526   21.7471 C   0  0  2  0  0  0  0  0  0  0  0  0
   10.0762  -17.0099   21.6229 N   0  0  0  0  0  0  0  0  0  0  0  0
   11.9363  -17.0097   23.1137 C   0  0  0  0  0  0  0  0  0  0  0  0
   11.0269  -16.5745   24.0970 O   0  0  0  0  0  0  0  0  0  0  0  0
   13.1241  -17.1712   23.4884 O   0  0  0  0  0  0  0  0  0  0  0  0
  1  2  1  0
  3  2  1  0
  3  4  1  1
  5  6  2  0
  5  3  1  0
  7  5  1  0
  8  7  1  0
  9 10  1  0
  8  9  1  6
 10 14  1  0
 10 11  2  0
 12 23  1  0
 12  8  1  0
 13 12  2  0
 16 15  1  0
 17 16  2  0
 18 16  1  0
 19 18  1  0
 20 19  1  0
 21 20  1  0
 22 21  1  6
 22 23  1  0
 24 22  1  0
 25 24  1  0
 26 24  2  0
M  END
$$$$
