PGH.pdb
     RDKit          3D

 22 23  0  0  1  0  0  0  0  0999 V2000
   16.6639  -15.2932    3.9257 N   0  0  0  0  0  0  0  0  0  0  0  0
   16.9311  -13.9200    3.6275 C   0  0  0  0  0  0  0  0  0  0  0  0
   18.1997  -13.8684    2.8027 C   0  0  0  0  0  0  0  0  0  0  0  0
   18.9241  -15.1184    3.2559 C   0  0  0  0  0  0  0  0  0  0  0  0
   17.7471  -16.0831    3.4332 C   0  0  1  0  0  0  0  0  0  0  0  0
   18.1054  -17.2027    4.3433 C   0  0  0  0  0  0  0  0  0  0  0  0
   19.0492  -17.9515    4.0444 O   0  0  0  0  0  0  0  0  0  0  0  0
   17.3497  -17.3796    5.5338 N   0  0  0  0  0  0  0  0  0  0  0  0
   18.0071  -17.4864    6.8055 C   0  0  0  0  0  0  0  0  0  0  0  0
   18.4443  -18.8825    7.0657 C   0  0  0  0  0  0  0  0  0  0  0  0
   17.5803  -19.7984    7.0548 O   0  0  0  0  0  0  0  0  0  0  0  0
   19.7893  -19.2273    7.3251 N   0  0  0  0  0  0  0  0  0  0  0  0
   20.1509  -20.6118    7.7629 C   0  0  1  0  0  0  0  0  0  0  0  0
   20.8284  -21.2729    6.6273 C   0  0  0  0  0  0  0  0  0  0  0  0
   20.0021  -22.0624    5.7134 C   0  0  0  0  0  0  0  0  0  0  0  0
   18.6544  -22.2675    5.6301 C   0  0  0  0  0  0  0  0  0  0  0  0
   18.3419  -23.0497    4.5580 N   0  0  0  0  0  0  0  0  0  0  0  0
   19.5126  -23.3202    3.9851 C   0  0  0  0  0  0  0  0  0  0  0  0
   20.5193  -22.7467    4.6492 N   0  0  0  0  0  0  0  0  0  0  0  0
   21.0326  -20.3852    8.9366 C   0  0  0  0  0  0  0  0  0  0  0  0
   21.4823  -21.3746    9.5884 O   0  0  0  0  0  0  0  0  0  0  0  0
   21.4070  -19.1465    9.3823 O   0  0  0  0  0  0  0  0  0  0  0  0
  1  2  1  0
  1  5  1  0
  2  3  1  0
  3  4  1  0
  5  4  1  0
  5  6  1  1
  6  7  2  0
  8  9  1  0
  8  6  1  0
  9 10  1  0
 10 12  1  0
 10 11  2  0
 12 13  1  0
 13 14  1  6
 14 15  1  0
 15 16  2  0
 16 17  1  0
 18 17  1  0
 19 15  1  0
 19 18  2  0
 20 13  1  0
 20 22  1  0
 21 20  2  0
M  END
$$$$
