PGH.pdb
     RDKit          3D

 22 23  0  0  1  0  0  0  0  0999 V2000
   25.1391  -15.9211  -16.6666 N   0  0  0  0  0  0  0  0  0  0  0  0
   25.6016  -15.0438  -15.6359 C   0  0  0  0  0  0  0  0  0  0  0  0
   26.9843  -15.5055  -15.2272 C   0  0  0  0  0  0  0  0  0  0  0  0
   26.9363  -16.9824  -15.5571 C   0  0  0  0  0  0  0  0  0  0  0  0
   26.1012  -16.9620  -16.8415 C   0  0  1  0  0  0  0  0  0  0  0  0
   25.4778  -18.2874  -17.0956 C   0  0  0  0  0  0  0  0  0  0  0  0
   26.2019  -19.2900  -17.2017 O   0  0  0  0  0  0  0  0  0  0  0  0
   24.0632  -18.3629  -17.2096 N   0  0  0  0  0  0  0  0  0  0  0  0
   23.4165  -19.6237  -17.4389 C   0  0  0  0  0  0  0  0  0  0  0  0
   23.0483  -20.2767  -16.1559 C   0  0  0  0  0  0  0  0  0  0  0  0
   22.2538  -21.2533  -16.1809 O   0  0  0  0  0  0  0  0  0  0  0  0
   23.5517  -19.8487  -14.9074 N   0  0  0  0  0  0  0  0  0  0  0  0
   23.1243  -20.5223  -13.6413 C   0  0  1  0  0  0  0  0  0  0  0  0
   24.1288  -20.1982  -12.6061 C   0  0  0  0  0  0  0  0  0  0  0  0
   23.8107  -20.5493  -11.2216 C   0  0  0  0  0  0  0  0  0  0  0  0
   22.7739  -21.2369  -10.6579 C   0  0  0  0  0  0  0  0  0  0  0  0
   22.9421  -21.3618   -9.3107 N   0  0  0  0  0  0  0  0  0  0  0  0
   24.0935  -20.7443   -9.0559 C   0  0  0  0  0  0  0  0  0  0  0  0
   24.6345  -20.2507  -10.1726 N   0  0  0  0  0  0  0  0  0  0  0  0
   21.7826  -19.9430  -13.3762 C   0  0  0  0  0  0  0  0  0  0  0  0
   20.9450  -20.5856  -12.6751 O   0  0  0  0  0  0  0  0  0  0  0  0
   21.3690  -18.7270  -13.8492 O   0  0  0  0  0  0  0  0  0  0  0  0
  1  2  1  0
  1  5  1  0
  2  3  1  0
  3  4  1  0
  5  4  1  0
  5  6  1  1
  6  7  2  0
  8  9  1  0
  8  6  1  0
  9 10  1  0
 10 12  1  0
 10 11  2  0
 12 13  1  0
 13 14  1  1
 14 15  1  0
 15 16  2  0
 16 17  1  0
 18 17  1  0
 19 15  1  0
 19 18  2  0
 20 13  1  0
 20 22  1  0
 21 20  2  0
M  END
$$$$
