PGH.pdb
     RDKit          3D

 22 23  0  0  1  0  0  0  0  0999 V2000
   33.2606  -28.5970  -16.8706 N   0  0  0  0  0  0  0  0  0  0  0  0
   33.0696  -29.5778  -17.8940 C   0  0  0  0  0  0  0  0  0  0  0  0
   33.8637  -29.1371  -19.1053 C   0  0  0  0  0  0  0  0  0  0  0  0
   33.8974  -27.6332  -18.9329 C   0  0  0  0  0  0  0  0  0  0  0  0
   34.0309  -27.5224  -17.4106 C   0  0  1  0  0  0  0  0  0  0  0  0
   33.5799  -26.1901  -16.9293 C   0  0  0  0  0  0  0  0  0  0  0  0
   34.1229  -25.1666  -17.3746 O   0  0  0  0  0  0  0  0  0  0  0  0
   32.5344  -26.1325  -15.9684 N   0  0  0  0  0  0  0  0  0  0  0  0
   31.9820  -24.8698  -15.5670 C   0  0  0  0  0  0  0  0  0  0  0  0
   30.9416  -24.4129  -16.5245 C   0  0  0  0  0  0  0  0  0  0  0  0
   31.3069  -23.8679  -17.5993 O   0  0  0  0  0  0  0  0  0  0  0  0
   29.5584  -24.5636  -16.2809 N   0  0  0  0  0  0  0  0  0  0  0  0
   28.5564  -24.2287  -17.3408 C   0  0  1  0  0  0  0  0  0  0  0  0
   28.7091  -25.2225  -18.4247 C   0  0  0  0  0  0  0  0  0  0  0  0
   27.7201  -25.2044  -19.5031 C   0  0  0  0  0  0  0  0  0  0  0  0
   27.1055  -24.1870  -20.1758 C   0  0  0  0  0  0  0  0  0  0  0  0
   26.2876  -24.6688  -21.1545 N   0  0  0  0  0  0  0  0  0  0  0  0
   26.4090  -25.9920  -21.0745 C   0  0  0  0  0  0  0  0  0  0  0  0
   27.2546  -26.3415  -20.1017 N   0  0  0  0  0  0  0  0  0  0  0  0
   27.2560  -24.3147  -16.6282 C   0  0  0  0  0  0  0  0  0  0  0  0
   26.1838  -24.0140  -17.2331 O   0  0  0  0  0  0  0  0  0  0  0  0
   27.1250  -24.7063  -15.3233 O   0  0  0  0  0  0  0  0  0  0  0  0
  1  2  1  0
  1  5  1  0
  2  3  1  0
  3  4  1  0
  5  4  1  0
  5  6  1  1
  6  7  2  0
  8  9  1  0
  8  6  1  0
  9 10  1  0
 10 12  1  0
 10 11  2  0
 12 13  1  0
 13 14  1  6
 14 15  1  0
 15 16  2  0
 16 17  1  0
 18 17  1  0
 19 15  1  0
 19 18  2  0
 20 13  1  0
 20 22  1  0
 21 20  2  0
M  END
$$$$
