PGH.pdb
     RDKit          3D

 22 23  0  0  1  0  0  0  0  0999 V2000
   33.9925  -37.1727   -6.2809 N   0  0  0  0  0  0  0  0  0  0  0  0
   35.0263  -38.0153   -6.7979 C   0  0  0  0  0  0  0  0  0  0  0  0
   36.1397  -38.0565   -5.7728 C   0  0  0  0  0  0  0  0  0  0  0  0
   35.9720  -36.7268   -5.0683 C   0  0  0  0  0  0  0  0  0  0  0  0
   34.4451  -36.6016   -5.0525 C   0  0  1  0  0  0  0  0  0  0  0  0
   34.0260  -35.1851   -4.8856 C   0  0  0  0  0  0  0  0  0  0  0  0
   34.3320  -34.5785   -3.8469 O   0  0  0  0  0  0  0  0  0  0  0  0
   33.2836  -34.5682   -5.9288 N   0  0  0  0  0  0  0  0  0  0  0  0
   32.8394  -33.2091   -5.8021 C   0  0  0  0  0  0  0  0  0  0  0  0
   31.4154  -33.1492   -5.3816 C   0  0  0  0  0  0  0  0  0  0  0  0
   30.8526  -32.0250   -5.3119 O   0  0  0  0  0  0  0  0  0  0  0  0
   30.6646  -34.3006   -5.0563 N   0  0  0  0  0  0  0  0  0  0  0  0
   29.2060  -34.1954   -4.7389 C   0  0  1  0  0  0  0  0  0  0  0  0
   28.4708  -34.9451   -5.7796 C   0  0  0  0  0  0  0  0  0  0  0  0
   28.0453  -34.2087   -6.9703 C   0  0  0  0  0  0  0  0  0  0  0  0
   28.2387  -32.9193   -7.3773 C   0  0  0  0  0  0  0  0  0  0  0  0
   27.6917  -32.7051   -8.6075 N   0  0  0  0  0  0  0  0  0  0  0  0
   27.1623  -33.8775   -8.9501 C   0  0  0  0  0  0  0  0  0  0  0  0
   27.3566  -34.7922   -7.9967 N   0  0  0  0  0  0  0  0  0  0  0  0
   29.1020  -34.7940   -3.3835 C   0  0  0  0  0  0  0  0  0  0  0  0
   30.1311  -35.2835   -2.8292 O   0  0  0  0  0  0  0  0  0  0  0  0
   27.9388  -34.8597   -2.6652 O   0  0  0  0  0  0  0  0  0  0  0  0
  1  2  1  0
  1  5  1  0
  2  3  1  0
  3  4  1  0
  5  4  1  0
  5  6  1  6
  6  7  2  0
  8  9  1  0
  8  6  1  0
  9 10  1  0
 10 12  1  0
 10 11  2  0
 12 13  1  0
 13 14  1  6
 14 15  1  0
 15 16  2  0
 16 17  1  0
 18 17  1  0
 19 15  1  0
 19 18  2  0
 20 13  1  0
 20 22  1  0
 21 20  2  0
M  END
$$$$
