PGH.pdb
     RDKit          3D

 22 23  0  0  1  0  0  0  0  0999 V2000
   26.7963  -21.2084  -14.7865 N   0  0  0  0  0  0  0  0  0  0  0  0
   26.6351  -20.3763  -15.9387 C   0  0  0  0  0  0  0  0  0  0  0  0
   27.6693  -19.2737  -15.8563 C   0  0  0  0  0  0  0  0  0  0  0  0
   27.8892  -19.1556  -14.3629 C   0  0  0  0  0  0  0  0  0  0  0  0
   27.7893  -20.6253  -13.9417 C   0  0  1  0  0  0  0  0  0  0  0  0
   27.4615  -20.7468  -12.4967 C   0  0  0  0  0  0  0  0  0  0  0  0
   28.1776  -20.1742  -11.6602 O   0  0  0  0  0  0  0  0  0  0  0  0
   26.3306  -21.5202  -12.1188 N   0  0  0  0  0  0  0  0  0  0  0  0
   25.5618  -21.1688  -10.9586 C   0  0  0  0  0  0  0  0  0  0  0  0
   24.2337  -20.6241  -11.3424 C   0  0  0  0  0  0  0  0  0  0  0  0
   23.4342  -20.2828  -10.4314 O   0  0  0  0  0  0  0  0  0  0  0  0
   23.8284  -20.4723  -12.6871 N   0  0  0  0  0  0  0  0  0  0  0  0
   22.4588  -19.9687  -13.0186 C   0  0  1  0  0  0  0  0  0  0  0  0
   22.5779  -19.1220  -14.2247 C   0  0  0  0  0  0  0  0  0  0  0  0
   21.3416  -18.6074  -14.8145 C   0  0  0  0  0  0  0  0  0  0  0  0
   20.1532  -18.2117  -14.2701 C   0  0  0  0  0  0  0  0  0  0  0  0
   19.3044  -17.7451  -15.2295 N   0  0  0  0  0  0  0  0  0  0  0  0
   19.9864  -17.8582  -16.3671 C   0  0  0  0  0  0  0  0  0  0  0  0
   21.2020  -18.3679  -16.1530 N   0  0  0  0  0  0  0  0  0  0  0  0
   21.6752  -21.2119  -13.2346 C   0  0  0  0  0  0  0  0  0  0  0  0
   22.2451  -22.2446  -13.6981 O   0  0  0  0  0  0  0  0  0  0  0  0
   20.3389  -21.3289  -12.9627 O   0  0  0  0  0  0  0  0  0  0  0  0
  1  2  1  0
  1  5  1  0
  2  3  1  0
  3  4  1  0
  5  4  1  0
  5  6  1  1
  6  7  2  0
  8  9  1  0
  8  6  1  0
  9 10  1  0
 10 12  1  0
 10 11  2  0
 12 13  1  0
 13 14  1  6
 14 15  1  0
 15 16  2  0
 16 17  1  0
 18 17  1  0
 19 15  1  0
 19 18  2  0
 20 13  1  0
 20 22  1  0
 21 20  2  0
M  END
$$$$
