PGH.pdb
     RDKit          3D

 22 23  0  0  1  0  0  0  0  0999 V2000
   25.2359  -24.0571  -15.2065 N   0  0  0  0  0  0  0  0  0  0  0  0
   24.4193  -25.2235  -15.0695 C   0  0  0  0  0  0  0  0  0  0  0  0
   23.6834  -25.4240  -16.3773 C   0  0  0  0  0  0  0  0  0  0  0  0
   23.6060  -24.0118  -16.9180 C   0  0  0  0  0  0  0  0  0  0  0  0
   24.9658  -23.4611  -16.4759 C   0  0  1  0  0  0  0  0  0  0  0  0
   24.9503  -21.9754  -16.4245 C   0  0  0  0  0  0  0  0  0  0  0  0
   24.6745  -21.3340  -17.4507 O   0  0  0  0  0  0  0  0  0  0  0  0
   25.2540  -21.3345  -15.1929 N   0  0  0  0  0  0  0  0  0  0  0  0
   25.2146  -19.9036  -15.0865 C   0  0  0  0  0  0  0  0  0  0  0  0
   23.8366  -19.4266  -14.8003 C   0  0  0  0  0  0  0  0  0  0  0  0
   23.2690  -19.8162  -13.7461 O   0  0  0  0  0  0  0  0  0  0  0  0
   23.1349  -18.5538  -15.6612 N   0  0  0  0  0  0  0  0  0  0  0  0
   21.7390  -18.1225  -15.3373 C   0  0  1  0  0  0  0  0  0  0  0  0
   21.5274  -16.7999  -15.9632 C   0  0  0  0  0  0  0  0  0  0  0  0
   20.1740  -16.2446  -15.9298 C   0  0  0  0  0  0  0  0  0  0  0  0
   19.0301  -16.6366  -15.2949 C   0  0  0  0  0  0  0  0  0  0  0  0
   18.0152  -15.7550  -15.5223 N   0  0  0  0  0  0  0  0  0  0  0  0
   18.5504  -14.8184  -16.3021 C   0  0  0  0  0  0  0  0  0  0  0  0
   19.8337  -15.0815  -16.5620 N   0  0  0  0  0  0  0  0  0  0  0  0
   20.8993  -19.2011  -15.9182 C   0  0  0  0  0  0  0  0  0  0  0  0
   21.2734  -19.7924  -16.9748 O   0  0  0  0  0  0  0  0  0  0  0  0
   19.7114  -19.6172  -15.3804 O   0  0  0  0  0  0  0  0  0  0  0  0
  1  2  1  0
  1  5  1  0
  2  3  1  0
  3  4  1  0
  5  4  1  0
  5  6  1  1
  6  7  2  0
  8  9  1  0
  8  6  1  0
  9 10  1  0
 10 12  1  0
 10 11  2  0
 12 13  1  0
 13 14  1  6
 14 15  1  0
 15 16  2  0
 16 17  1  0
 18 17  1  0
 19 15  1  0
 19 18  2  0
 20 13  1  0
 20 22  1  0
 21 20  2  0
M  END
$$$$
