PGH.pdb
     RDKit          3D

 22 23  0  0  1  0  0  0  0  0999 V2000
   26.1086  -21.0730  -17.3030 N   0  0  0  0  0  0  0  0  0  0  0  0
   26.3021  -21.1444  -18.7184 C   0  0  0  0  0  0  0  0  0  0  0  0
   27.3945  -22.1592  -18.9811 C   0  0  0  0  0  0  0  0  0  0  0  0
   28.2028  -22.0938  -17.7024 C   0  0  0  0  0  0  0  0  0  0  0  0
   27.0889  -21.8959  -16.6693 C   0  0  1  0  0  0  0  0  0  0  0  0
   27.6212  -21.2986  -15.4162 C   0  0  0  0  0  0  0  0  0  0  0  0
   28.3346  -21.9869  -14.6694 O   0  0  0  0  0  0  0  0  0  0  0  0
   27.2928  -19.9494  -15.1132 N   0  0  0  0  0  0  0  0  0  0  0  0
   27.8579  -19.3023  -13.9633 C   0  0  0  0  0  0  0  0  0  0  0  0
   26.8772  -19.2411  -12.8486 C   0  0  0  0  0  0  0  0  0  0  0  0
   26.4165  -18.1193  -12.5097 O   0  0  0  0  0  0  0  0  0  0  0  0
   26.4388  -20.3887  -12.1514 N   0  0  0  0  0  0  0  0  0  0  0  0
   25.4396  -20.2726  -11.0435 C   0  0  1  0  0  0  0  0  0  0  0  0
   24.3596  -21.2444  -11.3172 C   0  0  0  0  0  0  0  0  0  0  0  0
   23.3706  -20.8877  -12.3349 C   0  0  0  0  0  0  0  0  0  0  0  0
   23.1928  -19.7691  -13.0982 C   0  0  0  0  0  0  0  0  0  0  0  0
   22.1501  -19.9249  -13.9626 N   0  0  0  0  0  0  0  0  0  0  0  0
   21.6922  -21.1513  -13.7213 C   0  0  0  0  0  0  0  0  0  0  0  0
   22.3979  -21.7496  -12.7582 N   0  0  0  0  0  0  0  0  0  0  0  0
   26.2326  -20.5854   -9.8272 C   0  0  0  0  0  0  0  0  0  0  0  0
   25.7086  -20.4535   -8.6809 O   0  0  0  0  0  0  0  0  0  0  0  0
   27.5307  -21.0188   -9.8527 O   0  0  0  0  0  0  0  0  0  0  0  0
  1  2  1  0
  1  5  1  0
  2  3  1  0
  3  4  1  0
  5  4  1  0
  5  6  1  1
  6  7  2  0
  8  9  1  0
  8  6  1  0
  9 10  1  0
 10 12  1  0
 10 11  2  0
 12 13  1  0
 13 14  1  6
 14 15  1  0
 15 16  2  0
 16 17  1  0
 18 17  1  0
 19 15  1  0
 19 18  2  0
 20 13  1  0
 20 22  1  0
 21 20  2  0
M  END
$$$$
