PGH.pdb
     RDKit          3D

 22 23  0  0  1  0  0  0  0  0999 V2000
   22.5290  -15.0779  -17.3494 N   0  0  0  0  0  0  0  0  0  0  0  0
   23.0492  -15.8878  -16.2913 C   0  0  0  0  0  0  0  0  0  0  0  0
   21.9980  -16.9212  -15.9458 C   0  0  0  0  0  0  0  0  0  0  0  0
   20.7180  -16.2179  -16.3453 C   0  0  0  0  0  0  0  0  0  0  0  0
   21.1803  -15.4739  -17.6023 C   0  0  1  0  0  0  0  0  0  0  0  0
   20.2876  -14.3236  -17.9021 C   0  0  0  0  0  0  0  0  0  0  0  0
   19.0650  -14.5125  -18.0030 O   0  0  0  0  0  0  0  0  0  0  0  0
   20.8682  -13.0366  -18.0643 N   0  0  0  0  0  0  0  0  0  0  0  0
   20.0381  -11.8814  -18.2568 C   0  0  0  0  0  0  0  0  0  0  0  0
   20.4007  -10.7983  -17.3064 C   0  0  0  0  0  0  0  0  0  0  0  0
   20.0407  -10.9033  -16.1043 O   0  0  0  0  0  0  0  0  0  0  0  0
   21.1329   -9.6540  -17.6935 N   0  0  0  0  0  0  0  0  0  0  0  0
   21.4874   -8.6004  -16.6917 C   0  0  1  0  0  0  0  0  0  0  0  0
   22.4674   -7.6951  -17.3286 C   0  0  0  0  0  0  0  0  0  0  0  0
   22.8371   -6.4798  -16.6022 C   0  0  0  0  0  0  0  0  0  0  0  0
   23.2075   -6.2544  -15.3071 C   0  0  0  0  0  0  0  0  0  0  0  0
   23.5173   -4.9419  -15.1061 N   0  0  0  0  0  0  0  0  0  0  0  0
   23.3338   -4.3666  -16.2923 C   0  0  0  0  0  0  0  0  0  0  0  0
   22.9294   -5.2556  -17.2031 N   0  0  0  0  0  0  0  0  0  0  0  0
   20.1836   -7.9554  -16.3908 C   0  0  0  0  0  0  0  0  0  0  0  0
   19.9917   -7.4178  -15.2594 O   0  0  0  0  0  0  0  0  0  0  0  0
   19.1389   -7.8975  -17.2732 O   0  0  0  0  0  0  0  0  0  0  0  0
  1  2  1  0
  1  5  1  0
  2  3  1  0
  3  4  1  0
  5  4  1  0
  5  6  1  1
  6  7  2  0
  8  9  1  0
  8  6  1  0
  9 10  1  0
 10 12  1  0
 10 11  2  0
 12 13  1  0
 13 14  1  6
 14 15  1  0
 15 16  2  0
 16 17  1  0
 18 17  1  0
 19 15  1  0
 19 18  2  0
 20 13  1  0
 20 22  1  0
 21 20  2  0
M  END
$$$$
