PGH.pdb
     RDKit          3D

 22 23  0  0  1  0  0  0  0  0999 V2000
   27.3106  -22.0554  -17.1233 N   0  0  0  0  0  0  0  0  0  0  0  0
   28.2944  -22.7531  -17.8923 C   0  0  0  0  0  0  0  0  0  0  0  0
   29.4146  -23.1481  -16.9536 C   0  0  0  0  0  0  0  0  0  0  0  0
   29.3227  -22.0814  -15.8829 C   0  0  0  0  0  0  0  0  0  0  0  0
   27.8044  -21.8964  -15.7927 C   0  0  1  0  0  0  0  0  0  0  0  0
   27.4604  -20.5756  -15.2033 C   0  0  0  0  0  0  0  0  0  0  0  0
   27.8274  -20.3109  -14.0476 O   0  0  0  0  0  0  0  0  0  0  0  0
   26.7173  -19.6534  -15.9889 N   0  0  0  0  0  0  0  0  0  0  0  0
   26.3216  -18.3853  -15.4448 C   0  0  0  0  0  0  0  0  0  0  0  0
   24.8418  -18.2764  -15.3647 C   0  0  0  0  0  0  0  0  0  0  0  0
   24.3373  -17.2111  -14.9218 O   0  0  0  0  0  0  0  0  0  0  0  0
   23.9752  -19.3177  -15.7646 N   0  0  0  0  0  0  0  0  0  0  0  0
   22.4908  -19.1538  -15.6685 C   0  0  1  0  0  0  0  0  0  0  0  0
   21.9046  -19.6845  -16.9176 C   0  0  0  0  0  0  0  0  0  0  0  0
   20.9654  -18.8271  -17.6415 C   0  0  0  0  0  0  0  0  0  0  0  0
   20.4955  -17.5665  -17.4061 C   0  0  0  0  0  0  0  0  0  0  0  0
   19.6659  -17.1565  -18.4073 N   0  0  0  0  0  0  0  0  0  0  0  0
   19.6340  -18.1791  -19.2589 C   0  0  0  0  0  0  0  0  0  0  0  0
   20.3973  -19.1879  -18.8312 N   0  0  0  0  0  0  0  0  0  0  0  0
   22.1330  -19.9379  -14.4587 C   0  0  0  0  0  0  0  0  0  0  0  0
   23.0023  -20.6747  -13.9043 O   0  0  0  0  0  0  0  0  0  0  0  0
   20.8930  -19.9245  -13.8795 O   0  0  0  0  0  0  0  0  0  0  0  0
  1  2  1  0
  1  5  1  0
  2  3  1  0
  3  4  1  0
  5  4  1  0
  5  6  1  6
  6  7  2  0
  8  9  1  0
  8  6  1  0
  9 10  1  0
 10 12  1  0
 10 11  2  0
 12 13  1  0
 13 14  1  6
 14 15  1  0
 15 16  2  0
 16 17  1  0
 18 17  1  0
 19 15  1  0
 19 18  2  0
 20 13  1  0
 20 22  1  0
 21 20  2  0
M  END
$$$$
