PGH.pdb
     RDKit          3D

 22 23  0  0  1  0  0  0  0  0999 V2000
   29.4459  -21.6852  -12.0557 N   0  0  0  0  0  0  0  0  0  0  0  0
   30.7141  -21.8348  -11.4112 C   0  0  0  0  0  0  0  0  0  0  0  0
   30.5105  -21.5770   -9.9333 C   0  0  0  0  0  0  0  0  0  0  0  0
   29.3130  -20.6504   -9.9345 C   0  0  0  0  0  0  0  0  0  0  0  0
   28.4947  -21.2416  -11.0871 C   0  0  1  0  0  0  0  0  0  0  0  0
   27.5388  -20.2421  -11.6325 C   0  0  0  0  0  0  0  0  0  0  0  0
   26.7246  -19.6993  -10.8690 O   0  0  0  0  0  0  0  0  0  0  0  0
   27.5897  -19.9394  -13.0202 N   0  0  0  0  0  0  0  0  0  0  0  0
   26.7574  -18.9085  -13.5724 C   0  0  0  0  0  0  0  0  0  0  0  0
   25.3525  -19.3725  -13.7106 C   0  0  0  0  0  0  0  0  0  0  0  0
   24.4934  -18.5719  -14.1650 O   0  0  0  0  0  0  0  0  0  0  0  0
   24.9384  -20.6750  -13.3537 N   0  0  0  0  0  0  0  0  0  0  0  0
   23.5603  -21.1548  -13.6854 C   0  0  1  0  0  0  0  0  0  0  0  0
   23.6060  -22.6315  -13.7388 C   0  0  0  0  0  0  0  0  0  0  0  0
   24.2219  -23.2471  -14.9148 C   0  0  0  0  0  0  0  0  0  0  0  0
   24.7865  -22.7233  -16.0427 C   0  0  0  0  0  0  0  0  0  0  0  0
   25.2863  -23.7066  -16.8440 N   0  0  0  0  0  0  0  0  0  0  0  0
   25.0228  -24.8379  -16.1939 C   0  0  0  0  0  0  0  0  0  0  0  0
   24.3904  -24.5975  -15.0426 N   0  0  0  0  0  0  0  0  0  0  0  0
   22.7307  -20.6210  -12.5750 C   0  0  0  0  0  0  0  0  0  0  0  0
   23.2863  -20.2150  -11.5109 O   0  0  0  0  0  0  0  0  0  0  0  0
   21.3654  -20.5332  -12.6161 O   0  0  0  0  0  0  0  0  0  0  0  0
  1  2  1  0
  1  5  1  0
  2  3  1  0
  3  4  1  0
  5  4  1  0
  5  6  1  6
  6  7  2  0
  8  9  1  0
  8  6  1  0
  9 10  1  0
 10 12  1  0
 10 11  2  0
 12 13  1  0
 13 14  1  1
 14 15  1  0
 15 16  2  0
 16 17  1  0
 18 17  1  0
 19 15  1  0
 19 18  2  0
 20 13  1  0
 20 22  1  0
 21 20  2  0
M  END
$$$$
