PGH.pdb
     RDKit          3D

 22 23  0  0  1  0  0  0  0  0999 V2000
   16.0359  -26.4555   -3.1984 N   0  0  0  0  0  0  0  0  0  0  0  0
   16.5679  -27.4622   -4.0642 C   0  0  0  0  0  0  0  0  0  0  0  0
   17.3823  -26.7642   -5.1327 C   0  0  0  0  0  0  0  0  0  0  0  0
   16.7141  -25.4075   -5.2058 C   0  0  0  0  0  0  0  0  0  0  0  0
   16.3772  -25.1744   -3.7294 C   0  0  1  0  0  0  0  0  0  0  0  0
   15.2838  -24.1781   -3.5809 C   0  0  0  0  0  0  0  0  0  0  0  0
   14.3854  -24.1288   -4.4358 O   0  0  0  0  0  0  0  0  0  0  0  0
   15.3040  -23.3090   -2.4566 N   0  0  0  0  0  0  0  0  0  0  0  0
   14.2382  -22.3721   -2.2401 C   0  0  0  0  0  0  0  0  0  0  0  0
   13.2711  -22.8855   -1.2355 C   0  0  0  0  0  0  0  0  0  0  0  0
   12.4681  -22.0762   -0.7009 O   0  0  0  0  0  0  0  0  0  0  0  0
   13.2134  -24.2442   -0.8536 N   0  0  0  0  0  0  0  0  0  0  0  0
   12.1986  -24.7146    0.1404 C   0  0  1  0  0  0  0  0  0  0  0  0
   11.6381  -25.9855   -0.3660 C   0  0  0  0  0  0  0  0  0  0  0  0
   10.6127  -25.9052   -1.4069 C   0  0  0  0  0  0  0  0  0  0  0  0
   10.1675  -24.8769   -2.1877 C   0  0  0  0  0  0  0  0  0  0  0  0
    9.2198  -25.3044   -3.0697 N   0  0  0  0  0  0  0  0  0  0  0  0
    9.0905  -26.6058   -2.8214 C   0  0  0  0  0  0  0  0  0  0  0  0
    9.9062  -26.9932   -1.8375 N   0  0  0  0  0  0  0  0  0  0  0  0
   12.9830  -24.8631    1.3930 C   0  0  0  0  0  0  0  0  0  0  0  0
   14.1967  -24.4998    1.4244 O   0  0  0  0  0  0  0  0  0  0  0  0
   12.4764  -25.3813    2.5541 O   0  0  0  0  0  0  0  0  0  0  0  0
  1  2  1  0
  1  5  1  0
  2  3  1  0
  3  4  1  0
  5  4  1  0
  5  6  1  6
  6  7  2  0
  8  9  1  0
  8  6  1  0
  9 10  1  0
 10 12  1  0
 10 11  2  0
 12 13  1  0
 13 14  1  6
 14 15  1  0
 15 16  2  0
 16 17  1  0
 18 17  1  0
 19 15  1  0
 19 18  2  0
 20 13  1  0
 20 22  1  0
 21 20  2  0
M  END
$$$$
