KMD.pdb
     RDKit          3D

 26 25  0  0  1  0  0  0  0  0999 V2000
   22.2689  -16.6974  -17.6733 N   0  0  0  0  0  0  0  0  0  0  0  0
   22.0328  -15.4738  -18.3953 C   0  0  1  0  0  0  0  0  0  0  0  0
   20.5632  -15.1261  -18.4688 C   0  0  0  0  0  0  0  0  0  0  0  0
   19.7281  -16.2778  -18.9551 C   0  0  0  0  0  0  0  0  0  0  0  0
   18.2615  -15.9277  -19.0414 C   0  0  0  0  0  0  0  0  0  0  0  0
   17.5153  -17.1597  -19.5204 C   0  0  0  0  0  0  0  0  0  0  0  0
   16.0945  -16.8783  -19.4774 N   0  0  0  0  0  0  0  0  0  0  0  0
   22.7178  -14.3340  -17.7173 C   0  0  0  0  0  0  0  0  0  0  0  0
   22.7532  -14.2525  -16.4468 O   0  0  0  0  0  0  0  0  0  0  0  0
   27.6411  -10.0659  -15.3438 C   0  0  0  0  0  0  0  0  0  0  0  0
   26.5171  -11.2614  -16.0802 S   0  0  0  0  0  0  0  0  0  0  0  0
   26.2690  -10.9477  -17.8596 C   0  0  0  0  0  0  0  0  0  0  0  0
   25.3765  -11.9845  -18.4705 C   0  0  0  0  0  0  0  0  0  0  0  0
   24.0940  -12.2391  -17.7550 C   0  0  2  0  0  0  0  0  0  0  0  0
   23.3496  -13.3067  -18.4373 N   0  0  0  0  0  0  0  0  0  0  0  0
   23.2579  -11.0219  -17.7081 C   0  0  0  0  0  0  0  0  0  0  0  0
   22.6799  -10.6280  -18.7859 O   0  0  0  0  0  0  0  0  0  0  0  0
   23.0073  -10.2226  -16.5816 N   0  0  0  0  0  0  0  0  0  0  0  0
   22.0942   -9.0542  -16.6623 C   0  0  1  0  0  0  0  0  0  0  0  0
   21.3794   -9.0763  -15.3198 C   0  0  0  0  0  0  0  0  0  0  0  0
   20.3973   -7.9979  -15.2169 C   0  0  0  0  0  0  0  0  0  0  0  0
   20.1000   -7.1987  -16.1226 O   0  0  0  0  0  0  0  0  0  0  0  0
   22.9660   -7.8644  -16.7873 C   0  0  0  0  0  0  0  0  0  0  0  0
   22.6101   -6.7429  -17.5495 O   0  0  0  0  0  0  0  0  0  0  0  0
   19.7018   -7.8123  -13.9982 O   0  0  0  0  0  0  0  0  0  0  0  0
   24.0937   -7.7868  -16.2108 O   0  0  0  0  0  0  0  0  0  0  0  0
  2  1  1  1
  2  3  1  0
  4  3  1  0
  5  4  1  0
  6  5  1  0
  7  6  1  0
  8  2  1  0
  9  8  2  0
 10 11  1  0
 11 12  1  0
 12 13  1  0
 14 13  1  6
 14 15  1  0
 15  8  1  0
 16 14  1  0
 16 17  2  0
 18 16  1  0
 19 20  1  1
 19 18  1  0
 20 21  1  0
 21 25  1  0
 21 22  2  0
 23 19  1  0
 24 23  1  0
 26 23  2  0
M  END
$$$$
