KMD.pdb
     RDKit          3D

 26 25  0  0  1  0  0  0  0  0999 V2000
   13.3041  -12.7712  -11.8806 N   0  0  0  0  0  0  0  0  0  0  0  0
   14.6489  -12.2897  -11.6968 C   0  0  1  0  0  0  0  0  0  0  0  0
   15.5821  -12.7656  -12.7870 C   0  0  0  0  0  0  0  0  0  0  0  0
   15.6810  -14.2648  -12.8390 C   0  0  0  0  0  0  0  0  0  0  0  0
   16.5641  -14.7435  -13.9669 C   0  0  0  0  0  0  0  0  0  0  0  0
   16.5130  -16.2604  -13.9877 C   0  0  0  0  0  0  0  0  0  0  0  0
   17.3953  -16.7325  -15.0358 N   0  0  0  0  0  0  0  0  0  0  0  0
   14.6711  -10.7974  -11.7237 C   0  0  0  0  0  0  0  0  0  0  0  0
   13.9449  -10.1456  -12.5424 O   0  0  0  0  0  0  0  0  0  0  0  0
   15.5481   -6.5724   -6.5669 C   0  0  0  0  0  0  0  0  0  0  0  0
   14.4615   -5.9780   -7.8711 S   0  0  0  0  0  0  0  0  0  0  0  0
   15.0234   -6.5228   -9.5185 C   0  0  0  0  0  0  0  0  0  0  0  0
   15.0547   -8.0178   -9.6103 C   0  0  0  0  0  0  0  0  0  0  0  0
   15.5098   -8.5781  -10.9144 C   0  0  2  0  0  0  0  0  0  0  0  0
   15.4838  -10.0463  -10.8588 N   0  0  0  0  0  0  0  0  0  0  0  0
   16.8803   -8.1316  -11.2383 C   0  0  0  0  0  0  0  0  0  0  0  0
   17.8566   -8.5690  -10.5266 O   0  0  0  0  0  0  0  0  0  0  0  0
   17.2530   -7.2605  -12.2742 N   0  0  0  0  0  0  0  0  0  0  0  0
   18.6819   -6.9512  -12.5348 C   0  0  1  0  0  0  0  0  0  0  0  0
   19.2511   -8.2868  -12.9884 C   0  0  0  0  0  0  0  0  0  0  0  0
   20.6205   -8.1468  -13.4816 C   0  0  0  0  0  0  0  0  0  0  0  0
   20.9928   -8.3385  -14.6529 O   0  0  0  0  0  0  0  0  0  0  0  0
   18.6899   -5.9618  -13.6358 C   0  0  0  0  0  0  0  0  0  0  0  0
   17.5347   -5.6179  -14.3518 O   0  0  0  0  0  0  0  0  0  0  0  0
   21.6421   -7.7615  -12.5809 O   0  0  0  0  0  0  0  0  0  0  0  0
   19.7472   -5.3627  -14.0011 O   0  0  0  0  0  0  0  0  0  0  0  0
  2  1  1  6
  2  3  1  0
  4  3  1  0
  5  4  1  0
  6  5  1  0
  7  6  1  0
  8  2  1  0
  9  8  2  0
 10 11  1  0
 11 12  1  0
 12 13  1  0
 14 13  1  1
 14 15  1  0
 15  8  1  0
 16 14  1  0
 16 17  2  0
 18 16  1  0
 19 20  1  6
 19 18  1  0
 20 21  1  0
 21 25  1  0
 21 22  2  0
 23 19  1  0
 24 23  1  0
 26 23  2  0
M  END
$$$$
