KMD.pdb
     RDKit          3D

 26 25  0  0  1  0  0  0  0  0999 V2000
   27.8775  -21.4359  -15.9277 N   0  0  0  0  0  0  0  0  0  0  0  0
   27.6755  -20.4634  -14.8849 C   0  0  1  0  0  0  0  0  0  0  0  0
   27.2008  -19.1336  -15.4255 C   0  0  0  0  0  0  0  0  0  0  0  0
   27.5832  -18.9340  -16.8656 C   0  0  0  0  0  0  0  0  0  0  0  0
   28.9318  -18.2707  -17.0153 C   0  0  0  0  0  0  0  0  0  0  0  0
   29.1631  -18.0124  -18.4930 C   0  0  0  0  0  0  0  0  0  0  0  0
   30.4713  -17.4097  -18.6518 N   0  0  0  0  0  0  0  0  0  0  0  0
   26.6353  -20.9418  -13.9272 C   0  0  0  0  0  0  0  0  0  0  0  0
   25.7842  -21.8248  -14.2710 O   0  0  0  0  0  0  0  0  0  0  0  0
   26.1268  -19.4778   -7.3816 C   0  0  0  0  0  0  0  0  0  0  0  0
   27.3587  -20.6316   -8.0028 S   0  0  0  0  0  0  0  0  0  0  0  0
   26.8427  -21.3849   -9.5817 C   0  0  0  0  0  0  0  0  0  0  0  0
   25.8541  -20.5150  -10.2963 C   0  0  0  0  0  0  0  0  0  0  0  0
   25.5115  -20.9294  -11.6865 C   0  0  2  0  0  0  0  0  0  0  0  0
   26.5437  -20.4485  -12.6153 N   0  0  0  0  0  0  0  0  0  0  0  0
   24.2008  -20.3860  -12.0981 C   0  0  0  0  0  0  0  0  0  0  0  0
   24.1708  -19.3020  -12.7874 O   0  0  0  0  0  0  0  0  0  0  0  0
   22.9413  -20.9401  -11.8199 N   0  0  0  0  0  0  0  0  0  0  0  0
   21.7366  -20.5165  -12.5779 C   0  0  1  0  0  0  0  0  0  0  0  0
   22.0607  -20.9267  -14.0063 C   0  0  0  0  0  0  0  0  0  0  0  0
   20.9094  -20.7493  -14.8901 C   0  0  0  0  0  0  0  0  0  0  0  0
   19.8162  -20.2520  -14.5662 O   0  0  0  0  0  0  0  0  0  0  0  0
   20.6127  -21.3106  -12.0327 C   0  0  0  0  0  0  0  0  0  0  0  0
   19.2905  -20.8446  -12.0264 O   0  0  0  0  0  0  0  0  0  0  0  0
   21.0047  -21.1661  -16.2394 O   0  0  0  0  0  0  0  0  0  0  0  0
   20.7778  -22.4660  -11.5347 O   0  0  0  0  0  0  0  0  0  0  0  0
  2  1  1  6
  2  3  1  0
  4  3  1  0
  5  4  1  0
  6  5  1  0
  7  6  1  0
  8  2  1  0
  9  8  2  0
 10 11  1  0
 11 12  1  0
 12 13  1  0
 14 13  1  1
 14 15  1  0
 15  8  1  0
 16 14  1  0
 16 17  2  0
 18 16  1  0
 19 20  1  6
 19 18  1  0
 20 21  1  0
 21 25  1  0
 21 22  2  0
 23 19  1  0
 24 23  1  0
 26 23  2  0
M  END
$$$$
