KMD.pdb
     RDKit          3D

 26 25  0  0  1  0  0  0  0  0999 V2000
   26.6793  -15.9757  -15.3229 N   0  0  0  0  0  0  0  0  0  0  0  0
   26.1544  -16.4641  -16.5719 C   0  0  1  0  0  0  0  0  0  0  0  0
   27.2356  -17.0242  -17.4682 C   0  0  0  0  0  0  0  0  0  0  0  0
   28.3172  -17.7209  -16.6904 C   0  0  0  0  0  0  0  0  0  0  0  0
   27.7649  -18.7554  -15.7386 C   0  0  0  0  0  0  0  0  0  0  0  0
   28.9347  -19.3869  -15.0061 C   0  0  0  0  0  0  0  0  0  0  0  0
   28.4110  -20.3134  -14.0226 N   0  0  0  0  0  0  0  0  0  0  0  0
   25.1774  -17.5654  -16.3258 C   0  0  0  0  0  0  0  0  0  0  0  0
   24.7738  -18.3087  -17.2781 O   0  0  0  0  0  0  0  0  0  0  0  0
   25.3596  -20.8506  -10.9682 C   0  0  0  0  0  0  0  0  0  0  0  0
   23.6868  -21.3440  -11.4076 S   0  0  0  0  0  0  0  0  0  0  0  0
   23.2112  -20.7247  -13.0559 C   0  0  0  0  0  0  0  0  0  0  0  0
   24.0411  -19.5403  -13.4468 C   0  0  0  0  0  0  0  0  0  0  0  0
   23.7784  -18.9841  -14.8045 C   0  0  2  0  0  0  0  0  0  0  0  0
   24.6603  -17.8340  -15.0478 N   0  0  0  0  0  0  0  0  0  0  0  0
   22.3724  -18.5517  -14.9417 C   0  0  0  0  0  0  0  0  0  0  0  0
   22.0001  -17.4683  -14.3597 O   0  0  0  0  0  0  0  0  0  0  0  0
   21.3631  -19.2061  -15.6654 N   0  0  0  0  0  0  0  0  0  0  0  0
   19.9928  -18.6398  -15.7477 C   0  0  1  0  0  0  0  0  0  0  0  0
   19.5356  -19.0334  -17.1440 C   0  0  0  0  0  0  0  0  0  0  0  0
   18.1663  -18.5916  -17.4047 C   0  0  0  0  0  0  0  0  0  0  0  0
   17.4241  -18.0117  -16.5923 O   0  0  0  0  0  0  0  0  0  0  0  0
   19.2021  -19.3351  -14.7073 C   0  0  0  0  0  0  0  0  0  0  0  0
   18.1853  -18.7004  -13.9800 O   0  0  0  0  0  0  0  0  0  0  0  0
   17.5974  -18.8245  -18.6797 O   0  0  0  0  0  0  0  0  0  0  0  0
   19.3974  -20.5526  -14.4081 O   0  0  0  0  0  0  0  0  0  0  0  0
  2  1  1  1
  2  3  1  0
  4  3  1  0
  5  4  1  0
  6  5  1  0
  7  6  1  0
  8  2  1  0
  9  8  2  0
 10 11  1  0
 11 12  1  0
 12 13  1  0
 14 13  1  1
 14 15  1  0
 15  8  1  0
 16 14  1  0
 16 17  2  0
 18 16  1  0
 19 20  1  6
 19 18  1  0
 20 21  1  0
 21 25  1  0
 21 22  2  0
 23 19  1  0
 24 23  1  0
 26 23  2  0
M  END
$$$$
