KMD.pdb
     RDKit          3D

 26 25  0  0  1  0  0  0  0  0999 V2000
   23.9416  -13.2304  -18.5856 N   0  0  0  0  0  0  0  0  0  0  0  0
   23.2272  -11.9854  -18.7023 C   0  0  1  0  0  0  0  0  0  0  0  0
   21.7439  -12.1929  -18.9090 C   0  0  0  0  0  0  0  0  0  0  0  0
   21.4214  -13.5883  -19.3664 C   0  0  0  0  0  0  0  0  0  0  0  0
   21.4208  -14.5804  -18.2276 C   0  0  0  0  0  0  0  0  0  0  0  0
   20.8841  -15.8978  -18.7571 C   0  0  0  0  0  0  0  0  0  0  0  0
   20.9309  -16.8731  -17.6864 N   0  0  0  0  0  0  0  0  0  0  0  0
   23.3857  -11.1805  -17.4553 C   0  0  0  0  0  0  0  0  0  0  0  0
   22.5910  -11.3321  -16.4715 O   0  0  0  0  0  0  0  0  0  0  0  0
   28.3397  -13.1869  -15.1848 C   0  0  0  0  0  0  0  0  0  0  0  0
   27.7937  -11.6502  -15.9433 S   0  0  0  0  0  0  0  0  0  0  0  0
   26.4411  -10.8738  -14.9976 C   0  0  0  0  0  0  0  0  0  0  0  0
   26.0203   -9.5790  -15.6227 C   0  0  0  0  0  0  0  0  0  0  0  0
   24.5931   -9.4962  -16.0448 C   0  0  2  0  0  0  0  0  0  0  0  0
   24.4063  -10.2270  -17.3059 N   0  0  0  0  0  0  0  0  0  0  0  0
   24.1726   -8.0926  -16.2335 C   0  0  0  0  0  0  0  0  0  0  0  0
   24.4198   -7.5198  -17.3568 O   0  0  0  0  0  0  0  0  0  0  0  0
   23.5045   -7.2869  -15.2979 N   0  0  0  0  0  0  0  0  0  0  0  0
   23.0456   -5.9208  -15.6564 C   0  0  1  0  0  0  0  0  0  0  0  0
   21.9543   -6.1776  -16.6844 C   0  0  0  0  0  0  0  0  0  0  0  0
   21.2483   -4.9465  -17.0366 C   0  0  0  0  0  0  0  0  0  0  0  0
   21.7816   -3.8516  -17.2898 O   0  0  0  0  0  0  0  0  0  0  0  0
   22.4879   -5.3398  -14.4144 C   0  0  0  0  0  0  0  0  0  0  0  0
   22.2154   -3.9717  -14.2756 O   0  0  0  0  0  0  0  0  0  0  0  0
   19.8347   -4.9579  -17.1068 O   0  0  0  0  0  0  0  0  0  0  0  0
   22.2224   -6.0471  -13.3949 O   0  0  0  0  0  0  0  0  0  0  0  0
  2  1  1  1
  2  3  1  0
  4  3  1  0
  5  4  1  0
  6  5  1  0
  7  6  1  0
  8  2  1  0
  9  8  2  0
 10 11  1  0
 11 12  1  0
 12 13  1  0
 14 13  1  6
 14 15  1  0
 15  8  1  0
 16 14  1  0
 16 17  2  0
 18 16  1  0
 19 20  1  6
 19 18  1  0
 20 21  1  0
 21 25  1  0
 21 22  2  0
 23 19  1  0
 24 23  1  0
 26 23  2  0
M  END
$$$$
