KMD.pdb
     RDKit          3D

 26 25  0  0  1  0  0  0  0  0999 V2000
   28.0245  -37.0025   -8.3752 N   0  0  0  0  0  0  0  0  0  0  0  0
   28.2273  -35.8048   -7.6016 C   0  0  1  0  0  0  0  0  0  0  0  0
   26.9229  -35.1707   -7.1744 C   0  0  0  0  0  0  0  0  0  0  0  0
   26.5427  -34.0057   -8.0453 C   0  0  0  0  0  0  0  0  0  0  0  0
   25.2651  -33.3411   -7.5901 C   0  0  0  0  0  0  0  0  0  0  0  0
   24.9953  -32.1673   -8.5138 C   0  0  0  0  0  0  0  0  0  0  0  0
   23.8738  -31.4180   -7.9842 N   0  0  0  0  0  0  0  0  0  0  0  0
   28.9893  -36.1172   -6.3567 C   0  0  0  0  0  0  0  0  0  0  0  0
   28.8022  -37.2103   -5.7304 O   0  0  0  0  0  0  0  0  0  0  0  0
   35.3843  -34.7591   -3.7380 C   0  0  0  0  0  0  0  0  0  0  0  0
   34.7144  -34.8228   -5.4060 S   0  0  0  0  0  0  0  0  0  0  0  0
   33.1117  -35.6918   -5.4571 C   0  0  0  0  0  0  0  0  0  0  0  0
   32.0638  -34.9351   -4.6997 C   0  0  0  0  0  0  0  0  0  0  0  0
   30.7226  -35.5815   -4.6268 C   0  0  2  0  0  0  0  0  0  0  0  0
   29.9390  -35.2324   -5.8199 N   0  0  0  0  0  0  0  0  0  0  0  0
   29.9859  -35.1483   -3.4217 C   0  0  0  0  0  0  0  0  0  0  0  0
   29.1390  -34.1878   -3.5278 O   0  0  0  0  0  0  0  0  0  0  0  0
   30.1026  -35.6883   -2.1311 N   0  0  0  0  0  0  0  0  0  0  0  0
   29.2658  -35.1827   -1.0134 C   0  0  1  0  0  0  0  0  0  0  0  0
   27.8494  -35.5077   -1.4629 C   0  0  0  0  0  0  0  0  0  0  0  0
   26.8801  -34.5651   -0.9062 C   0  0  0  0  0  0  0  0  0  0  0  0
   27.1447  -33.6169   -0.1459 O   0  0  0  0  0  0  0  0  0  0  0  0
   29.6487  -35.9791    0.1742 C   0  0  0  0  0  0  0  0  0  0  0  0
   30.4876  -37.0996    0.0948 O   0  0  0  0  0  0  0  0  0  0  0  0
   25.5110  -34.7083   -1.2356 O   0  0  0  0  0  0  0  0  0  0  0  0
   29.2387  -35.6961    1.3412 O   0  0  0  0  0  0  0  0  0  0  0  0
  2  1  1  1
  2  3  1  0
  4  3  1  0
  5  4  1  0
  6  5  1  0
  7  6  1  0
  8  2  1  0
  9  8  2  0
 10 11  1  0
 11 12  1  0
 12 13  1  0
 14 13  1  6
 14 15  1  0
 15  8  1  0
 16 14  1  0
 16 17  2  0
 18 16  1  0
 19 20  1  6
 19 18  1  0
 20 21  1  0
 21 25  1  0
 21 22  2  0
 23 19  1  0
 24 23  1  0
 26 23  2  0
M  END
$$$$
