KMD.pdb
     RDKit          3D

 26 25  0  0  1  0  0  0  0  0999 V2000
   27.2985  -19.5355  -16.5227 N   0  0  0  0  0  0  0  0  0  0  0  0
   26.9304  -20.9184  -16.6845 C   0  0  1  0  0  0  0  0  0  0  0  0
   28.1266  -21.8017  -16.9580 C   0  0  0  0  0  0  0  0  0  0  0  0
   28.9068  -21.3491  -18.1608 C   0  0  0  0  0  0  0  0  0  0  0  0
   29.4069  -19.9309  -18.0207 C   0  0  0  0  0  0  0  0  0  0  0  0
   30.2289  -19.6022  -19.2537 C   0  0  0  0  0  0  0  0  0  0  0  0
   30.7665  -18.2653  -19.1010 N   0  0  0  0  0  0  0  0  0  0  0  0
   26.2855  -21.4300  -15.4393 C   0  0  0  0  0  0  0  0  0  0  0  0
   25.8943  -22.6391  -15.3528 O   0  0  0  0  0  0  0  0  0  0  0  0
   25.5785  -20.7903   -7.6150 C   0  0  0  0  0  0  0  0  0  0  0  0
   26.3161  -20.3053   -9.1821 S   0  0  0  0  0  0  0  0  0  0  0  0
   25.3714  -20.9523  -10.6018 C   0  0  0  0  0  0  0  0  0  0  0  0
   26.0638  -20.6462  -11.8946 C   0  0  0  0  0  0  0  0  0  0  0  0
   25.3681  -21.1099  -13.1285 C   0  0  2  0  0  0  0  0  0  0  0  0
   26.0801  -20.6141  -14.3146 N   0  0  0  0  0  0  0  0  0  0  0  0
   23.9720  -20.6283  -13.1674 C   0  0  0  0  0  0  0  0  0  0  0  0
   23.7526  -19.3923  -13.4421 O   0  0  0  0  0  0  0  0  0  0  0  0
   22.8170  -21.3927  -12.9384 N   0  0  0  0  0  0  0  0  0  0  0  0
   21.4758  -20.8835  -13.3219 C   0  0  1  0  0  0  0  0  0  0  0  0
   21.5768  -20.7374  -14.8326 C   0  0  0  0  0  0  0  0  0  0  0  0
   20.7623  -19.6251  -15.3198 C   0  0  0  0  0  0  0  0  0  0  0  0
   20.1093  -18.8391  -14.6106 O   0  0  0  0  0  0  0  0  0  0  0  0
   20.5150  -21.9457  -12.9479 C   0  0  0  0  0  0  0  0  0  0  0  0
   20.7048  -23.2918  -13.2903 O   0  0  0  0  0  0  0  0  0  0  0  0
   20.6826  -19.3867  -16.7127 O   0  0  0  0  0  0  0  0  0  0  0  0
   19.4560  -21.7018  -12.2927 O   0  0  0  0  0  0  0  0  0  0  0  0
  2  1  1  1
  2  3  1  0
  4  3  1  0
  5  4  1  0
  6  5  1  0
  7  6  1  0
  8  2  1  0
  9  8  2  0
 10 11  1  0
 11 12  1  0
 12 13  1  0
 14 13  1  1
 14 15  1  0
 15  8  1  0
 16 14  1  0
 16 17  2  0
 18 16  1  0
 19 20  1  6
 19 18  1  0
 20 21  1  0
 21 25  1  0
 21 22  2  0
 23 19  1  0
 24 23  1  0
 26 23  2  0
M  END
$$$$
