KMD.pdb
     RDKit          3D

 26 25  0  0  1  0  0  0  0  0999 V2000
   23.7593  -14.1722  -17.7500 N   0  0  0  0  0  0  0  0  0  0  0  0
   23.4694  -12.8310  -18.1874 C   0  0  1  0  0  0  0  0  0  0  0  0
   22.0675  -12.6981  -18.7378 C   0  0  0  0  0  0  0  0  0  0  0  0
   21.6261  -13.9298  -19.4782 C   0  0  0  0  0  0  0  0  0  0  0  0
   20.4704  -14.6253  -18.7986 C   0  0  0  0  0  0  0  0  0  0  0  0
   20.0283  -15.7729  -19.6883 C   0  0  0  0  0  0  0  0  0  0  0  0
   18.9163  -15.3194  -20.4993 N   0  0  0  0  0  0  0  0  0  0  0  0
   23.5812  -11.8793  -17.0430 C   0  0  0  0  0  0  0  0  0  0  0  0
   22.9413  -12.0783  -15.9599 O   0  0  0  0  0  0  0  0  0  0  0  0
   28.7880  -13.0443  -15.1479 C   0  0  0  0  0  0  0  0  0  0  0  0
   28.0044  -11.6404  -15.9543 S   0  0  0  0  0  0  0  0  0  0  0  0
   26.6429  -10.9587  -14.9504 C   0  0  0  0  0  0  0  0  0  0  0  0
   26.0313   -9.7622  -15.6130 C   0  0  0  0  0  0  0  0  0  0  0  0
   24.5783   -9.8675  -15.9284 C   0  0  2  0  0  0  0  0  0  0  0  0
   24.3875  -10.7307  -17.1022 N   0  0  0  0  0  0  0  0  0  0  0  0
   23.9946   -8.5390  -16.2062 C   0  0  0  0  0  0  0  0  0  0  0  0
   24.0234   -8.0916  -17.4104 O   0  0  0  0  0  0  0  0  0  0  0  0
   23.3843   -7.6827  -15.2761 N   0  0  0  0  0  0  0  0  0  0  0  0
   22.8033   -6.3837  -15.7008 C   0  0  1  0  0  0  0  0  0  0  0  0
   21.7259   -6.7913  -16.6942 C   0  0  0  0  0  0  0  0  0  0  0  0
   20.9358   -5.6411  -17.1309 C   0  0  0  0  0  0  0  0  0  0  0  0
   21.2201   -4.4471  -16.9291 O   0  0  0  0  0  0  0  0  0  0  0  0
   22.2125   -5.7847  -14.4829 C   0  0  0  0  0  0  0  0  0  0  0  0
   22.0068   -4.4050  -14.3423 O   0  0  0  0  0  0  0  0  0  0  0  0
   19.7359   -5.8609  -17.8487 O   0  0  0  0  0  0  0  0  0  0  0  0
   21.8555   -6.4857  -13.4873 O   0  0  0  0  0  0  0  0  0  0  0  0
  2  1  1  1
  2  3  1  0
  4  3  1  0
  5  4  1  0
  6  5  1  0
  7  6  1  0
  8  2  1  0
  9  8  2  0
 10 11  1  0
 11 12  1  0
 12 13  1  0
 14 13  1  6
 14 15  1  0
 15  8  1  0
 16 14  1  0
 16 17  2  0
 18 16  1  0
 19 20  1  6
 19 18  1  0
 20 21  1  0
 21 25  1  0
 21 22  2  0
 23 19  1  0
 24 23  1  0
 26 23  2  0
M  END
$$$$
