KMD.pdb
     RDKit          3D

 26 25  0  0  1  0  0  0  0  0999 V2000
   27.4416  -21.7888  -12.3572 N   0  0  0  0  0  0  0  0  0  0  0  0
   26.4839  -20.7427  -12.1074 C   0  0  1  0  0  0  0  0  0  0  0  0
   26.5476  -20.2350  -10.6847 C   0  0  0  0  0  0  0  0  0  0  0  0
   25.4798  -20.8384   -9.8152 C   0  0  0  0  0  0  0  0  0  0  0  0
   24.0951  -20.6393  -10.3844 C   0  0  0  0  0  0  0  0  0  0  0  0
   23.0910  -21.0466   -9.3215 C   0  0  0  0  0  0  0  0  0  0  0  0
   21.7592  -20.9148   -9.8772 N   0  0  0  0  0  0  0  0  0  0  0  0
   26.7495  -19.5759  -12.9996 C   0  0  0  0  0  0  0  0  0  0  0  0
   27.2853  -18.5128  -12.5467 O   0  0  0  0  0  0  0  0  0  0  0  0
   29.3614  -19.3212  -18.6567 C   0  0  0  0  0  0  0  0  0  0  0  0
   29.1409  -17.5823  -18.2538 S   0  0  0  0  0  0  0  0  0  0  0  0
   27.7378  -17.3252  -17.1173 C   0  0  0  0  0  0  0  0  0  0  0  0
   27.5666  -18.4964  -16.1987 C   0  0  0  0  0  0  0  0  0  0  0  0
   26.4848  -18.3697  -15.1812 C   0  0  2  0  0  0  0  0  0  0  0  0
   26.4257  -19.5912  -14.3663 N   0  0  0  0  0  0  0  0  0  0  0  0
   25.1714  -18.1532  -15.8221 C   0  0  0  0  0  0  0  0  0  0  0  0
   24.4975  -19.1762  -16.2099 O   0  0  0  0  0  0  0  0  0  0  0  0
   24.5497  -16.9168  -16.0579 N   0  0  0  0  0  0  0  0  0  0  0  0
   23.2090  -16.8450  -16.6924 C   0  0  1  0  0  0  0  0  0  0  0  0
   22.3650  -16.1337  -15.6458 C   0  0  0  0  0  0  0  0  0  0  0  0
   21.0122  -15.8715  -16.1349 C   0  0  0  0  0  0  0  0  0  0  0  0
   20.5649  -16.2070  -17.2460 O   0  0  0  0  0  0  0  0  0  0  0  0
   23.3765  -16.0120  -17.9045 C   0  0  0  0  0  0  0  0  0  0  0  0
   22.6167  -16.2063  -19.0665 O   0  0  0  0  0  0  0  0  0  0  0  0
   20.1003  -15.1784  -15.3034 O   0  0  0  0  0  0  0  0  0  0  0  0
   24.2221  -15.0680  -17.9666 O   0  0  0  0  0  0  0  0  0  0  0  0
  2  1  1  1
  2  3  1  0
  4  3  1  0
  5  4  1  0
  6  5  1  0
  7  6  1  0
  8  2  1  0
  9  8  2  0
 10 11  1  0
 11 12  1  0
 12 13  1  0
 14 13  1  6
 14 15  1  0
 15  8  1  0
 16 14  1  0
 16 17  2  0
 18 16  1  0
 19 20  1  1
 19 18  1  0
 20 21  1  0
 21 25  1  0
 21 22  2  0
 23 19  1  0
 24 23  1  0
 26 23  2  0
M  END
$$$$
