KMD.pdb
     RDKit          3D

 26 25  0  0  1  0  0  0  0  0999 V2000
   18.7880  -11.8957  -17.8655 N   0  0  0  0  0  0  0  0  0  0  0  0
   18.4847  -12.0190  -16.4630 C   0  0  1  0  0  0  0  0  0  0  0  0
   18.3512  -13.4616  -16.0302 C   0  0  0  0  0  0  0  0  0  0  0  0
   17.2300  -14.1686  -16.7395 C   0  0  0  0  0  0  0  0  0  0  0  0
   15.8878  -13.9032  -16.0998 C   0  0  0  0  0  0  0  0  0  0  0  0
   14.8550  -14.7588  -16.8107 C   0  0  0  0  0  0  0  0  0  0  0  0
   13.5660  -14.5282  -16.1903 N   0  0  0  0  0  0  0  0  0  0  0  0
   19.5774  -11.4167  -15.6437 C   0  0  0  0  0  0  0  0  0  0  0  0
   19.5486  -11.4705  -14.3714 O   0  0  0  0  0  0  0  0  0  0  0  0
   27.2853  -10.7662  -14.9914 C   0  0  0  0  0  0  0  0  0  0  0  0
   25.8039  -11.1618  -15.9316 S   0  0  0  0  0  0  0  0  0  0  0  0
   24.3150  -10.4107  -15.1933 C   0  0  0  0  0  0  0  0  0  0  0  0
   23.0827  -10.7988  -15.9518 C   0  0  0  0  0  0  0  0  0  0  0  0
   21.7964  -10.2740  -15.4116 C   0  0  2  0  0  0  0  0  0  0  0  0
   20.6783  -10.7682  -16.2270 N   0  0  0  0  0  0  0  0  0  0  0  0
   21.7794   -8.7967  -15.4139 C   0  0  0  0  0  0  0  0  0  0  0  0
   22.5411   -8.1692  -14.5911 O   0  0  0  0  0  0  0  0  0  0  0  0
   21.0060   -7.9707  -16.2449 N   0  0  0  0  0  0  0  0  0  0  0  0
   21.1044   -6.4916  -16.1560 C   0  0  1  0  0  0  0  0  0  0  0  0
   20.6726   -6.0293  -17.5393 C   0  0  0  0  0  0  0  0  0  0  0  0
   21.6361   -6.4292  -18.5639 C   0  0  0  0  0  0  0  0  0  0  0  0
   21.4331   -7.2628  -19.4645 O   0  0  0  0  0  0  0  0  0  0  0  0
   20.1276   -6.0802  -15.1227 C   0  0  0  0  0  0  0  0  0  0  0  0
   19.3352   -7.0004  -14.4221 O   0  0  0  0  0  0  0  0  0  0  0  0
   22.9234   -5.8409  -18.5673 O   0  0  0  0  0  0  0  0  0  0  0  0
   19.9460   -4.8646  -14.8073 O   0  0  0  0  0  0  0  0  0  0  0  0
  2  1  1  6
  2  3  1  0
  4  3  1  0
  5  4  1  0
  6  5  1  0
  7  6  1  0
  8  2  1  0
  9  8  2  0
 10 11  1  0
 11 12  1  0
 12 13  1  0
 14 13  1  6
 14 15  1  0
 15  8  1  0
 16 14  1  0
 16 17  2  0
 18 16  1  0
 19 20  1  6
 19 18  1  0
 20 21  1  0
 21 25  1  0
 21 22  2  0
 23 19  1  0
 24 23  1  0
 26 23  2  0
M  END
$$$$
