KMD.pdb
     RDKit          3D

 26 25  0  0  1  0  0  0  0  0999 V2000
   23.7102  -16.3388  -17.0464 N   0  0  0  0  0  0  0  0  0  0  0  0
   22.8931  -15.2157  -17.4271 C   0  0  1  0  0  0  0  0  0  0  0  0
   21.4158  -15.5226  -17.3300 C   0  0  0  0  0  0  0  0  0  0  0  0
   21.0277  -16.7232  -18.1472 C   0  0  0  0  0  0  0  0  0  0  0  0
   20.2722  -17.7498  -17.3370 C   0  0  0  0  0  0  0  0  0  0  0  0
   19.8720  -18.8780  -18.2702 C   0  0  0  0  0  0  0  0  0  0  0  0
   19.1327  -19.8623  -17.5057 N   0  0  0  0  0  0  0  0  0  0  0  0
   23.1582  -14.0556  -16.5260 C   0  0  0  0  0  0  0  0  0  0  0  0
   22.7522  -14.0569  -15.3188 O   0  0  0  0  0  0  0  0  0  0  0  0
   28.0247   -9.8229  -17.4779 C   0  0  0  0  0  0  0  0  0  0  0  0
   27.6062   -9.6093  -15.7417 S   0  0  0  0  0  0  0  0  0  0  0  0
   25.8896  -10.1177  -15.3936 C   0  0  0  0  0  0  0  0  0  0  0  0
   25.5196  -11.3393  -16.1779 C   0  0  0  0  0  0  0  0  0  0  0  0
   24.1002  -11.7794  -16.0617 C   0  0  2  0  0  0  0  0  0  0  0  0
   23.8596  -12.9182  -16.9588 N   0  0  0  0  0  0  0  0  0  0  0  0
   23.1714  -10.6850  -16.4113 C   0  0  0  0  0  0  0  0  0  0  0  0
   23.0038  -10.3897  -17.6506 O   0  0  0  0  0  0  0  0  0  0  0  0
   22.4192   -9.9084  -15.5158 N   0  0  0  0  0  0  0  0  0  0  0  0
   21.6205   -8.7511  -15.9933 C   0  0  1  0  0  0  0  0  0  0  0  0
   20.2705   -9.3704  -16.3216 C   0  0  0  0  0  0  0  0  0  0  0  0
   19.2680   -8.3473  -16.6153 C   0  0  0  0  0  0  0  0  0  0  0  0
   19.4996   -7.1424  -16.8202 O   0  0  0  0  0  0  0  0  0  0  0  0
   21.5209   -7.8235  -14.8441 C   0  0  0  0  0  0  0  0  0  0  0  0
   20.8151   -6.6139  -14.9076 O   0  0  0  0  0  0  0  0  0  0  0  0
   17.9034   -8.7175  -16.6817 O   0  0  0  0  0  0  0  0  0  0  0  0
   22.0714   -8.0667  -13.7270 O   0  0  0  0  0  0  0  0  0  0  0  0
  2  1  1  1
  2  3  1  0
  4  3  1  0
  5  4  1  0
  6  5  1  0
  7  6  1  0
  8  2  1  0
  9  8  2  0
 10 11  1  0
 11 12  1  0
 12 13  1  0
 14 13  1  6
 14 15  1  0
 15  8  1  0
 16 14  1  0
 16 17  2  0
 18 16  1  0
 19 20  1  1
 19 18  1  0
 20 21  1  0
 21 25  1  0
 21 22  2  0
 23 19  1  0
 24 23  1  0
 26 23  2  0
M  END
$$$$
