KMD.pdb
     RDKit          3D

 26 25  0  0  1  0  0  0  0  0999 V2000
   22.1431  -22.2202  -14.0298 N   0  0  0  0  0  0  0  0  0  0  0  0
   22.0859  -20.7916  -14.2027 C   0  0  1  0  0  0  0  0  0  0  0  0
   21.1652  -20.1297  -13.2026 C   0  0  0  0  0  0  0  0  0  0  0  0
   19.7831  -20.7211  -13.2212 C   0  0  0  0  0  0  0  0  0  0  0  0
   19.7294  -22.0768  -12.5576 C   0  0  0  0  0  0  0  0  0  0  0  0
   18.2909  -22.5593  -12.5983 C   0  0  0  0  0  0  0  0  0  0  0  0
   18.2136  -23.8240  -11.8952 N   0  0  0  0  0  0  0  0  0  0  0  0
   23.4403  -20.1940  -14.0114 C   0  0  0  0  0  0  0  0  0  0  0  0
   23.6399  -18.9497  -14.1964 O   0  0  0  0  0  0  0  0  0  0  0  0
   29.0397  -21.4588  -10.2332 C   0  0  0  0  0  0  0  0  0  0  0  0
   27.2929  -21.4249   -9.8061 S   0  0  0  0  0  0  0  0  0  0  0  0
   26.3063  -20.5523  -11.0677 C   0  0  0  0  0  0  0  0  0  0  0  0
   26.6637  -21.0155  -12.4469 C   0  0  0  0  0  0  0  0  0  0  0  0
   25.8987  -20.3865  -13.5608 C   0  0  2  0  0  0  0  0  0  0  0  0
   24.5489  -20.9640  -13.6228 N   0  0  0  0  0  0  0  0  0  0  0  0
   26.5738  -20.5971  -14.8579 C   0  0  0  0  0  0  0  0  0  0  0  0
   26.4766  -21.7460  -15.4251 O   0  0  0  0  0  0  0  0  0  0  0  0
   27.3290  -19.6524  -15.5708 N   0  0  0  0  0  0  0  0  0  0  0  0
   27.4333  -19.7178  -17.0507 C   0  0  1  0  0  0  0  0  0  0  0  0
   25.9899  -19.5757  -17.5090 C   0  0  0  0  0  0  0  0  0  0  0  0
   25.8628  -19.7755  -18.9519 C   0  0  0  0  0  0  0  0  0  0  0  0
   24.8928  -19.4295  -19.6494 O   0  0  0  0  0  0  0  0  0  0  0  0
   28.2429  -18.5460  -17.4537 C   0  0  0  0  0  0  0  0  0  0  0  0
   28.1707  -17.3129  -16.7907 O   0  0  0  0  0  0  0  0  0  0  0  0
   26.9122  -20.4141  -19.6549 O   0  0  0  0  0  0  0  0  0  0  0  0
   29.0544  -18.5856  -18.4284 O   0  0  0  0  0  0  0  0  0  0  0  0
  2  1  1  1
  2  3  1  0
  4  3  1  0
  5  4  1  0
  6  5  1  0
  7  6  1  0
  8  2  1  0
  9  8  2  0
 10 11  1  0
 11 12  1  0
 12 13  1  0
 14 13  1  1
 14 15  1  0
 15  8  1  0
 16 14  1  0
 16 17  2  0
 18 16  1  0
 19 20  1  6
 19 18  1  0
 20 21  1  0
 21 25  1  0
 21 22  2  0
 23 19  1  0
 24 23  1  0
 26 23  2  0
M  END
$$$$
