AFI.pdb
     RDKit          3D

 25 25  0  0  1  0  0  0  0  0999 V2000
   10.7323  -18.8190   20.8793 C   0  0  0  0  0  0  0  0  0  0  0  0
   10.2470  -17.4707   20.3891 C   0  0  2  0  0  0  0  0  0  0  0  0
   11.1918  -16.9821   19.4329 N   0  0  0  0  0  0  0  0  0  0  0  0
   10.0912  -16.5432   21.5517 C   0  0  0  0  0  0  0  0  0  0  0  0
   11.1085  -15.9133   21.9405 O   0  0  0  0  0  0  0  0  0  0  0  0
    8.8836  -16.3341   22.2324 N   0  0  0  0  0  0  0  0  0  0  0  0
    8.7083  -15.4429   23.3566 C   0  0  1  0  0  0  0  0  0  0  0  0
    7.2266  -15.1447   23.4553 C   0  0  0  0  0  0  0  0  0  0  0  0
    6.9169  -14.0909   24.4203 C   0  0  0  0  0  0  0  0  0  0  0  0
    7.3876  -12.8143   24.1973 C   0  0  0  0  0  0  0  0  0  0  0  0
    7.1318  -11.7706   25.0690 C   0  0  0  0  0  0  0  0  0  0  0  0
    6.3874  -12.0013   26.1941 C   0  0  0  0  0  0  0  0  0  0  0  0
    5.9084  -13.2678   26.4350 C   0  0  0  0  0  0  0  0  0  0  0  0
    6.1714  -14.2998   25.5565 C   0  0  0  0  0  0  0  0  0  0  0  0
    9.0865  -16.1622   24.5950 C   0  0  0  0  0  0  0  0  0  0  0  0
    8.9524  -17.4213   24.6087 O   0  0  0  0  0  0  0  0  0  0  0  0
   10.4826  -13.8883   29.6852 C   0  0  0  0  0  0  0  0  0  0  0  0
    9.8678  -14.6875   28.5357 C   0  0  0  0  0  0  0  0  0  0  0  0
   10.9217  -15.4357   27.7705 C   0  0  2  0  0  0  0  0  0  0  0  0
   11.9528  -14.4528   27.2924 C   0  0  0  0  0  0  0  0  0  0  0  0
   10.3063  -16.2948   26.7271 C   0  0  2  0  0  0  0  0  0  0  0  0
    9.5852  -15.4900   25.7435 N   0  0  0  0  0  0  0  0  0  0  0  0
    9.3013  -17.2023   27.3228 C   0  0  0  0  0  0  0  0  0  0  0  0
    7.9613  -17.0602   27.0061 O   0  0  0  0  0  0  0  0  0  0  0  0
    9.6871  -18.1021   28.1246 O   0  0  0  0  0  0  0  0  0  0  0  0
  2  1  1  1
  2  3  1  0
  4  2  1  0
  4  5  2  0
  6  4  1  0
  7  6  1  0
  7  8  1  1
  8  9  1  0
  9 10  2  0
  9 14  1  0
 10 11  1  0
 11 12  2  0
 13 12  1  0
 14 13  2  0
 15  7  1  0
 16 15  2  0
 18 17  1  0
 19 18  1  0
 19 20  1  6
 21 19  1  0
 21 22  1  6
 22 15  1  0
 23 24  1  0
 23 21  1  0
 25 23  2  0
M  END
$$$$
