AFI.pdb
     RDKit          3D

 25 25  0  0  1  0  0  0  0  0999 V2000
   11.0617  -18.9300   20.8187 C   0  0  0  0  0  0  0  0  0  0  0  0
   10.4105  -17.6605   20.3105 C   0  0  2  0  0  0  0  0  0  0  0  0
   11.2314  -17.1304   19.2661 N   0  0  0  0  0  0  0  0  0  0  0  0
   10.2458  -16.6965   21.4418 C   0  0  0  0  0  0  0  0  0  0  0  0
   11.2227  -15.9584   21.7309 O   0  0  0  0  0  0  0  0  0  0  0  0
    9.0720  -16.5663   22.1972 N   0  0  0  0  0  0  0  0  0  0  0  0
    8.8714  -15.6078   23.2601 C   0  0  1  0  0  0  0  0  0  0  0  0
    7.3752  -15.4406   23.4257 C   0  0  0  0  0  0  0  0  0  0  0  0
    7.0165  -14.3369   24.3151 C   0  0  0  0  0  0  0  0  0  0  0  0
    6.1491  -14.5699   25.3612 C   0  0  0  0  0  0  0  0  0  0  0  0
    5.7678  -13.5716   26.2401 C   0  0  0  0  0  0  0  0  0  0  0  0
    6.2620  -12.3059   26.0754 C   0  0  0  0  0  0  0  0  0  0  0  0
    7.1286  -12.0525   25.0381 C   0  0  0  0  0  0  0  0  0  0  0  0
    7.5005  -13.0584   24.1686 C   0  0  0  0  0  0  0  0  0  0  0  0
    9.3826  -16.1875   24.5237 C   0  0  0  0  0  0  0  0  0  0  0  0
    9.8757  -17.3530   24.4796 O   0  0  0  0  0  0  0  0  0  0  0  0
   10.3746  -12.6666   28.6538 C   0  0  0  0  0  0  0  0  0  0  0  0
   10.6714  -13.7257   27.5917 C   0  0  0  0  0  0  0  0  0  0  0  0
   10.1508  -15.0719   28.0077 C   0  0  2  0  0  0  0  0  0  0  0  0
   10.9121  -15.5238   29.2217 C   0  0  0  0  0  0  0  0  0  0  0  0
   10.1395  -16.0116   26.8577 C   0  0  2  0  0  0  0  0  0  0  0  0
    9.3348  -15.4844   25.7578 N   0  0  0  0  0  0  0  0  0  0  0  0
    9.5128  -17.2963   27.2384 C   0  0  0  0  0  0  0  0  0  0  0  0
   10.3014  -18.3744   27.6016 O   0  0  0  0  0  0  0  0  0  0  0  0
    8.2509  -17.3912   27.2222 O   0  0  0  0  0  0  0  0  0  0  0  0
  2  1  1  1
  2  3  1  0
  4  2  1  0
  4  5  2  0
  6  4  1  0
  7  6  1  0
  7  8  1  1
  8  9  1  0
  9 10  2  0
  9 14  1  0
 10 11  1  0
 11 12  2  0
 13 12  1  0
 14 13  2  0
 15  7  1  0
 16 15  2  0
 18 17  1  0
 19 18  1  0
 19 20  1  1
 21 19  1  0
 21 22  1  6
 22 15  1  0
 23 24  1  0
 23 21  1  0
 25 23  2  0
M  END
$$$$
