AFI.pdb
     RDKit          3D

 25 25  0  0  1  0  0  0  0  0999 V2000
    7.1159  -20.1392   21.8682 C   0  0  0  0  0  0  0  0  0  0  0  0
    6.3622  -18.8426   21.6568 C   0  0  2  0  0  0  0  0  0  0  0  0
    6.2580  -18.6167   20.2484 N   0  0  0  0  0  0  0  0  0  0  0  0
    7.0774  -17.7300   22.3545 C   0  0  0  0  0  0  0  0  0  0  0  0
    8.1039  -17.2554   21.8033 O   0  0  0  0  0  0  0  0  0  0  0  0
    6.6741  -17.1857   23.5819 N   0  0  0  0  0  0  0  0  0  0  0  0
    7.3327  -16.0935   24.2616 C   0  0  1  0  0  0  0  0  0  0  0  0
    6.4036  -15.6391   25.3681 C   0  0  0  0  0  0  0  0  0  0  0  0
    6.8897  -14.4553   26.0751 C   0  0  0  0  0  0  0  0  0  0  0  0
    6.4054  -13.2137   25.7215 C   0  0  0  0  0  0  0  0  0  0  0  0
    6.8221  -12.0529   26.3487 C   0  0  0  0  0  0  0  0  0  0  0  0
    7.7461  -12.1272   27.3556 C   0  0  0  0  0  0  0  0  0  0  0  0
    8.2419  -13.3561   27.7235 C   0  0  0  0  0  0  0  0  0  0  0  0
    7.8170  -14.5063   27.0890 C   0  0  0  0  0  0  0  0  0  0  0  0
    8.5581  -16.6110   24.9133 C   0  0  0  0  0  0  0  0  0  0  0  0
    8.4984  -17.7534   25.4563 O   0  0  0  0  0  0  0  0  0  0  0  0
   12.6149  -15.8222   21.7708 C   0  0  0  0  0  0  0  0  0  0  0  0
   11.5710  -16.3350   22.7633 C   0  0  0  0  0  0  0  0  0  0  0  0
   12.0548  -16.1978   24.1787 C   0  0  2  0  0  0  0  0  0  0  0  0
   13.3847  -16.8869   24.2975 C   0  0  0  0  0  0  0  0  0  0  0  0
   11.0076  -16.6309   25.1386 C   0  0  2  0  0  0  0  0  0  0  0  0
    9.7729  -15.8741   24.9443 N   0  0  0  0  0  0  0  0  0  0  0  0
   11.4315  -16.3639   26.5305 C   0  0  0  0  0  0  0  0  0  0  0  0
   10.8190  -15.3625   27.2642 O   0  0  0  0  0  0  0  0  0  0  0  0
   12.3606  -17.0610   27.0326 O   0  0  0  0  0  0  0  0  0  0  0  0
  2  1  1  6
  2  3  1  0
  4  2  1  0
  4  5  2  0
  6  4  1  0
  7  6  1  0
  7  8  1  1
  8  9  1  0
  9 10  2  0
  9 14  1  0
 10 11  1  0
 11 12  2  0
 13 12  1  0
 14 13  2  0
 15  7  1  0
 16 15  2  0
 18 17  1  0
 19 18  1  0
 19 20  1  6
 21 19  1  0
 21 22  1  6
 22 15  1  0
 23 24  1  0
 23 21  1  0
 25 23  2  0
M  END
$$$$
