AFI.pdb
     RDKit          3D

 25 25  0  0  1  0  0  0  0  0999 V2000
    8.5256  -18.2978   19.9113 C   0  0  0  0  0  0  0  0  0  0  0  0
    8.5969  -16.8052   19.6648 C   0  0  2  0  0  0  0  0  0  0  0  0
    9.5716  -16.5720   18.6444 N   0  0  0  0  0  0  0  0  0  0  0  0
    8.9383  -16.1042   20.9408 C   0  0  0  0  0  0  0  0  0  0  0  0
   10.1546  -15.9953   21.2433 O   0  0  0  0  0  0  0  0  0  0  0  0
    7.9875  -15.5628   21.8174 N   0  0  0  0  0  0  0  0  0  0  0  0
    8.2933  -14.8750   23.0511 C   0  0  1  0  0  0  0  0  0  0  0  0
    7.0141  -14.2076   23.5119 C   0  0  0  0  0  0  0  0  0  0  0  0
    7.1411  -13.5655   24.8193 C   0  0  0  0  0  0  0  0  0  0  0  0
    7.8374  -12.3800   24.9224 C   0  0  0  0  0  0  0  0  0  0  0  0
    7.9959  -11.7196   26.1279 C   0  0  0  0  0  0  0  0  0  0  0  0
    7.4473  -12.2516   27.2633 C   0  0  0  0  0  0  0  0  0  0  0  0
    6.7488  -13.4336   27.1820 C   0  0  0  0  0  0  0  0  0  0  0  0
    6.5986  -14.0817   25.9724 C   0  0  0  0  0  0  0  0  0  0  0  0
    8.6488  -15.8808   24.0789 C   0  0  0  0  0  0  0  0  0  0  0  0
    7.9141  -16.9075   24.1767 O   0  0  0  0  0  0  0  0  0  0  0  0
   13.1526  -18.1458   23.7505 C   0  0  0  0  0  0  0  0  0  0  0  0
   11.7095  -17.7367   24.0472 C   0  0  0  0  0  0  0  0  0  0  0  0
   11.5560  -17.2830   25.4708 C   0  0  2  0  0  0  0  0  0  0  0  0
   12.1308  -18.3383   26.3728 C   0  0  0  0  0  0  0  0  0  0  0  0
   10.1535  -16.8811   25.7482 C   0  0  2  0  0  0  0  0  0  0  0  0
    9.7692  -15.7264   24.9393 N   0  0  0  0  0  0  0  0  0  0  0  0
    9.9998  -16.4576   27.1572 C   0  0  0  0  0  0  0  0  0  0  0  0
    9.7420  -17.3961   28.1415 O   0  0  0  0  0  0  0  0  0  0  0  0
   10.1042  -15.2292   27.4427 O   0  0  0  0  0  0  0  0  0  0  0  0
  2  1  1  1
  2  3  1  0
  4  2  1  0
  4  5  2  0
  6  4  1  0
  7  6  1  0
  7  8  1  1
  8  9  1  0
  9 10  2  0
  9 14  1  0
 10 11  1  0
 11 12  2  0
 13 12  1  0
 14 13  2  0
 15  7  1  0
 16 15  2  0
 18 17  1  0
 19 18  1  0
 19 20  1  1
 21 19  1  0
 21 22  1  6
 22 15  1  0
 23 24  1  0
 23 21  1  0
 25 23  2  0
M  END
$$$$
