AFI.pdb
     RDKit          3D

 25 25  0  0  1  0  0  0  0  0999 V2000
    8.6328  -18.3324   20.2741 C   0  0  0  0  0  0  0  0  0  0  0  0
    8.7668  -16.8567   19.9607 C   0  0  2  0  0  0  0  0  0  0  0  0
    9.8038  -16.7041   18.9876 N   0  0  0  0  0  0  0  0  0  0  0  0
    9.0597  -16.1037   21.2190 C   0  0  0  0  0  0  0  0  0  0  0  0
   10.2602  -16.0169   21.5851 O   0  0  0  0  0  0  0  0  0  0  0  0
    8.0801  -15.4905   22.0126 N   0  0  0  0  0  0  0  0  0  0  0  0
    8.3302  -14.8172   23.2668 C   0  0  1  0  0  0  0  0  0  0  0  0
    7.0626  -14.0701   23.6259 C   0  0  0  0  0  0  0  0  0  0  0  0
    7.1552  -13.3644   24.9031 C   0  0  0  0  0  0  0  0  0  0  0  0
    7.9696  -12.2563   25.0025 C   0  0  0  0  0  0  0  0  0  0  0  0
    8.1036  -11.5422   26.1800 C   0  0  0  0  0  0  0  0  0  0  0  0
    7.4092  -11.9399   27.2903 C   0  0  0  0  0  0  0  0  0  0  0  0
    6.5914  -13.0428   27.2122 C   0  0  0  0  0  0  0  0  0  0  0  0
    6.4671  -13.7459   26.0306 C   0  0  0  0  0  0  0  0  0  0  0  0
    8.5412  -15.8383   24.3189 C   0  0  0  0  0  0  0  0  0  0  0  0
    7.6925  -16.7737   24.4101 O   0  0  0  0  0  0  0  0  0  0  0  0
   12.7748  -19.5446   25.8932 C   0  0  0  0  0  0  0  0  0  0  0  0
   11.5164  -18.8341   26.3928 C   0  0  0  0  0  0  0  0  0  0  0  0
   11.1869  -17.6465   25.5341 C   0  0  2  0  0  0  0  0  0  0  0  0
   12.3954  -16.7562   25.4667 C   0  0  0  0  0  0  0  0  0  0  0  0
    9.9268  -17.0027   25.9850 C   0  0  2  0  0  0  0  0  0  0  0  0
    9.6479  -15.7961   25.2095 N   0  0  0  0  0  0  0  0  0  0  0  0
   10.0391  -16.5625   27.3927 C   0  0  0  0  0  0  0  0  0  0  0  0
   10.0236  -17.4942   28.4164 O   0  0  0  0  0  0  0  0  0  0  0  0
   10.1450  -15.3262   27.6415 O   0  0  0  0  0  0  0  0  0  0  0  0
  2  1  1  1
  2  3  1  0
  4  2  1  0
  4  5  2  0
  6  4  1  0
  7  6  1  0
  7  8  1  1
  8  9  1  0
  9 10  2  0
  9 14  1  0
 10 11  1  0
 11 12  2  0
 13 12  1  0
 14 13  2  0
 15  7  1  0
 16 15  2  0
 18 17  1  0
 19 18  1  0
 19 20  1  1
 21 19  1  0
 21 22  1  6
 22 15  1  0
 23 24  1  0
 23 21  1  0
 25 23  2  0
M  END
$$$$
