AFI.pdb
     RDKit          3D

 25 25  0  0  1  0  0  0  0  0999 V2000
    8.1721  -18.0267   19.8036 C   0  0  0  0  0  0  0  0  0  0  0  0
    8.4668  -16.5521   19.6237 C   0  0  2  0  0  0  0  0  0  0  0  0
    9.5450  -16.4275   18.6922 N   0  0  0  0  0  0  0  0  0  0  0  0
    8.7946  -15.9430   20.9495 C   0  0  0  0  0  0  0  0  0  0  0  0
    9.9938  -15.9727   21.3287 O   0  0  0  0  0  0  0  0  0  0  0  0
    7.8489  -15.3430   21.7928 N   0  0  0  0  0  0  0  0  0  0  0  0
    8.1490  -14.7029   23.0533 C   0  0  1  0  0  0  0  0  0  0  0  0
    6.8758  -14.0269   23.5180 C   0  0  0  0  0  0  0  0  0  0  0  0
    7.0315  -13.3237   24.7904 C   0  0  0  0  0  0  0  0  0  0  0  0
    6.3179  -13.7537   25.8890 C   0  0  0  0  0  0  0  0  0  0  0  0
    6.4177  -13.1346   27.1224 C   0  0  0  0  0  0  0  0  0  0  0  0
    7.2498  -12.0579   27.2689 C   0  0  0  0  0  0  0  0  0  0  0  0
    7.9705  -11.6131   26.1854 C   0  0  0  0  0  0  0  0  0  0  0  0
    7.8611  -12.2406   24.9605 C   0  0  0  0  0  0  0  0  0  0  0  0
    8.4702  -15.7493   24.0515 C   0  0  0  0  0  0  0  0  0  0  0  0
    7.6765  -16.7309   24.1514 O   0  0  0  0  0  0  0  0  0  0  0  0
   12.9563  -18.0225   23.4664 C   0  0  0  0  0  0  0  0  0  0  0  0
   11.5037  -17.7291   23.8430 C   0  0  0  0  0  0  0  0  0  0  0  0
   11.3919  -17.2959   25.2769 C   0  0  2  0  0  0  0  0  0  0  0  0
   11.9909  -18.3648   26.1466 C   0  0  0  0  0  0  0  0  0  0  0  0
    9.9986  -16.8964   25.6003 C   0  0  2  0  0  0  0  0  0  0  0  0
    9.6214  -15.6812   24.8818 N   0  0  0  0  0  0  0  0  0  0  0  0
    9.8675  -16.5740   27.0381 C   0  0  0  0  0  0  0  0  0  0  0  0
   10.0059  -15.2673   27.4734 O   0  0  0  0  0  0  0  0  0  0  0  0
    9.6317  -17.5096   27.8569 O   0  0  0  0  0  0  0  0  0  0  0  0
  2  1  1  1
  2  3  1  0
  4  2  1  0
  4  5  2  0
  6  4  1  0
  7  6  1  0
  7  8  1  1
  8  9  1  0
  9 10  2  0
  9 14  1  0
 10 11  1  0
 11 12  2  0
 13 12  1  0
 14 13  2  0
 15  7  1  0
 16 15  2  0
 18 17  1  0
 19 18  1  0
 19 20  1  1
 21 19  1  0
 21 22  1  6
 22 15  1  0
 23 24  1  0
 23 21  1  0
 25 23  2  0
M  END
$$$$
