AFI.pdb
     RDKit          3D

 25 25  0  0  1  0  0  0  0  0999 V2000
    9.1821  -18.9167   21.1284 C   0  0  0  0  0  0  0  0  0  0  0  0
    9.0562  -17.4661   20.7114 C   0  0  2  0  0  0  0  0  0  0  0  0
    9.9716  -17.2342   19.6373 N   0  0  0  0  0  0  0  0  0  0  0  0
    9.3312  -16.5831   21.8865 C   0  0  0  0  0  0  0  0  0  0  0  0
   10.5232  -16.2402   22.0967 O   0  0  0  0  0  0  0  0  0  0  0  0
    8.3437  -16.1160   22.7652 N   0  0  0  0  0  0  0  0  0  0  0  0
    8.5763  -15.2163   23.8721 C   0  0  1  0  0  0  0  0  0  0  0  0
    7.2263  -14.6674   24.2845 C   0  0  0  0  0  0  0  0  0  0  0  0
    7.3134  -13.6750   25.3547 C   0  0  0  0  0  0  0  0  0  0  0  0
    6.1591  -13.0770   25.8140 C   0  0  0  0  0  0  0  0  0  0  0  0
    6.1695  -12.1307   26.8234 C   0  0  0  0  0  0  0  0  0  0  0  0
    7.3601  -11.7679   27.3928 C   0  0  0  0  0  0  0  0  0  0  0  0
    8.5231  -12.3526   26.9490 C   0  0  0  0  0  0  0  0  0  0  0  0
    8.4978  -13.2956   25.9409 C   0  0  0  0  0  0  0  0  0  0  0  0
    9.0916  -15.9994   25.0191 C   0  0  0  0  0  0  0  0  0  0  0  0
    8.4494  -17.0361   25.3601 O   0  0  0  0  0  0  0  0  0  0  0  0
   14.3626  -16.4778   25.0135 C   0  0  0  0  0  0  0  0  0  0  0  0
   12.8622  -16.7542   25.1152 C   0  0  0  0  0  0  0  0  0  0  0  0
   12.3667  -16.5488   26.5182 C   0  0  2  0  0  0  0  0  0  0  0  0
   13.1219  -17.4727   27.4313 C   0  0  0  0  0  0  0  0  0  0  0  0
   10.8856  -16.6436   26.5739 C   0  0  2  0  0  0  0  0  0  0  0  0
   10.2630  -15.6251   25.7312 N   0  0  0  0  0  0  0  0  0  0  0  0
   10.3966  -16.3880   27.9464 C   0  0  0  0  0  0  0  0  0  0  0  0
   10.1969  -17.4419   28.8214 O   0  0  0  0  0  0  0  0  0  0  0  0
   10.1624  -15.1961   28.3014 O   0  0  0  0  0  0  0  0  0  0  0  0
  2  1  1  1
  2  3  1  0
  4  2  1  0
  4  5  2  0
  6  4  1  0
  7  6  1  0
  7  8  1  1
  8  9  1  0
  9 10  2  0
  9 14  1  0
 10 11  1  0
 11 12  2  0
 13 12  1  0
 14 13  2  0
 15  7  1  0
 16 15  2  0
 18 17  1  0
 19 18  1  0
 19 20  1  1
 21 19  1  0
 21 22  1  6
 22 15  1  0
 23 24  1  0
 23 21  1  0
 25 23  2  0
M  END
$$$$
