AFI.pdb
     RDKit          3D

 25 25  0  0  1  0  0  0  0  0999 V2000
   11.1933  -18.8874   20.8752 C   0  0  0  0  0  0  0  0  0  0  0  0
   10.6555  -17.5733   20.3483 C   0  0  2  0  0  0  0  0  0  0  0  0
   11.5970  -17.0579   19.4030 N   0  0  0  0  0  0  0  0  0  0  0  0
   10.4302  -16.6328   21.4889 C   0  0  0  0  0  0  0  0  0  0  0  0
   11.3860  -15.8925   21.8368 O   0  0  0  0  0  0  0  0  0  0  0  0
    9.2217  -16.5269   22.1916 N   0  0  0  0  0  0  0  0  0  0  0  0
    8.9747  -15.6141   23.2845 C   0  0  1  0  0  0  0  0  0  0  0  0
    7.4844  -15.3445   23.3048 C   0  0  0  0  0  0  0  0  0  0  0  0
    7.0957  -14.3469   24.3005 C   0  0  0  0  0  0  0  0  0  0  0  0
    6.3155  -14.7318   25.3702 C   0  0  0  0  0  0  0  0  0  0  0  0
    5.9119  -13.8399   26.3480 C   0  0  0  0  0  0  0  0  0  0  0  0
    6.2939  -12.5286   26.2611 C   0  0  0  0  0  0  0  0  0  0  0  0
    7.0723  -12.1241   25.2019 C   0  0  0  0  0  0  0  0  0  0  0  0
    7.4677  -13.0250   24.2333 C   0  0  0  0  0  0  0  0  0  0  0  0
    9.3063  -16.2969   24.5565 C   0  0  0  0  0  0  0  0  0  0  0  0
    9.2596  -17.5622   24.5749 O   0  0  0  0  0  0  0  0  0  0  0  0
   10.3535  -13.7677   29.6182 C   0  0  0  0  0  0  0  0  0  0  0  0
    9.7869  -14.6935   28.5413 C   0  0  0  0  0  0  0  0  0  0  0  0
   10.8838  -15.4311   27.8280 C   0  0  2  0  0  0  0  0  0  0  0  0
   11.8973  -14.4313   27.3474 C   0  0  0  0  0  0  0  0  0  0  0  0
   10.3239  -16.3401   26.7957 C   0  0  2  0  0  0  0  0  0  0  0  0
    9.6678  -15.5838   25.7314 N   0  0  0  0  0  0  0  0  0  0  0  0
    9.2789  -17.2109   27.3770 C   0  0  0  0  0  0  0  0  0  0  0  0
    9.6170  -18.1746   28.3114 O   0  0  0  0  0  0  0  0  0  0  0  0
    8.0791  -17.0614   27.0034 O   0  0  0  0  0  0  0  0  0  0  0  0
  2  1  1  1
  2  3  1  0
  4  2  1  0
  4  5  2  0
  6  4  1  0
  7  6  1  0
  7  8  1  1
  8  9  1  0
  9 10  2  0
  9 14  1  0
 10 11  1  0
 11 12  2  0
 13 12  1  0
 14 13  2  0
 15  7  1  0
 16 15  2  0
 18 17  1  0
 19 18  1  0
 19 20  1  6
 21 19  1  0
 21 22  1  6
 22 15  1  0
 23 24  1  0
 23 21  1  0
 25 23  2  0
M  END
$$$$
