AFI.pdb
     RDKit          3D

 25 25  0  0  1  0  0  0  0  0999 V2000
   11.0306  -16.5299   19.2238 C   0  0  0  0  0  0  0  0  0  0  0  0
   10.8252  -17.3424   20.4852 C   0  0  2  0  0  0  0  0  0  0  0  0
    9.7577  -18.2643   20.2480 N   0  0  0  0  0  0  0  0  0  0  0  0
   10.5327  -16.4240   21.6286 C   0  0  0  0  0  0  0  0  0  0  0  0
   11.4250  -15.6037   21.9655 O   0  0  0  0  0  0  0  0  0  0  0  0
    9.3278  -16.4223   22.3453 N   0  0  0  0  0  0  0  0  0  0  0  0
    9.0291  -15.5572   23.4639 C   0  0  1  0  0  0  0  0  0  0  0  0
    7.5249  -15.3826   23.4961 C   0  0  0  0  0  0  0  0  0  0  0  0
    7.0806  -14.4224   24.5051 C   0  0  0  0  0  0  0  0  0  0  0  0
    6.3440  -14.8693   25.5816 C   0  0  0  0  0  0  0  0  0  0  0  0
    5.8920  -14.0154   26.5721 C   0  0  0  0  0  0  0  0  0  0  0  0
    6.1797  -12.6798   26.4912 C   0  0  0  0  0  0  0  0  0  0  0  0
    6.9133  -12.2136   25.4254 C   0  0  0  0  0  0  0  0  0  0  0  0
    7.3579  -13.0771   24.4442 C   0  0  0  0  0  0  0  0  0  0  0  0
    9.4090  -16.2526   24.7155 C   0  0  0  0  0  0  0  0  0  0  0  0
    9.4773  -17.5168   24.6890 O   0  0  0  0  0  0  0  0  0  0  0  0
   10.6546  -13.6093   29.6792 C   0  0  0  0  0  0  0  0  0  0  0  0
    9.9956  -14.5560   28.6755 C   0  0  0  0  0  0  0  0  0  0  0  0
   11.0232  -15.3703   27.9426 C   0  0  2  0  0  0  0  0  0  0  0  0
   12.0535  -14.4373   27.3721 C   0  0  0  0  0  0  0  0  0  0  0  0
   10.3742  -16.2941   26.9777 C   0  0  2  0  0  0  0  0  0  0  0  0
    9.6925  -15.5525   25.9192 N   0  0  0  0  0  0  0  0  0  0  0  0
    9.3284  -17.0986   27.6465 C   0  0  0  0  0  0  0  0  0  0  0  0
    9.6827  -18.1108   28.5218 O   0  0  0  0  0  0  0  0  0  0  0  0
    8.1123  -16.8479   27.4019 O   0  0  0  0  0  0  0  0  0  0  0  0
  2  1  1  6
  2  3  1  0
  4  2  1  0
  4  5  2  0
  6  4  1  0
  7  6  1  0
  7  8  1  1
  8  9  1  0
  9 10  2  0
  9 14  1  0
 10 11  1  0
 11 12  2  0
 13 12  1  0
 14 13  2  0
 15  7  1  0
 16 15  2  0
 18 17  1  0
 19 18  1  0
 19 20  1  6
 21 19  1  0
 21 22  1  6
 22 15  1  0
 23 24  1  0
 23 21  1  0
 25 23  2  0
M  END
$$$$
