AFI.pdb
     RDKit          3D

 25 25  0  0  1  0  0  0  0  0999 V2000
   10.6428  -18.8957   20.8273 C   0  0  0  0  0  0  0  0  0  0  0  0
   10.3858  -17.4658   20.3994 C   0  0  2  0  0  0  0  0  0  0  0  0
   11.4771  -17.0486   19.5744 N   0  0  0  0  0  0  0  0  0  0  0  0
   10.2329  -16.6020   21.6105 C   0  0  0  0  0  0  0  0  0  0  0  0
   11.2722  -16.0915   22.1023 O   0  0  0  0  0  0  0  0  0  0  0  0
    9.0049  -16.3278   22.2288 N   0  0  0  0  0  0  0  0  0  0  0  0
    8.8171  -15.4116   23.3306 C   0  0  1  0  0  0  0  0  0  0  0  0
    7.3399  -15.0805   23.3810 C   0  0  0  0  0  0  0  0  0  0  0  0
    7.0134  -14.0665   24.3824 C   0  0  0  0  0  0  0  0  0  0  0  0
    6.2095  -14.4081   25.4492 C   0  0  0  0  0  0  0  0  0  0  0  0
    5.8615  -13.4985   26.4321 C   0  0  0  0  0  0  0  0  0  0  0  0
    6.3252  -12.2132   26.3533 C   0  0  0  0  0  0  0  0  0  0  0  0
    7.1285  -11.8520   25.2971 C   0  0  0  0  0  0  0  0  0  0  0  0
    7.4677  -12.7702   24.3235 C   0  0  0  0  0  0  0  0  0  0  0  0
    9.1443  -16.1147   24.5927 C   0  0  0  0  0  0  0  0  0  0  0  0
    9.0387  -17.3765   24.6080 O   0  0  0  0  0  0  0  0  0  0  0  0
   10.3862  -13.6421   29.6331 C   0  0  0  0  0  0  0  0  0  0  0  0
    9.7718  -14.4529   28.4916 C   0  0  0  0  0  0  0  0  0  0  0  0
   10.7919  -15.3539   27.8560 C   0  0  2  0  0  0  0  0  0  0  0  0
   11.9470  -14.5134   27.3903 C   0  0  0  0  0  0  0  0  0  0  0  0
   10.1618  -16.2229   26.8297 C   0  0  2  0  0  0  0  0  0  0  0  0
    9.5646  -15.4243   25.7615 N   0  0  0  0  0  0  0  0  0  0  0  0
    9.0535  -17.0068   27.4172 C   0  0  0  0  0  0  0  0  0  0  0  0
    9.3172  -17.9868   28.3586 O   0  0  0  0  0  0  0  0  0  0  0  0
    7.8685  -16.7686   27.0425 O   0  0  0  0  0  0  0  0  0  0  0  0
  2  1  1  1
  2  3  1  0
  4  2  1  0
  4  5  2  0
  6  4  1  0
  7  6  1  0
  7  8  1  1
  8  9  1  0
  9 10  2  0
  9 14  1  0
 10 11  1  0
 11 12  2  0
 13 12  1  0
 14 13  2  0
 15  7  1  0
 16 15  2  0
 18 17  1  0
 19 18  1  0
 19 20  1  6
 21 19  1  0
 21 22  1  6
 22 15  1  0
 23 24  1  0
 23 21  1  0
 25 23  2  0
M  END
$$$$
