AFI.pdb
     RDKit          3D

 25 25  0  0  1  0  0  0  0  0999 V2000
   11.2391  -18.6511   20.9008 C   0  0  0  0  0  0  0  0  0  0  0  0
   10.6753  -17.3544   20.3580 C   0  0  2  0  0  0  0  0  0  0  0  0
   11.6098  -16.8282   19.4116 N   0  0  0  0  0  0  0  0  0  0  0  0
   10.4241  -16.4075   21.4878 C   0  0  0  0  0  0  0  0  0  0  0  0
   11.3724  -15.6664   21.8543 O   0  0  0  0  0  0  0  0  0  0  0  0
    9.1994  -16.2964   22.1610 N   0  0  0  0  0  0  0  0  0  0  0  0
    8.9419  -15.4114   23.2742 C   0  0  1  0  0  0  0  0  0  0  0  0
    7.4485  -15.1598   23.3004 C   0  0  0  0  0  0  0  0  0  0  0  0
    7.0448  -14.2124   24.3382 C   0  0  0  0  0  0  0  0  0  0  0  0
    7.4955  -12.9110   24.2741 C   0  0  0  0  0  0  0  0  0  0  0  0
    7.1522  -11.9635   25.2223 C   0  0  0  0  0  0  0  0  0  0  0  0
    6.3384  -12.3187   26.2637 C   0  0  0  0  0  0  0  0  0  0  0  0
    5.8779  -13.6119   26.3461 C   0  0  0  0  0  0  0  0  0  0  0  0
    6.2285  -14.5470   25.3928 C   0  0  0  0  0  0  0  0  0  0  0  0
    9.2816  -16.1189   24.5305 C   0  0  0  0  0  0  0  0  0  0  0  0
    9.4892  -17.3664   24.4659 O   0  0  0  0  0  0  0  0  0  0  0  0
   10.5016  -12.9783   28.9534 C   0  0  0  0  0  0  0  0  0  0  0  0
   10.7269  -13.9361   27.7830 C   0  0  0  0  0  0  0  0  0  0  0  0
   10.1551  -15.2939   28.0754 C   0  0  2  0  0  0  0  0  0  0  0  0
   10.8940  -15.8814   29.2444 C   0  0  0  0  0  0  0  0  0  0  0  0
   10.1138  -16.1251   26.8454 C   0  0  2  0  0  0  0  0  0  0  0  0
    9.3785  -15.4480   25.7795 N   0  0  0  0  0  0  0  0  0  0  0  0
    9.3913  -17.3917   27.0942 C   0  0  0  0  0  0  0  0  0  0  0  0
    8.0086  -17.4261   27.0402 O   0  0  0  0  0  0  0  0  0  0  0  0
   10.0569  -18.4349   27.3592 O   0  0  0  0  0  0  0  0  0  0  0  0
  2  1  1  1
  2  3  1  0
  4  2  1  0
  4  5  2  0
  6  4  1  0
  7  6  1  0
  7  8  1  1
  8  9  1  0
  9 10  2  0
  9 14  1  0
 10 11  1  0
 11 12  2  0
 13 12  1  0
 14 13  2  0
 15  7  1  0
 16 15  2  0
 18 17  1  0
 19 18  1  0
 19 20  1  1
 21 19  1  0
 21 22  1  6
 22 15  1  0
 23 24  1  0
 23 21  1  0
 25 23  2  0
M  END
$$$$
