AFI.pdb
     RDKit          3D

 25 25  0  0  1  0  0  0  0  0999 V2000
    8.9245  -18.4867   20.5001 C   0  0  0  0  0  0  0  0  0  0  0  0
    8.9346  -17.0004   20.2090 C   0  0  2  0  0  0  0  0  0  0  0  0
    9.9569  -16.7467   19.2416 N   0  0  0  0  0  0  0  0  0  0  0  0
    9.1608  -16.2444   21.4792 C   0  0  0  0  0  0  0  0  0  0  0  0
   10.3471  -15.9702   21.7957 O   0  0  0  0  0  0  0  0  0  0  0  0
    8.1336  -15.8241   22.3358 N   0  0  0  0  0  0  0  0  0  0  0  0
    8.3159  -14.9948   23.5054 C   0  0  1  0  0  0  0  0  0  0  0  0
    6.9579  -14.4228   23.8556 C   0  0  0  0  0  0  0  0  0  0  0  0
    6.9932  -13.5286   25.0117 C   0  0  0  0  0  0  0  0  0  0  0  0
    6.5106  -13.9754   26.2235 C   0  0  0  0  0  0  0  0  0  0  0  0
    6.5139  -13.1819   27.3571 C   0  0  0  0  0  0  0  0  0  0  0  0
    7.0106  -11.9086   27.2852 C   0  0  0  0  0  0  0  0  0  0  0  0
    7.4968  -11.4437   26.0857 C   0  0  0  0  0  0  0  0  0  0  0  0
    7.4873  -12.2464   24.9625 C   0  0  0  0  0  0  0  0  0  0  0  0
    8.7255  -15.8568   24.6383 C   0  0  0  0  0  0  0  0  0  0  0  0
    8.1140  -16.9546   24.7937 O   0  0  0  0  0  0  0  0  0  0  0  0
   13.3071  -17.8848   24.4342 C   0  0  0  0  0  0  0  0  0  0  0  0
   12.3875  -17.9297   25.6550 C   0  0  0  0  0  0  0  0  0  0  0  0
   11.8941  -16.5569   26.0132 C   0  0  2  0  0  0  0  0  0  0  0  0
   12.7476  -16.0183   27.1263 C   0  0  0  0  0  0  0  0  0  0  0  0
   10.4301  -16.5706   26.2619 C   0  0  2  0  0  0  0  0  0  0  0  0
    9.7648  -15.4910   25.5359 N   0  0  0  0  0  0  0  0  0  0  0  0
   10.1406  -16.3346   27.6932 C   0  0  0  0  0  0  0  0  0  0  0  0
    9.4743  -15.1873   28.0882 O   0  0  0  0  0  0  0  0  0  0  0  0
   10.5144  -17.1937   28.5438 O   0  0  0  0  0  0  0  0  0  0  0  0
  2  1  1  1
  2  3  1  0
  4  2  1  0
  4  5  2  0
  6  4  1  0
  7  6  1  0
  7  8  1  1
  8  9  1  0
  9 10  2  0
  9 14  1  0
 10 11  1  0
 11 12  2  0
 13 12  1  0
 14 13  2  0
 15  7  1  0
 16 15  2  0
 18 17  1  0
 19 18  1  0
 19 20  1  1
 21 19  1  0
 21 22  1  6
 22 15  1  0
 23 24  1  0
 23 21  1  0
 25 23  2  0
M  END
$$$$
