CIN.pdb
     RDKit          3D

 23 22  0  0  1  0  0  0  0  0999 V2000
   24.5791  -17.3200  -15.9899 N   0  0  0  0  0  0  0  0  0  0  0  0
   24.2577  -16.1828  -16.8063 C   0  0  1  0  0  0  0  0  0  0  0  0
   22.9430  -16.3409  -17.5123 C   0  0  0  0  0  0  0  0  0  0  0  0
   23.0873  -17.7710  -18.6262 S   0  0  0  0  0  0  0  0  0  0  0  0
   24.3322  -14.9094  -16.0299 C   0  0  0  0  0  0  0  0  0  0  0  0
   23.6291  -14.8068  -15.0132 O   0  0  0  0  0  0  0  0  0  0  0  0
   28.0781  -10.1484  -15.1783 C   0  0  0  0  0  0  0  0  0  0  0  0
   26.6504  -10.6415  -15.0615 C   0  0  0  0  0  0  0  0  0  0  0  0
   26.5757  -11.9712  -15.7618 C   0  0  2  0  0  0  0  0  0  0  0  0
   27.0607  -11.8917  -17.1691 C   0  0  0  0  0  0  0  0  0  0  0  0
   25.1850  -12.5675  -15.7254 C   0  0  2  0  0  0  0  0  0  0  0  0
   25.1771  -13.8443  -16.4339 N   0  0  0  0  0  0  0  0  0  0  0  0
   24.1845  -11.6510  -16.3177 C   0  0  0  0  0  0  0  0  0  0  0  0
   24.0127  -11.6761  -17.5587 O   0  0  0  0  0  0  0  0  0  0  0  0
   20.2073   -8.3567  -17.0720 N   0  0  0  0  0  0  0  0  0  0  0  0
   19.9424   -9.6066  -16.4543 C   0  0  0  0  0  0  0  0  0  0  0  0
   18.7453   -9.9665  -16.3497 O   0  0  0  0  0  0  0  0  0  0  0  0
   21.0486  -10.4284  -15.9646 C   0  0  0  0  0  0  0  0  0  0  0  0
   22.4091   -9.8574  -16.1931 C   0  0  2  0  0  0  0  0  0  0  0  0
   23.4021  -10.7395  -15.5632 N   0  0  0  0  0  0  0  0  0  0  0  0
   22.4666   -8.5461  -15.5161 C   0  0  0  0  0  0  0  0  0  0  0  0
   23.2626   -8.4472  -14.3729 O   0  0  0  0  0  0  0  0  0  0  0  0
   21.8113   -7.5860  -15.9825 O   0  0  0  0  0  0  0  0  0  0  0  0
  2  3  1  0
  2  1  1  1
  3  4  1  0
  5  2  1  0
  5  6  2  0
  7  8  1  0
  8  9  1  0
  9 11  1  0
  9 10  1  6
 11 12  1  6
 11 13  1  0
 12  5  1  0
 13 20  1  0
 14 13  2  0
 15 16  1  0
 16 17  2  0
 18 16  1  0
 19 18  1  1
 19 21  1  0
 20 19  1  0
 21 23  2  0
 21 22  1  0
M  END
$$$$
