CIN.pdb
     RDKit          3D

 23 22  0  0  1  0  0  0  0  0999 V2000
   18.5507  -23.5601   -6.6707 N   0  0  0  0  0  0  0  0  0  0  0  0
   19.1413  -23.8778   -7.9408 C   0  0  1  0  0  0  0  0  0  0  0  0
   18.2895  -24.8131   -8.7480 C   0  0  0  0  0  0  0  0  0  0  0  0
   18.2748  -26.4177   -7.8924 S   0  0  0  0  0  0  0  0  0  0  0  0
   19.5048  -22.6458   -8.7024 C   0  0  0  0  0  0  0  0  0  0  0  0
   18.6992  -21.7026   -8.7003 O   0  0  0  0  0  0  0  0  0  0  0  0
   24.5230  -20.9865   -8.3297 C   0  0  0  0  0  0  0  0  0  0  0  0
   23.0099  -20.9719   -8.4037 C   0  0  0  0  0  0  0  0  0  0  0  0
   22.6298  -21.0942   -9.8544 C   0  0  2  0  0  0  0  0  0  0  0  0
   23.0920  -19.9251  -10.6555 C   0  0  0  0  0  0  0  0  0  0  0  0
   21.1429  -21.3003  -10.0480 C   0  0  2  0  0  0  0  0  0  0  0  0
   20.7304  -22.5469   -9.4093 N   0  0  0  0  0  0  0  0  0  0  0  0
   20.7786  -21.3193  -11.4829 C   0  0  0  0  0  0  0  0  0  0  0  0
   21.1196  -22.3085  -12.1724 O   0  0  0  0  0  0  0  0  0  0  0  0
   16.6069  -19.0590  -15.3865 N   0  0  0  0  0  0  0  0  0  0  0  0
   17.8173  -19.7352  -15.0838 C   0  0  0  0  0  0  0  0  0  0  0  0
   18.4016  -20.3366  -16.0168 O   0  0  0  0  0  0  0  0  0  0  0  0
   18.3437  -19.7151  -13.7196 C   0  0  0  0  0  0  0  0  0  0  0  0
   19.6763  -20.3659  -13.5471 C   0  0  2  0  0  0  0  0  0  0  0  0
   20.0625  -20.2805  -12.1312 N   0  0  0  0  0  0  0  0  0  0  0  0
   20.6588  -19.5965  -14.3368 C   0  0  0  0  0  0  0  0  0  0  0  0
   21.0937  -20.1539  -15.5412 O   0  0  0  0  0  0  0  0  0  0  0  0
   21.0604  -18.4908  -13.9066 O   0  0  0  0  0  0  0  0  0  0  0  0
  2  3  1  0
  2  1  1  1
  3  4  1  0
  5  2  1  0
  5  6  2  0
  7  8  1  0
  8  9  1  0
  9 11  1  0
  9 10  1  6
 11 12  1  6
 11 13  1  0
 12  5  1  0
 13 20  1  0
 14 13  2  0
 15 16  1  0
 16 17  2  0
 18 16  1  0
 19 18  1  1
 19 21  1  0
 20 19  1  0
 21 23  2  0
 21 22  1  0
M  END
$$$$
