CIN.pdb
     RDKit          3D

 23 22  0  0  1  0  0  0  0  0999 V2000
   28.7506  -20.8253  -15.4477 N   0  0  0  0  0  0  0  0  0  0  0  0
   27.9957  -19.9377  -14.6079 C   0  0  1  0  0  0  0  0  0  0  0  0
   27.4679  -18.7516  -15.3606 C   0  0  0  0  0  0  0  0  0  0  0  0
   28.8971  -17.7698  -15.9088 S   0  0  0  0  0  0  0  0  0  0  0  0
   26.9191  -20.6620  -13.8688 C   0  0  0  0  0  0  0  0  0  0  0  0
   26.4146  -21.6593  -14.4070 O   0  0  0  0  0  0  0  0  0  0  0  0
   26.6187  -20.3491   -8.3995 C   0  0  0  0  0  0  0  0  0  0  0  0
   26.5382  -21.0441   -9.7432 C   0  0  0  0  0  0  0  0  0  0  0  0
   25.3349  -20.4959  -10.4612 C   0  0  2  0  0  0  0  0  0  0  0  0
   24.0576  -20.9316   -9.8281 C   0  0  0  0  0  0  0  0  0  0  0  0
   25.3299  -20.8462  -11.9336 C   0  0  2  0  0  0  0  0  0  0  0  0
   26.4799  -20.2315  -12.5908 N   0  0  0  0  0  0  0  0  0  0  0  0
   24.0765  -20.4128  -12.5917 C   0  0  0  0  0  0  0  0  0  0  0  0
   23.8871  -19.1865  -12.7665 O   0  0  0  0  0  0  0  0  0  0  0  0
   19.7496  -20.4654  -15.5793 N   0  0  0  0  0  0  0  0  0  0  0  0
   20.7059  -21.4475  -15.9466 C   0  0  0  0  0  0  0  0  0  0  0  0
   20.5433  -22.0443  -17.0379 O   0  0  0  0  0  0  0  0  0  0  0  0
   21.8348  -21.7345  -15.0623 C   0  0  0  0  0  0  0  0  0  0  0  0
   21.9368  -20.8529  -13.8617 C   0  0  2  0  0  0  0  0  0  0  0  0
   23.0689  -21.3050  -13.0401 N   0  0  0  0  0  0  0  0  0  0  0  0
   20.7008  -21.0232  -13.0716 C   0  0  0  0  0  0  0  0  0  0  0  0
   20.8119  -21.6590  -11.8331 O   0  0  0  0  0  0  0  0  0  0  0  0
   19.6157  -20.5992  -13.5316 O   0  0  0  0  0  0  0  0  0  0  0  0
  2  3  1  0
  2  1  1  6
  3  4  1  0
  5  2  1  0
  5  6  2  0
  7  8  1  0
  8  9  1  0
  9 11  1  0
  9 10  1  1
 11 12  1  6
 11 13  1  0
 12  5  1  0
 13 20  1  0
 14 13  2  0
 15 16  1  0
 16 17  2  0
 18 16  1  0
 19 18  1  6
 19 21  1  0
 20 19  1  0
 21 23  2  0
 21 22  1  0
M  END
$$$$
