CIN.pdb
     RDKit          3D

 23 22  0  0  1  0  0  0  0  0999 V2000
   28.8027  -20.6743  -15.3231 N   0  0  0  0  0  0  0  0  0  0  0  0
   27.8578  -19.8155  -14.6654 C   0  0  1  0  0  0  0  0  0  0  0  0
   27.2974  -18.7723  -15.5871 C   0  0  0  0  0  0  0  0  0  0  0  0
   28.6256  -17.5811  -15.9392 S   0  0  0  0  0  0  0  0  0  0  0  0
   26.7862  -20.5983  -13.9806 C   0  0  0  0  0  0  0  0  0  0  0  0
   26.5037  -21.7174  -14.4350 O   0  0  0  0  0  0  0  0  0  0  0  0
   26.2405  -20.6742   -8.6278 C   0  0  0  0  0  0  0  0  0  0  0  0
   26.2881  -21.0783  -10.0871 C   0  0  0  0  0  0  0  0  0  0  0  0
   25.0176  -20.5916  -10.7298 C   0  0  2  0  0  0  0  0  0  0  0  0
   23.8067  -21.2011  -10.1099 C   0  0  0  0  0  0  0  0  0  0  0  0
   25.0030  -20.8161  -12.2265 C   0  0  2  0  0  0  0  0  0  0  0  0
   26.1066  -20.0874  -12.8454 N   0  0  0  0  0  0  0  0  0  0  0  0
   23.7164  -20.3966  -12.8270 C   0  0  0  0  0  0  0  0  0  0  0  0
   23.2681  -19.2609  -12.5451 O   0  0  0  0  0  0  0  0  0  0  0  0
   23.3208  -21.7824  -17.3872 N   0  0  0  0  0  0  0  0  0  0  0  0
   22.5597  -20.8463  -16.6399 C   0  0  0  0  0  0  0  0  0  0  0  0
   22.7708  -19.6262  -16.8405 O   0  0  0  0  0  0  0  0  0  0  0  0
   21.5678  -21.3168  -15.6737 C   0  0  0  0  0  0  0  0  0  0  0  0
   21.6947  -20.7354  -14.3044 C   0  0  2  0  0  0  0  0  0  0  0  0
   22.9534  -21.2054  -13.7078 N   0  0  0  0  0  0  0  0  0  0  0  0
   20.5789  -21.2562  -13.4889 C   0  0  0  0  0  0  0  0  0  0  0  0
   20.7616  -22.4916  -12.8637 O   0  0  0  0  0  0  0  0  0  0  0  0
   19.5269  -20.5839  -13.3885 O   0  0  0  0  0  0  0  0  0  0  0  0
  2  3  1  0
  2  1  1  6
  3  4  1  0
  5  2  1  0
  5  6  2  0
  7  8  1  0
  8  9  1  0
  9 11  1  0
  9 10  1  1
 11 12  1  6
 11 13  1  0
 12  5  1  0
 13 20  1  0
 14 13  2  0
 15 16  1  0
 16 17  2  0
 18 16  1  0
 19 18  1  6
 19 21  1  0
 20 19  1  0
 21 23  2  0
 21 22  1  0
M  END
$$$$
