CIN.pdb
     RDKit          3D

 23 22  0  0  1  0  0  0  0  0999 V2000
   30.3445  -10.1270  -19.7338 N   0  0  0  0  0  0  0  0  0  0  0  0
   29.7756   -9.4028  -18.6317 C   0  0  1  0  0  0  0  0  0  0  0  0
   29.8217   -7.9174  -18.8406 C   0  0  0  0  0  0  0  0  0  0  0  0
   31.5700   -7.4172  -18.8366 S   0  0  0  0  0  0  0  0  0  0  0  0
   28.3999   -9.8849  -18.3078 C   0  0  0  0  0  0  0  0  0  0  0  0
   27.6933  -10.2953  -19.2410 O   0  0  0  0  0  0  0  0  0  0  0  0
   27.7903  -13.6668  -15.0060 C   0  0  0  0  0  0  0  0  0  0  0  0
   27.6173  -12.6795  -16.1420 C   0  0  0  0  0  0  0  0  0  0  0  0
   26.7654  -11.5500  -15.6297 C   0  0  2  0  0  0  0  0  0  0  0  0
   25.4289  -12.0210  -15.1671 C   0  0  0  0  0  0  0  0  0  0  0  0
   26.6010  -10.4413  -16.6468 C   0  0  2  0  0  0  0  0  0  0  0  0
   27.9069   -9.8781  -16.9780 N   0  0  0  0  0  0  0  0  0  0  0  0
   25.6993   -9.3770  -16.1506 C   0  0  0  0  0  0  0  0  0  0  0  0
   26.2081   -8.3670  -15.6109 O   0  0  0  0  0  0  0  0  0  0  0  0
   23.5311   -4.8027  -17.4880 N   0  0  0  0  0  0  0  0  0  0  0  0
   22.9449   -6.0248  -17.0676 C   0  0  0  0  0  0  0  0  0  0  0  0
   21.7655   -5.9930  -16.6417 O   0  0  0  0  0  0  0  0  0  0  0  0
   23.7141   -7.2666  -17.1394 C   0  0  0  0  0  0  0  0  0  0  0  0
   23.4451   -8.2407  -16.0404 C   0  0  2  0  0  0  0  0  0  0  0  0
   24.2851   -9.4291  -16.2483 N   0  0  0  0  0  0  0  0  0  0  0  0
   22.0314   -8.6556  -16.1425 C   0  0  0  0  0  0  0  0  0  0  0  0
   21.1221   -8.0620  -15.2644 O   0  0  0  0  0  0  0  0  0  0  0  0
   21.7034   -9.5101  -16.9977 O   0  0  0  0  0  0  0  0  0  0  0  0
  2  3  1  0
  2  1  1  6
  3  4  1  0
  5  2  1  0
  5  6  2  0
  7  8  1  0
  8  9  1  0
  9 11  1  0
  9 10  1  6
 11 12  1  1
 11 13  1  0
 12  5  1  0
 13 20  1  0
 14 13  2  0
 15 16  1  0
 16 17  2  0
 18 16  1  0
 19 18  1  6
 19 21  1  0
 20 19  1  0
 21 23  2  0
 21 22  1  0
M  END
$$$$
