CIN.pdb
     RDKit          3D

 23 22  0  0  1  0  0  0  0  0999 V2000
   17.6406  -15.9310  -17.8426 N   0  0  0  0  0  0  0  0  0  0  0  0
   17.4114  -14.9984  -16.7746 C   0  0  1  0  0  0  0  0  0  0  0  0
   18.2112  -15.3278  -15.5483 C   0  0  0  0  0  0  0  0  0  0  0  0
   17.4106  -16.7439  -14.7355 S   0  0  0  0  0  0  0  0  0  0  0  0
   17.6175  -13.5885  -17.2213 C   0  0  0  0  0  0  0  0  0  0  0  0
   18.3828  -13.3877  -18.1766 O   0  0  0  0  0  0  0  0  0  0  0  0
   14.4820   -8.7494  -18.4202 C   0  0  0  0  0  0  0  0  0  0  0  0
   15.8731   -9.1692  -17.9916 C   0  0  0  0  0  0  0  0  0  0  0  0
   15.7812  -10.5860  -17.4933 C   0  0  2  0  0  0  0  0  0  0  0  0
   14.7841  -10.7303  -16.3946 C   0  0  0  0  0  0  0  0  0  0  0  0
   17.1217  -11.1328  -17.0523 C   0  0  2  0  0  0  0  0  0  0  0  0
   16.9634  -12.5056  -16.5802 N   0  0  0  0  0  0  0  0  0  0  0  0
   17.7278  -10.2970  -15.9912 C   0  0  0  0  0  0  0  0  0  0  0  0
   17.2706  -10.3848  -14.8278 O   0  0  0  0  0  0  0  0  0  0  0  0
   21.9133   -8.4173  -13.0373 N   0  0  0  0  0  0  0  0  0  0  0  0
   21.6927   -7.9111  -14.3447 C   0  0  0  0  0  0  0  0  0  0  0  0
   22.1778   -6.7896  -14.6283 O   0  0  0  0  0  0  0  0  0  0  0  0
   20.9209   -8.6929  -15.3100 C   0  0  0  0  0  0  0  0  0  0  0  0
   19.4420   -8.6640  -15.1079 C   0  0  2  0  0  0  0  0  0  0  0  0
   18.8016   -9.3962  -16.2102 N   0  0  0  0  0  0  0  0  0  0  0  0
   19.0051   -7.2551  -15.1794 C   0  0  0  0  0  0  0  0  0  0  0  0
   18.7242   -6.7324  -16.4436 O   0  0  0  0  0  0  0  0  0  0  0  0
   18.9036   -6.5903  -14.1227 O   0  0  0  0  0  0  0  0  0  0  0  0
  2  3  1  0
  2  1  1  6
  3  4  1  0
  5  2  1  0
  5  6  2  0
  7  8  1  0
  8  9  1  0
  9 11  1  0
  9 10  1  1
 11 12  1  1
 11 13  1  0
 12  5  1  0
 13 20  1  0
 14 13  2  0
 15 16  1  0
 16 17  2  0
 18 16  1  0
 19 18  1  6
 19 21  1  0
 20 19  1  0
 21 23  2  0
 21 22  1  0
M  END
$$$$
