CIN.pdb
     RDKit          3D

 23 22  0  0  1  0  0  0  0  0999 V2000
   19.6996  -14.0820  -16.3389 N   0  0  0  0  0  0  0  0  0  0  0  0
   20.2230  -13.0277  -17.1621 C   0  0  1  0  0  0  0  0  0  0  0  0
   19.2953  -12.6671  -18.2851 C   0  0  0  0  0  0  0  0  0  0  0  0
   19.1991  -14.1013  -19.3990 S   0  0  0  0  0  0  0  0  0  0  0  0
   20.6151  -11.8379  -16.3493 C   0  0  0  0  0  0  0  0  0  0  0  0
   19.9308  -11.5648  -15.3514 O   0  0  0  0  0  0  0  0  0  0  0  0
   25.5165  -11.1040  -14.7073 C   0  0  0  0  0  0  0  0  0  0  0  0
   24.0069  -11.1285  -14.8330 C   0  0  0  0  0  0  0  0  0  0  0  0
   23.6022   -9.9135  -15.6229 C   0  0  2  0  0  0  0  0  0  0  0  0
   24.0305   -8.6473  -14.9629 C   0  0  0  0  0  0  0  0  0  0  0  0
   22.1155   -9.8745  -15.9042 C   0  0  2  0  0  0  0  0  0  0  0  0
   21.7332  -11.0385  -16.6988 N   0  0  0  0  0  0  0  0  0  0  0  0
   21.7270   -8.6300  -16.6058 C   0  0  0  0  0  0  0  0  0  0  0  0
   22.1992   -8.4153  -17.7464 O   0  0  0  0  0  0  0  0  0  0  0  0
   17.3309   -4.4156  -16.7454 N   0  0  0  0  0  0  0  0  0  0  0  0
   18.4457   -5.0734  -17.3272 C   0  0  0  0  0  0  0  0  0  0  0  0
   18.9449   -4.5743  -18.3641 O   0  0  0  0  0  0  0  0  0  0  0  0
   18.9749   -6.2923  -16.7165 C   0  0  0  0  0  0  0  0  0  0  0  0
   20.4557   -6.4563  -16.8147 C   0  0  2  0  0  0  0  0  0  0  0  0
   20.8472   -7.6581  -16.0639 N   0  0  0  0  0  0  0  0  0  0  0  0
   21.0823   -5.2869  -16.1661 C   0  0  0  0  0  0  0  0  0  0  0  0
   21.4102   -5.4009  -14.8134 O   0  0  0  0  0  0  0  0  0  0  0  0
   21.2939   -4.2523  -16.8398 O   0  0  0  0  0  0  0  0  0  0  0  0
  2  3  1  0
  2  1  1  1
  3  4  1  0
  5  2  1  0
  5  6  2  0
  7  8  1  0
  8  9  1  0
  9 11  1  0
  9 10  1  1
 11 12  1  6
 11 13  1  0
 12  5  1  0
 13 20  1  0
 14 13  2  0
 15 16  1  0
 16 17  2  0
 18 16  1  0
 19 18  1  1
 19 21  1  0
 20 19  1  0
 21 23  2  0
 21 22  1  0
M  END
$$$$
