CIN.pdb
     RDKit          3D

 23 22  0  0  1  0  0  0  0  0999 V2000
   22.3973  -10.3444  -20.9041 N   0  0  0  0  0  0  0  0  0  0  0  0
   22.6475   -9.1739  -20.1103 C   0  0  1  0  0  0  0  0  0  0  0  0
   22.3833   -7.9048  -20.8663 C   0  0  0  0  0  0  0  0  0  0  0  0
   23.6531   -7.7630  -22.1603 S   0  0  0  0  0  0  0  0  0  0  0  0
   21.9110   -9.2215  -18.8121 C   0  0  0  0  0  0  0  0  0  0  0  0
   20.7670   -9.7010  -18.8103 O   0  0  0  0  0  0  0  0  0  0  0  0
   24.0957  -10.8100  -14.2650 C   0  0  0  0  0  0  0  0  0  0  0  0
   23.1114  -10.5409  -15.3848 C   0  0  0  0  0  0  0  0  0  0  0  0
   22.6131   -9.1313  -15.2158 C   0  0  2  0  0  0  0  0  0  0  0  0
   21.8968   -8.9411  -13.9224 C   0  0  0  0  0  0  0  0  0  0  0  0
   21.7351   -8.6858  -16.3653 C   0  0  2  0  0  0  0  0  0  0  0  0
   22.4924   -8.7364  -17.6128 N   0  0  0  0  0  0  0  0  0  0  0  0
   21.2045   -7.3209  -16.1475 C   0  0  0  0  0  0  0  0  0  0  0  0
   22.0184   -6.3875  -15.9559 O   0  0  0  0  0  0  0  0  0  0  0  0
   18.2156   -3.0550  -16.2414 N   0  0  0  0  0  0  0  0  0  0  0  0
   18.4584   -3.7634  -17.4468 C   0  0  0  0  0  0  0  0  0  0  0  0
   18.1529   -3.2037  -18.5271 O   0  0  0  0  0  0  0  0  0  0  0  0
   19.0469   -5.1015  -17.4019 C   0  0  0  0  0  0  0  0  0  0  0  0
   19.3438   -5.6152  -16.0319 C   0  0  2  0  0  0  0  0  0  0  0  0
   19.8226   -7.0008  -16.1419 N   0  0  0  0  0  0  0  0  0  0  0  0
   18.0780   -5.6272  -15.2713 C   0  0  0  0  0  0  0  0  0  0  0  0
   17.8614   -4.5852  -14.3671 O   0  0  0  0  0  0  0  0  0  0  0  0
   17.2578   -6.5548  -15.4604 O   0  0  0  0  0  0  0  0  0  0  0  0
  2  3  1  0
  2  1  1  6
  3  4  1  0
  5  2  1  0
  5  6  2  0
  7  8  1  0
  8  9  1  0
  9 11  1  0
  9 10  1  1
 11 12  1  6
 11 13  1  0
 12  5  1  0
 13 20  1  0
 14 13  2  0
 15 16  1  0
 16 17  2  0
 18 16  1  0
 19 18  1  6
 19 21  1  0
 20 19  1  0
 21 23  2  0
 21 22  1  0
M  END
$$$$
