CIN.pdb
     RDKit          3D

 23 22  0  0  1  0  0  0  0  0999 V2000
   13.2658  -11.7549  -10.2337 N   0  0  0  0  0  0  0  0  0  0  0  0
   14.6428  -11.4117  -10.0124 C   0  0  1  0  0  0  0  0  0  0  0  0
   15.5840  -12.4217  -10.6007 C   0  0  0  0  0  0  0  0  0  0  0  0
   15.3132  -13.9955   -9.7308 S   0  0  0  0  0  0  0  0  0  0  0  0
   14.9448  -10.0235  -10.4723 C   0  0  0  0  0  0  0  0  0  0  0  0
   14.3707   -9.6113  -11.4917 O   0  0  0  0  0  0  0  0  0  0  0  0
   14.1903   -5.9135   -7.4756 C   0  0  0  0  0  0  0  0  0  0  0  0
   14.3395   -6.8172   -8.6823 C   0  0  0  0  0  0  0  0  0  0  0  0
   15.8052   -6.8829   -9.0160 C   0  0  2  0  0  0  0  0  0  0  0  0
   16.3799   -5.5340   -9.2850 C   0  0  0  0  0  0  0  0  0  0  0  0
   16.0938   -7.8106  -10.1765 C   0  0  2  0  0  0  0  0  0  0  0  0
   15.8580   -9.1939   -9.7727 N   0  0  0  0  0  0  0  0  0  0  0  0
   17.4821   -7.6534  -10.6664 C   0  0  0  0  0  0  0  0  0  0  0  0
   18.4246   -7.8732   -9.8703 O   0  0  0  0  0  0  0  0  0  0  0  0
   21.7845   -7.1945  -13.5503 N   0  0  0  0  0  0  0  0  0  0  0  0
   20.8868   -8.2340  -13.9074 C   0  0  0  0  0  0  0  0  0  0  0  0
   21.2806   -9.0893  -14.7362 O   0  0  0  0  0  0  0  0  0  0  0  0
   19.5516   -8.2823  -13.3128 C   0  0  0  0  0  0  0  0  0  0  0  0
   19.2095   -7.1254  -12.4333 C   0  0  2  0  0  0  0  0  0  0  0  0
   17.8150   -7.2668  -11.9899 N   0  0  0  0  0  0  0  0  0  0  0  0
   19.3090   -5.8966  -13.2465 C   0  0  0  0  0  0  0  0  0  0  0  0
   20.5548   -5.2689  -13.3132 O   0  0  0  0  0  0  0  0  0  0  0  0
   18.2910   -5.4683  -13.8374 O   0  0  0  0  0  0  0  0  0  0  0  0
  2  3  1  0
  2  1  1  6
  3  4  1  0
  5  2  1  0
  5  6  2  0
  7  8  1  0
  8  9  1  0
  9 11  1  0
  9 10  1  6
 11 12  1  1
 11 13  1  0
 12  5  1  0
 13 20  1  0
 14 13  2  0
 15 16  1  0
 16 17  2  0
 18 16  1  0
 19 18  1  6
 19 21  1  0
 20 19  1  0
 21 23  2  0
 21 22  1  0
M  END
$$$$
