CIN.pdb
     RDKit          3D

 23 22  0  0  1  0  0  0  0  0999 V2000
   28.6866  -21.0565  -15.5680 N   0  0  0  0  0  0  0  0  0  0  0  0
   27.8718  -20.1413  -14.8187 C   0  0  1  0  0  0  0  0  0  0  0  0
   27.4124  -18.9772  -15.6469 C   0  0  0  0  0  0  0  0  0  0  0  0
   28.8936  -18.0770  -16.1970 S   0  0  0  0  0  0  0  0  0  0  0  0
   26.7358  -20.8393  -14.1464 C   0  0  0  0  0  0  0  0  0  0  0  0
   26.2977  -21.8745  -14.6708 O   0  0  0  0  0  0  0  0  0  0  0  0
   26.1264  -20.7623   -8.7300 C   0  0  0  0  0  0  0  0  0  0  0  0
   26.1508  -21.2739  -10.1558 C   0  0  0  0  0  0  0  0  0  0  0  0
   24.9589  -20.6886  -10.8635 C   0  0  2  0  0  0  0  0  0  0  0  0
   23.6717  -21.1625  -10.2798 C   0  0  0  0  0  0  0  0  0  0  0  0
   24.9819  -20.9546  -12.3533 C   0  0  2  0  0  0  0  0  0  0  0  0
   26.1680  -20.3424  -12.9454 N   0  0  0  0  0  0  0  0  0  0  0  0
   23.7609  -20.4431  -13.0162 C   0  0  0  0  0  0  0  0  0  0  0  0
   23.5432  -19.2092  -12.9965 O   0  0  0  0  0  0  0  0  0  0  0  0
   19.6708  -21.8424  -17.2889 N   0  0  0  0  0  0  0  0  0  0  0  0
   20.4183  -20.8994  -16.5366 C   0  0  0  0  0  0  0  0  0  0  0  0
   20.0733  -19.6949  -16.5984 O   0  0  0  0  0  0  0  0  0  0  0  0
   21.5496  -21.3451  -15.7241 C   0  0  0  0  0  0  0  0  0  0  0  0
   21.6483  -20.7102  -14.3764 C   0  0  2  0  0  0  0  0  0  0  0  0
   22.8150  -21.2680  -13.6772 N   0  0  0  0  0  0  0  0  0  0  0  0
   20.4382  -21.0799  -13.6148 C   0  0  0  0  0  0  0  0  0  0  0  0
   19.3464  -20.2117  -13.6814 O   0  0  0  0  0  0  0  0  0  0  0  0
   20.4335  -22.1401  -12.9478 O   0  0  0  0  0  0  0  0  0  0  0  0
  2  3  1  0
  2  1  1  6
  3  4  1  0
  5  2  1  0
  5  6  2  0
  7  8  1  0
  8  9  1  0
  9 11  1  0
  9 10  1  1
 11 12  1  6
 11 13  1  0
 12  5  1  0
 13 20  1  0
 14 13  2  0
 15 16  1  0
 16 17  2  0
 18 16  1  0
 19 18  1  6
 19 21  1  0
 20 19  1  0
 21 23  2  0
 21 22  1  0
M  END
$$$$
