CIN.pdb
     RDKit          3D

 23 22  0  0  1  0  0  0  0  0999 V2000
   18.3665  -13.5965  -16.7477 N   0  0  0  0  0  0  0  0  0  0  0  0
   18.7002  -12.3130  -17.2994 C   0  0  1  0  0  0  0  0  0  0  0  0
   17.6568  -11.8145  -18.2557 C   0  0  0  0  0  0  0  0  0  0  0  0
   17.7027  -12.8856  -19.7246 S   0  0  0  0  0  0  0  0  0  0  0  0
   19.0076  -11.3174  -16.2298 C   0  0  0  0  0  0  0  0  0  0  0  0
   18.3480  -11.3693  -15.1806 O   0  0  0  0  0  0  0  0  0  0  0  0
   23.7712  -10.3485  -14.2724 C   0  0  0  0  0  0  0  0  0  0  0  0
   22.2885  -10.5411  -14.5165 C   0  0  0  0  0  0  0  0  0  0  0  0
   21.7556   -9.2535  -15.0840 C   0  0  2  0  0  0  0  0  0  0  0  0
   22.0464   -8.0886  -14.2004 C   0  0  0  0  0  0  0  0  0  0  0  0
   20.2732   -9.3215  -15.3816 C   0  0  2  0  0  0  0  0  0  0  0  0
   20.0203  -10.3387  -16.3982 N   0  0  0  0  0  0  0  0  0  0  0  0
   19.7478   -8.0122  -15.8305 C   0  0  0  0  0  0  0  0  0  0  0  0
   20.2355   -7.4953  -16.8627 O   0  0  0  0  0  0  0  0  0  0  0  0
   15.6584   -4.2084  -16.6696 N   0  0  0  0  0  0  0  0  0  0  0  0
   16.2724   -4.4762  -15.4185 C   0  0  0  0  0  0  0  0  0  0  0  0
   16.3068   -3.5505  -14.5727 O   0  0  0  0  0  0  0  0  0  0  0  0
   16.8385   -5.7977  -15.1507 C   0  0  0  0  0  0  0  0  0  0  0  0
   18.2356   -5.9970  -15.6381 C   0  0  2  0  0  0  0  0  0  0  0  0
   18.7194   -7.3006  -15.1610 N   0  0  0  0  0  0  0  0  0  0  0  0
   19.0780   -4.9462  -15.0322 C   0  0  0  0  0  0  0  0  0  0  0  0
   19.1654   -3.7252  -15.7044 O   0  0  0  0  0  0  0  0  0  0  0  0
   19.6740   -5.1826  -13.9562 O   0  0  0  0  0  0  0  0  0  0  0  0
  2  3  1  0
  2  1  1  1
  3  4  1  0
  5  2  1  0
  5  6  2  0
  7  8  1  0
  8  9  1  0
  9 11  1  0
  9 10  1  1
 11 12  1  6
 11 13  1  0
 12  5  1  0
 13 20  1  0
 14 13  2  0
 15 16  1  0
 16 17  2  0
 18 16  1  0
 19 18  1  1
 19 21  1  0
 20 19  1  0
 21 23  2  0
 21 22  1  0
M  END
$$$$
