CIN.pdb
     RDKit          3D

 23 22  0  0  1  0  0  0  0  0999 V2000
   18.9421  -14.7579  -16.6955 N   0  0  0  0  0  0  0  0  0  0  0  0
   19.2988  -13.4636  -17.2060 C   0  0  1  0  0  0  0  0  0  0  0  0
   18.1042  -12.6874  -17.6776 C   0  0  0  0  0  0  0  0  0  0  0  0
   17.1702  -13.7558  -18.8148 S   0  0  0  0  0  0  0  0  0  0  0  0
   20.1219  -12.6934  -16.2266 C   0  0  0  0  0  0  0  0  0  0  0  0
   19.7336  -12.6489  -15.0494 O   0  0  0  0  0  0  0  0  0  0  0  0
   25.2655  -13.1865  -15.4895 C   0  0  0  0  0  0  0  0  0  0  0  0
   23.7848  -12.9288  -15.2994 C   0  0  0  0  0  0  0  0  0  0  0  0
   23.5162  -11.5125  -15.7308 C   0  0  2  0  0  0  0  0  0  0  0  0
   24.2918  -10.5251  -14.9273 C   0  0  0  0  0  0  0  0  0  0  0  0
   22.0433  -11.1663  -15.6968 C   0  0  2  0  0  0  0  0  0  0  0  0
   21.3121  -12.0299  -16.6198 N   0  0  0  0  0  0  0  0  0  0  0  0
   21.8105   -9.7446  -16.0382 C   0  0  0  0  0  0  0  0  0  0  0  0
   22.0199   -9.3714  -17.2159 O   0  0  0  0  0  0  0  0  0  0  0  0
   18.0751   -5.6467  -16.6495 N   0  0  0  0  0  0  0  0  0  0  0  0
   19.4350   -6.0284  -16.7873 C   0  0  0  0  0  0  0  0  0  0  0  0
   20.2310   -5.1931  -17.2795 O   0  0  0  0  0  0  0  0  0  0  0  0
   19.8670   -7.3589  -16.3609 C   0  0  0  0  0  0  0  0  0  0  0  0
   21.0906   -7.3817  -15.5057 C   0  0  2  0  0  0  0  0  0  0  0  0
   21.3622   -8.7710  -15.1090 N   0  0  0  0  0  0  0  0  0  0  0  0
   20.8004   -6.6050  -14.2836 C   0  0  0  0  0  0  0  0  0  0  0  0
   20.8229   -5.2124  -14.3864 O   0  0  0  0  0  0  0  0  0  0  0  0
   20.5487   -7.2115  -13.2169 O   0  0  0  0  0  0  0  0  0  0  0  0
  2  3  1  0
  2  1  1  1
  3  4  1  0
  5  2  1  0
  5  6  2  0
  7  8  1  0
  8  9  1  0
  9 11  1  0
  9 10  1  1
 11 12  1  6
 11 13  1  0
 12  5  1  0
 13 20  1  0
 14 13  2  0
 15 16  1  0
 16 17  2  0
 18 16  1  0
 19 18  1  6
 19 21  1  0
 20 19  1  0
 21 23  2  0
 21 22  1  0
M  END
$$$$
