CIN.pdb
     RDKit          3D

 23 22  0  0  1  0  0  0  0  0999 V2000
   18.0906   -9.9117  -16.1286 N   0  0  0  0  0  0  0  0  0  0  0  0
   18.6802  -10.5007  -14.9587 C   0  0  1  0  0  0  0  0  0  0  0  0
   19.7643  -11.4812  -15.2985 C   0  0  0  0  0  0  0  0  0  0  0  0
   18.9815  -12.8996  -16.1247 S   0  0  0  0  0  0  0  0  0  0  0  0
   19.1424   -9.4604  -13.9922 C   0  0  0  0  0  0  0  0  0  0  0  0
   19.6161   -9.8414  -12.9110 O   0  0  0  0  0  0  0  0  0  0  0  0
   22.3613   -4.5766  -13.6486 C   0  0  0  0  0  0  0  0  0  0  0  0
   21.1709   -5.2342  -12.9810 C   0  0  0  0  0  0  0  0  0  0  0  0
   20.6878   -6.3253  -13.8976 C   0  0  2  0  0  0  0  0  0  0  0  0
   20.3852   -5.8155  -15.2653 C   0  0  0  0  0  0  0  0  0  0  0  0
   19.4876   -7.0602  -13.3407 C   0  0  2  0  0  0  0  0  0  0  0  0
   19.0472   -8.0773  -14.2914 N   0  0  0  0  0  0  0  0  0  0  0  0
   18.3745   -6.1325  -13.0366 C   0  0  0  0  0  0  0  0  0  0  0  0
   17.6547   -5.7336  -13.9816 O   0  0  0  0  0  0  0  0  0  0  0  0
   16.1762   -7.0868   -8.6691 N   0  0  0  0  0  0  0  0  0  0  0  0
   15.8257   -6.3337   -9.8197 C   0  0  0  0  0  0  0  0  0  0  0  0
   14.9733   -6.8200  -10.6010 O   0  0  0  0  0  0  0  0  0  0  0  0
   16.4538   -5.0354  -10.0622 C   0  0  0  0  0  0  0  0  0  0  0  0
   16.9061   -4.8049  -11.4662 C   0  0  2  0  0  0  0  0  0  0  0  0
   18.0694   -5.6632  -11.7332 N   0  0  0  0  0  0  0  0  0  0  0  0
   17.3410   -3.3977  -11.5739 C   0  0  0  0  0  0  0  0  0  0  0  0
   16.3584   -2.4111  -11.4670 O   0  0  0  0  0  0  0  0  0  0  0  0
   18.5541   -3.1429  -11.7542 O   0  0  0  0  0  0  0  0  0  0  0  0
  2  3  1  0
  2  1  1  6
  3  4  1  0
  5  2  1  0
  5  6  2  0
  7  8  1  0
  8  9  1  0
  9 11  1  0
  9 10  1  6
 11 12  1  6
 11 13  1  0
 12  5  1  0
 13 20  1  0
 14 13  2  0
 15 16  1  0
 16 17  2  0
 18 16  1  0
 19 18  1  1
 19 21  1  0
 20 19  1  0
 21 23  2  0
 21 22  1  0
M  END
$$$$
