HKV.pdb
     RDKit          3D

 27 27  0  0  1  0  0  0  0  0999 V2000
    8.5378  -18.3525   20.0366 N   0  0  0  0  0  0  0  0  0  0  0  0
    8.1638  -16.9627   20.0133 C   0  0  1  0  0  0  0  0  0  0  0  0
    7.2739  -16.6564   18.8117 C   0  0  0  0  0  0  0  0  0  0  0  0
    8.0502  -16.9207   17.5707 C   0  0  0  0  0  0  0  0  0  0  0  0
    9.3843  -16.6408   17.3898 C   0  0  0  0  0  0  0  0  0  0  0  0
    9.7692  -17.0052   16.1540 N   0  0  0  0  0  0  0  0  0  0  0  0
    8.6486  -17.5167   15.5710 C   0  0  0  0  0  0  0  0  0  0  0  0
    7.6238  -17.4594   16.4337 N   0  0  0  0  0  0  0  0  0  0  0  0
    7.3821  -16.6119   21.2184 C   0  0  0  0  0  0  0  0  0  0  0  0
    6.3418  -15.9324   21.0852 O   0  0  0  0  0  0  0  0  0  0  0  0
    7.8323  -17.0550   22.4925 N   0  0  0  0  0  0  0  0  0  0  0  0
    7.1163  -16.7652   23.6841 C   0  0  1  0  0  0  0  0  0  0  0  0
    6.9391  -17.9522   24.5683 C   0  0  0  0  0  0  0  0  0  0  0  0
    6.2935  -19.1586   24.0274 C   0  0  0  0  0  0  0  0  0  0  0  0
    6.9476  -20.4537   24.4037 C   0  0  0  0  0  0  0  0  0  0  0  0
    6.1537  -21.6388   23.8398 C   0  0  0  0  0  0  0  0  0  0  0  0
    6.8984  -22.8302   24.1336 N   0  0  0  0  0  0  0  0  0  0  0  0
    7.8555  -15.6868   24.4492 C   0  0  0  0  0  0  0  0  0  0  0  0
    9.1156  -15.6007   24.3760 O   0  0  0  0  0  0  0  0  0  0  0  0
    5.8389  -13.0800   27.1232 C   0  0  0  0  0  0  0  0  0  0  0  0
    7.0031  -12.5647   26.3033 C   0  0  1  0  0  0  0  0  0  0  0  0
    7.7303  -11.4565   27.0270 C   0  0  0  0  0  0  0  0  0  0  0  0
    7.9136  -13.7306   25.9830 C   0  0  2  0  0  0  0  0  0  0  0  0
    7.1722  -14.7583   25.2553 N   0  0  0  0  0  0  0  0  0  0  0  0
    8.4184  -14.2551   27.2784 C   0  0  0  0  0  0  0  0  0  0  0  0
    8.0361  -15.3098   27.7968 O   0  0  0  0  0  0  0  0  0  0  0  0
    9.3794  -13.5105   27.9443 O   0  0  0  0  0  0  0  0  0  0  0  0
  2  1  1  1
  2  3  1  0
  4  5  2  0
  4  3  1  0
  6  5  1  0
  7  8  2  0
  7  6  1  0
  8  4  1  0
  9  2  1  0
  9 11  1  0
 10  9  2  0
 12 11  1  0
 12 13  1  1
 13 14  1  0
 14 15  1  0
 16 15  1  0
 16 17  1  0
 18 12  1  0
 19 18  2  0
 21 20  1  1
 21 23  1  0
 22 21  1  0
 23 25  1  0
 23 24  1  1
 24 18  1  0
 25 27  1  0
 26 25  2  0
M  END
$$$$
