HKV.pdb
     RDKit          3D

 27 27  0  0  1  0  0  0  0  0999 V2000
    9.7093  -15.9827   18.6596 N   0  0  0  0  0  0  0  0  0  0  0  0
   10.3029  -15.7299   19.9464 C   0  0  1  0  0  0  0  0  0  0  0  0
   10.9288  -14.3387   19.9956 C   0  0  0  0  0  0  0  0  0  0  0  0
   12.3729  -14.4593   19.6601 C   0  0  0  0  0  0  0  0  0  0  0  0
   13.0919  -15.6313   19.6410 C   0  0  0  0  0  0  0  0  0  0  0  0
   14.3683  -15.3845   19.2974 N   0  0  0  0  0  0  0  0  0  0  0  0
   14.4281  -14.0368   19.1035 C   0  0  0  0  0  0  0  0  0  0  0  0
   13.2221  -13.4943   19.3250 N   0  0  0  0  0  0  0  0  0  0  0  0
    9.2779  -15.7701   21.0114 C   0  0  0  0  0  0  0  0  0  0  0  0
    8.2492  -15.0721   20.8842 O   0  0  0  0  0  0  0  0  0  0  0  0
    9.4884  -16.5984   22.1480 N   0  0  0  0  0  0  0  0  0  0  0  0
    8.5316  -16.6968   23.1926 C   0  0  1  0  0  0  0  0  0  0  0  0
    8.5179  -18.0323   23.8549 C   0  0  0  0  0  0  0  0  0  0  0  0
    7.6818  -18.2313   25.0491 C   0  0  0  0  0  0  0  0  0  0  0  0
    7.8468  -19.5575   25.7279 C   0  0  0  0  0  0  0  0  0  0  0  0
    6.9062  -19.6625   26.9349 C   0  0  0  0  0  0  0  0  0  0  0  0
    7.0598  -20.9802   27.4827 N   0  0  0  0  0  0  0  0  0  0  0  0
    8.8297  -15.6349   24.2310 C   0  0  0  0  0  0  0  0  0  0  0  0
   10.0182  -15.4311   24.6139 O   0  0  0  0  0  0  0  0  0  0  0  0
    5.7297  -13.6002   26.3532 C   0  0  0  0  0  0  0  0  0  0  0  0
    6.9990  -12.8715   25.9643 C   0  0  1  0  0  0  0  0  0  0  0  0
    7.3239  -11.7781   26.9539 C   0  0  0  0  0  0  0  0  0  0  0  0
    8.1153  -13.8871   25.8489 C   0  0  2  0  0  0  0  0  0  0  0  0
    7.8066  -14.8514   24.7952 N   0  0  0  0  0  0  0  0  0  0  0  0
    8.2282  -14.5592   27.1692 C   0  0  0  0  0  0  0  0  0  0  0  0
    7.8343  -15.7077   27.3996 O   0  0  0  0  0  0  0  0  0  0  0  0
    8.8133  -13.8488   28.2058 O   0  0  0  0  0  0  0  0  0  0  0  0
  2  1  1  6
  2  3  1  0
  4  5  2  0
  4  3  1  0
  6  5  1  0
  7  8  2  0
  7  6  1  0
  8  4  1  0
  9  2  1  0
  9 11  1  0
 10  9  2  0
 12 11  1  0
 12 13  1  1
 13 14  1  0
 14 15  1  0
 16 15  1  0
 16 17  1  0
 18 12  1  0
 19 18  2  0
 21 20  1  1
 21 23  1  0
 22 21  1  0
 23 25  1  0
 23 24  1  6
 24 18  1  0
 25 27  1  0
 26 25  2  0
M  END
$$$$
