HKV.pdb
     RDKit          3D

 27 27  0  0  1  0  0  0  0  0999 V2000
    5.5636  -15.5847   21.0004 N   0  0  0  0  0  0  0  0  0  0  0  0
    6.8729  -15.7278   21.5811 C   0  0  1  0  0  0  0  0  0  0  0  0
    7.6660  -14.4286   21.4678 C   0  0  0  0  0  0  0  0  0  0  0  0
    8.0017  -14.2046   20.0362 C   0  0  0  0  0  0  0  0  0  0  0  0
    7.5609  -13.1519   19.2690 C   0  0  0  0  0  0  0  0  0  0  0  0
    8.0509  -13.2531   18.0208 N   0  0  0  0  0  0  0  0  0  0  0  0
    8.8043  -14.3887   18.0276 C   0  0  0  0  0  0  0  0  0  0  0  0
    8.7655  -14.9497   19.2449 N   0  0  0  0  0  0  0  0  0  0  0  0
    6.7736  -16.0379   23.0235 C   0  0  0  0  0  0  0  0  0  0  0  0
    5.9753  -15.3826   23.7271 O   0  0  0  0  0  0  0  0  0  0  0  0
    7.5855  -17.0693   23.5704 N   0  0  0  0  0  0  0  0  0  0  0  0
    7.5035  -17.4437   24.9377 C   0  0  1  0  0  0  0  0  0  0  0  0
    7.5585  -18.9183   25.1490 C   0  0  0  0  0  0  0  0  0  0  0  0
    7.5326  -19.4469   26.5218 C   0  0  0  0  0  0  0  0  0  0  0  0
    7.7352  -20.9276   26.6379 C   0  0  0  0  0  0  0  0  0  0  0  0
    7.6386  -21.3686   28.1037 C   0  0  0  0  0  0  0  0  0  0  0  0
    7.7996  -22.7945   28.1322 N   0  0  0  0  0  0  0  0  0  0  0  0
    8.6459  -16.7949   25.6921 C   0  0  0  0  0  0  0  0  0  0  0  0
    9.7815  -16.6700   25.1486 O   0  0  0  0  0  0  0  0  0  0  0  0
   10.1015  -13.9657   29.4010 C   0  0  0  0  0  0  0  0  0  0  0  0
    9.0923  -14.3785   28.3501 C   0  0  1  0  0  0  0  0  0  0  0  0
    8.8586  -13.2679   27.3538 C   0  0  0  0  0  0  0  0  0  0  0  0
    9.5866  -15.6459   27.6864 C   0  0  2  0  0  0  0  0  0  0  0  0
    8.4817  -16.3166   27.0047 N   0  0  0  0  0  0  0  0  0  0  0  0
   10.1507  -16.5054   28.7591 C   0  0  0  0  0  0  0  0  0  0  0  0
    9.5988  -17.5205   29.1976 O   0  0  0  0  0  0  0  0  0  0  0  0
   11.3742  -16.1416   29.2995 O   0  0  0  0  0  0  0  0  0  0  0  0
  2  1  1  1
  2  3  1  0
  4  5  2  0
  4  3  1  0
  6  5  1  0
  7  8  2  0
  7  6  1  0
  8  4  1  0
  9  2  1  0
  9 11  1  0
 10  9  2  0
 12 11  1  0
 12 13  1  6
 13 14  1  0
 14 15  1  0
 16 15  1  0
 16 17  1  0
 18 12  1  0
 19 18  2  0
 21 20  1  1
 21 23  1  0
 22 21  1  0
 23 25  1  0
 23 24  1  1
 24 18  1  0
 25 27  1  0
 26 25  2  0
M  END
$$$$
