HKV.pdb
     RDKit          3D

 27 27  0  0  1  0  0  0  0  0999 V2000
    7.0244  -17.9446   19.5761 N   0  0  0  0  0  0  0  0  0  0  0  0
    7.7958  -16.9361   20.2542 C   0  0  1  0  0  0  0  0  0  0  0  0
    7.5874  -15.5663   19.6139 C   0  0  0  0  0  0  0  0  0  0  0  0
    8.2306  -15.5701   18.2728 C   0  0  0  0  0  0  0  0  0  0  0  0
    7.5758  -15.4118   17.0739 C   0  0  0  0  0  0  0  0  0  0  0  0
    8.4543  -15.4661   16.0573 N   0  0  0  0  0  0  0  0  0  0  0  0
    9.6670  -15.6611   16.6478 C   0  0  0  0  0  0  0  0  0  0  0  0
    9.5172  -15.7216   17.9788 N   0  0  0  0  0  0  0  0  0  0  0  0
    7.3693  -16.8127   21.6646 C   0  0  0  0  0  0  0  0  0  0  0  0
    6.1754  -16.5381   21.9113 O   0  0  0  0  0  0  0  0  0  0  0  0
    8.3246  -17.0088   22.6996 N   0  0  0  0  0  0  0  0  0  0  0  0
    7.9526  -17.0325   24.0698 C   0  0  1  0  0  0  0  0  0  0  0  0
    8.5233  -18.1905   24.8152 C   0  0  0  0  0  0  0  0  0  0  0  0
    7.8584  -19.4997   24.7233 C   0  0  0  0  0  0  0  0  0  0  0  0
    8.7797  -20.6820   24.7071 C   0  0  0  0  0  0  0  0  0  0  0  0
    7.9846  -21.9785   24.5087 C   0  0  0  0  0  0  0  0  0  0  0  0
    8.9295  -23.0585   24.4774 N   0  0  0  0  0  0  0  0  0  0  0  0
    8.4165  -15.7478   24.7251 C   0  0  0  0  0  0  0  0  0  0  0  0
    9.5921  -15.3211   24.5340 O   0  0  0  0  0  0  0  0  0  0  0  0
    7.4445  -11.7563   27.4452 C   0  0  0  0  0  0  0  0  0  0  0  0
    6.8945  -12.9440   26.6836 C   0  0  1  0  0  0  0  0  0  0  0  0
    6.0217  -12.4973   25.5350 C   0  0  0  0  0  0  0  0  0  0  0  0
    8.0584  -13.7929   26.2193 C   0  0  2  0  0  0  0  0  0  0  0  0
    7.5647  -14.9981   25.5565 N   0  0  0  0  0  0  0  0  0  0  0  0
    8.8529  -14.1371   27.4269 C   0  0  0  0  0  0  0  0  0  0  0  0
    8.8409  -15.2455   27.9732 O   0  0  0  0  0  0  0  0  0  0  0  0
    9.6575  -13.1486   27.9719 O   0  0  0  0  0  0  0  0  0  0  0  0
  2  1  1  6
  2  3  1  0
  4  5  2  0
  4  3  1  0
  6  5  1  0
  7  8  2  0
  7  6  1  0
  8  4  1  0
  9  2  1  0
  9 11  1  0
 10  9  2  0
 12 11  1  0
 12 13  1  1
 13 14  1  0
 14 15  1  0
 16 15  1  0
 16 17  1  0
 18 12  1  0
 19 18  2  0
 21 20  1  6
 21 23  1  0
 22 21  1  0
 23 25  1  0
 23 24  1  1
 24 18  1  0
 25 27  1  0
 26 25  2  0
M  END
$$$$
