HKV.pdb
     RDKit          3D

 27 27  0  0  1  0  0  0  0  0999 V2000
    7.6862  -16.8813   19.4860 N   0  0  0  0  0  0  0  0  0  0  0  0
    7.9746  -15.7551   20.3348 C   0  0  1  0  0  0  0  0  0  0  0  0
    7.0696  -14.5725   19.9999 C   0  0  0  0  0  0  0  0  0  0  0  0
    7.4849  -14.0192   18.6832 C   0  0  0  0  0  0  0  0  0  0  0  0
    8.2804  -12.9129   18.4982 C   0  0  0  0  0  0  0  0  0  0  0  0
    8.4603  -12.6878   17.1848 N   0  0  0  0  0  0  0  0  0  0  0  0
    7.7614  -13.6755   16.5577 C   0  0  0  0  0  0  0  0  0  0  0  0
    7.1807  -14.4677   17.4704 N   0  0  0  0  0  0  0  0  0  0  0  0
    7.7229  -16.0917   21.7525 C   0  0  0  0  0  0  0  0  0  0  0  0
    6.5486  -16.3075   22.1213 O   0  0  0  0  0  0  0  0  0  0  0  0
    8.8191  -16.1607   22.6558 N   0  0  0  0  0  0  0  0  0  0  0  0
    8.6419  -16.4798   24.0281 C   0  0  1  0  0  0  0  0  0  0  0  0
    9.4405  -17.6599   24.4664 C   0  0  0  0  0  0  0  0  0  0  0  0
    9.4538  -18.0269   25.8911 C   0  0  0  0  0  0  0  0  0  0  0  0
   10.2415  -19.2580   26.2240 C   0  0  0  0  0  0  0  0  0  0  0  0
   10.1605  -19.5562   27.7264 C   0  0  0  0  0  0  0  0  0  0  0  0
   10.9125  -20.7552   27.9649 N   0  0  0  0  0  0  0  0  0  0  0  0
    9.0363  -15.2799   24.8644 C   0  0  0  0  0  0  0  0  0  0  0  0
   10.2074  -14.8070   24.7914 O   0  0  0  0  0  0  0  0  0  0  0  0
    7.6619  -11.7317   25.2602 C   0  0  0  0  0  0  0  0  0  0  0  0
    7.5478  -12.4510   26.5879 C   0  0  1  0  0  0  0  0  0  0  0  0
    6.1410  -12.9498   26.8176 C   0  0  0  0  0  0  0  0  0  0  0  0
    8.5622  -13.5741   26.6104 C   0  0  2  0  0  0  0  0  0  0  0  0
    8.1235  -14.6612   25.7379 N   0  0  0  0  0  0  0  0  0  0  0  0
    8.6699  -14.0329   28.0195 C   0  0  0  0  0  0  0  0  0  0  0  0
    8.3014  -15.1431   28.4183 O   0  0  0  0  0  0  0  0  0  0  0  0
    9.2195  -13.1565   28.9421 O   0  0  0  0  0  0  0  0  0  0  0  0
  2  1  1  6
  2  3  1  0
  4  5  2  0
  4  3  1  0
  6  5  1  0
  7  8  2  0
  7  6  1  0
  8  4  1  0
  9  2  1  0
  9 11  1  0
 10  9  2  0
 12 11  1  0
 12 13  1  1
 13 14  1  0
 14 15  1  0
 16 15  1  0
 16 17  1  0
 18 12  1  0
 19 18  2  0
 21 20  1  6
 21 23  1  0
 22 21  1  0
 23 25  1  0
 23 24  1  6
 24 18  1  0
 25 27  1  0
 26 25  2  0
M  END
$$$$
