HKV.pdb
     RDKit          3D

 27 27  0  0  1  0  0  0  0  0999 V2000
    8.8992  -15.7048   19.9984 N   0  0  0  0  0  0  0  0  0  0  0  0
    8.0140  -14.6628   20.4486 C   0  0  1  0  0  0  0  0  0  0  0  0
    6.8649  -14.4591   19.4648 C   0  0  0  0  0  0  0  0  0  0  0  0
    7.4386  -14.1957   18.1180 C   0  0  0  0  0  0  0  0  0  0  0  0
    8.0669  -13.0350   17.7319 C   0  0  0  0  0  0  0  0  0  0  0  0
    8.4649  -13.1295   16.4509 N   0  0  0  0  0  0  0  0  0  0  0  0
    8.0718  -14.3709   16.0490 C   0  0  0  0  0  0  0  0  0  0  0  0
    7.4566  -14.9999   17.0608 N   0  0  0  0  0  0  0  0  0  0  0  0
    7.4013  -15.0220   21.7455 C   0  0  0  0  0  0  0  0  0  0  0  0
    6.4798  -14.3076   22.1950 O   0  0  0  0  0  0  0  0  0  0  0  0
    7.8746  -16.1663   22.4448 N   0  0  0  0  0  0  0  0  0  0  0  0
    7.5142  -16.4236   23.7940 C   0  0  1  0  0  0  0  0  0  0  0  0
    7.8435  -17.8081   24.2379 C   0  0  0  0  0  0  0  0  0  0  0  0
    7.6487  -18.1733   25.6497 C   0  0  0  0  0  0  0  0  0  0  0  0
    7.9814  -19.5944   25.9915 C   0  0  0  0  0  0  0  0  0  0  0  0
    7.7550  -19.8533   27.4862 C   0  0  0  0  0  0  0  0  0  0  0  0
    8.1431  -21.2100   27.7482 N   0  0  0  0  0  0  0  0  0  0  0  0
    8.2326  -15.4352   24.6894 C   0  0  0  0  0  0  0  0  0  0  0  0
    9.4906  -15.3145   24.6284 O   0  0  0  0  0  0  0  0  0  0  0  0
    7.3587  -11.6983   25.4487 C   0  0  0  0  0  0  0  0  0  0  0  0
    7.4422  -12.4774   26.7446 C   0  0  1  0  0  0  0  0  0  0  0  0
    6.0658  -12.7922   27.2801 C   0  0  0  0  0  0  0  0  0  0  0  0
    8.2581  -13.7280   26.4971 C   0  0  2  0  0  0  0  0  0  0  0  0
    7.5319  -14.6301   25.6058 N   0  0  0  0  0  0  0  0  0  0  0  0
    8.4924  -14.3618   27.8204 C   0  0  0  0  0  0  0  0  0  0  0  0
    8.0217  -15.4525   28.1610 O   0  0  0  0  0  0  0  0  0  0  0  0
    9.2904  -13.6825   28.7277 O   0  0  0  0  0  0  0  0  0  0  0  0
  2  1  1  6
  2  3  1  0
  4  5  2  0
  4  3  1  0
  6  5  1  0
  7  8  2  0
  7  6  1  0
  8  4  1  0
  9  2  1  0
  9 11  1  0
 10  9  2  0
 12 11  1  0
 12 13  1  1
 13 14  1  0
 14 15  1  0
 16 15  1  0
 16 17  1  0
 18 12  1  0
 19 18  2  0
 21 20  1  6
 21 23  1  0
 22 21  1  0
 23 25  1  0
 23 24  1  6
 24 18  1  0
 25 27  1  0
 26 25  2  0
M  END
$$$$
