HKV.pdb
     RDKit          3D

 27 27  0  0  1  0  0  0  0  0999 V2000
    8.7599  -16.0849   20.2661 N   0  0  0  0  0  0  0  0  0  0  0  0
    8.2453  -14.9701   21.0174 C   0  0  1  0  0  0  0  0  0  0  0  0
    6.9710  -14.4231   20.3797 C   0  0  0  0  0  0  0  0  0  0  0  0
    7.2399  -14.1581   18.9411 C   0  0  0  0  0  0  0  0  0  0  0  0
    7.8894  -13.0538   18.4414 C   0  0  0  0  0  0  0  0  0  0  0  0
    7.9632  -13.1287   17.1008 N   0  0  0  0  0  0  0  0  0  0  0  0
    7.3472  -14.3006   16.7776 C   0  0  0  0  0  0  0  0  0  0  0  0
    6.9178  -14.9082   17.8931 N   0  0  0  0  0  0  0  0  0  0  0  0
    7.8861  -15.3864   22.3900 C   0  0  0  0  0  0  0  0  0  0  0  0
    7.2151  -14.6070   23.0999 O   0  0  0  0  0  0  0  0  0  0  0  0
    8.3115  -16.6576   22.8647 N   0  0  0  0  0  0  0  0  0  0  0  0
    8.0420  -17.0928   24.1893 C   0  0  1  0  0  0  0  0  0  0  0  0
    8.2094  -18.5628   24.3718 C   0  0  0  0  0  0  0  0  0  0  0  0
    8.0781  -19.1369   25.7201 C   0  0  0  0  0  0  0  0  0  0  0  0
    8.2436  -20.6247   25.7974 C   0  0  0  0  0  0  0  0  0  0  0  0
    8.0338  -21.1133   27.2361 C   0  0  0  0  0  0  0  0  0  0  0  0
    8.1651  -22.5426   27.2251 N   0  0  0  0  0  0  0  0  0  0  0  0
    8.9722  -16.3690   25.1410 C   0  0  0  0  0  0  0  0  0  0  0  0
   10.2251  -16.4203   24.9729 O   0  0  0  0  0  0  0  0  0  0  0  0
    9.7610  -12.7849   28.3210 C   0  0  0  0  0  0  0  0  0  0  0  0
    8.8107  -13.5105   27.3916 C   0  0  1  0  0  0  0  0  0  0  0  0
    8.5500  -12.7040   26.1418 C   0  0  0  0  0  0  0  0  0  0  0  0
    9.3946  -14.8719   27.0809 C   0  0  2  0  0  0  0  0  0  0  0  0
    8.4779  -15.6259   26.2284 N   0  0  0  0  0  0  0  0  0  0  0  0
    9.6019  -15.5617   28.3805 C   0  0  0  0  0  0  0  0  0  0  0  0
   10.4704  -15.2485   29.2020 O   0  0  0  0  0  0  0  0  0  0  0  0
    8.7653  -16.6237   28.6868 O   0  0  0  0  0  0  0  0  0  0  0  0
  2  1  1  6
  2  3  1  0
  4  5  2  0
  4  3  1  0
  6  5  1  0
  7  8  2  0
  7  6  1  0
  8  4  1  0
  9  2  1  0
  9 11  1  0
 10  9  2  0
 12 11  1  0
 12 13  1  6
 13 14  1  0
 14 15  1  0
 16 15  1  0
 16 17  1  0
 18 12  1  0
 19 18  2  0
 21 20  1  1
 21 23  1  0
 22 21  1  0
 23 25  1  0
 23 24  1  6
 24 18  1  0
 25 27  1  0
 26 25  2  0
M  END
$$$$
