HKV.pdb
     RDKit          3D

 27 27  0  0  1  0  0  0  0  0999 V2000
   10.2230  -16.2507   18.9074 N   0  0  0  0  0  0  0  0  0  0  0  0
   10.7011  -15.8517   20.2052 C   0  0  1  0  0  0  0  0  0  0  0  0
   11.3094  -14.4526   20.1570 C   0  0  0  0  0  0  0  0  0  0  0  0
   12.6992  -14.5604   19.6384 C   0  0  0  0  0  0  0  0  0  0  0  0
   13.3483  -15.7341   19.3346 C   0  0  0  0  0  0  0  0  0  0  0  0
   14.5905  -15.4733   18.8906 N   0  0  0  0  0  0  0  0  0  0  0  0
   14.7004  -14.1153   18.9245 C   0  0  0  0  0  0  0  0  0  0  0  0
   13.5567  -13.5804   19.3758 N   0  0  0  0  0  0  0  0  0  0  0  0
    9.5883  -15.7955   21.1772 C   0  0  0  0  0  0  0  0  0  0  0  0
    8.5977  -15.0791   20.9184 O   0  0  0  0  0  0  0  0  0  0  0  0
    9.6737  -16.5550   22.3764 N   0  0  0  0  0  0  0  0  0  0  0  0
    8.5690  -16.6928   23.2579 C   0  0  1  0  0  0  0  0  0  0  0  0
    8.3847  -18.0849   23.7584 C   0  0  0  0  0  0  0  0  0  0  0  0
    7.0598  -18.7155   23.6511 C   0  0  0  0  0  0  0  0  0  0  0  0
    6.9719  -20.1091   24.1961 C   0  0  0  0  0  0  0  0  0  0  0  0
    5.5834  -20.7030   23.9279 C   0  0  0  0  0  0  0  0  0  0  0  0
    5.5424  -21.9933   24.5552 N   0  0  0  0  0  0  0  0  0  0  0  0
    8.7676  -15.7665   24.4400 C   0  0  0  0  0  0  0  0  0  0  0  0
    9.9010  -15.6711   24.9940 O   0  0  0  0  0  0  0  0  0  0  0  0
    6.8934  -12.5950   27.7226 C   0  0  0  0  0  0  0  0  0  0  0  0
    6.7317  -13.2773   26.3803 C   0  0  1  0  0  0  0  0  0  0  0  0
    6.6457  -12.2657   25.2624 C   0  0  0  0  0  0  0  0  0  0  0  0
    7.8853  -14.2389   26.1923 C   0  0  2  0  0  0  0  0  0  0  0  0
    7.7107  -14.9925   24.9526 N   0  0  0  0  0  0  0  0  0  0  0  0
    7.8907  -15.1451   27.3699 C   0  0  0  0  0  0  0  0  0  0  0  0
    7.2875  -16.2226   27.4196 O   0  0  0  0  0  0  0  0  0  0  0  0
    8.6201  -14.7527   28.4814 O   0  0  0  0  0  0  0  0  0  0  0  0
  2  1  1  6
  2  3  1  0
  4  5  2  0
  4  3  1  0
  6  5  1  0
  7  8  2  0
  7  6  1  0
  8  4  1  0
  9  2  1  0
  9 11  1  0
 10  9  2  0
 12 11  1  0
 12 13  1  1
 13 14  1  0
 14 15  1  0
 16 15  1  0
 16 17  1  0
 18 12  1  0
 19 18  2  0
 21 20  1  1
 21 23  1  0
 22 21  1  0
 23 25  1  0
 23 24  1  6
 24 18  1  0
 25 27  1  0
 26 25  2  0
M  END
$$$$
