HKV.pdb
     RDKit          3D

 27 27  0  0  1  0  0  0  0  0999 V2000
    9.8105  -16.9302   19.3274 N   0  0  0  0  0  0  0  0  0  0  0  0
   10.1919  -17.1183   20.7026 C   0  0  1  0  0  0  0  0  0  0  0  0
   11.5355  -16.4548   20.9926 C   0  0  0  0  0  0  0  0  0  0  0  0
   12.6141  -17.3046   20.4209 C   0  0  0  0  0  0  0  0  0  0  0  0
   13.0444  -18.5033   20.9396 C   0  0  0  0  0  0  0  0  0  0  0  0
   14.0317  -19.0078   20.1788 N   0  0  0  0  0  0  0  0  0  0  0  0
   14.2064  -18.0996   19.1779 C   0  0  0  0  0  0  0  0  0  0  0  0
   13.3480  -17.0818   19.3363 N   0  0  0  0  0  0  0  0  0  0  0  0
    9.2062  -16.4906   21.6086 C   0  0  0  0  0  0  0  0  0  0  0  0
    8.7429  -15.3689   21.3108 O   0  0  0  0  0  0  0  0  0  0  0  0
    8.8127  -17.1767   22.7904 N   0  0  0  0  0  0  0  0  0  0  0  0
    7.7751  -16.6915   23.6297 C   0  0  1  0  0  0  0  0  0  0  0  0
    6.9989  -17.7769   24.2942 C   0  0  0  0  0  0  0  0  0  0  0  0
    6.2968  -18.7676   23.4633 C   0  0  0  0  0  0  0  0  0  0  0  0
    5.5391  -19.8138   24.2236 C   0  0  0  0  0  0  0  0  0  0  0  0
    4.9049  -20.8236   23.2588 C   0  0  0  0  0  0  0  0  0  0  0  0
    4.2467  -21.8199   24.0553 N   0  0  0  0  0  0  0  0  0  0  0  0
    8.3825  -15.7987   24.6923 C   0  0  0  0  0  0  0  0  0  0  0  0
    9.5389  -16.0398   25.1452 O   0  0  0  0  0  0  0  0  0  0  0  0
    7.3536  -11.8221   25.1495 C   0  0  0  0  0  0  0  0  0  0  0  0
    7.4527  -12.6027   26.4433 C   0  0  1  0  0  0  0  0  0  0  0  0
    6.0834  -12.9689   26.9643 C   0  0  0  0  0  0  0  0  0  0  0  0
    8.3155  -13.8222   26.1994 C   0  0  2  0  0  0  0  0  0  0  0  0
    7.6879  -14.6868   25.2023 N   0  0  0  0  0  0  0  0  0  0  0  0
    8.4524  -14.5239   27.5019 C   0  0  0  0  0  0  0  0  0  0  0  0
    9.0593  -14.0667   28.4765 O   0  0  0  0  0  0  0  0  0  0  0  0
    7.8601  -15.7709   27.6272 O   0  0  0  0  0  0  0  0  0  0  0  0
  2  1  1  6
  2  3  1  0
  4  5  2  0
  4  3  1  0
  6  5  1  0
  7  8  2  0
  7  6  1  0
  8  4  1  0
  9  2  1  0
  9 11  1  0
 10  9  2  0
 12 11  1  0
 12 13  1  1
 13 14  1  0
 14 15  1  0
 16 15  1  0
 16 17  1  0
 18 12  1  0
 19 18  2  0
 21 20  1  6
 21 23  1  0
 22 21  1  0
 23 25  1  0
 23 24  1  6
 24 18  1  0
 25 27  1  0
 26 25  2  0
M  END
$$$$
