HKV.pdb
     RDKit          3D

 27 27  0  0  1  0  0  0  0  0999 V2000
    6.2946  -16.8076   19.8944 N   0  0  0  0  0  0  0  0  0  0  0  0
    7.0101  -15.8584   20.7062 C   0  0  1  0  0  0  0  0  0  0  0  0
    6.6562  -14.4267   20.3131 C   0  0  0  0  0  0  0  0  0  0  0  0
    7.5865  -13.9893   19.2382 C   0  0  0  0  0  0  0  0  0  0  0  0
    7.4989  -12.8081   18.5395 C   0  0  0  0  0  0  0  0  0  0  0  0
    8.4963  -12.7277   17.6413 N   0  0  0  0  0  0  0  0  0  0  0  0
    9.2049  -13.8816   17.7954 C   0  0  0  0  0  0  0  0  0  0  0  0
    8.6468  -14.6296   18.7581 N   0  0  0  0  0  0  0  0  0  0  0  0
    6.6436  -16.0084   22.1309 C   0  0  0  0  0  0  0  0  0  0  0  0
    5.4926  -15.6846   22.4942 O   0  0  0  0  0  0  0  0  0  0  0  0
    7.6062  -16.5151   23.0468 N   0  0  0  0  0  0  0  0  0  0  0  0
    7.3194  -16.6679   24.4291 C   0  0  1  0  0  0  0  0  0  0  0  0
    7.6419  -18.0266   24.9510 C   0  0  0  0  0  0  0  0  0  0  0  0
    6.8667  -19.1813   24.4709 C   0  0  0  0  0  0  0  0  0  0  0  0
    7.2351  -20.4965   25.0883 C   0  0  0  0  0  0  0  0  0  0  0  0
    6.3072  -21.6065   24.5789 C   0  0  0  0  0  0  0  0  0  0  0  0
    6.7440  -22.8361   25.1765 N   0  0  0  0  0  0  0  0  0  0  0  0
    8.1114  -15.6394   25.2099 C   0  0  0  0  0  0  0  0  0  0  0  0
    9.3485  -15.4862   24.9933 O   0  0  0  0  0  0  0  0  0  0  0  0
    7.3095  -11.8498   26.2297 C   0  0  0  0  0  0  0  0  0  0  0  0
    7.5025  -12.7405   27.4391 C   0  0  1  0  0  0  0  0  0  0  0  0
    6.1754  -13.1323   28.0438 C   0  0  0  0  0  0  0  0  0  0  0  0
    8.3161  -13.9455   27.0186 C   0  0  2  0  0  0  0  0  0  0  0  0
    7.5035  -14.8319   26.1883 N   0  0  0  0  0  0  0  0  0  0  0  0
    8.7499  -14.6315   28.2633 C   0  0  0  0  0  0  0  0  0  0  0  0
    8.3922  -15.7683   28.5903 O   0  0  0  0  0  0  0  0  0  0  0  0
    9.6108  -13.9489   29.1085 O   0  0  0  0  0  0  0  0  0  0  0  0
  2  1  1  6
  2  3  1  0
  4  5  2  0
  4  3  1  0
  6  5  1  0
  7  8  2  0
  7  6  1  0
  8  4  1  0
  9  2  1  0
  9 11  1  0
 10  9  2  0
 12 11  1  0
 12 13  1  1
 13 14  1  0
 14 15  1  0
 16 15  1  0
 16 17  1  0
 18 12  1  0
 19 18  2  0
 21 20  1  6
 21 23  1  0
 22 21  1  0
 23 25  1  0
 23 24  1  6
 24 18  1  0
 25 27  1  0
 26 25  2  0
M  END
$$$$
