HKV.pdb
     RDKit          3D

 27 27  0  0  1  0  0  0  0  0999 V2000
   14.1598  -18.6616   15.4380 N   0  0  0  0  0  0  0  0  0  0  0  0
   13.0453  -19.2020   16.1713 C   0  0  1  0  0  0  0  0  0  0  0  0
   13.4050  -20.5453   16.8006 C   0  0  0  0  0  0  0  0  0  0  0  0
   13.3816  -21.5852   15.7374 C   0  0  0  0  0  0  0  0  0  0  0  0
   12.3845  -21.7501   14.8049 C   0  0  0  0  0  0  0  0  0  0  0  0
   12.6771  -22.7815   13.9934 N   0  0  0  0  0  0  0  0  0  0  0  0
   13.8749  -23.2540   14.4397 C   0  0  0  0  0  0  0  0  0  0  0  0
   14.2860  -22.5257   15.4878 N   0  0  0  0  0  0  0  0  0  0  0  0
   12.6658  -18.3030   17.2822 C   0  0  0  0  0  0  0  0  0  0  0  0
   13.5666  -17.8198   18.0010 O   0  0  0  0  0  0  0  0  0  0  0  0
   11.2913  -18.0126   17.5030 N   0  0  0  0  0  0  0  0  0  0  0  0
   10.8720  -17.0418   18.4507 C   0  0  1  0  0  0  0  0  0  0  0  0
    9.6973  -16.2442   17.9966 C   0  0  0  0  0  0  0  0  0  0  0  0
    9.1302  -15.2278   18.8965 C   0  0  0  0  0  0  0  0  0  0  0  0
    7.9605  -14.4701   18.3445 C   0  0  0  0  0  0  0  0  0  0  0  0
    7.4606  -13.4389   19.3639 C   0  0  0  0  0  0  0  0  0  0  0  0
    6.3322  -12.7723   18.7787 N   0  0  0  0  0  0  0  0  0  0  0  0
   10.5203  -17.7430   19.7467 C   0  0  0  0  0  0  0  0  0  0  0  0
    9.9007  -18.8459   19.7290 O   0  0  0  0  0  0  0  0  0  0  0  0
   12.7628  -17.4460   23.1344 C   0  0  0  0  0  0  0  0  0  0  0  0
   11.2782  -17.3001   23.3953 C   0  0  1  0  0  0  0  0  0  0  0  0
   10.9055  -15.8550   23.6257 C   0  0  0  0  0  0  0  0  0  0  0  0
   10.5276  -17.9040   22.2279 C   0  0  2  0  0  0  0  0  0  0  0  0
   10.8675  -17.1963   20.9954 N   0  0  0  0  0  0  0  0  0  0  0  0
    9.0786  -17.7775   22.5321 C   0  0  0  0  0  0  0  0  0  0  0  0
    8.3252  -16.9587   21.9944 O   0  0  0  0  0  0  0  0  0  0  0  0
    8.5422  -18.6348   23.4801 O   0  0  0  0  0  0  0  0  0  0  0  0
  2  1  1  1
  2  3  1  0
  4  5  2  0
  4  3  1  0
  6  5  1  0
  7  8  2  0
  7  6  1  0
  8  4  1  0
  9  2  1  0
  9 11  1  0
 10  9  2  0
 12 11  1  0
 12 13  1  6
 13 14  1  0
 14 15  1  0
 16 15  1  0
 16 17  1  0
 18 12  1  0
 19 18  2  0
 21 20  1  6
 21 23  1  0
 22 21  1  0
 23 25  1  0
 23 24  1  6
 24 18  1  0
 25 27  1  0
 26 25  2  0
M  END
$$$$
