HKV.pdb
     RDKit          3D

 27 27  0  0  1  0  0  0  0  0999 V2000
    6.4860  -16.4522   19.5698 N   0  0  0  0  0  0  0  0  0  0  0  0
    7.3586  -15.7136   20.4443 C   0  0  1  0  0  0  0  0  0  0  0  0
    7.3069  -14.2200   20.1337 C   0  0  0  0  0  0  0  0  0  0  0  0
    7.9475  -13.9912   18.8110 C   0  0  0  0  0  0  0  0  0  0  0  0
    7.5267  -13.0837   17.8674 C   0  0  0  0  0  0  0  0  0  0  0  0
    8.3281  -13.1337   16.7888 N   0  0  0  0  0  0  0  0  0  0  0  0
    9.2547  -14.0896   17.0807 C   0  0  0  0  0  0  0  0  0  0  0  0
    9.0135  -14.5959   18.2985 N   0  0  0  0  0  0  0  0  0  0  0  0
    6.9378  -15.8670   21.8535 C   0  0  0  0  0  0  0  0  0  0  0  0
    5.8220  -15.4243   22.2008 O   0  0  0  0  0  0  0  0  0  0  0  0
    7.8100  -16.5115   22.7733 N   0  0  0  0  0  0  0  0  0  0  0  0
    7.4843  -16.6451   24.1490 C   0  0  1  0  0  0  0  0  0  0  0  0
    7.8887  -17.9592   24.7251 C   0  0  0  0  0  0  0  0  0  0  0  0
    7.6976  -18.2000   26.1639 C   0  0  0  0  0  0  0  0  0  0  0  0
    8.1109  -19.5592   26.6423 C   0  0  0  0  0  0  0  0  0  0  0  0
    7.7867  -19.7244   28.1324 C   0  0  0  0  0  0  0  0  0  0  0  0
    8.1949  -21.0464   28.5142 N   0  0  0  0  0  0  0  0  0  0  0  0
    8.1671  -15.5365   24.9235 C   0  0  0  0  0  0  0  0  0  0  0  0
    9.4181  -15.3704   24.8332 O   0  0  0  0  0  0  0  0  0  0  0  0
    7.3262  -11.7156   25.4163 C   0  0  0  0  0  0  0  0  0  0  0  0
    7.3156  -12.4429   26.7446 C   0  0  1  0  0  0  0  0  0  0  0  0
    5.9037  -12.7332   27.1949 C   0  0  0  0  0  0  0  0  0  0  0  0
    8.1405  -13.7041   26.6040 C   0  0  2  0  0  0  0  0  0  0  0  0
    7.4402  -14.6673   25.7571 N   0  0  0  0  0  0  0  0  0  0  0  0
    8.3410  -14.2459   27.9730 C   0  0  0  0  0  0  0  0  0  0  0  0
    8.9743  -13.6675   28.8627 O   0  0  0  0  0  0  0  0  0  0  0  0
    7.7800  -15.4791   28.2662 O   0  0  0  0  0  0  0  0  0  0  0  0
  2  1  1  6
  2  3  1  0
  4  5  2  0
  4  3  1  0
  6  5  1  0
  7  8  2  0
  7  6  1  0
  8  4  1  0
  9  2  1  0
  9 11  1  0
 10  9  2  0
 12 11  1  0
 12 13  1  1
 13 14  1  0
 14 15  1  0
 16 15  1  0
 16 17  1  0
 18 12  1  0
 19 18  2  0
 21 20  1  6
 21 23  1  0
 22 21  1  0
 23 25  1  0
 23 24  1  6
 24 18  1  0
 25 27  1  0
 26 25  2  0
M  END
$$$$
