HKV.pdb
     RDKit          3D

 27 27  0  0  1  0  0  0  0  0999 V2000
   11.1785  -16.3090   19.9331 N   0  0  0  0  0  0  0  0  0  0  0  0
    9.9506  -16.4414   20.6724 C   0  0  1  0  0  0  0  0  0  0  0  0
    9.6655  -17.9045   21.0007 C   0  0  0  0  0  0  0  0  0  0  0  0
    9.0016  -18.5304   19.8260 C   0  0  0  0  0  0  0  0  0  0  0  0
    8.7113  -17.8949   18.6416 C   0  0  0  0  0  0  0  0  0  0  0  0
    8.1117  -18.7493   17.7939 N   0  0  0  0  0  0  0  0  0  0  0  0
    8.0351  -19.9275   18.4745 C   0  0  0  0  0  0  0  0  0  0  0  0
    8.5735  -19.7810   19.6937 N   0  0  0  0  0  0  0  0  0  0  0  0
   10.0394  -15.7279   21.9645 C   0  0  0  0  0  0  0  0  0  0  0  0
   11.1682  -15.4880   22.4440 O   0  0  0  0  0  0  0  0  0  0  0  0
    8.8431  -15.3350   22.6253 N   0  0  0  0  0  0  0  0  0  0  0  0
    8.8630  -14.5749   23.8247 C   0  0  1  0  0  0  0  0  0  0  0  0
    7.5426  -13.9702   24.1608 C   0  0  0  0  0  0  0  0  0  0  0  0
    7.4161  -13.1585   25.3814 C   0  0  0  0  0  0  0  0  0  0  0  0
    6.0564  -12.5742   25.6194 C   0  0  0  0  0  0  0  0  0  0  0  0
    6.0571  -11.7147   26.8897 C   0  0  0  0  0  0  0  0  0  0  0  0
    4.7173  -11.2380   27.0836 N   0  0  0  0  0  0  0  0  0  0  0  0
    9.2988  -15.4718   24.9652 C   0  0  0  0  0  0  0  0  0  0  0  0
    9.1115  -16.7214   24.9031 O   0  0  0  0  0  0  0  0  0  0  0  0
   11.8879  -14.1120   27.9609 C   0  0  0  0  0  0  0  0  0  0  0  0
   10.7621  -15.0248   28.4000 C   0  0  1  0  0  0  0  0  0  0  0  0
    9.6275  -14.2357   29.0087 C   0  0  0  0  0  0  0  0  0  0  0  0
   10.3146  -15.8386   27.2049 C   0  0  2  0  0  0  0  0  0  0  0  0
    9.9181  -14.9493   26.1151 N   0  0  0  0  0  0  0  0  0  0  0  0
    9.1706  -16.6741   27.6531 C   0  0  0  0  0  0  0  0  0  0  0  0
    8.0010  -16.5004   27.2936 O   0  0  0  0  0  0  0  0  0  0  0  0
    9.4370  -17.7136   28.5306 O   0  0  0  0  0  0  0  0  0  0  0  0
  2  1  1  1
  2  3  1  0
  4  5  2  0
  4  3  1  0
  6  5  1  0
  7  8  2  0
  7  6  1  0
  8  4  1  0
  9  2  1  0
  9 11  1  0
 10  9  2  0
 12 11  1  0
 12 13  1  1
 13 14  1  0
 14 15  1  0
 16 15  1  0
 16 17  1  0
 18 12  1  0
 19 18  2  0
 21 20  1  6
 21 23  1  0
 22 21  1  0
 23 25  1  0
 23 24  1  6
 24 18  1  0
 25 27  1  0
 26 25  2  0
M  END
$$$$
