DMN.pdb
     RDKit          3D

 25 24  0  0  1  0  0  0  0  0999 V2000
   19.3997  -11.9586  -18.0589 N   0  0  0  0  0  0  0  0  0  0  0  0
   19.0044  -11.5100  -16.7417 C   0  0  1  0  0  0  0  0  0  0  0  0
   18.6530  -12.7003  -15.8678 C   0  0  0  0  0  0  0  0  0  0  0  0
   17.4166  -13.3114  -16.3939 C   0  0  0  0  0  0  0  0  0  0  0  0
   16.9267  -12.8805  -17.4624 O   0  0  0  0  0  0  0  0  0  0  0  0
   20.1272  -10.7450  -16.1506 C   0  0  0  0  0  0  0  0  0  0  0  0
   20.0468  -10.3628  -14.9682 O   0  0  0  0  0  0  0  0  0  0  0  0
   16.7597  -14.3545  -15.7555 O   0  0  0  0  0  0  0  0  0  0  0  0
   27.2666   -9.8977  -14.8925 C   0  0  0  0  0  0  0  0  0  0  0  0
   25.6090  -10.5303  -15.2700 S   0  0  0  0  0  0  0  0  0  0  0  0
   24.9827   -9.7005  -16.7292 C   0  0  0  0  0  0  0  0  0  0  0  0
   23.6271  -10.0683  -17.1577 C   0  0  0  0  0  0  0  0  0  0  0  0
   22.4492   -9.7272  -16.3133 C   0  0  2  0  0  0  0  0  0  0  0  0
   21.2704  -10.4519  -16.9107 N   0  0  0  0  0  0  0  0  0  0  0  0
   22.1106   -8.3171  -16.3354 C   0  0  0  0  0  0  0  0  0  0  0  0
   21.7562   -7.7998  -17.4439 O   0  0  0  0  0  0  0  0  0  0  0  0
   18.3032   -6.9352  -14.6963 N   0  0  0  0  0  0  0  0  0  0  0  0
   19.3538   -6.1926  -15.3017 C   0  0  0  0  0  0  0  0  0  0  0  0
   19.1922   -5.8790  -16.5089 O   0  0  0  0  0  0  0  0  0  0  0  0
   20.5508   -5.8293  -14.5226 C   0  0  0  0  0  0  0  0  0  0  0  0
   21.8532   -6.0180  -15.3491 C   0  0  2  0  0  0  0  0  0  0  0  0
   22.1215   -7.4415  -15.2292 N   0  0  0  0  0  0  0  0  0  0  0  0
   22.8931   -5.1307  -14.8846 C   0  0  0  0  0  0  0  0  0  0  0  0
   23.8186   -5.4500  -14.1092 O   0  0  0  0  0  0  0  0  0  0  0  0
   22.8931   -3.8115  -15.3165 O   0  0  0  0  0  0  0  0  0  0  0  0
  2  1  1  6
  2  6  1  0
  2  3  1  0
  3  4  1  0
  4  5  2  0
  4  8  1  0
  6  7  2  0
  9 10  1  0
 10 11  1  0
 11 12  1  0
 13 12  1  6
 13 14  1  0
 14  6  1  0
 15 13  1  0
 16 15  2  0
 17 18  1  0
 18 20  1  0
 19 18  2  0
 21 20  1  1
 21 22  1  0
 21 23  1  0
 22 15  1  0
 23 25  1  0
 24 23  2  0
M  END
$$$$
