DMN.pdb
     RDKit          3D

 25 24  0  0  1  0  0  0  0  0999 V2000
   20.8170  -13.5570  -17.6308 N   0  0  0  0  0  0  0  0  0  0  0  0
   21.4564  -12.4858  -18.3630 C   0  0  1  0  0  0  0  0  0  0  0  0
   20.4171  -11.6717  -19.1120 C   0  0  0  0  0  0  0  0  0  0  0  0
   19.9287  -12.4778  -20.2479 C   0  0  0  0  0  0  0  0  0  0  0  0
   20.6779  -13.3461  -20.7501 O   0  0  0  0  0  0  0  0  0  0  0  0
   22.1895  -11.6319  -17.3993 C   0  0  0  0  0  0  0  0  0  0  0  0
   21.6230  -11.2752  -16.3493 O   0  0  0  0  0  0  0  0  0  0  0  0
   18.6630  -12.3203  -20.7959 O   0  0  0  0  0  0  0  0  0  0  0  0
   28.1528  -12.6632  -15.5333 C   0  0  0  0  0  0  0  0  0  0  0  0
   27.6246  -11.1204  -14.7389 S   0  0  0  0  0  0  0  0  0  0  0  0
   26.7015  -10.1386  -15.9198 C   0  0  0  0  0  0  0  0  0  0  0  0
   25.6677  -10.8439  -16.6882 C   0  0  0  0  0  0  0  0  0  0  0  0
   24.2659  -10.3426  -16.7061 C   0  0  2  0  0  0  0  0  0  0  0  0
   23.5076  -11.2269  -17.6625 N   0  0  0  0  0  0  0  0  0  0  0  0
   24.1414   -8.9918  -17.2193 C   0  0  0  0  0  0  0  0  0  0  0  0
   24.4586   -8.7768  -18.4338 O   0  0  0  0  0  0  0  0  0  0  0  0
   22.9393   -6.0622  -14.4233 N   0  0  0  0  0  0  0  0  0  0  0  0
   21.9347   -5.8333  -15.4033 C   0  0  0  0  0  0  0  0  0  0  0  0
   20.8137   -5.4556  -14.9760 O   0  0  0  0  0  0  0  0  0  0  0  0
   22.2310   -6.0386  -16.8322 C   0  0  0  0  0  0  0  0  0  0  0  0
   23.6910   -6.5231  -17.0523 C   0  0  2  0  0  0  0  0  0  0  0  0
   23.6835   -7.8676  -16.5001 N   0  0  0  0  0  0  0  0  0  0  0  0
   24.6354   -5.5989  -16.4705 C   0  0  0  0  0  0  0  0  0  0  0  0
   25.3639   -5.8393  -15.4850 O   0  0  0  0  0  0  0  0  0  0  0  0
   24.7688   -4.3347  -17.0280 O   0  0  0  0  0  0  0  0  0  0  0  0
  2  1  1  1
  2  6  1  0
  2  3  1  0
  3  4  1  0
  4  5  2  0
  4  8  1  0
  6  7  2  0
  9 10  1  0
 10 11  1  0
 11 12  1  0
 13 12  1  6
 13 14  1  0
 14  6  1  0
 15 13  1  0
 16 15  2  0
 17 18  1  0
 18 20  1  0
 19 18  2  0
 21 20  1  1
 21 22  1  0
 21 23  1  0
 22 15  1  0
 23 25  1  0
 24 23  2  0
M  END
$$$$
