DMN.pdb
     RDKit          3D

 25 24  0  0  1  0  0  0  0  0999 V2000
   19.2776  -13.6577  -16.5501 N   0  0  0  0  0  0  0  0  0  0  0  0
   19.3461  -12.3597  -17.1849 C   0  0  1  0  0  0  0  0  0  0  0  0
   17.9993  -11.6648  -17.1003 C   0  0  0  0  0  0  0  0  0  0  0  0
   17.0048  -12.4958  -17.8069 C   0  0  0  0  0  0  0  0  0  0  0  0
   17.3120  -13.0221  -18.9005 O   0  0  0  0  0  0  0  0  0  0  0  0
   20.3881  -11.5582  -16.5015 C   0  0  0  0  0  0  0  0  0  0  0  0
   20.3514  -11.4429  -15.2622 O   0  0  0  0  0  0  0  0  0  0  0  0
   15.7279  -12.7271  -17.3138 O   0  0  0  0  0  0  0  0  0  0  0  0
   27.2984  -10.0566  -14.9385 C   0  0  0  0  0  0  0  0  0  0  0  0
   25.7007  -10.8053  -15.3593 S   0  0  0  0  0  0  0  0  0  0  0  0
   25.0840  -10.0623  -16.8686 C   0  0  0  0  0  0  0  0  0  0  0  0
   23.7703  -10.5248  -17.3342 C   0  0  0  0  0  0  0  0  0  0  0  0
   22.5395  -10.2082  -16.5584 C   0  0  2  0  0  0  0  0  0  0  0  0
   21.4069  -10.9338  -17.2384 N   0  0  0  0  0  0  0  0  0  0  0  0
   22.1886   -8.8010  -16.5795 C   0  0  0  0  0  0  0  0  0  0  0  0
   21.9708   -8.2510  -17.7073 O   0  0  0  0  0  0  0  0  0  0  0  0
   18.5842   -4.7332  -15.1213 N   0  0  0  0  0  0  0  0  0  0  0  0
   19.6799   -5.1616  -15.9199 C   0  0  0  0  0  0  0  0  0  0  0  0
   20.1557   -4.3125  -16.7166 O   0  0  0  0  0  0  0  0  0  0  0  0
   20.2009   -6.5341  -15.7910 C   0  0  0  0  0  0  0  0  0  0  0  0
   21.7377   -6.5460  -15.5615 C   0  0  2  0  0  0  0  0  0  0  0  0
   22.0484   -7.9617  -15.4540 N   0  0  0  0  0  0  0  0  0  0  0  0
   22.0975   -5.7253  -14.4294 C   0  0  0  0  0  0  0  0  0  0  0  0
   22.0304   -4.4787  -14.3938 O   0  0  0  0  0  0  0  0  0  0  0  0
   22.5571   -6.3402  -13.2729 O   0  0  0  0  0  0  0  0  0  0  0  0
  2  1  1  1
  2  6  1  0
  2  3  1  0
  3  4  1  0
  4  5  2  0
  4  8  1  0
  6  7  2  0
  9 10  1  0
 10 11  1  0
 11 12  1  0
 13 12  1  6
 13 14  1  0
 14  6  1  0
 15 13  1  0
 16 15  2  0
 17 18  1  0
 18 20  1  0
 19 18  2  0
 21 20  1  1
 21 22  1  0
 21 23  1  0
 22 15  1  0
 23 25  1  0
 24 23  2  0
M  END
$$$$
