DMN.pdb
     RDKit          3D

 25 24  0  0  1  0  0  0  0  0999 V2000
   22.1552   -5.7622  -16.6867 N   0  0  0  0  0  0  0  0  0  0  0  0
   22.4838   -7.0010  -16.0162 C   0  0  1  0  0  0  0  0  0  0  0  0
   21.2232   -7.8061  -15.7582 C   0  0  0  0  0  0  0  0  0  0  0  0
   20.3990   -7.0732  -14.7772 C   0  0  0  0  0  0  0  0  0  0  0  0
   19.1710   -6.9438  -14.9836 O   0  0  0  0  0  0  0  0  0  0  0  0
   23.4209   -7.7638  -16.8738 C   0  0  0  0  0  0  0  0  0  0  0  0
   23.4364   -7.5474  -18.1000 O   0  0  0  0  0  0  0  0  0  0  0  0
   20.9233   -6.5119  -13.6209 O   0  0  0  0  0  0  0  0  0  0  0  0
   30.1857  -10.6181  -16.0037 C   0  0  0  0  0  0  0  0  0  0  0  0
   28.6132  -11.3813  -15.5188 S   0  0  0  0  0  0  0  0  0  0  0  0
   27.3485  -10.9215  -16.7019 C   0  0  0  0  0  0  0  0  0  0  0  0
   26.3232   -9.9824  -16.2292 C   0  0  0  0  0  0  0  0  0  0  0  0
   25.2794   -9.4721  -17.1602 C   0  0  2  0  0  0  0  0  0  0  0  0
   24.2831   -8.7204  -16.3151 N   0  0  0  0  0  0  0  0  0  0  0  0
   24.5338  -10.5234  -17.8253 C   0  0  0  0  0  0  0  0  0  0  0  0
   23.7056  -11.2030  -17.1368 O   0  0  0  0  0  0  0  0  0  0  0  0
   22.9803   -9.4972  -22.4988 N   0  0  0  0  0  0  0  0  0  0  0  0
   22.8041  -10.4165  -21.4283 C   0  0  0  0  0  0  0  0  0  0  0  0
   21.8338  -10.1977  -20.6585 O   0  0  0  0  0  0  0  0  0  0  0  0
   23.7297  -11.5514  -21.2643 C   0  0  0  0  0  0  0  0  0  0  0  0
   23.8693  -11.9680  -19.7737 C   0  0  2  0  0  0  0  0  0  0  0  0
   24.6236  -10.8715  -19.1897 N   0  0  0  0  0  0  0  0  0  0  0  0
   24.4575  -13.2814  -19.6572 C   0  0  0  0  0  0  0  0  0  0  0  0
   25.6598  -13.5521  -19.8594 O   0  0  0  0  0  0  0  0  0  0  0  0
   23.6495  -14.3495  -19.2922 O   0  0  0  0  0  0  0  0  0  0  0  0
  2  1  1  6
  2  6  1  0
  2  3  1  0
  3  4  1  0
  4  5  2  0
  4  8  1  0
  6  7  2  0
  9 10  1  0
 10 11  1  0
 11 12  1  0
 13 12  1  1
 13 14  1  0
 14  6  1  0
 15 13  1  0
 16 15  2  0
 17 18  1  0
 18 20  1  0
 19 18  2  0
 21 20  1  6
 21 22  1  0
 21 23  1  0
 22 15  1  0
 23 25  1  0
 24 23  2  0
M  END
$$$$
