DMN.pdb
     RDKit          3D

 25 24  0  0  1  0  0  0  0  0999 V2000
   24.3385  -14.5570  -17.8997 N   0  0  0  0  0  0  0  0  0  0  0  0
   24.9626  -13.6779  -18.8641 C   0  0  1  0  0  0  0  0  0  0  0  0
   23.9185  -12.7855  -19.5102 C   0  0  0  0  0  0  0  0  0  0  0  0
   22.9500  -13.6449  -20.2188 C   0  0  0  0  0  0  0  0  0  0  0  0
   23.3360  -14.7328  -20.7034 O   0  0  0  0  0  0  0  0  0  0  0  0
   25.9819  -12.8620  -18.1637 C   0  0  0  0  0  0  0  0  0  0  0  0
   25.7132  -12.3802  -17.0474 O   0  0  0  0  0  0  0  0  0  0  0  0
   21.6138  -13.3037  -20.3779 O   0  0  0  0  0  0  0  0  0  0  0  0
   33.7513  -12.2707  -17.3134 C   0  0  0  0  0  0  0  0  0  0  0  0
   32.2842  -13.1403  -17.9312 S   0  0  0  0  0  0  0  0  0  0  0  0
   30.8459  -12.0951  -17.7096 C   0  0  0  0  0  0  0  0  0  0  0  0
   29.5582  -12.6583  -18.1350 C   0  0  0  0  0  0  0  0  0  0  0  0
   28.3099  -11.8537  -18.0296 C   0  0  2  0  0  0  0  0  0  0  0  0
   27.2374  -12.6318  -18.7479 N   0  0  0  0  0  0  0  0  0  0  0  0
   28.3923  -10.5684  -18.6965 C   0  0  0  0  0  0  0  0  0  0  0  0
   27.7333  -10.4052  -19.7740 O   0  0  0  0  0  0  0  0  0  0  0  0
   28.6934   -5.6928  -20.0876 N   0  0  0  0  0  0  0  0  0  0  0  0
   27.5475   -6.4256  -19.6729 C   0  0  0  0  0  0  0  0  0  0  0  0
   26.4310   -5.8968  -19.9089 O   0  0  0  0  0  0  0  0  0  0  0  0
   27.7021   -7.7307  -19.0061 C   0  0  0  0  0  0  0  0  0  0  0  0
   29.1834   -8.2004  -18.9993 C   0  0  2  0  0  0  0  0  0  0  0  0
   29.1339   -9.4504  -18.2595 N   0  0  0  0  0  0  0  0  0  0  0  0
   30.0481   -7.1753  -18.4644 C   0  0  0  0  0  0  0  0  0  0  0  0
   30.3234   -7.0246  -17.2556 O   0  0  0  0  0  0  0  0  0  0  0  0
   30.6366   -6.2701  -19.3369 O   0  0  0  0  0  0  0  0  0  0  0  0
  2  1  1  1
  2  6  1  0
  2  3  1  0
  3  4  1  0
  4  5  2  0
  4  8  1  0
  6  7  2  0
  9 10  1  0
 10 11  1  0
 11 12  1  0
 13 12  1  6
 13 14  1  0
 14  6  1  0
 15 13  1  0
 16 15  2  0
 17 18  1  0
 18 20  1  0
 19 18  2  0
 21 20  1  1
 21 22  1  0
 21 23  1  0
 22 15  1  0
 23 25  1  0
 24 23  2  0
M  END
$$$$
