DMN.pdb
     RDKit          3D

 25 24  0  0  1  0  0  0  0  0999 V2000
   28.3876  -21.4142  -16.0893 N   0  0  0  0  0  0  0  0  0  0  0  0
   27.8025  -20.3880  -15.2545 C   0  0  1  0  0  0  0  0  0  0  0  0
   27.0798  -19.3655  -16.1125 C   0  0  0  0  0  0  0  0  0  0  0  0
   28.0388  -18.3021  -16.4712 C   0  0  0  0  0  0  0  0  0  0  0  0
   29.1885  -18.3215  -15.9762 O   0  0  0  0  0  0  0  0  0  0  0  0
   26.8602  -21.0327  -14.3102 C   0  0  0  0  0  0  0  0  0  0  0  0
   26.2747  -22.0769  -14.6531 O   0  0  0  0  0  0  0  0  0  0  0  0
   27.7266  -17.2669  -17.3417 O   0  0  0  0  0  0  0  0  0  0  0  0
   26.5572  -19.3478   -7.7751 C   0  0  0  0  0  0  0  0  0  0  0  0
   26.2265  -21.1220   -7.9565 S   0  0  0  0  0  0  0  0  0  0  0  0
   25.4631  -21.4165   -9.5506 C   0  0  0  0  0  0  0  0  0  0  0  0
   26.2105  -20.9546  -10.7273 C   0  0  0  0  0  0  0  0  0  0  0  0
   25.6250  -21.0784  -12.0906 C   0  0  2  0  0  0  0  0  0  0  0  0
   26.6267  -20.4766  -13.0425 N   0  0  0  0  0  0  0  0  0  0  0  0
   24.3986  -20.3239  -12.2640 C   0  0  0  0  0  0  0  0  0  0  0  0
   24.4723  -19.1665  -12.7901 O   0  0  0  0  0  0  0  0  0  0  0  0
   19.9312  -20.3455  -14.6363 N   0  0  0  0  0  0  0  0  0  0  0  0
   21.2002  -20.8068  -15.0821 C   0  0  0  0  0  0  0  0  0  0  0  0
   21.2959  -21.0822  -16.3056 O   0  0  0  0  0  0  0  0  0  0  0  0
   22.3176  -20.9410  -14.1308 C   0  0  0  0  0  0  0  0  0  0  0  0
   21.9267  -20.4430  -12.7116 C   0  0  2  0  0  0  0  0  0  0  0  0
   23.1011  -20.7533  -11.9135 N   0  0  0  0  0  0  0  0  0  0  0  0
   20.6847  -21.0387  -12.2789 C   0  0  0  0  0  0  0  0  0  0  0  0
   19.6760  -20.4061  -11.9018 O   0  0  0  0  0  0  0  0  0  0  0  0
   20.5700  -22.4220  -12.2705 O   0  0  0  0  0  0  0  0  0  0  0  0
  2  1  1  6
  2  6  1  0
  2  3  1  0
  3  4  1  0
  4  5  2  0
  4  8  1  0
  6  7  2  0
  9 10  1  0
 10 11  1  0
 11 12  1  0
 13 12  1  1
 13 14  1  0
 14  6  1  0
 15 13  1  0
 16 15  2  0
 17 18  1  0
 18 20  1  0
 19 18  2  0
 21 20  1  6
 21 22  1  0
 21 23  1  0
 22 15  1  0
 23 25  1  0
 24 23  2  0
M  END
$$$$
