DMN.pdb
     RDKit          3D

 25 24  0  0  1  0  0  0  0  0999 V2000
   20.5593  -21.2559  -11.3654 N   0  0  0  0  0  0  0  0  0  0  0  0
   21.0104  -20.9094  -12.6954 C   0  0  1  0  0  0  0  0  0  0  0  0
   20.0871  -19.8711  -13.3064 C   0  0  0  0  0  0  0  0  0  0  0  0
   18.7958  -20.5201  -13.6070 C   0  0  0  0  0  0  0  0  0  0  0  0
   18.6819  -21.7576  -13.4549 O   0  0  0  0  0  0  0  0  0  0  0  0
   22.3923  -20.3835  -12.5994 C   0  0  0  0  0  0  0  0  0  0  0  0
   22.6684  -19.5581  -11.7088 O   0  0  0  0  0  0  0  0  0  0  0  0
   17.6853  -19.8186  -14.0560 O   0  0  0  0  0  0  0  0  0  0  0  0
   29.4519  -20.8931  -11.4036 C   0  0  0  0  0  0  0  0  0  0  0  0
   27.6401  -20.9685  -11.3583 S   0  0  0  0  0  0  0  0  0  0  0  0
   27.0418  -21.6382  -12.9088 C   0  0  0  0  0  0  0  0  0  0  0  0
   25.5845  -21.6691  -13.0872 C   0  0  0  0  0  0  0  0  0  0  0  0
   24.8260  -20.4106  -13.3277 C   0  0  2  0  0  0  0  0  0  0  0  0
   23.3823  -20.8076  -13.4998 N   0  0  0  0  0  0  0  0  0  0  0  0
   25.2069  -19.7306  -14.5508 C   0  0  0  0  0  0  0  0  0  0  0  0
   24.8602  -20.2485  -15.6614 O   0  0  0  0  0  0  0  0  0  0  0  0
   24.2143  -16.2121  -16.3926 N   0  0  0  0  0  0  0  0  0  0  0  0
   25.3458  -15.6477  -15.7423 C   0  0  0  0  0  0  0  0  0  0  0  0
   25.2283  -14.4590  -15.3485 O   0  0  0  0  0  0  0  0  0  0  0  0
   26.5713  -16.4455  -15.5588 C   0  0  0  0  0  0  0  0  0  0  0  0
   26.3400  -17.9420  -15.9080 C   0  0  2  0  0  0  0  0  0  0  0  0
   25.9277  -18.5209  -14.6402 N   0  0  0  0  0  0  0  0  0  0  0  0
   27.5140  -18.5169  -16.5210 C   0  0  0  0  0  0  0  0  0  0  0  0
   28.4459  -19.0769  -15.9064 O   0  0  0  0  0  0  0  0  0  0  0  0
   27.6474  -18.4600  -17.9015 O   0  0  0  0  0  0  0  0  0  0  0  0
  2  1  1  1
  2  6  1  0
  2  3  1  0
  3  4  1  0
  4  5  2  0
  4  8  1  0
  6  7  2  0
  9 10  1  0
 10 11  1  0
 11 12  1  0
 13 12  1  6
 13 14  1  0
 14  6  1  0
 15 13  1  0
 16 15  2  0
 17 18  1  0
 18 20  1  0
 19 18  2  0
 21 20  1  1
 21 22  1  0
 21 23  1  0
 22 15  1  0
 23 25  1  0
 24 23  2  0
M  END
$$$$
