DMN.pdb
     RDKit          3D

 25 24  0  0  1  0  0  0  0  0999 V2000
   25.5461  -12.5812  -21.9546 N   0  0  0  0  0  0  0  0  0  0  0  0
   24.7629  -12.8303  -20.7643 C   0  0  1  0  0  0  0  0  0  0  0  0
   24.8848  -14.2865  -20.3537 C   0  0  0  0  0  0  0  0  0  0  0  0
   24.2702  -15.1172  -21.4077 C   0  0  0  0  0  0  0  0  0  0  0  0
   23.2711  -14.6837  -22.0250 O   0  0  0  0  0  0  0  0  0  0  0  0
   25.2558  -11.9432  -19.6847 C   0  0  0  0  0  0  0  0  0  0  0  0
   24.7500  -12.0273  -18.5500 O   0  0  0  0  0  0  0  0  0  0  0  0
   24.7503  -16.3728  -21.7546 O   0  0  0  0  0  0  0  0  0  0  0  0
   31.3588   -7.2655  -17.7414 C   0  0  0  0  0  0  0  0  0  0  0  0
   30.5775   -8.3792  -18.9413 S   0  0  0  0  0  0  0  0  0  0  0  0
   28.9067   -8.7408  -18.4046 C   0  0  0  0  0  0  0  0  0  0  0  0
   28.1767   -9.7519  -19.1800 C   0  0  0  0  0  0  0  0  0  0  0  0
   26.7538  -10.0605  -18.8688 C   0  0  2  0  0  0  0  0  0  0  0  0
   26.2808  -11.0168  -19.9334 N   0  0  0  0  0  0  0  0  0  0  0  0
   25.8810   -8.9048  -18.9468 C   0  0  0  0  0  0  0  0  0  0  0  0
   25.5260   -8.4943  -20.0989 O   0  0  0  0  0  0  0  0  0  0  0  0
   20.7914   -7.1646  -19.0487 N   0  0  0  0  0  0  0  0  0  0  0  0
   22.1421   -6.7314  -18.9494 C   0  0  0  0  0  0  0  0  0  0  0  0
   22.3417   -5.4948  -19.0631 O   0  0  0  0  0  0  0  0  0  0  0  0
   23.2210   -7.7099  -18.7249 C   0  0  0  0  0  0  0  0  0  0  0  0
   24.4428   -7.0647  -18.0138 C   0  0  2  0  0  0  0  0  0  0  0  0
   25.3626   -8.1786  -17.8538 N   0  0  0  0  0  0  0  0  0  0  0  0
   24.0391   -6.3906  -16.8026 C   0  0  0  0  0  0  0  0  0  0  0  0
   24.2878   -6.7830  -15.6433 O   0  0  0  0  0  0  0  0  0  0  0  0
   23.3164   -5.2094  -16.8999 O   0  0  0  0  0  0  0  0  0  0  0  0
  2  1  1  6
  2  6  1  0
  2  3  1  0
  3  4  1  0
  4  5  2  0
  4  8  1  0
  6  7  2  0
  9 10  1  0
 10 11  1  0
 11 12  1  0
 13 12  1  6
 13 14  1  0
 14  6  1  0
 15 13  1  0
 16 15  2  0
 17 18  1  0
 18 20  1  0
 19 18  2  0
 21 20  1  1
 21 22  1  0
 21 23  1  0
 22 15  1  0
 23 25  1  0
 24 23  2  0
M  END
$$$$
