DMN.pdb
     RDKit          3D

 25 24  0  0  1  0  0  0  0  0999 V2000
   26.2915  -19.9659  -16.2002 N   0  0  0  0  0  0  0  0  0  0  0  0
   26.4147  -21.3947  -16.0114 C   0  0  1  0  0  0  0  0  0  0  0  0
   27.8610  -21.8219  -16.1838 C   0  0  0  0  0  0  0  0  0  0  0  0
   28.3074  -21.4108  -17.5294 C   0  0  0  0  0  0  0  0  0  0  0  0
   27.6392  -21.7583  -18.5294 O   0  0  0  0  0  0  0  0  0  0  0  0
   25.9323  -21.7311  -14.6514 C   0  0  0  0  0  0  0  0  0  0  0  0
   25.7567  -22.9256  -14.3466 O   0  0  0  0  0  0  0  0  0  0  0  0
   29.4467  -20.6477  -17.7459 O   0  0  0  0  0  0  0  0  0  0  0  0
   25.1799  -21.1183   -7.3072 C   0  0  0  0  0  0  0  0  0  0  0  0
   26.0169  -21.2205   -8.9132 S   0  0  0  0  0  0  0  0  0  0  0  0
   25.3412  -19.9729  -10.0074 C   0  0  0  0  0  0  0  0  0  0  0  0
   25.7613  -20.0408  -11.4129 C   0  0  0  0  0  0  0  0  0  0  0  0
   25.1492  -21.0346  -12.3372 C   0  0  2  0  0  0  0  0  0  0  0  0
   25.6746  -20.7185  -13.7140 N   0  0  0  0  0  0  0  0  0  0  0  0
   23.7049  -20.9324  -12.4222 C   0  0  0  0  0  0  0  0  0  0  0  0
   23.0175  -21.2405  -11.3954 O   0  0  0  0  0  0  0  0  0  0  0  0
   19.1321  -20.3650  -16.3694 N   0  0  0  0  0  0  0  0  0  0  0  0
   19.7346  -19.8175  -15.2036 C   0  0  0  0  0  0  0  0  0  0  0  0
   18.9635  -19.2386  -14.3960 O   0  0  0  0  0  0  0  0  0  0  0  0
   21.1873  -19.9430  -14.9898 C   0  0  0  0  0  0  0  0  0  0  0  0
   21.5132  -20.5258  -13.5866 C   0  0  2  0  0  0  0  0  0  0  0  0
   22.9659  -20.5056  -13.5458 N   0  0  0  0  0  0  0  0  0  0  0  0
   20.8868  -21.8137  -13.4038 C   0  0  0  0  0  0  0  0  0  0  0  0
   21.2562  -22.8770  -13.9449 O   0  0  0  0  0  0  0  0  0  0  0  0
   19.7848  -21.9120  -12.5655 O   0  0  0  0  0  0  0  0  0  0  0  0
  2  1  1  1
  2  6  1  0
  2  3  1  0
  3  4  1  0
  4  5  2  0
  4  8  1  0
  6  7  2  0
  9 10  1  0
 10 11  1  0
 11 12  1  0
 13 12  1  1
 13 14  1  0
 14  6  1  0
 15 13  1  0
 16 15  2  0
 17 18  1  0
 18 20  1  0
 19 18  2  0
 21 20  1  6
 21 22  1  0
 21 23  1  0
 22 15  1  0
 23 25  1  0
 24 23  2  0
M  END
$$$$
