DMN.pdb
     RDKit          3D

 25 24  0  0  1  0  0  0  0  0999 V2000
   21.2941  -13.4218  -16.2751 N   0  0  0  0  0  0  0  0  0  0  0  0
   21.4506  -12.2132  -17.0544 C   0  0  1  0  0  0  0  0  0  0  0  0
   20.1105  -11.7781  -17.6189 C   0  0  0  0  0  0  0  0  0  0  0  0
   19.6376  -12.8244  -18.5465 C   0  0  0  0  0  0  0  0  0  0  0  0
   18.5032  -13.3262  -18.3773 O   0  0  0  0  0  0  0  0  0  0  0  0
   22.0116  -11.1592  -16.1770 C   0  0  0  0  0  0  0  0  0  0  0  0
   21.5185  -10.9821  -15.0474 O   0  0  0  0  0  0  0  0  0  0  0  0
   20.3973  -13.2873  -19.6122 O   0  0  0  0  0  0  0  0  0  0  0  0
   28.0361  -12.4820  -15.0061 C   0  0  0  0  0  0  0  0  0  0  0  0
   27.0348  -11.4952  -16.1525 S   0  0  0  0  0  0  0  0  0  0  0  0
   26.0937  -10.2887  -15.2203 C   0  0  0  0  0  0  0  0  0  0  0  0
   25.2030   -9.4155  -15.9954 C   0  0  0  0  0  0  0  0  0  0  0  0
   23.7454   -9.3658  -15.6958 C   0  0  2  0  0  0  0  0  0  0  0  0
   23.0865  -10.3668  -16.6098 N   0  0  0  0  0  0  0  0  0  0  0  0
   23.1370   -8.0836  -15.9946 C   0  0  0  0  0  0  0  0  0  0  0  0
   23.0605   -7.7223  -17.2134 O   0  0  0  0  0  0  0  0  0  0  0  0
   20.6194   -3.5533  -15.8228 N   0  0  0  0  0  0  0  0  0  0  0  0
   19.9004   -4.6647  -15.3036 C   0  0  0  0  0  0  0  0  0  0  0  0
   18.6785   -4.4794  -15.0700 O   0  0  0  0  0  0  0  0  0  0  0  0
   20.5861   -5.9474  -15.0663 C   0  0  0  0  0  0  0  0  0  0  0  0
   22.0960   -5.8663  -15.4244 C   0  0  2  0  0  0  0  0  0  0  0  0
   22.5977   -7.1795  -15.0552 N   0  0  0  0  0  0  0  0  0  0  0  0
   22.7211   -4.7381  -14.7757 C   0  0  0  0  0  0  0  0  0  0  0  0
   22.9753   -3.6439  -15.3217 O   0  0  0  0  0  0  0  0  0  0  0  0
   23.0795   -4.8454  -13.4390 O   0  0  0  0  0  0  0  0  0  0  0  0
  2  1  1  1
  2  6  1  0
  2  3  1  0
  3  4  1  0
  4  5  2  0
  4  8  1  0
  6  7  2  0
  9 10  1  0
 10 11  1  0
 11 12  1  0
 13 12  1  6
 13 14  1  0
 14  6  1  0
 15 13  1  0
 16 15  2  0
 17 18  1  0
 18 20  1  0
 19 18  2  0
 21 20  1  1
 21 22  1  0
 21 23  1  0
 22 15  1  0
 23 25  1  0
 24 23  2  0
M  END
$$$$
