DMN.pdb
     RDKit          3D

 25 24  0  0  1  0  0  0  0  0999 V2000
   20.8784  -11.9421  -17.2209 N   0  0  0  0  0  0  0  0  0  0  0  0
   19.9385  -11.6109  -16.1724 C   0  0  1  0  0  0  0  0  0  0  0  0
   19.5541  -12.8606  -15.4014 C   0  0  0  0  0  0  0  0  0  0  0  0
   18.7557  -13.7261  -16.2916 C   0  0  0  0  0  0  0  0  0  0  0  0
   18.7743  -14.9659  -16.1189 O   0  0  0  0  0  0  0  0  0  0  0  0
   20.5712  -10.6189  -15.2719 C   0  0  0  0  0  0  0  0  0  0  0  0
   19.9531  -10.2331  -14.2621 O   0  0  0  0  0  0  0  0  0  0  0  0
   17.9741  -13.2286  -17.3253 O   0  0  0  0  0  0  0  0  0  0  0  0
   27.3680  -10.8539  -16.5445 C   0  0  0  0  0  0  0  0  0  0  0  0
   26.4246  -10.5210  -15.0314 S   0  0  0  0  0  0  0  0  0  0  0  0
   24.7512  -10.0575  -15.4734 C   0  0  0  0  0  0  0  0  0  0  0  0
   23.8841   -9.6167  -14.3732 C   0  0  0  0  0  0  0  0  0  0  0  0
   22.5138   -9.1044  -14.6502 C   0  0  2  0  0  0  0  0  0  0  0  0
   21.8523  -10.1168  -15.5497 N   0  0  0  0  0  0  0  0  0  0  0  0
   22.5016   -7.8491  -15.3766 C   0  0  0  0  0  0  0  0  0  0  0  0
   22.3734   -7.8869  -16.6431 O   0  0  0  0  0  0  0  0  0  0  0  0
   21.0397   -3.2309  -16.8396 N   0  0  0  0  0  0  0  0  0  0  0  0
   20.1954   -4.3227  -16.4976 C   0  0  0  0  0  0  0  0  0  0  0  0
   18.9845   -4.2145  -16.8201 O   0  0  0  0  0  0  0  0  0  0  0  0
   20.7479   -5.4995  -15.8035 C   0  0  0  0  0  0  0  0  0  0  0  0
   22.2728   -5.3502  -15.5447 C   0  0  2  0  0  0  0  0  0  0  0  0
   22.6072   -6.5603  -14.8123 N   0  0  0  0  0  0  0  0  0  0  0  0
   22.5646   -4.1011  -14.8819 C   0  0  0  0  0  0  0  0  0  0  0  0
   22.2980   -3.8392  -13.6902 O   0  0  0  0  0  0  0  0  0  0  0  0
   23.1915   -3.0909  -15.5982 O   0  0  0  0  0  0  0  0  0  0  0  0
  2  1  1  6
  2  6  1  0
  2  3  1  0
  3  4  1  0
  4  5  2  0
  4  8  1  0
  6  7  2  0
  9 10  1  0
 10 11  1  0
 11 12  1  0
 13 12  1  6
 13 14  1  0
 14  6  1  0
 15 13  1  0
 16 15  2  0
 17 18  1  0
 18 20  1  0
 19 18  2  0
 21 20  1  1
 21 22  1  0
 21 23  1  0
 22 15  1  0
 23 25  1  0
 24 23  2  0
M  END
$$$$
