DMN.pdb
     RDKit          3D

 25 24  0  0  1  0  0  0  0  0999 V2000
   17.4470  -12.0156  -15.4226 N   0  0  0  0  0  0  0  0  0  0  0  0
   17.9276  -10.9723  -16.3017 C   0  0  1  0  0  0  0  0  0  0  0  0
   16.8584   -9.9109  -16.4865 C   0  0  0  0  0  0  0  0  0  0  0  0
   15.7710  -10.4867  -17.3019 C   0  0  0  0  0  0  0  0  0  0  0  0
   14.7673  -10.9704  -16.7310 O   0  0  0  0  0  0  0  0  0  0  0  0
   19.1482  -10.3816  -15.7045 C   0  0  0  0  0  0  0  0  0  0  0  0
   19.1862  -10.1755  -14.4771 O   0  0  0  0  0  0  0  0  0  0  0  0
   15.8048  -10.5199  -18.6893 O   0  0  0  0  0  0  0  0  0  0  0  0
   26.4626  -10.1854  -14.6363 C   0  0  0  0  0  0  0  0  0  0  0  0
   24.7991  -10.8377  -14.9489 S   0  0  0  0  0  0  0  0  0  0  0  0
   24.0396   -9.8982  -16.2721 C   0  0  0  0  0  0  0  0  0  0  0  0
   22.6445  -10.2288  -16.5897 C   0  0  0  0  0  0  0  0  0  0  0  0
   21.5263   -9.5130  -15.9160 C   0  0  2  0  0  0  0  0  0  0  0  0
   20.2516  -10.0563  -16.5091 N   0  0  0  0  0  0  0  0  0  0  0  0
   21.5154   -8.0856  -16.1726 C   0  0  0  0  0  0  0  0  0  0  0  0
   21.3144   -7.6894  -17.3661 O   0  0  0  0  0  0  0  0  0  0  0  0
   18.7387   -3.2224  -15.6425 N   0  0  0  0  0  0  0  0  0  0  0  0
   20.0263   -3.8141  -15.7608 C   0  0  0  0  0  0  0  0  0  0  0  0
   20.9504   -3.0638  -16.1670 O   0  0  0  0  0  0  0  0  0  0  0  0
   20.2259   -5.2329  -15.4161 C   0  0  0  0  0  0  0  0  0  0  0  0
   21.7146   -5.6548  -15.5589 C   0  0  2  0  0  0  0  0  0  0  0  0
   21.6963   -7.0665  -15.2137 N   0  0  0  0  0  0  0  0  0  0  0  0
   22.5698   -4.8121  -14.7570 C   0  0  0  0  0  0  0  0  0  0  0  0
   22.7419   -4.9258  -13.5252 O   0  0  0  0  0  0  0  0  0  0  0  0
   23.2710   -3.7853  -15.3740 O   0  0  0  0  0  0  0  0  0  0  0  0
  2  1  1  1
  2  6  1  0
  2  3  1  0
  3  4  1  0
  4  5  2  0
  4  8  1  0
  6  7  2  0
  9 10  1  0
 10 11  1  0
 11 12  1  0
 13 12  1  6
 13 14  1  0
 14  6  1  0
 15 13  1  0
 16 15  2  0
 17 18  1  0
 18 20  1  0
 19 18  2  0
 21 20  1  1
 21 22  1  0
 21 23  1  0
 22 15  1  0
 23 25  1  0
 24 23  2  0
M  END
$$$$
