DMN.pdb
     RDKit          3D

 25 24  0  0  1  0  0  0  0  0999 V2000
   20.3555  -21.4622  -11.9601 N   0  0  0  0  0  0  0  0  0  0  0  0
   20.7665  -20.7595  -13.1558 C   0  0  1  0  0  0  0  0  0  0  0  0
   19.8508  -19.5754  -13.4070 C   0  0  0  0  0  0  0  0  0  0  0  0
   18.4790  -20.0846  -13.6014 C   0  0  0  0  0  0  0  0  0  0  0  0
   17.5080  -19.3861  -13.2317 O   0  0  0  0  0  0  0  0  0  0  0  0
   22.1653  -20.3054  -12.9751 C   0  0  0  0  0  0  0  0  0  0  0  0
   22.3817  -19.1407  -12.5913 O   0  0  0  0  0  0  0  0  0  0  0  0
   18.2064  -21.3160  -14.1813 O   0  0  0  0  0  0  0  0  0  0  0  0
   29.2171  -20.7762  -10.9366 C   0  0  0  0  0  0  0  0  0  0  0  0
   27.4062  -20.8108  -10.8386 S   0  0  0  0  0  0  0  0  0  0  0  0
   26.7724  -21.9303  -12.0857 C   0  0  0  0  0  0  0  0  0  0  0  0
   25.3191  -21.9173  -12.2964 C   0  0  0  0  0  0  0  0  0  0  0  0
   24.6641  -20.7637  -12.9724 C   0  0  2  0  0  0  0  0  0  0  0  0
   23.2374  -21.1743  -13.2325 N   0  0  0  0  0  0  0  0  0  0  0  0
   25.2372  -20.4507  -14.2674 C   0  0  0  0  0  0  0  0  0  0  0  0
   24.9638  -21.2156  -15.2482 O   0  0  0  0  0  0  0  0  0  0  0  0
   29.3713  -16.6475  -16.8723 N   0  0  0  0  0  0  0  0  0  0  0  0
   28.2218  -17.4832  -16.9204 C   0  0  0  0  0  0  0  0  0  0  0  0
   27.8479  -17.8533  -18.0628 O   0  0  0  0  0  0  0  0  0  0  0  0
   27.5343  -17.8724  -15.6763 C   0  0  0  0  0  0  0  0  0  0  0  0
   26.6908  -19.1636  -15.8660 C   0  0  2  0  0  0  0  0  0  0  0  0
   26.0756  -19.3550  -14.5632 N   0  0  0  0  0  0  0  0  0  0  0  0
   27.5097  -20.2492  -16.3514 C   0  0  0  0  0  0  0  0  0  0  0  0
   28.4047  -20.8240  -15.6969 O   0  0  0  0  0  0  0  0  0  0  0  0
   27.3109  -20.7149  -17.6438 O   0  0  0  0  0  0  0  0  0  0  0  0
  2  1  1  1
  2  6  1  0
  2  3  1  0
  3  4  1  0
  4  5  2  0
  4  8  1  0
  6  7  2  0
  9 10  1  0
 10 11  1  0
 11 12  1  0
 13 12  1  6
 13 14  1  0
 14  6  1  0
 15 13  1  0
 16 15  2  0
 17 18  1  0
 18 20  1  0
 19 18  2  0
 21 20  1  1
 21 22  1  0
 21 23  1  0
 22 15  1  0
 23 25  1  0
 24 23  2  0
M  END
$$$$
