DMN.pdb
     RDKit          3D

 25 24  0  0  1  0  0  0  0  0999 V2000
   20.3048  -11.1946  -18.1310 N   0  0  0  0  0  0  0  0  0  0  0  0
   20.1865  -11.3797  -16.7013 C   0  0  1  0  0  0  0  0  0  0  0  0
   20.4361  -12.8327  -16.3401 C   0  0  0  0  0  0  0  0  0  0  0  0
   19.2638  -13.6228  -16.7646 C   0  0  0  0  0  0  0  0  0  0  0  0
   18.1654  -13.0466  -16.9344 O   0  0  0  0  0  0  0  0  0  0  0  0
   21.1737  -10.5009  -16.0316 C   0  0  0  0  0  0  0  0  0  0  0  0
   21.2786  -10.5386  -14.7914 O   0  0  0  0  0  0  0  0  0  0  0  0
   19.3176  -14.9918  -16.9885 O   0  0  0  0  0  0  0  0  0  0  0  0
   26.8509  -11.7271  -15.1160 C   0  0  0  0  0  0  0  0  0  0  0  0
   25.7454  -10.2891  -15.0945 S   0  0  0  0  0  0  0  0  0  0  0  0
   25.1409   -9.9890  -16.7543 C   0  0  0  0  0  0  0  0  0  0  0  0
   24.2438   -8.8388  -16.9241 C   0  0  0  0  0  0  0  0  0  0  0  0
   22.9938   -8.7309  -16.1225 C   0  0  2  0  0  0  0  0  0  0  0  0
   21.9834   -9.6340  -16.7822 N   0  0  0  0  0  0  0  0  0  0  0  0
   22.4143   -7.4014  -16.1311 C   0  0  0  0  0  0  0  0  0  0  0  0
   21.7029   -7.0605  -17.1309 O   0  0  0  0  0  0  0  0  0  0  0  0
   20.1268   -2.9960  -15.2306 N   0  0  0  0  0  0  0  0  0  0  0  0
   19.5392   -4.2831  -15.0889 C   0  0  0  0  0  0  0  0  0  0  0  0
   18.2872   -4.3156  -14.9732 O   0  0  0  0  0  0  0  0  0  0  0  0
   20.3859   -5.4893  -15.0831 C   0  0  0  0  0  0  0  0  0  0  0  0
   21.8951   -5.1321  -15.1794 C   0  0  2  0  0  0  0  0  0  0  0  0
   22.5497   -6.4284  -15.1183 N   0  0  0  0  0  0  0  0  0  0  0  0
   22.2670   -4.1801  -14.1596 C   0  0  0  0  0  0  0  0  0  0  0  0
   22.5562   -4.4663  -12.9788 O   0  0  0  0  0  0  0  0  0  0  0  0
   22.3172   -2.8317  -14.4854 O   0  0  0  0  0  0  0  0  0  0  0  0
  2  1  1  6
  2  6  1  0
  2  3  1  0
  3  4  1  0
  4  5  2  0
  4  8  1  0
  6  7  2  0
  9 10  1  0
 10 11  1  0
 11 12  1  0
 13 12  1  6
 13 14  1  0
 14  6  1  0
 15 13  1  0
 16 15  2  0
 17 18  1  0
 18 20  1  0
 19 18  2  0
 21 20  1  1
 21 22  1  0
 21 23  1  0
 22 15  1  0
 23 25  1  0
 24 23  2  0
M  END
$$$$
