YSS.pdb
     RDKit          3D

 25 25  0  0  1  0  0  0  0  0999 V2000
   18.0193  -14.0722  -21.2195 O   0  0  0  0  0  0  0  0  0  0  0  0
   18.1370  -13.1284  -20.2202 C   0  0  0  0  0  0  0  0  0  0  0  0
   17.3466  -13.1156  -19.0915 C   0  0  0  0  0  0  0  0  0  0  0  0
   17.4828  -12.1630  -18.1075 C   0  0  0  0  0  0  0  0  0  0  0  0
   18.4399  -11.1728  -18.2332 C   0  0  0  0  0  0  0  0  0  0  0  0
   18.6372  -10.1313  -17.2249 C   0  0  0  0  0  0  0  0  0  0  0  0
   19.6205  -10.4713  -16.1559 C   0  0  2  0  0  0  0  0  0  0  0  0
   19.1882  -11.6136  -15.3792 N   0  0  0  0  0  0  0  0  0  0  0  0
   19.7475   -9.2548  -15.2758 C   0  0  0  0  0  0  0  0  0  0  0  0
   18.9537   -9.0639  -14.3210 O   0  0  0  0  0  0  0  0  0  0  0  0
   19.2485  -11.1617  -19.3580 C   0  0  0  0  0  0  0  0  0  0  0  0
   19.0843  -12.1396  -20.3338 C   0  0  0  0  0  0  0  0  0  0  0  0
   22.1095   -6.3580  -12.7331 O   0  0  0  0  0  0  0  0  0  0  0  0
   21.8432   -7.4457  -13.5228 C   0  0  0  0  0  0  0  0  0  0  0  0
   20.9000   -7.0933  -14.6799 C   0  0  2  0  0  0  0  0  0  0  0  0
   20.7601   -8.2793  -15.4842 N   0  0  0  0  0  0  0  0  0  0  0  0
   21.4161   -5.9381  -15.4495 C   0  0  0  0  0  0  0  0  0  0  0  0
   22.4623   -6.0355  -16.1415 O   0  0  0  0  0  0  0  0  0  0  0  0
   20.5720   -1.5059  -17.2719 O   0  0  0  0  0  0  0  0  0  0  0  0
   20.1679   -2.5248  -16.4115 C   0  0  0  0  0  0  0  0  0  0  0  0
   21.2794   -3.5279  -16.1843 C   0  0  2  0  0  0  0  0  0  0  0  0
   20.7721   -4.6632  -15.4560 N   0  0  0  0  0  0  0  0  0  0  0  0
   22.4671   -2.9303  -15.5767 C   0  0  0  0  0  0  0  0  0  0  0  0
   22.9482   -3.2835  -14.3352 O   0  0  0  0  0  0  0  0  0  0  0  0
   23.1214   -2.0277  -16.2007 O   0  0  0  0  0  0  0  0  0  0  0  0
  1  2  1  0
  2 12  2  0
  3  4  2  0
  3  2  1  0
  4  5  1  0
  5 11  2  0
  6  5  1  0
  7  8  1  1
  7  9  1  0
  7  6  1  0
  9 10  2  0
 12 11  1  0
 13 14  1  0
 15 14  1  1
 15 17  1  0
 16  9  1  0
 16 15  1  0
 17 18  2  0
 17 22  1  0
 19 20  1  0
 21 20  1  1
 22 21  1  0
 23 21  1  0
 23 24  1  0
 25 23  2  0
M  END
$$$$
