YSS.pdb
     RDKit          3D

 25 25  0  0  1  0  0  0  0  0999 V2000
   25.8110  -21.2712   -6.8373 O   0  0  0  0  0  0  0  0  0  0  0  0
   25.5655  -21.0859   -8.1822 C   0  0  0  0  0  0  0  0  0  0  0  0
   26.4623  -20.4904   -9.0424 C   0  0  0  0  0  0  0  0  0  0  0  0
   26.1946  -20.3165  -10.3813 C   0  0  0  0  0  0  0  0  0  0  0  0
   24.9894  -20.7463  -10.9057 C   0  0  0  0  0  0  0  0  0  0  0  0
   24.6421  -20.5923  -12.3185 C   0  0  0  0  0  0  0  0  0  0  0  0
   23.8398  -19.3760  -12.6381 C   0  0  2  0  0  0  0  0  0  0  0  0
   22.4271  -19.5962  -12.4127 N   0  0  0  0  0  0  0  0  0  0  0  0
   24.0966  -19.0512  -14.0870 C   0  0  0  0  0  0  0  0  0  0  0  0
   23.2430  -19.3190  -14.9690 O   0  0  0  0  0  0  0  0  0  0  0  0
   24.0691  -21.3485  -10.0634 C   0  0  0  0  0  0  0  0  0  0  0  0
   24.3715  -21.5088   -8.7149 C   0  0  0  0  0  0  0  0  0  0  0  0
   27.2534  -16.8725  -17.1260 O   0  0  0  0  0  0  0  0  0  0  0  0
   26.8545  -17.2071  -15.8585 C   0  0  0  0  0  0  0  0  0  0  0  0
   25.5270  -17.9755  -15.8624 C   0  0  2  0  0  0  0  0  0  0  0  0
   25.3030  -18.4341  -14.5161 N   0  0  0  0  0  0  0  0  0  0  0  0
   25.5599  -19.0825  -16.8455 C   0  0  0  0  0  0  0  0  0  0  0  0
   26.0676  -20.1955  -16.5517 O   0  0  0  0  0  0  0  0  0  0  0  0
   22.6789  -20.1473  -19.4739 O   0  0  0  0  0  0  0  0  0  0  0  0
   23.7871  -20.8560  -19.0141 C   0  0  0  0  0  0  0  0  0  0  0  0
   25.0535  -20.0334  -19.1274 C   0  0  2  0  0  0  0  0  0  0  0  0
   25.0276  -18.9608  -18.1653 N   0  0  0  0  0  0  0  0  0  0  0  0
   25.3173  -19.5838  -20.4932 C   0  0  0  0  0  0  0  0  0  0  0  0
   25.5310  -20.4408  -21.5501 O   0  0  0  0  0  0  0  0  0  0  0  0
   25.3598  -18.3351  -20.7602 O   0  0  0  0  0  0  0  0  0  0  0  0
  1  2  1  0
  2 12  2  0
  3  4  2  0
  3  2  1  0
  4  5  1  0
  5 11  2  0
  6  5  1  0
  7  8  1  6
  7  9  1  0
  7  6  1  0
  9 10  2  0
 12 11  1  0
 13 14  1  0
 15 14  1  1
 15 17  1  0
 16  9  1  0
 16 15  1  0
 17 18  2  0
 17 22  1  0
 19 20  1  0
 21 20  1  6
 22 21  1  0
 23 21  1  0
 23 24  1  0
 25 23  2  0
M  END
$$$$
