YSS.pdb
     RDKit          3D

 25 25  0  0  1  0  0  0  0  0999 V2000
   11.2913   -6.8185   -7.2335 O   0  0  0  0  0  0  0  0  0  0  0  0
   12.4463   -6.9552   -7.9756 C   0  0  0  0  0  0  0  0  0  0  0  0
   12.4663   -7.4358   -9.2669 C   0  0  0  0  0  0  0  0  0  0  0  0
   13.6319   -7.5632   -9.9877 C   0  0  0  0  0  0  0  0  0  0  0  0
   14.8389   -7.2026   -9.4173 C   0  0  0  0  0  0  0  0  0  0  0  0
   16.1132   -7.3125  -10.1276 C   0  0  0  0  0  0  0  0  0  0  0  0
   16.3184   -8.6004  -10.8519 C   0  0  2  0  0  0  0  0  0  0  0  0
   16.5905   -9.6880   -9.9365 N   0  0  0  0  0  0  0  0  0  0  0  0
   17.4828   -8.3957  -11.7862 C   0  0  0  0  0  0  0  0  0  0  0  0
   18.6628   -8.5781  -11.3955 O   0  0  0  0  0  0  0  0  0  0  0  0
   14.8481   -6.7162   -8.1202 C   0  0  0  0  0  0  0  0  0  0  0  0
   13.6517   -6.6002   -7.4198 C   0  0  0  0  0  0  0  0  0  0  0  0
   16.8030   -7.0330  -15.7096 O   0  0  0  0  0  0  0  0  0  0  0  0
   17.8132   -7.9275  -15.4707 C   0  0  0  0  0  0  0  0  0  0  0  0
   18.3869   -7.7758  -14.0563 C   0  0  2  0  0  0  0  0  0  0  0  0
   17.3004   -7.9916  -13.1366 N   0  0  0  0  0  0  0  0  0  0  0  0
   19.0269   -6.4513  -13.8847 C   0  0  0  0  0  0  0  0  0  0  0  0
   18.4081   -5.4974  -13.3461 O   0  0  0  0  0  0  0  0  0  0  0  0
   23.1454   -3.8365  -13.9831 O   0  0  0  0  0  0  0  0  0  0  0  0
   22.4963   -5.0395  -14.2536 C   0  0  0  0  0  0  0  0  0  0  0  0
   20.9931   -4.8914  -14.1458 C   0  0  2  0  0  0  0  0  0  0  0  0
   20.3620   -6.1764  -14.3110 N   0  0  0  0  0  0  0  0  0  0  0  0
   20.4594   -3.8623  -15.0364 C   0  0  0  0  0  0  0  0  0  0  0  0
   20.2496   -2.5560  -14.6528 O   0  0  0  0  0  0  0  0  0  0  0  0
   20.1592   -4.1521  -16.2439 O   0  0  0  0  0  0  0  0  0  0  0  0
  1  2  1  0
  2 12  2  0
  3  4  2  0
  3  2  1  0
  4  5  1  0
  5 11  2  0
  6  5  1  0
  7  8  1  1
  7  9  1  0
  7  6  1  0
  9 10  2  0
 12 11  1  0
 13 14  1  0
 15 14  1  6
 15 17  1  0
 16  9  1  0
 16 15  1  0
 17 18  2  0
 17 22  1  0
 19 20  1  0
 21 20  1  6
 22 21  1  0
 23 21  1  0
 23 24  1  0
 25 23  2  0
M  END
$$$$
