YSS.pdb
     RDKit          3D

 25 25  0  0  1  0  0  0  0  0999 V2000
   23.7258  -17.5596  -15.3615 O   0  0  0  0  0  0  0  0  0  0  0  0
   23.5660  -16.1977  -15.5135 C   0  0  0  0  0  0  0  0  0  0  0  0
   24.3254  -15.2648  -14.8414 C   0  0  0  0  0  0  0  0  0  0  0  0
   24.1472  -13.9104  -15.0096 C   0  0  0  0  0  0  0  0  0  0  0  0
   23.1778  -13.4445  -15.8788 C   0  0  0  0  0  0  0  0  0  0  0  0
   22.9368  -12.0192  -16.1039 C   0  0  0  0  0  0  0  0  0  0  0  0
   23.2151  -11.5476  -17.4915 C   0  0  2  0  0  0  0  0  0  0  0  0
   24.6098  -11.7151  -17.8406 N   0  0  0  0  0  0  0  0  0  0  0  0
   22.8315  -10.0912  -17.5434 C   0  0  0  0  0  0  0  0  0  0  0  0
   23.5803   -9.2093  -17.0537 O   0  0  0  0  0  0  0  0  0  0  0  0
   22.3997  -14.3606  -16.5677 C   0  0  0  0  0  0  0  0  0  0  0  0
   22.6060  -15.7227  -16.3742 C   0  0  0  0  0  0  0  0  0  0  0  0
   19.0189   -8.9567  -18.8745 O   0  0  0  0  0  0  0  0  0  0  0  0
   20.0919   -8.2028  -19.2717 C   0  0  0  0  0  0  0  0  0  0  0  0
   21.2423   -8.2700  -18.2595 C   0  0  2  0  0  0  0  0  0  0  0  0
   21.6185   -9.6548  -18.1421 N   0  0  0  0  0  0  0  0  0  0  0  0
   20.8421   -7.6744  -16.9640 C   0  0  0  0  0  0  0  0  0  0  0  0
   20.3504   -8.3839  -16.0488 O   0  0  0  0  0  0  0  0  0  0  0  0
   22.5682   -6.3688  -14.1593 O   0  0  0  0  0  0  0  0  0  0  0  0
   21.8765   -5.2709  -14.6671 C   0  0  0  0  0  0  0  0  0  0  0  0
   20.6269   -5.7003  -15.4070 C   0  0  2  0  0  0  0  0  0  0  0  0
   20.9856   -6.2830  -16.6753 N   0  0  0  0  0  0  0  0  0  0  0  0
   19.6372   -4.6301  -15.5173 C   0  0  0  0  0  0  0  0  0  0  0  0
   18.9179   -4.1437  -14.4481 O   0  0  0  0  0  0  0  0  0  0  0  0
   19.3988   -4.0916  -16.6510 O   0  0  0  0  0  0  0  0  0  0  0  0
  1  2  1  0
  2 12  2  0
  3  4  2  0
  3  2  1  0
  4  5  1  0
  5 11  2  0
  6  5  1  0
  7  8  1  1
  7  9  1  0
  7  6  1  0
  9 10  2  0
 12 11  1  0
 13 14  1  0
 15 14  1  6
 15 17  1  0
 16  9  1  0
 16 15  1  0
 17 18  2  0
 17 22  1  0
 19 20  1  0
 21 20  1  6
 22 21  1  0
 23 21  1  0
 23 24  1  0
 25 23  2  0
M  END
$$$$
