YSS.pdb
     RDKit          3D

 25 25  0  0  1  0  0  0  0  0999 V2000
   17.0492  -16.5988  -16.3226 O   0  0  0  0  0  0  0  0  0  0  0  0
   17.6885  -15.3769  -16.2829 C   0  0  0  0  0  0  0  0  0  0  0  0
   18.7634  -15.1091  -15.4634 C   0  0  0  0  0  0  0  0  0  0  0  0
   19.3852  -13.8813  -15.4414 C   0  0  0  0  0  0  0  0  0  0  0  0
   18.9333  -12.8641  -16.2619 C   0  0  0  0  0  0  0  0  0  0  0  0
   19.5484  -11.5369  -16.2879 C   0  0  0  0  0  0  0  0  0  0  0  0
   20.3921  -11.2600  -17.4865 C   0  0  2  0  0  0  0  0  0  0  0  0
   21.5229  -12.1604  -17.5606 N   0  0  0  0  0  0  0  0  0  0  0  0
   20.8629   -9.8333  -17.3694 C   0  0  0  0  0  0  0  0  0  0  0  0
   21.9054   -9.5488  -16.7288 O   0  0  0  0  0  0  0  0  0  0  0  0
   17.8540  -13.1058  -17.0962 C   0  0  0  0  0  0  0  0  0  0  0  0
   17.2486  -14.3584  -17.0936 C   0  0  0  0  0  0  0  0  0  0  0  0
   18.5299   -6.7311  -18.9683 O   0  0  0  0  0  0  0  0  0  0  0  0
   19.8946   -6.6412  -19.0530 C   0  0  0  0  0  0  0  0  0  0  0  0
   20.5878   -7.3853  -17.9048 C   0  0  2  0  0  0  0  0  0  0  0  0
   20.1563   -8.7573  -17.9721 N   0  0  0  0  0  0  0  0  0  0  0  0
   20.2793   -6.7521  -16.6021 C   0  0  0  0  0  0  0  0  0  0  0  0
   19.2797   -7.1108  -15.9276 O   0  0  0  0  0  0  0  0  0  0  0  0
   22.5001   -6.2155  -13.5169 O   0  0  0  0  0  0  0  0  0  0  0  0
   22.0555   -4.9689  -13.9529 C   0  0  0  0  0  0  0  0  0  0  0  0
   20.7875   -5.0910  -14.7717 C   0  0  2  0  0  0  0  0  0  0  0  0
   21.0811   -5.7135  -16.0379 N   0  0  0  0  0  0  0  0  0  0  0  0
   20.0703   -3.8235  -14.8989 C   0  0  0  0  0  0  0  0  0  0  0  0
   19.2532   -3.3081  -13.9171 O   0  0  0  0  0  0  0  0  0  0  0  0
   20.1825   -3.1274  -15.9643 O   0  0  0  0  0  0  0  0  0  0  0  0
  1  2  1  0
  2 12  2  0
  3  4  2  0
  3  2  1  0
  4  5  1  0
  5 11  2  0
  6  5  1  0
  7  8  1  1
  7  9  1  0
  7  6  1  0
  9 10  2  0
 12 11  1  0
 13 14  1  0
 15 14  1  6
 15 17  1  0
 16  9  1  0
 16 15  1  0
 17 18  2  0
 17 22  1  0
 19 20  1  0
 21 20  1  6
 22 21  1  0
 23 21  1  0
 23 24  1  0
 25 23  2  0
M  END
$$$$
