YSS.pdb
     RDKit          3D

 25 25  0  0  1  0  0  0  0  0999 V2000
   23.5009  -14.1632  -20.9841 O   0  0  0  0  0  0  0  0  0  0  0  0
   23.0579  -13.1803  -20.1233 C   0  0  0  0  0  0  0  0  0  0  0  0
   23.2461  -11.8338  -20.3476 C   0  0  0  0  0  0  0  0  0  0  0  0
   22.7947  -10.8711  -19.4736 C   0  0  0  0  0  0  0  0  0  0  0  0
   22.1255  -11.2436  -18.3222 C   0  0  0  0  0  0  0  0  0  0  0  0
   21.6199  -10.2721  -17.3522 C   0  0  0  0  0  0  0  0  0  0  0  0
   22.6492   -9.7159  -16.4268 C   0  0  2  0  0  0  0  0  0  0  0  0
   23.2186  -10.7455  -15.5838 N   0  0  0  0  0  0  0  0  0  0  0  0
   21.9626   -8.6694  -15.5875 C   0  0  0  0  0  0  0  0  0  0  0  0
   21.1784   -8.9973  -14.6624 O   0  0  0  0  0  0  0  0  0  0  0  0
   21.9223  -12.5908  -18.0715 C   0  0  0  0  0  0  0  0  0  0  0  0
   22.3917  -13.5380  -18.9760 C   0  0  0  0  0  0  0  0  0  0  0  0
   23.4224   -4.7878  -15.5268 O   0  0  0  0  0  0  0  0  0  0  0  0
   22.7501   -5.3713  -14.4851 C   0  0  0  0  0  0  0  0  0  0  0  0
   21.5937   -6.2522  -14.9744 C   0  0  2  0  0  0  0  0  0  0  0  0
   22.1693   -7.2797  -15.8025 N   0  0  0  0  0  0  0  0  0  0  0  0
   20.5789   -5.4438  -15.6885 C   0  0  0  0  0  0  0  0  0  0  0  0
   20.6919   -5.2006  -16.9178 O   0  0  0  0  0  0  0  0  0  0  0  0
   16.8955   -4.3564  -13.8972 O   0  0  0  0  0  0  0  0  0  0  0  0
   17.0483   -4.5356  -15.2707 C   0  0  0  0  0  0  0  0  0  0  0  0
   18.4303   -4.1212  -15.7305 C   0  0  2  0  0  0  0  0  0  0  0  0
   19.4287   -4.8985  -15.0407 N   0  0  0  0  0  0  0  0  0  0  0  0
   18.6499   -2.6788  -15.6383 C   0  0  0  0  0  0  0  0  0  0  0  0
   17.8726   -1.7462  -16.2891 O   0  0  0  0  0  0  0  0  0  0  0  0
   19.6051   -2.2199  -14.9248 O   0  0  0  0  0  0  0  0  0  0  0  0
  1  2  1  0
  2 12  2  0
  3  4  2  0
  3  2  1  0
  4  5  1  0
  5 11  2  0
  6  5  1  0
  7  8  1  1
  7  9  1  0
  7  6  1  0
  9 10  2  0
 12 11  1  0
 13 14  1  0
 15 14  1  6
 15 17  1  0
 16  9  1  0
 16 15  1  0
 17 18  2  0
 17 22  1  0
 19 20  1  0
 21 20  1  1
 22 21  1  0
 23 21  1  0
 23 24  1  0
 25 23  2  0
M  END
$$$$
