YSS.pdb
     RDKit          3D

 25 25  0  0  1  0  0  0  0  0999 V2000
   17.6503  -12.4557    3.0784 O   0  0  0  0  0  0  0  0  0  0  0  0
   18.0625  -13.1701    4.1843 C   0  0  0  0  0  0  0  0  0  0  0  0
   18.4132  -12.5821    5.3802 C   0  0  0  0  0  0  0  0  0  0  0  0
   18.8217  -13.3164    6.4703 C   0  0  0  0  0  0  0  0  0  0  0  0
   18.8909  -14.6950    6.3873 C   0  0  0  0  0  0  0  0  0  0  0  0
   19.3163  -15.5342    7.5075 C   0  0  0  0  0  0  0  0  0  0  0  0
   18.2111  -16.2438    8.2148 C   0  0  2  0  0  0  0  0  0  0  0  0
   17.2243  -15.3162    8.7254 N   0  0  0  0  0  0  0  0  0  0  0  0
   18.8405  -17.0167    9.3449 C   0  0  0  0  0  0  0  0  0  0  0  0
   19.1100  -16.4574   10.4371 O   0  0  0  0  0  0  0  0  0  0  0  0
   18.5440  -15.3126    5.1967 C   0  0  0  0  0  0  0  0  0  0  0  0
   18.1353  -14.5405    4.1140 C   0  0  0  0  0  0  0  0  0  0  0  0
   20.0566  -21.0471    8.8192 O   0  0  0  0  0  0  0  0  0  0  0  0
   19.4244  -20.6543    9.9696 C   0  0  0  0  0  0  0  0  0  0  0  0
   19.7049  -19.1832   10.3011 C   0  0  2  0  0  0  0  0  0  0  0  0
   19.1541  -18.3980    9.2272 N   0  0  0  0  0  0  0  0  0  0  0  0
   21.1550  -18.9518   10.4931 C   0  0  0  0  0  0  0  0  0  0  0  0
   21.9074  -18.7068    9.5149 O   0  0  0  0  0  0  0  0  0  0  0  0
   24.7526  -17.4026   13.1850 O   0  0  0  0  0  0  0  0  0  0  0  0
   23.4010  -17.7028   13.0284 C   0  0  0  0  0  0  0  0  0  0  0  0
   23.1913  -18.7674   11.9720 C   0  0  2  0  0  0  0  0  0  0  0  0
   21.7812  -18.9910   11.7762 N   0  0  0  0  0  0  0  0  0  0  0  0
   23.9424  -19.9917   12.2439 C   0  0  0  0  0  0  0  0  0  0  0  0
   25.2711  -20.1587   11.9212 O   0  0  0  0  0  0  0  0  0  0  0  0
   23.3693  -20.9830   12.8106 O   0  0  0  0  0  0  0  0  0  0  0  0
  1  2  1  0
  2 12  2  0
  3  4  2  0
  3  2  1  0
  4  5  1  0
  5 11  2  0
  6  5  1  0
  7  8  1  1
  7  9  1  0
  7  6  1  0
  9 10  2  0
 12 11  1  0
 13 14  1  0
 15 14  1  6
 15 17  1  0
 16  9  1  0
 16 15  1  0
 17 18  2  0
 17 22  1  0
 19 20  1  0
 21 20  1  1
 22 21  1  0
 23 21  1  0
 23 24  1  0
 25 23  2  0
M  END
$$$$
