YSS.pdb
     RDKit          3D

 25 25  0  0  1  0  0  0  0  0999 V2000
   17.4997  -14.1699  -17.2090 O   0  0  0  0  0  0  0  0  0  0  0  0
   17.7470  -12.8933  -16.7481 C   0  0  0  0  0  0  0  0  0  0  0  0
   18.9965  -12.4513  -16.3713 C   0  0  0  0  0  0  0  0  0  0  0  0
   19.2187  -11.1721  -15.9143 C   0  0  0  0  0  0  0  0  0  0  0  0
   18.1662  -10.2801  -15.8210 C   0  0  0  0  0  0  0  0  0  0  0  0
   18.3333   -8.9071  -15.3440 C   0  0  0  0  0  0  0  0  0  0  0  0
   18.6052   -8.7795  -13.8828 C   0  0  2  0  0  0  0  0  0  0  0  0
   17.4900   -9.2528  -13.0908 N   0  0  0  0  0  0  0  0  0  0  0  0
   18.8605   -7.3194  -13.6116 C   0  0  0  0  0  0  0  0  0  0  0  0
   17.9332   -6.5626  -13.2301 O   0  0  0  0  0  0  0  0  0  0  0  0
   16.8989  -10.6979  -16.1932 C   0  0  0  0  0  0  0  0  0  0  0  0
   16.7092  -11.9979  -16.6509 C   0  0  0  0  0  0  0  0  0  0  0  0
   22.5558   -5.6522  -14.6108 O   0  0  0  0  0  0  0  0  0  0  0  0
   21.9599   -5.2120  -13.4582 C   0  0  0  0  0  0  0  0  0  0  0  0
   20.4335   -5.3517  -13.5157 C   0  0  2  0  0  0  0  0  0  0  0  0
   20.1479   -6.7392  -13.7734 N   0  0  0  0  0  0  0  0  0  0  0  0
   19.8583   -4.4497  -14.5397 C   0  0  0  0  0  0  0  0  0  0  0  0
   19.7391   -4.8199  -15.7362 O   0  0  0  0  0  0  0  0  0  0  0  0
   17.2468   -0.4713  -15.5101 O   0  0  0  0  0  0  0  0  0  0  0  0
   17.8517   -1.3069  -14.5733 C   0  0  0  0  0  0  0  0  0  0  0  0
   18.8425   -2.2453  -15.2299 C   0  0  2  0  0  0  0  0  0  0  0  0
   19.4102   -3.1268  -14.2412 N   0  0  0  0  0  0  0  0  0  0  0  0
   19.8460   -1.5427  -16.0276 C   0  0  0  0  0  0  0  0  0  0  0  0
   19.6428   -1.1459  -17.3309 O   0  0  0  0  0  0  0  0  0  0  0  0
   20.9860   -1.2638  -15.5229 O   0  0  0  0  0  0  0  0  0  0  0  0
  1  2  1  0
  2 12  2  0
  3  4  2  0
  3  2  1  0
  4  5  1  0
  5 11  2  0
  6  5  1  0
  7  8  1  1
  7  9  1  0
  7  6  1  0
  9 10  2  0
 12 11  1  0
 13 14  1  0
 15 14  1  6
 15 17  1  0
 16  9  1  0
 16 15  1  0
 17 18  2  0
 17 22  1  0
 19 20  1  0
 21 20  1  1
 22 21  1  0
 23 21  1  0
 23 24  1  0
 25 23  2  0
M  END
$$$$
