YSS.pdb
     RDKit          3D

 25 25  0  0  1  0  0  0  0  0999 V2000
   21.8277   -4.5589  -13.8678 O   0  0  0  0  0  0  0  0  0  0  0  0
   21.3058   -5.7096  -13.3138 C   0  0  0  0  0  0  0  0  0  0  0  0
   21.6090   -6.9752  -13.7669 C   0  0  0  0  0  0  0  0  0  0  0  0
   21.0755   -8.1090  -13.1976 C   0  0  0  0  0  0  0  0  0  0  0  0
   20.2015   -8.0003  -12.1315 C   0  0  0  0  0  0  0  0  0  0  0  0
   19.5994   -9.1641  -11.4809 C   0  0  0  0  0  0  0  0  0  0  0  0
   18.3604   -9.6770  -12.1345 C   0  0  2  0  0  0  0  0  0  0  0  0
   18.4667   -9.6418  -13.5775 N   0  0  0  0  0  0  0  0  0  0  0  0
   17.2260   -8.8009  -11.6694 C   0  0  0  0  0  0  0  0  0  0  0  0
   16.7419   -7.9191  -12.4219 O   0  0  0  0  0  0  0  0  0  0  0  0
   19.8791   -6.7398  -11.6555 C   0  0  0  0  0  0  0  0  0  0  0  0
   20.4363   -5.6144  -12.2541 C   0  0  0  0  0  0  0  0  0  0  0  0
   13.6765   -8.3659   -8.4048 O   0  0  0  0  0  0  0  0  0  0  0  0
   14.7686   -9.0199   -8.9120 C   0  0  0  0  0  0  0  0  0  0  0  0
   15.5423   -8.1492   -9.9099 C   0  0  2  0  0  0  0  0  0  0  0  0
   16.6591   -8.9314  -10.3726 N   0  0  0  0  0  0  0  0  0  0  0  0
   15.9581   -6.8722   -9.2859 C   0  0  0  0  0  0  0  0  0  0  0  0
   16.9653   -6.8159   -8.5338 O   0  0  0  0  0  0  0  0  0  0  0  0
   15.8598   -3.2816  -11.0238 O   0  0  0  0  0  0  0  0  0  0  0  0
   16.5529   -3.6381   -9.8687 C   0  0  0  0  0  0  0  0  0  0  0  0
   15.6644   -4.3952   -8.9039 C   0  0  2  0  0  0  0  0  0  0  0  0
   15.2565   -5.6455   -9.4932 N   0  0  0  0  0  0  0  0  0  0  0  0
   14.5465   -3.5914   -8.4127 C   0  0  0  0  0  0  0  0  0  0  0  0
   14.7025   -2.4105   -7.7210 O   0  0  0  0  0  0  0  0  0  0  0  0
   13.3443   -3.9726   -8.6166 O   0  0  0  0  0  0  0  0  0  0  0  0
  1  2  1  0
  2 12  2  0
  3  4  2  0
  3  2  1  0
  4  5  1  0
  5 11  2  0
  6  5  1  0
  7  8  1  6
  7  9  1  0
  7  6  1  0
  9 10  2  0
 12 11  1  0
 13 14  1  0
 15 14  1  1
 15 17  1  0
 16  9  1  0
 16 15  1  0
 17 18  2  0
 17 22  1  0
 19 20  1  0
 21 20  1  6
 22 21  1  0
 23 21  1  0
 23 24  1  0
 25 23  2  0
M  END
$$$$
