YSS.pdb
     RDKit          3D

 25 25  0  0  1  0  0  0  0  0999 V2000
   25.1225  -14.3301  -23.3648 O   0  0  0  0  0  0  0  0  0  0  0  0
   24.5117  -15.3095  -22.6090 C   0  0  0  0  0  0  0  0  0  0  0  0
   23.9214  -16.4297  -23.1525 C   0  0  0  0  0  0  0  0  0  0  0  0
   23.3178  -17.3938  -22.3775 C   0  0  0  0  0  0  0  0  0  0  0  0
   23.2899  -17.2558  -21.0018 C   0  0  0  0  0  0  0  0  0  0  0  0
   22.6655  -18.2428  -20.1207 C   0  0  0  0  0  0  0  0  0  0  0  0
   23.6192  -19.1548  -19.4251 C   0  0  2  0  0  0  0  0  0  0  0  0
   24.3028  -20.0231  -20.3598 N   0  0  0  0  0  0  0  0  0  0  0  0
   22.8116  -19.9678  -18.4465 C   0  0  0  0  0  0  0  0  0  0  0  0
   22.3234  -21.0769  -18.7778 O   0  0  0  0  0  0  0  0  0  0  0  0
   23.8759  -16.1391  -20.4286 C   0  0  0  0  0  0  0  0  0  0  0  0
   24.4776  -15.1835  -21.2412 C   0  0  0  0  0  0  0  0  0  0  0  0
   21.5907  -18.5073  -14.5536 O   0  0  0  0  0  0  0  0  0  0  0  0
   22.2188  -19.7072  -14.7616 C   0  0  0  0  0  0  0  0  0  0  0  0
   21.8714  -20.3031  -16.1316 C   0  0  2  0  0  0  0  0  0  0  0  0
   22.5687  -19.5212  -17.1192 N   0  0  0  0  0  0  0  0  0  0  0  0
   20.4060  -20.3188  -16.3450 C   0  0  0  0  0  0  0  0  0  0  0  0
   19.8031  -19.3029  -16.7781 O   0  0  0  0  0  0  0  0  0  0  0  0
   17.9461  -23.7074  -15.4098 O   0  0  0  0  0  0  0  0  0  0  0  0
   17.7815  -22.9802  -16.5869 C   0  0  0  0  0  0  0  0  0  0  0  0
   18.1959  -21.5351  -16.4049 C   0  0  2  0  0  0  0  0  0  0  0  0
   19.5977  -21.4657  -16.0782 N   0  0  0  0  0  0  0  0  0  0  0  0
   17.3423  -20.8150  -15.4615 C   0  0  0  0  0  0  0  0  0  0  0  0
   15.9884  -20.6363  -15.6414 O   0  0  0  0  0  0  0  0  0  0  0  0
   17.8432  -20.3096  -14.4004 O   0  0  0  0  0  0  0  0  0  0  0  0
  1  2  1  0
  2 12  2  0
  3  4  2  0
  3  2  1  0
  4  5  1  0
  5 11  2  0
  6  5  1  0
  7  8  1  6
  7  9  1  0
  7  6  1  0
  9 10  2  0
 12 11  1  0
 13 14  1  0
 15 14  1  1
 15 17  1  0
 16  9  1  0
 16 15  1  0
 17 18  2  0
 17 22  1  0
 19 20  1  0
 21 20  1  1
 22 21  1  0
 23 21  1  0
 23 24  1  0
 25 23  2  0
M  END
$$$$
