YSS.pdb
     RDKit          3D

 25 25  0  0  1  0  0  0  0  0999 V2000
   23.7842  -30.9637  -10.2305 O   0  0  0  0  0  0  0  0  0  0  0  0
   24.7103  -31.6021   -9.4317 C   0  0  0  0  0  0  0  0  0  0  0  0
   25.9535  -31.9959   -9.8770 C   0  0  0  0  0  0  0  0  0  0  0  0
   26.8611  -32.6317   -9.0606 C   0  0  0  0  0  0  0  0  0  0  0  0
   26.5370  -32.8961   -7.7426 C   0  0  0  0  0  0  0  0  0  0  0  0
   27.4546  -33.5678   -6.8222 C   0  0  0  0  0  0  0  0  0  0  0  0
   27.7877  -34.9759   -7.1850 C   0  0  2  0  0  0  0  0  0  0  0  0
   26.7014  -35.6126   -7.8988 N   0  0  0  0  0  0  0  0  0  0  0  0
   28.0685  -35.7046   -5.8962 C   0  0  0  0  0  0  0  0  0  0  0  0
   27.1978  -36.4410   -5.3689 O   0  0  0  0  0  0  0  0  0  0  0  0
   25.2936  -32.5112   -7.2683 C   0  0  0  0  0  0  0  0  0  0  0  0
   24.3998  -31.8702   -8.1203 C   0  0  0  0  0  0  0  0  0  0  0  0
   31.6227  -37.0451   -2.8478 O   0  0  0  0  0  0  0  0  0  0  0  0
   31.1844  -36.3069   -3.9157 C   0  0  0  0  0  0  0  0  0  0  0  0
   29.6565  -36.3421   -4.0450 C   0  0  2  0  0  0  0  0  0  0  0  0
   29.3173  -35.5928   -5.2268 N   0  0  0  0  0  0  0  0  0  0  0  0
   29.0102  -35.8081   -2.8242 C   0  0  0  0  0  0  0  0  0  0  0  0
   28.7779  -34.5779   -2.6991 O   0  0  0  0  0  0  0  0  0  0  0  0
   27.0355  -36.7980    1.5574 O   0  0  0  0  0  0  0  0  0  0  0  0
   27.6477  -37.2636    0.3955 C   0  0  0  0  0  0  0  0  0  0  0  0
   28.0562  -36.1197   -0.5090 C   0  0  2  0  0  0  0  0  0  0  0  0
   28.6165  -36.6387   -1.7311 N   0  0  0  0  0  0  0  0  0  0  0  0
   28.9194  -35.1481    0.1602 C   0  0  0  0  0  0  0  0  0  0  0  0
   28.4493  -34.1575    0.9939 O   0  0  0  0  0  0  0  0  0  0  0  0
   30.1846  -35.1880   -0.0130 O   0  0  0  0  0  0  0  0  0  0  0  0
  1  2  1  0
  2 12  2  0
  3  4  2  0
  3  2  1  0
  4  5  1  0
  5 11  2  0
  6  5  1  0
  7  8  1  1
  7  9  1  0
  7  6  1  0
  9 10  2  0
 12 11  1  0
 13 14  1  0
 15 14  1  1
 15 17  1  0
 16  9  1  0
 16 15  1  0
 17 18  2  0
 17 22  1  0
 19 20  1  0
 21 20  1  1
 22 21  1  0
 23 21  1  0
 23 24  1  0
 25 23  2  0
M  END
$$$$
