YSS.pdb
     RDKit          3D

 25 25  0  0  1  0  0  0  0  0999 V2000
   25.9949  -22.3680  -11.1031 O   0  0  0  0  0  0  0  0  0  0  0  0
   25.4803  -21.4349  -11.9795 C   0  0  0  0  0  0  0  0  0  0  0  0
   24.1499  -21.0777  -12.0126 C   0  0  0  0  0  0  0  0  0  0  0  0
   23.6597  -20.1435  -12.8966 C   0  0  0  0  0  0  0  0  0  0  0  0
   24.5132  -19.5275  -13.7935 C   0  0  0  0  0  0  0  0  0  0  0  0
   24.0578  -18.5269  -14.7587 C   0  0  0  0  0  0  0  0  0  0  0  0
   23.4960  -19.0850  -16.0229 C   0  0  2  0  0  0  0  0  0  0  0  0
   24.4810  -19.8611  -16.7457 N   0  0  0  0  0  0  0  0  0  0  0  0
   23.0379  -17.9134  -16.8524 C   0  0  0  0  0  0  0  0  0  0  0  0
   23.8576  -17.2401  -17.5255 O   0  0  0  0  0  0  0  0  0  0  0  0
   25.8561  -19.8678  -13.7822 C   0  0  0  0  0  0  0  0  0  0  0  0
   26.3185  -20.8161  -12.8753 C   0  0  0  0  0  0  0  0  0  0  0  0
   19.5995  -17.8252  -18.7964 O   0  0  0  0  0  0  0  0  0  0  0  0
   20.6560  -16.9777  -19.0040 C   0  0  0  0  0  0  0  0  0  0  0  0
   21.1969  -16.4070  -17.6871 C   0  0  2  0  0  0  0  0  0  0  0  0
   21.6728  -17.5217  -16.9100 N   0  0  0  0  0  0  0  0  0  0  0  0
   20.1561  -15.6225  -16.9838 C   0  0  0  0  0  0  0  0  0  0  0  0
   19.3625  -16.1740  -16.1782 O   0  0  0  0  0  0  0  0  0  0  0  0
   19.2747  -11.5603  -17.9425 O   0  0  0  0  0  0  0  0  0  0  0  0
   19.3024  -11.9660  -16.6097 C   0  0  0  0  0  0  0  0  0  0  0  0
   18.9919  -13.4421  -16.4760 C   0  0  2  0  0  0  0  0  0  0  0  0
   19.9889  -14.2165  -17.1710 N   0  0  0  0  0  0  0  0  0  0  0  0
   17.6224  -13.7712  -16.8675 C   0  0  0  0  0  0  0  0  0  0  0  0
   16.5128  -13.4136  -16.1338 O   0  0  0  0  0  0  0  0  0  0  0  0
   17.4025  -14.4253  -17.9426 O   0  0  0  0  0  0  0  0  0  0  0  0
  1  2  1  0
  2 12  2  0
  3  4  2  0
  3  2  1  0
  4  5  1  0
  5 11  2  0
  6  5  1  0
  7  8  1  6
  7  9  1  0
  7  6  1  0
  9 10  2  0
 12 11  1  0
 13 14  1  0
 15 14  1  6
 15 17  1  0
 16  9  1  0
 16 15  1  0
 17 18  2  0
 17 22  1  0
 19 20  1  0
 21 20  1  6
 22 21  1  0
 23 21  1  0
 23 24  1  0
 25 23  2  0
M  END
$$$$
