YSS.pdb
     RDKit          3D

 25 25  0  0  1  0  0  0  0  0999 V2000
   28.5793  -19.6753   -3.8812 O   0  0  0  0  0  0  0  0  0  0  0  0
   28.1520  -19.7310   -5.1918 C   0  0  0  0  0  0  0  0  0  0  0  0
   27.1257  -20.5438   -5.6215 C   0  0  0  0  0  0  0  0  0  0  0  0
   26.7169  -20.5821   -6.9352 C   0  0  0  0  0  0  0  0  0  0  0  0
   27.3431  -19.7855   -7.8763 C   0  0  0  0  0  0  0  0  0  0  0  0
   26.9581  -19.7778   -9.2877 C   0  0  0  0  0  0  0  0  0  0  0  0
   27.1543  -21.0745   -9.9985 C   0  0  2  0  0  0  0  0  0  0  0  0
   28.5544  -21.4339  -10.0728 N   0  0  0  0  0  0  0  0  0  0  0  0
   26.5806  -20.9061  -11.3817 C   0  0  0  0  0  0  0  0  0  0  0  0
   27.2279  -20.3131  -12.2804 O   0  0  0  0  0  0  0  0  0  0  0  0
   28.3782  -18.9584   -7.4719 C   0  0  0  0  0  0  0  0  0  0  0  0
   28.7664  -18.9442   -6.1360 C   0  0  0  0  0  0  0  0  0  0  0  0
   23.7223  -23.3540  -12.8670 O   0  0  0  0  0  0  0  0  0  0  0  0
   24.4199  -22.4900  -13.6697 C   0  0  0  0  0  0  0  0  0  0  0  0
   24.6502  -21.1362  -12.9865 C   0  0  2  0  0  0  0  0  0  0  0  0
   25.2955  -21.4050  -11.7278 N   0  0  0  0  0  0  0  0  0  0  0  0
   23.3750  -20.3997  -12.8295 C   0  0  0  0  0  0  0  0  0  0  0  0
   22.7898  -20.3467  -11.7170 O   0  0  0  0  0  0  0  0  0  0  0  0
   21.5459  -18.7192  -16.1756 O   0  0  0  0  0  0  0  0  0  0  0  0
   21.1951  -18.1674  -14.9450 C   0  0  0  0  0  0  0  0  0  0  0  0
   21.4158  -19.1523  -13.8160 C   0  0  2  0  0  0  0  0  0  0  0  0
   22.7392  -19.7151  -13.9098 N   0  0  0  0  0  0  0  0  0  0  0  0
   20.3600  -20.1596  -13.7278 C   0  0  0  0  0  0  0  0  0  0  0  0
   19.1058  -19.9069  -13.2175 O   0  0  0  0  0  0  0  0  0  0  0  0
   20.5747  -21.3509  -14.1365 O   0  0  0  0  0  0  0  0  0  0  0  0
  1  2  1  0
  2 12  2  0
  3  4  2  0
  3  2  1  0
  4  5  1  0
  5 11  2  0
  6  5  1  0
  7  8  1  6
  7  9  1  0
  7  6  1  0
  9 10  2  0
 12 11  1  0
 13 14  1  0
 15 14  1  1
 15 17  1  0
 16  9  1  0
 16 15  1  0
 17 18  2  0
 17 22  1  0
 19 20  1  0
 21 20  1  6
 22 21  1  0
 23 21  1  0
 23 24  1  0
 25 23  2  0
M  END
$$$$
