YSS.pdb
     RDKit          3D

 25 25  0  0  1  0  0  0  0  0999 V2000
   17.8938  -16.7737  -19.6125 O   0  0  0  0  0  0  0  0  0  0  0  0
   18.5144  -15.6756  -19.0537 C   0  0  0  0  0  0  0  0  0  0  0  0
   18.7725  -15.5540  -17.7056 C   0  0  0  0  0  0  0  0  0  0  0  0
   19.3935  -14.4480  -17.1711 C   0  0  0  0  0  0  0  0  0  0  0  0
   19.7816  -13.4084  -17.9962 C   0  0  0  0  0  0  0  0  0  0  0  0
   20.4455  -12.2056  -17.4934 C   0  0  0  0  0  0  0  0  0  0  0  0
   21.9360  -12.2473  -17.5370 C   0  0  2  0  0  0  0  0  0  0  0  0
   22.4560  -13.4111  -16.8514 N   0  0  0  0  0  0  0  0  0  0  0  0
   22.4281  -10.9850  -16.8773 C   0  0  0  0  0  0  0  0  0  0  0  0
   22.3510  -10.8358  -15.6322 O   0  0  0  0  0  0  0  0  0  0  0  0
   19.5344  -13.5042  -19.3560 C   0  0  0  0  0  0  0  0  0  0  0  0
   18.9047  -14.6363  -19.8633 C   0  0  0  0  0  0  0  0  0  0  0  0
   23.6924   -7.6399  -19.1675 O   0  0  0  0  0  0  0  0  0  0  0  0
   24.4257   -8.0594  -18.0887 C   0  0  0  0  0  0  0  0  0  0  0  0
   23.5455   -8.7301  -17.0266 C   0  0  2  0  0  0  0  0  0  0  0  0
   22.9953   -9.9181  -17.6258 N   0  0  0  0  0  0  0  0  0  0  0  0
   22.5016   -7.7990  -16.5402 C   0  0  0  0  0  0  0  0  0  0  0  0
   21.4376   -7.6225  -17.1881 O   0  0  0  0  0  0  0  0  0  0  0  0
   21.3274   -7.1015  -12.7302 O   0  0  0  0  0  0  0  0  0  0  0  0
   20.6918   -6.7448  -13.9178 C   0  0  0  0  0  0  0  0  0  0  0  0
   21.6567   -6.0918  -14.8852 C   0  0  2  0  0  0  0  0  0  0  0  0
   22.6326   -7.0554  -15.3278 N   0  0  0  0  0  0  0  0  0  0  0  0
   22.2493   -4.8656  -14.3539 C   0  0  0  0  0  0  0  0  0  0  0  0
   21.5115   -3.7736  -13.9532 O   0  0  0  0  0  0  0  0  0  0  0  0
   23.5177   -4.7635  -14.2399 O   0  0  0  0  0  0  0  0  0  0  0  0
  1  2  1  0
  2 12  2  0
  3  4  2  0
  3  2  1  0
  4  5  1  0
  5 11  2  0
  6  5  1  0
  7  8  1  1
  7  9  1  0
  7  6  1  0
  9 10  2  0
 12 11  1  0
 13 14  1  0
 15 14  1  6
 15 17  1  0
 16  9  1  0
 16 15  1  0
 17 18  2  0
 17 22  1  0
 19 20  1  0
 21 20  1  1
 22 21  1  0
 23 21  1  0
 23 24  1  0
 25 23  2  0
M  END
$$$$
