YSS.pdb
     RDKit          3D

 25 25  0  0  1  0  0  0  0  0999 V2000
   29.1843  -18.9365   -3.9227 O   0  0  0  0  0  0  0  0  0  0  0  0
   28.5598  -19.2592   -5.1098 C   0  0  0  0  0  0  0  0  0  0  0  0
   27.6831  -18.4176   -5.7592 C   0  0  0  0  0  0  0  0  0  0  0  0
   27.0718  -18.7618   -6.9434 C   0  0  0  0  0  0  0  0  0  0  0  0
   27.3308  -19.9909   -7.5220 C   0  0  0  0  0  0  0  0  0  0  0  0
   26.7155  -20.4187   -8.7784 C   0  0  0  0  0  0  0  0  0  0  0  0
   25.2468  -20.6691   -8.7041 C   0  0  2  0  0  0  0  0  0  0  0  0
   24.9292  -21.6843   -7.7226 N   0  0  0  0  0  0  0  0  0  0  0  0
   24.8085  -21.1097  -10.0769 C   0  0  0  0  0  0  0  0  0  0  0  0
   25.2781  -22.1507  -10.6005 O   0  0  0  0  0  0  0  0  0  0  0  0
   28.2085  -20.8569   -6.8904 C   0  0  0  0  0  0  0  0  0  0  0  0
   28.8091  -20.4775   -5.6943 C   0  0  0  0  0  0  0  0  0  0  0  0
   21.1753  -20.3758  -11.1718 O   0  0  0  0  0  0  0  0  0  0  0  0
   21.9106  -21.2866  -11.8841 C   0  0  0  0  0  0  0  0  0  0  0  0
   23.3496  -20.8062  -12.1103 C   0  0  2  0  0  0  0  0  0  0  0  0
   23.8547  -20.3754  -10.8327 N   0  0  0  0  0  0  0  0  0  0  0  0
   23.3951  -19.7364  -13.1334 C   0  0  0  0  0  0  0  0  0  0  0  0
   23.0800  -18.5524  -12.8476 O   0  0  0  0  0  0  0  0  0  0  0  0
   26.0350  -19.2629  -15.9799 O   0  0  0  0  0  0  0  0  0  0  0  0
   24.7698  -19.2128  -16.5616 C   0  0  0  0  0  0  0  0  0  0  0  0
   23.6937  -18.9794  -15.5220 C   0  0  2  0  0  0  0  0  0  0  0  0
   23.7919  -19.9749  -14.4845 N   0  0  0  0  0  0  0  0  0  0  0  0
   22.3565  -18.8751  -16.1035 C   0  0  0  0  0  0  0  0  0  0  0  0
   21.3099  -19.7031  -15.7623 O   0  0  0  0  0  0  0  0  0  0  0  0
   22.1064  -17.9793  -16.9794 O   0  0  0  0  0  0  0  0  0  0  0  0
  1  2  1  0
  2 12  2  0
  3  4  2  0
  3  2  1  0
  4  5  1  0
  5 11  2  0
  6  5  1  0
  7  8  1  1
  7  9  1  0
  7  6  1  0
  9 10  2  0
 12 11  1  0
 13 14  1  0
 15 14  1  1
 15 17  1  0
 16  9  1  0
 16 15  1  0
 17 18  2  0
 17 22  1  0
 19 20  1  0
 21 20  1  6
 22 21  1  0
 23 21  1  0
 23 24  1  0
 25 23  2  0
M  END
$$$$
