EVK.pdb
     RDKit          3D

 26 25  0  0  1  0  0  0  0  0999 V2000
   27.6066  -19.6103  -18.5929 N   0  0  0  0  0  0  0  0  0  0  0  0
   26.7629  -19.0624  -17.5933 C   0  0  1  0  0  0  0  0  0  0  0  0
   25.4412  -18.6115  -18.0539 C   0  0  0  0  0  0  0  0  0  0  0  0
   25.5354  -17.4837  -19.0302 C   0  0  0  0  0  0  0  0  0  0  0  0
   25.9207  -17.7936  -20.3982 C   0  0  0  0  0  0  0  0  0  0  0  0
   25.2120  -18.3769  -21.2279 O   0  0  0  0  0  0  0  0  0  0  0  0
   26.6917  -20.0353  -16.4496 C   0  0  0  0  0  0  0  0  0  0  0  0
   26.2089  -21.1479  -16.7145 O   0  0  0  0  0  0  0  0  0  0  0  0
   27.1949  -17.4003  -20.8067 O   0  0  0  0  0  0  0  0  0  0  0  0
   29.0408  -19.3160  -13.0361 C   0  0  0  0  0  0  0  0  0  0  0  0
   28.5074  -20.7068  -13.4136 C   0  0  2  0  0  0  0  0  0  0  0  0
   29.5242  -21.2538  -14.3961 C   0  0  0  0  0  0  0  0  0  0  0  0
   27.1321  -20.5152  -13.9730 C   0  0  2  0  0  0  0  0  0  0  0  0
   27.1367  -19.7153  -15.1754 N   0  0  0  0  0  0  0  0  0  0  0  0
   26.0776  -20.0975  -13.0682 C   0  0  0  0  0  0  0  0  0  0  0  0
   25.8297  -18.8428  -13.0176 O   0  0  0  0  0  0  0  0  0  0  0  0
   25.3169  -20.9435  -12.2600 N   0  0  0  0  0  0  0  0  0  0  0  0
   24.2974  -20.3111  -11.3509 C   0  0  1  0  0  0  0  0  0  0  0  0
   22.9758  -20.8493  -11.7538 C   0  0  0  0  0  0  0  0  0  0  0  0
   21.7332  -20.5418  -11.0792 C   0  0  0  0  0  0  0  0  0  0  0  0
   20.4464  -21.1660  -11.4236 C   0  0  0  0  0  0  0  0  0  0  0  0
   19.2824  -20.7434  -10.5868 C   0  0  0  0  0  0  0  0  0  0  0  0
   18.0594  -21.4339  -10.9255 N   0  0  0  0  0  0  0  0  0  0  0  0
   24.7094  -20.6570   -9.9678 C   0  0  0  0  0  0  0  0  0  0  0  0
   24.2553  -20.2010   -8.9101 O   0  0  0  0  0  0  0  0  0  0  0  0
   25.7383  -21.6160   -9.7841 O   0  0  0  0  0  0  0  0  0  0  0  0
  2  1  1  6
  2  7  1  0
  3  4  1  0
  3  2  1  0
  5  4  1  0
  6  5  2  0
  7  8  2  0
  9  5  1  0
 11 10  1  6
 11 12  1  0
 13 11  1  0
 14  7  1  0
 13 14  1  6
 15 13  1  0
 15 16  2  0
 17 15  1  0
 18 17  1  0
 18 19  1  6
 20 21  1  0
 20 19  1  0
 22 23  1  0
 22 21  1  0
 24 26  1  0
 24 18  1  0
 25 24  2  0
M  END
$$$$
