EVK.pdb
     RDKit          3D

 26 25  0  0  1  0  0  0  0  0999 V2000
   18.7016  -10.8282  -15.7139 N   0  0  0  0  0  0  0  0  0  0  0  0
   18.0978   -9.5912  -15.3725 C   0  0  1  0  0  0  0  0  0  0  0  0
   16.6903   -9.4394  -15.7699 C   0  0  0  0  0  0  0  0  0  0  0  0
   16.5296   -9.3145  -17.2507 C   0  0  0  0  0  0  0  0  0  0  0  0
   17.2637   -8.2593  -17.9317 C   0  0  0  0  0  0  0  0  0  0  0  0
   16.9637   -7.0590  -17.9264 O   0  0  0  0  0  0  0  0  0  0  0  0
   18.3307   -9.3397  -13.9089 C   0  0  0  0  0  0  0  0  0  0  0  0
   18.2329  -10.3303  -13.1670 O   0  0  0  0  0  0  0  0  0  0  0  0
   18.3992   -8.6335  -18.6499 O   0  0  0  0  0  0  0  0  0  0  0  0
   20.2240   -5.7518  -12.7838 C   0  0  0  0  0  0  0  0  0  0  0  0
   20.2398   -7.0153  -11.9092 C   0  0  2  0  0  0  0  0  0  0  0  0
   21.4062   -7.8298  -12.4332 C   0  0  0  0  0  0  0  0  0  0  0  0
   18.9008   -7.6689  -12.0538 C   0  0  2  0  0  0  0  0  0  0  0  0
   18.6367   -8.0812  -13.4125 N   0  0  0  0  0  0  0  0  0  0  0  0
   17.7490   -7.0048  -11.4729 C   0  0  0  0  0  0  0  0  0  0  0  0
   17.0506   -6.2761  -12.2601 O   0  0  0  0  0  0  0  0  0  0  0  0
   17.3425   -7.0977  -10.1411 N   0  0  0  0  0  0  0  0  0  0  0  0
   16.1161   -6.3282   -9.7295 C   0  0  1  0  0  0  0  0  0  0  0  0
   15.2048   -7.2978   -9.0753 C   0  0  0  0  0  0  0  0  0  0  0  0
   13.9025   -6.9581   -8.5439 C   0  0  0  0  0  0  0  0  0  0  0  0
   12.9821   -7.9448   -7.9581 C   0  0  0  0  0  0  0  0  0  0  0  0
   11.6800   -7.3982   -7.4686 C   0  0  0  0  0  0  0  0  0  0  0  0
   10.7685   -8.4233   -7.0153 N   0  0  0  0  0  0  0  0  0  0  0  0
   16.5936   -5.2362   -8.8453 C   0  0  0  0  0  0  0  0  0  0  0  0
   17.6295   -5.2140   -8.1675 O   0  0  0  0  0  0  0  0  0  0  0  0
   15.8076   -4.0612   -8.7301 O   0  0  0  0  0  0  0  0  0  0  0  0
  2  1  1  1
  2  7  1  0
  3  4  1  0
  3  2  1  0
  5  4  1  0
  6  5  2  0
  7  8  2  0
  9  5  1  0
 11 10  1  6
 11 12  1  0
 13 11  1  0
 14  7  1  0
 13 14  1  6
 15 13  1  0
 15 16  2  0
 17 15  1  0
 18 17  1  0
 18 19  1  1
 20 21  1  0
 20 19  1  0
 22 23  1  0
 22 21  1  0
 24 26  1  0
 24 18  1  0
 25 24  2  0
M  END
$$$$
