EVK.pdb
     RDKit          3D

 26 25  0  0  1  0  0  0  0  0999 V2000
   27.5311  -20.0578  -17.6971 N   0  0  0  0  0  0  0  0  0  0  0  0
   27.4558  -21.4690  -17.8166 C   0  0  1  0  0  0  0  0  0  0  0  0
   28.7096  -22.1439  -18.1837 C   0  0  0  0  0  0  0  0  0  0  0  0
   29.8091  -21.1757  -18.4797 C   0  0  0  0  0  0  0  0  0  0  0  0
   30.6689  -21.4454  -19.6216 C   0  0  0  0  0  0  0  0  0  0  0  0
   30.5089  -20.9931  -20.7621 O   0  0  0  0  0  0  0  0  0  0  0  0
   26.8329  -22.0168  -16.5630 C   0  0  0  0  0  0  0  0  0  0  0  0
   27.0488  -23.2171  -16.3311 O   0  0  0  0  0  0  0  0  0  0  0  0
   31.7638  -22.2835  -19.4118 O   0  0  0  0  0  0  0  0  0  0  0  0
   25.7659  -19.3562  -13.4742 C   0  0  0  0  0  0  0  0  0  0  0  0
   26.0951  -20.8475  -13.3027 C   0  0  2  0  0  0  0  0  0  0  0  0
   27.6097  -20.9050  -13.2736 C   0  0  0  0  0  0  0  0  0  0  0  0
   25.4599  -21.5741  -14.4472 C   0  0  2  0  0  0  0  0  0  0  0  0
   26.0639  -21.2344  -15.7143 N   0  0  0  0  0  0  0  0  0  0  0  0
   24.0119  -21.5739  -14.5385 C   0  0  0  0  0  0  0  0  0  0  0  0
   23.4882  -20.7192  -15.3347 O   0  0  0  0  0  0  0  0  0  0  0  0
   23.1527  -22.4230  -13.8398 N   0  0  0  0  0  0  0  0  0  0  0  0
   21.6783  -22.3115  -14.1215 C   0  0  1  0  0  0  0  0  0  0  0  0
   21.0984  -23.6572  -13.8942 C   0  0  0  0  0  0  0  0  0  0  0  0
   19.6963  -23.9758  -14.0561 C   0  0  0  0  0  0  0  0  0  0  0  0
   19.1569  -25.3406  -13.9544 C   0  0  0  0  0  0  0  0  0  0  0  0
   18.0272  -25.5154  -12.9917 C   0  0  0  0  0  0  0  0  0  0  0  0
   17.4649  -26.8461  -13.0119 N   0  0  0  0  0  0  0  0  0  0  0  0
   21.1649  -21.2564  -13.2130 C   0  0  0  0  0  0  0  0  0  0  0  0
   21.6524  -20.8860  -12.1368 O   0  0  0  0  0  0  0  0  0  0  0  0
   19.9819  -20.5629  -13.5756 O   0  0  0  0  0  0  0  0  0  0  0  0
  2  1  1  1
  2  7  1  0
  3  4  1  0
  3  2  1  0
  5  4  1  0
  6  5  2  0
  7  8  2  0
  9  5  1  0
 11 10  1  6
 11 12  1  0
 13 11  1  0
 14  7  1  0
 13 14  1  6
 15 13  1  0
 15 16  2  0
 17 15  1  0
 18 17  1  0
 18 19  1  1
 20 21  1  0
 20 19  1  0
 22 23  1  0
 22 21  1  0
 24 26  1  0
 24 18  1  0
 25 24  2  0
M  END
$$$$
