EVK.pdb
     RDKit          3D

 26 25  0  0  1  0  0  0  0  0999 V2000
   29.3282  -10.8438  -19.5151 N   0  0  0  0  0  0  0  0  0  0  0  0
   28.6995   -9.7304  -18.9017 C   0  0  1  0  0  0  0  0  0  0  0  0
   28.7634   -8.4692  -19.6550 C   0  0  0  0  0  0  0  0  0  0  0  0
   30.1655   -7.9789  -19.8218 C   0  0  0  0  0  0  0  0  0  0  0  0
   30.6642   -6.9968  -18.8716 C   0  0  0  0  0  0  0  0  0  0  0  0
   30.0152   -6.5088  -17.9380 O   0  0  0  0  0  0  0  0  0  0  0  0
   27.2986  -10.1262  -18.5265 C   0  0  0  0  0  0  0  0  0  0  0  0
   26.6776  -10.7876  -19.3738 O   0  0  0  0  0  0  0  0  0  0  0  0
   31.9831   -6.5710  -19.0274 O   0  0  0  0  0  0  0  0  0  0  0  0
   26.3145  -10.3624  -14.4922 C   0  0  0  0  0  0  0  0  0  0  0  0
   25.5617  -11.0920  -15.6158 C   0  0  2  0  0  0  0  0  0  0  0  0
   26.3968  -12.3251  -15.8992 C   0  0  0  0  0  0  0  0  0  0  0  0
   25.4434  -10.1354  -16.7613 C   0  0  2  0  0  0  0  0  0  0  0  0
   26.7303   -9.7771  -17.3103 N   0  0  0  0  0  0  0  0  0  0  0  0
   24.6004   -8.9667  -16.5924 C   0  0  0  0  0  0  0  0  0  0  0  0
   25.1873   -7.8813  -16.2520 O   0  0  0  0  0  0  0  0  0  0  0  0
   23.2171   -8.9288  -16.7728 N   0  0  0  0  0  0  0  0  0  0  0  0
   22.5263   -7.6023  -16.6027 C   0  0  1  0  0  0  0  0  0  0  0  0
   21.3775   -7.5972  -17.5402 C   0  0  0  0  0  0  0  0  0  0  0  0
   20.3986   -6.5346  -17.6202 C   0  0  0  0  0  0  0  0  0  0  0  0
   19.2413   -6.5636  -18.5278 C   0  0  0  0  0  0  0  0  0  0  0  0
   18.3998   -5.3285  -18.5365 C   0  0  0  0  0  0  0  0  0  0  0  0
   17.3105   -5.3903  -19.4834 N   0  0  0  0  0  0  0  0  0  0  0  0
   22.1537   -7.5138  -15.1690 C   0  0  0  0  0  0  0  0  0  0  0  0
   21.9146   -8.4489  -14.3935 O   0  0  0  0  0  0  0  0  0  0  0  0
   22.0465   -6.2317  -14.5718 O   0  0  0  0  0  0  0  0  0  0  0  0
  2  1  1  6
  2  7  1  0
  3  4  1  0
  3  2  1  0
  5  4  1  0
  6  5  2  0
  7  8  2  0
  9  5  1  0
 11 10  1  1
 11 12  1  0
 13 11  1  0
 14  7  1  0
 13 14  1  1
 15 13  1  0
 15 16  2  0
 17 15  1  0
 18 17  1  0
 18 19  1  6
 20 21  1  0
 20 19  1  0
 22 23  1  0
 22 21  1  0
 24 26  1  0
 24 18  1  0
 25 24  2  0
M  END
$$$$
