EVK.pdb
     RDKit          3D

 26 25  0  0  1  0  0  0  0  0999 V2000
   25.5893  -25.6282  -16.3640 N   0  0  0  0  0  0  0  0  0  0  0  0
   24.8009  -24.5317  -16.7968 C   0  0  1  0  0  0  0  0  0  0  0  0
   24.1541  -24.6917  -18.1076 C   0  0  0  0  0  0  0  0  0  0  0  0
   25.1462  -24.7893  -19.2213 C   0  0  0  0  0  0  0  0  0  0  0  0
   25.8040  -23.5684  -19.6603 C   0  0  0  0  0  0  0  0  0  0  0  0
   26.9089  -23.5087  -20.2139 O   0  0  0  0  0  0  0  0  0  0  0  0
   23.8361  -24.1808  -15.6988 C   0  0  0  0  0  0  0  0  0  0  0  0
   23.4091  -25.1342  -15.0281 O   0  0  0  0  0  0  0  0  0  0  0  0
   25.1324  -22.3665  -19.4376 O   0  0  0  0  0  0  0  0  0  0  0  0
   23.1807  -20.0158  -14.8757 C   0  0  0  0  0  0  0  0  0  0  0  0
   23.2695  -21.0933  -13.7837 C   0  0  2  0  0  0  0  0  0  0  0  0
   24.7467  -21.1864  -13.4559 C   0  0  0  0  0  0  0  0  0  0  0  0
   22.6703  -22.3439  -14.3479 C   0  0  2  0  0  0  0  0  0  0  0  0
   23.4440  -22.8745  -15.4459 N   0  0  0  0  0  0  0  0  0  0  0  0
   21.2525  -22.3448  -14.6555 C   0  0  0  0  0  0  0  0  0  0  0  0
   20.9219  -21.9739  -15.8352 O   0  0  0  0  0  0  0  0  0  0  0  0
   20.2307  -22.7167  -13.7808 N   0  0  0  0  0  0  0  0  0  0  0  0
   18.8149  -22.6366  -14.2856 C   0  0  1  0  0  0  0  0  0  0  0  0
   18.0419  -23.6668  -13.5509 C   0  0  0  0  0  0  0  0  0  0  0  0
   16.6086  -23.8352  -13.6549 C   0  0  0  0  0  0  0  0  0  0  0  0
   15.8600  -24.8805  -12.9401 C   0  0  0  0  0  0  0  0  0  0  0  0
   14.3989  -24.9489  -13.2471 C   0  0  0  0  0  0  0  0  0  0  0  0
   13.7034  -25.9542  -12.4771 N   0  0  0  0  0  0  0  0  0  0  0  0
   18.3705  -21.2416  -14.0430 C   0  0  0  0  0  0  0  0  0  0  0  0
   18.7819  -20.4597  -13.1756 O   0  0  0  0  0  0  0  0  0  0  0  0
   17.3601  -20.6950  -14.8751 O   0  0  0  0  0  0  0  0  0  0  0  0
  2  1  1  1
  2  7  1  0
  3  4  1  0
  3  2  1  0
  5  4  1  0
  6  5  2  0
  7  8  2  0
  9  5  1  0
 11 10  1  6
 11 12  1  0
 13 11  1  0
 14  7  1  0
 13 14  1  6
 15 13  1  0
 15 16  2  0
 17 15  1  0
 18 17  1  0
 18 19  1  1
 20 21  1  0
 20 19  1  0
 22 23  1  0
 22 21  1  0
 24 26  1  0
 24 18  1  0
 25 24  2  0
M  END
$$$$
