EVK.pdb
     RDKit          3D

 26 25  0  0  1  0  0  0  0  0999 V2000
   18.0941  -11.0944  -16.9516 N   0  0  0  0  0  0  0  0  0  0  0  0
   17.3957  -10.3468  -15.9694 C   0  0  1  0  0  0  0  0  0  0  0  0
   16.3727  -11.0866  -15.2155 C   0  0  0  0  0  0  0  0  0  0  0  0
   15.8619  -12.2732  -15.9672 C   0  0  0  0  0  0  0  0  0  0  0  0
   14.7930  -13.0555  -15.3660 C   0  0  0  0  0  0  0  0  0  0  0  0
   14.2734  -12.8326  -14.2654 O   0  0  0  0  0  0  0  0  0  0  0  0
   18.4051   -9.6661  -15.0875 C   0  0  0  0  0  0  0  0  0  0  0  0
   17.9440   -9.0440  -14.1172 O   0  0  0  0  0  0  0  0  0  0  0  0
   14.3157  -14.1469  -16.0914 O   0  0  0  0  0  0  0  0  0  0  0  0
   23.1512   -9.3336  -13.7597 C   0  0  0  0  0  0  0  0  0  0  0  0
   22.1091   -9.9775  -14.6876 C   0  0  2  0  0  0  0  0  0  0  0  0
   22.7663   -9.9876  -16.0538 C   0  0  0  0  0  0  0  0  0  0  0  0
   20.8645   -9.1507  -14.5944 C   0  0  2  0  0  0  0  0  0  0  0  0
   19.7681   -9.7262  -15.3375 N   0  0  0  0  0  0  0  0  0  0  0  0
   20.9713   -7.7240  -14.8356 C   0  0  0  0  0  0  0  0  0  0  0  0
   21.1139   -7.3581  -16.0539 O   0  0  0  0  0  0  0  0  0  0  0  0
   20.9276   -6.7284  -13.8587 N   0  0  0  0  0  0  0  0  0  0  0  0
   21.0943   -5.3013  -14.3073 C   0  0  1  0  0  0  0  0  0  0  0  0
   19.8145   -4.6113  -14.0163 C   0  0  0  0  0  0  0  0  0  0  0  0
   18.5968   -4.8039  -14.7737 C   0  0  0  0  0  0  0  0  0  0  0  0
   17.3679   -4.0280  -14.5463 C   0  0  0  0  0  0  0  0  0  0  0  0
   16.2026   -4.4033  -15.4036 C   0  0  0  0  0  0  0  0  0  0  0  0
   15.0104   -3.6438  -15.1052 N   0  0  0  0  0  0  0  0  0  0  0  0
   22.2645   -4.7711  -13.5646 C   0  0  0  0  0  0  0  0  0  0  0  0
   22.8177   -5.2690  -12.5751 O   0  0  0  0  0  0  0  0  0  0  0  0
   22.8531   -3.5562  -14.0000 O   0  0  0  0  0  0  0  0  0  0  0  0
  2  1  1  6
  2  7  1  0
  3  4  1  0
  3  2  1  0
  5  4  1  0
  6  5  2  0
  7  8  2  0
  9  5  1  0
 11 10  1  1
 11 12  1  0
 13 11  1  0
 14  7  1  0
 13 14  1  6
 15 13  1  0
 15 16  2  0
 17 15  1  0
 18 17  1  0
 18 19  1  1
 20 21  1  0
 20 19  1  0
 22 23  1  0
 22 21  1  0
 24 26  1  0
 24 18  1  0
 25 24  2  0
M  END
$$$$
