EVK.pdb
     RDKit          3D

 26 25  0  0  1  0  0  0  0  0999 V2000
   21.9760  -20.6101  -10.0166 N   0  0  0  0  0  0  0  0  0  0  0  0
   22.2722  -21.0161  -11.3427 C   0  0  1  0  0  0  0  0  0  0  0  0
   21.1342  -21.0268  -12.2738 C   0  0  0  0  0  0  0  0  0  0  0  0
   20.0937  -22.0272  -11.8859 C   0  0  0  0  0  0  0  0  0  0  0  0
   19.7524  -23.0661  -12.8452 C   0  0  0  0  0  0  0  0  0  0  0  0
   20.2491  -23.1932  -13.9713 O   0  0  0  0  0  0  0  0  0  0  0  0
   23.4351  -20.2021  -11.8375 C   0  0  0  0  0  0  0  0  0  0  0  0
   23.4213  -18.9983  -11.5344 O   0  0  0  0  0  0  0  0  0  0  0  0
   18.7848  -23.9948  -12.4625 O   0  0  0  0  0  0  0  0  0  0  0  0
   28.0346  -19.9924  -13.4530 C   0  0  0  0  0  0  0  0  0  0  0  0
   26.8890  -20.8266  -12.8586 C   0  0  2  0  0  0  0  0  0  0  0  0
   27.0390  -22.1937  -13.4966 C   0  0  0  0  0  0  0  0  0  0  0  0
   25.6115  -20.1172  -13.1842 C   0  0  2  0  0  0  0  0  0  0  0  0
   24.4627  -20.7563  -12.5863 N   0  0  0  0  0  0  0  0  0  0  0  0
   25.3569  -19.7677  -14.5691 C   0  0  0  0  0  0  0  0  0  0  0  0
   24.6178  -20.5721  -15.2363 O   0  0  0  0  0  0  0  0  0  0  0  0
   25.8434  -18.6362  -15.2252 N   0  0  0  0  0  0  0  0  0  0  0  0
   25.4288  -18.4261  -16.6568 C   0  0  1  0  0  0  0  0  0  0  0  0
   24.8528  -17.0621  -16.7375 C   0  0  0  0  0  0  0  0  0  0  0  0
   24.3538  -16.4614  -17.9556 C   0  0  0  0  0  0  0  0  0  0  0  0
   23.8419  -15.0844  -18.0312 C   0  0  0  0  0  0  0  0  0  0  0  0
   23.3948  -14.6381  -19.3856 C   0  0  0  0  0  0  0  0  0  0  0  0
   22.7087  -13.3668  -19.3667 N   0  0  0  0  0  0  0  0  0  0  0  0
   26.6516  -18.6292  -17.4729 C   0  0  0  0  0  0  0  0  0  0  0  0
   26.7172  -18.9963  -18.6535 O   0  0  0  0  0  0  0  0  0  0  0  0
   27.9155  -18.3876  -16.8762 O   0  0  0  0  0  0  0  0  0  0  0  0
  2  1  1  1
  2  7  1  0
  3  4  1  0
  3  2  1  0
  5  4  1  0
  6  5  2  0
  7  8  2  0
  9  5  1  0
 11 10  1  6
 11 12  1  0
 13 11  1  0
 14  7  1  0
 13 14  1  6
 15 13  1  0
 15 16  2  0
 17 15  1  0
 18 17  1  0
 18 19  1  1
 20 21  1  0
 20 19  1  0
 22 23  1  0
 22 21  1  0
 24 26  1  0
 24 18  1  0
 25 24  2  0
M  END
$$$$
