EVK.pdb
     RDKit          3D

 26 25  0  0  1  0  0  0  0  0999 V2000
   28.4626  -21.0349  -15.5773 N   0  0  0  0  0  0  0  0  0  0  0  0
   27.7354  -20.0977  -14.8001 C   0  0  1  0  0  0  0  0  0  0  0  0
   27.4631  -18.8073  -15.4504 C   0  0  0  0  0  0  0  0  0  0  0  0
   27.0204  -18.9696  -16.8688 C   0  0  0  0  0  0  0  0  0  0  0  0
   27.6663  -18.1527  -17.8845 C   0  0  0  0  0  0  0  0  0  0  0  0
   28.3022  -18.5846  -18.8541 O   0  0  0  0  0  0  0  0  0  0  0  0
   26.4965  -20.7735  -14.2823 C   0  0  0  0  0  0  0  0  0  0  0  0
   25.8857  -21.4830  -15.0976 O   0  0  0  0  0  0  0  0  0  0  0  0
   27.5590  -16.7684  -17.7530 O   0  0  0  0  0  0  0  0  0  0  0  0
   25.1064  -20.0609  -10.1699 C   0  0  0  0  0  0  0  0  0  0  0  0
   25.2174  -21.4417  -10.8353 C   0  0  2  0  0  0  0  0  0  0  0  0
   26.6169  -21.9178  -10.4993 C   0  0  0  0  0  0  0  0  0  0  0  0
   24.9518  -21.2502  -12.2961 C   0  0  2  0  0  0  0  0  0  0  0  0
   26.0584  -20.6179  -12.9754 N   0  0  0  0  0  0  0  0  0  0  0  0
   23.6866  -20.6592  -12.6897 C   0  0  0  0  0  0  0  0  0  0  0  0
   23.6068  -19.3831  -12.6284 O   0  0  0  0  0  0  0  0  0  0  0  0
   22.5629  -21.3605  -13.1289 N   0  0  0  0  0  0  0  0  0  0  0  0
   21.3565  -20.5601  -13.5408 C   0  0  1  0  0  0  0  0  0  0  0  0
   20.9323  -21.0795  -14.8633 C   0  0  0  0  0  0  0  0  0  0  0  0
   19.7652  -20.6160  -15.5821 C   0  0  0  0  0  0  0  0  0  0  0  0
   19.2340  -21.2804  -16.7822 C   0  0  0  0  0  0  0  0  0  0  0  0
   18.1466  -20.5447  -17.4964 C   0  0  0  0  0  0  0  0  0  0  0  0
   17.8461  -21.0978  -18.7968 N   0  0  0  0  0  0  0  0  0  0  0  0
   20.3568  -20.7370  -12.4584 C   0  0  0  0  0  0  0  0  0  0  0  0
   20.3272  -21.6268  -11.5980 O   0  0  0  0  0  0  0  0  0  0  0  0
   19.2930  -19.8043  -12.3558 O   0  0  0  0  0  0  0  0  0  0  0  0
  2  1  1  6
  2  7  1  0
  3  4  1  0
  3  2  1  0
  5  4  1  0
  6  5  2  0
  7  8  2  0
  9  5  1  0
 11 10  1  1
 11 12  1  0
 13 11  1  0
 14  7  1  0
 13 14  1  1
 15 13  1  0
 15 16  2  0
 17 15  1  0
 18 17  1  0
 18 19  1  6
 20 21  1  0
 20 19  1  0
 22 23  1  0
 22 21  1  0
 24 26  1  0
 24 18  1  0
 25 24  2  0
M  END
$$$$
