EVK.pdb
     RDKit          3D

 26 25  0  0  1  0  0  0  0  0999 V2000
   18.0602  -22.9224  -11.6143 N   0  0  0  0  0  0  0  0  0  0  0  0
   17.8145  -22.5623  -10.2648 C   0  0  1  0  0  0  0  0  0  0  0  0
   17.0994  -21.2930  -10.0654 C   0  0  0  0  0  0  0  0  0  0  0  0
   16.1907  -20.9688  -11.2069 C   0  0  0  0  0  0  0  0  0  0  0  0
   14.8141  -20.6091  -10.9044 C   0  0  0  0  0  0  0  0  0  0  0  0
   14.4610  -19.6656  -10.1860 O   0  0  0  0  0  0  0  0  0  0  0  0
   17.1580  -23.7267   -9.5771 C   0  0  0  0  0  0  0  0  0  0  0  0
   16.1349  -24.1708  -10.1221 O   0  0  0  0  0  0  0  0  0  0  0  0
   13.8103  -21.3938  -11.4718 O   0  0  0  0  0  0  0  0  0  0  0  0
   19.4336  -26.5782   -8.1175 C   0  0  0  0  0  0  0  0  0  0  0  0
   17.9175  -26.7032   -8.3357 C   0  0  2  0  0  0  0  0  0  0  0  0
   17.7547  -26.8197   -9.8384 C   0  0  0  0  0  0  0  0  0  0  0  0
   17.2826  -25.4921   -7.7262 C   0  0  2  0  0  0  0  0  0  0  0  0
   17.6601  -24.2752   -8.4062 N   0  0  0  0  0  0  0  0  0  0  0  0
   17.3550  -25.3333   -6.2858 C   0  0  0  0  0  0  0  0  0  0  0  0
   18.2781  -24.5668   -5.8397 O   0  0  0  0  0  0  0  0  0  0  0  0
   16.5071  -25.9383   -5.3572 N   0  0  0  0  0  0  0  0  0  0  0  0
   16.7990  -25.7182   -3.8971 C   0  0  1  0  0  0  0  0  0  0  0  0
   15.5263  -25.2898   -3.2683 C   0  0  0  0  0  0  0  0  0  0  0  0
   15.0201  -23.9347   -3.2997 C   0  0  0  0  0  0  0  0  0  0  0  0
   13.7662  -23.5212   -2.6510 C   0  0  0  0  0  0  0  0  0  0  0  0
   13.4280  -22.0704   -2.7714 C   0  0  0  0  0  0  0  0  0  0  0  0
   12.2409  -21.7012   -2.0353 N   0  0  0  0  0  0  0  0  0  0  0  0
   17.3376  -27.0036   -3.3872 C   0  0  0  0  0  0  0  0  0  0  0  0
   17.3269  -28.1035   -3.9557 O   0  0  0  0  0  0  0  0  0  0  0  0
   17.9450  -27.0262   -2.1056 O   0  0  0  0  0  0  0  0  0  0  0  0
  2  1  1  6
  2  7  1  0
  3  4  1  0
  3  2  1  0
  5  4  1  0
  6  5  2  0
  7  8  2  0
  9  5  1  0
 11 10  1  6
 11 12  1  0
 13 11  1  0
 14  7  1  0
 13 14  1  6
 15 13  1  0
 15 16  2  0
 17 15  1  0
 18 17  1  0
 18 19  1  1
 20 21  1  0
 20 19  1  0
 22 23  1  0
 22 21  1  0
 24 26  1  0
 24 18  1  0
 25 24  2  0
M  END
$$$$
