EVK.pdb
     RDKit          3D

 26 25  0  0  1  0  0  0  0  0999 V2000
   16.3930  -10.6390  -14.0636 N   0  0  0  0  0  0  0  0  0  0  0  0
   15.7681   -9.4030  -13.7585 C   0  0  1  0  0  0  0  0  0  0  0  0
   14.3284   -9.3296  -14.0485 C   0  0  0  0  0  0  0  0  0  0  0  0
   14.0286   -9.5640  -15.4939 C   0  0  0  0  0  0  0  0  0  0  0  0
   12.6510   -9.4210  -15.9386 C   0  0  0  0  0  0  0  0  0  0  0  0
   11.6914   -9.1253  -15.2157 O   0  0  0  0  0  0  0  0  0  0  0  0
   16.1060   -9.0404  -12.3393 C   0  0  0  0  0  0  0  0  0  0  0  0
   16.3554   -9.9920  -11.5820 O   0  0  0  0  0  0  0  0  0  0  0  0
   12.3922   -9.6354  -17.2922 O   0  0  0  0  0  0  0  0  0  0  0  0
   18.2365   -6.3838   -9.0868 C   0  0  0  0  0  0  0  0  0  0  0  0
   17.9834   -6.9857  -10.4780 C   0  0  2  0  0  0  0  0  0  0  0  0
   18.5648   -5.9734  -11.4453 C   0  0  0  0  0  0  0  0  0  0  0  0
   16.5072   -7.2004  -10.6040 C   0  0  2  0  0  0  0  0  0  0  0  0
   16.1389   -7.7259  -11.8978 N   0  0  0  0  0  0  0  0  0  0  0  0
   15.6224   -6.1226  -10.2034 C   0  0  0  0  0  0  0  0  0  0  0  0
   15.3128   -5.2699  -11.1066 O   0  0  0  0  0  0  0  0  0  0  0  0
   15.0838   -5.9436   -8.9285 N   0  0  0  0  0  0  0  0  0  0  0  0
   14.2291   -4.7267   -8.6954 C   0  0  1  0  0  0  0  0  0  0  0  0
   13.4417   -4.9885   -7.4666 C   0  0  0  0  0  0  0  0  0  0  0  0
   12.0782   -5.4727   -7.4629 C   0  0  0  0  0  0  0  0  0  0  0  0
   11.7237   -6.9001   -7.4346 C   0  0  0  0  0  0  0  0  0  0  0  0
   10.2599   -7.1998   -7.4696 C   0  0  0  0  0  0  0  0  0  0  0  0
    9.9716   -8.6132   -7.5505 N   0  0  0  0  0  0  0  0  0  0  0  0
   15.1656   -3.5797   -8.5961 C   0  0  0  0  0  0  0  0  0  0  0  0
   16.3097   -3.5798   -8.1230 O   0  0  0  0  0  0  0  0  0  0  0  0
   14.7478   -2.3160   -9.0865 O   0  0  0  0  0  0  0  0  0  0  0  0
  2  1  1  1
  2  7  1  0
  3  4  1  0
  3  2  1  0
  5  4  1  0
  6  5  2  0
  7  8  2  0
  9  5  1  0
 11 10  1  1
 11 12  1  0
 13 11  1  0
 14  7  1  0
 13 14  1  6
 15 13  1  0
 15 16  2  0
 17 15  1  0
 18 17  1  0
 18 19  1  1
 20 21  1  0
 20 19  1  0
 22 23  1  0
 22 21  1  0
 24 26  1  0
 24 18  1  0
 25 24  2  0
M  END
$$$$
