EVK.pdb
     RDKit          3D

 26 25  0  0  1  0  0  0  0  0999 V2000
   23.7133  -19.9607  -14.5592 N   0  0  0  0  0  0  0  0  0  0  0  0
   23.4263  -19.1545  -15.6901 C   0  0  1  0  0  0  0  0  0  0  0  0
   22.2172  -19.5213  -16.4423 C   0  0  0  0  0  0  0  0  0  0  0  0
   21.0360  -19.7292  -15.5505 C   0  0  0  0  0  0  0  0  0  0  0  0
   19.7483  -19.9968  -16.1721 C   0  0  0  0  0  0  0  0  0  0  0  0
   18.7476  -19.2741  -16.0876 O   0  0  0  0  0  0  0  0  0  0  0  0
   23.4424  -17.7142  -15.2599 C   0  0  0  0  0  0  0  0  0  0  0  0
   22.9110  -17.4702  -14.1648 O   0  0  0  0  0  0  0  0  0  0  0  0
   19.6340  -21.1651  -16.9252 O   0  0  0  0  0  0  0  0  0  0  0  0
   26.3046  -15.1300  -16.9419 C   0  0  0  0  0  0  0  0  0  0  0  0
   25.6267  -14.9390  -15.5761 C   0  0  2  0  0  0  0  0  0  0  0  0
   26.4101  -15.8291  -14.6314 C   0  0  0  0  0  0  0  0  0  0  0  0
   24.1863  -15.3117  -15.7423 C   0  0  2  0  0  0  0  0  0  0  0  0
   24.0143  -16.7156  -16.0343 N   0  0  0  0  0  0  0  0  0  0  0  0
   23.3627  -14.4899  -16.6090 C   0  0  0  0  0  0  0  0  0  0  0  0
   23.1986  -14.9074  -17.8078 O   0  0  0  0  0  0  0  0  0  0  0  0
   22.7380  -13.2962  -16.2451 N   0  0  0  0  0  0  0  0  0  0  0  0
   21.9410  -12.5751  -17.2988 C   0  0  1  0  0  0  0  0  0  0  0  0
   20.6535  -12.1920  -16.6710 C   0  0  0  0  0  0  0  0  0  0  0  0
   19.5987  -11.4737  -17.3530 C   0  0  0  0  0  0  0  0  0  0  0  0
   18.4085  -10.9403  -16.6728 C   0  0  0  0  0  0  0  0  0  0  0  0
   17.4664  -10.1665  -17.5374 C   0  0  0  0  0  0  0  0  0  0  0  0
   16.3628   -9.5926  -16.8026 N   0  0  0  0  0  0  0  0  0  0  0  0
   22.7788  -11.4312  -17.7369 C   0  0  0  0  0  0  0  0  0  0  0  0
   23.7773  -10.9679  -17.1700 O   0  0  0  0  0  0  0  0  0  0  0  0
   22.4372  -10.7582  -18.9378 O   0  0  0  0  0  0  0  0  0  0  0  0
  2  1  1  1
  2  7  1  0
  3  4  1  0
  3  2  1  0
  5  4  1  0
  6  5  2  0
  7  8  2  0
  9  5  1  0
 11 10  1  6
 11 12  1  0
 13 11  1  0
 14  7  1  0
 13 14  1  6
 15 13  1  0
 15 16  2  0
 17 15  1  0
 18 17  1  0
 18 19  1  1
 20 21  1  0
 20 19  1  0
 22 23  1  0
 22 21  1  0
 24 26  1  0
 24 18  1  0
 25 24  2  0
M  END
$$$$
