CEN.pdb
     RDKit          3D

 24 23  0  0  1  0  0  0  0  0999 V2000
   13.4310  -13.1088  -11.2003 N   0  0  0  0  0  0  0  0  0  0  0  0
   13.0557  -11.7109  -11.0962 C   0  0  1  0  0  0  0  0  0  0  0  0
   11.6765  -11.6161  -10.4311 C   0  0  0  0  0  0  0  0  0  0  0  0
   10.3901  -12.0623  -11.6037 S   0  0  0  0  0  0  0  0  0  0  0  0
   14.0646  -10.9656  -10.3063 C   0  0  0  0  0  0  0  0  0  0  0  0
   14.5230  -11.4855   -9.2661 O   0  0  0  0  0  0  0  0  0  0  0  0
   14.5152   -9.6835  -10.7079 N   0  0  0  0  0  0  0  0  0  0  0  0
   15.5743   -8.9613   -9.9794 C   0  0  1  0  0  0  0  0  0  0  0  0
   16.8565   -9.1748  -10.7010 C   0  0  0  0  0  0  0  0  0  0  0  0
   16.9251   -8.8094  -12.1251 C   0  0  0  0  0  0  0  0  0  0  0  0
   18.2537   -9.0161  -12.7500 C   0  0  0  0  0  0  0  0  0  0  0  0
   18.9756   -8.0351  -13.0409 O   0  0  0  0  0  0  0  0  0  0  0  0
   15.2041   -7.5484   -9.7838 C   0  0  0  0  0  0  0  0  0  0  0  0
   14.5530   -6.9457  -10.6679 O   0  0  0  0  0  0  0  0  0  0  0  0
   18.7496  -10.2835  -13.0360 O   0  0  0  0  0  0  0  0  0  0  0  0
   14.5246   -2.6766   -7.7033 N   0  0  0  0  0  0  0  0  0  0  0  0
   15.0619   -3.5914   -6.7745 C   0  0  0  0  0  0  0  0  0  0  0  0
   15.2047   -3.1439   -5.5857 O   0  0  0  0  0  0  0  0  0  0  0  0
   15.4660   -4.9730   -7.0156 C   0  0  0  0  0  0  0  0  0  0  0  0
   15.1632   -5.3925   -8.4234 C   0  0  2  0  0  0  0  0  0  0  0  0
   15.5466   -6.8038   -8.6256 N   0  0  0  0  0  0  0  0  0  0  0  0
   16.0458   -4.6356   -9.3555 C   0  0  0  0  0  0  0  0  0  0  0  0
   15.8608   -3.3833   -9.5397 O   0  0  0  0  0  0  0  0  0  0  0  0
   17.0923   -5.1840  -10.0714 O   0  0  0  0  0  0  0  0  0  0  0  0
  2  1  1  1
  3  4  1  0
  3  2  1  0
  5  2  1  0
  6  5  2  0
  7  5  1  0
  8  7  1  0
  8  9  1  6
  9 10  1  0
 10 11  1  0
 11 12  2  0
 11 15  1  0
 13  8  1  0
 14 13  2  0
 16 17  1  0
 17 18  2  0
 19 17  1  0
 20 19  1  1
 20 21  1  0
 21 13  1  0
 22 24  1  0
 22 20  1  0
 23 22  2  0
M  END
$$$$
