CEN.pdb
     RDKit          3D

 24 23  0  0  1  0  0  0  0  0999 V2000
   26.2602  -12.9656  -17.6560 N   0  0  0  0  0  0  0  0  0  0  0  0
   26.0571  -12.0405  -16.5567 C   0  0  1  0  0  0  0  0  0  0  0  0
   27.3784  -11.3169  -16.2672 C   0  0  0  0  0  0  0  0  0  0  0  0
   28.5596  -12.4530  -15.5304 S   0  0  0  0  0  0  0  0  0  0  0  0
   24.9948  -11.0641  -16.8967 C   0  0  0  0  0  0  0  0  0  0  0  0
   24.9608  -10.5845  -18.0504 O   0  0  0  0  0  0  0  0  0  0  0  0
   24.0243  -10.6686  -15.9428 N   0  0  0  0  0  0  0  0  0  0  0  0
   22.9668   -9.6912  -16.2598 C   0  0  1  0  0  0  0  0  0  0  0  0
   21.6560  -10.3058  -15.9211 C   0  0  0  0  0  0  0  0  0  0  0  0
   20.4368   -9.5074  -16.1275 C   0  0  0  0  0  0  0  0  0  0  0  0
   19.1739  -10.2248  -15.8296 C   0  0  0  0  0  0  0  0  0  0  0  0
   18.5846  -10.8679  -16.7281 O   0  0  0  0  0  0  0  0  0  0  0  0
   23.2324   -8.4009  -15.5994 C   0  0  0  0  0  0  0  0  0  0  0  0
   23.7256   -8.3789  -14.4482 O   0  0  0  0  0  0  0  0  0  0  0  0
   18.5973  -10.2170  -14.5642 O   0  0  0  0  0  0  0  0  0  0  0  0
   24.7426   -4.5777  -18.7555 N   0  0  0  0  0  0  0  0  0  0  0  0
   24.5735   -4.8702  -17.3866 C   0  0  0  0  0  0  0  0  0  0  0  0
   25.6251   -5.2674  -16.7779 O   0  0  0  0  0  0  0  0  0  0  0  0
   23.3494   -4.7701  -16.5981 C   0  0  0  0  0  0  0  0  0  0  0  0
   23.2777   -5.8520  -15.5618 C   0  0  2  0  0  0  0  0  0  0  0  0
   22.9585   -7.1447  -16.1995 N   0  0  0  0  0  0  0  0  0  0  0  0
   22.1167   -5.5888  -14.6653 C   0  0  0  0  0  0  0  0  0  0  0  0
   20.9807   -6.1217  -14.9135 O   0  0  0  0  0  0  0  0  0  0  0  0
   22.1540   -4.7875  -13.5406 O   0  0  0  0  0  0  0  0  0  0  0  0
  2  1  1  6
  3  4  1  0
  3  2  1  0
  5  2  1  0
  6  5  2  0
  7  5  1  0
  8  7  1  0
  8  9  1  1
  9 10  1  0
 10 11  1  0
 11 12  2  0
 11 15  1  0
 13  8  1  0
 14 13  2  0
 16 17  1  0
 17 18  2  0
 19 17  1  0
 20 19  1  6
 20 21  1  0
 21 13  1  0
 22 24  1  0
 22 20  1  0
 23 22  2  0
M  END
$$$$
