CEN.pdb
     RDKit          3D

 24 23  0  0  1  0  0  0  0  0999 V2000
   15.0818  -13.3786  -11.8480 N   0  0  0  0  0  0  0  0  0  0  0  0
   14.6116  -12.0219  -12.0578 C   0  0  1  0  0  0  0  0  0  0  0  0
   13.1541  -11.9244  -11.5893 C   0  0  0  0  0  0  0  0  0  0  0  0
   12.0744  -12.7893  -12.7360 S   0  0  0  0  0  0  0  0  0  0  0  0
   15.4612  -11.0628  -11.3124 C   0  0  0  0  0  0  0  0  0  0  0  0
   15.7400  -11.3032  -10.1179 O   0  0  0  0  0  0  0  0  0  0  0  0
   15.9593   -9.8870  -11.9269 N   0  0  0  0  0  0  0  0  0  0  0  0
   16.8274   -8.9353  -11.2094 C   0  0  1  0  0  0  0  0  0  0  0  0
   18.0280   -8.6846  -12.0497 C   0  0  0  0  0  0  0  0  0  0  0  0
   18.9992   -7.6760  -11.5958 C   0  0  0  0  0  0  0  0  0  0  0  0
   20.1182   -7.4319  -12.5374 C   0  0  0  0  0  0  0  0  0  0  0  0
   20.4921   -6.2629  -12.7862 O   0  0  0  0  0  0  0  0  0  0  0  0
   16.0760   -7.7257  -10.8302 C   0  0  0  0  0  0  0  0  0  0  0  0
   15.3383   -7.1604  -11.6700 O   0  0  0  0  0  0  0  0  0  0  0  0
   20.7908   -8.4689  -13.1746 O   0  0  0  0  0  0  0  0  0  0  0  0
   13.7592   -3.8316   -8.0158 N   0  0  0  0  0  0  0  0  0  0  0  0
   14.2857   -4.8672   -7.2169 C   0  0  0  0  0  0  0  0  0  0  0  0
   14.0295   -4.7788   -5.9677 O   0  0  0  0  0  0  0  0  0  0  0  0
   15.0782   -6.0133   -7.6514 C   0  0  0  0  0  0  0  0  0  0  0  0
   15.3162   -5.9825   -9.1319 C   0  0  2  0  0  0  0  0  0  0  0  0
   16.1345   -7.1422   -9.5382 N   0  0  0  0  0  0  0  0  0  0  0  0
   16.1635   -4.8020   -9.4625 C   0  0  0  0  0  0  0  0  0  0  0  0
   15.6894   -3.6195   -9.3477 O   0  0  0  0  0  0  0  0  0  0  0  0
   17.4720   -4.8678   -9.9006 O   0  0  0  0  0  0  0  0  0  0  0  0
  2  1  1  1
  3  4  1  0
  3  2  1  0
  5  2  1  0
  6  5  2  0
  7  5  1  0
  8  7  1  0
  8  9  1  6
  9 10  1  0
 10 11  1  0
 11 12  2  0
 11 15  1  0
 13  8  1  0
 14 13  2  0
 16 17  1  0
 17 18  2  0
 19 17  1  0
 20 19  1  1
 20 21  1  0
 21 13  1  0
 22 24  1  0
 22 20  1  0
 23 22  2  0
M  END
$$$$
