CEN.pdb
     RDKit          3D

 24 23  0  0  1  0  0  0  0  0999 V2000
   28.0514  -20.7130  -11.0277 N   0  0  0  0  0  0  0  0  0  0  0  0
   26.6414  -21.0368  -10.9142 C   0  0  1  0  0  0  0  0  0  0  0  0
   26.1336  -20.5672   -9.5449 C   0  0  0  0  0  0  0  0  0  0  0  0
   27.4392  -20.7055   -8.3180 S   0  0  0  0  0  0  0  0  0  0  0  0
   25.8754  -20.3847  -12.0029 C   0  0  0  0  0  0  0  0  0  0  0  0
   25.8993  -19.1386  -12.0971 O   0  0  0  0  0  0  0  0  0  0  0  0
   25.1222  -21.1448  -12.9320 N   0  0  0  0  0  0  0  0  0  0  0  0
   24.3612  -20.5143  -14.0262 C   0  0  1  0  0  0  0  0  0  0  0  0
   25.1515  -20.6562  -15.2775 C   0  0  0  0  0  0  0  0  0  0  0  0
   24.6123  -20.0672  -16.5140 C   0  0  0  0  0  0  0  0  0  0  0  0
   25.4477  -20.2927  -17.7180 C   0  0  0  0  0  0  0  0  0  0  0  0
   25.1670  -21.2131  -18.5195 O   0  0  0  0  0  0  0  0  0  0  0  0
   22.9941  -21.0603  -14.0944 C   0  0  0  0  0  0  0  0  0  0  0  0
   22.7203  -22.1324  -13.5076 O   0  0  0  0  0  0  0  0  0  0  0  0
   26.5589  -19.5082  -18.0071 O   0  0  0  0  0  0  0  0  0  0  0  0
   19.7790  -19.3091  -10.5984 N   0  0  0  0  0  0  0  0  0  0  0  0
   20.0601  -19.9088  -11.8432 C   0  0  0  0  0  0  0  0  0  0  0  0
   19.6480  -21.1114  -11.9767 O   0  0  0  0  0  0  0  0  0  0  0  0
   20.7580  -19.3173  -12.9804 C   0  0  0  0  0  0  0  0  0  0  0  0
   20.6107  -20.1624  -14.2108 C   0  0  2  0  0  0  0  0  0  0  0  0
   21.9362  -20.4328  -14.8019 N   0  0  0  0  0  0  0  0  0  0  0  0
   19.8964  -19.3765  -15.2563 C   0  0  0  0  0  0  0  0  0  0  0  0
   20.5192  -18.4790  -15.9216 O   0  0  0  0  0  0  0  0  0  0  0  0
   18.5650  -19.5338  -15.5895 O   0  0  0  0  0  0  0  0  0  0  0  0
  2  1  1  6
  3  4  1  0
  3  2  1  0
  5  2  1  0
  6  5  2  0
  7  5  1  0
  8  7  1  0
  8  9  1  6
  9 10  1  0
 10 11  1  0
 11 12  2  0
 11 15  1  0
 13  8  1  0
 14 13  2  0
 16 17  1  0
 17 18  2  0
 19 17  1  0
 20 19  1  1
 20 21  1  0
 21 13  1  0
 22 24  1  0
 22 20  1  0
 23 22  2  0
M  END
$$$$
