CEN.pdb
     RDKit          3D

 24 23  0  0  1  0  0  0  0  0999 V2000
   14.7958  -12.8801  -11.4593 N   0  0  0  0  0  0  0  0  0  0  0  0
   14.2362  -11.5665  -11.2002 C   0  0  1  0  0  0  0  0  0  0  0  0
   13.2359  -11.6735  -10.0420 C   0  0  0  0  0  0  0  0  0  0  0  0
   11.7233  -12.4672  -10.5997 S   0  0  0  0  0  0  0  0  0  0  0  0
   15.3145  -10.6055  -10.8670 C   0  0  0  0  0  0  0  0  0  0  0  0
   16.1260  -10.8966   -9.9619 O   0  0  0  0  0  0  0  0  0  0  0  0
   15.4401   -9.3716  -11.5525 N   0  0  0  0  0  0  0  0  0  0  0  0
   16.5512   -8.4386  -11.2896 C   0  0  1  0  0  0  0  0  0  0  0  0
   17.4353   -8.4279  -12.4849 C   0  0  0  0  0  0  0  0  0  0  0  0
   16.8327   -8.6944  -13.8011 C   0  0  0  0  0  0  0  0  0  0  0  0
   17.7478   -8.4890  -14.9495 C   0  0  0  0  0  0  0  0  0  0  0  0
   17.9546   -9.4149  -15.7670 O   0  0  0  0  0  0  0  0  0  0  0  0
   16.0396   -7.1161  -10.8886 C   0  0  0  0  0  0  0  0  0  0  0  0
   14.9846   -6.6741  -11.3990 O   0  0  0  0  0  0  0  0  0  0  0  0
   18.4050   -7.2831  -15.1677 O   0  0  0  0  0  0  0  0  0  0  0  0
   15.2718   -2.4701   -8.3978 N   0  0  0  0  0  0  0  0  0  0  0  0
   16.2932   -3.2388   -7.8028 C   0  0  0  0  0  0  0  0  0  0  0  0
   16.8048   -2.7417   -6.7421 O   0  0  0  0  0  0  0  0  0  0  0  0
   16.8226   -4.5213   -8.2558 C   0  0  0  0  0  0  0  0  0  0  0  0
   16.1694   -4.9611   -9.5323 C   0  0  2  0  0  0  0  0  0  0  0  0
   16.6821   -6.2860   -9.9340 N   0  0  0  0  0  0  0  0  0  0  0  0
   16.5972   -4.0531  -10.6339 C   0  0  0  0  0  0  0  0  0  0  0  0
   17.8145   -4.0500  -11.0267 O   0  0  0  0  0  0  0  0  0  0  0  0
   15.7648   -3.1751  -11.3008 O   0  0  0  0  0  0  0  0  0  0  0  0
  2  1  1  1
  3  4  1  0
  3  2  1  0
  5  2  1  0
  6  5  2  0
  7  5  1  0
  8  7  1  0
  8  9  1  6
  9 10  1  0
 10 11  1  0
 11 12  2  0
 11 15  1  0
 13  8  1  0
 14 13  2  0
 16 17  1  0
 17 18  2  0
 19 17  1  0
 20 19  1  1
 20 21  1  0
 21 13  1  0
 22 24  1  0
 22 20  1  0
 23 22  2  0
M  END
$$$$
