CEN.pdb
     RDKit          3D

 24 23  0  0  1  0  0  0  0  0999 V2000
   27.5733  -11.4208  -18.3140 N   0  0  0  0  0  0  0  0  0  0  0  0
   26.7848  -11.1978  -17.1164 C   0  0  1  0  0  0  0  0  0  0  0  0
   27.6503  -10.4670  -16.0819 C   0  0  0  0  0  0  0  0  0  0  0  0
   28.8492  -11.5978  -15.3658 S   0  0  0  0  0  0  0  0  0  0  0  0
   25.5768  -10.4009  -17.4377 C   0  0  0  0  0  0  0  0  0  0  0  0
   25.6426   -9.5408  -18.3423 O   0  0  0  0  0  0  0  0  0  0  0  0
   24.3579  -10.5967  -16.7421 N   0  0  0  0  0  0  0  0  0  0  0  0
   23.1472   -9.8119  -17.0462 C   0  0  1  0  0  0  0  0  0  0  0  0
   22.0125  -10.7594  -17.2044 C   0  0  0  0  0  0  0  0  0  0  0  0
   21.8553  -11.4509  -18.4942 C   0  0  0  0  0  0  0  0  0  0  0  0
   20.7286  -12.4135  -18.5429 C   0  0  0  0  0  0  0  0  0  0  0  0
   19.7350  -12.1880  -19.2709 O   0  0  0  0  0  0  0  0  0  0  0  0
   22.9375   -8.7612  -16.0344 C   0  0  0  0  0  0  0  0  0  0  0  0
   22.9299   -9.0591  -14.8178 O   0  0  0  0  0  0  0  0  0  0  0  0
   20.7236  -13.5876  -17.7977 O   0  0  0  0  0  0  0  0  0  0  0  0
   21.8149   -2.6320  -15.2547 N   0  0  0  0  0  0  0  0  0  0  0  0
   22.2550   -3.9459  -14.9937 C   0  0  0  0  0  0  0  0  0  0  0  0
   22.3983   -4.2396  -13.7579 O   0  0  0  0  0  0  0  0  0  0  0  0
   22.5595   -4.9933  -15.9634 C   0  0  0  0  0  0  0  0  0  0  0  0
   22.4356   -6.3568  -15.3509 C   0  0  2  0  0  0  0  0  0  0  0  0
   22.7378   -7.3941  -16.3571 N   0  0  0  0  0  0  0  0  0  0  0  0
   21.0098   -6.5992  -14.9912 C   0  0  0  0  0  0  0  0  0  0  0  0
   20.6068   -6.3970  -13.7942 O   0  0  0  0  0  0  0  0  0  0  0  0
   20.0389   -7.0413  -15.8689 O   0  0  0  0  0  0  0  0  0  0  0  0
  2  1  1  6
  3  4  1  0
  3  2  1  0
  5  2  1  0
  6  5  2  0
  7  5  1  0
  8  7  1  0
  8  9  1  1
  9 10  1  0
 10 11  1  0
 11 12  2  0
 11 15  1  0
 13  8  1  0
 14 13  2  0
 16 17  1  0
 17 18  2  0
 19 17  1  0
 20 19  1  6
 20 21  1  0
 21 13  1  0
 22 24  1  0
 22 20  1  0
 23 22  2  0
M  END
$$$$
