CEN.pdb
     RDKit          3D

 24 23  0  0  1  0  0  0  0  0999 V2000
   20.3829  -10.7331  -16.0526 N   0  0  0  0  0  0  0  0  0  0  0  0
   19.2475   -9.8991  -15.7048 C   0  0  1  0  0  0  0  0  0  0  0  0
   17.9560  -10.6456  -16.0627 C   0  0  0  0  0  0  0  0  0  0  0  0
   17.6379  -10.5249  -17.8270 S   0  0  0  0  0  0  0  0  0  0  0  0
   19.2740   -9.5722  -14.2592 C   0  0  0  0  0  0  0  0  0  0  0  0
   19.4789  -10.4895  -13.4352 O   0  0  0  0  0  0  0  0  0  0  0  0
   19.0729   -8.2470  -13.7992 N   0  0  0  0  0  0  0  0  0  0  0  0
   19.1891   -7.8859  -12.3744 C   0  0  1  0  0  0  0  0  0  0  0  0
   20.3313   -6.9453  -12.2299 C   0  0  0  0  0  0  0  0  0  0  0  0
   20.3781   -5.7644  -13.1072 C   0  0  0  0  0  0  0  0  0  0  0  0
   21.5560   -4.8886  -12.8977 C   0  0  0  0  0  0  0  0  0  0  0  0
   22.7149   -5.3454  -13.0264 O   0  0  0  0  0  0  0  0  0  0  0  0
   17.9049   -7.3816  -11.8565 C   0  0  0  0  0  0  0  0  0  0  0  0
   17.1973   -6.6308  -12.5666 O   0  0  0  0  0  0  0  0  0  0  0  0
   21.4308   -3.5465  -12.5559 O   0  0  0  0  0  0  0  0  0  0  0  0
   13.6830   -6.3830   -8.7330 N   0  0  0  0  0  0  0  0  0  0  0  0
   14.1660   -7.7072   -8.6954 C   0  0  0  0  0  0  0  0  0  0  0  0
   13.4047   -8.5509   -8.1102 O   0  0  0  0  0  0  0  0  0  0  0  0
   15.4198   -8.2147   -9.2436 C   0  0  0  0  0  0  0  0  0  0  0  0
   16.1370   -7.1600  -10.0328 C   0  0  2  0  0  0  0  0  0  0  0  0
   17.4024   -7.7000  -10.5683 N   0  0  0  0  0  0  0  0  0  0  0  0
   16.5646   -6.0707   -9.1101 C   0  0  0  0  0  0  0  0  0  0  0  0
   17.6700   -6.1659   -8.4737 O   0  0  0  0  0  0  0  0  0  0  0  0
   15.8469   -4.9156   -8.8670 O   0  0  0  0  0  0  0  0  0  0  0  0
  2  1  1  1
  3  4  1  0
  3  2  1  0
  5  2  1  0
  6  5  2  0
  7  5  1  0
  8  7  1  0
  8  9  1  6
  9 10  1  0
 10 11  1  0
 11 12  2  0
 11 15  1  0
 13  8  1  0
 14 13  2  0
 16 17  1  0
 17 18  2  0
 19 17  1  0
 20 19  1  1
 20 21  1  0
 21 13  1  0
 22 24  1  0
 22 20  1  0
 23 22  2  0
M  END
$$$$
