CEN.pdb
     RDKit          3D

 24 23  0  0  1  0  0  0  0  0999 V2000
   27.7734  -21.2935  -10.4965 N   0  0  0  0  0  0  0  0  0  0  0  0
   26.3966  -20.9413  -10.2027 C   0  0  1  0  0  0  0  0  0  0  0  0
   26.3773  -19.9519   -9.0305 C   0  0  0  0  0  0  0  0  0  0  0  0
   25.7857  -20.7653   -7.5415 S   0  0  0  0  0  0  0  0  0  0  0  0
   25.7534  -20.3432  -11.3969 C   0  0  0  0  0  0  0  0  0  0  0  0
   25.6353  -19.1006  -11.4618 O   0  0  0  0  0  0  0  0  0  0  0  0
   25.2741  -21.1506  -12.4583 N   0  0  0  0  0  0  0  0  0  0  0  0
   24.6246  -20.5741  -13.6498 C   0  0  1  0  0  0  0  0  0  0  0  0
   25.4765  -20.8771  -14.8300 C   0  0  0  0  0  0  0  0  0  0  0  0
   26.5976  -21.8154  -14.6589 C   0  0  0  0  0  0  0  0  0  0  0  0
   27.4224  -22.0166  -15.8745 C   0  0  0  0  0  0  0  0  0  0  0  0
   28.5295  -21.4428  -15.9900 O   0  0  0  0  0  0  0  0  0  0  0  0
   23.2299  -21.0368  -13.7604 C   0  0  0  0  0  0  0  0  0  0  0  0
   22.8366  -22.0040  -13.0685 O   0  0  0  0  0  0  0  0  0  0  0  0
   27.0130  -22.8354  -16.9213 O   0  0  0  0  0  0  0  0  0  0  0  0
   17.9962  -21.1843  -14.8996 N   0  0  0  0  0  0  0  0  0  0  0  0
   18.5804  -20.1621  -14.1237 C   0  0  0  0  0  0  0  0  0  0  0  0
   17.7629  -19.4682  -13.4279 O   0  0  0  0  0  0  0  0  0  0  0  0
   19.9945  -19.8141  -14.0268 C   0  0  0  0  0  0  0  0  0  0  0  0
   20.8582  -20.8532  -14.6778 C   0  0  2  0  0  0  0  0  0  0  0  0
   22.2749  -20.4412  -14.6243 N   0  0  0  0  0  0  0  0  0  0  0  0
   20.5450  -20.9012  -16.1340 C   0  0  0  0  0  0  0  0  0  0  0  0
   21.2713  -20.2585  -16.9680 O   0  0  0  0  0  0  0  0  0  0  0  0
   19.4970  -21.6068  -16.6928 O   0  0  0  0  0  0  0  0  0  0  0  0
  2  1  1  6
  3  4  1  0
  3  2  1  0
  5  2  1  0
  6  5  2  0
  7  5  1  0
  8  7  1  0
  8  9  1  6
  9 10  1  0
 10 11  1  0
 11 12  2  0
 11 15  1  0
 13  8  1  0
 14 13  2  0
 16 17  1  0
 17 18  2  0
 19 17  1  0
 20 19  1  1
 20 21  1  0
 21 13  1  0
 22 24  1  0
 22 20  1  0
 23 22  2  0
M  END
$$$$
