CEN.pdb
     RDKit          3D

 24 23  0  0  1  0  0  0  0  0999 V2000
   13.2834  -11.7236   -9.3693 N   0  0  0  0  0  0  0  0  0  0  0  0
   13.1654  -10.2968   -9.6062 C   0  0  1  0  0  0  0  0  0  0  0  0
   12.2824   -9.6840   -8.5116 C   0  0  0  0  0  0  0  0  0  0  0  0
   10.5520  -10.0422   -8.8372 S   0  0  0  0  0  0  0  0  0  0  0  0
   14.5057   -9.6636   -9.6063 C   0  0  0  0  0  0  0  0  0  0  0  0
   15.2425   -9.8069   -8.6068 O   0  0  0  0  0  0  0  0  0  0  0  0
   14.9625   -8.9046  -10.7124 N   0  0  0  0  0  0  0  0  0  0  0  0
   16.2800   -8.2428  -10.7182 C   0  0  1  0  0  0  0  0  0  0  0  0
   17.0011   -8.6644  -11.9481 C   0  0  0  0  0  0  0  0  0  0  0  0
   18.2583   -7.9793  -12.2895 C   0  0  0  0  0  0  0  0  0  0  0  0
   18.8651   -8.4101  -13.5720 C   0  0  0  0  0  0  0  0  0  0  0  0
   19.2049   -7.5613  -14.4277 O   0  0  0  0  0  0  0  0  0  0  0  0
   16.1336   -6.7852  -10.5578 C   0  0  0  0  0  0  0  0  0  0  0  0
   15.2926   -6.1629  -11.2465 O   0  0  0  0  0  0  0  0  0  0  0  0
   19.0807   -9.7495  -13.8774 O   0  0  0  0  0  0  0  0  0  0  0  0
   16.9198   -1.7185   -9.0090 N   0  0  0  0  0  0  0  0  0  0  0  0
   17.3250   -2.6662   -8.0467 C   0  0  0  0  0  0  0  0  0  0  0  0
   17.7006   -2.1810   -6.9253 O   0  0  0  0  0  0  0  0  0  0  0  0
   17.3613   -4.1186   -8.1860 C   0  0  0  0  0  0  0  0  0  0  0  0
   16.7595   -4.5572   -9.4879 C   0  0  2  0  0  0  0  0  0  0  0  0
   16.9052   -6.0176   -9.6475 N   0  0  0  0  0  0  0  0  0  0  0  0
   17.5576   -3.9845  -10.6086 C   0  0  0  0  0  0  0  0  0  0  0  0
   17.5369   -2.7254  -10.8331 O   0  0  0  0  0  0  0  0  0  0  0  0
   18.3538   -4.7188  -11.4660 O   0  0  0  0  0  0  0  0  0  0  0  0
  2  1  1  1
  3  4  1  0
  3  2  1  0
  5  2  1  0
  6  5  2  0
  7  5  1  0
  8  7  1  0
  8  9  1  6
  9 10  1  0
 10 11  1  0
 11 12  2  0
 11 15  1  0
 13  8  1  0
 14 13  2  0
 16 17  1  0
 17 18  2  0
 19 17  1  0
 20 19  1  1
 20 21  1  0
 21 13  1  0
 22 24  1  0
 22 20  1  0
 23 22  2  0
M  END
$$$$
