CEN.pdb
     RDKit          3D

 24 23  0  0  1  0  0  0  0  0999 V2000
   27.9896  -21.3511  -16.7095 N   0  0  0  0  0  0  0  0  0  0  0  0
   27.6822  -20.4047  -15.6532 C   0  0  1  0  0  0  0  0  0  0  0  0
   27.1905  -19.0970  -16.2869 C   0  0  0  0  0  0  0  0  0  0  0  0
   28.5676  -18.2080  -17.0233 S   0  0  0  0  0  0  0  0  0  0  0  0
   26.6494  -20.9628  -14.7482 C   0  0  0  0  0  0  0  0  0  0  0  0
   25.7937  -21.7447  -15.2159 O   0  0  0  0  0  0  0  0  0  0  0  0
   26.6164  -20.6276  -13.3717 N   0  0  0  0  0  0  0  0  0  0  0  0
   25.4582  -20.9437  -12.5157 C   0  0  1  0  0  0  0  0  0  0  0  0
   25.8602  -20.7295  -11.1005 C   0  0  0  0  0  0  0  0  0  0  0  0
   24.8346  -20.8724  -10.0544 C   0  0  0  0  0  0  0  0  0  0  0  0
   25.3448  -20.7319   -8.6693 C   0  0  0  0  0  0  0  0  0  0  0  0
   26.4481  -20.1800   -8.4545 O   0  0  0  0  0  0  0  0  0  0  0  0
   24.2701  -20.1831  -12.9417 C   0  0  0  0  0  0  0  0  0  0  0  0
   24.3975  -19.0092  -13.3595 O   0  0  0  0  0  0  0  0  0  0  0  0
   24.6357  -21.1969   -7.5672 O   0  0  0  0  0  0  0  0  0  0  0  0
   21.3112  -21.3463  -16.8120 N   0  0  0  0  0  0  0  0  0  0  0  0
   21.4585  -21.0849  -15.4343 C   0  0  0  0  0  0  0  0  0  0  0  0
   21.3706  -22.1065  -14.6711 O   0  0  0  0  0  0  0  0  0  0  0  0
   21.6982  -19.7965  -14.7919 C   0  0  0  0  0  0  0  0  0  0  0  0
   21.7581  -19.9335  -13.2995 C   0  0  2  0  0  0  0  0  0  0  0  0
   22.9525  -20.7085  -12.9090 N   0  0  0  0  0  0  0  0  0  0  0  0
   20.6127  -20.7703  -12.8429 C   0  0  0  0  0  0  0  0  0  0  0  0
   20.8222  -21.9351  -12.3578 O   0  0  0  0  0  0  0  0  0  0  0  0
   19.2860  -20.3887  -12.8965 O   0  0  0  0  0  0  0  0  0  0  0  0
  2  1  1  6
  3  4  1  0
  3  2  1  0
  5  2  1  0
  6  5  2  0
  7  5  1  0
  8  7  1  0
  8  9  1  1
  9 10  1  0
 10 11  1  0
 11 12  2  0
 11 15  1  0
 13  8  1  0
 14 13  2  0
 16 17  1  0
 17 18  2  0
 19 17  1  0
 20 19  1  6
 20 21  1  0
 21 13  1  0
 22 24  1  0
 22 20  1  0
 23 22  2  0
M  END
$$$$
