CEN.pdb
     RDKit          3D

 24 23  0  0  1  0  0  0  0  0999 V2000
   19.8669  -12.3755  -15.8988 N   0  0  0  0  0  0  0  0  0  0  0  0
   19.7046  -11.1651  -16.6825 C   0  0  1  0  0  0  0  0  0  0  0  0
   18.2385  -10.7195  -16.6086 C   0  0  0  0  0  0  0  0  0  0  0  0
   17.2197  -11.7604  -17.6608 S   0  0  0  0  0  0  0  0  0  0  0  0
   20.5974  -10.0982  -16.1706 C   0  0  0  0  0  0  0  0  0  0  0  0
   20.6039   -9.8511  -14.9454 O   0  0  0  0  0  0  0  0  0  0  0  0
   21.4375   -9.3594  -17.0405 N   0  0  0  0  0  0  0  0  0  0  0  0
   22.3901   -8.3511  -16.5408 C   0  0  1  0  0  0  0  0  0  0  0  0
   23.5845   -8.3684  -17.4259 C   0  0  0  0  0  0  0  0  0  0  0  0
   24.6459   -7.3774  -17.1852 C   0  0  0  0  0  0  0  0  0  0  0  0
   25.8394   -7.5315  -18.0514 C   0  0  0  0  0  0  0  0  0  0  0  0
   26.7106   -8.3895  -17.7813 O   0  0  0  0  0  0  0  0  0  0  0  0
   21.7384   -7.0360  -16.4093 C   0  0  0  0  0  0  0  0  0  0  0  0
   20.9616   -6.6322  -17.3050 O   0  0  0  0  0  0  0  0  0  0  0  0
   26.0421   -6.7463  -19.1811 O   0  0  0  0  0  0  0  0  0  0  0  0
   19.5656   -2.6172  -14.5076 N   0  0  0  0  0  0  0  0  0  0  0  0
   19.0544   -3.9313  -14.5091 C   0  0  0  0  0  0  0  0  0  0  0  0
   17.8172   -4.0375  -14.2061 O   0  0  0  0  0  0  0  0  0  0  0  0
   19.7702   -5.1660  -14.8149 C   0  0  0  0  0  0  0  0  0  0  0  0
   21.2134   -4.8981  -15.1231 C   0  0  2  0  0  0  0  0  0  0  0  0
   21.9386   -6.1716  -15.3020 N   0  0  0  0  0  0  0  0  0  0  0  0
   21.8560   -4.2746  -13.9318 C   0  0  0  0  0  0  0  0  0  0  0  0
   22.4059   -5.0096  -13.0410 O   0  0  0  0  0  0  0  0  0  0  0  0
   21.9167   -2.9160  -13.6886 O   0  0  0  0  0  0  0  0  0  0  0  0
  2  1  1  1
  3  4  1  0
  3  2  1  0
  5  2  1  0
  6  5  2  0
  7  5  1  0
  8  7  1  0
  8  9  1  6
  9 10  1  0
 10 11  1  0
 11 12  2  0
 11 15  1  0
 13  8  1  0
 14 13  2  0
 16 17  1  0
 17 18  2  0
 19 17  1  0
 20 19  1  1
 20 21  1  0
 21 13  1  0
 22 24  1  0
 22 20  1  0
 23 22  2  0
M  END
$$$$
