CEN.pdb
     RDKit          3D

 24 23  0  0  1  0  0  0  0  0999 V2000
   14.2623  -11.3051  -10.4562 N   0  0  0  0  0  0  0  0  0  0  0  0
   15.4863  -10.7280   -9.9319 C   0  0  1  0  0  0  0  0  0  0  0  0
   16.6811  -11.5220  -10.4753 C   0  0  0  0  0  0  0  0  0  0  0  0
   16.7155  -13.1657   -9.7501 S   0  0  0  0  0  0  0  0  0  0  0  0
   15.5903   -9.3019  -10.3228 C   0  0  0  0  0  0  0  0  0  0  0  0
   15.2275   -8.9609  -11.4693 O   0  0  0  0  0  0  0  0  0  0  0  0
   16.0901   -8.3260   -9.4251 N   0  0  0  0  0  0  0  0  0  0  0  0
   16.1497   -6.8953   -9.7765 C   0  0  1  0  0  0  0  0  0  0  0  0
   15.5002   -6.1256   -8.6829 C   0  0  0  0  0  0  0  0  0  0  0  0
   15.3776   -4.6666   -8.8338 C   0  0  0  0  0  0  0  0  0  0  0  0
   14.5001   -4.0159   -7.8313 C   0  0  0  0  0  0  0  0  0  0  0  0
   14.3461   -2.7732   -7.8370 O   0  0  0  0  0  0  0  0  0  0  0  0
   17.5333   -6.4887  -10.0800 C   0  0  0  0  0  0  0  0  0  0  0  0
   18.4705   -6.8624   -9.3379 O   0  0  0  0  0  0  0  0  0  0  0  0
   13.8211   -4.7411   -6.8582 O   0  0  0  0  0  0  0  0  0  0  0  0
   21.7521   -6.5557  -10.6640 N   0  0  0  0  0  0  0  0  0  0  0  0
   20.9808   -7.3040  -11.5767 C   0  0  0  0  0  0  0  0  0  0  0  0
   21.4512   -8.4541  -11.8767 O   0  0  0  0  0  0  0  0  0  0  0  0
   19.7223   -6.9178  -12.2071 C   0  0  0  0  0  0  0  0  0  0  0  0
   19.2577   -5.5769  -11.7217 C   0  0  2  0  0  0  0  0  0  0  0  0
   17.8840   -5.6780  -11.1903 N   0  0  0  0  0  0  0  0  0  0  0  0
   19.1334   -4.6558  -12.8866 C   0  0  0  0  0  0  0  0  0  0  0  0
   18.0409   -4.6039  -13.5498 O   0  0  0  0  0  0  0  0  0  0  0  0
   20.1322   -3.8147  -13.3375 O   0  0  0  0  0  0  0  0  0  0  0  0
  2  1  1  6
  3  4  1  0
  3  2  1  0
  5  2  1  0
  6  5  2  0
  7  5  1  0
  8  7  1  0
  8  9  1  1
  9 10  1  0
 10 11  1  0
 11 12  2  0
 11 15  1  0
 13  8  1  0
 14 13  2  0
 16 17  1  0
 17 18  2  0
 19 17  1  0
 20 19  1  6
 20 21  1  0
 21 13  1  0
 22 24  1  0
 22 20  1  0
 23 22  2  0
M  END
$$$$
