CEN.pdb
     RDKit          3D

 24 23  0  0  1  0  0  0  0  0999 V2000
   27.1249  -11.5562  -18.6422 N   0  0  0  0  0  0  0  0  0  0  0  0
   26.4302  -11.3138  -17.3914 C   0  0  1  0  0  0  0  0  0  0  0  0
   27.4227  -10.7291  -16.3783 C   0  0  0  0  0  0  0  0  0  0  0  0
   28.3022  -12.0512  -15.5373 S   0  0  0  0  0  0  0  0  0  0  0  0
   25.2977  -10.3815  -17.6053 C   0  0  0  0  0  0  0  0  0  0  0  0
   25.4677   -9.3802  -18.3338 O   0  0  0  0  0  0  0  0  0  0  0  0
   24.0348  -10.6050  -17.0025 N   0  0  0  0  0  0  0  0  0  0  0  0
   22.8671   -9.7520  -17.2902 C   0  0  1  0  0  0  0  0  0  0  0  0
   21.7191  -10.6385  -17.6165 C   0  0  0  0  0  0  0  0  0  0  0  0
   20.4245  -10.0150  -17.9354 C   0  0  0  0  0  0  0  0  0  0  0  0
   19.3216  -10.9762  -18.1769 C   0  0  0  0  0  0  0  0  0  0  0  0
   18.2178  -10.5761  -18.6123 O   0  0  0  0  0  0  0  0  0  0  0  0
   22.6236   -8.8088  -16.1844 C   0  0  0  0  0  0  0  0  0  0  0  0
   22.7225   -9.1988  -14.9983 O   0  0  0  0  0  0  0  0  0  0  0  0
   19.4594  -12.3388  -17.9360 O   0  0  0  0  0  0  0  0  0  0  0  0
   22.9505   -3.7105  -13.6271 N   0  0  0  0  0  0  0  0  0  0  0  0
   22.1379   -4.1092  -14.7084 C   0  0  0  0  0  0  0  0  0  0  0  0
   21.0048   -3.5229  -14.7866 O   0  0  0  0  0  0  0  0  0  0  0  0
   22.4429   -5.1015  -15.7343 C   0  0  0  0  0  0  0  0  0  0  0  0
   22.0956   -6.4863  -15.2746 C   0  0  2  0  0  0  0  0  0  0  0  0
   22.2744   -7.4476  -16.3807 N   0  0  0  0  0  0  0  0  0  0  0  0
   20.6381   -6.5449  -14.9698 C   0  0  0  0  0  0  0  0  0  0  0  0
   20.1954   -6.0854  -13.8612 O   0  0  0  0  0  0  0  0  0  0  0  0
   19.6769   -7.0723  -15.8103 O   0  0  0  0  0  0  0  0  0  0  0  0
  2  1  1  6
  3  4  1  0
  3  2  1  0
  5  2  1  0
  6  5  2  0
  7  5  1  0
  8  7  1  0
  8  9  1  1
  9 10  1  0
 10 11  1  0
 11 12  2  0
 11 15  1  0
 13  8  1  0
 14 13  2  0
 16 17  1  0
 17 18  2  0
 19 17  1  0
 20 19  1  6
 20 21  1  0
 21 13  1  0
 22 24  1  0
 22 20  1  0
 23 22  2  0
M  END
$$$$
