SAC.pdb
     RDKit          3D

 18 17  0  0  1  0  0  0  0  0999 V2000
   10.3056  -18.0889   18.7168 O   0  0  0  0  0  0  0  0  0  0  0  0
    9.0197  -17.7448   18.3125 C   0  0  0  0  0  0  0  0  0  0  0  0
    9.0313  -16.5675   17.3523 C   0  0  2  0  0  0  0  0  0  0  0  0
   10.1589  -16.6934   16.4658 N   0  0  0  0  0  0  0  0  0  0  0  0
    9.1290  -15.3400   18.1919 C   0  0  0  0  0  0  0  0  0  0  0  0
   10.2844  -14.9398   18.4923 O   0  0  0  0  0  0  0  0  0  0  0  0
    6.8096  -12.7270   19.6024 C   0  0  0  0  0  0  0  0  0  0  0  0
    8.1436  -13.4019   19.3572 C   0  0  2  0  0  0  0  0  0  0  0  0
    7.9887  -14.6352   18.6457 N   0  0  0  0  0  0  0  0  0  0  0  0
    8.9018  -13.5769   20.6305 C   0  0  0  0  0  0  0  0  0  0  0  0
    9.0914  -12.5853   21.3532 O   0  0  0  0  0  0  0  0  0  0  0  0
    9.3923  -14.8553   20.9996 N   0  0  0  0  0  0  0  0  0  0  0  0
   10.0347  -15.0912   22.2954 C   0  0  1  0  0  0  0  0  0  0  0  0
    8.9941  -14.8882   23.3778 C   0  0  0  0  0  0  0  0  0  0  0  0
    9.6930  -15.1508   25.0239 S   0  0  0  0  0  0  0  0  0  0  0  0
   10.6120  -16.4429   22.3658 C   0  0  0  0  0  0  0  0  0  0  0  0
    9.9982  -17.3698   21.7813 O   0  0  0  0  0  0  0  0  0  0  0  0
   11.7873  -16.7566   23.0347 O   0  0  0  0  0  0  0  0  0  0  0  0
  2  1  1  0
  3  4  1  6
  3  2  1  0
  5  3  1  0
  6  5  2  0
  8  7  1  1
  8  9  1  0
  9  5  1  0
 10 12  1  0
 10  8  1  0
 11 10  2  0
 13 16  1  0
 13 14  1  1
 13 12  1  0
 14 15  1  0
 16 18  1  0
 17 16  2  0
M  END
$$$$
