SAC.pdb
     RDKit          3D

 18 17  0  0  1  0  0  0  0  0999 V2000
   10.5659  -13.6337   20.5792 O   0  0  0  0  0  0  0  0  0  0  0  0
    9.6006  -12.8877   19.9105 C   0  0  0  0  0  0  0  0  0  0  0  0
    8.3549  -13.7101   19.6273 C   0  0  2  0  0  0  0  0  0  0  0  0
    7.4399  -12.9241   18.8410 N   0  0  0  0  0  0  0  0  0  0  0  0
    7.7735  -14.0643   20.9531 C   0  0  0  0  0  0  0  0  0  0  0  0
    7.1560  -13.1572   21.5704 O   0  0  0  0  0  0  0  0  0  0  0  0
    7.0504  -17.1019   22.9958 C   0  0  0  0  0  0  0  0  0  0  0  0
    7.3494  -15.6281   22.8132 C   0  0  2  0  0  0  0  0  0  0  0  0
    7.8953  -15.3565   21.5173 N   0  0  0  0  0  0  0  0  0  0  0  0
    8.2199  -15.1141   23.9107 C   0  0  0  0  0  0  0  0  0  0  0  0
    9.4469  -15.0668   23.7267 O   0  0  0  0  0  0  0  0  0  0  0  0
    7.6476  -14.6902   25.1370 N   0  0  0  0  0  0  0  0  0  0  0  0
    8.4634  -14.1253   26.2154 C   0  0  1  0  0  0  0  0  0  0  0  0
    7.5664  -13.2604   27.0772 C   0  0  0  0  0  0  0  0  0  0  0  0
    6.6526  -12.0594   26.0824 S   0  0  0  0  0  0  0  0  0  0  0  0
    9.0991  -15.1853   27.0139 C   0  0  0  0  0  0  0  0  0  0  0  0
    8.7201  -16.3671   26.8207 O   0  0  0  0  0  0  0  0  0  0  0  0
   10.0871  -14.9622   27.9632 O   0  0  0  0  0  0  0  0  0  0  0  0
  2  1  1  0
  3  4  1  6
  3  2  1  0
  5  3  1  0
  6  5  2  0
  8  7  1  1
  8  9  1  0
  9  5  1  0
 10 12  1  0
 10  8  1  0
 11 10  2  0
 13 16  1  0
 13 14  1  1
 13 12  1  0
 14 15  1  0
 16 18  1  0
 17 16  2  0
M  END
$$$$
