SAC.pdb
     RDKit          3D

 18 17  0  0  1  0  0  0  0  0999 V2000
   10.2266  -12.7695   18.8885 O   0  0  0  0  0  0  0  0  0  0  0  0
    9.3390  -12.7713   19.9598 C   0  0  0  0  0  0  0  0  0  0  0  0
    8.3156  -13.8874   19.8365 C   0  0  2  0  0  0  0  0  0  0  0  0
    7.2501  -13.4563   18.9693 N   0  0  0  0  0  0  0  0  0  0  0  0
    7.8223  -14.1609   21.2161 C   0  0  0  0  0  0  0  0  0  0  0  0
    6.9787  -13.3579   21.6944 O   0  0  0  0  0  0  0  0  0  0  0  0
    7.5943  -17.0852   23.4588 C   0  0  0  0  0  0  0  0  0  0  0  0
    7.6243  -15.5900   23.2170 C   0  0  2  0  0  0  0  0  0  0  0  0
    8.2662  -15.2681   21.9779 N   0  0  0  0  0  0  0  0  0  0  0  0
    8.2346  -14.8689   24.3721 C   0  0  0  0  0  0  0  0  0  0  0  0
    9.4620  -14.6820   24.3778 O   0  0  0  0  0  0  0  0  0  0  0  0
    7.4201  -14.4096   25.4382 N   0  0  0  0  0  0  0  0  0  0  0  0
    7.9801  -13.6788   26.5784 C   0  0  1  0  0  0  0  0  0  0  0  0
    6.8363  -13.0104   27.3136 C   0  0  0  0  0  0  0  0  0  0  0  0
    5.8320  -12.0038   26.1977 S   0  0  0  0  0  0  0  0  0  0  0  0
    8.7279  -14.5773   27.4720 C   0  0  0  0  0  0  0  0  0  0  0  0
    9.3319  -14.0613   28.4449 O   0  0  0  0  0  0  0  0  0  0  0  0
    8.8076  -15.9535   27.3080 O   0  0  0  0  0  0  0  0  0  0  0  0
  2  1  1  0
  3  4  1  6
  3  2  1  0
  5  3  1  0
  6  5  2  0
  8  7  1  1
  8  9  1  0
  9  5  1  0
 10 12  1  0
 10  8  1  0
 11 10  2  0
 13 16  1  0
 13 14  1  1
 13 12  1  0
 14 15  1  0
 16 18  1  0
 17 16  2  0
M  END
$$$$
