SAC.pdb
     RDKit          3D

 18 17  0  0  1  0  0  0  0  0999 V2000
   11.1150  -13.4265   18.3649 O   0  0  0  0  0  0  0  0  0  0  0  0
   10.2873  -13.3747   19.4819 C   0  0  0  0  0  0  0  0  0  0  0  0
    8.9238  -13.9811   19.1964 C   0  0  2  0  0  0  0  0  0  0  0  0
    8.1518  -13.0555   18.4088 N   0  0  0  0  0  0  0  0  0  0  0  0
    8.2899  -14.2347   20.5212 C   0  0  0  0  0  0  0  0  0  0  0  0
    7.7605  -13.2513   21.1025 O   0  0  0  0  0  0  0  0  0  0  0  0
    7.4729  -17.1442   22.7537 C   0  0  0  0  0  0  0  0  0  0  0  0
    7.7184  -15.6839   22.4340 C   0  0  2  0  0  0  0  0  0  0  0  0
    8.2694  -15.5157   21.1227 N   0  0  0  0  0  0  0  0  0  0  0  0
    8.5557  -15.0348   23.4849 C   0  0  0  0  0  0  0  0  0  0  0  0
    9.3438  -14.1361   23.1492 O   0  0  0  0  0  0  0  0  0  0  0  0
    8.4463  -15.4436   24.8384 N   0  0  0  0  0  0  0  0  0  0  0  0
    8.4946  -14.4807   25.9421 C   0  0  1  0  0  0  0  0  0  0  0  0
    7.3733  -13.4818   25.7414 C   0  0  0  0  0  0  0  0  0  0  0  0
    7.3320  -12.2586   27.0714 S   0  0  0  0  0  0  0  0  0  0  0  0
    8.3728  -15.1557   27.2439 C   0  0  0  0  0  0  0  0  0  0  0  0
    7.5258  -16.0776   27.3453 O   0  0  0  0  0  0  0  0  0  0  0  0
    9.1318  -14.8389   28.3623 O   0  0  0  0  0  0  0  0  0  0  0  0
  2  1  1  0
  3  4  1  6
  3  2  1  0
  5  3  1  0
  6  5  2  0
  8  7  1  1
  8  9  1  0
  9  5  1  0
 10 12  1  0
 10  8  1  0
 11 10  2  0
 13 16  1  0
 13 14  1  6
 13 12  1  0
 14 15  1  0
 16 18  1  0
 17 16  2  0
M  END
$$$$
