SAC.pdb
     RDKit          3D

 18 17  0  0  1  0  0  0  0  0999 V2000
   11.0634  -13.7951   18.6445 O   0  0  0  0  0  0  0  0  0  0  0  0
   10.1622  -13.4696   19.6531 C   0  0  0  0  0  0  0  0  0  0  0  0
    8.8053  -14.1120   19.4198 C   0  0  2  0  0  0  0  0  0  0  0  0
    8.0398  -13.2845   18.5242 N   0  0  0  0  0  0  0  0  0  0  0  0
    8.1550  -14.2202   20.7564 C   0  0  0  0  0  0  0  0  0  0  0  0
    7.6669  -13.1673   21.2448 O   0  0  0  0  0  0  0  0  0  0  0  0
    7.0093  -16.9175   23.0896 C   0  0  0  0  0  0  0  0  0  0  0  0
    7.3861  -15.4970   22.7221 C   0  0  2  0  0  0  0  0  0  0  0  0
    8.0755  -15.4410   21.4680 N   0  0  0  0  0  0  0  0  0  0  0  0
    8.1574  -14.8425   23.8192 C   0  0  0  0  0  0  0  0  0  0  0  0
    9.3964  -14.9198   23.8059 O   0  0  0  0  0  0  0  0  0  0  0  0
    7.4791  -14.1478   24.8528 N   0  0  0  0  0  0  0  0  0  0  0  0
    8.1967  -13.5555   25.9850 C   0  0  1  0  0  0  0  0  0  0  0  0
    7.4567  -12.3017   26.4043 C   0  0  0  0  0  0  0  0  0  0  0  0
    5.7085  -12.6392   26.7159 S   0  0  0  0  0  0  0  0  0  0  0  0
    8.3022  -14.5047   27.1044 C   0  0  0  0  0  0  0  0  0  0  0  0
    7.6076  -15.5498   27.0497 O   0  0  0  0  0  0  0  0  0  0  0  0
    9.1177  -14.3186   28.2124 O   0  0  0  0  0  0  0  0  0  0  0  0
  2  1  1  0
  3  4  1  6
  3  2  1  0
  5  3  1  0
  6  5  2  0
  8  7  1  1
  8  9  1  0
  9  5  1  0
 10 12  1  0
 10  8  1  0
 11 10  2  0
 13 16  1  0
 13 14  1  1
 13 12  1  0
 14 15  1  0
 16 18  1  0
 17 16  2  0
M  END
$$$$
