SAC.pdb
     RDKit          3D

 18 17  0  0  1  0  0  0  0  0999 V2000
    8.1246  -15.6599   15.6432 O   0  0  0  0  0  0  0  0  0  0  0  0
    8.9957  -15.3631   16.6864 C   0  0  0  0  0  0  0  0  0  0  0  0
    8.3569  -14.4292   17.7002 C   0  0  2  0  0  0  0  0  0  0  0  0
    8.2364  -13.1164   17.1213 N   0  0  0  0  0  0  0  0  0  0  0  0
    9.2537  -14.4227   18.8906 C   0  0  0  0  0  0  0  0  0  0  0  0
   10.3093  -13.7411   18.8110 O   0  0  0  0  0  0  0  0  0  0  0  0
    9.2026  -15.6335   22.4481 C   0  0  0  0  0  0  0  0  0  0  0  0
    9.8470  -15.0841   21.1919 C   0  0  2  0  0  0  0  0  0  0  0  0
    8.9558  -15.1424   20.0723 N   0  0  0  0  0  0  0  0  0  0  0  0
   11.1478  -15.7600   20.9129 C   0  0  0  0  0  0  0  0  0  0  0  0
   11.1355  -16.8794   20.3761 O   0  0  0  0  0  0  0  0  0  0  0  0
   12.3694  -15.1278   21.2580 N   0  0  0  0  0  0  0  0  0  0  0  0
   13.6647  -15.7742   21.0299 C   0  0  1  0  0  0  0  0  0  0  0  0
   14.5214  -14.8301   20.2112 C   0  0  0  0  0  0  0  0  0  0  0  0
   13.7870  -14.5079   18.5914 S   0  0  0  0  0  0  0  0  0  0  0  0
   14.3219  -16.1140   22.3017 C   0  0  0  0  0  0  0  0  0  0  0  0
   13.7483  -15.7691   23.3646 O   0  0  0  0  0  0  0  0  0  0  0  0
   15.5311  -16.7888   22.4004 O   0  0  0  0  0  0  0  0  0  0  0  0
  2  1  1  0
  3  4  1  6
  3  2  1  0
  5  3  1  0
  6  5  2  0
  8  7  1  1
  8  9  1  0
  9  5  1  0
 10 12  1  0
 10  8  1  0
 11 10  2  0
 13 16  1  0
 13 14  1  1
 13 12  1  0
 14 15  1  0
 16 18  1  0
 17 16  2  0
M  END
$$$$
