SAC.pdb
     RDKit          3D

 18 17  0  0  1  0  0  0  0  0999 V2000
    4.7003  -23.2262   21.1103 O   0  0  0  0  0  0  0  0  0  0  0  0
    3.3488  -23.5230   21.2541 C   0  0  0  0  0  0  0  0  0  0  0  0
    2.5983  -22.3949   21.9414 C   0  0  2  0  0  0  0  0  0  0  0  0
    2.8732  -21.1592   21.2553 N   0  0  0  0  0  0  0  0  0  0  0  0
    3.0868  -22.3602   23.3490 C   0  0  0  0  0  0  0  0  0  0  0  0
    3.6010  -21.2839   23.7524 O   0  0  0  0  0  0  0  0  0  0  0  0
    2.9720  -24.5368   26.4113 C   0  0  0  0  0  0  0  0  0  0  0  0
    3.4537  -23.3743   25.5676 C   0  0  2  0  0  0  0  0  0  0  0  0
    2.9895  -23.4743   24.2165 N   0  0  0  0  0  0  0  0  0  0  0  0
    4.9369  -23.2296   25.6450 C   0  0  0  0  0  0  0  0  0  0  0  0
    5.6171  -23.5152   24.6465 O   0  0  0  0  0  0  0  0  0  0  0  0
    5.5484  -22.7739   26.8406 N   0  0  0  0  0  0  0  0  0  0  0  0
    6.9946  -22.5556   26.9335 C   0  0  1  0  0  0  0  0  0  0  0  0
    7.2898  -21.1559   26.4343 C   0  0  0  0  0  0  0  0  0  0  0  0
    6.6151  -19.9015   27.5470 S   0  0  0  0  0  0  0  0  0  0  0  0
    7.4731  -22.7352   28.3133 C   0  0  0  0  0  0  0  0  0  0  0  0
    6.6139  -22.9430   29.2056 O   0  0  0  0  0  0  0  0  0  0  0  0
    8.8087  -22.6896   28.6892 O   0  0  0  0  0  0  0  0  0  0  0  0
  2  1  1  0
  3  4  1  6
  3  2  1  0
  5  3  1  0
  6  5  2  0
  8  7  1  1
  8  9  1  0
  9  5  1  0
 10 12  1  0
 10  8  1  0
 11 10  2  0
 13 16  1  0
 13 14  1  1
 13 12  1  0
 14 15  1  0
 16 18  1  0
 17 16  2  0
M  END
$$$$
