SAC.pdb
     RDKit          3D

 18 17  0  0  1  0  0  0  0  0999 V2000
   10.7451  -12.7740   20.1982 O   0  0  0  0  0  0  0  0  0  0  0  0
   10.4041  -13.9848   19.6039 C   0  0  0  0  0  0  0  0  0  0  0  0
    8.9181  -14.2729   19.7338 C   0  0  2  0  0  0  0  0  0  0  0  0
    8.1812  -13.0549   19.5180 N   0  0  0  0  0  0  0  0  0  0  0  0
    8.7104  -14.8020   21.1115 C   0  0  0  0  0  0  0  0  0  0  0  0
    8.2216  -14.0130   21.9624 O   0  0  0  0  0  0  0  0  0  0  0  0
    8.8992  -18.1169   22.8813 C   0  0  0  0  0  0  0  0  0  0  0  0
    8.7187  -16.6159   22.7833 C   0  0  2  0  0  0  0  0  0  0  0  0
    9.0396  -16.1296   21.4750 N   0  0  0  0  0  0  0  0  0  0  0  0
    9.4852  -15.9095   23.8511 C   0  0  0  0  0  0  0  0  0  0  0  0
   10.6128  -15.4655   23.5817 O   0  0  0  0  0  0  0  0  0  0  0  0
    8.9278  -15.7534   25.1457 N   0  0  0  0  0  0  0  0  0  0  0  0
    9.6315  -15.0280   26.2070 C   0  0  1  0  0  0  0  0  0  0  0  0
    8.6232  -14.1541   26.9248 C   0  0  0  0  0  0  0  0  0  0  0  0
    9.3854  -13.2540   28.2943 S   0  0  0  0  0  0  0  0  0  0  0  0
   10.2861  -15.9556   27.1429 C   0  0  0  0  0  0  0  0  0  0  0  0
    9.7512  -17.0781   27.3207 O   0  0  0  0  0  0  0  0  0  0  0  0
   11.4529  -15.6695   27.8387 O   0  0  0  0  0  0  0  0  0  0  0  0
  2  1  1  0
  3  4  1  1
  3  2  1  0
  5  3  1  0
  6  5  2  0
  8  7  1  6
  8  9  1  0
  9  5  1  0
 10 12  1  0
 10  8  1  0
 11 10  2  0
 13 16  1  0
 13 14  1  1
 13 12  1  0
 14 15  1  0
 16 18  1  0
 17 16  2  0
M  END
$$$$
