SAC.pdb
     RDKit          3D

 18 17  0  0  1  0  0  0  0  0999 V2000
    8.4615  -18.8248   19.5034 O   0  0  0  0  0  0  0  0  0  0  0  0
    8.6714  -17.4594   19.3381 C   0  0  0  0  0  0  0  0  0  0  0  0
    9.2694  -16.8304   20.5850 C   0  0  2  0  0  0  0  0  0  0  0  0
   10.2838  -17.7048   21.1139 N   0  0  0  0  0  0  0  0  0  0  0  0
    8.1452  -16.6507   21.5469 C   0  0  0  0  0  0  0  0  0  0  0  0
    7.1860  -15.9223   21.1799 O   0  0  0  0  0  0  0  0  0  0  0  0
    6.7564  -18.1807   24.6158 C   0  0  0  0  0  0  0  0  0  0  0  0
    7.0646  -16.9842   23.7392 C   0  0  2  0  0  0  0  0  0  0  0  0
    8.1308  -17.2607   22.8238 N   0  0  0  0  0  0  0  0  0  0  0  0
    7.3285  -15.7670   24.5610 C   0  0  0  0  0  0  0  0  0  0  0  0
    6.5460  -14.8070   24.4738 O   0  0  0  0  0  0  0  0  0  0  0  0
    8.4540  -15.7171   25.4223 N   0  0  0  0  0  0  0  0  0  0  0  0
    8.7871  -14.5132   26.1886 C   0  0  1  0  0  0  0  0  0  0  0  0
    7.6516  -14.2441   27.1548 C   0  0  0  0  0  0  0  0  0  0  0  0
    7.9803  -12.7860   28.1712 S   0  0  0  0  0  0  0  0  0  0  0  0
   10.0623  -14.6734   26.9049 C   0  0  0  0  0  0  0  0  0  0  0  0
   10.4944  -15.8409   27.0718 O   0  0  0  0  0  0  0  0  0  0  0  0
   10.8147  -13.6197   27.4059 O   0  0  0  0  0  0  0  0  0  0  0  0
  2  1  1  0
  3  4  1  1
  3  2  1  0
  5  3  1  0
  6  5  2  0
  8  7  1  1
  8  9  1  0
  9  5  1  0
 10 12  1  0
 10  8  1  0
 11 10  2  0
 13 16  1  0
 13 14  1  1
 13 12  1  0
 14 15  1  0
 16 18  1  0
 17 16  2  0
M  END
$$$$
