SAC.pdb
     RDKit          3D

 18 17  0  0  1  0  0  0  0  0999 V2000
   11.4902  -19.0216   18.5268 O   0  0  0  0  0  0  0  0  0  0  0  0
   10.2556  -19.1301   19.1589 C   0  0  0  0  0  0  0  0  0  0  0  0
    9.6023  -17.7715   19.3474 C   0  0  2  0  0  0  0  0  0  0  0  0
    9.6041  -17.0692   18.0905 N   0  0  0  0  0  0  0  0  0  0  0  0
   10.4086  -17.0555   20.3762 C   0  0  0  0  0  0  0  0  0  0  0  0
   11.4245  -16.4286   19.9760 O   0  0  0  0  0  0  0  0  0  0  0  0
   10.2998  -16.4044   24.0868 C   0  0  0  0  0  0  0  0  0  0  0  0
   10.9111  -16.4001   22.7007 C   0  0  2  0  0  0  0  0  0  0  0  0
   10.0696  -17.0632   21.7503 N   0  0  0  0  0  0  0  0  0  0  0  0
   12.2932  -16.9623   22.7188 C   0  0  0  0  0  0  0  0  0  0  0  0
   12.6836  -17.6179   21.7394 O   0  0  0  0  0  0  0  0  0  0  0  0
   13.1373  -16.7465   23.8378 N   0  0  0  0  0  0  0  0  0  0  0  0
   14.5796  -16.5347   23.6876 C   0  0  1  0  0  0  0  0  0  0  0  0
   14.7852  -15.2953   22.8409 C   0  0  0  0  0  0  0  0  0  0  0  0
   16.5232  -15.0819   22.3929 S   0  0  0  0  0  0  0  0  0  0  0  0
   15.2367  -16.3941   24.9966 C   0  0  0  0  0  0  0  0  0  0  0  0
   16.1671  -17.1923   25.2703 O   0  0  0  0  0  0  0  0  0  0  0  0
   14.8944  -15.4389   25.9440 O   0  0  0  0  0  0  0  0  0  0  0  0
  2  1  1  0
  3  4  1  6
  3  2  1  0
  5  3  1  0
  6  5  2  0
  8  7  1  1
  8  9  1  0
  9  5  1  0
 10 12  1  0
 10  8  1  0
 11 10  2  0
 13 16  1  0
 13 14  1  6
 13 12  1  0
 14 15  1  0
 16 18  1  0
 17 16  2  0
M  END
$$$$
