KYL.pdb
     RDKit          3D

 30 30  0  0  1  0  0  0  0  0999 V2000
   26.3906  -18.0297  -18.2517 N   0  0  0  0  0  0  0  0  0  0  0  0
   26.9977  -18.8067  -17.2248 C   0  0  1  0  0  0  0  0  0  0  0  0
   28.4026  -18.5612  -16.8903 C   0  0  0  0  0  0  0  0  0  0  0  0
   29.4987  -19.1734  -17.6456 C   0  0  0  0  0  0  0  0  0  0  0  0
   29.4963  -20.5025  -18.2275 C   0  0  0  0  0  0  0  0  0  0  0  0
   30.6558  -21.1044  -18.8948 C   0  0  0  0  0  0  0  0  0  0  0  0
   30.4857  -22.4913  -19.2859 N   0  0  0  0  0  0  0  0  0  0  0  0
   26.1216  -18.8839  -16.0031 C   0  0  0  0  0  0  0  0  0  0  0  0
   26.0199  -17.8705  -15.2671 O   0  0  0  0  0  0  0  0  0  0  0  0
   19.5737  -21.0210  -10.4588 O   0  0  0  0  0  0  0  0  0  0  0  0
   20.4905  -20.9752  -11.5248 C   0  0  0  0  0  0  0  0  0  0  0  0
   20.5915  -19.8712  -12.3408 C   0  0  0  0  0  0  0  0  0  0  0  0
   21.4985  -19.8216  -13.3981 C   0  0  0  0  0  0  0  0  0  0  0  0
   22.3203  -20.8938  -13.6460 C   0  0  0  0  0  0  0  0  0  0  0  0
   23.2753  -20.8514  -14.7507 C   0  0  0  0  0  0  0  0  0  0  0  0
   24.5369  -20.1051  -14.4670 C   0  0  2  0  0  0  0  0  0  0  0  0
   25.4058  -20.0404  -15.6404 N   0  0  0  0  0  0  0  0  0  0  0  0
   25.2890  -20.6300  -13.2998 C   0  0  0  0  0  0  0  0  0  0  0  0
   25.9546  -21.7193  -13.3837 O   0  0  0  0  0  0  0  0  0  0  0  0
   22.2170  -21.9998  -12.8263 C   0  0  0  0  0  0  0  0  0  0  0  0
   21.3123  -22.0495  -11.7715 C   0  0  0  0  0  0  0  0  0  0  0  0
   26.8098  -20.0332   -7.9174 C   0  0  0  0  0  0  0  0  0  0  0  0
   27.6478  -19.7910   -9.1288 C   0  0  1  0  0  0  0  0  0  0  0  0
   28.7603  -20.8396   -9.2379 C   0  0  0  0  0  0  0  0  0  0  0  0
   26.9025  -19.6265  -10.3721 C   0  0  0  0  0  0  0  0  0  0  0  0
   25.9519  -20.6641  -10.8698 C   0  0  2  0  0  0  0  0  0  0  0  0
   25.3178  -19.9687  -12.0482 N   0  0  0  0  0  0  0  0  0  0  0  0
   24.9071  -21.0895   -9.9591 C   0  0  0  0  0  0  0  0  0  0  0  0
   23.7968  -20.5468   -9.7772 O   0  0  0  0  0  0  0  0  0  0  0  0
   25.1250  -22.2428   -9.1702 O   0  0  0  0  0  0  0  0  0  0  0  0
  2  8  1  0
  2  1  1  6
  3  2  1  0
  4  3  1  0
  5  4  1  0
  6  5  1  0
  6  7  1  0
  8  9  2  0
 10 11  1  0
 11 12  2  0
 12 13  1  0
 14 13  2  0
 14 15  1  0
 16 17  1  0
 16 15  1  6
 17  8  1  0
 18 16  1  0
 19 18  2  0
 20 14  1  0
 21 11  1  0
 21 20  2  0
 23 22  1  1
 23 25  1  0
 24 23  1  0
 26 25  1  1
 26 27  1  0
 27 18  1  0
 28 26  1  0
 28 30  1  0
 29 28  2  0
M  END
$$$$
