KYL.pdb
     RDKit          3D

 30 30  0  0  1  0  0  0  0  0999 V2000
   20.5945  -21.9990  -11.9960 N   0  0  0  0  0  0  0  0  0  0  0  0
   21.0327  -20.9688  -12.8756 C   0  0  1  0  0  0  0  0  0  0  0  0
   20.1480  -19.8278  -13.1230 C   0  0  0  0  0  0  0  0  0  0  0  0
   18.8923  -19.9659  -13.8654 C   0  0  0  0  0  0  0  0  0  0  0  0
   18.4159  -21.1697  -14.5203 C   0  0  0  0  0  0  0  0  0  0  0  0
   17.1794  -21.2373  -15.3067 C   0  0  0  0  0  0  0  0  0  0  0  0
   15.9587  -21.0432  -14.5466 N   0  0  0  0  0  0  0  0  0  0  0  0
   22.4436  -20.5449  -12.5662 C   0  0  0  0  0  0  0  0  0  0  0  0
   22.7043  -19.3178  -12.4948 O   0  0  0  0  0  0  0  0  0  0  0  0
   28.3934  -19.2024   -6.9663 O   0  0  0  0  0  0  0  0  0  0  0  0
   27.6731  -19.8787   -7.9677 C   0  0  0  0  0  0  0  0  0  0  0  0
   28.3106  -20.6125   -8.9423 C   0  0  0  0  0  0  0  0  0  0  0  0
   27.6009  -21.2842   -9.9364 C   0  0  0  0  0  0  0  0  0  0  0  0
   26.2290  -21.2225   -9.9583 C   0  0  0  0  0  0  0  0  0  0  0  0
   25.4756  -21.9240  -10.9949 C   0  0  0  0  0  0  0  0  0  0  0  0
   24.8573  -21.0447  -12.0311 C   0  0  2  0  0  0  0  0  0  0  0  0
   23.4927  -21.4586  -12.3513 N   0  0  0  0  0  0  0  0  0  0  0  0
   25.6635  -20.9303  -13.2723 C   0  0  0  0  0  0  0  0  0  0  0  0
   25.6200  -21.8410  -14.1697 O   0  0  0  0  0  0  0  0  0  0  0  0
   25.5920  -20.4859   -8.9798 C   0  0  0  0  0  0  0  0  0  0  0  0
   26.2998  -19.8158   -7.9882 C   0  0  0  0  0  0  0  0  0  0  0  0
   27.4471  -15.9580  -15.3228 C   0  0  0  0  0  0  0  0  0  0  0  0
   26.8542  -17.3278  -15.3196 C   0  0  1  0  0  0  0  0  0  0  0  0
   26.1826  -17.6320  -16.6634 C   0  0  0  0  0  0  0  0  0  0  0  0
   27.7555  -18.3896  -14.8853 C   0  0  0  0  0  0  0  0  0  0  0  0
   27.3213  -19.8155  -14.8067 C   0  0  2  0  0  0  0  0  0  0  0  0
   26.5106  -19.8266  -13.5351 N   0  0  0  0  0  0  0  0  0  0  0  0
   28.3656  -20.8160  -14.7051 C   0  0  0  0  0  0  0  0  0  0  0  0
   28.9585  -21.1863  -13.6699 O   0  0  0  0  0  0  0  0  0  0  0  0
   28.7910  -21.4726  -15.8831 O   0  0  0  0  0  0  0  0  0  0  0  0
  2  8  1  0
  2  1  1  1
  3  2  1  0
  4  3  1  0
  5  4  1  0
  6  5  1  0
  6  7  1  0
  8  9  2  0
 10 11  1  0
 11 12  2  0
 12 13  1  0
 14 13  2  0
 14 15  1  0
 16 17  1  0
 16 15  1  1
 17  8  1  0
 18 16  1  0
 19 18  2  0
 20 14  1  0
 21 11  1  0
 21 20  2  0
 23 22  1  6
 23 25  1  0
 24 23  1  0
 26 25  1  1
 26 27  1  0
 27 18  1  0
 28 26  1  0
 28 30  1  0
 29 28  2  0
M  END
$$$$
