KYL.pdb
     RDKit          3D

 30 30  0  0  1  0  0  0  0  0999 V2000
   23.9420  -20.8111  -13.8174 N   0  0  0  0  0  0  0  0  0  0  0  0
   23.4288  -20.9534  -12.4971 C   0  0  1  0  0  0  0  0  0  0  0  0
   22.2274  -21.7655  -12.2900 C   0  0  0  0  0  0  0  0  0  0  0  0
   20.9236  -21.3751  -12.8327 C   0  0  0  0  0  0  0  0  0  0  0  0
   20.3714  -20.0335  -12.8454 C   0  0  0  0  0  0  0  0  0  0  0  0
   19.1226  -19.6575  -12.1737 C   0  0  0  0  0  0  0  0  0  0  0  0
   18.7861  -18.2481  -12.2506 N   0  0  0  0  0  0  0  0  0  0  0  0
   24.5212  -21.2834  -11.5153 C   0  0  0  0  0  0  0  0  0  0  0  0
   24.3516  -22.2431  -10.7220 O   0  0  0  0  0  0  0  0  0  0  0  0
   32.7868  -22.8420   -8.8217 O   0  0  0  0  0  0  0  0  0  0  0  0
   31.6387  -22.3311   -9.4541 C   0  0  0  0  0  0  0  0  0  0  0  0
   30.3873  -22.8445   -9.1987 C   0  0  0  0  0  0  0  0  0  0  0  0
   29.2471  -22.3413   -9.8231 C   0  0  0  0  0  0  0  0  0  0  0  0
   29.3576  -21.3064  -10.7192 C   0  0  0  0  0  0  0  0  0  0  0  0
   28.1687  -20.7708  -11.3780 C   0  0  0  0  0  0  0  0  0  0  0  0
   26.8820  -21.0268  -10.6652 C   0  0  2  0  0  0  0  0  0  0  0  0
   25.7309  -20.5675  -11.4397 N   0  0  0  0  0  0  0  0  0  0  0  0
   26.8381  -20.4587   -9.2945 C   0  0  0  0  0  0  0  0  0  0  0  0
   26.3031  -19.3178   -9.0736 O   0  0  0  0  0  0  0  0  0  0  0  0
   30.6138  -20.7934  -10.9736 C   0  0  0  0  0  0  0  0  0  0  0  0
   31.7513  -21.2951  -10.3509 C   0  0  0  0  0  0  0  0  0  0  0  0
   28.0366  -20.8038   -3.7519 C   0  0  0  0  0  0  0  0  0  0  0  0
   29.0096  -20.5507   -4.8552 C   0  0  1  0  0  0  0  0  0  0  0  0
   30.4004  -21.0771   -4.4839 C   0  0  0  0  0  0  0  0  0  0  0  0
   28.5732  -20.9904   -6.1760 C   0  0  0  0  0  0  0  0  0  0  0  0
   27.3451  -20.4465   -6.8270 C   0  0  2  0  0  0  0  0  0  0  0  0
   27.3719  -21.1328   -8.1696 N   0  0  0  0  0  0  0  0  0  0  0  0
   27.2913  -19.0126   -7.0350 C   0  0  0  0  0  0  0  0  0  0  0  0
   27.9763  -18.3392   -7.8334 O   0  0  0  0  0  0  0  0  0  0  0  0
   26.3755  -18.2518   -6.2720 O   0  0  0  0  0  0  0  0  0  0  0  0
  2  8  1  0
  2  1  1  6
  3  2  1  0
  4  3  1  0
  5  4  1  0
  6  5  1  0
  6  7  1  0
  8  9  2  0
 10 11  1  0
 11 12  2  0
 12 13  1  0
 14 13  2  0
 14 15  1  0
 16 17  1  0
 16 15  1  6
 17  8  1  0
 18 16  1  0
 19 18  2  0
 20 14  1  0
 21 11  1  0
 21 20  2  0
 23 22  1  1
 23 25  1  0
 24 23  1  0
 26 25  1  1
 26 27  1  0
 27 18  1  0
 28 26  1  0
 28 30  1  0
 29 28  2  0
M  END
$$$$
