KYL.pdb
     RDKit          3D

 30 30  0  0  1  0  0  0  0  0999 V2000
   27.2388  -18.6992  -18.7136 N   0  0  0  0  0  0  0  0  0  0  0  0
   27.8029  -19.0224  -17.4470 C   0  0  1  0  0  0  0  0  0  0  0  0
   29.0743  -18.4050  -17.0618 C   0  0  0  0  0  0  0  0  0  0  0  0
   30.3338  -18.7387  -17.7321 C   0  0  0  0  0  0  0  0  0  0  0  0
   30.5000  -19.6975  -18.8082 C   0  0  0  0  0  0  0  0  0  0  0  0
   31.7877  -19.9974  -19.4436 C   0  0  0  0  0  0  0  0  0  0  0  0
   32.8519  -19.0574  -19.1447 N   0  0  0  0  0  0  0  0  0  0  0  0
   26.7733  -18.9481  -16.3514 C   0  0  0  0  0  0  0  0  0  0  0  0
   26.2738  -17.8310  -16.0660 O   0  0  0  0  0  0  0  0  0  0  0  0
   19.6726  -20.3642  -11.4603 O   0  0  0  0  0  0  0  0  0  0  0  0
   20.7399  -20.3921  -12.3763 C   0  0  0  0  0  0  0  0  0  0  0  0
   21.6881  -21.3896  -12.3470 C   0  0  0  0  0  0  0  0  0  0  0  0
   22.7472  -21.4213  -13.2526 C   0  0  0  0  0  0  0  0  0  0  0  0
   22.8625  -20.4390  -14.2057 C   0  0  0  0  0  0  0  0  0  0  0  0
   23.9679  -20.4636  -15.1605 C   0  0  0  0  0  0  0  0  0  0  0  0
   25.2828  -20.0116  -14.6166 C   0  0  2  0  0  0  0  0  0  0  0  0
   26.3384  -20.0730  -15.6255 N   0  0  0  0  0  0  0  0  0  0  0  0
   25.7011  -20.7376  -13.3913 C   0  0  0  0  0  0  0  0  0  0  0  0
   26.7124  -21.5211  -13.4054 O   0  0  0  0  0  0  0  0  0  0  0  0
   21.9103  -19.4397  -14.2330 C   0  0  0  0  0  0  0  0  0  0  0  0
   20.8537  -19.4080  -13.3296 C   0  0  0  0  0  0  0  0  0  0  0  0
   28.0074  -19.2705   -8.8477 C   0  0  0  0  0  0  0  0  0  0  0  0
   27.9102  -20.4314   -9.7810 C   0  0  1  0  0  0  0  0  0  0  0  0
   27.7525  -21.7422   -9.0025 C   0  0  0  0  0  0  0  0  0  0  0  0
   26.9251  -20.2855  -10.8471 C   0  0  0  0  0  0  0  0  0  0  0  0
   25.6860  -21.1160  -10.9009 C   0  0  2  0  0  0  0  0  0  0  0  0
   25.0220  -20.6075  -12.1557 N   0  0  0  0  0  0  0  0  0  0  0  0
   24.7585  -20.9854   -9.7942 C   0  0  0  0  0  0  0  0  0  0  0  0
   24.0896  -19.9770   -9.4846 O   0  0  0  0  0  0  0  0  0  0  0  0
   24.5561  -22.0984   -8.9456 O   0  0  0  0  0  0  0  0  0  0  0  0
  2  8  1  0
  2  1  1  6
  3  2  1  0
  4  3  1  0
  5  4  1  0
  6  5  1  0
  6  7  1  0
  8  9  2  0
 10 11  1  0
 11 12  2  0
 12 13  1  0
 14 13  2  0
 14 15  1  0
 16 17  1  0
 16 15  1  6
 17  8  1  0
 18 16  1  0
 19 18  2  0
 20 14  1  0
 21 11  1  0
 21 20  2  0
 23 22  1  1
 23 25  1  0
 24 23  1  0
 26 25  1  1
 26 27  1  0
 27 18  1  0
 28 26  1  0
 28 30  1  0
 29 28  2  0
M  END
$$$$
