KYL.pdb
     RDKit          3D

 30 30  0  0  1  0  0  0  0  0999 V2000
   26.4921  -25.4192  -16.8265 N   0  0  0  0  0  0  0  0  0  0  0  0
   27.1904  -26.3867  -17.6030 C   0  0  1  0  0  0  0  0  0  0  0  0
   28.6294  -26.5591  -17.3892 C   0  0  0  0  0  0  0  0  0  0  0  0
   29.6011  -25.5373  -17.7875 C   0  0  0  0  0  0  0  0  0  0  0  0
   30.7346  -25.7357  -18.6711 C   0  0  0  0  0  0  0  0  0  0  0  0
   31.8126  -26.6968  -18.4140 C   0  0  0  0  0  0  0  0  0  0  0  0
   32.7098  -26.9243  -19.5315 N   0  0  0  0  0  0  0  0  0  0  0  0
   26.4540  -27.6992  -17.6380 C   0  0  0  0  0  0  0  0  0  0  0  0
   25.5972  -27.9356  -16.7497 O   0  0  0  0  0  0  0  0  0  0  0  0
   21.1557  -27.9351  -22.5867 O   0  0  0  0  0  0  0  0  0  0  0  0
   22.2763  -28.5260  -21.9751 C   0  0  0  0  0  0  0  0  0  0  0  0
   23.4513  -27.8307  -21.8000 C   0  0  0  0  0  0  0  0  0  0  0  0
   24.5641  -28.4123  -21.1945 C   0  0  0  0  0  0  0  0  0  0  0  0
   24.5032  -29.7122  -20.7553 C   0  0  0  0  0  0  0  0  0  0  0  0
   25.6633  -30.3306  -20.1181 C   0  0  0  0  0  0  0  0  0  0  0  0
   25.9020  -29.9179  -18.7032 C   0  0  2  0  0  0  0  0  0  0  0  0
   26.6772  -28.6817  -18.6210 N   0  0  0  0  0  0  0  0  0  0  0  0
   26.5322  -30.9751  -17.8733 C   0  0  0  0  0  0  0  0  0  0  0  0
   27.7360  -30.8530  -17.4578 O   0  0  0  0  0  0  0  0  0  0  0  0
   23.3236  -30.4073  -20.9320 C   0  0  0  0  0  0  0  0  0  0  0  0
   22.2135  -29.8274  -21.5360 C   0  0  0  0  0  0  0  0  0  0  0  0
   26.3536  -33.8384  -13.3779 C   0  0  0  0  0  0  0  0  0  0  0  0
   27.2077  -32.8302  -14.0723 C   0  0  1  0  0  0  0  0  0  0  0  0
   28.6362  -33.3573  -14.2476 C   0  0  0  0  0  0  0  0  0  0  0  0
   26.6480  -32.2933  -15.3080 C   0  0  0  0  0  0  0  0  0  0  0  0
   26.5269  -33.1166  -16.5470 C   0  0  2  0  0  0  0  0  0  0  0  0
   25.8521  -32.1580  -17.4957 N   0  0  0  0  0  0  0  0  0  0  0  0
   25.7314  -34.3254  -16.4579 C   0  0  0  0  0  0  0  0  0  0  0  0
   24.5175  -34.4115  -16.1761 O   0  0  0  0  0  0  0  0  0  0  0  0
   26.3572  -35.5679  -16.7117 O   0  0  0  0  0  0  0  0  0  0  0  0
  2  8  1  0
  2  1  1  1
  3  2  1  0
  4  3  1  0
  5  4  1  0
  6  5  1  0
  6  7  1  0
  8  9  2  0
 10 11  1  0
 11 12  2  0
 12 13  1  0
 14 13  2  0
 14 15  1  0
 16 17  1  0
 16 15  1  6
 17  8  1  0
 18 16  1  0
 19 18  2  0
 20 14  1  0
 21 11  1  0
 21 20  2  0
 23 22  1  6
 23 25  1  0
 24 23  1  0
 26 25  1  1
 26 27  1  0
 27 18  1  0
 28 26  1  0
 28 30  1  0
 29 28  2  0
M  END
$$$$
