KYL.pdb
     RDKit          3D

 30 30  0  0  1  0  0  0  0  0999 V2000
   20.6609  -20.6015  -11.4614 N   0  0  0  0  0  0  0  0  0  0  0  0
   21.4176  -21.1925  -12.5126 C   0  0  1  0  0  0  0  0  0  0  0  0
   20.8263  -21.2714  -13.8506 C   0  0  0  0  0  0  0  0  0  0  0  0
   19.9659  -22.3864  -14.2544 C   0  0  0  0  0  0  0  0  0  0  0  0
   19.0044  -23.0715  -13.4110 C   0  0  0  0  0  0  0  0  0  0  0  0
   18.1304  -24.1524  -13.8798 C   0  0  0  0  0  0  0  0  0  0  0  0
   18.5275  -24.7598  -15.1363 N   0  0  0  0  0  0  0  0  0  0  0  0
   22.8277  -20.6660  -12.5382 C   0  0  0  0  0  0  0  0  0  0  0  0
   23.0113  -19.4253  -12.4615 O   0  0  0  0  0  0  0  0  0  0  0  0
   26.8960  -19.8693   -6.3786 O   0  0  0  0  0  0  0  0  0  0  0  0
   26.7169  -20.3645   -7.6830 C   0  0  0  0  0  0  0  0  0  0  0  0
   27.7736  -20.8473   -8.4213 C   0  0  0  0  0  0  0  0  0  0  0  0
   27.6007  -21.3389   -9.7142 C   0  0  0  0  0  0  0  0  0  0  0  0
   26.3498  -21.3489  -10.2811 C   0  0  0  0  0  0  0  0  0  0  0  0
   26.1575  -21.8633  -11.6349 C   0  0  0  0  0  0  0  0  0  0  0  0
   25.3277  -21.0002  -12.5269 C   0  0  2  0  0  0  0  0  0  0  0  0
   23.9585  -21.4976  -12.6443 N   0  0  0  0  0  0  0  0  0  0  0  0
   25.9172  -20.7967  -13.8740 C   0  0  0  0  0  0  0  0  0  0  0  0
   25.5841  -21.5456  -14.8563 O   0  0  0  0  0  0  0  0  0  0  0  0
   25.2917  -20.8641   -9.5386 C   0  0  0  0  0  0  0  0  0  0  0  0
   25.4639  -20.3737   -8.2490 C   0  0  0  0  0  0  0  0  0  0  0  0
   27.9423  -15.7848  -15.5438 C   0  0  0  0  0  0  0  0  0  0  0  0
   27.1793  -17.0672  -15.5823 C   0  0  1  0  0  0  0  0  0  0  0  0
   26.1921  -17.0767  -16.7547 C   0  0  0  0  0  0  0  0  0  0  0  0
   27.9969  -18.2740  -15.5224 C   0  0  0  0  0  0  0  0  0  0  0  0
   27.3971  -19.6404  -15.5528 C   0  0  2  0  0  0  0  0  0  0  0  0
   26.8627  -19.7794  -14.1494 N   0  0  0  0  0  0  0  0  0  0  0  0
   28.2944  -20.7464  -15.8240 C   0  0  0  0  0  0  0  0  0  0  0  0
   28.6334  -21.1869  -16.9426 O   0  0  0  0  0  0  0  0  0  0  0  0
   28.8748  -21.4309  -14.7311 O   0  0  0  0  0  0  0  0  0  0  0  0
  2  8  1  0
  2  1  1  1
  3  2  1  0
  4  3  1  0
  5  4  1  0
  6  5  1  0
  6  7  1  0
  8  9  2  0
 10 11  1  0
 11 12  2  0
 12 13  1  0
 14 13  2  0
 14 15  1  0
 16 17  1  0
 16 15  1  1
 17  8  1  0
 18 16  1  0
 19 18  2  0
 20 14  1  0
 21 11  1  0
 21 20  2  0
 23 22  1  6
 23 25  1  0
 24 23  1  0
 26 25  1  1
 26 27  1  0
 27 18  1  0
 28 26  1  0
 28 30  1  0
 29 28  2  0
M  END
$$$$
