KYL.pdb
     RDKit          3D

 30 30  0  0  1  0  0  0  0  0999 V2000
   13.1978   -9.7439  -12.5384 N   0  0  0  0  0  0  0  0  0  0  0  0
   14.6006   -9.6073  -12.7392 C   0  0  1  0  0  0  0  0  0  0  0  0
   15.1413   -9.7833  -14.0893 C   0  0  0  0  0  0  0  0  0  0  0  0
   15.4302  -11.1088  -14.6430 C   0  0  0  0  0  0  0  0  0  0  0  0
   15.8999  -12.2614  -13.8974 C   0  0  0  0  0  0  0  0  0  0  0  0
   16.1881  -13.5653  -14.5047 C   0  0  0  0  0  0  0  0  0  0  0  0
   15.9044  -13.6556  -15.9249 N   0  0  0  0  0  0  0  0  0  0  0  0
   15.1353   -8.3732  -12.0631 C   0  0  0  0  0  0  0  0  0  0  0  0
   14.5950   -7.2660  -12.3106 O   0  0  0  0  0  0  0  0  0  0  0  0
   11.1237   -7.1376   -7.2962 O   0  0  0  0  0  0  0  0  0  0  0  0
   12.4638   -7.1740   -7.7225 C   0  0  0  0  0  0  0  0  0  0  0  0
   13.0475   -8.3398   -8.1640 C   0  0  0  0  0  0  0  0  0  0  0  0
   14.3750   -8.3805   -8.5873 C   0  0  0  0  0  0  0  0  0  0  0  0
   15.1344   -7.2362   -8.5697 C   0  0  0  0  0  0  0  0  0  0  0  0
   16.5263   -7.2677   -9.0125 C   0  0  0  0  0  0  0  0  0  0  0  0
   16.7206   -7.1992  -10.4913 C   0  0  2  0  0  0  0  0  0  0  0  0
   16.2164   -8.3959  -11.1618 N   0  0  0  0  0  0  0  0  0  0  0  0
   18.1248   -6.9377  -10.8953 C   0  0  0  0  0  0  0  0  0  0  0  0
   19.0777   -7.6819  -10.4771 O   0  0  0  0  0  0  0  0  0  0  0  0
   14.5467   -6.0683   -8.1264 C   0  0  0  0  0  0  0  0  0  0  0  0
   13.2225   -6.0276   -7.7042 C   0  0  0  0  0  0  0  0  0  0  0  0
   22.3417   -7.8043  -12.9231 C   0  0  0  0  0  0  0  0  0  0  0  0
   21.1560   -7.5317  -13.7879 C   0  0  1  0  0  0  0  0  0  0  0  0
   20.9023   -8.7010  -14.7458 C   0  0  0  0  0  0  0  0  0  0  0  0
   19.9539   -7.1153  -13.0738 C   0  0  0  0  0  0  0  0  0  0  0  0
   19.8869   -5.8314  -12.3154 C   0  0  2  0  0  0  0  0  0  0  0  0
   18.4880   -5.8718  -11.7537 N   0  0  0  0  0  0  0  0  0  0  0  0
   20.0507   -4.6086  -13.0770 C   0  0  0  0  0  0  0  0  0  0  0  0
   19.1955   -4.0433  -13.7908 O   0  0  0  0  0  0  0  0  0  0  0  0
   21.3001   -3.9476  -13.0357 O   0  0  0  0  0  0  0  0  0  0  0  0
  2  8  1  0
  2  1  1  6
  3  2  1  0
  4  3  1  0
  5  4  1  0
  6  5  1  0
  6  7  1  0
  8  9  2  0
 10 11  1  0
 11 12  2  0
 12 13  1  0
 14 13  2  0
 14 15  1  0
 16 17  1  0
 16 15  1  1
 17  8  1  0
 18 16  1  0
 19 18  2  0
 20 14  1  0
 21 11  1  0
 21 20  2  0
 23 22  1  1
 23 25  1  0
 24 23  1  0
 26 25  1  6
 26 27  1  0
 27 18  1  0
 28 26  1  0
 28 30  1  0
 29 28  2  0
M  END
$$$$
