KYL.pdb
     RDKit          3D

 30 30  0  0  1  0  0  0  0  0999 V2000
   30.3383  -22.2387  -18.2357 N   0  0  0  0  0  0  0  0  0  0  0  0
   29.1325  -21.4890  -18.1312 C   0  0  1  0  0  0  0  0  0  0  0  0
   28.2356  -21.4290  -19.2879 C   0  0  0  0  0  0  0  0  0  0  0  0
   28.5438  -20.6168  -20.4678 C   0  0  0  0  0  0  0  0  0  0  0  0
   29.6904  -19.7420  -20.6260 C   0  0  0  0  0  0  0  0  0  0  0  0
   29.8985  -18.8696  -21.7868 C   0  0  0  0  0  0  0  0  0  0  0  0
   31.1244  -18.0938  -21.7580 N   0  0  0  0  0  0  0  0  0  0  0  0
   28.4009  -21.7999  -16.8529 C   0  0  0  0  0  0  0  0  0  0  0  0
   28.2955  -22.9991  -16.4928 O   0  0  0  0  0  0  0  0  0  0  0  0
   23.7893  -20.7400   -9.2874 O   0  0  0  0  0  0  0  0  0  0  0  0
   24.6017  -20.5561  -10.4211 C   0  0  0  0  0  0  0  0  0  0  0  0
   24.1220  -19.9500  -11.5600 C   0  0  0  0  0  0  0  0  0  0  0  0
   24.9234  -19.7657  -12.6856 C   0  0  0  0  0  0  0  0  0  0  0  0
   26.2282  -20.1943  -12.6744 C   0  0  0  0  0  0  0  0  0  0  0  0
   27.0771  -20.0047  -13.8482 C   0  0  0  0  0  0  0  0  0  0  0  0
   27.0399  -21.1188  -14.8414 C   0  0  2  0  0  0  0  0  0  0  0  0
   27.8250  -20.8097  -16.0347 N   0  0  0  0  0  0  0  0  0  0  0  0
   25.6656  -21.5296  -15.2235 C   0  0  0  0  0  0  0  0  0  0  0  0
   24.9656  -20.8168  -16.0226 O   0  0  0  0  0  0  0  0  0  0  0  0
   26.7069  -20.8019  -11.5309 C   0  0  0  0  0  0  0  0  0  0  0  0
   25.9076  -20.9858  -10.4081 C   0  0  0  0  0  0  0  0  0  0  0  0
   24.0715  -24.7881  -17.5764 C   0  0  0  0  0  0  0  0  0  0  0  0
   23.2937  -25.2153  -16.3761 C   0  0  1  0  0  0  0  0  0  0  0  0
   23.3634  -26.7359  -16.1970 C   0  0  0  0  0  0  0  0  0  0  0  0
   23.6015  -24.4873  -15.1499 C   0  0  0  0  0  0  0  0  0  0  0  0
   23.6211  -22.9957  -15.0970 C   0  0  2  0  0  0  0  0  0  0  0  0
   25.0586  -22.7135  -14.7391 N   0  0  0  0  0  0  0  0  0  0  0  0
   22.7612  -22.3613  -14.1171 C   0  0  0  0  0  0  0  0  0  0  0  0
   22.9828  -22.2217  -12.8958 O   0  0  0  0  0  0  0  0  0  0  0  0
   21.5251  -21.8256  -14.5470 O   0  0  0  0  0  0  0  0  0  0  0  0
  2  8  1  0
  2  1  1  6
  3  2  1  0
  4  3  1  0
  5  4  1  0
  6  5  1  0
  6  7  1  0
  8  9  2  0
 10 11  1  0
 11 12  2  0
 12 13  1  0
 14 13  2  0
 14 15  1  0
 16 17  1  0
 16 15  1  1
 17  8  1  0
 18 16  1  0
 19 18  2  0
 20 14  1  0
 21 11  1  0
 21 20  2  0
 23 22  1  6
 23 25  1  0
 24 23  1  0
 26 25  1  1
 26 27  1  0
 27 18  1  0
 28 26  1  0
 28 30  1  0
 29 28  2  0
M  END
$$$$
