KYL.pdb
     RDKit          3D

 30 30  0  0  1  0  0  0  0  0999 V2000
   28.9054  -22.8495  -16.3543 N   0  0  0  0  0  0  0  0  0  0  0  0
   27.9335  -22.1137  -17.0897 C   0  0  1  0  0  0  0  0  0  0  0  0
   28.1188  -21.9448  -18.5330 C   0  0  0  0  0  0  0  0  0  0  0  0
   28.9891  -20.9046  -19.0874 C   0  0  0  0  0  0  0  0  0  0  0  0
   29.0228  -19.5128  -18.6790 C   0  0  0  0  0  0  0  0  0  0  0  0
   29.8518  -18.4909  -19.3273 C   0  0  0  0  0  0  0  0  0  0  0  0
   30.3531  -18.8514  -20.6404 N   0  0  0  0  0  0  0  0  0  0  0  0
   26.5350  -22.5446  -16.7369 C   0  0  0  0  0  0  0  0  0  0  0  0
   25.6117  -22.3374  -17.5637 O   0  0  0  0  0  0  0  0  0  0  0  0
   26.2267  -29.5572  -17.3653 O   0  0  0  0  0  0  0  0  0  0  0  0
   25.8891  -28.4040  -16.6338 C   0  0  0  0  0  0  0  0  0  0  0  0
   24.5775  -28.0503  -16.4120 C   0  0  0  0  0  0  0  0  0  0  0  0
   24.2384  -26.9086  -15.6877 C   0  0  0  0  0  0  0  0  0  0  0  0
   25.2269  -26.1046  -15.1749 C   0  0  0  0  0  0  0  0  0  0  0  0
   24.8824  -24.9066  -14.4131 C   0  0  0  0  0  0  0  0  0  0  0  0
   24.8585  -23.6403  -15.2036 C   0  0  2  0  0  0  0  0  0  0  0  0
   26.2061  -23.1717  -15.5203 N   0  0  0  0  0  0  0  0  0  0  0  0
   24.0746  -22.5542  -14.5636 C   0  0  0  0  0  0  0  0  0  0  0  0
   24.6321  -21.7260  -13.7636 O   0  0  0  0  0  0  0  0  0  0  0  0
   26.5416  -26.4616  -15.3987 C   0  0  0  0  0  0  0  0  0  0  0  0
   26.8800  -27.6004  -16.1212 C   0  0  0  0  0  0  0  0  0  0  0  0
   22.3867  -17.6905  -15.7474 C   0  0  0  0  0  0  0  0  0  0  0  0
   21.9394  -18.7034  -14.7464 C   0  0  1  0  0  0  0  0  0  0  0  0
   20.4285  -18.6018  -14.5092 C   0  0  0  0  0  0  0  0  0  0  0  0
   22.3792  -20.0689  -15.0111 C   0  0  0  0  0  0  0  0  0  0  0  0
   21.9862  -21.2123  -14.1358 C   0  0  2  0  0  0  0  0  0  0  0  0
   22.6904  -22.3701  -14.7974 N   0  0  0  0  0  0  0  0  0  0  0  0
   20.5712  -21.5147  -14.0450 C   0  0  0  0  0  0  0  0  0  0  0  0
   19.8851  -22.1687  -14.8586 O   0  0  0  0  0  0  0  0  0  0  0  0
   19.8472  -21.0376  -12.9278 O   0  0  0  0  0  0  0  0  0  0  0  0
  2  8  1  0
  2  1  1  6
  3  2  1  0
  4  3  1  0
  5  4  1  0
  6  5  1  0
  6  7  1  0
  8  9  2  0
 10 11  1  0
 11 12  2  0
 12 13  1  0
 14 13  2  0
 14 15  1  0
 16 17  1  0
 16 15  1  1
 17  8  1  0
 18 16  1  0
 19 18  2  0
 20 14  1  0
 21 11  1  0
 21 20  2  0
 23 22  1  6
 23 25  1  0
 24 23  1  0
 26 25  1  6
 26 27  1  0
 27 18  1  0
 28 26  1  0
 28 30  1  0
 29 28  2  0
M  END
$$$$
