KYL.pdb
     RDKit          3D

 30 30  0  0  1  0  0  0  0  0999 V2000
   24.7028  -36.6184  -11.0214 N   0  0  0  0  0  0  0  0  0  0  0  0
   25.8855  -35.9877  -10.5415 C   0  0  1  0  0  0  0  0  0  0  0  0
   26.0127  -34.5340  -10.6701 C   0  0  0  0  0  0  0  0  0  0  0  0
   26.2670  -33.8882  -11.9605 C   0  0  0  0  0  0  0  0  0  0  0  0
   27.1686  -34.3669  -12.9915 C   0  0  0  0  0  0  0  0  0  0  0  0
   27.3471  -33.7093  -14.2906 C   0  0  0  0  0  0  0  0  0  0  0  0
   28.1142  -34.4680  -15.2609 N   0  0  0  0  0  0  0  0  0  0  0  0
   26.2492  -36.4763   -9.1649 C   0  0  0  0  0  0  0  0  0  0  0  0
   25.3375  -36.6118   -8.3109 O   0  0  0  0  0  0  0  0  0  0  0  0
   28.0463  -43.5058   -9.1486 O   0  0  0  0  0  0  0  0  0  0  0  0
   28.3119  -42.1860   -8.7406 C   0  0  0  0  0  0  0  0  0  0  0  0
   29.1182  -41.3517   -9.4813 C   0  0  0  0  0  0  0  0  0  0  0  0
   29.3841  -40.0433   -9.0808 C   0  0  0  0  0  0  0  0  0  0  0  0
   28.8350  -39.5581   -7.9191 C   0  0  0  0  0  0  0  0  0  0  0  0
   29.1061  -38.1879   -7.4910 C   0  0  0  0  0  0  0  0  0  0  0  0
   27.9139  -37.2900   -7.4535 C   0  0  2  0  0  0  0  0  0  0  0  0
   27.5669  -36.7913   -8.7827 N   0  0  0  0  0  0  0  0  0  0  0  0
   28.0500  -36.1599   -6.5007 C   0  0  0  0  0  0  0  0  0  0  0  0
   28.3273  -34.9817   -6.9150 O   0  0  0  0  0  0  0  0  0  0  0  0
   28.0267  -40.3968   -7.1780 C   0  0  0  0  0  0  0  0  0  0  0  0
   27.7614  -41.7020   -7.5774 C   0  0  0  0  0  0  0  0  0  0  0  0
   27.0666  -32.0070   -4.1707 C   0  0  0  0  0  0  0  0  0  0  0  0
   26.1178  -33.1587   -4.1314 C   0  0  1  0  0  0  0  0  0  0  0  0
   24.7423  -32.7474   -4.6682 C   0  0  0  0  0  0  0  0  0  0  0  0
   26.6155  -34.3894   -4.7363 C   0  0  0  0  0  0  0  0  0  0  0  0
   27.8388  -35.0815   -4.2340 C   0  0  2  0  0  0  0  0  0  0  0  0
   27.8815  -36.3130   -5.1033 N   0  0  0  0  0  0  0  0  0  0  0  0
   27.8387  -35.4898   -2.8429 C   0  0  0  0  0  0  0  0  0  0  0  0
   28.5482  -35.0331   -1.9218 O   0  0  0  0  0  0  0  0  0  0  0  0
   26.9523  -36.5146   -2.4382 O   0  0  0  0  0  0  0  0  0  0  0  0
  2  8  1  0
  2  1  1  1
  3  2  1  0
  4  3  1  0
  5  4  1  0
  6  5  1  0
  6  7  1  0
  8  9  2  0
 10 11  1  0
 11 12  2  0
 12 13  1  0
 14 13  2  0
 14 15  1  0
 16 17  1  0
 16 15  1  6
 17  8  1  0
 18 16  1  0
 19 18  2  0
 20 14  1  0
 21 11  1  0
 21 20  2  0
 23 22  1  6
 23 25  1  0
 24 23  1  0
 26 25  1  6
 26 27  1  0
 27 18  1  0
 28 26  1  0
 28 30  1  0
 29 28  2  0
M  END
$$$$
