KYL.pdb
     RDKit          3D

 30 30  0  0  1  0  0  0  0  0999 V2000
   27.0004  -22.2252  -14.4942 N   0  0  0  0  0  0  0  0  0  0  0  0
   26.9805  -21.0194  -13.7375 C   0  0  1  0  0  0  0  0  0  0  0  0
   26.1003  -19.9302  -14.1674 C   0  0  0  0  0  0  0  0  0  0  0  0
   26.2429  -19.2878  -15.4766 C   0  0  0  0  0  0  0  0  0  0  0  0
   27.4625  -18.7209  -16.0208 C   0  0  0  0  0  0  0  0  0  0  0  0
   27.5327  -18.0119  -17.3032 C   0  0  0  0  0  0  0  0  0  0  0  0
   28.8397  -17.4769  -17.6364 N   0  0  0  0  0  0  0  0  0  0  0  0
   26.8707  -21.2979  -12.2622 C   0  0  0  0  0  0  0  0  0  0  0  0
   26.0408  -22.1556  -11.8689 O   0  0  0  0  0  0  0  0  0  0  0  0
   27.4150  -19.7970   -3.4823 O   0  0  0  0  0  0  0  0  0  0  0  0
   27.6693  -19.8568   -4.8646 C   0  0  0  0  0  0  0  0  0  0  0  0
   28.4875  -20.8229   -5.4050 C   0  0  0  0  0  0  0  0  0  0  0  0
   28.7423  -20.8859   -6.7740 C   0  0  0  0  0  0  0  0  0  0  0  0
   28.1698  -19.9675   -7.6198 C   0  0  0  0  0  0  0  0  0  0  0  0
   28.4292  -20.0256   -9.0563 C   0  0  0  0  0  0  0  0  0  0  0  0
   27.3760  -20.7126   -9.8613 C   0  0  2  0  0  0  0  0  0  0  0  0
   27.6551  -20.6426  -11.2942 N   0  0  0  0  0  0  0  0  0  0  0  0
   26.0017  -20.2262   -9.5818 C   0  0  0  0  0  0  0  0  0  0  0  0
   25.5989  -19.1000  -10.0358 O   0  0  0  0  0  0  0  0  0  0  0  0
   27.3497  -18.9996   -7.0753 C   0  0  0  0  0  0  0  0  0  0  0  0
   27.0955  -18.9366   -5.7097 C   0  0  0  0  0  0  0  0  0  0  0  0
   21.1126  -22.0165  -10.6802 C   0  0  0  0  0  0  0  0  0  0  0  0
   22.0112  -20.8596  -10.9672 C   0  0  1  0  0  0  0  0  0  0  0  0
   21.3118  -19.5351  -10.6420 C   0  0  0  0  0  0  0  0  0  0  0  0
   23.3442  -20.9532  -10.3817 C   0  0  0  0  0  0  0  0  0  0  0  0
   23.6016  -20.6479   -8.9435 C   0  0  2  0  0  0  0  0  0  0  0  0
   25.0701  -20.9656   -8.8136 N   0  0  0  0  0  0  0  0  0  0  0  0
   22.8660  -21.4242   -7.9646 C   0  0  0  0  0  0  0  0  0  0  0  0
   21.7247  -21.1870   -7.5157 O   0  0  0  0  0  0  0  0  0  0  0  0
   23.4679  -22.5881   -7.4327 O   0  0  0  0  0  0  0  0  0  0  0  0
  2  8  1  0
  2  1  1  6
  3  2  1  0
  4  3  1  0
  5  4  1  0
  6  5  1  0
  6  7  1  0
  8  9  2  0
 10 11  1  0
 11 12  2  0
 12 13  1  0
 14 13  2  0
 14 15  1  0
 16 17  1  0
 16 15  1  1
 17  8  1  0
 18 16  1  0
 19 18  2  0
 20 14  1  0
 21 11  1  0
 21 20  2  0
 23 22  1  1
 23 25  1  0
 24 23  1  0
 26 25  1  6
 26 27  1  0
 27 18  1  0
 28 26  1  0
 28 30  1  0
 29 28  2  0
M  END
$$$$
