KYL.pdb
     RDKit          3D

 30 30  0  0  1  0  0  0  0  0999 V2000
   44.8806  -13.2210   -8.2927 N   0  0  0  0  0  0  0  0  0  0  0  0
   44.4739  -12.2898   -7.2955 C   0  0  1  0  0  0  0  0  0  0  0  0
   45.5011  -11.5410   -6.5674 C   0  0  0  0  0  0  0  0  0  0  0  0
   46.5069  -12.2092   -5.7375 C   0  0  0  0  0  0  0  0  0  0  0  0
   47.9212  -12.3263   -6.0390 C   0  0  0  0  0  0  0  0  0  0  0  0
   48.8950  -12.9721   -5.1521 C   0  0  0  0  0  0  0  0  0  0  0  0
   48.8067  -14.4194   -5.0959 N   0  0  0  0  0  0  0  0  0  0  0  0
   43.3611  -11.4051   -7.7906 C   0  0  0  0  0  0  0  0  0  0  0  0
   43.4138  -10.9687   -8.9678 O   0  0  0  0  0  0  0  0  0  0  0  0
   35.9660   -6.3834   -7.5625 O   0  0  0  0  0  0  0  0  0  0  0  0
   36.9455   -7.3743   -7.3684 C   0  0  0  0  0  0  0  0  0  0  0  0
   37.5382   -8.0187   -8.4306 C   0  0  0  0  0  0  0  0  0  0  0  0
   38.5091   -9.0011   -8.2430 C   0  0  0  0  0  0  0  0  0  0  0  0
   38.8961   -9.3470   -6.9714 C   0  0  0  0  0  0  0  0  0  0  0  0
   39.9138  -10.3743   -6.7637 C   0  0  0  0  0  0  0  0  0  0  0  0
   41.2124  -10.1267   -7.4576 C   0  0  2  0  0  0  0  0  0  0  0  0
   42.2573  -11.0390   -6.9974 N   0  0  0  0  0  0  0  0  0  0  0  0
   41.6796   -8.7210   -7.3615 C   0  0  0  0  0  0  0  0  0  0  0  0
   42.2227   -8.2815   -6.2898 O   0  0  0  0  0  0  0  0  0  0  0  0
   38.3002   -8.6993   -5.9078 C   0  0  0  0  0  0  0  0  0  0  0  0
   37.3316   -7.7193   -6.0948 C   0  0  0  0  0  0  0  0  0  0  0  0
   44.6689   -4.8460   -7.6270 C   0  0  0  0  0  0  0  0  0  0  0  0
   44.1027   -5.1222   -8.9803 C   0  0  1  0  0  0  0  0  0  0  0  0
   45.2147   -5.1730  -10.0340 C   0  0  0  0  0  0  0  0  0  0  0  0
   43.2044   -6.2695   -9.0512 C   0  0  0  0  0  0  0  0  0  0  0  0
   41.9756   -6.3675   -8.2096 C   0  0  2  0  0  0  0  0  0  0  0  0
   41.5582   -7.7999   -8.4299 N   0  0  0  0  0  0  0  0  0  0  0  0
   40.8689   -5.4982   -8.5583 C   0  0  0  0  0  0  0  0  0  0  0  0
   40.5214   -4.4483   -7.9777 O   0  0  0  0  0  0  0  0  0  0  0  0
   40.0675   -5.8367   -9.6732 O   0  0  0  0  0  0  0  0  0  0  0  0
  2  8  1  0
  2  1  1  6
  3  2  1  0
  4  3  1  0
  5  4  1  0
  6  5  1  0
  6  7  1  0
  8  9  2  0
 10 11  1  0
 11 12  2  0
 12 13  1  0
 14 13  2  0
 14 15  1  0
 16 17  1  0
 16 15  1  1
 17  8  1  0
 18 16  1  0
 19 18  2  0
 20 14  1  0
 21 11  1  0
 21 20  2  0
 23 22  1  1
 23 25  1  0
 24 23  1  0
 26 25  1  6
 26 27  1  0
 27 18  1  0
 28 26  1  0
 28 30  1  0
 29 28  2  0
M  END
$$$$
