KYL.pdb
     RDKit          3D

 30 30  0  0  1  0  0  0  0  0999 V2000
   26.3130  -27.5290  -19.3270 N   0  0  0  0  0  0  0  0  0  0  0  0
   27.0279  -27.8640  -18.1422 C   0  0  1  0  0  0  0  0  0  0  0  0
   26.7625  -27.1037  -16.9185 C   0  0  0  0  0  0  0  0  0  0  0  0
   27.3530  -25.7839  -16.6812 C   0  0  0  0  0  0  0  0  0  0  0  0
   28.6089  -25.3007  -17.2238 C   0  0  0  0  0  0  0  0  0  0  0  0
   29.1386  -23.9541  -16.9831 C   0  0  0  0  0  0  0  0  0  0  0  0
   30.3428  -23.6281  -17.7241 N   0  0  0  0  0  0  0  0  0  0  0  0
   27.0330  -29.3505  -17.9049 C   0  0  0  0  0  0  0  0  0  0  0  0
   26.0128  -30.0156  -18.2141 O   0  0  0  0  0  0  0  0  0  0  0  0
   29.9829  -37.6686  -17.5643 O   0  0  0  0  0  0  0  0  0  0  0  0
   29.8798  -36.2673  -17.4965 C   0  0  0  0  0  0  0  0  0  0  0  0
   30.1395  -35.5817  -16.3314 C   0  0  0  0  0  0  0  0  0  0  0  0
   30.0385  -34.1933  -16.2597 C   0  0  0  0  0  0  0  0  0  0  0  0
   29.6716  -33.4753  -17.3715 C   0  0  0  0  0  0  0  0  0  0  0  0
   29.5643  -32.0198  -17.3074 C   0  0  0  0  0  0  0  0  0  0  0  0
   28.1707  -31.4925  -17.2125 C   0  0  2  0  0  0  0  0  0  0  0  0
   28.1292  -30.0382  -17.3508 N   0  0  0  0  0  0  0  0  0  0  0  0
   27.4589  -31.9113  -15.9790 C   0  0  0  0  0  0  0  0  0  0  0  0
   27.7921  -31.4407  -14.8370 O   0  0  0  0  0  0  0  0  0  0  0  0
   29.4118  -34.1652  -18.5388 C   0  0  0  0  0  0  0  0  0  0  0  0
   29.5123  -35.5502  -18.6105 C   0  0  0  0  0  0  0  0  0  0  0  0
   23.3707  -32.5187  -12.7039 C   0  0  0  0  0  0  0  0  0  0  0  0
   23.2487  -33.2570  -13.9955 C   0  0  1  0  0  0  0  0  0  0  0  0
   21.8376  -33.1077  -14.5750 C   0  0  0  0  0  0  0  0  0  0  0  0
   24.2938  -32.9694  -14.9720 C   0  0  0  0  0  0  0  0  0  0  0  0
   25.7373  -33.2175  -14.6847 C   0  0  2  0  0  0  0  0  0  0  0  0
   26.3869  -32.8362  -15.9911 N   0  0  0  0  0  0  0  0  0  0  0  0
   26.1172  -34.5765  -14.3517 C   0  0  0  0  0  0  0  0  0  0  0  0
   26.2233  -35.5442  -15.1344 O   0  0  0  0  0  0  0  0  0  0  0  0
   26.4107  -34.8863  -13.0035 O   0  0  0  0  0  0  0  0  0  0  0  0
  2  8  1  0
  2  1  1  6
  3  2  1  0
  4  3  1  0
  5  4  1  0
  6  5  1  0
  6  7  1  0
  8  9  2  0
 10 11  1  0
 11 12  2  0
 12 13  1  0
 14 13  2  0
 14 15  1  0
 16 17  1  0
 16 15  1  1
 17  8  1  0
 18 16  1  0
 19 18  2  0
 20 14  1  0
 21 11  1  0
 21 20  2  0
 23 22  1  1
 23 25  1  0
 24 23  1  0
 26 25  1  6
 26 27  1  0
 27 18  1  0
 28 26  1  0
 28 30  1  0
 29 28  2  0
M  END
$$$$
