KYL.pdb
     RDKit          3D

 30 30  0  0  1  0  0  0  0  0999 V2000
   21.5906  -19.7323  -11.3443 N   0  0  0  0  0  0  0  0  0  0  0  0
   22.2506  -20.7640  -12.0701 C   0  0  1  0  0  0  0  0  0  0  0  0
   21.6580  -21.2355  -13.3241 C   0  0  0  0  0  0  0  0  0  0  0  0
   20.4364  -22.0442  -13.3495 C   0  0  0  0  0  0  0  0  0  0  0  0
   20.3122  -23.4172  -12.8972 C   0  0  0  0  0  0  0  0  0  0  0  0
   19.0533  -24.1703  -12.9081 C   0  0  0  0  0  0  0  0  0  0  0  0
   19.1575  -25.5441  -12.4529 N   0  0  0  0  0  0  0  0  0  0  0  0
   23.7248  -20.4886  -12.1996 C   0  0  0  0  0  0  0  0  0  0  0  0
   24.0980  -19.3326  -12.5211 O   0  0  0  0  0  0  0  0  0  0  0  0
   27.3543  -19.0651   -6.1981 O   0  0  0  0  0  0  0  0  0  0  0  0
   27.2524  -19.7642   -7.4146 C   0  0  0  0  0  0  0  0  0  0  0  0
   26.0310  -20.0429   -7.9848 C   0  0  0  0  0  0  0  0  0  0  0  0
   25.9253  -20.7353   -9.1900 C   0  0  0  0  0  0  0  0  0  0  0  0
   27.0600  -21.1576   -9.8385 C   0  0  0  0  0  0  0  0  0  0  0  0
   26.9604  -21.8827  -11.1029 C   0  0  0  0  0  0  0  0  0  0  0  0
   26.1413  -21.2100  -12.1543 C   0  0  2  0  0  0  0  0  0  0  0  0
   24.7134  -21.4658  -11.9775 N   0  0  0  0  0  0  0  0  0  0  0  0
   26.5559  -21.5489  -13.5388 C   0  0  0  0  0  0  0  0  0  0  0  0
   26.2854  -22.6929  -14.0436 O   0  0  0  0  0  0  0  0  0  0  0  0
   28.2838  -20.8768   -9.2646 C   0  0  0  0  0  0  0  0  0  0  0  0
   28.3894  -20.1862   -8.0624 C   0  0  0  0  0  0  0  0  0  0  0  0
   23.1732  -20.6230  -16.7095 C   0  0  0  0  0  0  0  0  0  0  0  0
   24.5982  -21.0621  -16.7776 C   0  0  1  0  0  0  0  0  0  0  0  0
   25.0925  -21.0785  -18.2283 C   0  0  0  0  0  0  0  0  0  0  0  0
   25.5053  -20.3556  -15.8796 C   0  0  0  0  0  0  0  0  0  0  0  0
   26.9708  -20.6373  -15.8502 C   0  0  2  0  0  0  0  0  0  0  0  0
   27.2591  -20.6437  -14.3700 N   0  0  0  0  0  0  0  0  0  0  0  0
   27.8392  -19.6702  -16.4924 C   0  0  0  0  0  0  0  0  0  0  0  0
   28.0518  -18.4921  -16.1356 O   0  0  0  0  0  0  0  0  0  0  0  0
   28.5451  -20.0605  -17.6540 O   0  0  0  0  0  0  0  0  0  0  0  0
  2  8  1  0
  2  1  1  6
  3  2  1  0
  4  3  1  0
  5  4  1  0
  6  5  1  0
  6  7  1  0
  8  9  2  0
 10 11  1  0
 11 12  2  0
 12 13  1  0
 14 13  2  0
 14 15  1  0
 16 17  1  0
 16 15  1  1
 17  8  1  0
 18 16  1  0
 19 18  2  0
 20 14  1  0
 21 11  1  0
 21 20  2  0
 23 22  1  6
 23 25  1  0
 24 23  1  0
 26 25  1  1
 26 27  1  0
 27 18  1  0
 28 26  1  0
 28 30  1  0
 29 28  2  0
M  END
$$$$
