KYL.pdb
     RDKit          3D

 30 30  0  0  1  0  0  0  0  0999 V2000
   28.3837  -21.3296  -17.7681 N   0  0  0  0  0  0  0  0  0  0  0  0
   27.2716  -22.2180  -17.7384 C   0  0  1  0  0  0  0  0  0  0  0  0
   27.4103  -23.5438  -18.3459 C   0  0  0  0  0  0  0  0  0  0  0  0
   28.5957  -23.9231  -19.1191 C   0  0  0  0  0  0  0  0  0  0  0  0
   28.6064  -24.3793  -20.4964 C   0  0  0  0  0  0  0  0  0  0  0  0
   29.8160  -24.8130  -21.2040 C   0  0  0  0  0  0  0  0  0  0  0  0
   29.5912  -25.3300  -22.5411 N   0  0  0  0  0  0  0  0  0  0  0  0
   26.6510  -22.2764  -16.3682 C   0  0  0  0  0  0  0  0  0  0  0  0
   25.9000  -23.2433  -16.0852 O   0  0  0  0  0  0  0  0  0  0  0  0
   24.5251  -20.5435   -7.9122 O   0  0  0  0  0  0  0  0  0  0  0  0
   25.1279  -20.5574   -9.1832 C   0  0  0  0  0  0  0  0  0  0  0  0
   25.1687  -19.4309   -9.9732 C   0  0  0  0  0  0  0  0  0  0  0  0
   25.7649  -19.4402  -11.2332 C   0  0  0  0  0  0  0  0  0  0  0  0
   26.3313  -20.5954  -11.7139 C   0  0  0  0  0  0  0  0  0  0  0  0
   26.9600  -20.6156  -13.0325 C   0  0  0  0  0  0  0  0  0  0  0  0
   26.1597  -21.2792  -14.1040 C   0  0  2  0  0  0  0  0  0  0  0  0
   26.8702  -21.2971  -15.3810 N   0  0  0  0  0  0  0  0  0  0  0  0
   24.8040  -20.7003  -14.2790 C   0  0  0  0  0  0  0  0  0  0  0  0
   24.6230  -19.6587  -14.9995 O   0  0  0  0  0  0  0  0  0  0  0  0
   26.2890  -21.7238  -10.9197 C   0  0  0  0  0  0  0  0  0  0  0  0
   25.6943  -21.7148   -9.6629 C   0  0  0  0  0  0  0  0  0  0  0  0
   21.7334  -21.6547  -17.7497 C   0  0  0  0  0  0  0  0  0  0  0  0
   22.0638  -20.7734  -16.5911 C   0  0  1  0  0  0  0  0  0  0  0  0
   21.2785  -19.4593  -16.6673 C   0  0  0  0  0  0  0  0  0  0  0  0
   21.9703  -21.4124  -15.2830 C   0  0  0  0  0  0  0  0  0  0  0  0
   22.2983  -20.6866  -14.0207 C   0  0  2  0  0  0  0  0  0  0  0  0
   23.6510  -21.2562  -13.6740 N   0  0  0  0  0  0  0  0  0  0  0  0
   21.4044  -20.8854  -12.8967 C   0  0  0  0  0  0  0  0  0  0  0  0
   20.4338  -20.1709  -12.5683 O   0  0  0  0  0  0  0  0  0  0  0  0
   21.6161  -21.9996  -12.0521 O   0  0  0  0  0  0  0  0  0  0  0  0
  2  8  1  0
  2  1  1  1
  3  2  1  0
  4  3  1  0
  5  4  1  0
  6  5  1  0
  6  7  1  0
  8  9  2  0
 10 11  1  0
 11 12  2  0
 12 13  1  0
 14 13  2  0
 14 15  1  0
 16 17  1  0
 16 15  1  1
 17  8  1  0
 18 16  1  0
 19 18  2  0
 20 14  1  0
 21 11  1  0
 21 20  2  0
 23 22  1  6
 23 25  1  0
 24 23  1  0
 26 25  1  6
 26 27  1  0
 27 18  1  0
 28 26  1  0
 28 30  1  0
 29 28  2  0
M  END
$$$$
