FAA.pdb
     RDKit          3D

 22 22  0  0  1  0  0  0  0  0999 V2000
   21.3994  -10.0677  -17.0751 N   0  0  0  0  0  0  0  0  0  0  0  0
   21.5047   -8.8992  -16.2363 C   0  0  1  0  0  0  0  0  0  0  0  0
   22.8619   -8.2254  -16.4628 C   0  0  0  0  0  0  0  0  0  0  0  0
   23.9739   -9.0936  -16.0613 C   0  0  0  0  0  0  0  0  0  0  0  0
   24.2367   -9.2535  -14.6970 C   0  0  0  0  0  0  0  0  0  0  0  0
   25.2848  -10.0723  -14.3308 C   0  0  0  0  0  0  0  0  0  0  0  0
   26.0706  -10.7290  -15.2552 C   0  0  0  0  0  0  0  0  0  0  0  0
   25.7895  -10.5540  -16.6012 C   0  0  0  0  0  0  0  0  0  0  0  0
   24.7537   -9.7452  -16.9747 C   0  0  0  0  0  0  0  0  0  0  0  0
   20.4871   -7.8605  -16.6322 C   0  0  0  0  0  0  0  0  0  0  0  0
   20.1363   -7.7272  -17.8305 O   0  0  0  0  0  0  0  0  0  0  0  0
   17.7391   -6.1411  -14.9380 C   0  0  0  0  0  0  0  0  0  0  0  0
   18.8517   -6.0685  -15.9284 C   0  0  2  0  0  0  0  0  0  0  0  0
   19.9107   -7.0219  -15.6722 N   0  0  0  0  0  0  0  0  0  0  0  0
   19.4149   -4.7497  -16.1564 C   0  0  0  0  0  0  0  0  0  0  0  0
   20.4186   -4.3908  -15.4866 O   0  0  0  0  0  0  0  0  0  0  0  0
   19.0118   -1.8156  -18.4838 C   0  0  0  0  0  0  0  0  0  0  0  0
   19.5635   -2.5173  -17.2638 C   0  0  2  0  0  0  0  0  0  0  0  0
   18.9255   -3.8004  -17.0905 N   0  0  0  0  0  0  0  0  0  0  0  0
   19.3820   -1.6498  -16.0914 C   0  0  0  0  0  0  0  0  0  0  0  0
   18.4769   -1.8875  -15.2403 O   0  0  0  0  0  0  0  0  0  0  0  0
   20.1863   -0.5600  -15.8864 O   0  0  0  0  0  0  0  0  0  0  0  0
  2  1  1  6
  2 10  1  0
  3  2  1  0
  4  3  1  0
  5  4  2  0
  6  5  1  0
  7  8  1  0
  7  6  2  0
  8  9  2  0
  9  4  1  0
 10 14  1  0
 10 11  2  0
 13 12  1  1
 14 13  1  0
 15 13  1  0
 15 19  1  0
 16 15  2  0
 18 17  1  6
 18 19  1  0
 18 20  1  0
 20 22  1  0
 21 20  2  0
M  END
$$$$
