FAA.pdb
     RDKit          3D

 22 22  0  0  1  0  0  0  0  0999 V2000
   28.1378  -21.3895  -15.2616 N   0  0  0  0  0  0  0  0  0  0  0  0
   27.1943  -21.5309  -14.1800 C   0  0  1  0  0  0  0  0  0  0  0  0
   27.2158  -20.2687  -13.3120 C   0  0  0  0  0  0  0  0  0  0  0  0
   26.3655  -20.4102  -12.1252 C   0  0  0  0  0  0  0  0  0  0  0  0
   25.0397  -19.9712  -12.1979 C   0  0  0  0  0  0  0  0  0  0  0  0
   24.2491  -20.1093  -11.0759 C   0  0  0  0  0  0  0  0  0  0  0  0
   24.7188  -20.6591   -9.9010 C   0  0  0  0  0  0  0  0  0  0  0  0
   26.0366  -21.0866   -9.8547 C   0  0  0  0  0  0  0  0  0  0  0  0
   26.8282  -20.9545  -10.9603 C   0  0  0  0  0  0  0  0  0  0  0  0
   25.7842  -21.6144  -14.7052 C   0  0  0  0  0  0  0  0  0  0  0  0
   25.3993  -20.8664  -15.6374 O   0  0  0  0  0  0  0  0  0  0  0  0
   23.2722  -24.3190  -14.6756 C   0  0  0  0  0  0  0  0  0  0  0  0
   23.5887  -22.8632  -14.7432 C   0  0  2  0  0  0  0  0  0  0  0  0
   24.8730  -22.5280  -14.1648 N   0  0  0  0  0  0  0  0  0  0  0  0
   22.5660  -21.9660  -14.2359 C   0  0  0  0  0  0  0  0  0  0  0  0
   22.4467  -21.8182  -12.9914 O   0  0  0  0  0  0  0  0  0  0  0  0
   20.1727  -19.3592  -15.4948 C   0  0  0  0  0  0  0  0  0  0  0  0
   20.7190  -20.2995  -14.4446 C   0  0  2  0  0  0  0  0  0  0  0  0
   21.6624  -21.2186  -15.0349 N   0  0  0  0  0  0  0  0  0  0  0  0
   19.5983  -20.9991  -13.8010 C   0  0  0  0  0  0  0  0  0  0  0  0
   19.2828  -22.1752  -14.1435 O   0  0  0  0  0  0  0  0  0  0  0  0
   18.8634  -20.3990  -12.8127 O   0  0  0  0  0  0  0  0  0  0  0  0
  2  1  1  6
  2 10  1  0
  3  2  1  0
  4  3  1  0
  5  4  2  0
  6  5  1  0
  7  8  1  0
  7  6  2  0
  8  9  2  0
  9  4  1  0
 10 14  1  0
 10 11  2  0
 13 12  1  1
 14 13  1  0
 15 13  1  0
 15 19  1  0
 16 15  2  0
 18 17  1  6
 18 19  1  0
 18 20  1  0
 20 22  1  0
 21 20  2  0
M  END
$$$$
