FAA.pdb
     RDKit          3D

 22 22  0  0  1  0  0  0  0  0999 V2000
   27.8211  -22.9968  -12.0450 N   0  0  0  0  0  0  0  0  0  0  0  0
   27.2227  -22.0506  -11.1358 C   0  0  1  0  0  0  0  0  0  0  0  0
   28.1147  -20.8099  -11.0260 C   0  0  0  0  0  0  0  0  0  0  0  0
   29.3537  -21.0939  -10.2942 C   0  0  0  0  0  0  0  0  0  0  0  0
   30.5326  -21.2779  -11.0238 C   0  0  0  0  0  0  0  0  0  0  0  0
   31.6919  -21.5444  -10.3253 C   0  0  0  0  0  0  0  0  0  0  0  0
   31.7244  -21.6337   -8.9490 C   0  0  0  0  0  0  0  0  0  0  0  0
   30.5425  -21.4472   -8.2490 C   0  0  0  0  0  0  0  0  0  0  0  0
   29.3887  -21.1828   -8.9311 C   0  0  0  0  0  0  0  0  0  0  0  0
   25.9136  -21.5383  -11.6790 C   0  0  0  0  0  0  0  0  0  0  0  0
   25.6098  -21.7015  -12.8864 O   0  0  0  0  0  0  0  0  0  0  0  0
   22.8292  -20.2017   -9.9332 C   0  0  0  0  0  0  0  0  0  0  0  0
   23.5871  -20.7447  -11.0972 C   0  0  2  0  0  0  0  0  0  0  0  0
   25.0080  -20.8692  -10.8488 N   0  0  0  0  0  0  0  0  0  0  0  0
   23.3613  -20.0805  -12.3685 C   0  0  0  0  0  0  0  0  0  0  0  0
   24.0026  -19.0293  -12.6301 O   0  0  0  0  0  0  0  0  0  0  0  0
   22.1380  -20.6403  -15.7747 C   0  0  0  0  0  0  0  0  0  0  0  0
   22.2236  -19.7388  -14.5641 C   0  0  2  0  0  0  0  0  0  0  0  0
   22.4593  -20.5184  -13.3726 N   0  0  0  0  0  0  0  0  0  0  0  0
   20.9880  -18.9487  -14.4692 C   0  0  0  0  0  0  0  0  0  0  0  0
   20.1955  -19.0954  -13.4944 O   0  0  0  0  0  0  0  0  0  0  0  0
   20.6588  -18.0317  -15.4323 O   0  0  0  0  0  0  0  0  0  0  0  0
  2  1  1  6
  2 10  1  0
  3  2  1  0
  4  3  1  0
  5  4  2  0
  6  5  1  0
  7  8  1  0
  7  6  2  0
  8  9  2  0
  9  4  1  0
 10 14  1  0
 10 11  2  0
 13 12  1  1
 14 13  1  0
 15 13  1  0
 15 19  1  0
 16 15  2  0
 18 17  1  6
 18 19  1  0
 18 20  1  0
 20 22  1  0
 21 20  2  0
M  END
$$$$
