FAA.pdb
     RDKit          3D

 22 22  0  0  1  0  0  0  0  0999 V2000
   16.0838  -10.5145  -13.2456 N   0  0  0  0  0  0  0  0  0  0  0  0
   16.9576   -9.3698  -13.1676 C   0  0  1  0  0  0  0  0  0  0  0  0
   17.1896   -8.8044  -14.5724 C   0  0  0  0  0  0  0  0  0  0  0  0
   17.9805   -9.7189  -15.4029 C   0  0  0  0  0  0  0  0  0  0  0  0
   17.3171  -10.4957  -16.3582 C   0  0  0  0  0  0  0  0  0  0  0  0
   18.0708  -11.3520  -17.1337 C   0  0  0  0  0  0  0  0  0  0  0  0
   19.4392  -11.4646  -16.9984 C   0  0  0  0  0  0  0  0  0  0  0  0
   20.0730  -10.6838  -16.0444 C   0  0  0  0  0  0  0  0  0  0  0  0
   19.3358   -9.8323  -15.2710 C   0  0  0  0  0  0  0  0  0  0  0  0
   16.3048   -8.2473  -12.4026 C   0  0  0  0  0  0  0  0  0  0  0  0
   15.1130   -7.9226  -12.6281 O   0  0  0  0  0  0  0  0  0  0  0  0
   17.2161   -6.2656   -9.3358 C   0  0  0  0  0  0  0  0  0  0  0  0
   16.4704   -6.4749  -10.6102 C   0  0  2  0  0  0  0  0  0  0  0  0
   17.0135   -7.5424  -11.4238 N   0  0  0  0  0  0  0  0  0  0  0  0
   16.2556   -5.2910  -11.4230 C   0  0  0  0  0  0  0  0  0  0  0  0
   17.0690   -5.0298  -12.3476 O   0  0  0  0  0  0  0  0  0  0  0  0
   13.7216   -2.5446  -11.9023 C   0  0  0  0  0  0  0  0  0  0  0  0
   15.0664   -3.2047  -12.1051 C   0  0  2  0  0  0  0  0  0  0  0  0
   15.1834   -4.3745  -11.2678 N   0  0  0  0  0  0  0  0  0  0  0  0
   16.1257   -2.2236  -11.8308 C   0  0  0  0  0  0  0  0  0  0  0  0
   16.6734   -2.1588  -10.6925 O   0  0  0  0  0  0  0  0  0  0  0  0
   16.5503   -1.3517  -12.7984 O   0  0  0  0  0  0  0  0  0  0  0  0
  2  1  1  6
  2 10  1  0
  3  2  1  0
  4  3  1  0
  5  4  2  0
  6  5  1  0
  7  8  1  0
  7  6  2  0
  8  9  2  0
  9  4  1  0
 10 14  1  0
 10 11  2  0
 13 12  1  1
 14 13  1  0
 15 13  1  0
 15 19  1  0
 16 15  2  0
 18 17  1  1
 18 19  1  0
 18 20  1  0
 20 22  1  0
 21 20  2  0
M  END
$$$$
