FAA.pdb
     RDKit          3D

 22 22  0  0  1  0  0  0  0  0999 V2000
   15.3963  -12.8856    4.3491 N   0  0  0  0  0  0  0  0  0  0  0  0
   16.0383  -12.3249    5.5125 C   0  0  1  0  0  0  0  0  0  0  0  0
   15.2530  -12.7133    6.7693 C   0  0  0  0  0  0  0  0  0  0  0  0
   14.0175  -11.9339    6.9011 C   0  0  0  0  0  0  0  0  0  0  0  0
   12.8010  -12.5557    6.6020 C   0  0  0  0  0  0  0  0  0  0  0  0
   11.6453  -11.8133    6.7296 C   0  0  0  0  0  0  0  0  0  0  0  0
   11.6520  -10.4953    7.1372 C   0  0  0  0  0  0  0  0  0  0  0  0
   12.8706   -9.9020    7.4277 C   0  0  0  0  0  0  0  0  0  0  0  0
   14.0212  -10.6284    7.3047 C   0  0  0  0  0  0  0  0  0  0  0  0
   17.4067  -12.9241    5.7116 C   0  0  0  0  0  0  0  0  0  0  0  0
   17.6665  -14.0840    5.3068 O   0  0  0  0  0  0  0  0  0  0  0  0
   20.7508  -11.5590    6.7730 C   0  0  0  0  0  0  0  0  0  0  0  0
   19.7745  -12.6646    6.5527 C   0  0  2  0  0  0  0  0  0  0  0  0
   18.4179  -12.2002    6.3524 N   0  0  0  0  0  0  0  0  0  0  0  0
   19.7935  -13.7346    7.5341 C   0  0  0  0  0  0  0  0  0  0  0  0
   19.0740  -13.6326    8.5620 O   0  0  0  0  0  0  0  0  0  0  0  0
   21.2685  -17.1731    8.0030 C   0  0  0  0  0  0  0  0  0  0  0  0
   20.4802  -15.9584    8.4370 C   0  0  2  0  0  0  0  0  0  0  0  0
   20.5698  -14.9186    7.4399 N   0  0  0  0  0  0  0  0  0  0  0  0
   20.9763  -15.5100    9.7457 C   0  0  0  0  0  0  0  0  0  0  0  0
   21.7821  -14.5394    9.8380 O   0  0  0  0  0  0  0  0  0  0  0  0
   20.5813  -16.1292   10.9021 O   0  0  0  0  0  0  0  0  0  0  0  0
  2  1  1  6
  2 10  1  0
  3  2  1  0
  4  3  1  0
  5  4  2  0
  6  5  1  0
  7  8  1  0
  7  6  2  0
  8  9  2  0
  9  4  1  0
 10 14  1  0
 10 11  2  0
 13 12  1  1
 14 13  1  0
 15 13  1  0
 15 19  1  0
 16 15  2  0
 18 17  1  6
 18 19  1  0
 18 20  1  0
 20 22  1  0
 21 20  2  0
M  END
$$$$
