FAA.pdb
     RDKit          3D

 22 22  0  0  1  0  0  0  0  0999 V2000
   21.1019   -8.4850  -17.1482 N   0  0  0  0  0  0  0  0  0  0  0  0
   20.3350   -7.7864  -16.1463 C   0  0  1  0  0  0  0  0  0  0  0  0
   21.2844   -7.1183  -15.1466 C   0  0  0  0  0  0  0  0  0  0  0  0
   21.8467   -8.0872  -14.1997 C   0  0  0  0  0  0  0  0  0  0  0  0
   21.1619   -8.3266  -13.0041 C   0  0  0  0  0  0  0  0  0  0  0  0
   21.6998   -9.2398  -12.1211 C   0  0  0  0  0  0  0  0  0  0  0  0
   22.8755   -9.9147  -12.3769 C   0  0  0  0  0  0  0  0  0  0  0  0
   23.5352   -9.6596  -13.5691 C   0  0  0  0  0  0  0  0  0  0  0  0
   23.0110   -8.7570  -14.4507 C   0  0  0  0  0  0  0  0  0  0  0  0
   19.5586   -6.6499  -16.7602 C   0  0  0  0  0  0  0  0  0  0  0  0
   20.0671   -5.9340  -17.6578 O   0  0  0  0  0  0  0  0  0  0  0  0
   15.9546   -5.6808  -16.8664 C   0  0  0  0  0  0  0  0  0  0  0  0
   17.4053   -5.3369  -16.9030 C   0  0  2  0  0  0  0  0  0  0  0  0
   18.2534   -6.3680  -16.3429 N   0  0  0  0  0  0  0  0  0  0  0  0
   17.7661   -4.0430  -16.3516 C   0  0  0  0  0  0  0  0  0  0  0  0
   18.2522   -3.9882  -15.1917 O   0  0  0  0  0  0  0  0  0  0  0  0
   18.0954   -0.4539  -17.4190 C   0  0  0  0  0  0  0  0  0  0  0  0
   18.0090   -1.5588  -16.3908 C   0  0  2  0  0  0  0  0  0  0  0  0
   17.6175   -2.7988  -17.0173 N   0  0  0  0  0  0  0  0  0  0  0  0
   17.0701   -1.1555  -15.3346 C   0  0  0  0  0  0  0  0  0  0  0  0
   15.8737   -1.5659  -15.3365 O   0  0  0  0  0  0  0  0  0  0  0  0
   17.4625   -0.3244  -14.3186 O   0  0  0  0  0  0  0  0  0  0  0  0
  2  1  1  6
  2 10  1  0
  3  2  1  0
  4  3  1  0
  5  4  2  0
  6  5  1  0
  7  8  1  0
  7  6  2  0
  8  9  2  0
  9  4  1  0
 10 14  1  0
 10 11  2  0
 13 12  1  1
 14 13  1  0
 15 13  1  0
 15 19  1  0
 16 15  2  0
 18 17  1  6
 18 19  1  0
 18 20  1  0
 20 22  1  0
 21 20  2  0
M  END
$$$$
