FAA.pdb
     RDKit          3D

 22 22  0  0  1  0  0  0  0  0999 V2000
   28.0414  -21.4773  -10.8581 N   0  0  0  0  0  0  0  0  0  0  0  0
   26.6361  -21.2766  -10.6037 C   0  0  1  0  0  0  0  0  0  0  0  0
   26.4216  -19.9010   -9.9642 C   0  0  0  0  0  0  0  0  0  0  0  0
   26.9346  -19.8538   -8.5908 C   0  0  0  0  0  0  0  0  0  0  0  0
   26.1541  -20.4016   -7.5677 C   0  0  0  0  0  0  0  0  0  0  0  0
   26.6464  -20.3518   -6.2800 C   0  0  0  0  0  0  0  0  0  0  0  0
   27.8671  -19.7865   -5.9742 C   0  0  0  0  0  0  0  0  0  0  0  0
   28.6215  -19.2504   -7.0062 C   0  0  0  0  0  0  0  0  0  0  0  0
   28.1433  -19.2946   -8.2852 C   0  0  0  0  0  0  0  0  0  0  0  0
   25.8585  -21.2281  -11.8938 C   0  0  0  0  0  0  0  0  0  0  0  0
   26.3438  -20.6870  -12.9177 O   0  0  0  0  0  0  0  0  0  0  0  0
   22.7763  -22.9955  -13.1271 C   0  0  0  0  0  0  0  0  0  0  0  0
   23.8088  -21.9217  -13.1971 C   0  0  2  0  0  0  0  0  0  0  0  0
   24.5782  -21.7856  -11.9782 N   0  0  0  0  0  0  0  0  0  0  0  0
   23.3426  -20.6193  -13.6385 C   0  0  0  0  0  0  0  0  0  0  0  0
   22.9170  -19.8011  -12.7816 O   0  0  0  0  0  0  0  0  0  0  0  0
   23.4500  -18.4090  -16.6489 C   0  0  0  0  0  0  0  0  0  0  0  0
   22.8586  -18.8467  -15.3282 C   0  0  2  0  0  0  0  0  0  0  0  0
   23.3215  -20.1698  -14.9841 N   0  0  0  0  0  0  0  0  0  0  0  0
   21.3930  -18.7822  -15.4169 C   0  0  0  0  0  0  0  0  0  0  0  0
   20.7908  -17.6700  -15.4344 O   0  0  0  0  0  0  0  0  0  0  0  0
   20.6374  -19.9230  -15.4831 O   0  0  0  0  0  0  0  0  0  0  0  0
  2  1  1  6
  2 10  1  0
  3  2  1  0
  4  3  1  0
  5  4  2  0
  6  5  1  0
  7  8  1  0
  7  6  2  0
  8  9  2  0
  9  4  1  0
 10 14  1  0
 10 11  2  0
 13 12  1  1
 14 13  1  0
 15 13  1  0
 15 19  1  0
 16 15  2  0
 18 17  1  6
 18 19  1  0
 18 20  1  0
 20 22  1  0
 21 20  2  0
M  END
$$$$
