FAA.pdb
     RDKit          3D

 22 22  0  0  1  0  0  0  0  0999 V2000
   23.4105  -16.3960  -19.1417 N   0  0  0  0  0  0  0  0  0  0  0  0
   22.9420  -15.4105  -18.1987 C   0  0  1  0  0  0  0  0  0  0  0  0
   24.1125  -14.5269  -17.7557 C   0  0  0  0  0  0  0  0  0  0  0  0
   25.1302  -15.2953  -17.0310 C   0  0  0  0  0  0  0  0  0  0  0  0
   26.2595  -15.7332  -17.7303 C   0  0  0  0  0  0  0  0  0  0  0  0
   27.2102  -16.4549  -17.0388 C   0  0  0  0  0  0  0  0  0  0  0  0
   27.0837  -16.7540  -15.6979 C   0  0  0  0  0  0  0  0  0  0  0  0
   25.9551  -16.3086  -15.0275 C   0  0  0  0  0  0  0  0  0  0  0  0
   25.0074  -15.5929  -15.7030 C   0  0  0  0  0  0  0  0  0  0  0  0
   21.9685  -14.4632  -18.8514 C   0  0  0  0  0  0  0  0  0  0  0  0
   22.1768  -14.0225  -20.0086 O   0  0  0  0  0  0  0  0  0  0  0  0
   18.4350  -13.4323  -18.2123 C   0  0  0  0  0  0  0  0  0  0  0  0
   19.8098  -13.1578  -18.7209 C   0  0  2  0  0  0  0  0  0  0  0  0
   20.8106  -14.0540  -18.1813 N   0  0  0  0  0  0  0  0  0  0  0  0
   20.2645  -11.7829  -18.6138 C   0  0  0  0  0  0  0  0  0  0  0  0
   20.9376  -11.4397  -17.6069 O   0  0  0  0  0  0  0  0  0  0  0  0
   20.3693   -8.6100  -20.6312 C   0  0  0  0  0  0  0  0  0  0  0  0
   20.4590   -9.4051  -19.3486 C   0  0  2  0  0  0  0  0  0  0  0  0
   20.0137  -10.7608  -19.5655 N   0  0  0  0  0  0  0  0  0  0  0  0
   19.6707   -8.7265  -18.3103 C   0  0  0  0  0  0  0  0  0  0  0  0
   20.0746   -7.6475  -17.7882 O   0  0  0  0  0  0  0  0  0  0  0  0
   18.4772   -9.2418  -17.8782 O   0  0  0  0  0  0  0  0  0  0  0  0
  2  1  1  6
  2 10  1  0
  3  2  1  0
  4  3  1  0
  5  4  2  0
  6  5  1  0
  7  8  1  0
  7  6  2  0
  8  9  2  0
  9  4  1  0
 10 14  1  0
 10 11  2  0
 13 12  1  1
 14 13  1  0
 15 13  1  0
 15 19  1  0
 16 15  2  0
 18 17  1  6
 18 19  1  0
 18 20  1  0
 20 22  1  0
 21 20  2  0
M  END
$$$$
