FAA.pdb
     RDKit          3D

 22 22  0  0  1  0  0  0  0  0999 V2000
   25.2105  -10.9550  -18.5958 N   0  0  0  0  0  0  0  0  0  0  0  0
   24.7619  -10.7972  -17.2342 C   0  0  1  0  0  0  0  0  0  0  0  0
   25.9410  -10.3773  -16.3507 C   0  0  0  0  0  0  0  0  0  0  0  0
   26.9864  -11.4055  -16.3141 C   0  0  0  0  0  0  0  0  0  0  0  0
   28.2326  -11.1106  -16.8760 C   0  0  0  0  0  0  0  0  0  0  0  0
   29.2084  -12.0849  -16.8358 C   0  0  0  0  0  0  0  0  0  0  0  0
   28.9962  -13.3236  -16.2668 C   0  0  0  0  0  0  0  0  0  0  0  0
   27.7523  -13.5913  -15.7167 C   0  0  0  0  0  0  0  0  0  0  0  0
   26.7789  -12.6332  -15.7511 C   0  0  0  0  0  0  0  0  0  0  0  0
   23.7732   -9.6653  -17.1224 C   0  0  0  0  0  0  0  0  0  0  0  0
   23.9085   -8.6226  -17.8088 O   0  0  0  0  0  0  0  0  0  0  0  0
   20.3536   -9.3730  -15.5702 C   0  0  0  0  0  0  0  0  0  0  0  0
   21.5850   -8.8096  -16.1949 C   0  0  2  0  0  0  0  0  0  0  0  0
   22.6825   -9.7521  -16.2507 N   0  0  0  0  0  0  0  0  0  0  0  0
   22.0462   -7.5411  -15.6594 C   0  0  0  0  0  0  0  0  0  0  0  0
   22.9006   -7.5436  -14.7350 O   0  0  0  0  0  0  0  0  0  0  0  0
   21.7230   -3.8523  -16.3551 C   0  0  0  0  0  0  0  0  0  0  0  0
   22.1828   -5.0506  -15.5563 C   0  0  2  0  0  0  0  0  0  0  0  0
   21.6111   -6.2621  -16.0934 N   0  0  0  0  0  0  0  0  0  0  0  0
   21.8225   -4.8505  -14.1456 C   0  0  0  0  0  0  0  0  0  0  0  0
   20.7457   -5.3198  -13.6765 O   0  0  0  0  0  0  0  0  0  0  0  0
   22.6411   -4.1509  -13.2987 O   0  0  0  0  0  0  0  0  0  0  0  0
  2  1  1  6
  2 10  1  0
  3  2  1  0
  4  3  1  0
  5  4  2  0
  6  5  1  0
  7  8  1  0
  7  6  2  0
  8  9  2  0
  9  4  1  0
 10 14  1  0
 10 11  2  0
 13 12  1  1
 14 13  1  0
 15 13  1  0
 15 19  1  0
 16 15  2  0
 18 17  1  6
 18 19  1  0
 18 20  1  0
 20 22  1  0
 21 20  2  0
M  END
$$$$
