FAA.pdb
     RDKit          3D

 22 22  0  0  1  0  0  0  0  0999 V2000
   21.2537   -8.3188  -13.3742 N   0  0  0  0  0  0  0  0  0  0  0  0
   21.5622   -7.6896  -14.6347 C   0  0  1  0  0  0  0  0  0  0  0  0
   20.3171   -7.6907  -15.5273 C   0  0  0  0  0  0  0  0  0  0  0  0
   19.9305   -9.0501  -15.9198 C   0  0  0  0  0  0  0  0  0  0  0  0
   20.7959   -9.7789  -16.7419 C   0  0  0  0  0  0  0  0  0  0  0  0
   20.4224  -11.0563  -17.1047 C   0  0  0  0  0  0  0  0  0  0  0  0
   19.2385  -11.6292  -16.6880 C   0  0  0  0  0  0  0  0  0  0  0  0
   18.3981  -10.8860  -15.8738 C   0  0  0  0  0  0  0  0  0  0  0  0
   18.7586   -9.6198  -15.5085 C   0  0  0  0  0  0  0  0  0  0  0  0
   21.8965   -6.2330  -14.4401 C   0  0  0  0  0  0  0  0  0  0  0  0
   21.6989   -5.6694  -13.3355 O   0  0  0  0  0  0  0  0  0  0  0  0
   23.8575   -3.7018  -16.4117 C   0  0  0  0  0  0  0  0  0  0  0  0
   22.8472   -4.0927  -15.3868 C   0  0  2  0  0  0  0  0  0  0  0  0
   22.4347   -5.4769  -15.4868 N   0  0  0  0  0  0  0  0  0  0  0  0
   21.6814   -3.2331  -15.2831 C   0  0  0  0  0  0  0  0  0  0  0  0
   21.8327   -2.0435  -14.9001 O   0  0  0  0  0  0  0  0  0  0  0  0
   18.2281   -3.0579  -16.6174 C   0  0  0  0  0  0  0  0  0  0  0  0
   19.2728   -2.6588  -15.6001 C   0  0  2  0  0  0  0  0  0  0  0  0
   20.3493   -3.6200  -15.5817 N   0  0  0  0  0  0  0  0  0  0  0  0
   18.6315   -2.5257  -14.2845 C   0  0  0  0  0  0  0  0  0  0  0  0
   18.8716   -3.3518  -13.3573 O   0  0  0  0  0  0  0  0  0  0  0  0
   17.7561   -1.5045  -14.0242 O   0  0  0  0  0  0  0  0  0  0  0  0
  2  1  1  1
  2 10  1  0
  3  2  1  0
  4  3  1  0
  5  4  2  0
  6  5  1  0
  7  8  1  0
  7  6  2  0
  8  9  2  0
  9  4  1  0
 10 14  1  0
 10 11  2  0
 13 12  1  6
 14 13  1  0
 15 13  1  0
 15 19  1  0
 16 15  2  0
 18 17  1  6
 18 19  1  0
 18 20  1  0
 20 22  1  0
 21 20  2  0
M  END
$$$$
