FAA.pdb
     RDKit          3D

 22 22  0  0  1  0  0  0  0  0999 V2000
   20.3500   -9.6363  -16.4993 N   0  0  0  0  0  0  0  0  0  0  0  0
   19.2660   -8.7487  -16.8414 C   0  0  1  0  0  0  0  0  0  0  0  0
   17.9329   -9.3883  -16.4407 C   0  0  0  0  0  0  0  0  0  0  0  0
   17.6444  -10.5873  -17.2349 C   0  0  0  0  0  0  0  0  0  0  0  0
   17.5716  -11.8205  -16.5793 C   0  0  0  0  0  0  0  0  0  0  0  0
   17.2996  -12.9414  -17.3361 C   0  0  0  0  0  0  0  0  0  0  0  0
   17.1000  -12.8847  -18.7000 C   0  0  0  0  0  0  0  0  0  0  0  0
   17.1774  -11.6503  -19.3260 C   0  0  0  0  0  0  0  0  0  0  0  0
   17.4462  -10.5339  -18.5858 C   0  0  0  0  0  0  0  0  0  0  0  0
   19.3405   -7.4758  -16.0381 C   0  0  0  0  0  0  0  0  0  0  0  0
   18.3905   -6.6547  -16.0437 O   0  0  0  0  0  0  0  0  0  0  0  0
   21.7627   -6.1284  -13.4644 C   0  0  0  0  0  0  0  0  0  0  0  0
   20.6152   -6.0233  -14.4112 C   0  0  2  0  0  0  0  0  0  0  0  0
   20.4708   -7.1814  -15.2681 N   0  0  0  0  0  0  0  0  0  0  0  0
   20.5540   -4.8082  -15.2036 C   0  0  0  0  0  0  0  0  0  0  0  0
   21.2323   -4.7349  -16.2616 O   0  0  0  0  0  0  0  0  0  0  0  0
   18.3610   -1.9483  -15.8574 C   0  0  0  0  0  0  0  0  0  0  0  0
   19.7627   -2.5041  -15.7485 C   0  0  2  0  0  0  0  0  0  0  0  0
   19.7785   -3.6626  -14.8878 N   0  0  0  0  0  0  0  0  0  0  0  0
   20.6593   -1.4456  -15.2630 C   0  0  0  0  0  0  0  0  0  0  0  0
   21.1802   -1.5117  -14.1122 O   0  0  0  0  0  0  0  0  0  0  0  0
   20.9568   -0.3582  -16.0413 O   0  0  0  0  0  0  0  0  0  0  0  0
  2  1  1  1
  2 10  1  0
  3  2  1  0
  4  3  1  0
  5  4  2  0
  6  5  1  0
  7  8  1  0
  7  6  2  0
  8  9  2  0
  9  4  1  0
 10 14  1  0
 10 11  2  0
 13 12  1  6
 14 13  1  0
 15 13  1  0
 15 19  1  0
 16 15  2  0
 18 17  1  1
 18 19  1  0
 18 20  1  0
 20 22  1  0
 21 20  2  0
M  END
$$$$
