FAA.pdb
     RDKit          3D

 22 22  0  0  1  0  0  0  0  0999 V2000
   25.5183  -20.6550   -7.8975 N   0  0  0  0  0  0  0  0  0  0  0  0
   26.6917  -20.1429   -8.5616 C   0  0  1  0  0  0  0  0  0  0  0  0
   27.9453  -20.7765   -7.9498 C   0  0  0  0  0  0  0  0  0  0  0  0
   28.1361  -20.3667   -6.5544 C   0  0  0  0  0  0  0  0  0  0  0  0
   27.9204  -19.0268   -6.2168 C   0  0  0  0  0  0  0  0  0  0  0  0
   28.1026  -18.6526   -4.9017 C   0  0  0  0  0  0  0  0  0  0  0  0
   28.4856  -19.5462   -3.9228 C   0  0  0  0  0  0  0  0  0  0  0  0
   28.6931  -20.8686   -4.2831 C   0  0  0  0  0  0  0  0  0  0  0  0
   28.5153  -21.2497   -5.5830 C   0  0  0  0  0  0  0  0  0  0  0  0
   26.7148  -20.5612  -10.0093 C   0  0  0  0  0  0  0  0  0  0  0  0
   27.7754  -20.5032  -10.6790 O   0  0  0  0  0  0  0  0  0  0  0  0
   25.1736  -22.7400  -12.3532 C   0  0  0  0  0  0  0  0  0  0  0  0
   25.4294  -21.3016  -12.0539 C   0  0  2  0  0  0  0  0  0  0  0  0
   25.5541  -21.0237  -10.6385 N   0  0  0  0  0  0  0  0  0  0  0  0
   24.5181  -20.3526  -12.6681 C   0  0  0  0  0  0  0  0  0  0  0  0
   23.4860  -20.0024  -12.0381 O   0  0  0  0  0  0  0  0  0  0  0  0
   24.4032  -17.9915  -15.5794 C   0  0  0  0  0  0  0  0  0  0  0  0
   23.7714  -18.7674  -14.4462 C   0  0  2  0  0  0  0  0  0  0  0  0
   24.6871  -19.7662  -13.9491 N   0  0  0  0  0  0  0  0  0  0  0  0
   22.5126  -19.3612  -14.9180 C   0  0  0  0  0  0  0  0  0  0  0  0
   22.4699  -20.5589  -15.3226 O   0  0  0  0  0  0  0  0  0  0  0  0
   21.3504  -18.6361  -14.9335 O   0  0  0  0  0  0  0  0  0  0  0  0
  2  1  1  1
  2 10  1  0
  3  2  1  0
  4  3  1  0
  5  4  2  0
  6  5  1  0
  7  8  1  0
  7  6  2  0
  8  9  2  0
  9  4  1  0
 10 14  1  0
 10 11  2  0
 13 12  1  1
 14 13  1  0
 15 13  1  0
 15 19  1  0
 16 15  2  0
 18 17  1  6
 18 19  1  0
 18 20  1  0
 20 22  1  0
 21 20  2  0
M  END
$$$$
