FAA.pdb
     RDKit          3D

 22 22  0  0  1  0  0  0  0  0999 V2000
   17.7158  -18.7814   -0.2344 N   0  0  0  0  0  0  0  0  0  0  0  0
   18.1937  -19.8322    0.6302 C   0  0  1  0  0  0  0  0  0  0  0  0
   19.6106  -19.4990    1.1081 C   0  0  0  0  0  0  0  0  0  0  0  0
   20.5549  -19.4090   -0.0108 C   0  0  0  0  0  0  0  0  0  0  0  0
   20.9886  -18.1433   -0.4179 C   0  0  0  0  0  0  0  0  0  0  0  0
   21.8767  -18.0704   -1.4710 C   0  0  0  0  0  0  0  0  0  0  0  0
   22.3436  -19.1913   -2.1259 C   0  0  0  0  0  0  0  0  0  0  0  0
   21.8985  -20.4342   -1.7033 C   0  0  0  0  0  0  0  0  0  0  0  0
   21.0189  -20.5175   -0.6612 C   0  0  0  0  0  0  0  0  0  0  0  0
   17.3693  -19.9078    1.8895 C   0  0  0  0  0  0  0  0  0  0  0  0
   17.0016  -18.8634    2.4817 O   0  0  0  0  0  0  0  0  0  0  0  0
   15.6330  -22.6923    3.7598 C   0  0  0  0  0  0  0  0  0  0  0  0
   16.2189  -21.3267    3.6344 C   0  0  2  0  0  0  0  0  0  0  0  0
   16.9955  -21.1445    2.4261 N   0  0  0  0  0  0  0  0  0  0  0  0
   16.9674  -20.8481    4.7829 C   0  0  0  0  0  0  0  0  0  0  0  0
   18.2225  -20.9456    4.7770 O   0  0  0  0  0  0  0  0  0  0  0  0
   16.5501  -18.6070    7.7113 C   0  0  0  0  0  0  0  0  0  0  0  0
   17.2273  -19.7674    7.0182 C   0  0  2  0  0  0  0  0  0  0  0  0
   16.3999  -20.2638    5.9448 N   0  0  0  0  0  0  0  0  0  0  0  0
   17.5237  -20.8094    8.0114 C   0  0  0  0  0  0  0  0  0  0  0  0
   16.9910  -21.9539    7.9322 O   0  0  0  0  0  0  0  0  0  0  0  0
   18.3843  -20.5720    9.0506 O   0  0  0  0  0  0  0  0  0  0  0  0
  2  1  1  6
  2 10  1  0
  3  2  1  0
  4  3  1  0
  5  4  2  0
  6  5  1  0
  7  8  1  0
  7  6  2  0
  8  9  2  0
  9  4  1  0
 10 14  1  0
 10 11  2  0
 13 12  1  1
 14 13  1  0
 15 13  1  0
 15 19  1  0
 16 15  2  0
 18 17  1  1
 18 19  1  0
 18 20  1  0
 20 22  1  0
 21 20  2  0
M  END
$$$$
