FAA.pdb
     RDKit          3D

 22 22  0  0  1  0  0  0  0  0999 V2000
   26.0580  -20.2746  -11.8517 N   0  0  0  0  0  0  0  0  0  0  0  0
   25.5359  -20.1987  -10.5095 C   0  0  1  0  0  0  0  0  0  0  0  0
   24.7976  -21.4979  -10.1718 C   0  0  0  0  0  0  0  0  0  0  0  0
   23.8542  -21.3151   -9.0636 C   0  0  0  0  0  0  0  0  0  0  0  0
   22.6493  -20.6512   -9.3154 C   0  0  0  0  0  0  0  0  0  0  0  0
   21.7696  -20.4850   -8.2660 C   0  0  0  0  0  0  0  0  0  0  0  0
   22.0374  -20.9467   -6.9938 C   0  0  0  0  0  0  0  0  0  0  0  0
   23.2385  -21.6014   -6.7702 C   0  0  0  0  0  0  0  0  0  0  0  0
   24.1169  -21.7714   -7.8027 C   0  0  0  0  0  0  0  0  0  0  0  0
   26.6539  -20.1169   -9.5023 C   0  0  0  0  0  0  0  0  0  0  0  0
   27.6199  -20.9179   -9.5466 O   0  0  0  0  0  0  0  0  0  0  0  0
   27.8720  -17.3436   -7.3711 C   0  0  0  0  0  0  0  0  0  0  0  0
   27.7662  -18.8043   -7.6528 C   0  0  2  0  0  0  0  0  0  0  0  0
   26.6396  -19.1458   -8.4954 N   0  0  0  0  0  0  0  0  0  0  0  0
   27.8038  -19.6794   -6.4947 C   0  0  0  0  0  0  0  0  0  0  0  0
   26.7332  -19.9226   -5.8787 O   0  0  0  0  0  0  0  0  0  0  0  0
   29.0235  -19.6827   -3.6327 C   0  0  0  0  0  0  0  0  0  0  0  0
   29.0105  -20.8188   -4.6299 C   0  0  2  0  0  0  0  0  0  0  0  0
   28.9682  -20.3042   -5.9777 N   0  0  0  0  0  0  0  0  0  0  0  0
   27.8672  -21.6955   -4.3395 C   0  0  0  0  0  0  0  0  0  0  0  0
   27.8014  -22.3403   -3.2533 O   0  0  0  0  0  0  0  0  0  0  0  0
   26.8408  -21.8398   -5.2353 O   0  0  0  0  0  0  0  0  0  0  0  0
  2  1  1  6
  2 10  1  0
  3  2  1  0
  4  3  1  0
  5  4  2  0
  6  5  1  0
  7  8  1  0
  7  6  2  0
  8  9  2  0
  9  4  1  0
 10 14  1  0
 10 11  2  0
 13 12  1  1
 14 13  1  0
 15 13  1  0
 15 19  1  0
 16 15  2  0
 18 17  1  1
 18 19  1  0
 18 20  1  0
 20 22  1  0
 21 20  2  0
M  END
$$$$
