NPG.pdb
     RDKit          3D

 20 20  0  0  1  0  0  0  0  0999 V2000
    8.1279  -18.7646   26.7652 N   0  0  0  0  0  0  0  0  0  0  0  0
    8.3346  -17.3688   26.9839 C   0  0  0  0  0  0  0  0  0  0  0  0
    9.1306  -17.0638   27.9217 O   0  0  0  0  0  0  0  0  0  0  0  0
    7.6450  -16.3554   26.1471 C   0  0  0  0  0  0  0  0  0  0  0  0
    6.8673  -17.0815   25.0670 C   0  0  2  0  0  0  0  0  0  0  0  0
    6.5125  -18.3500   25.5329 N   0  0  0  0  0  0  0  0  0  0  0  0
    7.6516  -17.0696   23.8081 C   0  0  0  0  0  0  0  0  0  0  0  0
    8.3826  -18.0888   23.5835 O   0  0  0  0  0  0  0  0  0  0  0  0
    7.6241  -16.0028   22.8702 N   0  0  0  0  0  0  0  0  0  0  0  0
    6.7271  -14.8707   22.9765 C   0  0  0  0  0  0  0  0  0  0  0  0
    6.8824  -14.0828   21.7009 C   0  0  0  0  0  0  0  0  0  0  0  0
    8.1586  -14.5546   21.1039 C   0  0  0  0  0  0  0  0  0  0  0  0
    8.4587  -15.8957   21.7180 C   0  0  1  0  0  0  0  0  0  0  0  0
    9.9063  -16.0194   22.0384 C   0  0  0  0  0  0  0  0  0  0  0  0
   10.3489  -15.4752   23.0781 O   0  0  0  0  0  0  0  0  0  0  0  0
   10.8174  -16.7275   21.2202 N   0  0  0  0  0  0  0  0  0  0  0  0
   12.2117  -16.9209   21.5623 C   0  0  0  0  0  0  0  0  0  0  0  0
   12.9537  -17.5970   20.4855 C   0  0  0  0  0  0  0  0  0  0  0  0
   12.6659  -18.7992   20.2453 O   0  0  0  0  0  0  0  0  0  0  0  0
   13.9378  -17.0068   19.7251 O   0  0  0  0  0  0  0  0  0  0  0  0
  2  1  1  0
  3  2  2  0
  4  2  1  0
  5  4  1  0
  5  6  1  1
  7  5  1  0
  7  8  2  0
  9  7  1  0
 10  9  1  0
 11 12  1  0
 11 10  1  0
 12 13  1  0
 13  9  1  0
 13 14  1  1
 14 15  2  0
 14 16  1  0
 16 17  1  0
 17 18  1  0
 18 20  1  0
 19 18  2  0
M  END
$$$$
