NPG.pdb
     RDKit          3D

 20 20  0  0  1  0  0  0  0  0999 V2000
    8.7291  -13.4608   28.0163 N   0  0  0  0  0  0  0  0  0  0  0  0
    9.5359  -14.6352   27.9230 C   0  0  0  0  0  0  0  0  0  0  0  0
   10.1265  -14.9912   28.9863 O   0  0  0  0  0  0  0  0  0  0  0  0
    9.6583  -15.3767   26.6432 C   0  0  0  0  0  0  0  0  0  0  0  0
    8.2783  -15.8578   26.2397 C   0  0  2  0  0  0  0  0  0  0  0  0
    7.8973  -16.9093   27.0771 N   0  0  0  0  0  0  0  0  0  0  0  0
    8.2751  -16.1739   24.7905 C   0  0  0  0  0  0  0  0  0  0  0  0
    8.6519  -17.3463   24.4631 O   0  0  0  0  0  0  0  0  0  0  0  0
    7.8823  -15.2536   23.7820 N   0  0  0  0  0  0  0  0  0  0  0  0
    7.4934  -13.8861   24.0583 C   0  0  0  0  0  0  0  0  0  0  0  0
    6.9737  -13.3206   22.7612 C   0  0  0  0  0  0  0  0  0  0  0  0
    7.4756  -14.2389   21.7065 C   0  0  0  0  0  0  0  0  0  0  0  0
    7.8191  -15.5378   22.3853 C   0  0  1  0  0  0  0  0  0  0  0  0
    9.0904  -16.0951   21.8499 C   0  0  0  0  0  0  0  0  0  0  0  0
    9.0929  -16.6232   20.7123 O   0  0  0  0  0  0  0  0  0  0  0  0
   10.3088  -16.0584   22.5675 N   0  0  0  0  0  0  0  0  0  0  0  0
   11.5655  -16.5380   22.0296 C   0  0  0  0  0  0  0  0  0  0  0  0
   12.7087  -16.1485   22.8712 C   0  0  0  0  0  0  0  0  0  0  0  0
   12.5865  -16.2805   24.1175 O   0  0  0  0  0  0  0  0  0  0  0  0
   13.8990  -15.6512   22.3906 O   0  0  0  0  0  0  0  0  0  0  0  0
  2  1  1  0
  3  2  2  0
  4  2  1  0
  5  4  1  0
  5  6  1  1
  7  5  1  0
  7  8  2  0
  9  7  1  0
 10  9  1  0
 11 12  1  0
 11 10  1  0
 12 13  1  0
 13  9  1  0
 13 14  1  6
 14 15  2  0
 14 16  1  0
 16 17  1  0
 17 18  1  0
 18 20  1  0
 19 18  2  0
M  END
$$$$
