NPG.pdb
     RDKit          3D

 20 20  0  0  1  0  0  0  0  0999 V2000
    5.6472  -15.7281   20.5513 N   0  0  0  0  0  0  0  0  0  0  0  0
    6.9216  -15.8404   21.1853 C   0  0  0  0  0  0  0  0  0  0  0  0
    7.8791  -16.2218   20.4477 O   0  0  0  0  0  0  0  0  0  0  0  0
    7.0877  -15.5228   22.6256 C   0  0  0  0  0  0  0  0  0  0  0  0
    8.1155  -14.4154   22.7518 C   0  0  2  0  0  0  0  0  0  0  0  0
    9.1402  -14.6346   21.8277 N   0  0  0  0  0  0  0  0  0  0  0  0
    8.5534  -14.3137   24.1654 C   0  0  0  0  0  0  0  0  0  0  0  0
    9.5414  -15.0414   24.5086 O   0  0  0  0  0  0  0  0  0  0  0  0
    7.9371  -13.4657   25.1242 N   0  0  0  0  0  0  0  0  0  0  0  0
    6.8751  -12.5357   24.8004 C   0  0  0  0  0  0  0  0  0  0  0  0
    6.6427  -11.7068   26.0379 C   0  0  0  0  0  0  0  0  0  0  0  0
    7.2786  -12.4693   27.1432 C   0  0  0  0  0  0  0  0  0  0  0  0
    8.2670  -13.4125   26.5113 C   0  0  1  0  0  0  0  0  0  0  0  0
    8.2210  -14.7464   27.1688 C   0  0  0  0  0  0  0  0  0  0  0  0
    7.6095  -15.6838   26.6029 O   0  0  0  0  0  0  0  0  0  0  0  0
    8.8390  -15.0123   28.4130 N   0  0  0  0  0  0  0  0  0  0  0  0
   10.2453  -15.3304   28.5527 C   0  0  0  0  0  0  0  0  0  0  0  0
   10.5270  -16.7365   28.2200 C   0  0  0  0  0  0  0  0  0  0  0  0
   10.9255  -16.9905   27.0527 O   0  0  0  0  0  0  0  0  0  0  0  0
   10.3853  -17.7898   29.0949 O   0  0  0  0  0  0  0  0  0  0  0  0
  2  1  1  0
  3  2  2  0
  4  2  1  0
  5  4  1  0
  5  6  1  6
  7  5  1  0
  7  8  2  0
  9  7  1  0
 10  9  1  0
 11 12  1  0
 11 10  1  0
 12 13  1  0
 13  9  1  0
 13 14  1  1
 14 15  2  0
 14 16  1  0
 16 17  1  0
 17 18  1  0
 18 20  1  0
 19 18  2  0
M  END
$$$$
