NPG.pdb
     RDKit          3D

 20 20  0  0  1  0  0  0  0  0999 V2000
    9.2257  -18.7535   18.9565 N   0  0  0  0  0  0  0  0  0  0  0  0
    7.8583  -18.3928   18.7600 C   0  0  0  0  0  0  0  0  0  0  0  0
    6.9972  -19.2074   19.2084 O   0  0  0  0  0  0  0  0  0  0  0  0
    7.4941  -17.1314   18.0676 C   0  0  0  0  0  0  0  0  0  0  0  0
    8.7630  -16.3354   17.8334 C   0  0  2  0  0  0  0  0  0  0  0  0
    9.7296  -17.1709   17.2680 N   0  0  0  0  0  0  0  0  0  0  0  0
    9.1651  -15.6730   19.0982 C   0  0  0  0  0  0  0  0  0  0  0  0
   10.1390  -16.1977   19.7305 O   0  0  0  0  0  0  0  0  0  0  0  0
    8.5302  -14.5139   19.6195 N   0  0  0  0  0  0  0  0  0  0  0  0
    7.4741  -13.8041   18.9277 C   0  0  0  0  0  0  0  0  0  0  0  0
    7.2177  -12.5463   19.7179 C   0  0  0  0  0  0  0  0  0  0  0  0
    7.8327  -12.7893   21.0484 C   0  0  0  0  0  0  0  0  0  0  0  0
    8.8334  -13.8997   20.8710 C   0  0  1  0  0  0  0  0  0  0  0  0
    8.7755  -14.8522   22.0124 C   0  0  0  0  0  0  0  0  0  0  0  0
    7.9309  -15.7792   21.9901 O   0  0  0  0  0  0  0  0  0  0  0  0
    9.6344  -14.7633   23.1327 N   0  0  0  0  0  0  0  0  0  0  0  0
    9.5917  -15.6900   24.2454 C   0  0  0  0  0  0  0  0  0  0  0  0
   10.7977  -16.5320   24.3068 C   0  0  0  0  0  0  0  0  0  0  0  0
   11.0252  -17.2960   23.3320 O   0  0  0  0  0  0  0  0  0  0  0  0
   11.6914  -16.5413   25.3538 O   0  0  0  0  0  0  0  0  0  0  0  0
  2  1  1  0
  3  2  2  0
  4  2  1  0
  5  4  1  0
  5  6  1  1
  7  5  1  0
  7  8  2  0
  9  7  1  0
 10  9  1  0
 11 12  1  0
 11 10  1  0
 12 13  1  0
 13  9  1  0
 13 14  1  1
 14 15  2  0
 14 16  1  0
 16 17  1  0
 17 18  1  0
 18 20  1  0
 19 18  2  0
M  END
$$$$
