NPG.pdb
     RDKit          3D

 20 20  0  0  1  0  0  0  0  0999 V2000
    8.4323  -18.6507   17.4011 N   0  0  0  0  0  0  0  0  0  0  0  0
    7.1145  -18.2825   17.8093 C   0  0  0  0  0  0  0  0  0  0  0  0
    6.3615  -19.2311   18.1826 O   0  0  0  0  0  0  0  0  0  0  0  0
    6.6777  -16.8642   17.7878 C   0  0  0  0  0  0  0  0  0  0  0  0
    7.8564  -16.0111   17.3619 C   0  0  2  0  0  0  0  0  0  0  0  0
    8.5929  -16.6987   16.3940 N   0  0  0  0  0  0  0  0  0  0  0  0
    8.6234  -15.6019   18.5638 C   0  0  0  0  0  0  0  0  0  0  0  0
    9.6589  -16.2912   18.8398 O   0  0  0  0  0  0  0  0  0  0  0  0
    8.2639  -14.5078   19.3957 N   0  0  0  0  0  0  0  0  0  0  0  0
    7.2417  -13.5429   19.0465 C   0  0  0  0  0  0  0  0  0  0  0  0
    7.3073  -12.4566   20.0895 C   0  0  0  0  0  0  0  0  0  0  0  0
    8.0675  -13.0476   21.2210 C   0  0  0  0  0  0  0  0  0  0  0  0
    8.8430  -14.2120   20.6656 C   0  0  1  0  0  0  0  0  0  0  0  0
    8.8063  -15.3677   21.6019 C   0  0  0  0  0  0  0  0  0  0  0  0
    7.7035  -15.9039   21.8649 O   0  0  0  0  0  0  0  0  0  0  0  0
    9.9653  -15.8969   22.2163 N   0  0  0  0  0  0  0  0  0  0  0  0
   10.4537  -15.4584   23.5077 C   0  0  0  0  0  0  0  0  0  0  0  0
   11.5788  -16.2823   23.9791 C   0  0  0  0  0  0  0  0  0  0  0  0
   12.7436  -15.8480   23.7779 O   0  0  0  0  0  0  0  0  0  0  0  0
   11.4455  -17.4916   24.6232 O   0  0  0  0  0  0  0  0  0  0  0  0
  2  1  1  0
  3  2  2  0
  4  2  1  0
  5  4  1  0
  5  6  1  6
  7  5  1  0
  7  8  2  0
  9  7  1  0
 10  9  1  0
 11 12  1  0
 11 10  1  0
 12 13  1  0
 13  9  1  0
 13 14  1  1
 14 15  2  0
 14 16  1  0
 16 17  1  0
 17 18  1  0
 18 20  1  0
 19 18  2  0
M  END
$$$$
