NPG.pdb
     RDKit          3D

 20 20  0  0  1  0  0  0  0  0999 V2000
    7.1211  -19.1214   19.4777 N   0  0  0  0  0  0  0  0  0  0  0  0
    7.3387  -18.5290   18.1969 C   0  0  0  0  0  0  0  0  0  0  0  0
    7.8794  -19.2720   17.3241 O   0  0  0  0  0  0  0  0  0  0  0  0
    6.9450  -17.1231   17.9300 C   0  0  0  0  0  0  0  0  0  0  0  0
    8.1642  -16.3766   17.4252 C   0  0  2  0  0  0  0  0  0  0  0  0
    8.9240  -17.2311   16.6222 N   0  0  0  0  0  0  0  0  0  0  0  0
    8.8879  -15.7863   18.5776 C   0  0  0  0  0  0  0  0  0  0  0  0
    9.9661  -16.3667   18.9300 O   0  0  0  0  0  0  0  0  0  0  0  0
    8.4439  -14.6366   19.2843 N   0  0  0  0  0  0  0  0  0  0  0  0
    7.3016  -13.8436   18.8793 C   0  0  0  0  0  0  0  0  0  0  0  0
    7.2903  -12.6272   19.7696 C   0  0  0  0  0  0  0  0  0  0  0  0
    8.1664  -12.9760   20.9177 C   0  0  0  0  0  0  0  0  0  0  0  0
    9.0443  -14.1130   20.4678 C   0  0  1  0  0  0  0  0  0  0  0  0
    9.1859  -15.1306   21.5439 C   0  0  0  0  0  0  0  0  0  0  0  0
    8.1864  -15.8135   21.8721 O   0  0  0  0  0  0  0  0  0  0  0  0
   10.4042  -15.3685   22.2221 N   0  0  0  0  0  0  0  0  0  0  0  0
   10.4949  -16.1162   23.4596 C   0  0  0  0  0  0  0  0  0  0  0  0
   11.8893  -16.2828   23.9009 C   0  0  0  0  0  0  0  0  0  0  0  0
   12.0894  -16.9040   24.9778 O   0  0  0  0  0  0  0  0  0  0  0  0
   12.9866  -15.8075   23.2189 O   0  0  0  0  0  0  0  0  0  0  0  0
  2  1  1  0
  3  2  2  0
  4  2  1  0
  5  4  1  0
  5  6  1  1
  7  5  1  0
  7  8  2  0
  9  7  1  0
 10  9  1  0
 11 12  1  0
 11 10  1  0
 12 13  1  0
 13  9  1  0
 13 14  1  1
 14 15  2  0
 14 16  1  0
 16 17  1  0
 17 18  1  0
 18 20  1  0
 19 18  2  0
M  END
$$$$
