NPG.pdb
     RDKit          3D

 20 20  0  0  1  0  0  0  0  0999 V2000
    7.8100  -19.6532   16.3438 N   0  0  0  0  0  0  0  0  0  0  0  0
    7.4688  -18.3415   16.7930 C   0  0  0  0  0  0  0  0  0  0  0  0
    6.2904  -17.9531   16.5344 O   0  0  0  0  0  0  0  0  0  0  0  0
    8.4555  -17.5029   17.5182 C   0  0  0  0  0  0  0  0  0  0  0  0
    8.7191  -16.2590   16.6924 C   0  0  2  0  0  0  0  0  0  0  0  0
    9.2783  -16.6329   15.4678 N   0  0  0  0  0  0  0  0  0  0  0  0
    9.5287  -15.3054   17.4895 C   0  0  0  0  0  0  0  0  0  0  0  0
   10.7798  -15.5375   17.5551 O   0  0  0  0  0  0  0  0  0  0  0  0
    8.9856  -14.1786   18.1630 N   0  0  0  0  0  0  0  0  0  0  0  0
    7.5919  -13.7938   18.0772 C   0  0  0  0  0  0  0  0  0  0  0  0
    7.4752  -12.4590   18.7679 C   0  0  0  0  0  0  0  0  0  0  0  0
    8.7098  -12.3333   19.5848 C   0  0  0  0  0  0  0  0  0  0  0  0
    9.7180  -13.2876   19.0028 C   0  0  1  0  0  0  0  0  0  0  0  0
   10.4653  -13.9906   20.0803 C   0  0  0  0  0  0  0  0  0  0  0  0
    9.8449  -14.7671   20.8452 O   0  0  0  0  0  0  0  0  0  0  0  0
   11.8548  -13.8248   20.2867 N   0  0  0  0  0  0  0  0  0  0  0  0
   12.5608  -14.3656   21.4303 C   0  0  0  0  0  0  0  0  0  0  0  0
   13.0353  -15.7375   21.1856 C   0  0  0  0  0  0  0  0  0  0  0  0
   14.2374  -15.8855   20.8409 O   0  0  0  0  0  0  0  0  0  0  0  0
   12.2573  -16.8666   21.3073 O   0  0  0  0  0  0  0  0  0  0  0  0
  2  1  1  0
  3  2  2  0
  4  2  1  0
  5  4  1  0
  5  6  1  6
  7  5  1  0
  7  8  2  0
  9  7  1  0
 10  9  1  0
 11 12  1  0
 11 10  1  0
 12 13  1  0
 13  9  1  0
 13 14  1  1
 14 15  2  0
 14 16  1  0
 16 17  1  0
 17 18  1  0
 18 20  1  0
 19 18  2  0
M  END
$$$$
