NPG.pdb
     RDKit          3D

 20 20  0  0  1  0  0  0  0  0999 V2000
    7.6948  -19.0087   15.1369 N   0  0  0  0  0  0  0  0  0  0  0  0
    7.3681  -17.7002   15.6057 C   0  0  0  0  0  0  0  0  0  0  0  0
    6.5651  -17.0347   14.8854 O   0  0  0  0  0  0  0  0  0  0  0  0
    7.9490  -17.1745   16.8662 C   0  0  0  0  0  0  0  0  0  0  0  0
    8.7861  -15.9557   16.5309 C   0  0  2  0  0  0  0  0  0  0  0  0
    9.7035  -16.2914   15.5321 N   0  0  0  0  0  0  0  0  0  0  0  0
    9.3815  -15.4137   17.7766 C   0  0  0  0  0  0  0  0  0  0  0  0
   10.4873  -15.9261   18.1483 O   0  0  0  0  0  0  0  0  0  0  0  0
    8.7897  -14.3794   18.5501 N   0  0  0  0  0  0  0  0  0  0  0  0
    7.6002  -13.6603   18.1429 C   0  0  0  0  0  0  0  0  0  0  0  0
    7.4217  -12.5372   19.1324 C   0  0  0  0  0  0  0  0  0  0  0  0
    8.2624  -12.9086   20.2998 C   0  0  0  0  0  0  0  0  0  0  0  0
    9.2699  -13.9142   19.8105 C   0  0  1  0  0  0  0  0  0  0  0  0
    9.4493  -15.0093   20.8015 C   0  0  0  0  0  0  0  0  0  0  0  0
    8.5281  -15.8457   20.9588 O   0  0  0  0  0  0  0  0  0  0  0  0
   10.6193  -15.1553   21.5830 N   0  0  0  0  0  0  0  0  0  0  0  0
   10.8453  -16.2711   22.4788 C   0  0  0  0  0  0  0  0  0  0  0  0
   12.1136  -16.1382   23.2142 C   0  0  0  0  0  0  0  0  0  0  0  0
   13.0642  -15.5496   22.6347 O   0  0  0  0  0  0  0  0  0  0  0  0
   12.3312  -16.6116   24.4883 O   0  0  0  0  0  0  0  0  0  0  0  0
  2  1  1  0
  3  2  2  0
  4  2  1  0
  5  4  1  0
  5  6  1  6
  7  5  1  0
  7  8  2  0
  9  7  1  0
 10  9  1  0
 11 12  1  0
 11 10  1  0
 12 13  1  0
 13  9  1  0
 13 14  1  1
 14 15  2  0
 14 16  1  0
 16 17  1  0
 17 18  1  0
 18 20  1  0
 19 18  2  0
M  END
$$$$
