NPG.pdb
     RDKit          3D

 20 20  0  0  1  0  0  0  0  0999 V2000
    6.5268  -17.0250   20.4569 N   0  0  0  0  0  0  0  0  0  0  0  0
    6.1835  -16.0703   21.4616 C   0  0  0  0  0  0  0  0  0  0  0  0
    5.1714  -15.3468   21.2200 O   0  0  0  0  0  0  0  0  0  0  0  0
    6.9822  -15.9531   22.7071 C   0  0  0  0  0  0  0  0  0  0  0  0
    7.5888  -14.5644   22.7529 C   0  0  2  0  0  0  0  0  0  0  0  0
    8.4294  -14.3956   21.6497 N   0  0  0  0  0  0  0  0  0  0  0  0
    8.2323  -14.3553   24.0729 C   0  0  0  0  0  0  0  0  0  0  0  0
    9.3121  -14.9968   24.2874 O   0  0  0  0  0  0  0  0  0  0  0  0
    7.7121  -13.4967   25.0782 N   0  0  0  0  0  0  0  0  0  0  0  0
    6.5612  -12.6404   24.8781 C   0  0  0  0  0  0  0  0  0  0  0  0
    6.4616  -11.7675   26.1029 C   0  0  0  0  0  0  0  0  0  0  0  0
    7.2947  -12.4423   27.1316 C   0  0  0  0  0  0  0  0  0  0  0  0
    8.2353  -13.3607   26.3985 C   0  0  1  0  0  0  0  0  0  0  0  0
    8.3638  -14.6626   27.1071 C   0  0  0  0  0  0  0  0  0  0  0  0
    7.3730  -15.4299   27.1564 O   0  0  0  0  0  0  0  0  0  0  0  0
    9.5603  -15.0821   27.7342 N   0  0  0  0  0  0  0  0  0  0  0  0
    9.6860  -16.3316   28.4565 C   0  0  0  0  0  0  0  0  0  0  0  0
   11.0415  -16.5195   28.9991 C   0  0  0  0  0  0  0  0  0  0  0  0
   11.2138  -17.4536   29.8258 O   0  0  0  0  0  0  0  0  0  0  0  0
   12.1306  -15.7465   28.6655 O   0  0  0  0  0  0  0  0  0  0  0  0
  2  1  1  0
  3  2  2  0
  4  2  1  0
  5  4  1  0
  5  6  1  6
  7  5  1  0
  7  8  2  0
  9  7  1  0
 10  9  1  0
 11 12  1  0
 11 10  1  0
 12 13  1  0
 13  9  1  0
 13 14  1  1
 14 15  2  0
 14 16  1  0
 16 17  1  0
 17 18  1  0
 18 20  1  0
 19 18  2  0
M  END
$$$$
