NPG.pdb
     RDKit          3D

 20 20  0  0  1  0  0  0  0  0999 V2000
    6.9981  -18.5737   25.3719 N   0  0  0  0  0  0  0  0  0  0  0  0
    6.0628  -18.9686   24.3680 C   0  0  0  0  0  0  0  0  0  0  0  0
    5.7497  -20.1966   24.3504 O   0  0  0  0  0  0  0  0  0  0  0  0
    5.5051  -17.9785   23.4133 C   0  0  0  0  0  0  0  0  0  0  0  0
    6.0633  -18.2804   22.0364 C   0  0  2  0  0  0  0  0  0  0  0  0
    6.0849  -19.6642   21.8447 N   0  0  0  0  0  0  0  0  0  0  0  0
    7.3734  -17.6025   21.8806 C   0  0  0  0  0  0  0  0  0  0  0  0
    8.4041  -18.3515   21.8728 O   0  0  0  0  0  0  0  0  0  0  0  0
    7.5240  -16.1964   21.7441 N   0  0  0  0  0  0  0  0  0  0  0  0
    6.4062  -15.2810   21.6424 C   0  0  0  0  0  0  0  0  0  0  0  0
    6.9906  -13.9292   21.3208 C   0  0  0  0  0  0  0  0  0  0  0  0
    8.4315  -14.0346   21.6675 C   0  0  0  0  0  0  0  0  0  0  0  0
    8.7689  -15.5015   21.6917 C   0  0  1  0  0  0  0  0  0  0  0  0
    9.6590  -15.8212   22.8401 C   0  0  0  0  0  0  0  0  0  0  0  0
    9.1709  -15.8698   23.9943 O   0  0  0  0  0  0  0  0  0  0  0  0
   11.0427  -16.0757   22.6931 N   0  0  0  0  0  0  0  0  0  0  0  0
   11.9596  -16.1663   23.8110 C   0  0  0  0  0  0  0  0  0  0  0  0
   13.3601  -16.2616   23.3676 C   0  0  0  0  0  0  0  0  0  0  0  0
   14.2349  -16.4880   24.2446 O   0  0  0  0  0  0  0  0  0  0  0  0
   13.7779  -16.1206   22.0635 O   0  0  0  0  0  0  0  0  0  0  0  0
  2  1  1  0
  3  2  2  0
  4  2  1  0
  5  4  1  0
  5  6  1  1
  7  5  1  0
  7  8  2  0
  9  7  1  0
 10  9  1  0
 11 12  1  0
 11 10  1  0
 12 13  1  0
 13  9  1  0
 13 14  1  1
 14 15  2  0
 14 16  1  0
 16 17  1  0
 17 18  1  0
 18 20  1  0
 19 18  2  0
M  END
$$$$
