NPG.pdb
     RDKit          3D

 20 20  0  0  1  0  0  0  0  0999 V2000
    6.8216  -17.9036   14.6940 N   0  0  0  0  0  0  0  0  0  0  0  0
    7.4662  -16.6649   14.9924 C   0  0  0  0  0  0  0  0  0  0  0  0
    7.5698  -15.8452   14.0313 O   0  0  0  0  0  0  0  0  0  0  0  0
    7.9757  -16.3795   16.3568 C   0  0  0  0  0  0  0  0  0  0  0  0
    9.0780  -15.3445   16.2448 C   0  0  2  0  0  0  0  0  0  0  0  0
   10.0654  -15.8197   15.3781 N   0  0  0  0  0  0  0  0  0  0  0  0
    9.5521  -14.9863   17.6039 C   0  0  0  0  0  0  0  0  0  0  0  0
   10.6101  -15.5693   18.0093 O   0  0  0  0  0  0  0  0  0  0  0  0
    8.8971  -14.0497   18.4478 N   0  0  0  0  0  0  0  0  0  0  0  0
    7.7936  -13.2192   18.0117 C   0  0  0  0  0  0  0  0  0  0  0  0
    7.5228  -12.2478   19.1321 C   0  0  0  0  0  0  0  0  0  0  0  0
    8.1927  -12.8301   20.3236 C   0  0  0  0  0  0  0  0  0  0  0  0
    9.2236  -13.8014   19.8142 C   0  0  1  0  0  0  0  0  0  0  0  0
    9.2387  -15.0390   20.6398 C   0  0  0  0  0  0  0  0  0  0  0  0
    8.2725  -15.8349   20.5625 O   0  0  0  0  0  0  0  0  0  0  0  0
   10.2995  -15.3659   21.5165 N   0  0  0  0  0  0  0  0  0  0  0  0
   10.3547  -16.5979   22.2766 C   0  0  0  0  0  0  0  0  0  0  0  0
   11.5643  -16.6754   23.1119 C   0  0  0  0  0  0  0  0  0  0  0  0
   11.4303  -17.0863   24.2947 O   0  0  0  0  0  0  0  0  0  0  0  0
   12.8284  -16.3304   22.6901 O   0  0  0  0  0  0  0  0  0  0  0  0
  2  1  1  0
  3  2  2  0
  4  2  1  0
  5  4  1  0
  5  6  1  6
  7  5  1  0
  7  8  2  0
  9  7  1  0
 10  9  1  0
 11 12  1  0
 11 10  1  0
 12 13  1  0
 13  9  1  0
 13 14  1  1
 14 15  2  0
 14 16  1  0
 16 17  1  0
 17 18  1  0
 18 20  1  0
 19 18  2  0
M  END
$$$$
