NPG.pdb
     RDKit          3D

 20 20  0  0  1  0  0  0  0  0999 V2000
    9.2516  -15.4510   25.9672 N   0  0  0  0  0  0  0  0  0  0  0  0
    8.5065  -14.8931   24.8845 C   0  0  0  0  0  0  0  0  0  0  0  0
    7.3907  -14.3729   25.1857 O   0  0  0  0  0  0  0  0  0  0  0  0
    9.0312  -14.9334   23.4967 C   0  0  0  0  0  0  0  0  0  0  0  0
    7.9152  -15.3958   22.5806 C   0  0  2  0  0  0  0  0  0  0  0  0
    7.4685  -16.6511   23.0011 N   0  0  0  0  0  0  0  0  0  0  0  0
    8.3795  -15.3314   21.1734 C   0  0  0  0  0  0  0  0  0  0  0  0
    8.6161  -16.4449   20.6009 O   0  0  0  0  0  0  0  0  0  0  0  0
    8.5666  -14.1184   20.4579 N   0  0  0  0  0  0  0  0  0  0  0  0
    8.2462  -12.8147   21.0014 C   0  0  0  0  0  0  0  0  0  0  0  0
    8.4071  -11.8306   19.8709 C   0  0  0  0  0  0  0  0  0  0  0  0
    9.2156  -12.5415   18.8470 C   0  0  0  0  0  0  0  0  0  0  0  0
    9.0872  -14.0137   19.1337 C   0  0  1  0  0  0  0  0  0  0  0  0
   10.3965  -14.7012   18.9705 C   0  0  0  0  0  0  0  0  0  0  0  0
   10.7993  -14.9784   17.8156 O   0  0  0  0  0  0  0  0  0  0  0  0
   11.2178  -15.0612   20.0644 N   0  0  0  0  0  0  0  0  0  0  0  0
   12.5035  -15.7118   19.9157 C   0  0  0  0  0  0  0  0  0  0  0  0
   13.5463  -14.7740   19.4682 C   0  0  0  0  0  0  0  0  0  0  0  0
   14.1121  -14.0699   20.3455 O   0  0  0  0  0  0  0  0  0  0  0  0
   13.9442  -14.6144   18.1601 O   0  0  0  0  0  0  0  0  0  0  0  0
  2  1  1  0
  3  2  2  0
  4  2  1  0
  5  4  1  0
  5  6  1  1
  7  5  1  0
  7  8  2  0
  9  7  1  0
 10  9  1  0
 11 12  1  0
 11 10  1  0
 12 13  1  0
 13  9  1  0
 13 14  1  1
 14 15  2  0
 14 16  1  0
 16 17  1  0
 17 18  1  0
 18 20  1  0
 19 18  2  0
M  END
$$$$
