TCQ.pdb
     RDKit          3D

 23 22  0  0  1  0  0  0  0  0999 V2000
   19.2409  -11.0309  -20.7480 C   0  0  0  0  0  0  0  0  0  0  0  0
   19.7333  -10.5524  -19.3894 C   0  0  1  0  0  0  0  0  0  0  0  0
   18.6766  -10.2554  -18.5556 O   0  0  0  0  0  0  0  0  0  0  0  0
   20.5930  -11.6262  -18.7817 C   0  0  2  0  0  0  0  0  0  0  0  0
   19.7575  -12.7486  -18.3865 N   0  0  0  0  0  0  0  0  0  0  0  0
   21.2083  -11.0595  -17.5302 C   0  0  0  0  0  0  0  0  0  0  0  0
   20.5321  -10.9602  -16.4716 O   0  0  0  0  0  0  0  0  0  0  0  0
   22.5516  -10.6335  -17.5302 N   0  0  0  0  0  0  0  0  0  0  0  0
   23.0899  -10.0204  -16.3093 C   0  0  1  0  0  0  0  0  0  0  0  0
   24.5620  -10.3827  -16.2280 C   0  0  0  0  0  0  0  0  0  0  0  0
   24.8513  -11.7020  -15.0440 S   0  0  0  0  0  0  0  0  0  0  0  0
   22.9329   -8.5403  -16.4391 C   0  0  0  0  0  0  0  0  0  0  0  0
   22.9775   -8.0165  -17.6039 O   0  0  0  0  0  0  0  0  0  0  0  0
   18.5426   -6.1749  -17.4084 N   0  0  0  0  0  0  0  0  0  0  0  0
   19.1123   -5.0003  -16.8709 C   0  0  0  0  0  0  0  0  0  0  0  0
   18.4349   -3.9185  -16.9235 O   0  0  0  0  0  0  0  0  0  0  0  0
   20.4492   -4.9438  -16.2407 C   0  0  0  0  0  0  0  0  0  0  0  0
   21.1762   -6.2267  -16.1664 C   0  0  0  0  0  0  0  0  0  0  0  0
   22.4662   -6.2811  -15.4369 C   0  0  2  0  0  0  0  0  0  0  0  0
   22.7399   -7.7508  -15.3202 N   0  0  0  0  0  0  0  0  0  0  0  0
   22.5244   -5.7257  -14.0864 C   0  0  0  0  0  0  0  0  0  0  0  0
   22.8124   -4.3968  -13.8114 O   0  0  0  0  0  0  0  0  0  0  0  0
   22.3042   -6.4780  -13.1022 O   0  0  0  0  0  0  0  0  0  0  0  0
  2  1  1  6
  2  4  1  0
  3  2  1  0
  4  5  1  1
  6  8  1  0
  6  4  1  0
  7  6  2  0
  9 12  1  0
  9  8  1  0
  9 10  1  6
 11 10  1  0
 12 20  1  0
 13 12  2  0
 15 17  1  0
 15 14  1  0
 16 15  2  0
 18 17  1  0
 19 21  1  0
 19 18  1  1
 20 19  1  0
 21 22  1  0
 23 21  2  0
M  END
$$$$
