TCQ.pdb
     RDKit          3D

 23 22  0  0  1  0  0  0  0  0999 V2000
   26.7712  -18.4638  -15.5221 C   0  0  0  0  0  0  0  0  0  0  0  0
   27.2295  -19.7020  -16.2795 C   0  0  1  0  0  0  0  0  0  0  0  0
   28.1181  -19.3705  -17.2798 O   0  0  0  0  0  0  0  0  0  0  0  0
   27.8688  -20.6541  -15.3067 C   0  0  2  0  0  0  0  0  0  0  0  0
   28.3252  -21.8376  -16.0175 N   0  0  0  0  0  0  0  0  0  0  0  0
   26.8045  -21.0931  -14.3369 C   0  0  0  0  0  0  0  0  0  0  0  0
   25.7663  -21.6783  -14.7459 O   0  0  0  0  0  0  0  0  0  0  0  0
   26.9598  -20.8534  -12.9568 N   0  0  0  0  0  0  0  0  0  0  0  0
   25.8800  -21.2647  -12.0507 C   0  0  1  0  0  0  0  0  0  0  0  0
   26.3690  -21.0464  -10.6300 C   0  0  0  0  0  0  0  0  0  0  0  0
   25.0329  -21.2107   -9.4410 S   0  0  0  0  0  0  0  0  0  0  0  0
   24.7001  -20.3905  -12.3265 C   0  0  0  0  0  0  0  0  0  0  0  0
   24.8795  -19.1296  -12.4315 O   0  0  0  0  0  0  0  0  0  0  0  0
   20.5045  -19.5283  -16.2678 N   0  0  0  0  0  0  0  0  0  0  0  0
   21.5846  -20.4373  -16.2619 C   0  0  0  0  0  0  0  0  0  0  0  0
   21.7226  -21.2222  -17.2604 O   0  0  0  0  0  0  0  0  0  0  0  0
   22.5769  -20.5347  -15.1695 C   0  0  0  0  0  0  0  0  0  0  0  0
   22.4133  -19.5648  -14.0683 C   0  0  0  0  0  0  0  0  0  0  0  0
   22.2315  -20.0700  -12.6860 C   0  0  2  0  0  0  0  0  0  0  0  0
   23.4369  -20.9351  -12.4687 N   0  0  0  0  0  0  0  0  0  0  0  0
   21.0574  -20.8902  -12.3950 C   0  0  0  0  0  0  0  0  0  0  0  0
   19.7740  -20.3797  -12.2641 O   0  0  0  0  0  0  0  0  0  0  0  0
   21.1955  -22.1325  -12.2510 O   0  0  0  0  0  0  0  0  0  0  0  0
  2  1  1  1
  2  4  1  0
  3  2  1  0
  4  5  1  6
  6  8  1  0
  6  4  1  0
  7  6  2  0
  9 12  1  0
  9  8  1  0
  9 10  1  1
 11 10  1  0
 12 20  1  0
 13 12  2  0
 15 17  1  0
 15 14  1  0
 16 15  2  0
 18 17  1  0
 19 21  1  0
 19 18  1  6
 20 19  1  0
 21 22  1  0
 23 21  2  0
M  END
$$$$
