TCQ.pdb
     RDKit          3D

 23 22  0  0  1  0  0  0  0  0999 V2000
   29.4310  -11.5649  -20.6910 C   0  0  0  0  0  0  0  0  0  0  0  0
   29.8377  -10.3556  -19.8608 C   0  0  1  0  0  0  0  0  0  0  0  0
   28.9764   -9.2995  -20.0684 O   0  0  0  0  0  0  0  0  0  0  0  0
   29.8446  -10.7468  -18.4088 C   0  0  2  0  0  0  0  0  0  0  0  0
   28.4772  -10.9385  -17.9531 N   0  0  0  0  0  0  0  0  0  0  0  0
   30.4213   -9.5936  -17.6318 C   0  0  0  0  0  0  0  0  0  0  0  0
   29.6673   -8.8006  -17.0071 O   0  0  0  0  0  0  0  0  0  0  0  0
   31.8151   -9.3893  -17.5950 N   0  0  0  0  0  0  0  0  0  0  0  0
   32.3430   -8.3295  -16.7264 C   0  0  1  0  0  0  0  0  0  0  0  0
   33.5296   -8.9053  -15.9743 C   0  0  0  0  0  0  0  0  0  0  0  0
   34.3303   -7.6614  -14.9556 S   0  0  0  0  0  0  0  0  0  0  0  0
   32.7890   -7.2055  -17.6039 C   0  0  0  0  0  0  0  0  0  0  0  0
   33.4076   -7.4792  -18.6880 O   0  0  0  0  0  0  0  0  0  0  0  0
   29.5580   -1.9913  -17.9620 N   0  0  0  0  0  0  0  0  0  0  0  0
   29.5205   -3.1424  -18.7784 C   0  0  0  0  0  0  0  0  0  0  0  0
   28.4626   -3.3707  -19.4571 O   0  0  0  0  0  0  0  0  0  0  0  0
   30.6378   -4.1033  -18.9039 C   0  0  0  0  0  0  0  0  0  0  0  0
   31.8238   -3.8176  -18.0721 C   0  0  0  0  0  0  0  0  0  0  0  0
   32.9758   -4.7504  -18.1177 C   0  0  2  0  0  0  0  0  0  0  0  0
   32.5351   -5.8925  -17.2517 N   0  0  0  0  0  0  0  0  0  0  0  0
   34.2625   -4.2910  -17.5992 C   0  0  0  0  0  0  0  0  0  0  0  0
   35.2631   -3.7475  -18.3918 O   0  0  0  0  0  0  0  0  0  0  0  0
   34.4975   -4.3844  -16.3667 O   0  0  0  0  0  0  0  0  0  0  0  0
  2  1  1  6
  2  4  1  0
  3  2  1  0
  4  5  1  1
  6  8  1  0
  6  4  1  0
  7  6  2  0
  9 12  1  0
  9  8  1  0
  9 10  1  6
 11 10  1  0
 12 20  1  0
 13 12  2  0
 15 17  1  0
 15 14  1  0
 16 15  2  0
 18 17  1  0
 19 21  1  0
 19 18  1  1
 20 19  1  0
 21 22  1  0
 23 21  2  0
M  END
$$$$
