TCQ.pdb
     RDKit          3D

 23 22  0  0  1  0  0  0  0  0999 V2000
   22.5885  -22.0529  -14.8024 C   0  0  0  0  0  0  0  0  0  0  0  0
   21.5791  -21.1960  -14.0515 C   0  0  1  0  0  0  0  0  0  0  0  0
   20.2978  -21.6749  -14.2225 O   0  0  0  0  0  0  0  0  0  0  0  0
   21.9435  -21.1872  -12.5925 C   0  0  2  0  0  0  0  0  0  0  0  0
   20.9913  -20.3673  -11.8612 N   0  0  0  0  0  0  0  0  0  0  0  0
   23.2929  -20.5318  -12.4668 C   0  0  0  0  0  0  0  0  0  0  0  0
   23.4531  -19.3262  -12.7959 O   0  0  0  0  0  0  0  0  0  0  0  0
   24.3938  -21.2628  -11.9774 N   0  0  0  0  0  0  0  0  0  0  0  0
   25.7207  -20.6349  -12.0134 C   0  0  1  0  0  0  0  0  0  0  0  0
   26.5845  -21.3346  -10.9793 C   0  0  0  0  0  0  0  0  0  0  0  0
   26.1374  -20.8475   -9.3092 S   0  0  0  0  0  0  0  0  0  0  0  0
   26.2849  -20.8472  -13.3805 C   0  0  0  0  0  0  0  0  0  0  0  0
   26.2215  -22.0139  -13.8981 O   0  0  0  0  0  0  0  0  0  0  0  0
   22.8313  -18.1473  -16.4527 N   0  0  0  0  0  0  0  0  0  0  0  0
   23.7914  -18.3014  -17.4762 C   0  0  0  0  0  0  0  0  0  0  0  0
   23.4951  -17.8984  -18.6517 O   0  0  0  0  0  0  0  0  0  0  0  0
   25.1295  -18.8971  -17.2712 C   0  0  0  0  0  0  0  0  0  0  0  0
   25.4801  -19.2170  -15.8730 C   0  0  0  0  0  0  0  0  0  0  0  0
   26.8333  -19.7444  -15.5735 C   0  0  2  0  0  0  0  0  0  0  0  0
   26.8628  -19.8005  -14.0753 N   0  0  0  0  0  0  0  0  0  0  0  0
   27.9930  -18.9618  -15.9959 C   0  0  0  0  0  0  0  0  0  0  0  0
   28.7103  -18.1288  -15.1496 O   0  0  0  0  0  0  0  0  0  0  0  0
   28.3803  -19.0326  -17.1909 O   0  0  0  0  0  0  0  0  0  0  0  0
  2  1  1  6
  2  4  1  0
  3  2  1  0
  4  5  1  1
  6  8  1  0
  6  4  1  0
  7  6  2  0
  9 12  1  0
  9  8  1  0
  9 10  1  1
 11 10  1  0
 12 20  1  0
 13 12  2  0
 15 17  1  0
 15 14  1  0
 16 15  2  0
 18 17  1  0
 19 21  1  0
 19 18  1  1
 20 19  1  0
 21 22  1  0
 23 21  2  0
M  END
$$$$
