TCQ.pdb
     RDKit          3D

 23 22  0  0  1  0  0  0  0  0999 V2000
   15.4173  -12.6310  -17.0295 C   0  0  0  0  0  0  0  0  0  0  0  0
   15.9468  -11.7707  -15.8909 C   0  0  1  0  0  0  0  0  0  0  0  0
   15.0933  -11.8003  -14.8089 O   0  0  0  0  0  0  0  0  0  0  0  0
   17.3077  -12.2751  -15.4971 C   0  0  2  0  0  0  0  0  0  0  0  0
   17.1785  -13.5875  -14.8848 N   0  0  0  0  0  0  0  0  0  0  0  0
   17.8514  -11.3405  -14.4497 C   0  0  0  0  0  0  0  0  0  0  0  0
   17.9049  -11.6933  -13.2412 O   0  0  0  0  0  0  0  0  0  0  0  0
   18.3081  -10.0574  -14.8118 N   0  0  0  0  0  0  0  0  0  0  0  0
   18.8775   -9.1978  -13.7663 C   0  0  1  0  0  0  0  0  0  0  0  0
   20.1920   -8.6497  -14.2925 C   0  0  0  0  0  0  0  0  0  0  0  0
   20.9061   -7.4515  -13.1609 S   0  0  0  0  0  0  0  0  0  0  0  0
   17.9157   -8.0800  -13.5261 C   0  0  0  0  0  0  0  0  0  0  0  0
   17.3336   -7.5427  -14.5289 O   0  0  0  0  0  0  0  0  0  0  0  0
   15.2804   -7.4136   -7.8913 N   0  0  0  0  0  0  0  0  0  0  0  0
   14.8608   -6.2449   -8.5629 C   0  0  0  0  0  0  0  0  0  0  0  0
   14.0812   -5.4396   -7.9500 O   0  0  0  0  0  0  0  0  0  0  0  0
   15.2745   -5.8879   -9.9373 C   0  0  0  0  0  0  0  0  0  0  0  0
   16.2143   -6.8239  -10.5861 C   0  0  0  0  0  0  0  0  0  0  0  0
   16.6555   -6.5523  -11.9756 C   0  0  2  0  0  0  0  0  0  0  0  0
   17.6571   -7.6359  -12.2422 N   0  0  0  0  0  0  0  0  0  0  0  0
   17.3155   -5.2795  -12.2586 C   0  0  0  0  0  0  0  0  0  0  0  0
   18.6922   -5.1080  -12.2560 O   0  0  0  0  0  0  0  0  0  0  0  0
   16.6143   -4.2685  -12.5221 O   0  0  0  0  0  0  0  0  0  0  0  0
  2  1  1  6
  2  4  1  0
  3  2  1  0
  4  5  1  1
  6  8  1  0
  6  4  1  0
  7  6  2  0
  9 12  1  0
  9  8  1  0
  9 10  1  6
 11 10  1  0
 12 20  1  0
 13 12  2  0
 15 17  1  0
 15 14  1  0
 16 15  2  0
 18 17  1  0
 19 21  1  0
 19 18  1  1
 20 19  1  0
 21 22  1  0
 23 21  2  0
M  END
$$$$
