TCQ.pdb
     RDKit          3D

 23 22  0  0  1  0  0  0  0  0999 V2000
   18.7354  -11.8617  -18.3952 C   0  0  0  0  0  0  0  0  0  0  0  0
   18.4820  -10.6805  -17.4691 C   0  0  1  0  0  0  0  0  0  0  0  0
   17.1319  -10.4908  -17.2659 O   0  0  0  0  0  0  0  0  0  0  0  0
   19.1770  -10.9354  -16.1601 C   0  0  2  0  0  0  0  0  0  0  0  0
   18.3721  -11.8380  -15.3530 N   0  0  0  0  0  0  0  0  0  0  0  0
   19.2559   -9.6233  -15.4263 C   0  0  0  0  0  0  0  0  0  0  0  0
   18.3395   -9.2755  -14.6345 O   0  0  0  0  0  0  0  0  0  0  0  0
   20.3596   -8.7684  -15.6182 N   0  0  0  0  0  0  0  0  0  0  0  0
   20.4088   -7.5109  -14.8616 C   0  0  1  0  0  0  0  0  0  0  0  0
   21.7921   -7.4036  -14.2450 C   0  0  0  0  0  0  0  0  0  0  0  0
   22.0408   -5.8080  -13.4585 S   0  0  0  0  0  0  0  0  0  0  0  0
   20.1904   -6.3925  -15.8279 C   0  0  0  0  0  0  0  0  0  0  0  0
   20.8939   -6.3541  -16.8941 O   0  0  0  0  0  0  0  0  0  0  0  0
   15.1319   -5.6616  -16.0347 N   0  0  0  0  0  0  0  0  0  0  0  0
   15.5984   -5.4743  -17.3538 C   0  0  0  0  0  0  0  0  0  0  0  0
   14.9375   -6.0012  -18.3118 O   0  0  0  0  0  0  0  0  0  0  0  0
   16.8076   -4.6961  -17.7001 C   0  0  0  0  0  0  0  0  0  0  0  0
   17.5521   -4.1288  -16.5582 C   0  0  0  0  0  0  0  0  0  0  0  0
   19.0276   -4.2721  -16.5191 C   0  0  2  0  0  0  0  0  0  0  0  0
   19.2425   -5.4176  -15.5757 N   0  0  0  0  0  0  0  0  0  0  0  0
   19.8214   -3.1511  -16.0200 C   0  0  0  0  0  0  0  0  0  0  0  0
   19.9782   -1.9536  -16.7027 O   0  0  0  0  0  0  0  0  0  0  0  0
   20.4044   -3.2566  -14.9101 O   0  0  0  0  0  0  0  0  0  0  0  0
  2  1  1  6
  2  4  1  0
  3  2  1  0
  4  5  1  1
  6  8  1  0
  6  4  1  0
  7  6  2  0
  9 12  1  0
  9  8  1  0
  9 10  1  6
 11 10  1  0
 12 20  1  0
 13 12  2  0
 15 17  1  0
 15 14  1  0
 16 15  2  0
 18 17  1  0
 19 21  1  0
 19 18  1  1
 20 19  1  0
 21 22  1  0
 23 21  2  0
M  END
$$$$
