TCQ.pdb
     RDKit          3D

 23 22  0  0  1  0  0  0  0  0999 V2000
   25.3255  -23.9668  -14.2330 C   0  0  0  0  0  0  0  0  0  0  0  0
   24.4654  -22.7113  -14.2013 C   0  0  1  0  0  0  0  0  0  0  0  0
   23.2797  -22.9395  -13.5364 O   0  0  0  0  0  0  0  0  0  0  0  0
   25.2396  -21.6123  -13.5273 C   0  0  2  0  0  0  0  0  0  0  0  0
   25.3221  -21.8835  -12.1012 N   0  0  0  0  0  0  0  0  0  0  0  0
   24.4587  -20.3369  -13.6993 C   0  0  0  0  0  0  0  0  0  0  0  0
   23.8053  -19.8506  -12.7379 O   0  0  0  0  0  0  0  0  0  0  0  0
   24.4512  -19.6717  -14.9416 N   0  0  0  0  0  0  0  0  0  0  0  0
   23.6647  -18.4382  -15.0687 C   0  0  1  0  0  0  0  0  0  0  0  0
   24.3360  -17.5760  -16.1227 C   0  0  0  0  0  0  0  0  0  0  0  0
   23.6427  -15.9194  -16.1580 S   0  0  0  0  0  0  0  0  0  0  0  0
   22.2921  -18.8210  -15.5179 C   0  0  0  0  0  0  0  0  0  0  0  0
   22.1495  -19.8671  -16.2380 O   0  0  0  0  0  0  0  0  0  0  0  0
   17.5864  -17.7679  -11.7665 N   0  0  0  0  0  0  0  0  0  0  0  0
   16.9173  -18.2069  -12.9294 C   0  0  0  0  0  0  0  0  0  0  0  0
   15.6528  -18.3802  -12.8731 O   0  0  0  0  0  0  0  0  0  0  0  0
   17.5903  -18.4741  -14.2191 C   0  0  0  0  0  0  0  0  0  0  0  0
   19.0467  -18.2318  -14.2429 C   0  0  0  0  0  0  0  0  0  0  0  0
   19.7986  -18.4920  -15.4943 C   0  0  2  0  0  0  0  0  0  0  0  0
   21.1948  -18.0595  -15.1593 N   0  0  0  0  0  0  0  0  0  0  0  0
   19.4054  -17.7717  -16.7035 C   0  0  0  0  0  0  0  0  0  0  0  0
   18.4163  -18.2080  -17.5731 O   0  0  0  0  0  0  0  0  0  0  0  0
   19.9837  -16.6921  -16.9916 O   0  0  0  0  0  0  0  0  0  0  0  0
  2  1  1  1
  2  4  1  0
  3  2  1  0
  4  5  1  1
  6  8  1  0
  6  4  1  0
  7  6  2  0
  9 12  1  0
  9  8  1  0
  9 10  1  6
 11 10  1  0
 12 20  1  0
 13 12  2  0
 15 17  1  0
 15 14  1  0
 16 15  2  0
 18 17  1  0
 19 21  1  0
 19 18  1  1
 20 19  1  0
 21 22  1  0
 23 21  2  0
M  END
$$$$
