TCQ.pdb
     RDKit          3D

 23 22  0  0  1  0  0  0  0  0999 V2000
   25.4242  -12.3172  -21.2320 C   0  0  0  0  0  0  0  0  0  0  0  0
   25.4696  -13.6512  -20.5005 C   0  0  1  0  0  0  0  0  0  0  0  0
   25.4259  -14.7050  -21.3880 O   0  0  0  0  0  0  0  0  0  0  0  0
   26.7291  -13.7100  -19.6809 C   0  0  2  0  0  0  0  0  0  0  0  0
   26.7696  -14.9638  -18.9457 N   0  0  0  0  0  0  0  0  0  0  0  0
   26.6640  -12.5965  -18.6700 C   0  0  0  0  0  0  0  0  0  0  0  0
   25.9229  -12.6941  -17.6556 O   0  0  0  0  0  0  0  0  0  0  0  0
   27.4344  -11.4301  -18.8486 N   0  0  0  0  0  0  0  0  0  0  0  0
   27.4536  -10.4337  -17.7701 C   0  0  1  0  0  0  0  0  0  0  0  0
   28.7979   -9.7301  -17.8234 C   0  0  0  0  0  0  0  0  0  0  0  0
   30.1281  -10.8092  -17.2827 S   0  0  0  0  0  0  0  0  0  0  0  0
   26.3537   -9.4581  -18.0357 C   0  0  0  0  0  0  0  0  0  0  0  0
   26.1637   -9.0559  -19.2337 O   0  0  0  0  0  0  0  0  0  0  0  0
   21.4923   -9.1108  -14.1678 N   0  0  0  0  0  0  0  0  0  0  0  0
   21.2507   -8.0368  -15.0516 C   0  0  0  0  0  0  0  0  0  0  0  0
   20.1608   -7.3822  -14.9273 O   0  0  0  0  0  0  0  0  0  0  0  0
   22.1884   -7.6143  -16.1146 C   0  0  0  0  0  0  0  0  0  0  0  0
   23.4092   -8.4332  -16.2533 C   0  0  0  0  0  0  0  0  0  0  0  0
   24.4295   -8.0390  -17.2547 C   0  0  2  0  0  0  0  0  0  0  0  0
   25.5534   -9.0000  -17.0052 N   0  0  0  0  0  0  0  0  0  0  0  0
   24.9925   -6.6924  -17.1797 C   0  0  0  0  0  0  0  0  0  0  0  0
   26.0062   -6.3286  -16.3052 O   0  0  0  0  0  0  0  0  0  0  0  0
   24.5472   -5.7965  -17.9426 O   0  0  0  0  0  0  0  0  0  0  0  0
  2  1  1  6
  2  4  1  0
  3  2  1  0
  4  5  1  1
  6  8  1  0
  6  4  1  0
  7  6  2  0
  9 12  1  0
  9  8  1  0
  9 10  1  6
 11 10  1  0
 12 20  1  0
 13 12  2  0
 15 17  1  0
 15 14  1  0
 16 15  2  0
 18 17  1  0
 19 21  1  0
 19 18  1  1
 20 19  1  0
 21 22  1  0
 23 21  2  0
M  END
$$$$
