TCQ.pdb
     RDKit          3D

 23 22  0  0  1  0  0  0  0  0999 V2000
   16.0623  -14.1814  -17.5066 C   0  0  0  0  0  0  0  0  0  0  0  0
   17.2049  -13.2712  -17.0790 C   0  0  1  0  0  0  0  0  0  0  0  0
   17.3009  -13.2081  -15.7054 O   0  0  0  0  0  0  0  0  0  0  0  0
   18.4856  -13.7942  -17.6690 C   0  0  2  0  0  0  0  0  0  0  0  0
   18.8409  -15.0461  -17.0206 N   0  0  0  0  0  0  0  0  0  0  0  0
   19.5697  -12.7989  -17.3524 C   0  0  0  0  0  0  0  0  0  0  0  0
   20.4605  -13.0697  -16.5035 O   0  0  0  0  0  0  0  0  0  0  0  0
   19.5992  -11.5503  -18.0051 N   0  0  0  0  0  0  0  0  0  0  0  0
   20.7591  -10.6762  -17.7887 C   0  0  1  0  0  0  0  0  0  0  0  0
   21.4915  -10.5543  -19.1130 C   0  0  0  0  0  0  0  0  0  0  0  0
   22.6962   -9.2225  -19.0793 S   0  0  0  0  0  0  0  0  0  0  0  0
   20.2452   -9.3396  -17.3625 C   0  0  0  0  0  0  0  0  0  0  0  0
   19.2798   -8.8147  -18.0148 O   0  0  0  0  0  0  0  0  0  0  0  0
   17.9488   -8.1686  -12.2461 N   0  0  0  0  0  0  0  0  0  0  0  0
   19.3577   -8.2543  -12.2209 C   0  0  0  0  0  0  0  0  0  0  0  0
   19.9266   -8.5731  -11.1224 O   0  0  0  0  0  0  0  0  0  0  0  0
   20.2220   -8.0035  -13.3946 C   0  0  0  0  0  0  0  0  0  0  0  0
   19.5203   -7.6168  -14.6349 C   0  0  0  0  0  0  0  0  0  0  0  0
   20.3171   -7.3296  -15.8522 C   0  0  2  0  0  0  0  0  0  0  0  0
   20.8015   -8.6827  -16.2801 N   0  0  0  0  0  0  0  0  0  0  0  0
   21.4945   -6.4731  -15.7257 C   0  0  0  0  0  0  0  0  0  0  0  0
   22.7874   -6.8953  -15.9992 O   0  0  0  0  0  0  0  0  0  0  0  0
   21.3503   -5.2814  -15.3488 O   0  0  0  0  0  0  0  0  0  0  0  0
  2  1  1  1
  2  4  1  0
  3  2  1  0
  4  5  1  1
  6  8  1  0
  6  4  1  0
  7  6  2  0
  9 12  1  0
  9  8  1  0
  9 10  1  6
 11 10  1  0
 12 20  1  0
 13 12  2  0
 15 17  1  0
 15 14  1  0
 16 15  2  0
 18 17  1  0
 19 21  1  0
 19 18  1  1
 20 19  1  0
 21 22  1  0
 23 21  2  0
M  END
$$$$
