TCQ.pdb
     RDKit          3D

 23 22  0  0  1  0  0  0  0  0999 V2000
   21.1216  -10.8491  -21.2505 C   0  0  0  0  0  0  0  0  0  0  0  0
   21.0363  -10.6804  -19.7402 C   0  0  1  0  0  0  0  0  0  0  0  0
   21.2074  -11.8871  -19.0962 O   0  0  0  0  0  0  0  0  0  0  0  0
   22.0903   -9.7007  -19.3033 C   0  0  2  0  0  0  0  0  0  0  0  0
   23.4067  -10.2825  -19.5101 N   0  0  0  0  0  0  0  0  0  0  0  0
   21.9209   -9.4832  -17.8235 C   0  0  0  0  0  0  0  0  0  0  0  0
   20.8090   -9.1249  -17.3512 O   0  0  0  0  0  0  0  0  0  0  0  0
   23.0081   -9.6792  -16.9485 N   0  0  0  0  0  0  0  0  0  0  0  0
   22.8341   -9.3382  -15.5309 C   0  0  1  0  0  0  0  0  0  0  0  0
   23.7820  -10.2143  -14.7315 C   0  0  0  0  0  0  0  0  0  0  0  0
   23.2295  -11.9230  -14.6979 S   0  0  0  0  0  0  0  0  0  0  0  0
   23.2015   -7.8997  -15.3632 C   0  0  0  0  0  0  0  0  0  0  0  0
   24.1528   -7.4210  -16.0695 O   0  0  0  0  0  0  0  0  0  0  0  0
   21.5551   -4.3637  -18.4852 N   0  0  0  0  0  0  0  0  0  0  0  0
   21.8302   -3.4058  -17.4853 C   0  0  0  0  0  0  0  0  0  0  0  0
   21.7177   -2.1686  -17.7830 O   0  0  0  0  0  0  0  0  0  0  0  0
   22.2362   -3.7459  -16.1044 C   0  0  0  0  0  0  0  0  0  0  0  0
   22.3311   -5.1881  -15.8023 C   0  0  0  0  0  0  0  0  0  0  0  0
   22.7181   -5.6125  -14.4351 C   0  0  2  0  0  0  0  0  0  0  0  0
   22.5232   -7.0991  -14.4624 N   0  0  0  0  0  0  0  0  0  0  0  0
   21.9471   -5.0999  -13.3043 C   0  0  0  0  0  0  0  0  0  0  0  0
   22.2015   -3.8843  -12.6860 O   0  0  0  0  0  0  0  0  0  0  0  0
   20.9940   -5.7838  -12.8495 O   0  0  0  0  0  0  0  0  0  0  0  0
  2  1  1  6
  2  4  1  0
  3  2  1  0
  4  5  1  1
  6  8  1  0
  6  4  1  0
  7  6  2  0
  9 12  1  0
  9  8  1  0
  9 10  1  1
 11 10  1  0
 12 20  1  0
 13 12  2  0
 15 17  1  0
 15 14  1  0
 16 15  2  0
 18 17  1  0
 19 21  1  0
 19 18  1  6
 20 19  1  0
 21 22  1  0
 23 21  2  0
M  END
$$$$
