TCQ.pdb
     RDKit          3D

 23 22  0  0  1  0  0  0  0  0999 V2000
   20.5991  -13.2931  -19.6261 C   0  0  0  0  0  0  0  0  0  0  0  0
   20.0805  -12.0836  -18.8612 C   0  0  1  0  0  0  0  0  0  0  0  0
   18.8938  -12.3727  -18.2222 O   0  0  0  0  0  0  0  0  0  0  0  0
   21.1223  -11.6607  -17.8626 C   0  0  2  0  0  0  0  0  0  0  0  0
   21.2860  -12.7041  -16.8632 N   0  0  0  0  0  0  0  0  0  0  0  0
   20.6024  -10.4373  -17.1562 C   0  0  0  0  0  0  0  0  0  0  0  0
   20.4079   -9.3655  -17.7895 O   0  0  0  0  0  0  0  0  0  0  0  0
   20.3265  -10.4791  -15.7748 N   0  0  0  0  0  0  0  0  0  0  0  0
   19.8277   -9.2605  -15.1250 C   0  0  1  0  0  0  0  0  0  0  0  0
   19.0878   -9.6839  -13.8686 C   0  0  0  0  0  0  0  0  0  0  0  0
   18.6451   -8.2679  -12.8562 S   0  0  0  0  0  0  0  0  0  0  0  0
   21.0114   -8.4229  -14.7648 C   0  0  0  0  0  0  0  0  0  0  0  0
   22.0621   -9.0001  -14.3222 O   0  0  0  0  0  0  0  0  0  0  0  0
   23.7038   -4.9053  -18.4790 N   0  0  0  0  0  0  0  0  0  0  0  0
   24.4136   -5.8373  -17.6913 C   0  0  0  0  0  0  0  0  0  0  0  0
   25.5021   -6.3192  -18.1549 O   0  0  0  0  0  0  0  0  0  0  0  0
   23.9780   -6.2890  -16.3519 C   0  0  0  0  0  0  0  0  0  0  0  0
   22.6715   -5.7734  -15.8966 C   0  0  0  0  0  0  0  0  0  0  0  0
   22.1559   -6.1916  -14.5705 C   0  0  2  0  0  0  0  0  0  0  0  0
   20.9728   -7.0482  -14.9099 N   0  0  0  0  0  0  0  0  0  0  0  0
   21.6867   -5.1580  -13.6501 C   0  0  0  0  0  0  0  0  0  0  0  0
   22.4839   -4.5733  -12.6768 O   0  0  0  0  0  0  0  0  0  0  0  0
   20.4953   -4.7610  -13.7270 O   0  0  0  0  0  0  0  0  0  0  0  0
  2  1  1  1
  2  4  1  0
  3  2  1  0
  4  5  1  1
  6  8  1  0
  6  4  1  0
  7  6  2  0
  9 12  1  0
  9  8  1  0
  9 10  1  1
 11 10  1  0
 12 20  1  0
 13 12  2  0
 15 17  1  0
 15 14  1  0
 16 15  2  0
 18 17  1  0
 19 21  1  0
 19 18  1  6
 20 19  1  0
 21 22  1  0
 23 21  2  0
M  END
$$$$
