TCQ.pdb
     RDKit          3D

 23 22  0  0  1  0  0  0  0  0999 V2000
   25.5300  -10.9679  -19.7076 C   0  0  0  0  0  0  0  0  0  0  0  0
   24.4611   -9.9995  -19.2211 C   0  0  1  0  0  0  0  0  0  0  0  0
   24.0275   -9.1846  -20.2448 O   0  0  0  0  0  0  0  0  0  0  0  0
   23.3118  -10.7909  -18.6603 C   0  0  2  0  0  0  0  0  0  0  0  0
   22.6214  -11.4739  -19.7424 N   0  0  0  0  0  0  0  0  0  0  0  0
   22.3420   -9.8127  -18.0531 C   0  0  0  0  0  0  0  0  0  0  0  0
   21.4374   -9.2870  -18.7554 O   0  0  0  0  0  0  0  0  0  0  0  0
   22.4363   -9.4745  -16.6883 N   0  0  0  0  0  0  0  0  0  0  0  0
   21.4093   -8.5963  -16.1138 C   0  0  1  0  0  0  0  0  0  0  0  0
   21.3095   -8.9191  -14.6336 C   0  0  0  0  0  0  0  0  0  0  0  0
   20.1816   -7.8039  -13.7908 S   0  0  0  0  0  0  0  0  0  0  0  0
   21.8640   -7.1854  -16.3010 C   0  0  0  0  0  0  0  0  0  0  0  0
   23.1058   -6.9159  -16.1658 O   0  0  0  0  0  0  0  0  0  0  0  0
   23.5460   -4.6393  -20.4785 N   0  0  0  0  0  0  0  0  0  0  0  0
   22.9672   -3.4453  -19.9965 C   0  0  0  0  0  0  0  0  0  0  0  0
   23.2924   -2.3441  -20.5565 O   0  0  0  0  0  0  0  0  0  0  0  0
   21.9968   -3.3886  -18.8817 C   0  0  0  0  0  0  0  0  0  0  0  0
   21.6301   -4.6889  -18.2859 C   0  0  0  0  0  0  0  0  0  0  0  0
   21.3971   -4.7698  -16.8236 C   0  0  2  0  0  0  0  0  0  0  0  0
   20.9588   -6.1890  -16.6177 N   0  0  0  0  0  0  0  0  0  0  0  0
   20.3687   -3.9140  -16.2356 C   0  0  0  0  0  0  0  0  0  0  0  0
   19.0517   -4.3085  -16.0497 O   0  0  0  0  0  0  0  0  0  0  0  0
   20.6732   -2.7492  -15.8702 O   0  0  0  0  0  0  0  0  0  0  0  0
  2  1  1  6
  2  4  1  0
  3  2  1  0
  4  5  1  6
  6  8  1  0
  6  4  1  0
  7  6  2  0
  9 12  1  0
  9  8  1  0
  9 10  1  1
 11 10  1  0
 12 20  1  0
 13 12  2  0
 15 17  1  0
 15 14  1  0
 16 15  2  0
 18 17  1  0
 19 21  1  0
 19 18  1  6
 20 19  1  0
 21 22  1  0
 23 21  2  0
M  END
$$$$
