TCQ.pdb
     RDKit          3D

 23 22  0  0  1  0  0  0  0  0999 V2000
   22.2400  -37.8541  -10.8964 C   0  0  0  0  0  0  0  0  0  0  0  0
   22.9828  -36.9858   -9.8908 C   0  0  1  0  0  0  0  0  0  0  0  0
   24.0375  -37.6715   -9.3275 O   0  0  0  0  0  0  0  0  0  0  0  0
   23.4770  -35.7504  -10.5916 C   0  0  2  0  0  0  0  0  0  0  0  0
   24.3926  -36.1313  -11.6550 N   0  0  0  0  0  0  0  0  0  0  0  0
   24.2599  -34.9441   -9.5900 C   0  0  0  0  0  0  0  0  0  0  0  0
   25.4961  -34.7558   -9.7444 O   0  0  0  0  0  0  0  0  0  0  0  0
   23.6153  -34.3897   -8.4662 N   0  0  0  0  0  0  0  0  0  0  0  0
   24.4246  -33.6442   -7.4938 C   0  0  1  0  0  0  0  0  0  0  0  0
   23.5360  -32.5736   -6.8863 C   0  0  0  0  0  0  0  0  0  0  0  0
   24.3656  -31.7107   -5.5472 S   0  0  0  0  0  0  0  0  0  0  0  0
   24.8630  -34.6061   -6.4379 C   0  0  0  0  0  0  0  0  0  0  0  0
   24.0529  -35.5211   -6.0642 O   0  0  0  0  0  0  0  0  0  0  0  0
   27.3623  -38.9162   -5.8269 N   0  0  0  0  0  0  0  0  0  0  0  0
   28.2552  -38.4737   -4.8270 C   0  0  0  0  0  0  0  0  0  0  0  0
   28.8653  -39.3510   -4.1269 O   0  0  0  0  0  0  0  0  0  0  0  0
   28.5362  -37.0500   -4.5411 C   0  0  0  0  0  0  0  0  0  0  0  0
   27.7884  -36.0738   -5.3584 C   0  0  0  0  0  0  0  0  0  0  0  0
   26.5701  -35.4456   -4.7925 C   0  0  2  0  0  0  0  0  0  0  0  0
   26.1233  -34.5108   -5.8765 N   0  0  0  0  0  0  0  0  0  0  0  0
   26.7000  -34.6542   -3.5708 C   0  0  0  0  0  0  0  0  0  0  0  0
   26.4783  -35.1596   -2.2980 O   0  0  0  0  0  0  0  0  0  0  0  0
   27.0309  -33.4432   -3.6550 O   0  0  0  0  0  0  0  0  0  0  0  0
  2  1  1  6
  2  4  1  0
  3  2  1  0
  4  5  1  6
  6  8  1  0
  6  4  1  0
  7  6  2  0
  9 12  1  0
  9  8  1  0
  9 10  1  1
 11 10  1  0
 12 20  1  0
 13 12  2  0
 15 17  1  0
 15 14  1  0
 16 15  2  0
 18 17  1  0
 19 21  1  0
 19 18  1  6
 20 19  1  0
 21 22  1  0
 23 21  2  0
M  END
$$$$
