TCQ.pdb
     RDKit          3D

 23 22  0  0  1  0  0  0  0  0999 V2000
   21.3020  -11.3632  -19.5268 C   0  0  0  0  0  0  0  0  0  0  0  0
   20.8703  -12.5309  -18.6510 C   0  0  1  0  0  0  0  0  0  0  0  0
   20.8594  -13.7093  -19.3661 O   0  0  0  0  0  0  0  0  0  0  0  0
   21.8149  -12.6355  -17.4855 C   0  0  2  0  0  0  0  0  0  0  0  0
   21.5407  -13.8589  -16.7492 N   0  0  0  0  0  0  0  0  0  0  0  0
   21.5268  -11.4805  -16.5641 C   0  0  0  0  0  0  0  0  0  0  0  0
   20.3705  -11.3083  -16.0941 O   0  0  0  0  0  0  0  0  0  0  0  0
   22.5514  -10.5775  -16.2165 N   0  0  0  0  0  0  0  0  0  0  0  0
   22.2065   -9.4148  -15.3887 C   0  0  1  0  0  0  0  0  0  0  0  0
   23.4043   -9.1120  -14.5061 C   0  0  0  0  0  0  0  0  0  0  0  0
   23.5410  -10.2877  -13.1551 S   0  0  0  0  0  0  0  0  0  0  0  0
   21.9442   -8.2666  -16.3080 C   0  0  0  0  0  0  0  0  0  0  0  0
   22.3392   -8.3465  -17.5207 O   0  0  0  0  0  0  0  0  0  0  0  0
   18.2666   -8.3094  -19.6166 N   0  0  0  0  0  0  0  0  0  0  0  0
   18.4991   -6.9282  -19.7929 C   0  0  0  0  0  0  0  0  0  0  0  0
   17.9518   -6.3429  -20.7879 O   0  0  0  0  0  0  0  0  0  0  0  0
   19.3359   -6.1090  -18.8894 C   0  0  0  0  0  0  0  0  0  0  0  0
   19.9516   -6.8308  -17.7580 C   0  0  0  0  0  0  0  0  0  0  0  0
   20.8044   -6.0802  -16.8048 C   0  0  2  0  0  0  0  0  0  0  0  0
   21.2837   -7.1386  -15.8567 N   0  0  0  0  0  0  0  0  0  0  0  0
   20.1863   -5.0301  -15.9979 C   0  0  0  0  0  0  0  0  0  0  0  0
   20.1575   -3.6926  -16.3651 O   0  0  0  0  0  0  0  0  0  0  0  0
   19.6437   -5.3342  -14.9043 O   0  0  0  0  0  0  0  0  0  0  0  0
  2  1  1  6
  2  4  1  0
  3  2  1  0
  4  5  1  1
  6  8  1  0
  6  4  1  0
  7  6  2  0
  9 12  1  0
  9  8  1  0
  9 10  1  1
 11 10  1  0
 12 20  1  0
 13 12  2  0
 15 17  1  0
 15 14  1  0
 16 15  2  0
 18 17  1  0
 19 21  1  0
 19 18  1  6
 20 19  1  0
 21 22  1  0
 23 21  2  0
M  END
$$$$
