TYQ.pdb
     RDKit          3D

 29 29  0  0  1  0  0  0  0  0999 V2000
   27.5473  -20.2823  -18.5650 C   0  0  0  0  0  0  0  0  0  0  0  0
   28.4888  -21.4690  -18.6494 C   0  0  1  0  0  0  0  0  0  0  0  0
   29.4324  -21.3003  -19.6537 O   0  0  0  0  0  0  0  0  0  0  0  0
   29.1063  -21.7980  -17.3243 C   0  0  2  0  0  0  0  0  0  0  0  0
   29.9079  -23.0127  -17.5155 N   0  0  0  0  0  0  0  0  0  0  0  0
   28.1184  -22.0046  -16.2427 C   0  0  0  0  0  0  0  0  0  0  0  0
   27.3792  -23.0456  -16.1915 O   0  0  0  0  0  0  0  0  0  0  0  0
   23.8185  -20.5240   -8.5776 O   0  0  0  0  0  0  0  0  0  0  0  0
   24.6922  -20.5176   -9.6513 C   0  0  0  0  0  0  0  0  0  0  0  0
   25.8748  -21.2190   -9.6218 C   0  0  0  0  0  0  0  0  0  0  0  0
   26.7441  -21.1987  -10.7194 C   0  0  0  0  0  0  0  0  0  0  0  0
   26.4413  -20.4802  -11.8528 C   0  0  0  0  0  0  0  0  0  0  0  0
   27.3507  -20.4605  -12.9914 C   0  0  0  0  0  0  0  0  0  0  0  0
   26.8834  -21.2623  -14.1889 C   0  0  2  0  0  0  0  0  0  0  0  0
   27.9289  -21.0737  -15.2051 N   0  0  0  0  0  0  0  0  0  0  0  0
   25.5660  -20.8635  -14.6960 C   0  0  0  0  0  0  0  0  0  0  0  0
   25.4473  -19.7785  -15.3212 O   0  0  0  0  0  0  0  0  0  0  0  0
   25.2564  -19.7839  -11.8688 C   0  0  0  0  0  0  0  0  0  0  0  0
   24.3857  -19.7989  -10.7806 C   0  0  0  0  0  0  0  0  0  0  0  0
   21.7126  -23.6570  -18.0274 N   0  0  0  0  0  0  0  0  0  0  0  0
   21.9246  -24.2993  -16.7840 C   0  0  0  0  0  0  0  0  0  0  0  0
   21.7243  -25.5139  -16.6219 O   0  0  0  0  0  0  0  0  0  0  0  0
   22.4095  -23.4416  -15.6474 C   0  0  0  0  0  0  0  0  0  0  0  0
   22.6448  -22.0314  -16.1094 C   0  0  0  0  0  0  0  0  0  0  0  0
   23.1199  -21.1661  -14.9997 C   0  0  2  0  0  0  0  0  0  0  0  0
   24.4263  -21.6565  -14.5061 N   0  0  0  0  0  0  0  0  0  0  0  0
   22.2019  -21.1833  -13.8478 C   0  0  0  0  0  0  0  0  0  0  0  0
   22.4976  -21.8679  -12.8070 O   0  0  0  0  0  0  0  0  0  0  0  0
   21.0007  -20.5065  -13.7632 O   0  0  0  0  0  0  0  0  0  0  0  0
  2  1  1  1
  2  4  1  0
  2  3  1  0
  4  6  1  0
  4  5  1  6
  6  7  2  0
  9  8  1  0
  9 19  2  0
 10  9  1  0
 11 10  2  0
 11 12  1  0
 12 18  2  0
 13 12  1  0
 14 13  1  1
 14 16  1  0
 15 14  1  0
 15  6  1  0
 16 17  2  0
 18 19  1  0
 20 21  1  0
 21 22  2  0
 23 21  1  0
 23 24  1  0
 25 24  1  6
 25 27  1  0
 26 16  1  0
 26 25  1  0
 27 28  2  0
 27 29  1  0
M  END
$$$$
