TYQ.pdb
     RDKit          3D

 29 29  0  0  1  0  0  0  0  0999 V2000
   18.1761  -10.5246  -18.5861 C   0  0  0  0  0  0  0  0  0  0  0  0
   17.9540  -11.7092  -17.6646 C   0  0  1  0  0  0  0  0  0  0  0  0
   17.7428  -12.8794  -18.3810 O   0  0  0  0  0  0  0  0  0  0  0  0
   19.0419  -11.8444  -16.6430 C   0  0  2  0  0  0  0  0  0  0  0  0
   18.7426  -13.0463  -15.8555 N   0  0  0  0  0  0  0  0  0  0  0  0
   19.1703  -10.6704  -15.7520 C   0  0  0  0  0  0  0  0  0  0  0  0
   18.2298  -10.3130  -14.9644 O   0  0  0  0  0  0  0  0  0  0  0  0
   22.7856   -2.7447  -13.8148 O   0  0  0  0  0  0  0  0  0  0  0  0
   22.5519   -4.0801  -14.0950 C   0  0  0  0  0  0  0  0  0  0  0  0
   22.9569   -4.6490  -15.2798 C   0  0  0  0  0  0  0  0  0  0  0  0
   22.7102   -6.0021  -15.5426 C   0  0  0  0  0  0  0  0  0  0  0  0
   22.0591   -6.7967  -14.6278 C   0  0  0  0  0  0  0  0  0  0  0  0
   21.8027   -8.2038  -14.9075 C   0  0  0  0  0  0  0  0  0  0  0  0
   20.3379   -8.5653  -15.0452 C   0  0  2  0  0  0  0  0  0  0  0  0
   20.3298   -9.8748  -15.7134 N   0  0  0  0  0  0  0  0  0  0  0  0
   19.5480   -7.5792  -15.7904 C   0  0  0  0  0  0  0  0  0  0  0  0
   19.6522   -7.5234  -17.0427 O   0  0  0  0  0  0  0  0  0  0  0  0
   21.6599   -6.2154  -13.4481 C   0  0  0  0  0  0  0  0  0  0  0  0
   21.9015   -4.8695  -13.1787 C   0  0  0  0  0  0  0  0  0  0  0  0
   15.6658   -6.5843  -18.1767 N   0  0  0  0  0  0  0  0  0  0  0  0
   15.2303   -5.2912  -17.8006 C   0  0  0  0  0  0  0  0  0  0  0  0
   14.4826   -4.6078  -18.5185 O   0  0  0  0  0  0  0  0  0  0  0  0
   15.7150   -4.7667  -16.4767 C   0  0  0  0  0  0  0  0  0  0  0  0
   16.4865   -5.8231  -15.7375 C   0  0  0  0  0  0  0  0  0  0  0  0
   17.9486   -5.6870  -15.9605 C   0  0  2  0  0  0  0  0  0  0  0  0
   18.6745   -6.6903  -15.1497 N   0  0  0  0  0  0  0  0  0  0  0  0
   18.4545   -4.3668  -15.5473 C   0  0  0  0  0  0  0  0  0  0  0  0
   18.0097   -3.3078  -16.1131 O   0  0  0  0  0  0  0  0  0  0  0  0
   19.3996   -4.1355  -14.5668 O   0  0  0  0  0  0  0  0  0  0  0  0
  2  1  1  6
  2  4  1  0
  2  3  1  0
  4  6  1  0
  4  5  1  1
  6  7  2  0
  9  8  1  0
  9 19  2  0
 10  9  1  0
 11 10  2  0
 11 12  1  0
 12 18  2  0
 13 12  1  0
 14 13  1  6
 14 16  1  0
 15 14  1  0
 15  6  1  0
 16 17  2  0
 18 19  1  0
 20 21  1  0
 21 22  2  0
 23 21  1  0
 23 24  1  0
 25 24  1  1
 25 27  1  0
 26 16  1  0
 26 25  1  0
 27 28  2  0
 27 29  1  0
M  END
$$$$
