TYQ.pdb
     RDKit          3D

 29 29  0  0  1  0  0  0  0  0999 V2000
   25.8881  -20.7052   -5.6928 C   0  0  0  0  0  0  0  0  0  0  0  0
   25.3589  -20.5681   -7.1081 C   0  0  1  0  0  0  0  0  0  0  0  0
   24.2600  -19.7214   -7.1613 O   0  0  0  0  0  0  0  0  0  0  0  0
   26.4329  -20.1841   -8.0801 C   0  0  2  0  0  0  0  0  0  0  0  0
   27.0581  -18.9600   -7.5656 N   0  0  0  0  0  0  0  0  0  0  0  0
   25.9379  -19.9636   -9.4567 C   0  0  0  0  0  0  0  0  0  0  0  0
   25.7059  -18.7927   -9.9126 O   0  0  0  0  0  0  0  0  0  0  0  0
   30.8106  -19.3498  -14.5794 O   0  0  0  0  0  0  0  0  0  0  0  0
   29.6403  -19.9149  -14.1027 C   0  0  0  0  0  0  0  0  0  0  0  0
   28.4132  -19.5780  -14.6244 C   0  0  0  0  0  0  0  0  0  0  0  0
   27.2417  -20.1621  -14.1271 C   0  0  0  0  0  0  0  0  0  0  0  0
   27.2848  -21.0849  -13.1078 C   0  0  0  0  0  0  0  0  0  0  0  0
   26.0623  -21.6879  -12.5923 C   0  0  0  0  0  0  0  0  0  0  0  0
   25.2244  -20.7745  -11.7211 C   0  0  2  0  0  0  0  0  0  0  0  0
   25.6915  -21.0225  -10.3494 N   0  0  0  0  0  0  0  0  0  0  0  0
   23.7793  -20.9954  -11.8426 C   0  0  0  0  0  0  0  0  0  0  0  0
   23.2278  -21.8774  -11.1355 O   0  0  0  0  0  0  0  0  0  0  0  0
   28.5175  -21.4124  -12.5958 C   0  0  0  0  0  0  0  0  0  0  0  0
   29.6882  -20.8357  -13.0851 C   0  0  0  0  0  0  0  0  0  0  0  0
   18.6325  -18.7071  -13.9712 N   0  0  0  0  0  0  0  0  0  0  0  0
   19.7658  -17.9874  -14.4199 C   0  0  0  0  0  0  0  0  0  0  0  0
   19.7137  -17.1954  -15.3747 O   0  0  0  0  0  0  0  0  0  0  0  0
   21.0571  -18.2215  -13.6848 C   0  0  0  0  0  0  0  0  0  0  0  0
   20.8424  -19.1368  -12.5128 C   0  0  0  0  0  0  0  0  0  0  0  0
   21.5188  -20.4441  -12.7106 C   0  0  2  0  0  0  0  0  0  0  0  0
   22.9863  -20.2514  -12.7265 N   0  0  0  0  0  0  0  0  0  0  0  0
   21.1625  -21.0665  -13.9973 C   0  0  0  0  0  0  0  0  0  0  0  0
   21.9991  -21.0508  -14.9665 O   0  0  0  0  0  0  0  0  0  0  0  0
   19.9681  -21.6979  -14.2849 O   0  0  0  0  0  0  0  0  0  0  0  0
  2  1  1  1
  2  4  1  0
  2  3  1  0
  4  6  1  0
  4  5  1  1
  6  7  2  0
  9  8  1  0
  9 19  2  0
 10  9  1  0
 11 10  2  0
 11 12  1  0
 12 18  2  0
 13 12  1  0
 14 13  1  6
 14 16  1  0
 15 14  1  0
 15  6  1  0
 16 17  2  0
 18 19  1  0
 20 21  1  0
 21 22  2  0
 23 21  1  0
 23 24  1  0
 25 24  1  6
 25 27  1  0
 26 16  1  0
 26 25  1  0
 27 28  2  0
 27 29  1  0
M  END
$$$$
