TYQ.pdb
     RDKit          3D

 29 29  0  0  1  0  0  0  0  0999 V2000
   27.0936    5.3876   -7.0236 C   0  0  0  0  0  0  0  0  0  0  0  0
   28.3760    4.8699   -6.3997 C   0  0  1  0  0  0  0  0  0  0  0  0
   28.6110    5.4515   -5.1613 O   0  0  0  0  0  0  0  0  0  0  0  0
   28.4198    3.3727   -6.3537 C   0  0  2  0  0  0  0  0  0  0  0  0
   28.2566    2.8972   -7.7327 N   0  0  0  0  0  0  0  0  0  0  0  0
   27.3848    2.7740   -5.4824 C   0  0  0  0  0  0  0  0  0  0  0  0
   26.2414    2.4239   -5.9328 O   0  0  0  0  0  0  0  0  0  0  0  0
   24.0530   -1.4255    1.6161 O   0  0  0  0  0  0  0  0  0  0  0  0
   24.8542   -0.8129    0.6679 C   0  0  0  0  0  0  0  0  0  0  0  0
   25.6310   -1.5444   -0.1998 C   0  0  0  0  0  0  0  0  0  0  0  0
   26.4342   -0.9040   -1.1515 C   0  0  0  0  0  0  0  0  0  0  0  0
   26.4689    0.4680   -1.2450 C   0  0  0  0  0  0  0  0  0  0  0  0
   27.3085    1.1294   -2.2357 C   0  0  0  0  0  0  0  0  0  0  0  0
   26.5513    1.9389   -3.2684 C   0  0  2  0  0  0  0  0  0  0  0  0
   27.5903    2.5519   -4.1086 N   0  0  0  0  0  0  0  0  0  0  0  0
   25.6598    2.9527   -2.6946 C   0  0  0  0  0  0  0  0  0  0  0  0
   26.1374    4.0547   -2.3208 O   0  0  0  0  0  0  0  0  0  0  0  0
   25.6879    1.1866   -0.3718 C   0  0  0  0  0  0  0  0  0  0  0  0
   24.8857    0.5571    0.5783 C   0  0  0  0  0  0  0  0  0  0  0  0
   21.0797    5.4281   -5.0875 N   0  0  0  0  0  0  0  0  0  0  0  0
   20.8277    5.9666   -3.8030 C   0  0  0  0  0  0  0  0  0  0  0  0
   19.9715    6.8442   -3.6077 O   0  0  0  0  0  0  0  0  0  0  0  0
   21.6495    5.4273   -2.6643 C   0  0  0  0  0  0  0  0  0  0  0  0
   22.6280    4.3988   -3.1564 C   0  0  0  0  0  0  0  0  0  0  0  0
   23.4312    3.8331   -2.0425 C   0  0  2  0  0  0  0  0  0  0  0  0
   24.2835    2.7335   -2.5476 N   0  0  0  0  0  0  0  0  0  0  0  0
   22.5855    3.2569   -0.9829 C   0  0  0  0  0  0  0  0  0  0  0  0
   22.3501    1.9983   -0.9688 O   0  0  0  0  0  0  0  0  0  0  0  0
   21.9930    3.9596    0.0481 O   0  0  0  0  0  0  0  0  0  0  0  0
  2  1  1  1
  2  4  1  0
  2  3  1  0
  4  6  1  0
  4  5  1  6
  6  7  2  0
  9  8  1  0
  9 19  2  0
 10  9  1  0
 11 10  2  0
 11 12  1  0
 12 18  2  0
 13 12  1  0
 14 13  1  1
 14 16  1  0
 15 14  1  0
 15  6  1  0
 16 17  2  0
 18 19  1  0
 20 21  1  0
 21 22  2  0
 23 21  1  0
 23 24  1  0
 25 24  1  6
 25 27  1  0
 26 16  1  0
 26 25  1  0
 27 28  2  0
 27 29  1  0
M  END
$$$$
