TYQ.pdb
     RDKit          3D

 29 29  0  0  1  0  0  0  0  0999 V2000
   22.5695  -16.0449  -18.2581 C   0  0  0  0  0  0  0  0  0  0  0  0
   23.7127  -15.5812  -17.3750 C   0  0  1  0  0  0  0  0  0  0  0  0
   23.2659  -15.2185  -16.1117 O   0  0  0  0  0  0  0  0  0  0  0  0
   24.8329  -16.5755  -17.3293 C   0  0  2  0  0  0  0  0  0  0  0  0
   25.4486  -16.5881  -18.6616 N   0  0  0  0  0  0  0  0  0  0  0  0
   24.4019  -17.9402  -16.9543 C   0  0  0  0  0  0  0  0  0  0  0  0
   23.7158  -18.6737  -17.7441 O   0  0  0  0  0  0  0  0  0  0  0  0
   24.7218  -26.0476  -13.6618 O   0  0  0  0  0  0  0  0  0  0  0  0
   24.8922  -24.6942  -13.8976 C   0  0  0  0  0  0  0  0  0  0  0  0
   24.8539  -23.7747  -12.8756 C   0  0  0  0  0  0  0  0  0  0  0  0
   25.0288  -22.4101  -13.1367 C   0  0  0  0  0  0  0  0  0  0  0  0
   25.2429  -21.9529  -14.4163 C   0  0  0  0  0  0  0  0  0  0  0  0
   25.4218  -20.5313  -14.6828 C   0  0  0  0  0  0  0  0  0  0  0  0
   24.2372  -19.8571  -15.3442 C   0  0  2  0  0  0  0  0  0  0  0  0
   24.7174  -18.5168  -15.7106 N   0  0  0  0  0  0  0  0  0  0  0  0
   23.0426  -19.7844  -14.4961 C   0  0  0  0  0  0  0  0  0  0  0  0
   23.0457  -19.0320  -13.4880 O   0  0  0  0  0  0  0  0  0  0  0  0
   25.2787  -22.8825  -15.4280 C   0  0  0  0  0  0  0  0  0  0  0  0
   25.1055  -24.2424  -15.1767 C   0  0  0  0  0  0  0  0  0  0  0  0
   17.3822  -19.5632  -16.1001 N   0  0  0  0  0  0  0  0  0  0  0  0
   18.1906  -18.4481  -15.7736 C   0  0  0  0  0  0  0  0  0  0  0  0
   17.9285  -17.3003  -16.1679 O   0  0  0  0  0  0  0  0  0  0  0  0
   19.3991  -18.7096  -14.9170 C   0  0  0  0  0  0  0  0  0  0  0  0
   19.4989  -20.1683  -14.5709 C   0  0  0  0  0  0  0  0  0  0  0  0
   20.7503  -20.4685  -13.8294 C   0  0  2  0  0  0  0  0  0  0  0  0
   21.8890  -20.5304  -14.7729 N   0  0  0  0  0  0  0  0  0  0  0  0
   20.6955  -21.7745  -13.1503 C   0  0  0  0  0  0  0  0  0  0  0  0
   20.7548  -22.8534  -13.8373 O   0  0  0  0  0  0  0  0  0  0  0  0
   20.5847  -21.9714  -11.7876 O   0  0  0  0  0  0  0  0  0  0  0  0
  2  1  1  6
  2  4  1  0
  2  3  1  0
  4  6  1  0
  4  5  1  6
  6  7  2  0
  9  8  1  0
  9 19  2  0
 10  9  1  0
 11 10  2  0
 11 12  1  0
 12 18  2  0
 13 12  1  0
 14 13  1  1
 14 16  1  0
 15 14  1  0
 15  6  1  0
 16 17  2  0
 18 19  1  0
 20 21  1  0
 21 22  2  0
 23 21  1  0
 23 24  1  0
 25 24  1  6
 25 27  1  0
 26 16  1  0
 26 25  1  0
 27 28  2  0
 27 29  1  0
M  END
$$$$
