TYQ.pdb
     RDKit          3D

 29 29  0  0  1  0  0  0  0  0999 V2000
   18.3045  -10.6982  -18.2397 C   0  0  0  0  0  0  0  0  0  0  0  0
   18.2672  -10.2014  -16.8066 C   0  0  1  0  0  0  0  0  0  0  0  0
   17.0789  -10.5480  -16.1780 O   0  0  0  0  0  0  0  0  0  0  0  0
   19.4773  -10.6220  -16.0292 C   0  0  2  0  0  0  0  0  0  0  0  0
   19.5366  -12.0873  -16.0894 N   0  0  0  0  0  0  0  0  0  0  0  0
   19.4659  -10.1700  -14.6206 C   0  0  0  0  0  0  0  0  0  0  0  0
   18.9052  -10.8511  -13.6962 O   0  0  0  0  0  0  0  0  0  0  0  0
   22.2164   -2.9207  -15.1226 O   0  0  0  0  0  0  0  0  0  0  0  0
   21.9972   -4.1337  -14.4925 C   0  0  0  0  0  0  0  0  0  0  0  0
   22.5847   -5.2940  -14.9395 C   0  0  0  0  0  0  0  0  0  0  0  0
   22.3492   -6.5103  -14.2869 C   0  0  0  0  0  0  0  0  0  0  0  0
   21.5277   -6.5787  -13.1856 C   0  0  0  0  0  0  0  0  0  0  0  0
   21.2840   -7.8477  -12.5117 C   0  0  0  0  0  0  0  0  0  0  0  0
   19.9455   -8.4844  -12.8253 C   0  0  2  0  0  0  0  0  0  0  0  0
   20.0682   -8.9674  -14.2084 N   0  0  0  0  0  0  0  0  0  0  0  0
   18.8035   -7.5763  -12.6748 C   0  0  0  0  0  0  0  0  0  0  0  0
   18.3664   -6.9615  -13.6814 O   0  0  0  0  0  0  0  0  0  0  0  0
   20.9470   -5.4118  -12.7497 C   0  0  0  0  0  0  0  0  0  0  0  0
   21.1762   -4.1971  -13.3935 C   0  0  0  0  0  0  0  0  0  0  0  0
   14.6913   -7.6061   -8.0025 N   0  0  0  0  0  0  0  0  0  0  0  0
   14.1392   -6.5643   -8.7856 C   0  0  0  0  0  0  0  0  0  0  0  0
   13.0788   -5.9952   -8.4803 O   0  0  0  0  0  0  0  0  0  0  0  0
   14.8974   -6.1655  -10.0220 C   0  0  0  0  0  0  0  0  0  0  0  0
   16.1543   -6.9773  -10.1589 C   0  0  0  0  0  0  0  0  0  0  0  0
   16.8973   -6.6276  -11.3965 C   0  0  2  0  0  0  0  0  0  0  0  0
   18.1779   -7.3687  -11.4381 N   0  0  0  0  0  0  0  0  0  0  0  0
   17.2380   -5.1958  -11.4558 C   0  0  0  0  0  0  0  0  0  0  0  0
   18.3323   -4.7788  -10.9379 O   0  0  0  0  0  0  0  0  0  0  0  0
   16.4702   -4.2072  -12.0399 O   0  0  0  0  0  0  0  0  0  0  0  0
  2  1  1  6
  2  4  1  0
  2  3  1  0
  4  6  1  0
  4  5  1  1
  6  7  2  0
  9  8  1  0
  9 19  2  0
 10  9  1  0
 11 10  2  0
 11 12  1  0
 12 18  2  0
 13 12  1  0
 14 13  1  6
 14 16  1  0
 15 14  1  0
 15  6  1  0
 16 17  2  0
 18 19  1  0
 20 21  1  0
 21 22  2  0
 23 21  1  0
 23 24  1  0
 25 24  1  1
 25 27  1  0
 26 16  1  0
 26 25  1  0
 27 28  2  0
 27 29  1  0
M  END
$$$$
