TYQ.pdb
     RDKit          3D

 29 29  0  0  1  0  0  0  0  0999 V2000
   28.2091  -19.9811  -18.5949 C   0  0  0  0  0  0  0  0  0  0  0  0
   27.5282  -20.2268  -17.2615 C   0  0  1  0  0  0  0  0  0  0  0  0
   26.1740  -20.4875  -17.4214 O   0  0  0  0  0  0  0  0  0  0  0  0
   28.2281  -21.2763  -16.4526 C   0  0  2  0  0  0  0  0  0  0  0  0
   28.1734  -22.5214  -17.2279 N   0  0  0  0  0  0  0  0  0  0  0  0
   27.6389  -21.4848  -15.1117 C   0  0  0  0  0  0  0  0  0  0  0  0
   26.7597  -22.3856  -14.8918 O   0  0  0  0  0  0  0  0  0  0  0  0
   26.3774  -20.1167   -6.3757 O   0  0  0  0  0  0  0  0  0  0  0  0
   26.8529  -20.1443   -7.6755 C   0  0  0  0  0  0  0  0  0  0  0  0
   27.9970  -20.8305   -8.0095 C   0  0  0  0  0  0  0  0  0  0  0  0
   28.4602  -20.8451   -9.3308 C   0  0  0  0  0  0  0  0  0  0  0  0
   27.7874  -20.1769  -10.3274 C   0  0  0  0  0  0  0  0  0  0  0  0
   28.2753  -20.1934  -11.7006 C   0  0  0  0  0  0  0  0  0  0  0  0
   27.3707  -20.9056  -12.6854 C   0  0  2  0  0  0  0  0  0  0  0  0
   28.0058  -20.7095  -13.9967 N   0  0  0  0  0  0  0  0  0  0  0  0
   25.9867  -20.4195  -12.6829 C   0  0  0  0  0  0  0  0  0  0  0  0
   25.7174  -19.3199  -13.2310 O   0  0  0  0  0  0  0  0  0  0  0  0
   26.6457  -19.4952   -9.9798 C   0  0  0  0  0  0  0  0  0  0  0  0
   26.1779  -19.4757   -8.6671 C   0  0  0  0  0  0  0  0  0  0  0  0
   22.0851  -21.4630  -15.8190 N   0  0  0  0  0  0  0  0  0  0  0  0
   21.0579  -21.2251  -14.8746 C   0  0  0  0  0  0  0  0  0  0  0  0
   19.8998  -20.9325  -15.2134 O   0  0  0  0  0  0  0  0  0  0  0  0
   21.4274  -21.3420  -13.4212 C   0  0  0  0  0  0  0  0  0  0  0  0
   22.8898  -21.6510  -13.2685 C   0  0  0  0  0  0  0  0  0  0  0  0
   23.5483  -20.7177  -12.3191 C   0  0  2  0  0  0  0  0  0  0  0  0
   24.9464  -21.1442  -12.0860 N   0  0  0  0  0  0  0  0  0  0  0  0
   22.8877  -20.7046  -11.0026 C   0  0  0  0  0  0  0  0  0  0  0  0
   23.3733  -21.3934  -10.0386 O   0  0  0  0  0  0  0  0  0  0  0  0
   21.7485  -19.9938  -10.6785 O   0  0  0  0  0  0  0  0  0  0  0  0
  2  1  1  6
  2  4  1  0
  2  3  1  0
  4  6  1  0
  4  5  1  6
  6  7  2  0
  9  8  1  0
  9 19  2  0
 10  9  1  0
 11 10  2  0
 11 12  1  0
 12 18  2  0
 13 12  1  0
 14 13  1  1
 14 16  1  0
 15 14  1  0
 15  6  1  0
 16 17  2  0
 18 19  1  0
 20 21  1  0
 21 22  2  0
 23 21  1  0
 23 24  1  0
 25 24  1  6
 25 27  1  0
 26 16  1  0
 26 25  1  0
 27 28  2  0
 27 29  1  0
M  END
$$$$
