TYQ.pdb
     RDKit          3D

 29 29  0  0  1  0  0  0  0  0999 V2000
   23.0516  -21.1870   -8.7536 C   0  0  0  0  0  0  0  0  0  0  0  0
   24.0318  -20.4823   -7.8346 C   0  0  1  0  0  0  0  0  0  0  0  0
   23.8854  -20.8983   -6.5183 O   0  0  0  0  0  0  0  0  0  0  0  0
   25.4446  -20.5911   -8.3223 C   0  0  2  0  0  0  0  0  0  0  0  0
   26.2793  -19.8235   -7.3904 N   0  0  0  0  0  0  0  0  0  0  0  0
   25.6367  -20.0973   -9.7036 C   0  0  0  0  0  0  0  0  0  0  0  0
   25.7346  -18.8512   -9.9689 O   0  0  0  0  0  0  0  0  0  0  0  0
   27.7434  -20.1615  -18.3182 O   0  0  0  0  0  0  0  0  0  0  0  0
   27.5499  -20.4140  -16.9709 C   0  0  0  0  0  0  0  0  0  0  0  0
   27.9858  -19.5384  -16.0042 C   0  0  0  0  0  0  0  0  0  0  0  0
   27.7795  -19.8136  -14.6468 C   0  0  0  0  0  0  0  0  0  0  0  0
   27.1381  -20.9619  -14.2438 C   0  0  0  0  0  0  0  0  0  0  0  0
   26.9281  -21.2446  -12.8297 C   0  0  0  0  0  0  0  0  0  0  0  0
   25.8175  -20.4432  -12.1818 C   0  0  2  0  0  0  0  0  0  0  0  0
   25.7238  -20.9622  -10.8096 N   0  0  0  0  0  0  0  0  0  0  0  0
   24.5301  -20.5370  -12.8787 C   0  0  0  0  0  0  0  0  0  0  0  0
   23.8775  -21.6111  -12.8285 O   0  0  0  0  0  0  0  0  0  0  0  0
   26.7077  -21.8281  -15.2202 C   0  0  0  0  0  0  0  0  0  0  0  0
   26.9091  -21.5617  -16.5733 C   0  0  0  0  0  0  0  0  0  0  0  0
   21.0732  -15.8969  -15.2563 N   0  0  0  0  0  0  0  0  0  0  0  0
   20.2546  -17.0032  -15.5873 C   0  0  0  0  0  0  0  0  0  0  0  0
   19.1473  -16.8697  -16.1329 O   0  0  0  0  0  0  0  0  0  0  0  0
   20.7847  -18.3694  -15.2479 C   0  0  0  0  0  0  0  0  0  0  0  0
   22.1246  -18.2670  -14.5758 C   0  0  0  0  0  0  0  0  0  0  0  0
   22.6631  -19.6062  -14.2260 C   0  0  2  0  0  0  0  0  0  0  0  0
   23.9985  -19.4622  -13.6040 N   0  0  0  0  0  0  0  0  0  0  0  0
   22.8416  -20.4618  -15.4117 C   0  0  0  0  0  0  0  0  0  0  0  0
   23.9012  -20.3535  -16.1225 O   0  0  0  0  0  0  0  0  0  0  0  0
   21.9491  -21.4160  -15.8599 O   0  0  0  0  0  0  0  0  0  0  0  0
  2  1  1  6
  2  4  1  0
  2  3  1  0
  4  6  1  0
  4  5  1  1
  6  7  2  0
  9  8  1  0
  9 19  2  0
 10  9  1  0
 11 10  2  0
 11 12  1  0
 12 18  2  0
 13 12  1  0
 14 13  1  6
 14 16  1  0
 15 14  1  0
 15  6  1  0
 16 17  2  0
 18 19  1  0
 20 21  1  0
 21 22  2  0
 23 21  1  0
 23 24  1  0
 25 24  1  6
 25 27  1  0
 26 16  1  0
 26 25  1  0
 27 28  2  0
 27 29  1  0
M  END
$$$$
