TYQ.pdb
     RDKit          3D

 29 29  0  0  1  0  0  0  0  0999 V2000
   25.1872  -16.3693  -15.9344 C   0  0  0  0  0  0  0  0  0  0  0  0
   26.0058  -16.9426  -17.0759 C   0  0  1  0  0  0  0  0  0  0  0  0
   26.9736  -16.0465  -17.5090 O   0  0  0  0  0  0  0  0  0  0  0  0
   26.5712  -18.2908  -16.7467 C   0  0  2  0  0  0  0  0  0  0  0  0
   27.3948  -18.7003  -17.8904 N   0  0  0  0  0  0  0  0  0  0  0  0
   25.5413  -19.3156  -16.4676 C   0  0  0  0  0  0  0  0  0  0  0  0
   24.8599  -19.8613  -17.4006 O   0  0  0  0  0  0  0  0  0  0  0  0
   21.4160  -26.0428  -12.5617 O   0  0  0  0  0  0  0  0  0  0  0  0
   22.2080  -24.9454  -12.8527 C   0  0  0  0  0  0  0  0  0  0  0  0
   21.9008  -23.6902  -12.3819 C   0  0  0  0  0  0  0  0  0  0  0  0
   22.7161  -22.5939  -12.6884 C   0  0  0  0  0  0  0  0  0  0  0  0
   23.8420  -22.7404  -13.4652 C   0  0  0  0  0  0  0  0  0  0  0  0
   24.6857  -21.5955  -13.7832 C   0  0  0  0  0  0  0  0  0  0  0  0
   24.1687  -20.7207  -14.9069 C   0  0  2  0  0  0  0  0  0  0  0  0
   25.2462  -19.7542  -15.1639 N   0  0  0  0  0  0  0  0  0  0  0  0
   22.9038  -20.0435  -14.6015 C   0  0  0  0  0  0  0  0  0  0  0  0
   22.8606  -19.2115  -13.6591 O   0  0  0  0  0  0  0  0  0  0  0  0
   24.1373  -24.0000  -13.9290 C   0  0  0  0  0  0  0  0  0  0  0  0
   23.3310  -25.0964  -13.6285 C   0  0  0  0  0  0  0  0  0  0  0  0
   19.3007  -16.7352  -14.5593 N   0  0  0  0  0  0  0  0  0  0  0  0
   20.3333  -16.4663  -15.4893 C   0  0  0  0  0  0  0  0  0  0  0  0
   20.8602  -15.3466  -15.5906 O   0  0  0  0  0  0  0  0  0  0  0  0
   20.7761  -17.6063  -16.3650 C   0  0  0  0  0  0  0  0  0  0  0  0
   19.9531  -18.8340  -16.0947 C   0  0  0  0  0  0  0  0  0  0  0  0
   20.4834  -19.6028  -14.9399 C   0  0  2  0  0  0  0  0  0  0  0  0
   21.7330  -20.2938  -15.3296 N   0  0  0  0  0  0  0  0  0  0  0  0
   19.5479  -20.6478  -14.4897 C   0  0  0  0  0  0  0  0  0  0  0  0
   19.5273  -21.7831  -15.0814 O   0  0  0  0  0  0  0  0  0  0  0  0
   18.6495  -20.5316  -13.4469 O   0  0  0  0  0  0  0  0  0  0  0  0
  2  1  1  1
  2  4  1  0
  2  3  1  0
  4  6  1  0
  4  5  1  6
  6  7  2  0
  9  8  1  0
  9 19  2  0
 10  9  1  0
 11 10  2  0
 11 12  1  0
 12 18  2  0
 13 12  1  0
 14 13  1  1
 14 16  1  0
 15 14  1  0
 15  6  1  0
 16 17  2  0
 18 19  1  0
 20 21  1  0
 21 22  2  0
 23 21  1  0
 23 24  1  0
 25 24  1  6
 25 27  1  0
 26 16  1  0
 26 25  1  0
 27 28  2  0
 27 29  1  0
M  END
$$$$
