TYQ.pdb
     RDKit          3D

 29 29  0  0  1  0  0  0  0  0999 V2000
   23.2185  -11.4922  -20.4570 C   0  0  0  0  0  0  0  0  0  0  0  0
   21.7179  -11.6095  -20.2665 C   0  0  1  0  0  0  0  0  0  0  0  0
   21.3538  -11.3949  -18.9441 O   0  0  0  0  0  0  0  0  0  0  0  0
   20.9557  -10.7449  -21.2242 C   0  0  2  0  0  0  0  0  0  0  0  0
   21.2548   -9.3513  -20.8738 N   0  0  0  0  0  0  0  0  0  0  0  0
   19.4943  -10.9743  -21.1988 C   0  0  0  0  0  0  0  0  0  0  0  0
   18.7436  -10.4544  -20.3050 O   0  0  0  0  0  0  0  0  0  0  0  0
   16.0691   -6.1072  -24.3678 O   0  0  0  0  0  0  0  0  0  0  0  0
   16.2835   -7.4587  -24.1585 C   0  0  0  0  0  0  0  0  0  0  0  0
   17.4590   -8.0676  -24.5311 C   0  0  0  0  0  0  0  0  0  0  0  0
   17.6549   -9.4364  -24.3098 C   0  0  0  0  0  0  0  0  0  0  0  0
   16.6821  -10.2069  -23.7164 C   0  0  0  0  0  0  0  0  0  0  0  0
   16.8902  -11.6316  -23.4906 C   0  0  0  0  0  0  0  0  0  0  0  0
   17.3849  -11.9872  -22.1035 C   0  0  2  0  0  0  0  0  0  0  0  0
   18.8389  -11.7751  -22.1516 N   0  0  0  0  0  0  0  0  0  0  0  0
   17.0569  -13.3546  -21.6860 C   0  0  0  0  0  0  0  0  0  0  0  0
   17.6852  -14.3214  -22.1888 O   0  0  0  0  0  0  0  0  0  0  0  0
   15.5124   -9.5857  -23.3491 C   0  0  0  0  0  0  0  0  0  0  0  0
   15.3094   -8.2240  -23.5658 C   0  0  0  0  0  0  0  0  0  0  0  0
   15.8033  -15.5275  -16.2285 N   0  0  0  0  0  0  0  0  0  0  0  0
   15.3656  -16.6582  -16.9589 C   0  0  0  0  0  0  0  0  0  0  0  0
   14.9925  -17.7037  -16.4028 O   0  0  0  0  0  0  0  0  0  0  0  0
   15.3693  -16.5443  -18.4588 C   0  0  0  0  0  0  0  0  0  0  0  0
   15.7721  -15.1609  -18.8851 C   0  0  0  0  0  0  0  0  0  0  0  0
   15.7838  -15.0278  -20.3643 C   0  0  2  0  0  0  0  0  0  0  0  0
   16.0598  -13.6226  -20.7385 N   0  0  0  0  0  0  0  0  0  0  0  0
   14.4845  -15.3754  -20.9651 C   0  0  0  0  0  0  0  0  0  0  0  0
   14.0757  -16.5886  -20.9423 O   0  0  0  0  0  0  0  0  0  0  0  0
   13.6164  -14.4923  -21.5769 O   0  0  0  0  0  0  0  0  0  0  0  0
  2  1  1  1
  2  4  1  0
  2  3  1  0
  4  6  1  0
  4  5  1  1
  6  7  2  0
  9  8  1  0
  9 19  2  0
 10  9  1  0
 11 10  2  0
 11 12  1  0
 12 18  2  0
 13 12  1  0
 14 13  1  6
 14 16  1  0
 15 14  1  0
 15  6  1  0
 16 17  2  0
 18 19  1  0
 20 21  1  0
 21 22  2  0
 23 21  1  0
 23 24  1  0
 25 24  1  1
 25 27  1  0
 26 16  1  0
 26 25  1  0
 27 28  2  0
 27 29  1  0
M  END
$$$$
