TYQ.pdb
     RDKit          3D

 29 29  0  0  1  0  0  0  0  0999 V2000
   21.9795  -12.0793  -19.1143 C   0  0  0  0  0  0  0  0  0  0  0  0
   21.3405  -10.8922  -18.4183 C   0  0  1  0  0  0  0  0  0  0  0  0
   20.3598  -10.3064  -19.2072 O   0  0  0  0  0  0  0  0  0  0  0  0
   20.8491  -11.2373  -17.0453 C   0  0  2  0  0  0  0  0  0  0  0  0
   19.7734  -12.2220  -17.2107 N   0  0  0  0  0  0  0  0  0  0  0  0
   20.3588  -10.0709  -16.2786 C   0  0  0  0  0  0  0  0  0  0  0  0
   19.1424   -9.6842  -16.3397 O   0  0  0  0  0  0  0  0  0  0  0  0
   17.9203   -5.6017   -9.5083 O   0  0  0  0  0  0  0  0  0  0  0  0
   18.7002   -6.2734  -10.4340 C   0  0  0  0  0  0  0  0  0  0  0  0
   18.5438   -7.6200  -10.6657 C   0  0  0  0  0  0  0  0  0  0  0  0
   19.3437   -8.2796  -11.6069 C   0  0  0  0  0  0  0  0  0  0  0  0
   20.3037   -7.6029  -12.3229 C   0  0  0  0  0  0  0  0  0  0  0  0
   21.1352   -8.2949  -13.2995 C   0  0  0  0  0  0  0  0  0  0  0  0
   20.6996   -8.1189  -14.7399 C   0  0  2  0  0  0  0  0  0  0  0  0
   21.1946   -9.3152  -15.4364 N   0  0  0  0  0  0  0  0  0  0  0  0
   21.1973   -6.8899  -15.3673 C   0  0  0  0  0  0  0  0  0  0  0  0
   22.4075   -6.8135  -15.7017 O   0  0  0  0  0  0  0  0  0  0  0  0
   20.4494   -6.2578  -12.0814 C   0  0  0  0  0  0  0  0  0  0  0  0
   19.6574   -5.5937  -11.1464 C   0  0  0  0  0  0  0  0  0  0  0  0
   19.9202   -1.0884  -19.5878 N   0  0  0  0  0  0  0  0  0  0  0  0
   19.5445   -2.2614  -18.8904 C   0  0  0  0  0  0  0  0  0  0  0  0
   18.5473   -2.9304  -19.2061 O   0  0  0  0  0  0  0  0  0  0  0  0
   20.4124   -2.6743  -17.7333 C   0  0  0  0  0  0  0  0  0  0  0  0
   19.9004   -3.9428  -17.1118 C   0  0  0  0  0  0  0  0  0  0  0  0
   20.9318   -4.5876  -16.2595 C   0  0  2  0  0  0  0  0  0  0  0  0
   20.3638   -5.7895  -15.6087 N   0  0  0  0  0  0  0  0  0  0  0  0
   21.3930   -3.7016  -15.1768 C   0  0  0  0  0  0  0  0  0  0  0  0
   20.8940   -3.8159  -14.0032 O   0  0  0  0  0  0  0  0  0  0  0  0
   22.3533   -2.7158  -15.2949 O   0  0  0  0  0  0  0  0  0  0  0  0
  2  1  1  6
  2  4  1  0
  2  3  1  0
  4  6  1  0
  4  5  1  6
  6  7  2  0
  9  8  1  0
  9 19  2  0
 10  9  1  0
 11 10  2  0
 11 12  1  0
 12 18  2  0
 13 12  1  0
 14 13  1  1
 14 16  1  0
 15 14  1  0
 15  6  1  0
 16 17  2  0
 18 19  1  0
 20 21  1  0
 21 22  2  0
 23 21  1  0
 23 24  1  0
 25 24  1  1
 25 27  1  0
 26 16  1  0
 26 25  1  0
 27 28  2  0
 27 29  1  0
M  END
$$$$
