WTD.pdb
     RDKit          3D

 30 31  0  0  1  0  0  0  0  0999 V2000
   22.5055  -14.4493  -18.5588 N   0  0  0  0  0  0  0  0  0  0  0  0
   23.1058  -13.4431  -17.6725 C   0  0  1  0  0  0  0  0  0  0  0  0
   24.5192  -13.2137  -18.1974 C   0  0  0  0  0  0  0  0  0  0  0  0
   25.1911  -14.5410  -18.1138 C   0  0  0  0  0  0  0  0  0  0  0  0
   25.4921  -15.4120  -19.1100 C   0  0  0  0  0  0  0  0  0  0  0  0
   26.1027  -16.5143  -18.6091 N   0  0  0  0  0  0  0  0  0  0  0  0
   26.1944  -16.3478  -17.2754 C   0  0  0  0  0  0  0  0  0  0  0  0
   26.7125  -17.1243  -16.2555 C   0  0  0  0  0  0  0  0  0  0  0  0
   26.6786  -16.7106  -14.9513 C   0  0  0  0  0  0  0  0  0  0  0  0
   26.1150  -15.4928  -14.6514 C   0  0  0  0  0  0  0  0  0  0  0  0
   25.5824  -14.6765  -15.6324 C   0  0  0  0  0  0  0  0  0  0  0  0
   25.6372  -15.1315  -16.9339 C   0  0  0  0  0  0  0  0  0  0  0  0
   22.2942  -12.1975  -17.6847 C   0  0  0  0  0  0  0  0  0  0  0  0
   22.0343  -11.7165  -18.8230 O   0  0  0  0  0  0  0  0  0  0  0  0
   18.9139  -11.7019  -17.1335 C   0  0  0  0  0  0  0  0  0  0  0  0
   19.5539  -10.8001  -16.1245 C   0  0  1  0  0  0  0  0  0  0  0  0
   19.4636  -11.2859  -14.8396 O   0  0  0  0  0  0  0  0  0  0  0  0
   20.9622  -10.4287  -16.5343 C   0  0  2  0  0  0  0  0  0  0  0  0
   21.8355  -11.5799  -16.4959 N   0  0  0  0  0  0  0  0  0  0  0  0
   21.5010   -9.3237  -15.7041 C   0  0  0  0  0  0  0  0  0  0  0  0
   22.3506   -9.5806  -14.7881 O   0  0  0  0  0  0  0  0  0  0  0  0
   21.1261   -7.9690  -15.8635 N   0  0  0  0  0  0  0  0  0  0  0  0
   21.7086   -6.8905  -15.0242 C   0  0  1  0  0  0  0  0  0  0  0  0
   21.7129   -5.6085  -15.7766 C   0  0  0  0  0  0  0  0  0  0  0  0
   22.2349   -4.5061  -14.9698 C   0  0  0  0  0  0  0  0  0  0  0  0
   23.2702   -4.6289  -14.2909 O   0  0  0  0  0  0  0  0  0  0  0  0
   20.9179   -6.8139  -13.7739 C   0  0  0  0  0  0  0  0  0  0  0  0
   19.7598   -7.4784  -13.5130 O   0  0  0  0  0  0  0  0  0  0  0  0
   21.6059   -3.2548  -14.9127 O   0  0  0  0  0  0  0  0  0  0  0  0
   21.3458   -6.0579  -12.8416 O   0  0  0  0  0  0  0  0  0  0  0  0
  2  1  1  6
  2  3  1  0
  3  4  1  0
  4  5  2  0
  4 12  1  0
  5  6  1  0
  6  7  1  0
  7  8  2  0
  8  9  1  0
 10  9  2  0
 11 10  1  0
 12 11  2  0
 12  7  1  0
 13  2  1  0
 13 19  1  0
 14 13  2  0
 16 15  1  6
 16 18  1  0
 17 16  1  0
 18 19  1  1
 18 20  1  0
 20 22  1  0
 20 21  2  0
 22 23  1  0
 23 24  1  6
 25 24  1  0
 26 25  2  0
 27 23  1  0
 27 28  1  0
 29 25  1  0
 30 27  2  0
M  END
$$$$
