WTD.pdb
     RDKit          3D

 30 31  0  0  1  0  0  0  0  0999 V2000
   27.2240  -20.9966  -11.8246 N   0  0  0  0  0  0  0  0  0  0  0  0
   25.9444  -21.2264  -11.1403 C   0  0  1  0  0  0  0  0  0  0  0  0
   26.0750  -20.5599   -9.7749 C   0  0  0  0  0  0  0  0  0  0  0  0
   27.4748  -20.8257   -9.3387 C   0  0  0  0  0  0  0  0  0  0  0  0
   28.4311  -21.5763   -9.9418 C   0  0  0  0  0  0  0  0  0  0  0  0
   29.5747  -21.5638   -9.2132 N   0  0  0  0  0  0  0  0  0  0  0  0
   29.3488  -20.7956   -8.1299 C   0  0  0  0  0  0  0  0  0  0  0  0
   30.1299  -20.4217   -7.0521 C   0  0  0  0  0  0  0  0  0  0  0  0
   29.6448  -19.6106   -6.0622 C   0  0  0  0  0  0  0  0  0  0  0  0
   28.3488  -19.1584   -6.1444 C   0  0  0  0  0  0  0  0  0  0  0  0
   27.5244  -19.5015   -7.2002 C   0  0  0  0  0  0  0  0  0  0  0  0
   28.0531  -20.3209   -8.1765 C   0  0  0  0  0  0  0  0  0  0  0  0
   24.8257  -20.6573  -11.9373 C   0  0  0  0  0  0  0  0  0  0  0  0
   24.8812  -19.4160  -12.1626 O   0  0  0  0  0  0  0  0  0  0  0  0
   24.3926  -19.1974  -14.1509 C   0  0  0  0  0  0  0  0  0  0  0  0
   23.4811  -20.3127  -14.5586 C   0  0  1  0  0  0  0  0  0  0  0  0
   24.0970  -21.2360  -15.3732 O   0  0  0  0  0  0  0  0  0  0  0  0
   22.7930  -20.9266  -13.3591 C   0  0  2  0  0  0  0  0  0  0  0  0
   23.7572  -21.4519  -12.4191 N   0  0  0  0  0  0  0  0  0  0  0  0
   21.8183  -21.9701  -13.7612 C   0  0  0  0  0  0  0  0  0  0  0  0
   21.9681  -23.1661  -13.3440 O   0  0  0  0  0  0  0  0  0  0  0  0
   20.7053  -21.7221  -14.5983 N   0  0  0  0  0  0  0  0  0  0  0  0
   19.3460  -22.2187  -14.2629 C   0  0  1  0  0  0  0  0  0  0  0  0
   19.0925  -22.0589  -12.8069 C   0  0  0  0  0  0  0  0  0  0  0  0
   18.6417  -23.3073  -12.1931 C   0  0  0  0  0  0  0  0  0  0  0  0
   17.9320  -23.3118  -11.1712 O   0  0  0  0  0  0  0  0  0  0  0  0
   18.3740  -21.4723  -15.0950 C   0  0  0  0  0  0  0  0  0  0  0  0
   18.3231  -20.1224  -15.2560 O   0  0  0  0  0  0  0  0  0  0  0  0
   18.9788  -24.5641  -12.7141 O   0  0  0  0  0  0  0  0  0  0  0  0
   17.4924  -22.1401  -15.7279 O   0  0  0  0  0  0  0  0  0  0  0  0
  2  1  1  6
  2  3  1  0
  3  4  1  0
  4  5  2  0
  4 12  1  0
  5  6  1  0
  6  7  1  0
  7  8  2  0
  8  9  1  0
 10  9  2  0
 11 10  1  0
 12 11  2  0
 12  7  1  0
 13  2  1  0
 13 19  1  0
 14 13  2  0
 16 15  1  1
 16 18  1  0
 17 16  1  0
 18 19  1  1
 18 20  1  0
 20 22  1  0
 20 21  2  0
 22 23  1  0
 23 24  1  1
 25 24  1  0
 26 25  2  0
 27 23  1  0
 27 28  1  0
 29 25  1  0
 30 27  2  0
M  END
$$$$
