WTD.pdb
     RDKit          3D

 30 31  0  0  1  0  0  0  0  0999 V2000
   24.7411  -19.9024  -13.6633 N   0  0  0  0  0  0  0  0  0  0  0  0
   23.4422  -20.0497  -12.9930 C   0  0  1  0  0  0  0  0  0  0  0  0
   22.5030  -20.6565  -14.0301 C   0  0  0  0  0  0  0  0  0  0  0  0
   22.1948  -19.5494  -14.9785 C   0  0  0  0  0  0  0  0  0  0  0  0
   22.9937  -18.9771  -15.9144 C   0  0  0  0  0  0  0  0  0  0  0  0
   22.3290  -17.9931  -16.5692 N   0  0  0  0  0  0  0  0  0  0  0  0
   21.0886  -17.9341  -16.0468 C   0  0  0  0  0  0  0  0  0  0  0  0
   19.9854  -17.1429  -16.3084 C   0  0  0  0  0  0  0  0  0  0  0  0
   18.8151  -17.2925  -15.6148 C   0  0  0  0  0  0  0  0  0  0  0  0
   18.7379  -18.2537  -14.6345 C   0  0  0  0  0  0  0  0  0  0  0  0
   19.8108  -19.0721  -14.3323 C   0  0  0  0  0  0  0  0  0  0  0  0
   20.9715  -18.8879  -15.0554 C   0  0  0  0  0  0  0  0  0  0  0  0
   23.5797  -20.9112  -11.7891 C   0  0  0  0  0  0  0  0  0  0  0  0
   24.7196  -21.4200  -11.5989 O   0  0  0  0  0  0  0  0  0  0  0  0
   25.0404  -20.9519   -9.6196 C   0  0  0  0  0  0  0  0  0  0  0  0
   23.7807  -21.1066   -8.8256 C   0  0  1  0  0  0  0  0  0  0  0  0
   23.3610  -19.9269   -8.2535 O   0  0  0  0  0  0  0  0  0  0  0  0
   22.7066  -21.8060   -9.6296 C   0  0  2  0  0  0  0  0  0  0  0  0
   22.5020  -21.1528  -10.9027 N   0  0  0  0  0  0  0  0  0  0  0  0
   21.4348  -21.9077   -8.8729 C   0  0  0  0  0  0  0  0  0  0  0  0
   20.6470  -20.9057   -8.8275 O   0  0  0  0  0  0  0  0  0  0  0  0
   21.0262  -23.0712   -8.1797 N   0  0  0  0  0  0  0  0  0  0  0  0
   19.6159  -23.2803   -7.7621 C   0  0  1  0  0  0  0  0  0  0  0  0
   19.1265  -24.5903   -8.2660 C   0  0  0  0  0  0  0  0  0  0  0  0
   17.7496  -24.8533   -7.8494 C   0  0  0  0  0  0  0  0  0  0  0  0
   17.4930  -25.4709   -6.8003 O   0  0  0  0  0  0  0  0  0  0  0  0
   19.5628  -23.1828   -6.2850 C   0  0  0  0  0  0  0  0  0  0  0  0
   20.6270  -23.0378   -5.4500 O   0  0  0  0  0  0  0  0  0  0  0  0
   16.6445  -24.4292   -8.6002 O   0  0  0  0  0  0  0  0  0  0  0  0
   18.4205  -23.2392   -5.7231 O   0  0  0  0  0  0  0  0  0  0  0  0
  2  1  1  6
  2  3  1  0
  3  4  1  0
  4  5  2  0
  4 12  1  0
  5  6  1  0
  6  7  1  0
  7  8  2  0
  8  9  1  0
 10  9  2  0
 11 10  1  0
 12 11  2  0
 12  7  1  0
 13  2  1  0
 13 19  1  0
 14 13  2  0
 16 15  1  6
 16 18  1  0
 17 16  1  0
 18 19  1  6
 18 20  1  0
 20 22  1  0
 20 21  2  0
 22 23  1  0
 23 24  1  1
 25 24  1  0
 26 25  2  0
 27 23  1  0
 27 28  1  0
 29 25  1  0
 30 27  2  0
M  END
$$$$
