WTD.pdb
     RDKit          3D

 30 31  0  0  1  0  0  0  0  0999 V2000
   28.4533  -21.1034  -10.0578 N   0  0  0  0  0  0  0  0  0  0  0  0
   27.0640  -20.9126   -9.6201 C   0  0  1  0  0  0  0  0  0  0  0  0
   27.1258  -19.9460   -8.4422 C   0  0  0  0  0  0  0  0  0  0  0  0
   28.3558  -20.3205   -7.6890 C   0  0  0  0  0  0  0  0  0  0  0  0
   29.4537  -20.9902   -8.1221 C   0  0  0  0  0  0  0  0  0  0  0  0
   30.3523  -21.1306   -7.1162 N   0  0  0  0  0  0  0  0  0  0  0  0
   29.8239  -20.5434   -6.0250 C   0  0  0  0  0  0  0  0  0  0  0  0
   30.2717  -20.3738   -4.7280 C   0  0  0  0  0  0  0  0  0  0  0  0
   29.5191  -19.7215   -3.7892 C   0  0  0  0  0  0  0  0  0  0  0  0
   28.2884  -19.2241   -4.1477 C   0  0  0  0  0  0  0  0  0  0  0  0
   27.7924  -19.3656   -5.4308 C   0  0  0  0  0  0  0  0  0  0  0  0
   28.5832  -20.0296   -6.3461 C   0  0  0  0  0  0  0  0  0  0  0  0
   26.2409  -20.3815  -10.7386 C   0  0  0  0  0  0  0  0  0  0  0  0
   26.7515  -19.4360  -11.4020 O   0  0  0  0  0  0  0  0  0  0  0  0
   26.3125  -19.8251  -13.4070 C   0  0  0  0  0  0  0  0  0  0  0  0
   25.0422  -20.6146  -13.4705 C   0  0  1  0  0  0  0  0  0  0  0  0
   25.2471  -21.9300  -13.8213 O   0  0  0  0  0  0  0  0  0  0  0  0
   24.2255  -20.4443  -12.2083 C   0  0  2  0  0  0  0  0  0  0  0  0
   24.9596  -20.8984  -11.0489 N   0  0  0  0  0  0  0  0  0  0  0  0
   22.9128  -21.1280  -12.3087 C   0  0  0  0  0  0  0  0  0  0  0  0
   22.5029  -21.8498  -11.3402 O   0  0  0  0  0  0  0  0  0  0  0  0
   22.0630  -21.0316  -13.4354 N   0  0  0  0  0  0  0  0  0  0  0  0
   20.6070  -21.3124  -13.3455 C   0  0  1  0  0  0  0  0  0  0  0  0
   19.9745  -20.4001  -12.3570 C   0  0  0  0  0  0  0  0  0  0  0  0
   18.6295  -20.8427  -11.9912 C   0  0  0  0  0  0  0  0  0  0  0  0
   18.1294  -21.8747  -12.4740 O   0  0  0  0  0  0  0  0  0  0  0  0
   20.0337  -21.1656  -14.7035 C   0  0  0  0  0  0  0  0  0  0  0  0
   19.1091  -21.9812  -15.2784 O   0  0  0  0  0  0  0  0  0  0  0  0
   17.8286  -20.1374  -11.0825 O   0  0  0  0  0  0  0  0  0  0  0  0
   20.4325  -20.1888  -15.4181 O   0  0  0  0  0  0  0  0  0  0  0  0
  2  1  1  6
  2  3  1  0
  3  4  1  0
  4  5  2  0
  4 12  1  0
  5  6  1  0
  6  7  1  0
  7  8  2  0
  8  9  1  0
 10  9  2  0
 11 10  1  0
 12 11  2  0
 12  7  1  0
 13  2  1  0
 13 19  1  0
 14 13  2  0
 16 15  1  1
 16 18  1  0
 17 16  1  0
 18 19  1  1
 18 20  1  0
 20 22  1  0
 20 21  2  0
 22 23  1  0
 23 24  1  1
 25 24  1  0
 26 25  2  0
 27 23  1  0
 27 28  1  0
 29 25  1  0
 30 27  2  0
M  END
$$$$
