WTD.pdb
     RDKit          3D

 30 31  0  0  1  0  0  0  0  0999 V2000
   26.1361  -22.6430  -12.9054 N   0  0  0  0  0  0  0  0  0  0  0  0
   25.4307  -21.5999  -12.1486 C   0  0  1  0  0  0  0  0  0  0  0  0
   26.3283  -20.3680  -12.1987 C   0  0  0  0  0  0  0  0  0  0  0  0
   27.4813  -20.6838  -11.3094 C   0  0  0  0  0  0  0  0  0  0  0  0
   28.7496  -21.0320  -11.6437 C   0  0  0  0  0  0  0  0  0  0  0  0
   29.4946  -21.2402  -10.5299 N   0  0  0  0  0  0  0  0  0  0  0  0
   28.6940  -21.0225   -9.4685 C   0  0  0  0  0  0  0  0  0  0  0  0
   28.8937  -21.0804   -8.1017 C   0  0  0  0  0  0  0  0  0  0  0  0
   27.8859  -20.8047   -7.2176 C   0  0  0  0  0  0  0  0  0  0  0  0
   26.6461  -20.4623   -7.7038 C   0  0  0  0  0  0  0  0  0  0  0  0
   26.3918  -20.3893   -9.0610 C   0  0  0  0  0  0  0  0  0  0  0  0
   27.4354  -20.6749   -9.9174 C   0  0  0  0  0  0  0  0  0  0  0  0
   24.0943  -21.3446  -12.7481 C   0  0  0  0  0  0  0  0  0  0  0  0
   23.9444  -21.7147  -13.9461 O   0  0  0  0  0  0  0  0  0  0  0  0
   20.8499  -22.2058  -10.6292 C   0  0  0  0  0  0  0  0  0  0  0  0
   20.7144  -20.8884  -11.3272 C   0  0  1  0  0  0  0  0  0  0  0  0
   20.7699  -19.8176  -10.4637 O   0  0  0  0  0  0  0  0  0  0  0  0
   21.6775  -20.7804  -12.4890 C   0  0  2  0  0  0  0  0  0  0  0  0
   23.0458  -20.7239  -12.0265 N   0  0  0  0  0  0  0  0  0  0  0  0
   21.3607  -19.6201  -13.3573 C   0  0  0  0  0  0  0  0  0  0  0  0
   21.9725  -18.5150  -13.1798 O   0  0  0  0  0  0  0  0  0  0  0  0
   20.4005  -19.6571  -14.3954 N   0  0  0  0  0  0  0  0  0  0  0  0
   20.1060  -18.4665  -15.2336 C   0  0  1  0  0  0  0  0  0  0  0  0
   19.7649  -18.8914  -16.6166 C   0  0  0  0  0  0  0  0  0  0  0  0
   19.3811  -17.7565  -17.4553 C   0  0  0  0  0  0  0  0  0  0  0  0
   20.1830  -16.8439  -17.7233 O   0  0  0  0  0  0  0  0  0  0  0  0
   19.0079  -17.7155  -14.5819 C   0  0  0  0  0  0  0  0  0  0  0  0
   18.2618  -18.1373  -13.5255 O   0  0  0  0  0  0  0  0  0  0  0  0
   18.0974  -17.6290  -18.0035 O   0  0  0  0  0  0  0  0  0  0  0  0
   18.7182  -16.5624  -15.0405 O   0  0  0  0  0  0  0  0  0  0  0  0
  2  1  1  6
  2  3  1  0
  3  4  1  0
  4  5  2  0
  4 12  1  0
  5  6  1  0
  6  7  1  0
  7  8  2  0
  8  9  1  0
 10  9  2  0
 11 10  1  0
 12 11  2  0
 12  7  1  0
 13  2  1  0
 13 19  1  0
 14 13  2  0
 16 15  1  1
 16 18  1  0
 17 16  1  0
 18 19  1  1
 18 20  1  0
 20 22  1  0
 20 21  2  0
 22 23  1  0
 23 24  1  6
 25 24  1  0
 26 25  2  0
 27 23  1  0
 27 28  1  0
 29 25  1  0
 30 27  2  0
M  END
$$$$
