WTD.pdb
     RDKit          3D

 30 31  0  0  1  0  0  0  0  0999 V2000
   28.4012  -22.1279  -10.6905 N   0  0  0  0  0  0  0  0  0  0  0  0
   27.2844  -21.2436  -10.3314 C   0  0  1  0  0  0  0  0  0  0  0  0
   27.9194  -19.9673   -9.7894 C   0  0  0  0  0  0  0  0  0  0  0  0
   28.7237  -20.3969   -8.6109 C   0  0  0  0  0  0  0  0  0  0  0  0
   29.9080  -21.0586   -8.5785 C   0  0  0  0  0  0  0  0  0  0  0  0
   30.3034  -21.2627   -7.2975 N   0  0  0  0  0  0  0  0  0  0  0  0
   29.3611  -20.7249   -6.4990 C   0  0  0  0  0  0  0  0  0  0  0  0
   29.2226  -20.6281   -5.1268 C   0  0  0  0  0  0  0  0  0  0  0  0
   28.1401  -20.0143   -4.5570 C   0  0  0  0  0  0  0  0  0  0  0  0
   27.1685  -19.4822   -5.3717 C   0  0  0  0  0  0  0  0  0  0  0  0
   27.2572  -19.5511   -6.7500 C   0  0  0  0  0  0  0  0  0  0  0  0
   28.3647  -20.1783   -7.2831 C   0  0  0  0  0  0  0  0  0  0  0  0
   26.4313  -20.9838  -11.5210 C   0  0  0  0  0  0  0  0  0  0  0  0
   27.0290  -20.5614  -12.5501 O   0  0  0  0  0  0  0  0  0  0  0  0
   25.1358  -23.1181  -13.7294 C   0  0  0  0  0  0  0  0  0  0  0  0
   23.8995  -22.3820  -13.3160 C   0  0  1  0  0  0  0  0  0  0  0  0
   23.0589  -23.1442  -12.5365 O   0  0  0  0  0  0  0  0  0  0  0  0
   24.2372  -21.0383  -12.7082 C   0  0  2  0  0  0  0  0  0  0  0  0
   25.0310  -21.1943  -11.5103 N   0  0  0  0  0  0  0  0  0  0  0  0
   23.0183  -20.2370  -12.4385 C   0  0  0  0  0  0  0  0  0  0  0  0
   22.7329  -19.9086  -11.2395 O   0  0  0  0  0  0  0  0  0  0  0  0
   22.1274  -19.8017  -13.4475 N   0  0  0  0  0  0  0  0  0  0  0  0
   20.9051  -19.0194  -13.1298 C   0  0  1  0  0  0  0  0  0  0  0  0
   20.7351  -17.9210  -14.1168 C   0  0  0  0  0  0  0  0  0  0  0  0
   19.4503  -17.2408  -13.9575 C   0  0  0  0  0  0  0  0  0  0  0  0
   19.3252  -16.2503  -13.2151 O   0  0  0  0  0  0  0  0  0  0  0  0
   19.7585  -19.9572  -13.1188 C   0  0  0  0  0  0  0  0  0  0  0  0
   18.5949  -19.7964  -12.4326 O   0  0  0  0  0  0  0  0  0  0  0  0
   18.2916  -17.6597  -14.6259 O   0  0  0  0  0  0  0  0  0  0  0  0
   19.8515  -21.0229  -13.8111 O   0  0  0  0  0  0  0  0  0  0  0  0
  2  1  1  6
  2  3  1  0
  3  4  1  0
  4  5  2  0
  4 12  1  0
  5  6  1  0
  6  7  1  0
  7  8  2  0
  8  9  1  0
 10  9  2  0
 11 10  1  0
 12 11  2  0
 12  7  1  0
 13  2  1  0
 13 19  1  0
 14 13  2  0
 16 15  1  1
 16 18  1  0
 17 16  1  0
 18 19  1  1
 18 20  1  0
 20 22  1  0
 20 21  2  0
 22 23  1  0
 23 24  1  6
 25 24  1  0
 26 25  2  0
 27 23  1  0
 27 28  1  0
 29 25  1  0
 30 27  2  0
M  END
$$$$
