WTD.pdb
     RDKit          3D

 30 31  0  0  1  0  0  0  0  0999 V2000
   28.1174  -21.7223  -10.4172 N   0  0  0  0  0  0  0  0  0  0  0  0
   26.9834  -20.8735  -10.0275 C   0  0  1  0  0  0  0  0  0  0  0  0
   27.5929  -19.6174   -9.4139 C   0  0  0  0  0  0  0  0  0  0  0  0
   28.4709  -20.1029   -8.3122 C   0  0  0  0  0  0  0  0  0  0  0  0
   29.6132  -20.8317   -8.3864 C   0  0  0  0  0  0  0  0  0  0  0  0
   30.1066  -21.0696   -7.1459 N   0  0  0  0  0  0  0  0  0  0  0  0
   29.2703  -20.4859   -6.2657 C   0  0  0  0  0  0  0  0  0  0  0  0
   29.2580  -20.3937   -4.8863 C   0  0  0  0  0  0  0  0  0  0  0  0
   28.2667  -19.7240   -4.2213 C   0  0  0  0  0  0  0  0  0  0  0  0
   27.2602  -19.1298   -4.9455 C   0  0  0  0  0  0  0  0  0  0  0  0
   27.2240  -19.1912   -6.3265 C   0  0  0  0  0  0  0  0  0  0  0  0
   28.2425  -19.8760   -6.9571 C   0  0  0  0  0  0  0  0  0  0  0  0
   26.1402  -20.5660  -11.2128 C   0  0  0  0  0  0  0  0  0  0  0  0
   26.7492  -20.1217  -12.2259 O   0  0  0  0  0  0  0  0  0  0  0  0
   25.8208  -21.0784  -13.9538 C   0  0  0  0  0  0  0  0  0  0  0  0
   24.4251  -21.4271  -13.5397 C   0  0  1  0  0  0  0  0  0  0  0  0
   24.2602  -22.7717  -13.2943 O   0  0  0  0  0  0  0  0  0  0  0  0
   23.9501  -20.5419  -12.4083 C   0  0  2  0  0  0  0  0  0  0  0  0
   24.7370  -20.7566  -11.2150 N   0  0  0  0  0  0  0  0  0  0  0  0
   22.5046  -20.7314  -12.1342 C   0  0  0  0  0  0  0  0  0  0  0  0
   22.1394  -21.3591  -11.0856 O   0  0  0  0  0  0  0  0  0  0  0  0
   21.4771  -20.2510  -12.9794 N   0  0  0  0  0  0  0  0  0  0  0  0
   20.0404  -20.4419  -12.6533 C   0  0  1  0  0  0  0  0  0  0  0  0
   19.2009  -19.6064  -13.5516 C   0  0  0  0  0  0  0  0  0  0  0  0
   19.2362  -18.1947  -13.1715 C   0  0  0  0  0  0  0  0  0  0  0  0
   19.7258  -17.8232  -12.0898 O   0  0  0  0  0  0  0  0  0  0  0  0
   19.7379  -21.8871  -12.7730 C   0  0  0  0  0  0  0  0  0  0  0  0
   18.8895  -22.5990  -11.9830 O   0  0  0  0  0  0  0  0  0  0  0  0
   18.7249  -17.1828  -13.9958 O   0  0  0  0  0  0  0  0  0  0  0  0
   20.3185  -22.5445  -13.6974 O   0  0  0  0  0  0  0  0  0  0  0  0
  2  1  1  6
  2  3  1  0
  3  4  1  0
  4  5  2  0
  4 12  1  0
  5  6  1  0
  6  7  1  0
  7  8  2  0
  8  9  1  0
 10  9  2  0
 11 10  1  0
 12 11  2  0
 12  7  1  0
 13  2  1  0
 13 19  1  0
 14 13  2  0
 16 15  1  1
 16 18  1  0
 17 16  1  0
 18 19  1  1
 18 20  1  0
 20 22  1  0
 20 21  2  0
 22 23  1  0
 23 24  1  6
 25 24  1  0
 26 25  2  0
 27 23  1  0
 27 28  1  0
 29 25  1  0
 30 27  2  0
M  END
$$$$
