WTD.pdb
     RDKit          3D

 30 31  0  0  1  0  0  0  0  0999 V2000
   28.2332  -21.9092  -10.3549 N   0  0  0  0  0  0  0  0  0  0  0  0
   27.1212  -21.0078  -10.0244 C   0  0  1  0  0  0  0  0  0  0  0  0
   27.7600  -19.7543   -9.4357 C   0  0  0  0  0  0  0  0  0  0  0  0
   28.5800  -20.2320   -8.2869 C   0  0  0  0  0  0  0  0  0  0  0  0
   29.6985  -21.0005   -8.2949 C   0  0  0  0  0  0  0  0  0  0  0  0
   30.1378  -21.2134   -7.0298 N   0  0  0  0  0  0  0  0  0  0  0  0
   29.2906  -20.5734   -6.2007 C   0  0  0  0  0  0  0  0  0  0  0  0
   29.2312  -20.4352   -4.8263 C   0  0  0  0  0  0  0  0  0  0  0  0
   28.2400  -19.7113   -4.2207 C   0  0  0  0  0  0  0  0  0  0  0  0
   27.2816  -19.1083   -5.0008 C   0  0  0  0  0  0  0  0  0  0  0  0
   27.2937  -19.2142   -6.3795 C   0  0  0  0  0  0  0  0  0  0  0  0
   28.3103  -19.9529   -6.9493 C   0  0  0  0  0  0  0  0  0  0  0  0
   26.3212  -20.7105  -11.2418 C   0  0  0  0  0  0  0  0  0  0  0  0
   26.8909  -20.0051  -12.1207 O   0  0  0  0  0  0  0  0  0  0  0  0
   25.4615  -22.7108  -13.9362 C   0  0  0  0  0  0  0  0  0  0  0  0
   24.1322  -22.2335  -13.4399 C   0  0  1  0  0  0  0  0  0  0  0  0
   23.4201  -23.2158  -12.7895 O   0  0  0  0  0  0  0  0  0  0  0  0
   24.2702  -20.9557  -12.6416 C   0  0  2  0  0  0  0  0  0  0  0  0
   24.9984  -21.1856  -11.4143 N   0  0  0  0  0  0  0  0  0  0  0  0
   22.9508  -20.3345  -12.3695 C   0  0  0  0  0  0  0  0  0  0  0  0
   22.4461  -20.4144  -11.2008 O   0  0  0  0  0  0  0  0  0  0  0  0
   22.1947  -19.6420  -13.3440 N   0  0  0  0  0  0  0  0  0  0  0  0
   20.8751  -19.0372  -13.0283 C   0  0  1  0  0  0  0  0  0  0  0  0
   20.4809  -18.0896  -14.1036 C   0  0  0  0  0  0  0  0  0  0  0  0
   19.1673  -17.4979  -13.8526 C   0  0  0  0  0  0  0  0  0  0  0  0
   18.6377  -17.5408  -12.7276 O   0  0  0  0  0  0  0  0  0  0  0  0
   19.9016  -20.1405  -12.8569 C   0  0  0  0  0  0  0  0  0  0  0  0
   19.7638  -21.2242  -13.6676 O   0  0  0  0  0  0  0  0  0  0  0  0
   18.4313  -16.8521  -14.8555 O   0  0  0  0  0  0  0  0  0  0  0  0
   19.1076  -20.0876  -11.8617 O   0  0  0  0  0  0  0  0  0  0  0  0
  2  1  1  6
  2  3  1  0
  3  4  1  0
  4  5  2  0
  4 12  1  0
  5  6  1  0
  6  7  1  0
  7  8  2  0
  8  9  1  0
 10  9  2  0
 11 10  1  0
 12 11  2  0
 12  7  1  0
 13  2  1  0
 13 19  1  0
 14 13  2  0
 16 15  1  1
 16 18  1  0
 17 16  1  0
 18 19  1  1
 18 20  1  0
 20 22  1  0
 20 21  2  0
 22 23  1  0
 23 24  1  6
 25 24  1  0
 26 25  2  0
 27 23  1  0
 27 28  1  0
 29 25  1  0
 30 27  2  0
M  END
$$$$
