WTD.pdb
     RDKit          3D

 30 31  0  0  1  0  0  0  0  0999 V2000
   23.1499   -7.3314  -16.4327 N   0  0  0  0  0  0  0  0  0  0  0  0
   22.6173   -8.4616  -15.6597 C   0  0  1  0  0  0  0  0  0  0  0  0
   21.7038   -7.8511  -14.6021 C   0  0  0  0  0  0  0  0  0  0  0  0
   22.1138   -6.4219  -14.5043 C   0  0  0  0  0  0  0  0  0  0  0  0
   23.3472   -5.8984  -14.2890 C   0  0  0  0  0  0  0  0  0  0  0  0
   23.2910   -4.5437  -14.2657 N   0  0  0  0  0  0  0  0  0  0  0  0
   22.0057   -4.1946  -14.4688 C   0  0  0  0  0  0  0  0  0  0  0  0
   21.3541   -2.9777  -14.5476 C   0  0  0  0  0  0  0  0  0  0  0  0
   20.0056   -2.8996  -14.7682 C   0  0  0  0  0  0  0  0  0  0  0  0
   19.2843   -4.0611  -14.9144 C   0  0  0  0  0  0  0  0  0  0  0  0
   19.8858   -5.3044  -14.8446 C   0  0  0  0  0  0  0  0  0  0  0  0
   21.2470   -5.3380  -14.6209 C   0  0  0  0  0  0  0  0  0  0  0  0
   21.8899   -9.3995  -16.5551 C   0  0  0  0  0  0  0  0  0  0  0  0
   21.1575   -8.8687  -17.4363 O   0  0  0  0  0  0  0  0  0  0  0  0
   23.1173  -11.8479  -19.0001 C   0  0  0  0  0  0  0  0  0  0  0  0
   22.2469  -12.6144  -18.0536 C   0  0  1  0  0  0  0  0  0  0  0  0
   22.9634  -13.4444  -17.2211 O   0  0  0  0  0  0  0  0  0  0  0  0
   21.2921  -11.6980  -17.3202 C   0  0  2  0  0  0  0  0  0  0  0  0
   22.0051  -10.8057  -16.4344 N   0  0  0  0  0  0  0  0  0  0  0  0
   20.2554  -12.4625  -16.5844 C   0  0  0  0  0  0  0  0  0  0  0  0
   20.1505  -12.3261  -15.3206 O   0  0  0  0  0  0  0  0  0  0  0  0
   19.3520  -13.3562  -17.2058 N   0  0  0  0  0  0  0  0  0  0  0  0
   18.3137  -14.0850  -16.4327 C   0  0  1  0  0  0  0  0  0  0  0  0
   16.9907  -13.4337  -16.6207 C   0  0  0  0  0  0  0  0  0  0  0  0
   15.9303  -14.1388  -15.9017 C   0  0  0  0  0  0  0  0  0  0  0  0
   15.4922  -15.2342  -16.2969 O   0  0  0  0  0  0  0  0  0  0  0  0
   18.3223  -15.4962  -16.8829 C   0  0  0  0  0  0  0  0  0  0  0  0
   18.0967  -16.5896  -16.1054 O   0  0  0  0  0  0  0  0  0  0  0  0
   15.3479  -13.6279  -14.7335 O   0  0  0  0  0  0  0  0  0  0  0  0
   18.5632  -15.7299  -18.1122 O   0  0  0  0  0  0  0  0  0  0  0  0
  2  1  1  6
  2  3  1  0
  3  4  1  0
  4  5  2  0
  4 12  1  0
  5  6  1  0
  6  7  1  0
  7  8  2  0
  8  9  1  0
 10  9  2  0
 11 10  1  0
 12 11  2  0
 12  7  1  0
 13  2  1  0
 13 19  1  0
 14 13  2  0
 16 15  1  1
 16 18  1  0
 17 16  1  0
 18 19  1  1
 18 20  1  0
 20 22  1  0
 20 21  2  0
 22 23  1  0
 23 24  1  6
 25 24  1  0
 26 25  2  0
 27 23  1  0
 27 28  1  0
 29 25  1  0
 30 27  2  0
M  END
$$$$
