WTD.pdb
     RDKit          3D

 30 31  0  0  1  0  0  0  0  0999 V2000
   22.7203  -20.0980  -17.8548 N   0  0  0  0  0  0  0  0  0  0  0  0
   22.8336  -19.5138  -16.5116 C   0  0  1  0  0  0  0  0  0  0  0  0
   21.4048  -19.3595  -16.0011 C   0  0  0  0  0  0  0  0  0  0  0  0
   20.8337  -18.2163  -16.7673 C   0  0  0  0  0  0  0  0  0  0  0  0
   19.8139  -18.2106  -17.6627 C   0  0  0  0  0  0  0  0  0  0  0  0
   19.6077  -16.9582  -18.1401 N   0  0  0  0  0  0  0  0  0  0  0  0
   20.5062  -16.1512  -17.5432 C   0  0  0  0  0  0  0  0  0  0  0  0
   20.7707  -14.7970  -17.6308 C   0  0  0  0  0  0  0  0  0  0  0  0
   21.7660  -14.2119  -16.8958 C   0  0  0  0  0  0  0  0  0  0  0  0
   22.5193  -14.9926  -16.0508 C   0  0  0  0  0  0  0  0  0  0  0  0
   22.2971  -16.3516  -15.9247 C   0  0  0  0  0  0  0  0  0  0  0  0
   21.2841  -16.9011  -16.6837 C   0  0  0  0  0  0  0  0  0  0  0  0
   23.6500  -20.3945  -15.6352 C   0  0  0  0  0  0  0  0  0  0  0  0
   23.5245  -21.6365  -15.8261 O   0  0  0  0  0  0  0  0  0  0  0  0
   27.0752  -20.9861  -15.5978 C   0  0  0  0  0  0  0  0  0  0  0  0
   26.8045  -20.5970  -14.1778 C   0  0  1  0  0  0  0  0  0  0  0  0
   27.3166  -19.3605  -13.8552 O   0  0  0  0  0  0  0  0  0  0  0  0
   25.3394  -20.7545  -13.8344 C   0  0  2  0  0  0  0  0  0  0  0  0
   24.5193  -19.8805  -14.6425 N   0  0  0  0  0  0  0  0  0  0  0  0
   25.0886  -20.5341  -12.3891 C   0  0  0  0  0  0  0  0  0  0  0  0
   24.1520  -19.7486  -12.0250 O   0  0  0  0  0  0  0  0  0  0  0  0
   25.8379  -21.1518  -11.3605 N   0  0  0  0  0  0  0  0  0  0  0  0
   25.6594  -20.7850   -9.9321 C   0  0  1  0  0  0  0  0  0  0  0  0
   26.4180  -21.7269   -9.0678 C   0  0  0  0  0  0  0  0  0  0  0  0
   26.2995  -21.3813   -7.6517 C   0  0  0  0  0  0  0  0  0  0  0  0
   25.3536  -20.6945   -7.2256 O   0  0  0  0  0  0  0  0  0  0  0  0
   26.1007  -19.3806   -9.7676 C   0  0  0  0  0  0  0  0  0  0  0  0
   25.4863  -18.4275   -9.0160 O   0  0  0  0  0  0  0  0  0  0  0  0
   27.2363  -21.7991   -6.6965 O   0  0  0  0  0  0  0  0  0  0  0  0
   27.1539  -19.0093  -10.3814 O   0  0  0  0  0  0  0  0  0  0  0  0
  2  1  1  6
  2  3  1  0
  3  4  1  0
  4  5  2  0
  4 12  1  0
  5  6  1  0
  6  7  1  0
  7  8  2  0
  8  9  1  0
 10  9  2  0
 11 10  1  0
 12 11  2  0
 12  7  1  0
 13  2  1  0
 13 19  1  0
 14 13  2  0
 16 15  1  6
 16 18  1  0
 17 16  1  0
 18 19  1  6
 18 20  1  0
 20 22  1  0
 20 21  2  0
 22 23  1  0
 23 24  1  1
 25 24  1  0
 26 25  2  0
 27 23  1  0
 27 28  1  0
 29 25  1  0
 30 27  2  0
M  END
$$$$
