WTD.pdb
     RDKit          3D

 30 31  0  0  1  0  0  0  0  0999 V2000
   21.4973  -20.4120   10.4362 N   0  0  0  0  0  0  0  0  0  0  0  0
   21.6688  -21.7344    9.8198 C   0  0  1  0  0  0  0  0  0  0  0  0
   22.3267  -21.4829    8.4671 C   0  0  0  0  0  0  0  0  0  0  0  0
   21.2363  -20.9780    7.5861 C   0  0  0  0  0  0  0  0  0  0  0  0
   20.9292  -19.6991    7.2518 C   0  0  0  0  0  0  0  0  0  0  0  0
   19.8550  -19.6688    6.4248 N   0  0  0  0  0  0  0  0  0  0  0  0
   19.4688  -20.9441    6.2263 C   0  0  0  0  0  0  0  0  0  0  0  0
   18.4527  -21.5242    5.4897 C   0  0  0  0  0  0  0  0  0  0  0  0
   18.2753  -22.8809    5.4571 C   0  0  0  0  0  0  0  0  0  0  0  0
   19.1299  -23.6836    6.1754 C   0  0  0  0  0  0  0  0  0  0  0  0
   20.1627  -23.1560    6.9286 C   0  0  0  0  0  0  0  0  0  0  0  0
   20.3061  -21.7836    6.9339 C   0  0  0  0  0  0  0  0  0  0  0  0
   22.4986  -22.6053   10.6935 C   0  0  0  0  0  0  0  0  0  0  0  0
   23.5011  -22.0569   11.2310 O   0  0  0  0  0  0  0  0  0  0  0  0
   23.3842  -23.0223   13.5668 C   0  0  0  0  0  0  0  0  0  0  0  0
   22.6965  -24.3200   13.2764 C   0  0  1  0  0  0  0  0  0  0  0  0
   21.3645  -24.3089   13.6244 O   0  0  0  0  0  0  0  0  0  0  0  0
   22.9473  -24.7685   11.8534 C   0  0  2  0  0  0  0  0  0  0  0  0
   22.1912  -23.9696   10.9156 N   0  0  0  0  0  0  0  0  0  0  0  0
   22.6597  -26.2129   11.6754 C   0  0  0  0  0  0  0  0  0  0  0  0
   21.5024  -26.5813   11.2858 O   0  0  0  0  0  0  0  0  0  0  0  0
   23.6067  -27.2359   11.9155 N   0  0  0  0  0  0  0  0  0  0  0  0
   23.3076  -28.6632   11.6321 C   0  0  1  0  0  0  0  0  0  0  0  0
   24.5557  -29.3784   11.2575 C   0  0  0  0  0  0  0  0  0  0  0  0
   24.4301  -30.0513    9.9652 C   0  0  0  0  0  0  0  0  0  0  0  0
   23.3375  -30.1302    9.3752 O   0  0  0  0  0  0  0  0  0  0  0  0
   22.6620  -29.2373   12.8353 C   0  0  0  0  0  0  0  0  0  0  0  0
   22.9425  -28.9183   14.1278 O   0  0  0  0  0  0  0  0  0  0  0  0
   25.5234  -30.6433    9.3180 O   0  0  0  0  0  0  0  0  0  0  0  0
   21.7553  -30.1163   12.6652 O   0  0  0  0  0  0  0  0  0  0  0  0
  2  1  1  1
  2  3  1  0
  3  4  1  0
  4  5  2  0
  4 12  1  0
  5  6  1  0
  6  7  1  0
  7  8  2  0
  8  9  1  0
 10  9  2  0
 11 10  1  0
 12 11  2  0
 12  7  1  0
 13  2  1  0
 13 19  1  0
 14 13  2  0
 16 15  1  6
 16 18  1  0
 17 16  1  0
 18 19  1  6
 18 20  1  0
 20 22  1  0
 20 21  2  0
 22 23  1  0
 23 24  1  1
 25 24  1  0
 26 25  2  0
 27 23  1  0
 27 28  1  0
 29 25  1  0
 30 27  2  0
M  END
$$$$
