WTD.pdb
     RDKit          3D

 30 31  0  0  1  0  0  0  0  0999 V2000
   27.9719  -21.4134  -10.6040 N   0  0  0  0  0  0  0  0  0  0  0  0
   26.8949  -20.5955  -10.0302 C   0  0  1  0  0  0  0  0  0  0  0  0
   27.5829  -19.4195   -9.3450 C   0  0  0  0  0  0  0  0  0  0  0  0
   28.5288  -20.0304   -8.3690 C   0  0  0  0  0  0  0  0  0  0  0  0
   29.7127  -20.6524   -8.5993 C   0  0  0  0  0  0  0  0  0  0  0  0
   30.2638  -21.0719   -7.4334 N   0  0  0  0  0  0  0  0  0  0  0  0
   29.4228  -20.7141   -6.4436 C   0  0  0  0  0  0  0  0  0  0  0  0
   29.4531  -20.8698   -5.0702 C   0  0  0  0  0  0  0  0  0  0  0  0
   28.4445  -20.4003   -4.2731 C   0  0  0  0  0  0  0  0  0  0  0  0
   27.3766  -19.7589   -4.8553 C   0  0  0  0  0  0  0  0  0  0  0  0
   27.2959  -19.5761   -6.2236 C   0  0  0  0  0  0  0  0  0  0  0  0
   28.3340  -20.0647   -6.9904 C   0  0  0  0  0  0  0  0  0  0  0  0
   25.9604  -20.1531  -11.0986 C   0  0  0  0  0  0  0  0  0  0  0  0
   26.3749  -19.2254  -11.8484 O   0  0  0  0  0  0  0  0  0  0  0  0
   25.7249  -19.9015  -13.9453 C   0  0  0  0  0  0  0  0  0  0  0  0
   24.5077  -20.7395  -13.7062 C   0  0  1  0  0  0  0  0  0  0  0  0
   24.7497  -22.0872  -13.8496 O   0  0  0  0  0  0  0  0  0  0  0  0
   23.8412  -20.3796  -12.3964 C   0  0  2  0  0  0  0  0  0  0  0  0
   24.6795  -20.7315  -11.2727 N   0  0  0  0  0  0  0  0  0  0  0  0
   22.4998  -21.0012  -12.2753 C   0  0  0  0  0  0  0  0  0  0  0  0
   22.3439  -22.0218  -11.5263 O   0  0  0  0  0  0  0  0  0  0  0  0
   21.3521  -20.5266  -12.9524 N   0  0  0  0  0  0  0  0  0  0  0  0
   20.0060  -21.1093  -12.7168 C   0  0  1  0  0  0  0  0  0  0  0  0
   18.9649  -20.2481  -13.3365 C   0  0  0  0  0  0  0  0  0  0  0  0
   18.9662  -18.8999  -12.7699 C   0  0  0  0  0  0  0  0  0  0  0  0
   18.9336  -18.7098  -11.5408 O   0  0  0  0  0  0  0  0  0  0  0  0
   20.0068  -22.4853  -13.2653 C   0  0  0  0  0  0  0  0  0  0  0  0
   19.5237  -23.5972  -12.6480 O   0  0  0  0  0  0  0  0  0  0  0  0
   19.0038  -17.7498  -13.5701 O   0  0  0  0  0  0  0  0  0  0  0  0
   20.5042  -22.6663  -14.4245 O   0  0  0  0  0  0  0  0  0  0  0  0
  2  1  1  6
  2  3  1  0
  3  4  1  0
  4  5  2  0
  4 12  1  0
  5  6  1  0
  6  7  1  0
  7  8  2  0
  8  9  1  0
 10  9  2  0
 11 10  1  0
 12 11  2  0
 12  7  1  0
 13  2  1  0
 13 19  1  0
 14 13  2  0
 16 15  1  1
 16 18  1  0
 17 16  1  0
 18 19  1  1
 18 20  1  0
 20 22  1  0
 20 21  2  0
 22 23  1  0
 23 24  1  6
 25 24  1  0
 26 25  2  0
 27 23  1  0
 27 28  1  0
 29 25  1  0
 30 27  2  0
M  END
$$$$
