WTD.pdb
     RDKit          3D

 30 31  0  0  1  0  0  0  0  0999 V2000
   28.1984  -20.6970   -9.2547 N   0  0  0  0  0  0  0  0  0  0  0  0
   26.8490  -21.2752   -9.3095 C   0  0  1  0  0  0  0  0  0  0  0  0
   26.2747  -21.1302   -7.9042 C   0  0  0  0  0  0  0  0  0  0  0  0
   26.9959  -19.9742   -7.3009 C   0  0  0  0  0  0  0  0  0  0  0  0
   27.0347  -18.6813   -7.7113 C   0  0  0  0  0  0  0  0  0  0  0  0
   27.8142  -17.9430   -6.8829 N   0  0  0  0  0  0  0  0  0  0  0  0
   28.2806  -18.7729   -5.9296 C   0  0  0  0  0  0  0  0  0  0  0  0
   29.1057  -18.5923   -4.8351 C   0  0  0  0  0  0  0  0  0  0  0  0
   29.4313  -19.6296   -4.0038 C   0  0  0  0  0  0  0  0  0  0  0  0
   28.9240  -20.8804   -4.2664 C   0  0  0  0  0  0  0  0  0  0  0  0
   28.0943  -21.1166   -5.3471 C   0  0  0  0  0  0  0  0  0  0  0  0
   27.7913  -20.0433   -6.1596 C   0  0  0  0  0  0  0  0  0  0  0  0
   26.0273  -20.5673  -10.3266 C   0  0  0  0  0  0  0  0  0  0  0  0
   26.3797  -19.3857  -10.5991 O   0  0  0  0  0  0  0  0  0  0  0  0
   26.7033  -19.9433  -12.8785 C   0  0  0  0  0  0  0  0  0  0  0  0
   25.5169  -20.7608  -13.2850 C   0  0  1  0  0  0  0  0  0  0  0  0
   25.8541  -22.0402  -13.6655 O   0  0  0  0  0  0  0  0  0  0  0  0
   24.4275  -20.7078  -12.2364 C   0  0  2  0  0  0  0  0  0  0  0  0
   24.9140  -21.1738  -10.9575 N   0  0  0  0  0  0  0  0  0  0  0  0
   23.2246  -21.4670  -12.6571 C   0  0  0  0  0  0  0  0  0  0  0  0
   23.1887  -22.7315  -12.4938 O   0  0  0  0  0  0  0  0  0  0  0  0
   22.0849  -20.8678  -13.2431 N   0  0  0  0  0  0  0  0  0  0  0  0
   20.8371  -21.6343  -13.4924 C   0  0  1  0  0  0  0  0  0  0  0  0
   19.7858  -21.2203  -12.5264 C   0  0  0  0  0  0  0  0  0  0  0  0
   19.5177  -19.7844  -12.5965 C   0  0  0  0  0  0  0  0  0  0  0  0
   20.1331  -19.0444  -13.3851 O   0  0  0  0  0  0  0  0  0  0  0  0
   20.4387  -21.4037  -14.9004 C   0  0  0  0  0  0  0  0  0  0  0  0
   19.4577  -22.0606  -15.5763 O   0  0  0  0  0  0  0  0  0  0  0  0
   18.5594  -19.1596  -11.7866 O   0  0  0  0  0  0  0  0  0  0  0  0
   21.0632  -20.5095  -15.5593 O   0  0  0  0  0  0  0  0  0  0  0  0
  2  1  1  1
  2  3  1  0
  3  4  1  0
  4  5  2  0
  4 12  1  0
  5  6  1  0
  6  7  1  0
  7  8  2  0
  8  9  1  0
 10  9  2  0
 11 10  1  0
 12 11  2  0
 12  7  1  0
 13  2  1  0
 13 19  1  0
 14 13  2  0
 16 15  1  1
 16 18  1  0
 17 16  1  0
 18 19  1  1
 18 20  1  0
 20 22  1  0
 20 21  2  0
 22 23  1  0
 23 24  1  1
 25 24  1  0
 26 25  2  0
 27 23  1  0
 27 28  1  0
 29 25  1  0
 30 27  2  0
M  END
$$$$
