WTD.pdb
     RDKit          3D

 30 31  0  0  1  0  0  0  0  0999 V2000
   27.8406  -22.1597  -14.0346 N   0  0  0  0  0  0  0  0  0  0  0  0
   26.8451  -21.4331  -13.2349 C   0  0  1  0  0  0  0  0  0  0  0  0
   27.5499  -20.1788  -12.7293 C   0  0  0  0  0  0  0  0  0  0  0  0
   28.3206  -20.6154  -11.5312 C   0  0  0  0  0  0  0  0  0  0  0  0
   29.6232  -20.9849  -11.4395 C   0  0  0  0  0  0  0  0  0  0  0  0
   29.9343  -21.3169  -10.1621 N   0  0  0  0  0  0  0  0  0  0  0  0
   28.8174  -21.1581   -9.4258 C   0  0  0  0  0  0  0  0  0  0  0  0
   28.5305  -21.3399   -8.0855 C   0  0  0  0  0  0  0  0  0  0  0  0
   27.2813  -21.0997   -7.5807 C   0  0  0  0  0  0  0  0  0  0  0  0
   26.2896  -20.6674   -8.4296 C   0  0  0  0  0  0  0  0  0  0  0  0
   26.5221  -20.4692   -9.7783 C   0  0  0  0  0  0  0  0  0  0  0  0
   27.7953  -20.7229  -10.2458 C   0  0  0  0  0  0  0  0  0  0  0  0
   25.6545  -21.1112  -14.0651 C   0  0  0  0  0  0  0  0  0  0  0  0
   25.8727  -20.9098  -15.2925 O   0  0  0  0  0  0  0  0  0  0  0  0
   24.0081  -22.4979  -16.0616 C   0  0  0  0  0  0  0  0  0  0  0  0
   22.8919  -22.1487  -15.1272 C   0  0  1  0  0  0  0  0  0  0  0  0
   22.5235  -23.1997  -14.3178 O   0  0  0  0  0  0  0  0  0  0  0  0
   23.1890  -20.8743  -14.3678 C   0  0  2  0  0  0  0  0  0  0  0  0
   24.3496  -21.0325  -13.5208 N   0  0  0  0  0  0  0  0  0  0  0  0
   22.0157  -20.4176  -13.5834 C   0  0  0  0  0  0  0  0  0  0  0  0
   21.9489  -20.6830  -12.3376 O   0  0  0  0  0  0  0  0  0  0  0  0
   20.9374  -19.6892  -14.1383 N   0  0  0  0  0  0  0  0  0  0  0  0
   19.7482  -19.3127  -13.3316 C   0  0  1  0  0  0  0  0  0  0  0  0
   19.0032  -18.2177  -14.0065 C   0  0  0  0  0  0  0  0  0  0  0  0
   19.0113  -18.3704  -15.4609 C   0  0  0  0  0  0  0  0  0  0  0  0
   19.5814  -19.3290  -16.0122 O   0  0  0  0  0  0  0  0  0  0  0  0
   18.9251  -20.5300  -13.1446 C   0  0  0  0  0  0  0  0  0  0  0  0
   19.0424  -21.6943  -13.8384 O   0  0  0  0  0  0  0  0  0  0  0  0
   18.3827  -17.4539  -16.3150 O   0  0  0  0  0  0  0  0  0  0  0  0
   18.0137  -20.5042  -12.2544 O   0  0  0  0  0  0  0  0  0  0  0  0
  2  1  1  6
  2  3  1  0
  3  4  1  0
  4  5  2  0
  4 12  1  0
  5  6  1  0
  6  7  1  0
  7  8  2  0
  8  9  1  0
 10  9  2  0
 11 10  1  0
 12 11  2  0
 12  7  1  0
 13  2  1  0
 13 19  1  0
 14 13  2  0
 16 15  1  1
 16 18  1  0
 17 16  1  0
 18 19  1  1
 18 20  1  0
 20 22  1  0
 20 21  2  0
 22 23  1  0
 23 24  1  6
 25 24  1  0
 26 25  2  0
 27 23  1  0
 27 28  1  0
 29 25  1  0
 30 27  2  0
M  END
$$$$
