WTD.pdb
     RDKit          3D

 30 31  0  0  1  0  0  0  0  0999 V2000
   27.7838  -22.1851   -9.9129 N   0  0  0  0  0  0  0  0  0  0  0  0
   26.8753  -21.0392   -9.7717 C   0  0  1  0  0  0  0  0  0  0  0  0
   27.7409  -19.8752   -9.3008 C   0  0  0  0  0  0  0  0  0  0  0  0
   28.5867  -20.4302   -8.2069 C   0  0  0  0  0  0  0  0  0  0  0  0
   29.5353  -21.3988   -8.2663 C   0  0  0  0  0  0  0  0  0  0  0  0
   30.0722  -21.6141   -7.0398 N   0  0  0  0  0  0  0  0  0  0  0  0
   29.4604  -20.7728   -6.1837 C   0  0  0  0  0  0  0  0  0  0  0  0
   29.5883  -20.5412   -4.8267 C   0  0  0  0  0  0  0  0  0  0  0  0
   28.8254  -19.6039   -4.1843 C   0  0  0  0  0  0  0  0  0  0  0  0
   27.9106  -18.8767   -4.9089 C   0  0  0  0  0  0  0  0  0  0  0  0
   27.7420  -19.0678   -6.2680 C   0  0  0  0  0  0  0  0  0  0  0  0
   28.5312  -20.0224   -6.8763 C   0  0  0  0  0  0  0  0  0  0  0  0
   26.2055  -20.7514  -11.0675 C   0  0  0  0  0  0  0  0  0  0  0  0
   26.9569  -20.7043  -12.0813 O   0  0  0  0  0  0  0  0  0  0  0  0
   25.9345  -21.5351  -13.7193 C   0  0  0  0  0  0  0  0  0  0  0  0
   24.4734  -21.4689  -13.3999 C   0  0  1  0  0  0  0  0  0  0  0  0
   23.9593  -22.6799  -12.9943 O   0  0  0  0  0  0  0  0  0  0  0  0
   24.1698  -20.3325  -12.4483 C   0  0  2  0  0  0  0  0  0  0  0  0
   24.8088  -20.5412  -11.1686 N   0  0  0  0  0  0  0  0  0  0  0  0
   22.7094  -20.1281  -12.2871 C   0  0  0  0  0  0  0  0  0  0  0  0
   22.1620  -20.3584  -11.1584 O   0  0  0  0  0  0  0  0  0  0  0  0
   21.8606  -19.6841  -13.3280 N   0  0  0  0  0  0  0  0  0  0  0  0
   20.4069  -19.4648  -13.1144 C   0  0  1  0  0  0  0  0  0  0  0  0
   19.8065  -18.8346  -14.3194 C   0  0  0  0  0  0  0  0  0  0  0  0
   19.5909  -17.4002  -14.1327 C   0  0  0  0  0  0  0  0  0  0  0  0
   19.8035  -16.8463  -13.0391 O   0  0  0  0  0  0  0  0  0  0  0  0
   19.7948  -20.7747  -12.7925 C   0  0  0  0  0  0  0  0  0  0  0  0
   20.2326  -21.9920  -13.2134 O   0  0  0  0  0  0  0  0  0  0  0  0
   19.1355  -16.5692  -15.1655 O   0  0  0  0  0  0  0  0  0  0  0  0
   18.7573  -20.7838  -12.0527 O   0  0  0  0  0  0  0  0  0  0  0  0
  2  1  1  6
  2  3  1  0
  3  4  1  0
  4  5  2  0
  4 12  1  0
  5  6  1  0
  6  7  1  0
  7  8  2  0
  8  9  1  0
 10  9  2  0
 11 10  1  0
 12 11  2  0
 12  7  1  0
 13  2  1  0
 13 19  1  0
 14 13  2  0
 16 15  1  1
 16 18  1  0
 17 16  1  0
 18 19  1  1
 18 20  1  0
 20 22  1  0
 20 21  2  0
 22 23  1  0
 23 24  1  6
 25 24  1  0
 26 25  2  0
 27 23  1  0
 27 28  1  0
 29 25  1  0
 30 27  2  0
M  END
$$$$
