MEV.pdb
     RDKit          3D

 25 24  0  0  1  0  0  0  0  0999 V2000
   33.3514  -22.2022   -8.2339 C   0  0  0  0  0  0  0  0  0  0  0  0
   34.0311  -22.1748   -9.9258 S   0  0  0  0  0  0  0  0  0  0  0  0
   32.7680  -22.7431  -11.1158 C   0  0  0  0  0  0  0  0  0  0  0  0
   31.5941  -21.8065  -11.0198 C   0  0  0  0  0  0  0  0  0  0  0  0
   30.4438  -22.1878  -11.9027 C   0  0  2  0  0  0  0  0  0  0  0  0
   30.9427  -22.3745  -13.2444 N   0  0  0  0  0  0  0  0  0  0  0  0
   29.3222  -21.2446  -11.8321 C   0  0  0  0  0  0  0  0  0  0  0  0
   28.9750  -20.7907  -10.7196 O   0  0  0  0  0  0  0  0  0  0  0  0
   28.6304  -20.8442  -13.0095 N   0  0  0  0  0  0  0  0  0  0  0  0
   27.4419  -20.0590  -13.0118 C   0  0  1  0  0  0  0  0  0  0  0  0
   27.1025  -19.6776  -14.4327 C   0  0  0  0  0  0  0  0  0  0  0  0
   28.2878  -19.0194  -15.0725 C   0  0  0  0  0  0  0  0  0  0  0  0
   28.0054  -18.6667  -16.4879 C   0  0  0  0  0  0  0  0  0  0  0  0
   27.4598  -19.5197  -17.2180 O   0  0  0  0  0  0  0  0  0  0  0  0
   26.2748  -20.7385  -12.4224 C   0  0  0  0  0  0  0  0  0  0  0  0
   25.8461  -21.8579  -12.8146 O   0  0  0  0  0  0  0  0  0  0  0  0
   28.3312  -17.4303  -17.0010 O   0  0  0  0  0  0  0  0  0  0  0  0
   24.4152  -18.8021   -9.0847 C   0  0  0  0  0  0  0  0  0  0  0  0
   24.6466  -20.3114   -9.1624 C   0  0  2  0  0  0  0  0  0  0  0  0
   25.9818  -20.6548   -8.5565 C   0  0  0  0  0  0  0  0  0  0  0  0
   24.5286  -20.7627  -10.6071 C   0  0  2  0  0  0  0  0  0  0  0  0
   25.5985  -20.0935  -11.3534 N   0  0  0  0  0  0  0  0  0  0  0  0
   23.1952  -20.2952  -11.0813 C   0  0  0  0  0  0  0  0  0  0  0  0
   23.1341  -19.2769  -12.0194 O   0  0  0  0  0  0  0  0  0  0  0  0
   22.1072  -20.7758  -10.6757 O   0  0  0  0  0  0  0  0  0  0  0  0
  2  1  1  0
  3  2  1  0
  4  3  1  0
  4  5  1  0
  5  6  1  6
  7  5  1  0
  7  9  1  0
  8  7  2  0
 10  9  1  0
 10 11  1  6
 12 11  1  0
 13 12  1  0
 14 13  2  0
 15 10  1  0
 16 15  2  0
 17 13  1  0
 19 18  1  6
 20 19  1  0
 21 22  1  6
 21 19  1  0
 22 15  1  0
 23 21  1  0
 24 23  1  0
 25 23  2  0
M  END
$$$$
