MEV.pdb
     RDKit          3D

 25 24  0  0  1  0  0  0  0  0999 V2000
   26.8143  -16.4879  -16.5945 C   0  0  0  0  0  0  0  0  0  0  0  0
   28.5339  -17.0934  -16.5586 S   0  0  0  0  0  0  0  0  0  0  0  0
   28.5923  -18.8403  -17.0873 C   0  0  0  0  0  0  0  0  0  0  0  0
   27.4434  -19.5563  -16.4302 C   0  0  0  0  0  0  0  0  0  0  0  0
   27.8539  -20.4318  -15.2843 C   0  0  2  0  0  0  0  0  0  0  0  0
   28.6094  -21.5441  -15.8095 N   0  0  0  0  0  0  0  0  0  0  0  0
   26.7275  -20.8483  -14.4414 C   0  0  0  0  0  0  0  0  0  0  0  0
   26.0401  -21.8352  -14.7845 O   0  0  0  0  0  0  0  0  0  0  0  0
   26.4120  -20.1446  -13.2454 N   0  0  0  0  0  0  0  0  0  0  0  0
   25.2256  -20.3507  -12.4844 C   0  0  1  0  0  0  0  0  0  0  0  0
   25.3341  -19.5943  -11.1824 C   0  0  0  0  0  0  0  0  0  0  0  0
   26.0268  -20.4472  -10.1625 C   0  0  0  0  0  0  0  0  0  0  0  0
   25.0651  -21.3466   -9.4742 C   0  0  0  0  0  0  0  0  0  0  0  0
   23.8844  -21.3791   -9.8782 O   0  0  0  0  0  0  0  0  0  0  0  0
   23.9934  -19.9215  -13.1692 C   0  0  0  0  0  0  0  0  0  0  0  0
   23.8184  -18.7607  -13.6303 O   0  0  0  0  0  0  0  0  0  0  0  0
   25.4498  -22.1349   -8.4117 O   0  0  0  0  0  0  0  0  0  0  0  0
   21.3095  -23.0088  -14.2229 C   0  0  0  0  0  0  0  0  0  0  0  0
   21.5051  -21.7259  -15.0312 C   0  0  2  0  0  0  0  0  0  0  0  0
   22.6368  -21.9059  -16.0083 C   0  0  0  0  0  0  0  0  0  0  0  0
   21.7350  -20.5648  -14.0805 C   0  0  2  0  0  0  0  0  0  0  0  0
   22.9480  -20.8711  -13.3162 N   0  0  0  0  0  0  0  0  0  0  0  0
   20.5496  -20.5255  -13.1778 C   0  0  0  0  0  0  0  0  0  0  0  0
   19.3648  -19.9808  -13.6470 O   0  0  0  0  0  0  0  0  0  0  0  0
   20.5601  -20.9631  -11.9999 O   0  0  0  0  0  0  0  0  0  0  0  0
  2  1  1  0
  3  2  1  0
  4  3  1  0
  4  5  1  0
  5  6  1  6
  7  5  1  0
  7  9  1  0
  8  7  2  0
 10  9  1  0
 10 11  1  1
 12 11  1  0
 13 12  1  0
 14 13  2  0
 15 10  1  0
 16 15  2  0
 17 13  1  0
 19 18  1  1
 20 19  1  0
 21 22  1  1
 21 19  1  0
 22 15  1  0
 23 21  1  0
 24 23  1  0
 25 23  2  0
M  END
$$$$
