MEV.pdb
     RDKit          3D

 25 24  0  0  1  0  0  0  0  0999 V2000
   32.0523  -21.8716  -11.3068 C   0  0  0  0  0  0  0  0  0  0  0  0
   31.1250  -21.1727   -9.9008 S   0  0  0  0  0  0  0  0  0  0  0  0
   29.4611  -21.9203   -9.8164 C   0  0  0  0  0  0  0  0  0  0  0  0
   28.5416  -21.0889  -10.6696 C   0  0  0  0  0  0  0  0  0  0  0  0
   27.1264  -21.5835  -10.6911 C   0  0  2  0  0  0  0  0  0  0  0  0
   27.1345  -22.9679  -11.1004 N   0  0  0  0  0  0  0  0  0  0  0  0
   26.2336  -20.7489  -11.5030 C   0  0  0  0  0  0  0  0  0  0  0  0
   26.0161  -19.5679  -11.1534 O   0  0  0  0  0  0  0  0  0  0  0  0
   25.6172  -21.2670  -12.6763 N   0  0  0  0  0  0  0  0  0  0  0  0
   24.5884  -20.6000  -13.4013 C   0  0  1  0  0  0  0  0  0  0  0  0
   24.8614  -20.7283  -14.8807 C   0  0  0  0  0  0  0  0  0  0  0  0
   23.9032  -19.8648  -15.6447 C   0  0  0  0  0  0  0  0  0  0  0  0
   24.1585  -19.9447  -17.1062 C   0  0  0  0  0  0  0  0  0  0  0  0
   24.9832  -20.7842  -17.5229 O   0  0  0  0  0  0  0  0  0  0  0  0
   23.2351  -21.1175  -13.1326 C   0  0  0  0  0  0  0  0  0  0  0  0
   22.9096  -22.3281  -13.2711 O   0  0  0  0  0  0  0  0  0  0  0  0
   23.5087  -19.1189  -17.9973 O   0  0  0  0  0  0  0  0  0  0  0  0
   20.4594  -18.3028  -11.6054 C   0  0  0  0  0  0  0  0  0  0  0  0
   20.4447  -19.7679  -11.1686 C   0  0  2  0  0  0  0  0  0  0  0  0
   21.3014  -19.9436   -9.9426 C   0  0  0  0  0  0  0  0  0  0  0  0
   20.8971  -20.6404  -12.3257 C   0  0  2  0  0  0  0  0  0  0  0  0
   22.2459  -20.1985  -12.6931 N   0  0  0  0  0  0  0  0  0  0  0  0
   19.9441  -20.3786  -13.4413 C   0  0  0  0  0  0  0  0  0  0  0  0
   18.6812  -20.9474  -13.3944 O   0  0  0  0  0  0  0  0  0  0  0  0
   20.2208  -19.6626  -14.4363 O   0  0  0  0  0  0  0  0  0  0  0  0
  2  1  1  0
  3  2  1  0
  4  3  1  0
  4  5  1  0
  5  6  1  6
  7  5  1  0
  7  9  1  0
  8  7  2  0
 10  9  1  0
 10 11  1  6
 12 11  1  0
 13 12  1  0
 14 13  2  0
 15 10  1  0
 16 15  2  0
 17 13  1  0
 19 18  1  6
 20 19  1  0
 21 22  1  6
 21 19  1  0
 22 15  1  0
 23 21  1  0
 24 23  1  0
 25 23  2  0
M  END
$$$$
