MEV.pdb
     RDKit          3D

 25 24  0  0  1  0  0  0  0  0999 V2000
   28.9976  -12.4964  -16.2618 C   0  0  0  0  0  0  0  0  0  0  0  0
   27.8485  -13.4123  -15.1820 S   0  0  0  0  0  0  0  0  0  0  0  0
   26.3078  -13.7897  -16.0867 C   0  0  0  0  0  0  0  0  0  0  0  0
   25.5807  -12.4920  -16.3142 C   0  0  0  0  0  0  0  0  0  0  0  0
   24.3086  -12.6414  -17.0936 C   0  0  2  0  0  0  0  0  0  0  0  0
   24.6293  -13.2018  -18.3847 N   0  0  0  0  0  0  0  0  0  0  0  0
   23.5345  -11.3982  -17.1822 C   0  0  0  0  0  0  0  0  0  0  0  0
   23.8949  -10.5103  -17.9859 O   0  0  0  0  0  0  0  0  0  0  0  0
   22.3853  -11.1947  -16.3680 N   0  0  0  0  0  0  0  0  0  0  0  0
   21.5648  -10.0313  -16.4174 C   0  0  1  0  0  0  0  0  0  0  0  0
   20.1680  -10.3904  -15.9708 C   0  0  0  0  0  0  0  0  0  0  0  0
   19.2799   -9.1880  -16.0844 C   0  0  0  0  0  0  0  0  0  0  0  0
   17.8740   -9.5263  -15.7429 C   0  0  0  0  0  0  0  0  0  0  0  0
   17.6081  -10.6972  -15.4016 O   0  0  0  0  0  0  0  0  0  0  0  0
   22.0494   -8.9213  -15.5782 C   0  0  0  0  0  0  0  0  0  0  0  0
   22.5095   -9.0748  -14.4140 O   0  0  0  0  0  0  0  0  0  0  0  0
   16.8725   -8.5817  -15.7960 O   0  0  0  0  0  0  0  0  0  0  0  0
   23.4933   -4.1905  -15.6950 C   0  0  0  0  0  0  0  0  0  0  0  0
   22.9697   -5.4365  -16.4098 C   0  0  2  0  0  0  0  0  0  0  0  0
   21.8673   -5.0535  -17.3615 C   0  0  0  0  0  0  0  0  0  0  0  0
   22.5209   -6.4551  -15.3774 C   0  0  2  0  0  0  0  0  0  0  0  0
   21.9937   -7.6077  -16.1143 N   0  0  0  0  0  0  0  0  0  0  0  0
   21.4356   -5.8011  -14.5925 C   0  0  0  0  0  0  0  0  0  0  0  0
   21.7764   -4.9512  -13.5523 O   0  0  0  0  0  0  0  0  0  0  0  0
   20.2124   -5.9765  -14.8207 O   0  0  0  0  0  0  0  0  0  0  0  0
  2  1  1  0
  3  2  1  0
  4  3  1  0
  4  5  1  0
  5  6  1  6
  7  5  1  0
  7  9  1  0
  8  7  2  0
 10  9  1  0
 10 11  1  1
 12 11  1  0
 13 12  1  0
 14 13  2  0
 15 10  1  0
 16 15  2  0
 17 13  1  0
 19 18  1  1
 20 19  1  0
 21 22  1  6
 21 19  1  0
 22 15  1  0
 23 21  1  0
 24 23  1  0
 25 23  2  0
M  END
$$$$
