MEV.pdb
     RDKit          3D

 25 24  0  0  1  0  0  0  0  0999 V2000
   31.8299  -23.9270  -15.0140 C   0  0  0  0  0  0  0  0  0  0  0  0
   31.0680  -24.6897  -16.4847 S   0  0  0  0  0  0  0  0  0  0  0  0
   30.8267  -23.4321  -17.7865 C   0  0  0  0  0  0  0  0  0  0  0  0
   29.9589  -22.3431  -17.2160 C   0  0  0  0  0  0  0  0  0  0  0  0
   28.5344  -22.7576  -16.9994 C   0  0  2  0  0  0  0  0  0  0  0  0
   27.9204  -22.9671  -18.2889 N   0  0  0  0  0  0  0  0  0  0  0  0
   27.7835  -21.8271  -16.1491 C   0  0  0  0  0  0  0  0  0  0  0  0
   28.2987  -21.4214  -15.0841 O   0  0  0  0  0  0  0  0  0  0  0  0
   26.4834  -21.3848  -16.5222 N   0  0  0  0  0  0  0  0  0  0  0  0
   25.6416  -20.5861  -15.6960 C   0  0  1  0  0  0  0  0  0  0  0  0
   24.4696  -20.0943  -16.5109 C   0  0  0  0  0  0  0  0  0  0  0  0
   23.6170  -19.1922  -15.6703 C   0  0  0  0  0  0  0  0  0  0  0  0
   22.4682  -18.6620  -16.4492 C   0  0  0  0  0  0  0  0  0  0  0  0
   22.5561  -18.6281  -17.6940 O   0  0  0  0  0  0  0  0  0  0  0  0
   25.1202  -21.2926  -14.5127 C   0  0  0  0  0  0  0  0  0  0  0  0
   24.4623  -22.3669  -14.5738 O   0  0  0  0  0  0  0  0  0  0  0  0
   21.3229  -18.2133  -15.8288 O   0  0  0  0  0  0  0  0  0  0  0  0
   25.1510  -21.4512   -9.5568 C   0  0  0  0  0  0  0  0  0  0  0  0
   25.6583  -20.8217  -10.8545 C   0  0  2  0  0  0  0  0  0  0  0  0
   25.6600  -19.3212  -10.7272 C   0  0  0  0  0  0  0  0  0  0  0  0
   24.8066  -21.3075  -12.0134 C   0  0  2  0  0  0  0  0  0  0  0  0
   25.3754  -20.7291  -13.2347 N   0  0  0  0  0  0  0  0  0  0  0  0
   23.4363  -20.7716  -11.7757 C   0  0  0  0  0  0  0  0  0  0  0  0
   22.5683  -21.4818  -10.9616 O   0  0  0  0  0  0  0  0  0  0  0  0
   23.0146  -19.6988  -12.2762 O   0  0  0  0  0  0  0  0  0  0  0  0
  2  1  1  0
  3  2  1  0
  4  3  1  0
  4  5  1  0
  5  6  1  6
  7  5  1  0
  7  9  1  0
  8  7  2  0
 10  9  1  0
 10 11  1  6
 12 11  1  0
 13 12  1  0
 14 13  2  0
 15 10  1  0
 16 15  2  0
 17 13  1  0
 19 18  1  1
 20 19  1  0
 21 22  1  6
 21 19  1  0
 22 15  1  0
 23 21  1  0
 24 23  1  0
 25 23  2  0
M  END
$$$$
