MEV.pdb
     RDKit          3D

 25 24  0  0  1  0  0  0  0  0999 V2000
   13.5949  -10.7219  -18.9265 C   0  0  0  0  0  0  0  0  0  0  0  0
   14.2496  -12.4213  -19.0190 S   0  0  0  0  0  0  0  0  0  0  0  0
   16.0120  -12.4387  -18.5413 C   0  0  0  0  0  0  0  0  0  0  0  0
   16.1498  -11.6449  -17.2702 C   0  0  0  0  0  0  0  0  0  0  0  0
   17.5644  -11.5138  -16.7908 C   0  0  2  0  0  0  0  0  0  0  0  0
   17.9359  -12.7414  -16.1285 N   0  0  0  0  0  0  0  0  0  0  0  0
   17.7871  -10.3232  -15.9628 C   0  0  0  0  0  0  0  0  0  0  0  0
   17.2552  -10.2569  -14.8328 O   0  0  0  0  0  0  0  0  0  0  0  0
   18.5970   -9.2505  -16.4302 N   0  0  0  0  0  0  0  0  0  0  0  0
   18.7578   -8.0115  -15.7459 C   0  0  1  0  0  0  0  0  0  0  0  0
   20.2273   -7.7686  -15.4990 C   0  0  0  0  0  0  0  0  0  0  0  0
   20.4069   -6.4649  -14.7809 C   0  0  0  0  0  0  0  0  0  0  0  0
   21.8243   -6.2629  -14.3841 C   0  0  0  0  0  0  0  0  0  0  0  0
   22.1637   -5.1516  -13.9277 O   0  0  0  0  0  0  0  0  0  0  0  0
   18.2112   -6.8517  -16.4721 C   0  0  0  0  0  0  0  0  0  0  0  0
   18.5504   -6.5390  -17.6459 O   0  0  0  0  0  0  0  0  0  0  0  0
   22.7579   -7.2683  -14.5097 O   0  0  0  0  0  0  0  0  0  0  0  0
   14.8552   -5.0300  -14.7609 C   0  0  0  0  0  0  0  0  0  0  0  0
   15.1660   -4.9418  -16.2553 C   0  0  2  0  0  0  0  0  0  0  0  0
   14.5526   -6.1143  -16.9742 C   0  0  0  0  0  0  0  0  0  0  0  0
   16.6693   -4.8600  -16.4505 C   0  0  2  0  0  0  0  0  0  0  0  0
   17.2493   -6.0443  -15.8097 N   0  0  0  0  0  0  0  0  0  0  0  0
   17.1129   -3.6218  -15.7493 C   0  0  0  0  0  0  0  0  0  0  0  0
   16.9107   -2.3941  -16.3599 O   0  0  0  0  0  0  0  0  0  0  0  0
   17.6670   -3.6240  -14.6215 O   0  0  0  0  0  0  0  0  0  0  0  0
  2  1  1  0
  3  2  1  0
  4  3  1  0
  4  5  1  0
  5  6  1  1
  7  5  1  0
  7  9  1  0
  8  7  2  0
 10  9  1  0
 10 11  1  6
 12 11  1  0
 13 12  1  0
 14 13  2  0
 15 10  1  0
 16 15  2  0
 17 13  1  0
 19 18  1  1
 20 19  1  0
 21 22  1  1
 21 19  1  0
 22 15  1  0
 23 21  1  0
 24 23  1  0
 25 23  2  0
M  END
$$$$
