MEV.pdb
     RDKit          3D

 25 24  0  0  1  0  0  0  0  0999 V2000
   18.6738  -15.1877  -15.0079 C   0  0  0  0  0  0  0  0  0  0  0  0
   16.8526  -15.2269  -15.0902 S   0  0  0  0  0  0  0  0  0  0  0  0
   16.2094  -13.5656  -15.4915 C   0  0  0  0  0  0  0  0  0  0  0  0
   16.7325  -12.6091  -14.4541 C   0  0  0  0  0  0  0  0  0  0  0  0
   16.3298  -11.1842  -14.6892 C   0  0  2  0  0  0  0  0  0  0  0  0
   16.8030  -10.7870  -15.9939 N   0  0  0  0  0  0  0  0  0  0  0  0
   16.7610  -10.2767  -13.6200 C   0  0  0  0  0  0  0  0  0  0  0  0
   16.3477  -10.4656  -12.4548 O   0  0  0  0  0  0  0  0  0  0  0  0
   17.6390   -9.1909  -13.8945 N   0  0  0  0  0  0  0  0  0  0  0  0
   18.0941   -8.2620  -12.9152 C   0  0  1  0  0  0  0  0  0  0  0  0
   19.2477   -7.4697  -13.4818 C   0  0  0  0  0  0  0  0  0  0  0  0
   19.8355   -6.6022  -12.4097 C   0  0  0  0  0  0  0  0  0  0  0  0
   20.9766   -5.8059  -12.9307 C   0  0  0  0  0  0  0  0  0  0  0  0
   21.3276   -5.9716  -14.1171 O   0  0  0  0  0  0  0  0  0  0  0  0
   17.0596   -7.3158  -12.4617 C   0  0  0  0  0  0  0  0  0  0  0  0
   16.3148   -6.6662  -13.2454 O   0  0  0  0  0  0  0  0  0  0  0  0
   21.6447   -4.8997  -12.1366 O   0  0  0  0  0  0  0  0  0  0  0  0
   14.2263   -5.8388   -8.7584 C   0  0  0  0  0  0  0  0  0  0  0  0
   15.2615   -6.8032   -9.3380 C   0  0  2  0  0  0  0  0  0  0  0  0
   16.2360   -7.2111   -8.2648 C   0  0  0  0  0  0  0  0  0  0  0  0
   15.9435   -6.1509  -10.5272 C   0  0  2  0  0  0  0  0  0  0  0  0
   16.8954   -7.1283  -11.0638 N   0  0  0  0  0  0  0  0  0  0  0  0
   16.6669   -4.9629   -9.9916 C   0  0  0  0  0  0  0  0  0  0  0  0
   15.9723   -3.7771   -9.8123 O   0  0  0  0  0  0  0  0  0  0  0  0
   17.8864   -4.9720   -9.6884 O   0  0  0  0  0  0  0  0  0  0  0  0
  2  1  1  0
  3  2  1  0
  4  3  1  0
  4  5  1  0
  5  6  1  6
  7  5  1  0
  7  9  1  0
  8  7  2  0
 10  9  1  0
 10 11  1  6
 12 11  1  0
 13 12  1  0
 14 13  2  0
 15 10  1  0
 16 15  2  0
 17 13  1  0
 19 18  1  1
 20 19  1  0
 21 22  1  1
 21 19  1  0
 22 15  1  0
 23 21  1  0
 24 23  1  0
 25 23  2  0
M  END
$$$$
