MEV.pdb
     RDKit          3D

 25 24  0  0  1  0  0  0  0  0999 V2000
   28.3272  -18.3852   -6.3566 C   0  0  0  0  0  0  0  0  0  0  0  0
   26.6669  -18.7941   -6.9900 S   0  0  0  0  0  0  0  0  0  0  0  0
   26.7284  -20.3487   -7.9461 C   0  0  0  0  0  0  0  0  0  0  0  0
   26.4930  -20.0065   -9.3924 C   0  0  0  0  0  0  0  0  0  0  0  0
   26.5719  -21.1875  -10.3127 C   0  0  2  0  0  0  0  0  0  0  0  0
   27.9512  -21.6044  -10.4007 N   0  0  0  0  0  0  0  0  0  0  0  0
   25.9604  -20.9419  -11.6236 C   0  0  0  0  0  0  0  0  0  0  0  0
   26.5796  -20.2577  -12.4678 O   0  0  0  0  0  0  0  0  0  0  0  0
   24.6783  -21.4713  -11.9414 N   0  0  0  0  0  0  0  0  0  0  0  0
   24.0226  -21.2849  -13.1922 C   0  0  1  0  0  0  0  0  0  0  0  0
   23.7754  -22.6318  -13.8279 C   0  0  0  0  0  0  0  0  0  0  0  0
   25.0820  -23.2387  -14.2424 C   0  0  0  0  0  0  0  0  0  0  0  0
   25.3833  -22.9404  -15.6664 C   0  0  0  0  0  0  0  0  0  0  0  0
   25.9128  -21.8455  -15.9476 O   0  0  0  0  0  0  0  0  0  0  0  0
   22.7351  -20.5752  -13.0928 C   0  0  0  0  0  0  0  0  0  0  0  0
   22.0169  -20.5723  -12.0560 O   0  0  0  0  0  0  0  0  0  0  0  0
   25.0919  -23.8402  -16.6682 O   0  0  0  0  0  0  0  0  0  0  0  0
   21.1458  -19.0350  -16.7006 C   0  0  0  0  0  0  0  0  0  0  0  0
   21.0173  -18.2037  -15.4239 C   0  0  2  0  0  0  0  0  0  0  0  0
   22.1274  -17.1879  -15.3625 C   0  0  0  0  0  0  0  0  0  0  0  0
   21.0079  -19.1302  -14.2214 C   0  0  2  0  0  0  0  0  0  0  0  0
   22.2819  -19.8557  -14.2299 N   0  0  0  0  0  0  0  0  0  0  0  0
   19.8731  -20.0733  -14.4319 C   0  0  0  0  0  0  0  0  0  0  0  0
   20.1185  -21.2970  -15.0343 O   0  0  0  0  0  0  0  0  0  0  0  0
   18.6899  -19.8218  -14.0911 O   0  0  0  0  0  0  0  0  0  0  0  0
  2  1  1  0
  3  2  1  0
  4  3  1  0
  4  5  1  0
  5  6  1  6
  7  5  1  0
  7  9  1  0
  8  7  2  0
 10  9  1  0
 10 11  1  1
 12 11  1  0
 13 12  1  0
 14 13  2  0
 15 10  1  0
 16 15  2  0
 17 13  1  0
 19 18  1  6
 20 19  1  0
 21 22  1  6
 21 19  1  0
 22 15  1  0
 23 21  1  0
 24 23  1  0
 25 23  2  0
M  END
$$$$
