MEV.pdb
     RDKit          3D

 25 24  0  0  1  0  0  0  0  0999 V2000
   30.0414  -16.3059  -17.6481 C   0  0  0  0  0  0  0  0  0  0  0  0
   29.7460  -17.5356  -18.9618 S   0  0  0  0  0  0  0  0  0  0  0  0
   29.0764  -19.0731  -18.2391 C   0  0  0  0  0  0  0  0  0  0  0  0
   28.0492  -18.6859  -17.2098 C   0  0  0  0  0  0  0  0  0  0  0  0
   26.6401  -18.9980  -17.6160 C   0  0  2  0  0  0  0  0  0  0  0  0
   26.2744  -18.1195  -18.7015 N   0  0  0  0  0  0  0  0  0  0  0  0
   25.6920  -18.9554  -16.4970 C   0  0  0  0  0  0  0  0  0  0  0  0
   25.4333  -17.8574  -15.9572 O   0  0  0  0  0  0  0  0  0  0  0  0
   25.0684  -20.1437  -16.0236 N   0  0  0  0  0  0  0  0  0  0  0  0
   24.2027  -20.1980  -14.8936 C   0  0  1  0  0  0  0  0  0  0  0  0
   22.8344  -20.6551  -15.3389 C   0  0  0  0  0  0  0  0  0  0  0  0
   21.8898  -20.6192  -14.1753 C   0  0  0  0  0  0  0  0  0  0  0  0
   20.5326  -21.0744  -14.5730 C   0  0  0  0  0  0  0  0  0  0  0  0
   19.5842  -20.8841  -13.7839 O   0  0  0  0  0  0  0  0  0  0  0  0
   24.6686  -21.1001  -13.8258 C   0  0  0  0  0  0  0  0  0  0  0  0
   24.8260  -22.3420  -13.9794 O   0  0  0  0  0  0  0  0  0  0  0  0
   20.3063  -21.6948  -15.7822 O   0  0  0  0  0  0  0  0  0  0  0  0
   26.1515  -19.3510  -10.2182 C   0  0  0  0  0  0  0  0  0  0  0  0
   26.5458  -20.7216  -10.7689 C   0  0  2  0  0  0  0  0  0  0  0  0
   27.6984  -20.5744  -11.7268 C   0  0  0  0  0  0  0  0  0  0  0  0
   25.3333  -21.3712  -11.4113 C   0  0  2  0  0  0  0  0  0  0  0  0
   24.9555  -20.5353  -12.5550 N   0  0  0  0  0  0  0  0  0  0  0  0
   24.2576  -21.3553  -10.3798 C   0  0  0  0  0  0  0  0  0  0  0  0
   23.1924  -20.4820  -10.5324 O   0  0  0  0  0  0  0  0  0  0  0  0
   24.2583  -22.0970   -9.3654 O   0  0  0  0  0  0  0  0  0  0  0  0
  2  1  1  0
  3  2  1  0
  4  3  1  0
  4  5  1  0
  5  6  1  6
  7  5  1  0
  7  9  1  0
  8  7  2  0
 10  9  1  0
 10 11  1  6
 12 11  1  0
 13 12  1  0
 14 13  2  0
 15 10  1  0
 16 15  2  0
 17 13  1  0
 19 18  1  6
 20 19  1  0
 21 22  1  6
 21 19  1  0
 22 15  1  0
 23 21  1  0
 24 23  1  0
 25 23  2  0
M  END
$$$$
