DLI.pdb
     RDKit          3D

 25 24  0  0  1  0  0  0  0  0999 V2000
   10.7146  -18.4261   19.6397 N   0  0  0  0  0  0  0  0  0  0  0  0
   11.8085  -17.6229   20.1661 C   0  0  1  0  0  0  0  0  0  0  0  0
   12.6231  -17.0081   19.0643 C   0  0  0  0  0  0  0  0  0  0  0  0
   13.4820  -18.0025   18.3886 C   0  0  0  0  0  0  0  0  0  0  0  0
   13.4481  -19.2501   18.6417 O   0  0  0  0  0  0  0  0  0  0  0  0
   11.3354  -16.5827   21.0867 C   0  0  0  0  0  0  0  0  0  0  0  0
   12.1159  -15.7310   21.5184 O   0  0  0  0  0  0  0  0  0  0  0  0
   14.4118  -17.6237   17.4007 O   0  0  0  0  0  0  0  0  0  0  0  0
    8.2066  -13.1670   20.7157 C   0  0  0  0  0  0  0  0  0  0  0  0
    7.5829  -14.4877   20.9682 C   0  0  2  0  0  0  0  0  0  0  0  0
    6.0705  -14.3149   20.7918 C   0  0  0  0  0  0  0  0  0  0  0  0
    7.9523  -15.2218   22.1979 C   0  0  0  0  0  0  0  0  0  0  0  0
    9.4149  -15.5371   22.3872 C   0  0  2  0  0  0  0  0  0  0  0  0
    9.9634  -16.5137   21.5192 N   0  0  0  0  0  0  0  0  0  0  0  0
    9.6676  -15.9334   23.7935 C   0  0  0  0  0  0  0  0  0  0  0  0
   10.0823  -17.1165   24.0476 O   0  0  0  0  0  0  0  0  0  0  0  0
   10.3384  -13.7610   29.6415 C   0  0  0  0  0  0  0  0  0  0  0  0
   10.3867  -14.8395   28.6141 C   0  0  0  0  0  0  0  0  0  0  0  0
    9.9356  -14.4154   27.2463 C   0  0  2  0  0  0  0  0  0  0  0  0
    8.4871  -13.9377   27.4277 C   0  0  0  0  0  0  0  0  0  0  0  0
    9.9304  -15.4720   26.2042 C   0  0  2  0  0  0  0  0  0  0  0  0
    9.4756  -15.0690   24.8972 N   0  0  0  0  0  0  0  0  0  0  0  0
    9.0133  -16.5741   26.6917 C   0  0  0  0  0  0  0  0  0  0  0  0
    9.4555  -17.4480   27.6553 O   0  0  0  0  0  0  0  0  0  0  0  0
    7.8636  -16.6644   26.2015 O   0  0  0  0  0  0  0  0  0  0  0  0
  2  1  1  6
  3  2  1  0
  3  4  1  0
  4  8  1  0
  4  5  2  0
  6  7  2  0
  6  2  1  0
 10  9  1  1
 10 12  1  0
 11 10  1  0
 13 12  1  1
 13 14  1  0
 14  6  1  0
 15 16  2  0
 15 13  1  0
 18 17  1  0
 19 21  1  0
 19 18  1  0
 19 20  1  1
 21 22  1  6
 22 15  1  0
 23 21  1  0
 24 23  1  0
 25 23  2  0
M  END
$$$$
