DLI.pdb
     RDKit          3D

 25 24  0  0  1  0  0  0  0  0999 V2000
    6.9987  -15.6119   21.2474 N   0  0  0  0  0  0  0  0  0  0  0  0
    8.3739  -16.0338   21.4701 C   0  0  1  0  0  0  0  0  0  0  0  0
    9.2676  -15.6286   20.3331 C   0  0  0  0  0  0  0  0  0  0  0  0
    8.9807  -16.3942   19.1023 C   0  0  0  0  0  0  0  0  0  0  0  0
    7.9750  -17.1641   18.9702 O   0  0  0  0  0  0  0  0  0  0  0  0
    8.9077  -15.5262   22.7392 C   0  0  0  0  0  0  0  0  0  0  0  0
   10.1011  -15.2313   22.8396 O   0  0  0  0  0  0  0  0  0  0  0  0
    9.8203  -16.3177   17.9739 O   0  0  0  0  0  0  0  0  0  0  0  0
    8.0354  -11.8226   25.6414 C   0  0  0  0  0  0  0  0  0  0  0  0
    7.0301  -12.9113   25.6726 C   0  0  2  0  0  0  0  0  0  0  0  0
    5.8384  -12.4033   26.4913 C   0  0  0  0  0  0  0  0  0  0  0  0
    7.4702  -14.2708   26.0546 C   0  0  0  0  0  0  0  0  0  0  0  0
    8.5125  -14.9185   25.1779 C   0  0  2  0  0  0  0  0  0  0  0  0
    8.0759  -15.3548   23.9023 N   0  0  0  0  0  0  0  0  0  0  0  0
    9.1408  -16.0536   25.8959 C   0  0  0  0  0  0  0  0  0  0  0  0
    8.4590  -17.1138   26.1131 O   0  0  0  0  0  0  0  0  0  0  0  0
   14.3948  -17.4311   25.1327 C   0  0  0  0  0  0  0  0  0  0  0  0
   12.9160  -17.3970   25.3148 C   0  0  0  0  0  0  0  0  0  0  0  0
   12.4641  -17.4745   26.7445 C   0  0  2  0  0  0  0  0  0  0  0  0
   12.7597  -18.9161   27.1848 C   0  0  0  0  0  0  0  0  0  0  0  0
   11.0225  -17.2198   26.9879 C   0  0  2  0  0  0  0  0  0  0  0  0
   10.4751  -16.0400   26.3667 N   0  0  0  0  0  0  0  0  0  0  0  0
   10.8413  -17.0788   28.4847 C   0  0  0  0  0  0  0  0  0  0  0  0
   11.0063  -18.1765   29.2945 O   0  0  0  0  0  0  0  0  0  0  0  0
   10.5429  -15.9559   28.9540 O   0  0  0  0  0  0  0  0  0  0  0  0
  2  1  1  6
  3  2  1  0
  3  4  1  0
  4  8  1  0
  4  5  2  0
  6  7  2  0
  6  2  1  0
 10  9  1  1
 10 12  1  0
 11 10  1  0
 13 12  1  1
 13 14  1  0
 14  6  1  0
 15 16  2  0
 15 13  1  0
 18 17  1  0
 19 21  1  0
 19 18  1  0
 19 20  1  6
 21 22  1  6
 22 15  1  0
 23 21  1  0
 24 23  1  0
 25 23  2  0
M  END
$$$$
