DLI.pdb
     RDKit          3D

 25 24  0  0  1  0  0  0  0  0999 V2000
    9.3386  -19.0438   21.3084 N   0  0  0  0  0  0  0  0  0  0  0  0
   10.6559  -18.4271   21.2505 C   0  0  1  0  0  0  0  0  0  0  0  0
   11.3363  -18.6987   19.9395 C   0  0  0  0  0  0  0  0  0  0  0  0
   11.2955  -20.1313   19.5798 C   0  0  0  0  0  0  0  0  0  0  0  0
   11.2766  -21.0724   20.4375 O   0  0  0  0  0  0  0  0  0  0  0  0
   10.5999  -16.9825   21.5020 C   0  0  0  0  0  0  0  0  0  0  0  0
   11.6118  -16.2887   21.3765 O   0  0  0  0  0  0  0  0  0  0  0  0
   11.2743  -20.5538   18.2363 O   0  0  0  0  0  0  0  0  0  0  0  0
    8.4233  -13.0923   19.8187 C   0  0  0  0  0  0  0  0  0  0  0  0
    7.5631  -14.0338   20.5741 C   0  0  2  0  0  0  0  0  0  0  0  0
    6.1132  -13.5774   20.3795 C   0  0  0  0  0  0  0  0  0  0  0  0
    7.9034  -14.3293   21.9828 C   0  0  0  0  0  0  0  0  0  0  0  0
    9.2518  -14.9545   22.2389 C   0  0  2  0  0  0  0  0  0  0  0  0
    9.3824  -16.3244   21.9005 N   0  0  0  0  0  0  0  0  0  0  0  0
    9.6362  -14.7611   23.6579 C   0  0  0  0  0  0  0  0  0  0  0  0
   10.6767  -14.0720   23.9382 O   0  0  0  0  0  0  0  0  0  0  0  0
    6.6821  -12.2004   26.8061 C   0  0  0  0  0  0  0  0  0  0  0  0
    7.8351  -12.8744   26.1447 C   0  0  0  0  0  0  0  0  0  0  0  0
    8.3131  -14.1151   26.8422 C   0  0  2  0  0  0  0  0  0  0  0  0
    9.0151  -13.6188   28.1151 C   0  0  0  0  0  0  0  0  0  0  0  0
    9.2841  -14.9514   26.0937 C   0  0  2  0  0  0  0  0  0  0  0  0
    8.9107  -15.3011   24.7462 N   0  0  0  0  0  0  0  0  0  0  0  0
    9.4571  -16.2385   26.8727 C   0  0  0  0  0  0  0  0  0  0  0  0
    9.0798  -17.4313   26.3046 O   0  0  0  0  0  0  0  0  0  0  0  0
    9.9442  -16.1858   28.0260 O   0  0  0  0  0  0  0  0  0  0  0  0
  2  1  1  6
  3  2  1  0
  3  4  1  0
  4  8  1  0
  4  5  2  0
  6  7  2  0
  6  2  1  0
 10  9  1  1
 10 12  1  0
 11 10  1  0
 13 12  1  1
 13 14  1  0
 14  6  1  0
 15 16  2  0
 15 13  1  0
 18 17  1  0
 19 21  1  0
 19 18  1  0
 19 20  1  1
 21 22  1  6
 22 15  1  0
 23 21  1  0
 24 23  1  0
 25 23  2  0
M  END
$$$$
