DLI.pdb
     RDKit          3D

 25 24  0  0  1  0  0  0  0  0999 V2000
    8.0492  -18.5980   20.9511 N   0  0  0  0  0  0  0  0  0  0  0  0
    9.4843  -18.3704   21.0383 C   0  0  1  0  0  0  0  0  0  0  0  0
   10.1787  -18.7205   19.7536 C   0  0  0  0  0  0  0  0  0  0  0  0
    9.9520  -20.1283   19.3664 C   0  0  0  0  0  0  0  0  0  0  0  0
    9.1455  -20.9045   19.9738 O   0  0  0  0  0  0  0  0  0  0  0  0
    9.8011  -16.9908   21.4254 C   0  0  0  0  0  0  0  0  0  0  0  0
   10.9708  -16.6514   21.6197 O   0  0  0  0  0  0  0  0  0  0  0  0
   10.6285  -20.7116   18.2774 O   0  0  0  0  0  0  0  0  0  0  0  0
    8.7782  -13.1793   19.0525 C   0  0  0  0  0  0  0  0  0  0  0  0
    7.7091  -13.6510   19.9644 C   0  0  2  0  0  0  0  0  0  0  0  0
    6.4232  -12.9153   19.5724 C   0  0  0  0  0  0  0  0  0  0  0  0
    7.9683  -13.6487   21.4206 C   0  0  0  0  0  0  0  0  0  0  0  0
    8.9924  -14.6319   21.9296 C   0  0  2  0  0  0  0  0  0  0  0  0
    8.7776  -15.9917   21.5933 N   0  0  0  0  0  0  0  0  0  0  0  0
    9.1250  -14.5057   23.4010 C   0  0  0  0  0  0  0  0  0  0  0  0
    9.6075  -13.4303   23.8979 O   0  0  0  0  0  0  0  0  0  0  0  0
    5.9895  -12.5415   26.0193 C   0  0  0  0  0  0  0  0  0  0  0  0
    7.2674  -13.1773   25.5905 C   0  0  0  0  0  0  0  0  0  0  0  0
    7.5473  -14.5049   26.2336 C   0  0  2  0  0  0  0  0  0  0  0  0
    7.7984  -14.1916   27.7161 C   0  0  0  0  0  0  0  0  0  0  0  0
    8.7325  -15.2391   25.7251 C   0  0  2  0  0  0  0  0  0  0  0  0
    8.7441  -15.5197   24.3114 N   0  0  0  0  0  0  0  0  0  0  0  0
    8.7848  -16.5631   26.4582 C   0  0  0  0  0  0  0  0  0  0  0  0
    9.1427  -16.5906   27.7845 O   0  0  0  0  0  0  0  0  0  0  0  0
    8.4982  -17.6111   25.8339 O   0  0  0  0  0  0  0  0  0  0  0  0
  2  1  1  6
  3  2  1  0
  3  4  1  0
  4  8  1  0
  4  5  2  0
  6  7  2  0
  6  2  1  0
 10  9  1  6
 10 12  1  0
 11 10  1  0
 13 12  1  1
 13 14  1  0
 14  6  1  0
 15 16  2  0
 15 13  1  0
 18 17  1  0
 19 21  1  0
 19 18  1  0
 19 20  1  1
 21 22  1  6
 22 15  1  0
 23 21  1  0
 24 23  1  0
 25 23  2  0
M  END
$$$$
