DLI.pdb
     RDKit          3D

 25 24  0  0  1  0  0  0  0  0999 V2000
    8.1799  -18.7246   20.9856 N   0  0  0  0  0  0  0  0  0  0  0  0
    9.6057  -18.4397   20.9147 C   0  0  1  0  0  0  0  0  0  0  0  0
   10.1693  -18.7717   19.5628 C   0  0  0  0  0  0  0  0  0  0  0  0
    9.9987  -20.2004   19.2265 C   0  0  0  0  0  0  0  0  0  0  0  0
    9.3631  -21.0253   19.9595 O   0  0  0  0  0  0  0  0  0  0  0  0
    9.9073  -17.0458   21.2604 C   0  0  0  0  0  0  0  0  0  0  0  0
   11.0761  -16.6556   21.3114 O   0  0  0  0  0  0  0  0  0  0  0  0
   10.5403  -20.7502   18.0483 O   0  0  0  0  0  0  0  0  0  0  0  0
    8.5492  -13.2101   19.1029 C   0  0  0  0  0  0  0  0  0  0  0  0
    7.5674  -13.7325   20.0828 C   0  0  2  0  0  0  0  0  0  0  0  0
    6.2442  -13.0016   19.8309 C   0  0  0  0  0  0  0  0  0  0  0  0
    7.9500  -13.7825   21.5106 C   0  0  0  0  0  0  0  0  0  0  0  0
    9.0658  -14.7267   21.8821 C   0  0  2  0  0  0  0  0  0  0  0  0
    8.8695  -16.0906   21.5513 N   0  0  0  0  0  0  0  0  0  0  0  0
    9.3634  -14.6110   23.3300 C   0  0  0  0  0  0  0  0  0  0  0  0
   10.4055  -13.9726   23.7078 O   0  0  0  0  0  0  0  0  0  0  0  0
    6.2948  -12.1755   26.3084 C   0  0  0  0  0  0  0  0  0  0  0  0
    7.5950  -12.7553   25.8676 C   0  0  0  0  0  0  0  0  0  0  0  0
    7.9229  -14.0850   26.4830 C   0  0  2  0  0  0  0  0  0  0  0  0
    8.5695  -13.7560   27.8368 C   0  0  0  0  0  0  0  0  0  0  0  0
    8.8756  -14.9362   25.7279 C   0  0  2  0  0  0  0  0  0  0  0  0
    8.5517  -15.1733   24.3436 N   0  0  0  0  0  0  0  0  0  0  0  0
    8.9236  -16.2790   26.4264 C   0  0  0  0  0  0  0  0  0  0  0  0
    8.5767  -17.4154   25.7365 O   0  0  0  0  0  0  0  0  0  0  0  0
    9.2815  -16.3232   27.6265 O   0  0  0  0  0  0  0  0  0  0  0  0
  2  1  1  6
  3  2  1  0
  3  4  1  0
  4  8  1  0
  4  5  2  0
  6  7  2  0
  6  2  1  0
 10  9  1  6
 10 12  1  0
 11 10  1  0
 13 12  1  1
 13 14  1  0
 14  6  1  0
 15 16  2  0
 15 13  1  0
 18 17  1  0
 19 21  1  0
 19 18  1  0
 19 20  1  1
 21 22  1  6
 22 15  1  0
 23 21  1  0
 24 23  1  0
 25 23  2  0
M  END
$$$$
