DLI.pdb
     RDKit          3D

 25 24  0  0  1  0  0  0  0  0999 V2000
    8.8456  -16.4920   19.8312 N   0  0  0  0  0  0  0  0  0  0  0  0
    9.8717  -16.9289   20.7667 C   0  0  1  0  0  0  0  0  0  0  0  0
   11.2313  -16.9437   20.1288 C   0  0  0  0  0  0  0  0  0  0  0  0
   11.3353  -17.9676   19.0686 C   0  0  0  0  0  0  0  0  0  0  0  0
   10.6567  -19.0452   19.0614 O   0  0  0  0  0  0  0  0  0  0  0  0
    9.8926  -16.1098   21.9841 C   0  0  0  0  0  0  0  0  0  0  0  0
   10.8691  -15.4019   22.2418 O   0  0  0  0  0  0  0  0  0  0  0  0
   12.2105  -17.8115   17.9762 O   0  0  0  0  0  0  0  0  0  0  0  0
    5.9116  -13.6764   26.2435 C   0  0  0  0  0  0  0  0  0  0  0  0
    7.2308  -13.8903   25.6025 C   0  0  2  0  0  0  0  0  0  0  0  0
    7.8124  -12.5070   25.2915 C   0  0  0  0  0  0  0  0  0  0  0  0
    7.3224  -14.8360   24.4689 C   0  0  0  0  0  0  0  0  0  0  0  0
    8.7038  -15.3025   24.0835 C   0  0  2  0  0  0  0  0  0  0  0  0
    8.7936  -16.0987   22.9147 N   0  0  0  0  0  0  0  0  0  0  0  0
    9.3270  -16.0253   25.2184 C   0  0  0  0  0  0  0  0  0  0  0  0
    9.2453  -17.3007   25.2712 O   0  0  0  0  0  0  0  0  0  0  0  0
   10.5543  -14.0265   30.4648 C   0  0  0  0  0  0  0  0  0  0  0  0
   10.0707  -14.7490   29.2543 C   0  0  0  0  0  0  0  0  0  0  0  0
   11.1469  -15.4539   28.4802 C   0  0  2  0  0  0  0  0  0  0  0  0
   12.1188  -14.3489   28.0401 C   0  0  0  0  0  0  0  0  0  0  0  0
   10.7071  -16.1743   27.2595 C   0  0  2  0  0  0  0  0  0  0  0  0
   10.0215  -15.3817   26.2699 N   0  0  0  0  0  0  0  0  0  0  0  0
    9.7637  -17.2717   27.7054 C   0  0  0  0  0  0  0  0  0  0  0  0
   10.2579  -18.3529   28.3944 O   0  0  0  0  0  0  0  0  0  0  0  0
    8.5448  -17.1679   27.4337 O   0  0  0  0  0  0  0  0  0  0  0  0
  2  1  1  6
  3  2  1  0
  3  4  1  0
  4  8  1  0
  4  5  2  0
  6  7  2  0
  6  2  1  0
 10  9  1  6
 10 12  1  0
 11 10  1  0
 13 12  1  1
 13 14  1  0
 14  6  1  0
 15 16  2  0
 15 13  1  0
 18 17  1  0
 19 21  1  0
 19 18  1  0
 19 20  1  6
 21 22  1  6
 22 15  1  0
 23 21  1  0
 24 23  1  0
 25 23  2  0
M  END
$$$$
