DLI.pdb
     RDKit          3D

 25 24  0  0  1  0  0  0  0  0999 V2000
    8.2431  -18.0407   21.1719 N   0  0  0  0  0  0  0  0  0  0  0  0
    9.6046  -17.6387   21.4940 C   0  0  1  0  0  0  0  0  0  0  0  0
   10.4309  -17.4425   20.2554 C   0  0  0  0  0  0  0  0  0  0  0  0
   10.4066  -18.6315   19.3785 C   0  0  0  0  0  0  0  0  0  0  0  0
   11.1537  -18.7679   18.3563 O   0  0  0  0  0  0  0  0  0  0  0  0
    9.6405  -16.4288   22.3235 C   0  0  0  0  0  0  0  0  0  0  0  0
   10.6709  -15.7551   22.3981 O   0  0  0  0  0  0  0  0  0  0  0  0
    9.5365  -19.7114   19.6245 O   0  0  0  0  0  0  0  0  0  0  0  0
    5.8020  -13.0894   26.1740 C   0  0  0  0  0  0  0  0  0  0  0  0
    7.0465  -13.3344   25.4072 C   0  0  2  0  0  0  0  0  0  0  0  0
    7.4266  -12.0143   24.7278 C   0  0  0  0  0  0  0  0  0  0  0  0
    7.1010  -14.5008   24.4994 C   0  0  0  0  0  0  0  0  0  0  0  0
    8.4546  -14.8659   23.9433 C   0  0  2  0  0  0  0  0  0  0  0  0
    8.4945  -15.9843   23.0740 N   0  0  0  0  0  0  0  0  0  0  0  0
    9.4166  -15.0722   25.0525 C   0  0  0  0  0  0  0  0  0  0  0  0
   10.2980  -14.1771   25.2938 O   0  0  0  0  0  0  0  0  0  0  0  0
   10.2123  -13.0103   28.9284 C   0  0  0  0  0  0  0  0  0  0  0  0
   10.4447  -13.9282   27.7774 C   0  0  0  0  0  0  0  0  0  0  0  0
   10.2015  -15.3785   28.0805 C   0  0  2  0  0  0  0  0  0  0  0  0
   11.2320  -15.7450   29.1589 C   0  0  0  0  0  0  0  0  0  0  0  0
   10.3847  -16.3211   26.9489 C   0  0  2  0  0  0  0  0  0  0  0  0
    9.4233  -16.2202   25.8798 N   0  0  0  0  0  0  0  0  0  0  0  0
   10.2966  -17.7220   27.5172 C   0  0  0  0  0  0  0  0  0  0  0  0
   11.3204  -18.2035   28.2969 O   0  0  0  0  0  0  0  0  0  0  0  0
    9.2845  -18.4152   27.2614 O   0  0  0  0  0  0  0  0  0  0  0  0
  2  1  1  6
  3  2  1  0
  3  4  1  0
  4  8  1  0
  4  5  2  0
  6  7  2  0
  6  2  1  0
 10  9  1  6
 10 12  1  0
 11 10  1  0
 13 12  1  1
 13 14  1  0
 14  6  1  0
 15 16  2  0
 15 13  1  0
 18 17  1  0
 19 21  1  0
 19 18  1  0
 19 20  1  1
 21 22  1  6
 22 15  1  0
 23 21  1  0
 24 23  1  0
 25 23  2  0
M  END
$$$$
