DLI.pdb
     RDKit          3D

 25 24  0  0  1  0  0  0  0  0999 V2000
    9.2513  -18.5917   20.9169 N   0  0  0  0  0  0  0  0  0  0  0  0
   10.5766  -18.0039   21.0471 C   0  0  1  0  0  0  0  0  0  0  0  0
   11.4067  -18.2339   19.8168 C   0  0  0  0  0  0  0  0  0  0  0  0
   11.7163  -19.6647   19.6163 C   0  0  0  0  0  0  0  0  0  0  0  0
   11.2994  -20.5899   20.3855 O   0  0  0  0  0  0  0  0  0  0  0  0
   10.5162  -16.5707   21.3562 C   0  0  0  0  0  0  0  0  0  0  0  0
   11.5494  -15.9405   21.5934 O   0  0  0  0  0  0  0  0  0  0  0  0
   12.5091  -20.1034   18.5378 O   0  0  0  0  0  0  0  0  0  0  0  0
    8.5591  -12.9158   19.1187 C   0  0  0  0  0  0  0  0  0  0  0  0
    7.6075  -13.7173   19.9243 C   0  0  2  0  0  0  0  0  0  0  0  0
    6.1959  -13.2481   19.5558 C   0  0  0  0  0  0  0  0  0  0  0  0
    7.8301  -13.8256   21.3825 C   0  0  0  0  0  0  0  0  0  0  0  0
    9.0974  -14.5120   21.8269 C   0  0  2  0  0  0  0  0  0  0  0  0
    9.2693  -15.8512   21.3966 N   0  0  0  0  0  0  0  0  0  0  0  0
    9.2117  -14.4529   23.3041 C   0  0  0  0  0  0  0  0  0  0  0  0
    9.9965  -13.5963   23.8393 O   0  0  0  0  0  0  0  0  0  0  0  0
    5.8480  -12.2878   25.9793 C   0  0  0  0  0  0  0  0  0  0  0  0
    7.1229  -12.9307   25.5522 C   0  0  0  0  0  0  0  0  0  0  0  0
    7.3615  -14.2903   26.1429 C   0  0  2  0  0  0  0  0  0  0  0  0
    7.6336  -14.0416   27.6340 C   0  0  0  0  0  0  0  0  0  0  0  0
    8.5173  -15.0448   25.5977 C   0  0  2  0  0  0  0  0  0  0  0  0
    8.4930  -15.3011   24.1795 N   0  0  0  0  0  0  0  0  0  0  0  0
    8.5509  -16.3823   26.3071 C   0  0  0  0  0  0  0  0  0  0  0  0
    8.8490  -16.4321   27.6475 O   0  0  0  0  0  0  0  0  0  0  0  0
    8.3043  -17.4208   25.6506 O   0  0  0  0  0  0  0  0  0  0  0  0
  2  1  1  6
  3  2  1  0
  3  4  1  0
  4  8  1  0
  4  5  2  0
  6  7  2  0
  6  2  1  0
 10  9  1  1
 10 12  1  0
 11 10  1  0
 13 12  1  1
 13 14  1  0
 14  6  1  0
 15 16  2  0
 15 13  1  0
 18 17  1  0
 19 21  1  0
 19 18  1  0
 19 20  1  1
 21 22  1  6
 22 15  1  0
 23 21  1  0
 24 23  1  0
 25 23  2  0
M  END
$$$$
