DLI.pdb
     RDKit          3D

 25 24  0  0  1  0  0  0  0  0999 V2000
    8.2767  -19.0846   22.3230 N   0  0  0  0  0  0  0  0  0  0  0  0
    9.4947  -18.7050   21.6222 C   0  0  1  0  0  0  0  0  0  0  0  0
    9.4485  -19.1070   20.1758 C   0  0  0  0  0  0  0  0  0  0  0  0
   10.7377  -18.8713   19.4934 C   0  0  0  0  0  0  0  0  0  0  0  0
   11.8668  -19.1786   19.9956 O   0  0  0  0  0  0  0  0  0  0  0  0
    9.7738  -17.2691   21.7398 C   0  0  0  0  0  0  0  0  0  0  0  0
   10.9368  -16.8639   21.8052 O   0  0  0  0  0  0  0  0  0  0  0  0
   10.7986  -18.2793   18.2167 O   0  0  0  0  0  0  0  0  0  0  0  0
    6.8658  -12.2995   19.8567 C   0  0  0  0  0  0  0  0  0  0  0  0
    7.9360  -13.2341   20.2789 C   0  0  2  0  0  0  0  0  0  0  0  0
    8.2930  -14.0929   19.0608 C   0  0  0  0  0  0  0  0  0  0  0  0
    7.7423  -14.0199   21.5169 C   0  0  0  0  0  0  0  0  0  0  0  0
    8.8921  -14.8923   21.9544 C   0  0  2  0  0  0  0  0  0  0  0  0
    8.7199  -16.2886   21.7845 N   0  0  0  0  0  0  0  0  0  0  0  0
    9.2304  -14.6085   23.3699 C   0  0  0  0  0  0  0  0  0  0  0  0
   10.0361  -13.6534   23.6435 O   0  0  0  0  0  0  0  0  0  0  0  0
    6.3397  -12.1367   26.3522 C   0  0  0  0  0  0  0  0  0  0  0  0
    7.4888  -12.8536   25.7303 C   0  0  0  0  0  0  0  0  0  0  0  0
    7.9107  -14.0986   26.4557 C   0  0  2  0  0  0  0  0  0  0  0  0
    8.4535  -13.6145   27.8086 C   0  0  0  0  0  0  0  0  0  0  0  0
    8.9773  -14.9015   25.8078 C   0  0  2  0  0  0  0  0  0  0  0  0
    8.7084  -15.3415   24.4619 N   0  0  0  0  0  0  0  0  0  0  0  0
    9.1884  -16.1340   26.6620 C   0  0  0  0  0  0  0  0  0  0  0  0
    8.9488  -17.3778   26.1295 O   0  0  0  0  0  0  0  0  0  0  0  0
    9.5799  -15.9903   27.8437 O   0  0  0  0  0  0  0  0  0  0  0  0
  2  1  1  6
  3  2  1  0
  3  4  1  0
  4  8  1  0
  4  5  2  0
  6  7  2  0
  6  2  1  0
 10  9  1  6
 10 12  1  0
 11 10  1  0
 13 12  1  1
 13 14  1  0
 14  6  1  0
 15 16  2  0
 15 13  1  0
 18 17  1  0
 19 21  1  0
 19 18  1  0
 19 20  1  1
 21 22  1  6
 22 15  1  0
 23 21  1  0
 24 23  1  0
 25 23  2  0
M  END
$$$$
