DLI.pdb
     RDKit          3D

 25 24  0  0  1  0  0  0  0  0999 V2000
    9.1928  -17.0178   20.1203 N   0  0  0  0  0  0  0  0  0  0  0  0
    9.5450  -17.4747   21.4568 C   0  0  1  0  0  0  0  0  0  0  0  0
   10.8204  -18.2677   21.4517 C   0  0  0  0  0  0  0  0  0  0  0  0
   10.7046  -19.4990   20.6433 C   0  0  0  0  0  0  0  0  0  0  0  0
   10.4750  -19.5000   19.3907 O   0  0  0  0  0  0  0  0  0  0  0  0
    9.6432  -16.3642   22.4110 C   0  0  0  0  0  0  0  0  0  0  0  0
   10.7286  -15.8176   22.6211 O   0  0  0  0  0  0  0  0  0  0  0  0
   10.8444  -20.7761   21.2208 O   0  0  0  0  0  0  0  0  0  0  0  0
    5.8888  -13.0314   26.3568 C   0  0  0  0  0  0  0  0  0  0  0  0
    7.1415  -13.3151   25.6170 C   0  0  2  0  0  0  0  0  0  0  0  0
    7.6166  -11.9917   25.0077 C   0  0  0  0  0  0  0  0  0  0  0  0
    7.1592  -14.4435   24.6609 C   0  0  0  0  0  0  0  0  0  0  0  0
    8.4935  -14.7986   24.0541 C   0  0  2  0  0  0  0  0  0  0  0  0
    8.4966  -15.8743   23.1316 N   0  0  0  0  0  0  0  0  0  0  0  0
    9.4795  -15.0702   25.1277 C   0  0  0  0  0  0  0  0  0  0  0  0
   10.4455  -14.2529   25.3144 O   0  0  0  0  0  0  0  0  0  0  0  0
   10.3988  -13.0217   29.0167 C   0  0  0  0  0  0  0  0  0  0  0  0
   10.5714  -13.9522   27.8654 C   0  0  0  0  0  0  0  0  0  0  0  0
   10.2469  -15.3859   28.1712 C   0  0  2  0  0  0  0  0  0  0  0  0
   11.2517  -15.8061   29.2543 C   0  0  0  0  0  0  0  0  0  0  0  0
   10.3812  -16.3402   27.0427 C   0  0  2  0  0  0  0  0  0  0  0  0
    9.4200  -16.1998   25.9779 N   0  0  0  0  0  0  0  0  0  0  0  0
   10.2322  -17.7334   27.6172 C   0  0  0  0  0  0  0  0  0  0  0  0
   11.2121  -18.2372   28.4382 O   0  0  0  0  0  0  0  0  0  0  0  0
    9.2111  -18.3999   27.3286 O   0  0  0  0  0  0  0  0  0  0  0  0
  2  1  1  6
  3  2  1  0
  3  4  1  0
  4  8  1  0
  4  5  2  0
  6  7  2  0
  6  2  1  0
 10  9  1  6
 10 12  1  0
 11 10  1  0
 13 12  1  1
 13 14  1  0
 14  6  1  0
 15 16  2  0
 15 13  1  0
 18 17  1  0
 19 21  1  0
 19 18  1  0
 19 20  1  1
 21 22  1  6
 22 15  1  0
 23 21  1  0
 24 23  1  0
 25 23  2  0
M  END
$$$$
