LVA.pdb
     RDKit          3D

 21 20  0  0  1  0  0  0  0  0999 V2000
   25.2040  -15.8432  -14.4590 C   0  0  0  0  0  0  0  0  0  0  0  0
   25.7291  -15.6994  -15.8718 C   0  0  2  0  0  0  0  0  0  0  0  0
   27.2192  -15.7683  -15.9581 C   0  0  0  0  0  0  0  0  0  0  0  0
   25.1913  -14.3625  -16.4008 C   0  0  0  0  0  0  0  0  0  0  0  0
   23.7045  -14.5578  -16.5905 C   0  0  2  0  0  0  0  0  0  0  0  0
   23.5244  -15.7316  -17.4136 N   0  0  0  0  0  0  0  0  0  0  0  0
   23.0537  -13.3791  -17.1919 C   0  0  0  0  0  0  0  0  0  0  0  0
   23.2940  -13.0940  -18.3922 O   0  0  0  0  0  0  0  0  0  0  0  0
   19.8027  -12.8753  -18.1241 C   0  0  0  0  0  0  0  0  0  0  0  0
   20.0000  -11.8015  -17.0841 C   0  0  1  0  0  0  0  0  0  0  0  0
   19.4411  -12.1980  -15.7457 C   0  0  0  0  0  0  0  0  0  0  0  0
   21.4734  -11.4226  -16.9873 C   0  0  2  0  0  0  0  0  0  0  0  0
   22.1667  -12.5755  -16.4264 N   0  0  0  0  0  0  0  0  0  0  0  0
   21.6748  -10.2875  -16.0658 C   0  0  0  0  0  0  0  0  0  0  0  0
   21.7406  -10.4453  -14.8001 O   0  0  0  0  0  0  0  0  0  0  0  0
   22.2770   -6.5990  -16.4040 C   0  0  0  0  0  0  0  0  0  0  0  0
   21.9076   -7.8177  -15.5810 C   0  0  2  0  0  0  0  0  0  0  0  0
   21.8098   -8.9402  -16.5152 N   0  0  0  0  0  0  0  0  0  0  0  0
   20.6339   -7.6400  -14.8579 C   0  0  0  0  0  0  0  0  0  0  0  0
   20.6660   -7.0592  -13.6035 O   0  0  0  0  0  0  0  0  0  0  0  0
   19.5644   -8.0062  -15.3713 O   0  0  0  0  0  0  0  0  0  0  0  0
  2  1  1  1
  3  2  1  0
  4  5  1  0
  4  2  1  0
  5  7  1  0
  5  6  1  6
  7 13  1  0
  7  8  2  0
 10  9  1  6
 11 10  1  0
 12 10  1  0
 12 14  1  0
 12 13  1  1
 14 15  2  0
 17 16  1  6
 17 19  1  0
 18 17  1  0
 18 14  1  0
 19 21  2  0
 19 20  1  0
M  END
$$$$
