LVA.pdb
     RDKit          3D

 21 20  0  0  1  0  0  0  0  0999 V2000
   26.8507  -19.7461   -6.7569 C   0  0  0  0  0  0  0  0  0  0  0  0
   27.3386  -20.5826   -7.9208 C   0  0  2  0  0  0  0  0  0  0  0  0
   28.8280  -20.6334   -8.0285 C   0  0  0  0  0  0  0  0  0  0  0  0
   26.6985  -19.9864   -9.1823 C   0  0  0  0  0  0  0  0  0  0  0  0
   26.7337  -21.0811  -10.2239 C   0  0  2  0  0  0  0  0  0  0  0  0
   28.1190  -21.4358  -10.4315 N   0  0  0  0  0  0  0  0  0  0  0  0
   26.0911  -20.6767  -11.4881 C   0  0  0  0  0  0  0  0  0  0  0  0
   26.6243  -19.7764  -12.1843 O   0  0  0  0  0  0  0  0  0  0  0  0
   23.6132  -22.1030  -15.3339 C   0  0  0  0  0  0  0  0  0  0  0  0
   24.3635  -22.2708  -14.0369 C   0  0  1  0  0  0  0  0  0  0  0  0
   25.7933  -22.6809  -14.2571 C   0  0  0  0  0  0  0  0  0  0  0  0
   24.2665  -20.9996  -13.2009 C   0  0  2  0  0  0  0  0  0  0  0  0
   24.8855  -21.2954  -11.9149 N   0  0  0  0  0  0  0  0  0  0  0  0
   22.8598  -20.6323  -12.9466 C   0  0  0  0  0  0  0  0  0  0  0  0
   22.1002  -21.3357  -12.1988 O   0  0  0  0  0  0  0  0  0  0  0  0
   20.5918  -17.8012  -13.9247 C   0  0  0  0  0  0  0  0  0  0  0  0
   20.8378  -19.1541  -13.2857 C   0  0  2  0  0  0  0  0  0  0  0  0
   22.2480  -19.4741  -13.5120 N   0  0  0  0  0  0  0  0  0  0  0  0
   19.9753  -20.2072  -13.8548 C   0  0  0  0  0  0  0  0  0  0  0  0
   20.4278  -20.8993  -14.9630 O   0  0  0  0  0  0  0  0  0  0  0  0
   18.8719  -20.4587  -13.3443 O   0  0  0  0  0  0  0  0  0  0  0  0
  2  1  1  1
  3  2  1  0
  4  5  1  0
  4  2  1  0
  5  7  1  0
  5  6  1  6
  7 13  1  0
  7  8  2  0
 10  9  1  6
 11 10  1  0
 12 10  1  0
 12 14  1  0
 12 13  1  1
 14 15  2  0
 17 16  1  6
 17 19  1  0
 18 17  1  0
 18 14  1  0
 19 21  2  0
 19 20  1  0
M  END
$$$$
