LVA.pdb
     RDKit          3D

 21 20  0  0  1  0  0  0  0  0999 V2000
   28.6074  -17.6895  -15.5037 C   0  0  0  0  0  0  0  0  0  0  0  0
   28.0210  -18.5506  -16.6024 C   0  0  2  0  0  0  0  0  0  0  0  0
   27.5028  -17.7599  -17.7595 C   0  0  0  0  0  0  0  0  0  0  0  0
   26.9156  -19.3930  -15.9504 C   0  0  0  0  0  0  0  0  0  0  0  0
   27.5914  -20.1958  -14.8625 C   0  0  2  0  0  0  0  0  0  0  0  0
   28.5030  -21.1139  -15.5059 N   0  0  0  0  0  0  0  0  0  0  0  0
   26.6258  -20.9126  -14.0091 C   0  0  0  0  0  0  0  0  0  0  0  0
   26.0827  -21.9586  -14.4456 O   0  0  0  0  0  0  0  0  0  0  0  0
   24.3167  -20.9025   -9.5913 C   0  0  0  0  0  0  0  0  0  0  0  0
   25.4872  -20.5325  -10.4667 C   0  0  1  0  0  0  0  0  0  0  0  0
   26.7893  -21.0519   -9.9229 C   0  0  0  0  0  0  0  0  0  0  0  0
   25.2484  -21.0034  -11.8968 C   0  0  2  0  0  0  0  0  0  0  0  0
   26.3124  -20.4288  -12.7106 N   0  0  0  0  0  0  0  0  0  0  0  0
   23.9635  -20.4988  -12.4190 C   0  0  0  0  0  0  0  0  0  0  0  0
   23.7369  -19.2513  -12.5718 O   0  0  0  0  0  0  0  0  0  0  0  0
   21.1739  -21.6513  -14.4297 C   0  0  0  0  0  0  0  0  0  0  0  0
   21.5903  -20.8354  -13.2213 C   0  0  2  0  0  0  0  0  0  0  0  0
   22.8870  -21.3589  -12.7891 N   0  0  0  0  0  0  0  0  0  0  0  0
   20.6100  -20.9225  -12.1221 C   0  0  0  0  0  0  0  0  0  0  0  0
   19.4270  -20.2165  -12.2394 O   0  0  0  0  0  0  0  0  0  0  0  0
   20.8504  -21.6153  -11.1203 O   0  0  0  0  0  0  0  0  0  0  0  0
  2  1  1  1
  3  2  1  0
  4  5  1  0
  4  2  1  0
  5  7  1  0
  5  6  1  6
  7 13  1  0
  7  8  2  0
 10  9  1  1
 11 10  1  0
 12 10  1  0
 12 14  1  0
 12 13  1  6
 14 15  2  0
 17 16  1  6
 17 19  1  0
 18 17  1  0
 18 14  1  0
 19 21  2  0
 19 20  1  0
M  END
$$$$
