LVA.pdb
     RDKit          3D

 21 20  0  0  1  0  0  0  0  0999 V2000
   20.7371  -23.3109  -14.6510 C   0  0  0  0  0  0  0  0  0  0  0  0
   20.0365  -22.0171  -15.0084 C   0  0  2  0  0  0  0  0  0  0  0  0
   19.5790  -21.9661  -16.4299 C   0  0  0  0  0  0  0  0  0  0  0  0
   21.0242  -20.8861  -14.6894 C   0  0  0  0  0  0  0  0  0  0  0  0
   21.5072  -21.1407  -13.2799 C   0  0  2  0  0  0  0  0  0  0  0  0
   20.4785  -20.6728  -12.3795 N   0  0  0  0  0  0  0  0  0  0  0  0
   22.7991  -20.4869  -13.0004 C   0  0  0  0  0  0  0  0  0  0  0  0
   22.8462  -19.2332  -12.9254 O   0  0  0  0  0  0  0  0  0  0  0  0
   27.3210  -21.0387  -11.1833 C   0  0  0  0  0  0  0  0  0  0  0  0
   25.8727  -21.4153  -11.3676 C   0  0  1  0  0  0  0  0  0  0  0  0
   25.0681  -21.2071  -10.1146 C   0  0  0  0  0  0  0  0  0  0  0  0
   25.2758  -20.6604  -12.5499 C   0  0  2  0  0  0  0  0  0  0  0  0
   23.9756  -21.2621  -12.8182 N   0  0  0  0  0  0  0  0  0  0  0  0
   26.1028  -20.8231  -13.7615 C   0  0  0  0  0  0  0  0  0  0  0  0
   26.2785  -21.9608  -14.3145 O   0  0  0  0  0  0  0  0  0  0  0  0
   28.1428  -18.5529  -15.9555 C   0  0  0  0  0  0  0  0  0  0  0  0
   27.5788  -19.9151  -15.6016 C   0  0  2  0  0  0  0  0  0  0  0  0
   26.7625  -19.7314  -14.4006 N   0  0  0  0  0  0  0  0  0  0  0  0
   28.6376  -20.9125  -15.3543 C   0  0  0  0  0  0  0  0  0  0  0  0
   29.0687  -21.6894  -16.4137 O   0  0  0  0  0  0  0  0  0  0  0  0
   29.1234  -21.0436  -14.2193 O   0  0  0  0  0  0  0  0  0  0  0  0
  2  1  1  6
  3  2  1  0
  4  5  1  0
  4  2  1  0
  5  7  1  0
  5  6  1  1
  7 13  1  0
  7  8  2  0
 10  9  1  1
 11 10  1  0
 12 10  1  0
 12 14  1  0
 12 13  1  6
 14 15  2  0
 17 16  1  1
 17 19  1  0
 18 17  1  0
 18 14  1  0
 19 21  2  0
 19 20  1  0
M  END
$$$$
