LVA.pdb
     RDKit          3D

 21 20  0  0  1  0  0  0  0  0999 V2000
   23.0958  -17.7705  -15.8567 C   0  0  0  0  0  0  0  0  0  0  0  0
   21.9735  -18.7400  -15.5522 C   0  0  2  0  0  0  0  0  0  0  0  0
   20.6849  -18.0642  -15.2126 C   0  0  0  0  0  0  0  0  0  0  0  0
   22.4680  -19.6292  -14.4027 C   0  0  0  0  0  0  0  0  0  0  0  0
   23.7868  -20.2076  -14.8617 C   0  0  2  0  0  0  0  0  0  0  0  0
   23.4959  -21.1967  -15.8741 N   0  0  0  0  0  0  0  0  0  0  0  0
   24.5625  -20.7918  -13.7520 C   0  0  0  0  0  0  0  0  0  0  0  0
   24.1052  -21.7947  -13.1479 O   0  0  0  0  0  0  0  0  0  0  0  0
   29.0507  -20.9416  -11.6603 C   0  0  0  0  0  0  0  0  0  0  0  0
   28.1034  -20.5531  -12.7671 C   0  0  1  0  0  0  0  0  0  0  0  0
   28.4478  -21.2208  -14.0695 C   0  0  0  0  0  0  0  0  0  0  0  0
   26.6632  -20.8360  -12.3548 C   0  0  2  0  0  0  0  0  0  0  0  0
   25.8100  -20.2300  -13.3694 N   0  0  0  0  0  0  0  0  0  0  0  0
   26.3418  -20.2005  -11.0620 C   0  0  0  0  0  0  0  0  0  0  0  0
   26.3314  -18.9320  -10.9144 O   0  0  0  0  0  0  0  0  0  0  0  0
   25.0106  -21.3098   -7.7549 C   0  0  0  0  0  0  0  0  0  0  0  0
   25.7569  -20.3001   -8.6050 C   0  0  2  0  0  0  0  0  0  0  0  0
   26.0216  -20.9487   -9.8902 N   0  0  0  0  0  0  0  0  0  0  0  0
   27.0209  -19.8667   -7.9795 C   0  0  0  0  0  0  0  0  0  0  0  0
   26.9796  -18.8316   -7.0637 O   0  0  0  0  0  0  0  0  0  0  0  0
   28.0904  -20.4238   -8.2745 O   0  0  0  0  0  0  0  0  0  0  0  0
  2  1  1  1
  3  2  1  0
  4  5  1  0
  4  2  1  0
  5  7  1  0
  5  6  1  6
  7 13  1  0
  7  8  2  0
 10  9  1  1
 11 10  1  0
 12 10  1  0
 12 14  1  0
 12 13  1  6
 14 15  2  0
 17 16  1  1
 17 19  1  0
 18 17  1  0
 18 14  1  0
 19 21  2  0
 19 20  1  0
M  END
$$$$
