LVA.pdb
     RDKit          3D

 21 20  0  0  1  0  0  0  0  0999 V2000
   27.6913  -16.8681  -14.5761 C   0  0  0  0  0  0  0  0  0  0  0  0
   27.8537  -17.7285  -15.8113 C   0  0  2  0  0  0  0  0  0  0  0  0
   27.4028  -17.0527  -17.0653 C   0  0  0  0  0  0  0  0  0  0  0  0
   27.0659  -19.0194  -15.5477 C   0  0  0  0  0  0  0  0  0  0  0  0
   27.6401  -19.6053  -14.2781 C   0  0  2  0  0  0  0  0  0  0  0  0
   28.9232  -20.1811  -14.6097 N   0  0  0  0  0  0  0  0  0  0  0  0
   26.7476  -20.6070  -13.6662 C   0  0  0  0  0  0  0  0  0  0  0  0
   26.6283  -21.7335  -14.2107 O   0  0  0  0  0  0  0  0  0  0  0  0
   26.5785  -21.1420   -9.8389 C   0  0  0  0  0  0  0  0  0  0  0  0
   25.1691  -20.9851  -10.3510 C   0  0  1  0  0  0  0  0  0  0  0  0
   24.5866  -19.6421  -10.0077 C   0  0  0  0  0  0  0  0  0  0  0  0
   25.1179  -21.2523  -11.8510 C   0  0  2  0  0  0  0  0  0  0  0  0
   26.0315  -20.3047  -12.4770 N   0  0  0  0  0  0  0  0  0  0  0  0
   23.7691  -20.9993  -12.3941 C   0  0  0  0  0  0  0  0  0  0  0  0
   23.3025  -19.8179  -12.5266 O   0  0  0  0  0  0  0  0  0  0  0  0
   21.1314  -23.0268  -14.0921 C   0  0  0  0  0  0  0  0  0  0  0  0
   21.5645  -21.7720  -13.3593 C   0  0  2  0  0  0  0  0  0  0  0  0
   22.8926  -22.0460  -12.8084 N   0  0  0  0  0  0  0  0  0  0  0  0
   20.6283  -21.4020  -12.2807 C   0  0  0  0  0  0  0  0  0  0  0  0
   19.4841  -20.7015  -12.6154 O   0  0  0  0  0  0  0  0  0  0  0  0
   20.8705  -21.7164  -11.1043 O   0  0  0  0  0  0  0  0  0  0  0  0
  2  1  1  1
  3  2  1  0
  4  5  1  0
  4  2  1  0
  5  7  1  0
  5  6  1  6
  7 13  1  0
  7  8  2  0
 10  9  1  6
 11 10  1  0
 12 10  1  0
 12 14  1  0
 12 13  1  6
 14 15  2  0
 17 16  1  1
 17 19  1  0
 18 17  1  0
 18 14  1  0
 19 21  2  0
 19 20  1  0
M  END
$$$$
