LVA.pdb
     RDKit          3D

 21 20  0  0  1  0  0  0  0  0999 V2000
   26.5799  -27.5586  -16.1715 C   0  0  0  0  0  0  0  0  0  0  0  0
   26.0185  -26.7207  -17.3008 C   0  0  2  0  0  0  0  0  0  0  0  0
   25.1809  -27.5047  -18.2581 C   0  0  0  0  0  0  0  0  0  0  0  0
   27.2216  -26.0718  -17.9993 C   0  0  0  0  0  0  0  0  0  0  0  0
   27.9815  -25.3349  -16.9203 C   0  0  2  0  0  0  0  0  0  0  0  0
   27.1861  -24.1915  -16.5357 N   0  0  0  0  0  0  0  0  0  0  0  0
   29.3281  -24.9248  -17.3597 C   0  0  0  0  0  0  0  0  0  0  0  0
   29.4544  -23.8852  -18.0546 O   0  0  0  0  0  0  0  0  0  0  0  0
   34.1380  -25.2186  -16.4634 C   0  0  0  0  0  0  0  0  0  0  0  0
   32.7028  -25.5633  -16.1558 C   0  0  1  0  0  0  0  0  0  0  0  0
   32.1936  -24.8409  -14.9394 C   0  0  0  0  0  0  0  0  0  0  0  0
   31.8230  -25.3021  -17.3731 C   0  0  2  0  0  0  0  0  0  0  0  0
   30.4686  -25.6934  -17.0032 N   0  0  0  0  0  0  0  0  0  0  0  0
   32.2330  -26.1373  -18.5189 C   0  0  0  0  0  0  0  0  0  0  0  0
   32.4131  -27.3969  -18.4094 O   0  0  0  0  0  0  0  0  0  0  0  0
   32.4082  -25.6975  -22.2112 C   0  0  0  0  0  0  0  0  0  0  0  0
   32.7999  -26.4605  -20.9608 C   0  0  2  0  0  0  0  0  0  0  0  0
   32.4570  -25.6052  -19.8235 N   0  0  0  0  0  0  0  0  0  0  0  0
   34.2367  -26.7950  -20.9360 C   0  0  0  0  0  0  0  0  0  0  0  0
   34.6320  -28.0306  -21.4142 O   0  0  0  0  0  0  0  0  0  0  0  0
   35.0631  -25.9803  -20.4946 O   0  0  0  0  0  0  0  0  0  0  0  0
  2  1  1  1
  3  2  1  0
  4  5  1  0
  4  2  1  0
  5  7  1  0
  5  6  1  6
  7 13  1  0
  7  8  2  0
 10  9  1  6
 11 10  1  0
 12 10  1  0
 12 14  1  0
 12 13  1  1
 14 15  2  0
 17 16  1  6
 17 19  1  0
 18 17  1  0
 18 14  1  0
 19 21  2  0
 19 20  1  0
M  END
$$$$
