LVA.pdb
     RDKit          3D

 21 20  0  0  1  0  0  0  0  0999 V2000
   24.3954    1.4478  -11.0439 C   0  0  0  0  0  0  0  0  0  0  0  0
   24.3035    2.9581  -10.9893 C   0  0  2  0  0  0  0  0  0  0  0  0
   24.8558    3.6279  -12.2053 C   0  0  0  0  0  0  0  0  0  0  0  0
   25.0442    3.3922   -9.7166 C   0  0  0  0  0  0  0  0  0  0  0  0
   24.1580    2.9875   -8.5609 C   0  0  2  0  0  0  0  0  0  0  0  0
   22.8541    3.5653   -8.7932 N   0  0  0  0  0  0  0  0  0  0  0  0
   24.7042    3.4091   -7.2577 C   0  0  0  0  0  0  0  0  0  0  0  0
   24.4099    4.5461   -6.8104 O   0  0  0  0  0  0  0  0  0  0  0  0
   24.1963    2.3614   -3.8210 C   0  0  0  0  0  0  0  0  0  0  0  0
   25.6073    1.9800   -4.1912 C   0  0  1  0  0  0  0  0  0  0  0  0
   25.7106    0.5465   -4.6329 C   0  0  0  0  0  0  0  0  0  0  0  0
   26.1535    2.9338   -5.2476 C   0  0  2  0  0  0  0  0  0  0  0  0
   25.5520    2.5430   -6.5164 N   0  0  0  0  0  0  0  0  0  0  0  0
   27.6167    2.7985   -5.3855 C   0  0  0  0  0  0  0  0  0  0  0  0
   28.1550    1.7711   -5.9201 O   0  0  0  0  0  0  0  0  0  0  0  0
   30.5275    5.0668   -5.2768 C   0  0  0  0  0  0  0  0  0  0  0  0
   29.9777    3.6621   -5.1226 C   0  0  2  0  0  0  0  0  0  0  0  0
   28.5321    3.7963   -4.9361 N   0  0  0  0  0  0  0  0  0  0  0  0
   30.5781    2.9481   -3.9796 C   0  0  0  0  0  0  0  0  0  0  0  0
   31.8045    2.3351   -4.1587 O   0  0  0  0  0  0  0  0  0  0  0  0
   29.9890    2.9041   -2.8876 O   0  0  0  0  0  0  0  0  0  0  0  0
  2  1  1  6
  3  2  1  0
  4  5  1  0
  4  2  1  0
  5  7  1  0
  5  6  1  6
  7 13  1  0
  7  8  2  0
 10  9  1  6
 11 10  1  0
 12 10  1  0
 12 14  1  0
 12 13  1  6
 14 15  2  0
 17 16  1  1
 17 19  1  0
 18 17  1  0
 18 14  1  0
 19 21  2  0
 19 20  1  0
M  END
$$$$
