LVA.pdb
     RDKit          3D

 21 20  0  0  1  0  0  0  0  0999 V2000
   21.3439  -34.4150  -12.4916 C   0  0  0  0  0  0  0  0  0  0  0  0
   21.9528  -35.6268  -13.1649 C   0  0  2  0  0  0  0  0  0  0  0  0
   20.9929  -36.7613  -13.3195 C   0  0  0  0  0  0  0  0  0  0  0  0
   23.1715  -36.0258  -12.3209 C   0  0  0  0  0  0  0  0  0  0  0  0
   24.0303  -34.7862  -12.2181 C   0  0  2  0  0  0  0  0  0  0  0  0
   24.7156  -34.6295  -13.4805 N   0  0  0  0  0  0  0  0  0  0  0  0
   24.9856  -34.8541  -11.0969 C   0  0  0  0  0  0  0  0  0  0  0  0
   26.0898  -35.4295  -11.2685 O   0  0  0  0  0  0  0  0  0  0  0  0
   26.7558  -32.2633   -9.3617 C   0  0  0  0  0  0  0  0  0  0  0  0
   25.8888  -32.9052   -8.3083 C   0  0  1  0  0  0  0  0  0  0  0  0
   24.6420  -32.1097   -8.0371 C   0  0  0  0  0  0  0  0  0  0  0  0
   25.5640  -34.3438   -8.6944 C   0  0  2  0  0  0  0  0  0  0  0  0
   24.6640  -34.2776   -9.8389 N   0  0  0  0  0  0  0  0  0  0  0  0
   24.8533  -35.0427   -7.6060 C   0  0  0  0  0  0  0  0  0  0  0  0
   23.6145  -34.8434   -7.3678 O   0  0  0  0  0  0  0  0  0  0  0  0
   25.5732  -38.0311   -5.5127 C   0  0  0  0  0  0  0  0  0  0  0  0
   24.7350  -36.7988   -5.7918 C   0  0  2  0  0  0  0  0  0  0  0  0
   25.4909  -35.9852   -6.7454 N   0  0  0  0  0  0  0  0  0  0  0  0
   24.4528  -36.0245   -4.5680 C   0  0  0  0  0  0  0  0  0  0  0  0
   23.5580  -36.5464   -3.6521 O   0  0  0  0  0  0  0  0  0  0  0  0
   25.0100  -34.9322   -4.3740 O   0  0  0  0  0  0  0  0  0  0  0  0
  2  1  1  1
  3  2  1  0
  4  5  1  0
  4  2  1  0
  5  7  1  0
  5  6  1  6
  7 13  1  0
  7  8  2  0
 10  9  1  6
 11 10  1  0
 12 10  1  0
 12 14  1  0
 12 13  1  6
 14 15  2  0
 17 16  1  1
 17 19  1  0
 18 17  1  0
 18 14  1  0
 19 21  2  0
 19 20  1  0
M  END
$$$$
