LVA.pdb
     RDKit          3D

 21 20  0  0  1  0  0  0  0  0999 V2000
   21.9484  -19.2143  -12.7740 C   0  0  0  0  0  0  0  0  0  0  0  0
   22.4535  -20.2164  -13.7905 C   0  0  2  0  0  0  0  0  0  0  0  0
   21.3947  -21.1542  -14.2720 C   0  0  0  0  0  0  0  0  0  0  0  0
   23.6140  -20.9661  -13.1212 C   0  0  0  0  0  0  0  0  0  0  0  0
   24.6526  -19.9181  -12.7936 C   0  0  2  0  0  0  0  0  0  0  0  0
   25.3152  -19.5655  -14.0284 N   0  0  0  0  0  0  0  0  0  0  0  0
   25.6204  -20.3810  -11.7819 C   0  0  0  0  0  0  0  0  0  0  0  0
   26.6143  -21.0563  -12.1504 O   0  0  0  0  0  0  0  0  0  0  0  0
   26.9054  -20.1826   -6.9784 C   0  0  0  0  0  0  0  0  0  0  0  0
   26.1757  -19.6297   -8.1764 C   0  0  1  0  0  0  0  0  0  0  0  0
   26.6260  -18.2375   -8.5226 C   0  0  0  0  0  0  0  0  0  0  0  0
   26.3140  -20.5760   -9.3636 C   0  0  2  0  0  0  0  0  0  0  0  0
   25.4333  -20.0689  -10.4085 N   0  0  0  0  0  0  0  0  0  0  0  0
   25.8612  -21.9376   -9.0184 C   0  0  0  0  0  0  0  0  0  0  0  0
   24.6545  -22.1855   -8.6814 O   0  0  0  0  0  0  0  0  0  0  0  0
   27.4457  -25.3420   -8.8487 C   0  0  0  0  0  0  0  0  0  0  0  0
   26.2636  -24.4089   -8.6724 C   0  0  2  0  0  0  0  0  0  0  0  0
   26.7295  -23.0695   -9.0349 N   0  0  0  0  0  0  0  0  0  0  0  0
   25.7462  -24.4154   -7.2907 C   0  0  0  0  0  0  0  0  0  0  0  0
   24.7460  -25.3138   -6.9680 O   0  0  0  0  0  0  0  0  0  0  0  0
   26.2040  -23.6296   -6.4455 O   0  0  0  0  0  0  0  0  0  0  0  0
  2  1  1  1
  3  2  1  0
  4  5  1  0
  4  2  1  0
  5  7  1  0
  5  6  1  6
  7 13  1  0
  7  8  2  0
 10  9  1  1
 11 10  1  0
 12 10  1  0
 12 14  1  0
 12 13  1  6
 14 15  2  0
 17 16  1  1
 17 19  1  0
 18 17  1  0
 18 14  1  0
 19 21  2  0
 19 20  1  0
M  END
$$$$
