AQW.pdb
     RDKit          3D

 29 30  0  0  1  0  0  0  0  0999 V2000
    7.9714  -18.8954   18.5438 C   0  0  0  0  0  0  0  0  0  0  0  0
    8.3980  -18.8801   19.9718 C   0  0  2  0  0  0  0  0  0  0  0  0
    7.3286  -19.0673   20.9186 N   0  0  0  0  0  0  0  0  0  0  0  0
    9.0387  -17.5657   20.2619 C   0  0  0  0  0  0  0  0  0  0  0  0
   10.1071  -17.3031   19.6470 O   0  0  0  0  0  0  0  0  0  0  0  0
    9.0894  -12.6089   19.1719 N   0  0  0  0  0  0  0  0  0  0  0  0
    8.0600  -13.4711   18.7427 C   0  0  0  0  0  0  0  0  0  0  0  0
    7.7044  -13.4665   17.5519 O   0  0  0  0  0  0  0  0  0  0  0  0
    7.4176  -14.3689   19.7143 C   0  0  0  0  0  0  0  0  0  0  0  0
    8.0948  -14.2256   21.0342 C   0  0  0  0  0  0  0  0  0  0  0  0
    9.0737  -15.3391   21.3346 C   0  0  2  0  0  0  0  0  0  0  0  0
    8.4665  -16.6439   21.1965 N   0  0  0  0  0  0  0  0  0  0  0  0
    9.4903  -15.1597   22.7439 C   0  0  0  0  0  0  0  0  0  0  0  0
    9.9400  -14.0434   23.0933 O   0  0  0  0  0  0  0  0  0  0  0  0
    9.3772  -16.2347   23.6656 N   0  0  0  0  0  0  0  0  0  0  0  0
    9.9273  -16.0654   24.9867 C   0  0  1  0  0  0  0  0  0  0  0  0
    8.9281  -16.4309   26.0663 C   0  0  0  0  0  0  0  0  0  0  0  0
    7.7327  -15.5822   25.8750 C   0  0  0  0  0  0  0  0  0  0  0  0
    6.5070  -15.9241   25.3831 C   0  0  0  0  0  0  0  0  0  0  0  0
    5.6849  -14.8634   25.3648 N   0  0  0  0  0  0  0  0  0  0  0  0
    6.3618  -13.8117   25.8448 C   0  0  0  0  0  0  0  0  0  0  0  0
    6.0371  -12.4881   26.0565 C   0  0  0  0  0  0  0  0  0  0  0  0
    6.9390  -11.5752   26.5785 C   0  0  0  0  0  0  0  0  0  0  0  0
    8.2117  -11.9913   26.9030 C   0  0  0  0  0  0  0  0  0  0  0  0
    8.5411  -13.3164   26.6926 C   0  0  0  0  0  0  0  0  0  0  0  0
    7.6554  -14.2396   26.1735 C   0  0  0  0  0  0  0  0  0  0  0  0
   11.1352  -16.9407   25.0834 C   0  0  0  0  0  0  0  0  0  0  0  0
   11.9046  -16.9581   26.2334 O   0  0  0  0  0  0  0  0  0  0  0  0
   11.5039  -17.6898   24.1422 O   0  0  0  0  0  0  0  0  0  0  0  0
  2  1  1  6
  2  3  1  0
  4  2  1  0
  5  4  2  0
  7  9  1  0
  7  6  1  0
  8  7  2  0
 11 10  1  1
 10  9  1  0
 11 12  1  0
 12  4  1  0
 13 14  2  0
 13 11  1  0
 15 13  1  0
 16 15  1  0
 16 17  1  1
 18 26  1  0
 18 17  1  0
 19 18  2  0
 20 19  1  0
 20 21  1  0
 21 22  1  0
 21 26  2  0
 22 23  2  0
 23 24  1  0
 25 24  2  0
 26 25  1  0
 27 28  1  0
 27 16  1  0
 29 27  2  0
M  END
$$$$
