AQW.pdb
     RDKit          3D

 29 30  0  0  1  0  0  0  0  0999 V2000
    5.7395  -19.2561   23.5966 C   0  0  0  0  0  0  0  0  0  0  0  0
    5.4525  -18.7907   22.2102 C   0  0  2  0  0  0  0  0  0  0  0  0
    5.4056  -19.8396   21.2238 N   0  0  0  0  0  0  0  0  0  0  0  0
    6.5159  -17.8288   21.8024 C   0  0  0  0  0  0  0  0  0  0  0  0
    7.6960  -18.2687   21.7546 O   0  0  0  0  0  0  0  0  0  0  0  0
    7.6854  -14.7074   18.1110 N   0  0  0  0  0  0  0  0  0  0  0  0
    8.3825  -13.7146   18.8292 C   0  0  0  0  0  0  0  0  0  0  0  0
    9.3616  -13.1492   18.3132 O   0  0  0  0  0  0  0  0  0  0  0  0
    7.9397  -13.3594   20.1859 C   0  0  0  0  0  0  0  0  0  0  0  0
    6.8298  -14.2677   20.5911 C   0  0  0  0  0  0  0  0  0  0  0  0
    7.3053  -15.5616   21.2141 C   0  0  2  0  0  0  0  0  0  0  0  0
    6.2103  -16.4673   21.4801 N   0  0  0  0  0  0  0  0  0  0  0  0
    7.9388  -15.1968   22.5015 C   0  0  0  0  0  0  0  0  0  0  0  0
    7.4692  -14.2270   23.1415 O   0  0  0  0  0  0  0  0  0  0  0  0
    9.0504  -15.9365   22.9867 N   0  0  0  0  0  0  0  0  0  0  0  0
    9.7067  -15.4800   24.1856 C   0  0  1  0  0  0  0  0  0  0  0  0
    9.1284  -16.1273   25.4282 C   0  0  0  0  0  0  0  0  0  0  0  0
    7.8536  -15.4446   25.7360 C   0  0  0  0  0  0  0  0  0  0  0  0
    6.5763  -15.8855   25.5476 C   0  0  0  0  0  0  0  0  0  0  0  0
    5.6871  -14.9665   25.9547 N   0  0  0  0  0  0  0  0  0  0  0  0
    6.3705  -13.9104   26.4154 C   0  0  0  0  0  0  0  0  0  0  0  0
    5.9964  -12.6956   26.9505 C   0  0  0  0  0  0  0  0  0  0  0  0
    6.9196  -11.7484   27.3629 C   0  0  0  0  0  0  0  0  0  0  0  0
    8.2653  -12.0167   27.2397 C   0  0  0  0  0  0  0  0  0  0  0  0
    8.6444  -13.2325   26.7041 C   0  0  0  0  0  0  0  0  0  0  0  0
    7.7385  -14.1878   26.2881 C   0  0  0  0  0  0  0  0  0  0  0  0
   11.1576  -15.8155   24.0563 C   0  0  0  0  0  0  0  0  0  0  0  0
   11.6234  -16.5271   22.9648 O   0  0  0  0  0  0  0  0  0  0  0  0
   12.0095  -15.4739   24.9169 O   0  0  0  0  0  0  0  0  0  0  0  0
  2  1  1  1
  2  3  1  0
  4  2  1  0
  5  4  2  0
  7  9  1  0
  7  6  1  0
  8  7  2  0
 11 10  1  1
 10  9  1  0
 11 12  1  0
 12  4  1  0
 13 14  2  0
 13 11  1  0
 15 13  1  0
 16 15  1  0
 16 17  1  1
 18 26  1  0
 18 17  1  0
 19 18  2  0
 20 19  1  0
 20 21  1  0
 21 22  1  0
 21 26  2  0
 22 23  2  0
 23 24  1  0
 25 24  2  0
 26 25  1  0
 27 28  1  0
 27 16  1  0
 29 27  2  0
M  END
$$$$
