AQW.pdb
     RDKit          3D

 29 30  0  0  1  0  0  0  0  0999 V2000
    7.9811  -19.7209   19.1630 C   0  0  0  0  0  0  0  0  0  0  0  0
    8.3431  -19.5205   20.5948 C   0  0  2  0  0  0  0  0  0  0  0  0
    7.2192  -19.4588   21.4940 N   0  0  0  0  0  0  0  0  0  0  0  0
    9.0973  -18.2407   20.7194 C   0  0  0  0  0  0  0  0  0  0  0  0
   10.2023  -18.1682   20.1175 O   0  0  0  0  0  0  0  0  0  0  0  0
    8.1084  -12.4421   19.7604 N   0  0  0  0  0  0  0  0  0  0  0  0
    7.8336  -13.6081   19.0172 C   0  0  0  0  0  0  0  0  0  0  0  0
    7.3559  -13.5156   17.8737 O   0  0  0  0  0  0  0  0  0  0  0  0
    8.1173  -14.9247   19.6079 C   0  0  0  0  0  0  0  0  0  0  0  0
    8.5958  -14.7397   21.0071 C   0  0  0  0  0  0  0  0  0  0  0  0
    9.3662  -15.9260   21.5436 C   0  0  2  0  0  0  0  0  0  0  0  0
    8.5896  -17.1442   21.4879 N   0  0  0  0  0  0  0  0  0  0  0  0
    9.6660  -15.6224   22.9613 C   0  0  0  0  0  0  0  0  0  0  0  0
   10.2248  -14.5336   23.2307 O   0  0  0  0  0  0  0  0  0  0  0  0
    9.3230  -16.5514   23.9797 N   0  0  0  0  0  0  0  0  0  0  0  0
    9.7712  -16.2908   25.3243 C   0  0  1  0  0  0  0  0  0  0  0  0
    8.6646  -16.4979   26.3393 C   0  0  0  0  0  0  0  0  0  0  0  0
    7.5456  -15.6054   25.9692 C   0  0  0  0  0  0  0  0  0  0  0  0
    6.3749  -15.9123   25.3395 C   0  0  0  0  0  0  0  0  0  0  0  0
    5.6150  -14.8176   25.1804 N   0  0  0  0  0  0  0  0  0  0  0  0
    6.2783  -13.7782   25.7041 C   0  0  0  0  0  0  0  0  0  0  0  0
    5.9958  -12.4338   25.8262 C   0  0  0  0  0  0  0  0  0  0  0  0
    6.8701  -11.5413   26.4248 C   0  0  0  0  0  0  0  0  0  0  0  0
    8.0706  -12.0000   26.9213 C   0  0  0  0  0  0  0  0  0  0  0  0
    8.3576  -13.3461   26.8011 C   0  0  0  0  0  0  0  0  0  0  0  0
    7.4984  -14.2495   26.2078 C   0  0  0  0  0  0  0  0  0  0  0  0
   10.9088  -17.2192   25.6040 C   0  0  0  0  0  0  0  0  0  0  0  0
   11.3263  -18.1318   24.6514 O   0  0  0  0  0  0  0  0  0  0  0  0
   11.5301  -17.2161   26.6981 O   0  0  0  0  0  0  0  0  0  0  0  0
  2  1  1  6
  2  3  1  0
  4  2  1  0
  5  4  2  0
  7  9  1  0
  7  6  1  0
  8  7  2  0
 11 10  1  1
 10  9  1  0
 11 12  1  0
 12  4  1  0
 13 14  2  0
 13 11  1  0
 15 13  1  0
 16 15  1  0
 16 17  1  1
 18 26  1  0
 18 17  1  0
 19 18  2  0
 20 19  1  0
 20 21  1  0
 21 22  1  0
 21 26  2  0
 22 23  2  0
 23 24  1  0
 25 24  2  0
 26 25  1  0
 27 28  1  0
 27 16  1  0
 29 27  2  0
M  END
$$$$
