AQW.pdb
     RDKit          3D

 29 30  0  0  1  0  0  0  0  0999 V2000
    8.2048  -12.2996   20.0956 C   0  0  0  0  0  0  0  0  0  0  0  0
    8.2484  -13.6068   19.3811 C   0  0  2  0  0  0  0  0  0  0  0  0
    7.1849  -13.8057   18.4300 N   0  0  0  0  0  0  0  0  0  0  0  0
    8.1689  -14.7020   20.3895 C   0  0  0  0  0  0  0  0  0  0  0  0
    7.0241  -15.1667   20.6386 O   0  0  0  0  0  0  0  0  0  0  0  0
   10.7452  -19.7848   20.2646 N   0  0  0  0  0  0  0  0  0  0  0  0
   11.6240  -18.6840   20.3220 C   0  0  0  0  0  0  0  0  0  0  0  0
   12.8090  -18.8185   19.9722 O   0  0  0  0  0  0  0  0  0  0  0  0
   11.1245  -17.3850   20.7973 C   0  0  0  0  0  0  0  0  0  0  0  0
    9.7953  -17.5790   21.4428 C   0  0  0  0  0  0  0  0  0  0  0  0
    9.1903  -16.2989   21.9756 C   0  0  2  0  0  0  0  0  0  0  0  0
    9.3395  -15.2028   21.0449 N   0  0  0  0  0  0  0  0  0  0  0  0
    9.9323  -15.9704   23.2139 C   0  0  0  0  0  0  0  0  0  0  0  0
   11.0930  -15.5099   23.1070 O   0  0  0  0  0  0  0  0  0  0  0  0
    9.3311  -16.1773   24.4842 N   0  0  0  0  0  0  0  0  0  0  0  0
   10.1552  -16.0568   25.6602 C   0  0  1  0  0  0  0  0  0  0  0  0
    9.6419  -14.9868   26.6032 C   0  0  0  0  0  0  0  0  0  0  0  0
    8.2096  -14.7763   26.3032 C   0  0  0  0  0  0  0  0  0  0  0  0
    7.2543  -15.6976   25.9866 C   0  0  0  0  0  0  0  0  0  0  0  0
    6.0674  -15.1060   25.7808 N   0  0  0  0  0  0  0  0  0  0  0  0
    6.2293  -13.7883   25.9601 C   0  0  0  0  0  0  0  0  0  0  0  0
    5.3774  -12.7065   25.8839 C   0  0  0  0  0  0  0  0  0  0  0  0
    5.8001  -11.4085   26.1206 C   0  0  0  0  0  0  0  0  0  0  0  0
    7.1185  -11.1749   26.4455 C   0  0  0  0  0  0  0  0  0  0  0  0
    7.9753  -12.2559   26.5229 C   0  0  0  0  0  0  0  0  0  0  0  0
    7.5715  -13.5555   26.2903 C   0  0  0  0  0  0  0  0  0  0  0  0
   10.1587  -17.3872   26.3417 C   0  0  0  0  0  0  0  0  0  0  0  0
    9.3852  -18.4290   25.8611 O   0  0  0  0  0  0  0  0  0  0  0  0
   10.8516  -17.6200   27.3657 O   0  0  0  0  0  0  0  0  0  0  0  0
  2  1  1  1
  2  3  1  0
  4  2  1  0
  5  4  2  0
  7  9  1  0
  7  6  1  0
  8  7  2  0
 11 10  1  6
 10  9  1  0
 11 12  1  0
 12  4  1  0
 13 14  2  0
 13 11  1  0
 15 13  1  0
 16 15  1  0
 16 17  1  1
 18 26  1  0
 18 17  1  0
 19 18  2  0
 20 19  1  0
 20 21  1  0
 21 22  1  0
 21 26  2  0
 22 23  2  0
 23 24  1  0
 25 24  2  0
 26 25  1  0
 27 28  1  0
 27 16  1  0
 29 27  2  0
M  END
$$$$
