AQW.pdb
     RDKit          3D

 29 30  0  0  1  0  0  0  0  0999 V2000
    7.8228  -12.6235   19.7707 C   0  0  0  0  0  0  0  0  0  0  0  0
    8.4702  -13.7432   19.0302 C   0  0  2  0  0  0  0  0  0  0  0  0
    7.8977  -14.0165   17.7368 N   0  0  0  0  0  0  0  0  0  0  0  0
    8.3568  -14.9831   19.8500 C   0  0  0  0  0  0  0  0  0  0  0  0
    7.8584  -15.9954   19.2884 O   0  0  0  0  0  0  0  0  0  0  0  0
   12.6471  -17.7968   19.6340 N   0  0  0  0  0  0  0  0  0  0  0  0
   11.4160  -17.8527   18.9493 C   0  0  0  0  0  0  0  0  0  0  0  0
   11.3676  -18.3210   17.7991 O   0  0  0  0  0  0  0  0  0  0  0  0
   10.1997  -17.3536   19.6083 C   0  0  0  0  0  0  0  0  0  0  0  0
   10.5769  -16.6719   20.8788 C   0  0  0  0  0  0  0  0  0  0  0  0
    9.3878  -16.2430   21.7099 C   0  0  2  0  0  0  0  0  0  0  0  0
    8.7940  -15.0220   21.2131 N   0  0  0  0  0  0  0  0  0  0  0  0
    9.9012  -15.9956   23.0763 C   0  0  0  0  0  0  0  0  0  0  0  0
   10.9279  -15.2889   23.2068 O   0  0  0  0  0  0  0  0  0  0  0  0
    9.2365  -16.5520   24.2018 N   0  0  0  0  0  0  0  0  0  0  0  0
    9.7973  -16.3258   25.5098 C   0  0  1  0  0  0  0  0  0  0  0  0
    8.7618  -16.4880   26.6047 C   0  0  0  0  0  0  0  0  0  0  0  0
    7.6205  -15.6079   26.2746 C   0  0  0  0  0  0  0  0  0  0  0  0
    6.4123  -15.9359   25.7325 C   0  0  0  0  0  0  0  0  0  0  0  0
    5.6427  -14.8467   25.5826 N   0  0  0  0  0  0  0  0  0  0  0  0
    6.3370  -13.7898   26.0248 C   0  0  0  0  0  0  0  0  0  0  0  0
    6.0616  -12.4416   26.1158 C   0  0  0  0  0  0  0  0  0  0  0  0
    6.9715  -11.5290   26.6246 C   0  0  0  0  0  0  0  0  0  0  0  0
    8.2017  -11.9710   27.0598 C   0  0  0  0  0  0  0  0  0  0  0  0
    8.4817  -13.3210   26.9704 C   0  0  0  0  0  0  0  0  0  0  0  0
    7.5873  -14.2442   26.4664 C   0  0  0  0  0  0  0  0  0  0  0  0
   10.9056  -17.3111   25.6973 C   0  0  0  0  0  0  0  0  0  0  0  0
   11.7364  -17.2381   26.8015 O   0  0  0  0  0  0  0  0  0  0  0  0
   11.1327  -18.2370   24.8763 O   0  0  0  0  0  0  0  0  0  0  0  0
  2  1  1  1
  2  3  1  0
  4  2  1  0
  5  4  2  0
  7  9  1  0
  7  6  1  0
  8  7  2  0
 11 10  1  6
 10  9  1  0
 11 12  1  0
 12  4  1  0
 13 14  2  0
 13 11  1  0
 15 13  1  0
 16 15  1  0
 16 17  1  1
 18 26  1  0
 18 17  1  0
 19 18  2  0
 20 19  1  0
 20 21  1  0
 21 22  1  0
 21 26  2  0
 22 23  2  0
 23 24  1  0
 25 24  2  0
 26 25  1  0
 27 28  1  0
 27 16  1  0
 29 27  2  0
M  END
$$$$
