AQW.pdb
     RDKit          3D

 29 30  0  0  1  0  0  0  0  0999 V2000
    7.9844  -19.3944   19.2837 C   0  0  0  0  0  0  0  0  0  0  0  0
    8.2786  -19.2772   20.7400 C   0  0  2  0  0  0  0  0  0  0  0  0
    7.1135  -19.1622   21.5794 N   0  0  0  0  0  0  0  0  0  0  0  0
    9.1193  -18.0656   20.9586 C   0  0  0  0  0  0  0  0  0  0  0  0
   10.2444  -18.0413   20.3912 O   0  0  0  0  0  0  0  0  0  0  0  0
    8.1109  -12.0319   19.4637 N   0  0  0  0  0  0  0  0  0  0  0  0
    7.5181  -13.2719   19.7773 C   0  0  0  0  0  0  0  0  0  0  0  0
    6.2812  -13.3653   19.8547 O   0  0  0  0  0  0  0  0  0  0  0  0
    8.3753  -14.4442   20.0097 C   0  0  0  0  0  0  0  0  0  0  0  0
    8.6782  -14.5471   21.4653 C   0  0  0  0  0  0  0  0  0  0  0  0
    9.4747  -15.7803   21.8305 C   0  0  2  0  0  0  0  0  0  0  0  0
    8.6690  -16.9794   21.7760 N   0  0  0  0  0  0  0  0  0  0  0  0
    9.9332  -15.5832   23.2244 C   0  0  0  0  0  0  0  0  0  0  0  0
   10.7498  -14.6615   23.4570 O   0  0  0  0  0  0  0  0  0  0  0  0
    9.4510  -16.4255   24.2618 N   0  0  0  0  0  0  0  0  0  0  0  0
   10.2529  -16.5776   25.4494 C   0  0  1  0  0  0  0  0  0  0  0  0
    9.6521  -15.8483   26.6345 C   0  0  0  0  0  0  0  0  0  0  0  0
    8.2854  -15.4301   26.2561 C   0  0  0  0  0  0  0  0  0  0  0  0
    7.2265  -16.2011   25.8746 C   0  0  0  0  0  0  0  0  0  0  0  0
    6.1521  -15.4421   25.6088 N   0  0  0  0  0  0  0  0  0  0  0  0
    6.4931  -14.1627   25.8129 C   0  0  0  0  0  0  0  0  0  0  0  0
    5.8133  -12.9680   25.7013 C   0  0  0  0  0  0  0  0  0  0  0  0
    6.4057  -11.7464   25.9774 C   0  0  0  0  0  0  0  0  0  0  0  0
    7.7229  -11.7086   26.3795 C   0  0  0  0  0  0  0  0  0  0  0  0
    8.4076  -12.9033   26.4925 C   0  0  0  0  0  0  0  0  0  0  0  0
    7.8334  -14.1293   26.2216 C   0  0  0  0  0  0  0  0  0  0  0  0
   10.3498  -18.0410   25.7388 C   0  0  0  0  0  0  0  0  0  0  0  0
   11.1698  -18.5080   26.7507 O   0  0  0  0  0  0  0  0  0  0  0  0
    9.7031  -18.9025   25.0889 O   0  0  0  0  0  0  0  0  0  0  0  0
  2  1  1  6
  2  3  1  0
  4  2  1  0
  5  4  2  0
  7  9  1  0
  7  6  1  0
  8  7  2  0
 11 10  1  1
 10  9  1  0
 11 12  1  0
 12  4  1  0
 13 14  2  0
 13 11  1  0
 15 13  1  0
 16 15  1  0
 16 17  1  1
 18 26  1  0
 18 17  1  0
 19 18  2  0
 20 19  1  0
 20 21  1  0
 21 22  1  0
 21 26  2  0
 22 23  2  0
 23 24  1  0
 25 24  2  0
 26 25  1  0
 27 28  1  0
 27 16  1  0
 29 27  2  0
M  END
$$$$
