AQW.pdb
     RDKit          3D

 29 30  0  0  1  0  0  0  0  0999 V2000
    8.2420  -12.3909   19.0832 C   0  0  0  0  0  0  0  0  0  0  0  0
    8.2933  -13.7743   18.5311 C   0  0  2  0  0  0  0  0  0  0  0  0
    7.0497  -14.2445   17.9764 N   0  0  0  0  0  0  0  0  0  0  0  0
    8.6865  -14.7078   19.6248 C   0  0  0  0  0  0  0  0  0  0  0  0
    7.7553  -15.2060   20.3127 O   0  0  0  0  0  0  0  0  0  0  0  0
   13.5241  -18.8079   19.8062 N   0  0  0  0  0  0  0  0  0  0  0  0
   12.7221  -18.2567   18.7862 C   0  0  0  0  0  0  0  0  0  0  0  0
   13.1041  -18.3033   17.6045 O   0  0  0  0  0  0  0  0  0  0  0  0
   11.4380  -17.6308   19.1358 C   0  0  0  0  0  0  0  0  0  0  0  0
   11.5982  -16.8609   20.4018 C   0  0  0  0  0  0  0  0  0  0  0  0
   10.3565  -16.0964   20.8047 C   0  0  2  0  0  0  0  0  0  0  0  0
   10.0594  -15.0239   19.8820 N   0  0  0  0  0  0  0  0  0  0  0  0
   10.6408  -15.5096   22.1340 C   0  0  0  0  0  0  0  0  0  0  0  0
   11.0574  -14.3288   22.1857 O   0  0  0  0  0  0  0  0  0  0  0  0
   10.4416  -16.2776   23.3123 N   0  0  0  0  0  0  0  0  0  0  0  0
    9.5108  -15.7905   24.2986 C   0  0  1  0  0  0  0  0  0  0  0  0
    8.1442  -15.5198   23.7013 C   0  0  0  0  0  0  0  0  0  0  0  0
    7.2641  -15.0508   24.7928 C   0  0  0  0  0  0  0  0  0  0  0  0
    6.3018  -15.7369   25.4744 C   0  0  0  0  0  0  0  0  0  0  0  0
    5.7174  -14.9552   26.3956 N   0  0  0  0  0  0  0  0  0  0  0  0
    6.2896  -13.7457   26.3297 C   0  0  0  0  0  0  0  0  0  0  0  0
    6.1019  -12.5661   27.0192 C   0  0  0  0  0  0  0  0  0  0  0  0
    6.8416  -11.4246   26.7557 C   0  0  0  0  0  0  0  0  0  0  0  0
    7.8043  -11.4546   25.7706 C   0  0  0  0  0  0  0  0  0  0  0  0
    7.9955  -12.6343   25.0775 C   0  0  0  0  0  0  0  0  0  0  0  0
    7.2679  -13.7809   25.3266 C   0  0  0  0  0  0  0  0  0  0  0  0
    9.4098  -16.8289   25.3691 C   0  0  0  0  0  0  0  0  0  0  0  0
    9.6294  -16.5001   26.6951 O   0  0  0  0  0  0  0  0  0  0  0  0
    9.1257  -18.0293   25.1214 O   0  0  0  0  0  0  0  0  0  0  0  0
  2  1  1  1
  2  3  1  0
  4  2  1  0
  5  4  2  0
  7  9  1  0
  7  6  1  0
  8  7  2  0
 11 10  1  6
 10  9  1  0
 11 12  1  0
 12  4  1  0
 13 14  2  0
 13 11  1  0
 15 13  1  0
 16 15  1  0
 16 17  1  6
 18 26  1  0
 18 17  1  0
 19 18  2  0
 20 19  1  0
 20 21  1  0
 21 22  1  0
 21 26  2  0
 22 23  2  0
 23 24  1  0
 25 24  2  0
 26 25  1  0
 27 28  1  0
 27 16  1  0
 29 27  2  0
M  END
$$$$
