AQW.pdb
     RDKit          3D

 29 30  0  0  1  0  0  0  0  0999 V2000
    7.6190  -12.6169   20.9297 C   0  0  0  0  0  0  0  0  0  0  0  0
    7.6197  -13.8864   20.1490 C   0  0  2  0  0  0  0  0  0  0  0  0
    6.3379  -14.2563   19.6053 N   0  0  0  0  0  0  0  0  0  0  0  0
    8.0728  -14.9920   21.0405 C   0  0  0  0  0  0  0  0  0  0  0  0
    7.1805  -15.6152   21.6760 O   0  0  0  0  0  0  0  0  0  0  0  0
   12.1260  -18.9912   19.9246 N   0  0  0  0  0  0  0  0  0  0  0  0
   12.0176  -19.3381   21.2867 C   0  0  0  0  0  0  0  0  0  0  0  0
   12.4061  -20.4530   21.6747 O   0  0  0  0  0  0  0  0  0  0  0  0
   11.4433  -18.3716   22.2348 C   0  0  0  0  0  0  0  0  0  0  0  0
   11.1044  -17.1158   21.5073 C   0  0  0  0  0  0  0  0  0  0  0  0
    9.8142  -16.4778   21.9729 C   0  0  2  0  0  0  0  0  0  0  0  0
    9.4584  -15.3300   21.1690 N   0  0  0  0  0  0  0  0  0  0  0  0
   10.0502  -16.0251   23.3627 C   0  0  0  0  0  0  0  0  0  0  0  0
   10.8171  -15.0515   23.5486 O   0  0  0  0  0  0  0  0  0  0  0  0
    9.4167  -16.6874   24.4480 N   0  0  0  0  0  0  0  0  0  0  0  0
    9.8568  -16.3850   25.7864 C   0  0  1  0  0  0  0  0  0  0  0  0
    8.7005  -16.3411   26.7655 C   0  0  0  0  0  0  0  0  0  0  0  0
    7.6563  -15.4699   26.1854 C   0  0  0  0  0  0  0  0  0  0  0  0
    6.5894  -15.8105   25.4064 C   0  0  0  0  0  0  0  0  0  0  0  0
    5.8707  -14.7260   25.0770 N   0  0  0  0  0  0  0  0  0  0  0  0
    6.4577  -13.6596   25.6364 C   0  0  0  0  0  0  0  0  0  0  0  0
    6.1716  -12.3106   25.6420 C   0  0  0  0  0  0  0  0  0  0  0  0
    6.9549  -11.3867   26.3146 C   0  0  0  0  0  0  0  0  0  0  0  0
    8.0646  -11.8178   27.0081 C   0  0  0  0  0  0  0  0  0  0  0  0
    8.3549  -13.1686   27.0050 C   0  0  0  0  0  0  0  0  0  0  0  0
    7.5857  -14.1029   26.3405 C   0  0  0  0  0  0  0  0  0  0  0  0
   10.8320  -17.4450   26.1864 C   0  0  0  0  0  0  0  0  0  0  0  0
   11.5020  -17.3687   27.3947 O   0  0  0  0  0  0  0  0  0  0  0  0
   11.0862  -18.4388   25.4579 O   0  0  0  0  0  0  0  0  0  0  0  0
  2  1  1  1
  2  3  1  0
  4  2  1  0
  5  4  2  0
  7  9  1  0
  7  6  1  0
  8  7  2  0
 11 10  1  6
 10  9  1  0
 11 12  1  0
 12  4  1  0
 13 14  2  0
 13 11  1  0
 15 13  1  0
 16 15  1  0
 16 17  1  1
 18 26  1  0
 18 17  1  0
 19 18  2  0
 20 19  1  0
 20 21  1  0
 21 22  1  0
 21 26  2  0
 22 23  2  0
 23 24  1  0
 25 24  2  0
 26 25  1  0
 27 28  1  0
 27 16  1  0
 29 27  2  0
M  END
$$$$
