AQW.pdb
     RDKit          3D

 29 30  0  0  1  0  0  0  0  0999 V2000
    6.2725  -16.9041   19.4526 C   0  0  0  0  0  0  0  0  0  0  0  0
    6.7307  -15.9882   20.5353 C   0  0  2  0  0  0  0  0  0  0  0  0
    6.8074  -14.6010   20.1541 N   0  0  0  0  0  0  0  0  0  0  0  0
    8.0893  -16.4157   20.9757 C   0  0  0  0  0  0  0  0  0  0  0  0
    8.3070  -17.6557   21.0332 O   0  0  0  0  0  0  0  0  0  0  0  0
   14.7130  -14.0427   21.3166 N   0  0  0  0  0  0  0  0  0  0  0  0
   13.8818  -14.9349   20.6092 C   0  0  0  0  0  0  0  0  0  0  0  0
   14.0033  -15.0505   19.3778 O   0  0  0  0  0  0  0  0  0  0  0  0
   12.8770  -15.7206   21.3413 C   0  0  0  0  0  0  0  0  0  0  0  0
   11.5205  -15.1829   21.0383 C   0  0  0  0  0  0  0  0  0  0  0  0
   10.4030  -15.9501   21.7100 C   0  0  2  0  0  0  0  0  0  0  0  0
    9.1003  -15.4609   21.3179 N   0  0  0  0  0  0  0  0  0  0  0  0
   10.5677  -15.7380   23.1660 C   0  0  0  0  0  0  0  0  0  0  0  0
   11.4556  -14.9435   23.5543 O   0  0  0  0  0  0  0  0  0  0  0  0
    9.7329  -16.4247   24.0878 N   0  0  0  0  0  0  0  0  0  0  0  0
   10.0210  -16.3041   25.4946 C   0  0  1  0  0  0  0  0  0  0  0  0
    8.7973  -16.5737   26.3474 C   0  0  0  0  0  0  0  0  0  0  0  0
    7.7417  -15.6281   25.9262 C   0  0  0  0  0  0  0  0  0  0  0  0
    6.6258  -15.8649   25.1778 C   0  0  0  0  0  0  0  0  0  0  0  0
    5.9137  -14.7398   25.0096 N   0  0  0  0  0  0  0  0  0  0  0  0
    6.5541  -13.7502   25.6462 C   0  0  0  0  0  0  0  0  0  0  0  0
    6.2983  -12.4055   25.8141 C   0  0  0  0  0  0  0  0  0  0  0  0
    7.1379  -11.5730   26.5363 C   0  0  0  0  0  0  0  0  0  0  0  0
    8.2748  -12.0945   27.1139 C   0  0  0  0  0  0  0  0  0  0  0  0
    8.5348  -13.4412   26.9480 C   0  0  0  0  0  0  0  0  0  0  0  0
    7.7096  -14.2853   26.2319 C   0  0  0  0  0  0  0  0  0  0  0  0
   11.1006  -17.2869   25.8155 C   0  0  0  0  0  0  0  0  0  0  0  0
   11.6912  -17.3038   27.0667 O   0  0  0  0  0  0  0  0  0  0  0  0
   11.5168  -18.1303   24.9798 O   0  0  0  0  0  0  0  0  0  0  0  0
  2  1  1  6
  2  3  1  0
  4  2  1  0
  5  4  2  0
  7  9  1  0
  7  6  1  0
  8  7  2  0
 11 10  1  6
 10  9  1  0
 11 12  1  0
 12  4  1  0
 13 14  2  0
 13 11  1  0
 15 13  1  0
 16 15  1  0
 16 17  1  1
 18 26  1  0
 18 17  1  0
 19 18  2  0
 20 19  1  0
 20 21  1  0
 21 22  1  0
 21 26  2  0
 22 23  2  0
 23 24  1  0
 25 24  2  0
 26 25  1  0
 27 28  1  0
 27 16  1  0
 29 27  2  0
M  END
$$$$
