AQW.pdb
     RDKit          3D

 29 30  0  0  1  0  0  0  0  0999 V2000
 -107.5853 -155.2815  102.6875 C   0  0  0  0  0  0  0  0  0  0  0  0
 -107.4228 -155.5734  104.1400 C   0  0  2  0  0  0  0  0  0  0  0  0
 -106.1825 -156.2191  104.4863 N   0  0  0  0  0  0  0  0  0  0  0  0
 -108.5369 -156.4643  104.5729 C   0  0  0  0  0  0  0  0  0  0  0  0
 -108.4813 -157.6683  104.2046 O   0  0  0  0  0  0  0  0  0  0  0  0
 -109.3658 -160.5594  105.1383 N   0  0  0  0  0  0  0  0  0  0  0  0
 -109.6575 -159.6253  106.1529 C   0  0  0  0  0  0  0  0  0  0  0  0
 -110.8088 -159.5519  106.6151 O   0  0  0  0  0  0  0  0  0  0  0  0
 -108.5904 -158.7457  106.6535 C   0  0  0  0  0  0  0  0  0  0  0  0
 -109.2019 -157.5155  107.2313 C   0  0  0  0  0  0  0  0  0  0  0  0
 -110.2295 -156.8705  106.3277 C   0  0  2  0  0  0  0  0  0  0  0  0
 -109.6205 -155.9743  105.3707 N   0  0  0  0  0  0  0  0  0  0  0  0
 -111.1237 -156.0841  107.2074 C   0  0  0  0  0  0  0  0  0  0  0  0
 -110.8390 -154.8830  107.4237 O   0  0  0  0  0  0  0  0  0  0  0  0
 -112.2720 -156.6892  107.7848 N   0  0  0  0  0  0  0  0  0  0  0  0
 -113.5295 -156.5744  107.0904 C   0  0  1  0  0  0  0  0  0  0  0  0
 -113.3446 -156.5503  105.5862 C   0  0  0  0  0  0  0  0  0  0  0  0
 -114.6774 -156.7199  104.9691 C   0  0  0  0  0  0  0  0  0  0  0  0
 -115.3420 -155.8857  104.1184 C   0  0  0  0  0  0  0  0  0  0  0  0
 -116.5363 -156.3968  103.7815 N   0  0  0  0  0  0  0  0  0  0  0  0
 -116.6701 -157.5736  104.4075 C   0  0  0  0  0  0  0  0  0  0  0  0
 -117.6665 -158.5265  104.4381 C   0  0  0  0  0  0  0  0  0  0  0  0
 -117.5612 -159.6896  105.1836 C   0  0  0  0  0  0  0  0  0  0  0  0
 -116.4237 -159.9158  105.9272 C   0  0  0  0  0  0  0  0  0  0  0  0
 -115.4230 -158.9637  105.8994 C   0  0  0  0  0  0  0  0  0  0  0  0
 -115.5110 -157.7995  105.1625 C   0  0  0  0  0  0  0  0  0  0  0  0
 -114.3686 -157.7456  107.4888 C   0  0  0  0  0  0  0  0  0  0  0  0
 -115.6397 -157.5613  108.0036 O   0  0  0  0  0  0  0  0  0  0  0  0
 -113.9677 -158.9330  107.3776 O   0  0  0  0  0  0  0  0  0  0  0  0
  2  1  1  6
  2  3  1  0
  4  2  1  0
  5  4  2  0
  7  9  1  0
  7  6  1  0
  8  7  2  0
 11 10  1  1
 10  9  1  0
 11 12  1  0
 12  4  1  0
 13 14  2  0
 13 11  1  0
 15 13  1  0
 16 15  1  0
 16 17  1  6
 18 26  1  0
 18 17  1  0
 19 18  2  0
 20 19  1  0
 20 21  1  0
 21 22  1  0
 21 26  2  0
 22 23  2  0
 23 24  1  0
 25 24  2  0
 26 25  1  0
 27 28  1  0
 27 16  1  0
 29 27  2  0
M  END
$$$$
