DYP.pdb
     RDKit          3D

 28 29  0  0  1  0  0  0  0  0999 V2000
   22.2776  -10.4962  -17.1638 N   0  0  0  0  0  0  0  0  0  0  0  0
   20.8982  -10.2246  -16.9220 C   0  0  1  0  0  0  0  0  0  0  0  0
   19.9827  -11.3418  -17.2943 C   0  0  0  0  0  0  0  0  0  0  0  0
   19.9355  -11.6703  -18.7247 C   0  0  0  0  0  0  0  0  0  0  0  0
   19.4396  -12.7533  -19.1215 O   0  0  0  0  0  0  0  0  0  0  0  0
   20.5941   -9.7741  -15.5473 C   0  0  0  0  0  0  0  0  0  0  0  0
   21.2569  -10.2438  -14.5869 O   0  0  0  0  0  0  0  0  0  0  0  0
   20.4400  -10.7824  -19.6597 O   0  0  0  0  0  0  0  0  0  0  0  0
   19.5748   -5.1595   -8.3803 O   0  0  0  0  0  0  0  0  0  0  0  0
   19.7585   -5.6521   -9.6688 C   0  0  0  0  0  0  0  0  0  0  0  0
   20.6358   -6.6867   -9.8890 C   0  0  0  0  0  0  0  0  0  0  0  0
   20.8176   -7.1776  -11.1804 C   0  0  0  0  0  0  0  0  0  0  0  0
   20.1268   -6.6336  -12.2266 C   0  0  0  0  0  0  0  0  0  0  0  0
   20.3210   -7.1529  -13.5895 C   0  0  0  0  0  0  0  0  0  0  0  0
   19.3875   -8.3541  -13.8655 C   0  0  2  0  0  0  0  0  0  0  0  0
   19.5826   -8.8246  -15.2094 N   0  0  0  0  0  0  0  0  0  0  0  0
   18.0229   -8.0415  -13.4558 C   0  0  0  0  0  0  0  0  0  0  0  0
   17.4238   -7.1113  -14.1251 O   0  0  0  0  0  0  0  0  0  0  0  0
   19.2540   -5.6027  -12.0013 C   0  0  0  0  0  0  0  0  0  0  0  0
   19.0612   -5.0999  -10.7102 C   0  0  0  0  0  0  0  0  0  0  0  0
   17.2488   -8.6138  -12.4222 N   0  0  0  0  0  0  0  0  0  0  0  0
   17.7267   -9.4769  -11.3875 C   0  0  0  0  0  0  0  0  0  0  0  0
   16.8651   -9.0859  -10.1768 C   0  0  0  0  0  0  0  0  0  0  0  0
   15.5024   -9.0482  -10.8801 C   0  0  0  0  0  0  0  0  0  0  0  0
   15.8157   -8.4242  -12.2128 C   0  0  1  0  0  0  0  0  0  0  0  0
   15.4729   -6.9855  -12.1026 C   0  0  0  0  0  0  0  0  0  0  0  0
   16.3971   -6.2083  -11.7528 O   0  0  0  0  0  0  0  0  0  0  0  0
   14.2368   -6.4543  -12.3521 O   0  0  0  0  0  0  0  0  0  0  0  0
  2  1  1  1
  2  3  1  0
  3  4  1  0
  4  8  1  0
  5  4  2  0
  6  2  1  0
  7  6  2  0
  9 10  1  0
 10 11  2  0
 10 20  1  0
 11 12  1  0
 12 13  2  0
 13 14  1  0
 15 14  1  6
 15 16  1  0
 15 17  1  0
 16  6  1  0
 17 18  2  0
 19 13  1  0
 20 19  2  0
 21 17  1  0
 21 25  1  0
 22 23  1  0
 22 21  1  0
 23 24  1  0
 24 25  1  0
 25 26  1  1
 26 28  1  0
 27 26  2  0
M  END
$$$$
