DYP.pdb
     RDKit          3D

 28 29  0  0  1  0  0  0  0  0999 V2000
   20.7332   -8.7432  -17.5627 N   0  0  0  0  0  0  0  0  0  0  0  0
   20.9085   -7.3614  -17.8713 C   0  0  1  0  0  0  0  0  0  0  0  0
   20.2118   -6.9216  -19.1147 C   0  0  0  0  0  0  0  0  0  0  0  0
   20.5764   -7.6517  -20.3355 C   0  0  0  0  0  0  0  0  0  0  0  0
   21.7212   -8.1487  -20.4718 O   0  0  0  0  0  0  0  0  0  0  0  0
   20.5741   -6.4394  -16.7652 C   0  0  0  0  0  0  0  0  0  0  0  0
   19.5258   -6.6357  -16.0983 O   0  0  0  0  0  0  0  0  0  0  0  0
   19.6547   -7.8026  -21.3576 O   0  0  0  0  0  0  0  0  0  0  0  0
   21.2945   -9.6169  -11.5735 O   0  0  0  0  0  0  0  0  0  0  0  0
   21.4754   -8.3898  -12.2045 C   0  0  0  0  0  0  0  0  0  0  0  0
   20.7963   -7.2818  -11.7574 C   0  0  0  0  0  0  0  0  0  0  0  0
   20.9796   -6.0547  -12.3915 C   0  0  0  0  0  0  0  0  0  0  0  0
   21.8314   -5.9503  -13.4551 C   0  0  0  0  0  0  0  0  0  0  0  0
   22.0226   -4.6538  -14.1237 C   0  0  0  0  0  0  0  0  0  0  0  0
   21.0079   -4.4665  -15.2752 C   0  0  2  0  0  0  0  0  0  0  0  0
   21.3632   -5.3131  -16.3808 N   0  0  0  0  0  0  0  0  0  0  0  0
   20.8108   -3.0481  -15.5527 C   0  0  0  0  0  0  0  0  0  0  0  0
   21.8645   -2.3804  -15.8934 O   0  0  0  0  0  0  0  0  0  0  0  0
   22.5054   -7.0578  -13.8964 C   0  0  0  0  0  0  0  0  0  0  0  0
   22.3314   -8.2961  -13.2694 C   0  0  0  0  0  0  0  0  0  0  0  0
   19.6221   -2.2867  -15.5046 N   0  0  0  0  0  0  0  0  0  0  0  0
   18.3116   -2.7830  -15.2217 C   0  0  0  0  0  0  0  0  0  0  0  0
   17.6571   -1.6282  -14.4476 C   0  0  0  0  0  0  0  0  0  0  0  0
   18.1012   -0.4752  -15.3566 C   0  0  0  0  0  0  0  0  0  0  0  0
   19.5111   -0.8473  -15.7273 C   0  0  1  0  0  0  0  0  0  0  0  0
   20.4061   -0.0908  -14.8186 C   0  0  0  0  0  0  0  0  0  0  0  0
   20.5023    1.1466  -15.0190 O   0  0  0  0  0  0  0  0  0  0  0  0
   21.1241   -0.6404  -13.7915 O   0  0  0  0  0  0  0  0  0  0  0  0
  2  1  1  1
  2  3  1  0
  3  4  1  0
  4  8  1  0
  5  4  2  0
  6  2  1  0
  7  6  2  0
  9 10  1  0
 10 11  2  0
 10 20  1  0
 11 12  1  0
 12 13  2  0
 13 14  1  0
 15 14  1  1
 15 16  1  0
 15 17  1  0
 16  6  1  0
 17 18  2  0
 19 13  1  0
 20 19  2  0
 21 17  1  0
 21 25  1  0
 22 23  1  0
 22 21  1  0
 23 24  1  0
 24 25  1  0
 25 26  1  1
 26 28  1  0
 27 26  2  0
M  END
$$$$
