DYP.pdb
     RDKit          3D

 28 29  0  0  1  0  0  0  0  0999 V2000
   20.6298  -20.1345  -11.1333 N   0  0  0  0  0  0  0  0  0  0  0  0
   21.2924  -20.7078  -12.2591 C   0  0  1  0  0  0  0  0  0  0  0  0
   20.6464  -20.4005  -13.5679 C   0  0  0  0  0  0  0  0  0  0  0  0
   19.3132  -20.9827  -13.7669 C   0  0  0  0  0  0  0  0  0  0  0  0
   18.3179  -20.2519  -13.9937 O   0  0  0  0  0  0  0  0  0  0  0  0
   22.7375  -20.4063  -12.3385 C   0  0  0  0  0  0  0  0  0  0  0  0
   23.1199  -19.2104  -12.2625 O   0  0  0  0  0  0  0  0  0  0  0  0
   19.1370  -22.3548  -13.7073 O   0  0  0  0  0  0  0  0  0  0  0  0
   27.2397  -19.1717   -6.8194 O   0  0  0  0  0  0  0  0  0  0  0  0
   26.9183  -19.8579   -7.9867 C   0  0  0  0  0  0  0  0  0  0  0  0
   25.6072  -20.1610   -8.2654 C   0  0  0  0  0  0  0  0  0  0  0  0
   25.2887  -20.8483   -9.4349 C   0  0  0  0  0  0  0  0  0  0  0  0
   26.2753  -21.2212  -10.3039 C   0  0  0  0  0  0  0  0  0  0  0  0
   25.9369  -21.9477  -11.5378 C   0  0  0  0  0  0  0  0  0  0  0  0
   25.1587  -21.0427  -12.5207 C   0  0  2  0  0  0  0  0  0  0  0  0
   23.7634  -21.3863  -12.4995 N   0  0  0  0  0  0  0  0  0  0  0  0
   25.8228  -21.0143  -13.8191 C   0  0  0  0  0  0  0  0  0  0  0  0
   25.6786  -22.0655  -14.5583 O   0  0  0  0  0  0  0  0  0  0  0  0
   27.5802  -20.9167  -10.0211 C   0  0  0  0  0  0  0  0  0  0  0  0
   27.9146  -20.2270   -8.8509 C   0  0  0  0  0  0  0  0  0  0  0  0
   26.6100  -19.9931  -14.3960 N   0  0  0  0  0  0  0  0  0  0  0  0
   26.9525  -18.7452  -13.7885 C   0  0  0  0  0  0  0  0  0  0  0  0
   28.3714  -18.4759  -14.3131 C   0  0  0  0  0  0  0  0  0  0  0  0
   28.1299  -18.8226  -15.7875 C   0  0  0  0  0  0  0  0  0  0  0  0
   27.2280  -20.0250  -15.7192 C   0  0  1  0  0  0  0  0  0  0  0  0
   28.0933  -21.2185  -15.8811 C   0  0  0  0  0  0  0  0  0  0  0  0
   28.4411  -21.8129  -14.8294 O   0  0  0  0  0  0  0  0  0  0  0  0
   28.5324  -21.7095  -17.0805 O   0  0  0  0  0  0  0  0  0  0  0  0
  2  1  1  1
  2  3  1  0
  3  4  1  0
  4  8  1  0
  5  4  2  0
  6  2  1  0
  7  6  2  0
  9 10  1  0
 10 11  2  0
 10 20  1  0
 11 12  1  0
 12 13  2  0
 13 14  1  0
 15 14  1  1
 15 16  1  0
 15 17  1  0
 16  6  1  0
 17 18  2  0
 19 13  1  0
 20 19  2  0
 21 17  1  0
 21 25  1  0
 22 23  1  0
 22 21  1  0
 23 24  1  0
 24 25  1  0
 25 26  1  1
 26 28  1  0
 27 26  2  0
M  END
$$$$
