DYP.pdb
     RDKit          3D

 28 29  0  0  1  0  0  0  0  0999 V2000
   20.8133  -20.5486  -12.3263 N   0  0  0  0  0  0  0  0  0  0  0  0
   21.4837  -20.4832  -13.5839 C   0  0  1  0  0  0  0  0  0  0  0  0
   20.8459  -19.5606  -14.5672 C   0  0  0  0  0  0  0  0  0  0  0  0
   19.5436  -19.9946  -15.0885 C   0  0  0  0  0  0  0  0  0  0  0  0
   19.2807  -21.2137  -15.2327 O   0  0  0  0  0  0  0  0  0  0  0  0
   22.9290  -20.1860  -13.4931 C   0  0  0  0  0  0  0  0  0  0  0  0
   23.2980  -19.0386  -13.1329 O   0  0  0  0  0  0  0  0  0  0  0  0
   18.5827  -19.0574  -15.4286 O   0  0  0  0  0  0  0  0  0  0  0  0
   25.7487  -19.8589   -7.4547 O   0  0  0  0  0  0  0  0  0  0  0  0
   25.8353  -20.3178   -8.7657 C   0  0  0  0  0  0  0  0  0  0  0  0
   26.9897  -20.1238   -9.4856 C   0  0  0  0  0  0  0  0  0  0  0  0
   27.0731  -20.5843  -10.7980 C   0  0  0  0  0  0  0  0  0  0  0  0
   26.0115  -21.2272  -11.3702 C   0  0  0  0  0  0  0  0  0  0  0  0
   26.1015  -21.7118  -12.7565 C   0  0  0  0  0  0  0  0  0  0  0  0
   25.3606  -20.7630  -13.7268 C   0  0  2  0  0  0  0  0  0  0  0  0
   23.9694  -21.1181  -13.7889 N   0  0  0  0  0  0  0  0  0  0  0  0
   26.0840  -20.6618  -14.9894 C   0  0  0  0  0  0  0  0  0  0  0  0
   26.0125  -21.6878  -15.7732 O   0  0  0  0  0  0  0  0  0  0  0  0
   24.8636  -21.4177  -10.6482 C   0  0  0  0  0  0  0  0  0  0  0  0
   24.7657  -20.9609   -9.3296 C   0  0  0  0  0  0  0  0  0  0  0  0
   26.8607  -19.5930  -15.4890 N   0  0  0  0  0  0  0  0  0  0  0  0
   27.1394  -18.3636  -14.8147 C   0  0  0  0  0  0  0  0  0  0  0  0
   28.5688  -18.0291  -15.2688 C   0  0  0  0  0  0  0  0  0  0  0  0
   28.3967  -18.3171  -16.7655 C   0  0  0  0  0  0  0  0  0  0  0  0
   27.5312  -19.5476  -16.7860 C   0  0  1  0  0  0  0  0  0  0  0  0
   28.4394  -20.7064  -16.9639 C   0  0  0  0  0  0  0  0  0  0  0  0
   28.6884  -21.3933  -15.9408 O   0  0  0  0  0  0  0  0  0  0  0  0
   29.0167  -21.0734  -18.1491 O   0  0  0  0  0  0  0  0  0  0  0  0
  2  1  1  1
  2  3  1  0
  3  4  1  0
  4  8  1  0
  5  4  2  0
  6  2  1  0
  7  6  2  0
  9 10  1  0
 10 11  2  0
 10 20  1  0
 11 12  1  0
 12 13  2  0
 13 14  1  0
 15 14  1  1
 15 16  1  0
 15 17  1  0
 16  6  1  0
 17 18  2  0
 19 13  1  0
 20 19  2  0
 21 17  1  0
 21 25  1  0
 22 23  1  0
 22 21  1  0
 23 24  1  0
 24 25  1  0
 25 26  1  1
 26 28  1  0
 27 26  2  0
M  END
$$$$
