DYP.pdb
     RDKit          3D

 28 29  0  0  1  0  0  0  0  0999 V2000
   21.0710  -17.9611  -14.8613 N   0  0  0  0  0  0  0  0  0  0  0  0
   21.8282  -19.0891  -15.2964 C   0  0  1  0  0  0  0  0  0  0  0  0
   21.3433  -19.6936  -16.5709 C   0  0  0  0  0  0  0  0  0  0  0  0
   20.1504  -20.5419  -16.4544 C   0  0  0  0  0  0  0  0  0  0  0  0
   19.5476  -20.6599  -15.3594 O   0  0  0  0  0  0  0  0  0  0  0  0
   23.2847  -18.8523  -15.3848 C   0  0  0  0  0  0  0  0  0  0  0  0
   23.7060  -17.8477  -16.0139 O   0  0  0  0  0  0  0  0  0  0  0  0
   19.6721  -21.2258  -17.5593 O   0  0  0  0  0  0  0  0  0  0  0  0
   23.2373  -21.6523   -9.4806 O   0  0  0  0  0  0  0  0  0  0  0  0
   23.9813  -21.0162  -10.4698 C   0  0  0  0  0  0  0  0  0  0  0  0
   23.4577  -19.9312  -11.1309 C   0  0  0  0  0  0  0  0  0  0  0  0
   24.2052  -19.2965  -12.1209 C   0  0  0  0  0  0  0  0  0  0  0  0
   25.4555  -19.7497  -12.4356 C   0  0  0  0  0  0  0  0  0  0  0  0
   26.2426  -19.0787  -13.4820 C   0  0  0  0  0  0  0  0  0  0  0  0
   25.6842  -19.3967  -14.8883 C   0  0  2  0  0  0  0  0  0  0  0  0
   24.2805  -19.6923  -14.8004 N   0  0  0  0  0  0  0  0  0  0  0  0
   26.5339  -20.3714  -15.5635 C   0  0  0  0  0  0  0  0  0  0  0  0
   26.3236  -21.6133  -15.2707 O   0  0  0  0  0  0  0  0  0  0  0  0
   25.9722  -20.8315  -11.7736 C   0  0  0  0  0  0  0  0  0  0  0  0
   25.2334  -21.4783  -10.7774 C   0  0  0  0  0  0  0  0  0  0  0  0
   27.5656  -20.1553  -16.5038 N   0  0  0  0  0  0  0  0  0  0  0  0
   28.0868  -18.8876  -16.9099 C   0  0  0  0  0  0  0  0  0  0  0  0
   29.5776  -19.1781  -17.1431 C   0  0  0  0  0  0  0  0  0  0  0  0
   29.4257  -20.4827  -17.9353 C   0  0  0  0  0  0  0  0  0  0  0  0
   28.2986  -21.1883  -17.2314 C   0  0  1  0  0  0  0  0  0  0  0  0
   28.9186  -22.1644  -16.3030 C   0  0  0  0  0  0  0  0  0  0  0  0
   28.8936  -21.8770  -15.0793 O   0  0  0  0  0  0  0  0  0  0  0  0
   29.5076  -23.3399  -16.6823 O   0  0  0  0  0  0  0  0  0  0  0  0
  2  1  1  6
  2  3  1  0
  3  4  1  0
  4  8  1  0
  5  4  2  0
  6  2  1  0
  7  6  2  0
  9 10  1  0
 10 11  2  0
 10 20  1  0
 11 12  1  0
 12 13  2  0
 13 14  1  0
 15 14  1  1
 15 16  1  0
 15 17  1  0
 16  6  1  0
 17 18  2  0
 19 13  1  0
 20 19  2  0
 21 17  1  0
 21 25  1  0
 22 23  1  0
 22 21  1  0
 23 24  1  0
 24 25  1  0
 25 26  1  1
 26 28  1  0
 27 26  2  0
M  END
$$$$
