DYP.pdb
     RDKit          3D

 28 29  0  0  1  0  0  0  0  0999 V2000
   17.8329  -12.1468  -20.2177 N   0  0  0  0  0  0  0  0  0  0  0  0
   17.6938  -12.0268  -18.8029 C   0  0  1  0  0  0  0  0  0  0  0  0
   18.2140  -13.1969  -18.0381 C   0  0  0  0  0  0  0  0  0  0  0  0
   17.5153  -14.4668  -18.2731 C   0  0  0  0  0  0  0  0  0  0  0  0
   16.2805  -14.4911  -18.4985 O   0  0  0  0  0  0  0  0  0  0  0  0
   18.2496  -10.7796  -18.2363 C   0  0  0  0  0  0  0  0  0  0  0  0
   19.3278  -10.3237  -18.6964 O   0  0  0  0  0  0  0  0  0  0  0  0
   18.2155  -15.6611  -18.2497 O   0  0  0  0  0  0  0  0  0  0  0  0
   17.6046   -5.7178  -22.0949 O   0  0  0  0  0  0  0  0  0  0  0  0
   17.5420   -6.1915  -20.7878 C   0  0  0  0  0  0  0  0  0  0  0  0
   16.5765   -7.1033  -20.4341 C   0  0  0  0  0  0  0  0  0  0  0  0
   16.5165   -7.5755  -19.1245 C   0  0  0  0  0  0  0  0  0  0  0  0
   17.4137   -7.1349  -18.1926 C   0  0  0  0  0  0  0  0  0  0  0  0
   17.3478   -7.6342  -16.8102 C   0  0  0  0  0  0  0  0  0  0  0  0
   18.2683   -8.8615  -16.6173 C   0  0  2  0  0  0  0  0  0  0  0  0
   17.6483  -10.0293  -17.1806 N   0  0  0  0  0  0  0  0  0  0  0  0
   18.7212   -8.9441  -15.2333 C   0  0  0  0  0  0  0  0  0  0  0  0
   17.8452   -9.3383  -14.3675 O   0  0  0  0  0  0  0  0  0  0  0  0
   18.3736   -6.2261  -18.5506 C   0  0  0  0  0  0  0  0  0  0  0  0
   18.4460   -5.7435  -19.8616 C   0  0  0  0  0  0  0  0  0  0  0  0
   19.9933   -8.6540  -14.6924 N   0  0  0  0  0  0  0  0  0  0  0  0
   21.1222   -8.1506  -15.4108 C   0  0  0  0  0  0  0  0  0  0  0  0
   21.8101   -7.2333  -14.3879 C   0  0  0  0  0  0  0  0  0  0  0  0
   21.7496   -8.1715  -13.1760 C   0  0  0  0  0  0  0  0  0  0  0  0
   20.3910   -8.8070  -13.2951 C   0  0  1  0  0  0  0  0  0  0  0  0
   19.4864   -8.0550  -12.3920 C   0  0  0  0  0  0  0  0  0  0  0  0
   18.8508   -7.0954  -12.8975 O   0  0  0  0  0  0  0  0  0  0  0  0
   19.2995   -8.3309  -11.0648 O   0  0  0  0  0  0  0  0  0  0  0  0
  2  1  1  6
  2  3  1  0
  3  4  1  0
  4  8  1  0
  5  4  2  0
  6  2  1  0
  7  6  2  0
  9 10  1  0
 10 11  2  0
 10 20  1  0
 11 12  1  0
 12 13  2  0
 13 14  1  0
 15 14  1  1
 15 16  1  0
 15 17  1  0
 16  6  1  0
 17 18  2  0
 19 13  1  0
 20 19  2  0
 21 17  1  0
 21 25  1  0
 22 23  1  0
 22 21  1  0
 23 24  1  0
 24 25  1  0
 25 26  1  1
 26 28  1  0
 27 26  2  0
M  END
$$$$
