DYP.pdb
     RDKit          3D

 28 29  0  0  1  0  0  0  0  0999 V2000
   24.2230  -19.6362  -18.9551 N   0  0  0  0  0  0  0  0  0  0  0  0
   23.0040  -19.1423  -18.4026 C   0  0  1  0  0  0  0  0  0  0  0  0
   21.8287  -19.2649  -19.3128 C   0  0  0  0  0  0  0  0  0  0  0  0
   21.6557  -18.1674  -20.2730 C   0  0  0  0  0  0  0  0  0  0  0  0
   21.9696  -16.9902  -19.9699 O   0  0  0  0  0  0  0  0  0  0  0  0
   22.6621  -19.6994  -17.0766 C   0  0  0  0  0  0  0  0  0  0  0  0
   22.7346  -20.9422  -16.8960 O   0  0  0  0  0  0  0  0  0  0  0  0
   21.1415  -18.4201  -21.5335 O   0  0  0  0  0  0  0  0  0  0  0  0
   21.2720  -21.1711   -8.6061 O   0  0  0  0  0  0  0  0  0  0  0  0
   21.5364  -20.5500   -9.8231 C   0  0  0  0  0  0  0  0  0  0  0  0
   20.7715  -19.4829  -10.2290 C   0  0  0  0  0  0  0  0  0  0  0  0
   21.0387  -18.8634  -11.4482 C   0  0  0  0  0  0  0  0  0  0  0  0
   22.0576  -19.3136  -12.2399 C   0  0  0  0  0  0  0  0  0  0  0  0
   22.3373  -18.6586  -13.5273 C   0  0  0  0  0  0  0  0  0  0  0  0
   21.8435  -19.5230  -14.7104 C   0  0  2  0  0  0  0  0  0  0  0  0
   22.2444  -18.9232  -15.9534 N   0  0  0  0  0  0  0  0  0  0  0  0
   20.4308  -19.8477  -14.5472 C   0  0  0  0  0  0  0  0  0  0  0  0
   19.6062  -18.8527  -14.5944 O   0  0  0  0  0  0  0  0  0  0  0  0
   22.8164  -20.3775  -11.8305 C   0  0  0  0  0  0  0  0  0  0  0  0
   22.5598  -21.0091  -10.6089 C   0  0  0  0  0  0  0  0  0  0  0  0
   19.8227  -21.1062  -14.3436 N   0  0  0  0  0  0  0  0  0  0  0  0
   20.4998  -22.3506  -14.1515 C   0  0  0  0  0  0  0  0  0  0  0  0
   19.5901  -23.0977  -13.1639 C   0  0  0  0  0  0  0  0  0  0  0  0
   18.2442  -22.7997  -13.8366 C   0  0  0  0  0  0  0  0  0  0  0  0
   18.3873  -21.3701  -14.2833 C   0  0  1  0  0  0  0  0  0  0  0  0
   17.7281  -20.5319  -13.2527 C   0  0  0  0  0  0  0  0  0  0  0  0
   18.4494  -20.1260  -12.3064 O   0  0  0  0  0  0  0  0  0  0  0  0
   16.4069  -20.1756  -13.2616 O   0  0  0  0  0  0  0  0  0  0  0  0
  2  1  1  6
  2  3  1  0
  3  4  1  0
  4  8  1  0
  5  4  2  0
  6  2  1  0
  7  6  2  0
  9 10  1  0
 10 11  2  0
 10 20  1  0
 11 12  1  0
 12 13  2  0
 13 14  1  0
 15 14  1  1
 15 16  1  0
 15 17  1  0
 16  6  1  0
 17 18  2  0
 19 13  1  0
 20 19  2  0
 21 17  1  0
 21 25  1  0
 22 23  1  0
 22 21  1  0
 23 24  1  0
 24 25  1  0
 25 26  1  1
 26 28  1  0
 27 26  2  0
M  END
$$$$
