DYP.pdb
     RDKit          3D

 28 29  0  0  1  0  0  0  0  0999 V2000
   30.0732  -22.4051  -18.4974 N   0  0  0  0  0  0  0  0  0  0  0  0
   29.2377  -21.3032  -18.1470 C   0  0  1  0  0  0  0  0  0  0  0  0
   28.3552  -20.8316  -19.2532 C   0  0  0  0  0  0  0  0  0  0  0  0
   29.0489  -20.2749  -20.4215 C   0  0  0  0  0  0  0  0  0  0  0  0
   28.9731  -20.8338  -21.5431 O   0  0  0  0  0  0  0  0  0  0  0  0
   28.4310  -21.5100  -16.9255 C   0  0  0  0  0  0  0  0  0  0  0  0
   27.8999  -22.6323  -16.7237 O   0  0  0  0  0  0  0  0  0  0  0  0
   29.7994  -19.1178  -20.2991 O   0  0  0  0  0  0  0  0  0  0  0  0
   24.6158  -20.8175   -9.0638 O   0  0  0  0  0  0  0  0  0  0  0  0
   25.3870  -20.5679  -10.1951 C   0  0  0  0  0  0  0  0  0  0  0  0
   26.5542  -21.2645  -10.3970 C   0  0  0  0  0  0  0  0  0  0  0  0
   27.3241  -21.0121  -11.5307 C   0  0  0  0  0  0  0  0  0  0  0  0
   26.9221  -20.0751  -12.4406 C   0  0  0  0  0  0  0  0  0  0  0  0
   27.7371  -19.8096  -13.6364 C   0  0  0  0  0  0  0  0  0  0  0  0
   27.3342  -20.7416  -14.8025 C   0  0  2  0  0  0  0  0  0  0  0  0
   28.1975  -20.5145  -15.9289 N   0  0  0  0  0  0  0  0  0  0  0  0
   25.8959  -20.6716  -15.0350 C   0  0  0  0  0  0  0  0  0  0  0  0
   25.4427  -19.5450  -15.4796 O   0  0  0  0  0  0  0  0  0  0  0  0
   25.7581  -19.3838  -12.2343 C   0  0  0  0  0  0  0  0  0  0  0  0
   24.9750  -19.6268  -11.1009 C   0  0  0  0  0  0  0  0  0  0  0  0
   24.9122  -21.6671  -14.8445 N   0  0  0  0  0  0  0  0  0  0  0  0
   25.1448  -23.0184  -14.4398 C   0  0  0  0  0  0  0  0  0  0  0  0
   23.9182  -23.3426  -13.5729 C   0  0  0  0  0  0  0  0  0  0  0  0
   22.8386  -22.7597  -14.4935 C   0  0  0  0  0  0  0  0  0  0  0  0
   23.4715  -21.4995  -15.0179 C   0  0  1  0  0  0  0  0  0  0  0  0
   22.9551  -20.3842  -14.1880 C   0  0  0  0  0  0  0  0  0  0  0  0
   23.7519  -19.8811  -13.3559 O   0  0  0  0  0  0  0  0  0  0  0  0
   21.6882  -19.8728  -14.2655 O   0  0  0  0  0  0  0  0  0  0  0  0
  2  1  1  6
  2  3  1  0
  3  4  1  0
  4  8  1  0
  5  4  2  0
  6  2  1  0
  7  6  2  0
  9 10  1  0
 10 11  2  0
 10 20  1  0
 11 12  1  0
 12 13  2  0
 13 14  1  0
 15 14  1  1
 15 16  1  0
 15 17  1  0
 16  6  1  0
 17 18  2  0
 19 13  1  0
 20 19  2  0
 21 17  1  0
 21 25  1  0
 22 23  1  0
 22 21  1  0
 23 24  1  0
 24 25  1  0
 25 26  1  1
 26 28  1  0
 27 26  2  0
M  END
$$$$
