DYP.pdb
     RDKit          3D

 28 29  0  0  1  0  0  0  0  0999 V2000
   20.4113  -12.5566  -20.4619 N   0  0  0  0  0  0  0  0  0  0  0  0
   20.8623  -12.8906  -19.1503 C   0  0  1  0  0  0  0  0  0  0  0  0
   21.9211  -13.9408  -19.1190 C   0  0  0  0  0  0  0  0  0  0  0  0
   21.6067  -15.1772  -19.8460 C   0  0  0  0  0  0  0  0  0  0  0  0
   20.4795  -15.3469  -20.3721 O   0  0  0  0  0  0  0  0  0  0  0  0
   21.2902  -11.7333  -18.3362 C   0  0  0  0  0  0  0  0  0  0  0  0
   21.6985  -11.9263  -17.1621 O   0  0  0  0  0  0  0  0  0  0  0  0
   22.5572  -16.1774  -19.9617 O   0  0  0  0  0  0  0  0  0  0  0  0
   23.7415   -3.8494  -15.4085 O   0  0  0  0  0  0  0  0  0  0  0  0
   23.4098   -4.9280  -16.2230 C   0  0  0  0  0  0  0  0  0  0  0  0
   24.1776   -6.0674  -16.1988 C   0  0  0  0  0  0  0  0  0  0  0  0
   23.8429   -7.1456  -17.0157 C   0  0  0  0  0  0  0  0  0  0  0  0
   22.7549   -7.0727  -17.8394 C   0  0  0  0  0  0  0  0  0  0  0  0
   22.4039   -8.2119  -18.7018 C   0  0  0  0  0  0  0  0  0  0  0  0
   21.6058   -9.2786  -17.9170 C   0  0  2  0  0  0  0  0  0  0  0  0
   21.2776  -10.3773  -18.7834 N   0  0  0  0  0  0  0  0  0  0  0  0
   20.5118   -8.6548  -17.1811 C   0  0  0  0  0  0  0  0  0  0  0  0
   19.5452   -8.1735  -17.8927 O   0  0  0  0  0  0  0  0  0  0  0  0
   21.9934   -5.9347  -17.8596 C   0  0  0  0  0  0  0  0  0  0  0  0
   22.3174   -4.8446  -17.0448 C   0  0  0  0  0  0  0  0  0  0  0  0
   20.3501   -8.4979  -15.7867 N   0  0  0  0  0  0  0  0  0  0  0  0
   21.2706   -8.9181  -14.7768 C   0  0  0  0  0  0  0  0  0  0  0  0
   21.1324   -7.8307  -13.6999 C   0  0  0  0  0  0  0  0  0  0  0  0
   19.6012   -7.7476  -13.6671 C   0  0  0  0  0  0  0  0  0  0  0  0
   19.2148   -7.8694  -15.1161 C   0  0  1  0  0  0  0  0  0  0  0  0
   18.9891   -6.4915  -15.6158 C   0  0  0  0  0  0  0  0  0  0  0  0
   17.8023   -6.0765  -15.6166 O   0  0  0  0  0  0  0  0  0  0  0  0
   19.9708   -5.6532  -16.0696 O   0  0  0  0  0  0  0  0  0  0  0  0
  2  1  1  6
  2  3  1  0
  3  4  1  0
  4  8  1  0
  5  4  2  0
  6  2  1  0
  7  6  2  0
  9 10  1  0
 10 11  2  0
 10 20  1  0
 11 12  1  0
 12 13  2  0
 13 14  1  0
 15 14  1  6
 15 16  1  0
 15 17  1  0
 16  6  1  0
 17 18  2  0
 19 13  1  0
 20 19  2  0
 21 17  1  0
 21 25  1  0
 22 23  1  0
 22 21  1  0
 23 24  1  0
 24 25  1  0
 25 26  1  6
 26 28  1  0
 27 26  2  0
M  END
$$$$
