DYP.pdb
     RDKit          3D

 28 29  0  0  1  0  0  0  0  0999 V2000
   28.9290  -19.6416  -19.4750 N   0  0  0  0  0  0  0  0  0  0  0  0
   27.8877  -19.0111  -18.7311 C   0  0  1  0  0  0  0  0  0  0  0  0
   26.6342  -18.7863  -19.5076 C   0  0  0  0  0  0  0  0  0  0  0  0
   26.5838  -17.5378  -20.2790 C   0  0  0  0  0  0  0  0  0  0  0  0
   27.3160  -17.3718  -21.2852 O   0  0  0  0  0  0  0  0  0  0  0  0
   27.5630  -19.6729  -17.4497 C   0  0  0  0  0  0  0  0  0  0  0  0
   27.3762  -20.9167  -17.4315 O   0  0  0  0  0  0  0  0  0  0  0  0
   25.7211  -16.5221  -19.9034 O   0  0  0  0  0  0  0  0  0  0  0  0
   25.4366  -21.3242   -9.0792 O   0  0  0  0  0  0  0  0  0  0  0  0
   25.9056  -20.7114  -10.2373 C   0  0  0  0  0  0  0  0  0  0  0  0
   27.0435  -21.1800  -10.8489 C   0  0  0  0  0  0  0  0  0  0  0  0
   27.5105  -20.5641  -12.0083 C   0  0  0  0  0  0  0  0  0  0  0  0
   26.8409  -19.4969  -12.5377 C   0  0  0  0  0  0  0  0  0  0  0  0
   27.3363  -18.8475  -13.7615 C   0  0  0  0  0  0  0  0  0  0  0  0
   26.9342  -19.6511  -15.0197 C   0  0  2  0  0  0  0  0  0  0  0  0
   27.4395  -18.9994  -16.1967 N   0  0  0  0  0  0  0  0  0  0  0  0
   25.5106  -19.9670  -14.9869 C   0  0  0  0  0  0  0  0  0  0  0  0
   24.7001  -18.9709  -15.1391 O   0  0  0  0  0  0  0  0  0  0  0  0
   25.7076  -19.0339  -11.9240 C   0  0  0  0  0  0  0  0  0  0  0  0
   25.2270  -19.6425  -10.7597 C   0  0  0  0  0  0  0  0  0  0  0  0
   24.8785  -21.2181  -14.8122 N   0  0  0  0  0  0  0  0  0  0  0  0
   25.5286  -22.4882  -14.7233 C   0  0  0  0  0  0  0  0  0  0  0  0
   24.6552  -23.2617  -13.7234 C   0  0  0  0  0  0  0  0  0  0  0  0
   23.2825  -22.8937  -14.3004 C   0  0  0  0  0  0  0  0  0  0  0  0
   23.4417  -21.4469  -14.6817 C   0  0  1  0  0  0  0  0  0  0  0  0
   22.8671  -20.6468  -13.5731 C   0  0  0  0  0  0  0  0  0  0  0  0
   23.6822  -20.0766  -12.8044 O   0  0  0  0  0  0  0  0  0  0  0  0
   21.5291  -20.4893  -13.3337 O   0  0  0  0  0  0  0  0  0  0  0  0
  2  1  1  6
  2  3  1  0
  3  4  1  0
  4  8  1  0
  5  4  2  0
  6  2  1  0
  7  6  2  0
  9 10  1  0
 10 11  2  0
 10 20  1  0
 11 12  1  0
 12 13  2  0
 13 14  1  0
 15 14  1  1
 15 16  1  0
 15 17  1  0
 16  6  1  0
 17 18  2  0
 19 13  1  0
 20 19  2  0
 21 17  1  0
 21 25  1  0
 22 23  1  0
 22 21  1  0
 23 24  1  0
 24 25  1  0
 25 26  1  1
 26 28  1  0
 27 26  2  0
M  END
$$$$
