DYP.pdb
     RDKit          3D

 28 29  0  0  1  0  0  0  0  0999 V2000
   19.7755  -20.3482  -14.9065 N   0  0  0  0  0  0  0  0  0  0  0  0
   20.7320  -19.3800  -15.3342 C   0  0  1  0  0  0  0  0  0  0  0  0
   20.1731  -18.0087  -15.5123 C   0  0  0  0  0  0  0  0  0  0  0  0
   18.9181  -17.9312  -16.2707 C   0  0  0  0  0  0  0  0  0  0  0  0
   18.8668  -18.2946  -17.4713 O   0  0  0  0  0  0  0  0  0  0  0  0
   21.9504  -19.3124  -14.4998 C   0  0  0  0  0  0  0  0  0  0  0  0
   22.6079  -18.2408  -14.4597 O   0  0  0  0  0  0  0  0  0  0  0  0
   17.7677  -17.4538  -15.6657 O   0  0  0  0  0  0  0  0  0  0  0  0
   27.9064  -19.9228   -8.2678 O   0  0  0  0  0  0  0  0  0  0  0  0
   26.8546  -20.2323   -9.1249 C   0  0  0  0  0  0  0  0  0  0  0  0
   27.0384  -21.1469  -10.1340 C   0  0  0  0  0  0  0  0  0  0  0  0
   25.9833  -21.4544  -10.9906 C   0  0  0  0  0  0  0  0  0  0  0  0
   24.7683  -20.8499  -10.8300 C   0  0  0  0  0  0  0  0  0  0  0  0
   23.6558  -21.1754  -11.7363 C   0  0  0  0  0  0  0  0  0  0  0  0
   23.7124  -20.3136  -13.0187 C   0  0  2  0  0  0  0  0  0  0  0  0
   22.4575  -20.3919  -13.7147 N   0  0  0  0  0  0  0  0  0  0  0  0
   24.9208  -20.6130  -13.7789 C   0  0  0  0  0  0  0  0  0  0  0  0
   25.0497  -21.8319  -14.1910 O   0  0  0  0  0  0  0  0  0  0  0  0
   24.5908  -19.9392   -9.8228 C   0  0  0  0  0  0  0  0  0  0  0  0
   25.6409  -19.6208   -8.9552 C   0  0  0  0  0  0  0  0  0  0  0  0
   25.9846  -19.7555  -14.1369 N   0  0  0  0  0  0  0  0  0  0  0  0
   26.1905  -18.4219  -13.6647 C   0  0  0  0  0  0  0  0  0  0  0  0
   27.7208  -18.3099  -13.5823 C   0  0  0  0  0  0  0  0  0  0  0  0
   28.0604  -18.9403  -14.9387 C   0  0  0  0  0  0  0  0  0  0  0  0
   27.0782  -20.0744  -15.0512 C   0  0  1  0  0  0  0  0  0  0  0  0
   27.7932  -21.3030  -14.6283 C   0  0  0  0  0  0  0  0  0  0  0  0
   28.5935  -21.8063  -15.4571 O   0  0  0  0  0  0  0  0  0  0  0  0
   27.6431  -21.9170  -13.4147 O   0  0  0  0  0  0  0  0  0  0  0  0
  2  1  1  1
  2  3  1  0
  3  4  1  0
  4  8  1  0
  5  4  2  0
  6  2  1  0
  7  6  2  0
  9 10  1  0
 10 11  2  0
 10 20  1  0
 11 12  1  0
 12 13  2  0
 13 14  1  0
 15 14  1  1
 15 16  1  0
 15 17  1  0
 16  6  1  0
 17 18  2  0
 19 13  1  0
 20 19  2  0
 21 17  1  0
 21 25  1  0
 22 23  1  0
 22 21  1  0
 23 24  1  0
 24 25  1  0
 25 26  1  1
 26 28  1  0
 27 26  2  0
M  END
$$$$
