DYP.pdb
     RDKit          3D

 28 29  0  0  1  0  0  0  0  0999 V2000
   20.5260  -10.9735  -20.1131 N   0  0  0  0  0  0  0  0  0  0  0  0
   21.3273   -9.9313  -19.5592 C   0  0  1  0  0  0  0  0  0  0  0  0
   21.7741   -8.9126  -20.5529 C   0  0  0  0  0  0  0  0  0  0  0  0
   22.5633   -9.4306  -21.6777 C   0  0  0  0  0  0  0  0  0  0  0  0
   23.1259  -10.5508  -21.6088 O   0  0  0  0  0  0  0  0  0  0  0  0
   20.7274   -9.2521  -18.3912 C   0  0  0  0  0  0  0  0  0  0  0  0
   19.4985   -8.9839  -18.4017 O   0  0  0  0  0  0  0  0  0  0  0  0
   22.6962   -8.6845  -22.8366 O   0  0  0  0  0  0  0  0  0  0  0  0
   16.8240  -13.1395  -15.7585 O   0  0  0  0  0  0  0  0  0  0  0  0
   17.7891  -12.1592  -15.5479 C   0  0  0  0  0  0  0  0  0  0  0  0
   19.0696  -12.3468  -16.0101 C   0  0  0  0  0  0  0  0  0  0  0  0
   20.0337  -11.3634  -15.7975 C   0  0  0  0  0  0  0  0  0  0  0  0
   19.7095  -10.2150  -15.1315 C   0  0  0  0  0  0  0  0  0  0  0  0
   20.7293   -9.1784  -14.9072 C   0  0  0  0  0  0  0  0  0  0  0  0
   20.8116   -8.2095  -16.1094 C   0  0  2  0  0  0  0  0  0  0  0  0
   21.4466   -8.8638  -17.2204 N   0  0  0  0  0  0  0  0  0  0  0  0
   21.3553   -6.9231  -15.6886 C   0  0  0  0  0  0  0  0  0  0  0  0
   22.5926   -6.9207  -15.3126 O   0  0  0  0  0  0  0  0  0  0  0  0
   18.4320  -10.0334  -14.6729 C   0  0  0  0  0  0  0  0  0  0  0  0
   17.4538  -11.0119  -14.8793 C   0  0  0  0  0  0  0  0  0  0  0  0
   20.7209   -5.6624  -15.6317 N   0  0  0  0  0  0  0  0  0  0  0  0
   19.3774   -5.3740  -16.0262 C   0  0  0  0  0  0  0  0  0  0  0  0
   18.9396   -4.2955  -15.0231 C   0  0  0  0  0  0  0  0  0  0  0  0
   20.1959   -3.4175  -15.0824 C   0  0  0  0  0  0  0  0  0  0  0  0
   21.3172   -4.4184  -15.1512 C   0  0  1  0  0  0  0  0  0  0  0  0
   21.8410   -4.5694  -13.7721 C   0  0  0  0  0  0  0  0  0  0  0  0
   21.4986   -5.6047  -13.1463 O   0  0  0  0  0  0  0  0  0  0  0  0
   22.6598   -3.6712  -13.1434 O   0  0  0  0  0  0  0  0  0  0  0  0
  2  1  1  6
  2  3  1  0
  3  4  1  0
  4  8  1  0
  5  4  2  0
  6  2  1  0
  7  6  2  0
  9 10  1  0
 10 11  2  0
 10 20  1  0
 11 12  1  0
 12 13  2  0
 13 14  1  0
 15 14  1  1
 15 16  1  0
 15 17  1  0
 16  6  1  0
 17 18  2  0
 19 13  1  0
 20 19  2  0
 21 17  1  0
 21 25  1  0
 22 23  1  0
 22 21  1  0
 23 24  1  0
 24 25  1  0
 25 26  1  1
 26 28  1  0
 27 26  2  0
M  END
$$$$
