DYP.pdb
     RDKit          3D

 28 29  0  0  1  0  0  0  0  0999 V2000
   13.9460   -9.4223  -16.5804 N   0  0  0  0  0  0  0  0  0  0  0  0
   14.8297   -8.3113  -16.4392 C   0  0  1  0  0  0  0  0  0  0  0  0
   14.2695   -7.1853  -15.6372 C   0  0  0  0  0  0  0  0  0  0  0  0
   13.0405   -6.5816  -16.1675 C   0  0  0  0  0  0  0  0  0  0  0  0
   12.7452   -6.6831  -17.3835 O   0  0  0  0  0  0  0  0  0  0  0  0
   16.1741   -8.6583  -15.9318 C   0  0  0  0  0  0  0  0  0  0  0  0
   16.4372   -9.8584  -15.6620 O   0  0  0  0  0  0  0  0  0  0  0  0
   12.1860   -5.8893  -15.3263 O   0  0  0  0  0  0  0  0  0  0  0  0
   24.2359  -11.0103  -15.4416 O   0  0  0  0  0  0  0  0  0  0  0  0
   22.9572  -10.5355  -15.7176 C   0  0  0  0  0  0  0  0  0  0  0  0
   22.7961   -9.3912  -16.4613 C   0  0  0  0  0  0  0  0  0  0  0  0
   21.5144   -8.9183  -16.7358 C   0  0  0  0  0  0  0  0  0  0  0  0
   20.4191   -9.5885  -16.2680 C   0  0  0  0  0  0  0  0  0  0  0  0
   19.0668   -9.0869  -16.5582 C   0  0  0  0  0  0  0  0  0  0  0  0
   18.5792   -8.1271  -15.4484 C   0  0  2  0  0  0  0  0  0  0  0  0
   17.2275   -7.7188  -15.7158 N   0  0  0  0  0  0  0  0  0  0  0  0
   19.5640   -7.0762  -15.2171 C   0  0  0  0  0  0  0  0  0  0  0  0
   19.8238   -6.3048  -16.2220 O   0  0  0  0  0  0  0  0  0  0  0  0
   20.5856  -10.7283  -15.5273 C   0  0  0  0  0  0  0  0  0  0  0  0
   21.8663  -11.2148  -15.2442 C   0  0  0  0  0  0  0  0  0  0  0  0
   20.2845   -6.7723  -14.0409 N   0  0  0  0  0  0  0  0  0  0  0  0
   20.3301   -7.5622  -12.8501 C   0  0  0  0  0  0  0  0  0  0  0  0
   21.7652   -7.3521  -12.3428 C   0  0  0  0  0  0  0  0  0  0  0  0
   21.8408   -5.8306  -12.5217 C   0  0  0  0  0  0  0  0  0  0  0  0
   21.1247   -5.5972  -13.8242 C   0  0  1  0  0  0  0  0  0  0  0  0
   22.1684   -5.4805  -14.8712 C   0  0  0  0  0  0  0  0  0  0  0  0
   22.7853   -4.3871  -14.9368 O   0  0  0  0  0  0  0  0  0  0  0  0
   22.5007   -6.4682  -15.7582 O   0  0  0  0  0  0  0  0  0  0  0  0
  2  1  1  1
  2  3  1  0
  3  4  1  0
  4  8  1  0
  5  4  2  0
  6  2  1  0
  7  6  2  0
  9 10  1  0
 10 11  2  0
 10 20  1  0
 11 12  1  0
 12 13  2  0
 13 14  1  0
 15 14  1  6
 15 16  1  0
 15 17  1  0
 16  6  1  0
 17 18  2  0
 19 13  1  0
 20 19  2  0
 21 17  1  0
 21 25  1  0
 22 23  1  0
 22 21  1  0
 23 24  1  0
 24 25  1  0
 25 26  1  6
 26 28  1  0
 27 26  2  0
M  END
$$$$
