DYP.pdb
     RDKit          3D

 28 29  0  0  1  0  0  0  0  0999 V2000
   24.1593  -19.2115  -20.1362 N   0  0  0  0  0  0  0  0  0  0  0  0
   24.9590  -19.9902  -19.2478 C   0  0  1  0  0  0  0  0  0  0  0  0
   26.3930  -20.0887  -19.6466 C   0  0  0  0  0  0  0  0  0  0  0  0
   26.7408  -21.2516  -20.4728 C   0  0  0  0  0  0  0  0  0  0  0  0
   25.8524  -22.0331  -20.8927 O   0  0  0  0  0  0  0  0  0  0  0  0
   24.8675  -19.5874  -17.8284 C   0  0  0  0  0  0  0  0  0  0  0  0
   25.3845  -18.4998  -17.4647 O   0  0  0  0  0  0  0  0  0  0  0  0
   28.0624  -21.5012  -20.8019 O   0  0  0  0  0  0  0  0  0  0  0  0
   20.3795  -15.5300  -17.9603 O   0  0  0  0  0  0  0  0  0  0  0  0
   20.9616  -16.5589  -17.2260 C   0  0  0  0  0  0  0  0  0  0  0  0
   21.5228  -16.2941  -15.9998 C   0  0  0  0  0  0  0  0  0  0  0  0
   22.1050  -17.3265  -15.2671 C   0  0  0  0  0  0  0  0  0  0  0  0
   22.1194  -18.5995  -15.7641 C   0  0  0  0  0  0  0  0  0  0  0  0
   22.7355  -19.6879  -14.9891 C   0  0  0  0  0  0  0  0  0  0  0  0
   24.1964  -19.9299  -15.4341 C   0  0  2  0  0  0  0  0  0  0  0  0
   24.2243  -20.3512  -16.8078 N   0  0  0  0  0  0  0  0  0  0  0  0
   24.8915  -20.7660  -14.4618 C   0  0  0  0  0  0  0  0  0  0  0  0
   24.4030  -21.9480  -14.2712 O   0  0  0  0  0  0  0  0  0  0  0  0
   21.5588  -18.8576  -16.9866 C   0  0  0  0  0  0  0  0  0  0  0  0
   20.9706  -17.8311  -17.7331 C   0  0  0  0  0  0  0  0  0  0  0  0
   26.0359  -20.4709  -13.6883 N   0  0  0  0  0  0  0  0  0  0  0  0
   26.9239  -19.3671  -13.8802 C   0  0  0  0  0  0  0  0  0  0  0  0
   27.3416  -18.9979  -12.4483 C   0  0  0  0  0  0  0  0  0  0  0  0
   27.6242  -20.4137  -11.9302 C   0  0  0  0  0  0  0  0  0  0  0  0
   26.5217  -21.2348  -12.5419 C   0  0  1  0  0  0  0  0  0  0  0  0
   25.4705  -21.3788  -11.5058 C   0  0  0  0  0  0  0  0  0  0  0  0
   24.4712  -20.6223  -11.6037 O   0  0  0  0  0  0  0  0  0  0  0  0
   25.5137  -22.2667  -10.4654 O   0  0  0  0  0  0  0  0  0  0  0  0
  2  1  1  6
  2  3  1  0
  3  4  1  0
  4  8  1  0
  5  4  2  0
  6  2  1  0
  7  6  2  0
  9 10  1  0
 10 11  2  0
 10 20  1  0
 11 12  1  0
 12 13  2  0
 13 14  1  0
 15 14  1  1
 15 16  1  0
 15 17  1  0
 16  6  1  0
 17 18  2  0
 19 13  1  0
 20 19  2  0
 21 17  1  0
 21 25  1  0
 22 23  1  0
 22 21  1  0
 23 24  1  0
 24 25  1  0
 25 26  1  1
 26 28  1  0
 27 26  2  0
M  END
$$$$
