DYP.pdb
     RDKit          3D

 28 29  0  0  1  0  0  0  0  0999 V2000
   21.0366  -12.7452  -16.2808 N   0  0  0  0  0  0  0  0  0  0  0  0
   20.4078  -11.5107  -16.6209 C   0  0  1  0  0  0  0  0  0  0  0  0
   18.9597  -11.4471  -16.2688 C   0  0  0  0  0  0  0  0  0  0  0  0
   18.1157  -12.4848  -16.8746 C   0  0  0  0  0  0  0  0  0  0  0  0
   17.2899  -13.1293  -16.1827 O   0  0  0  0  0  0  0  0  0  0  0  0
   21.0956  -10.3094  -16.1021 C   0  0  0  0  0  0  0  0  0  0  0  0
   21.2762  -10.1929  -14.8627 O   0  0  0  0  0  0  0  0  0  0  0  0
   18.2209  -12.7659  -18.2263 O   0  0  0  0  0  0  0  0  0  0  0  0
   27.0437  -12.3306  -16.0258 O   0  0  0  0  0  0  0  0  0  0  0  0
   26.2064  -11.2504  -16.2886 C   0  0  0  0  0  0  0  0  0  0  0  0
   26.2461  -10.1394  -15.4808 C   0  0  0  0  0  0  0  0  0  0  0  0
   25.4063   -9.0596  -15.7464 C   0  0  0  0  0  0  0  0  0  0  0  0
   24.5448   -9.1028  -16.8064 C   0  0  0  0  0  0  0  0  0  0  0  0
   23.6583   -7.9619  -17.0845 C   0  0  0  0  0  0  0  0  0  0  0  0
   22.3009   -8.1230  -16.3619 C   0  0  2  0  0  0  0  0  0  0  0  0
   21.5847   -9.2405  -16.9128 N   0  0  0  0  0  0  0  0  0  0  0  0
   21.6032   -6.8435  -16.3008 C   0  0  0  0  0  0  0  0  0  0  0  0
   21.0452   -6.4436  -17.3966 O   0  0  0  0  0  0  0  0  0  0  0  0
   24.5094  -10.2126  -17.6079 C   0  0  0  0  0  0  0  0  0  0  0  0
   25.3468  -11.3038  -17.3534 C   0  0  0  0  0  0  0  0  0  0  0  0
   21.4443   -5.9657  -15.2056 N   0  0  0  0  0  0  0  0  0  0  0  0
   21.9197   -6.1806  -13.8746 C   0  0  0  0  0  0  0  0  0  0  0  0
   22.3001   -4.7682  -13.4041 C   0  0  0  0  0  0  0  0  0  0  0  0
   21.0510   -4.0281  -13.8988 C   0  0  0  0  0  0  0  0  0  0  0  0
   20.7707   -4.6698  -15.2305 C   0  0  1  0  0  0  0  0  0  0  0  0
   21.3522   -3.7801  -16.2647 C   0  0  0  0  0  0  0  0  0  0  0  0
   22.4480   -4.1364  -16.7675 O   0  0  0  0  0  0  0  0  0  0  0  0
   20.7850   -2.6143  -16.7026 O   0  0  0  0  0  0  0  0  0  0  0  0
  2  1  1  1
  2  3  1  0
  3  4  1  0
  4  8  1  0
  5  4  2  0
  6  2  1  0
  7  6  2  0
  9 10  1  0
 10 11  2  0
 10 20  1  0
 11 12  1  0
 12 13  2  0
 13 14  1  0
 15 14  1  6
 15 16  1  0
 15 17  1  0
 16  6  1  0
 17 18  2  0
 19 13  1  0
 20 19  2  0
 21 17  1  0
 21 25  1  0
 22 23  1  0
 22 21  1  0
 23 24  1  0
 24 25  1  0
 25 26  1  6
 26 28  1  0
 27 26  2  0
M  END
$$$$
