FCG.pdb
     RDKit          3D

 22 22  0  0  1  0  0  0  0  0999 V2000
    4.9803  -18.9943   23.0096 N   0  0  0  0  0  0  0  0  0  0  0  0
    5.9444  -18.0613   22.5207 C   0  0  1  0  0  0  0  0  0  0  0  0
    6.1336  -16.9758   23.5546 C   0  0  0  0  0  0  0  0  0  0  0  0
    6.9613  -15.9154   22.9389 C   0  0  0  0  0  0  0  0  0  0  0  0
    8.1489  -15.5732   23.5345 C   0  0  0  0  0  0  0  0  0  0  0  0
    8.9628  -14.5868   22.9998 C   0  0  0  0  0  0  0  0  0  0  0  0
    8.5581  -13.9544   21.8575 C   0  0  0  0  0  0  0  0  0  0  0  0
    7.3683  -14.2807   21.2401 C   0  0  0  0  0  0  0  0  0  0  0  0
    6.5610  -15.2793   21.7959 C   0  0  0  0  0  0  0  0  0  0  0  0
    7.2323  -18.7056   22.1496 C   0  0  0  0  0  0  0  0  0  0  0  0
    7.6674  -19.6994   22.7879 O   0  0  0  0  0  0  0  0  0  0  0  0
    8.0288  -18.2386   21.0685 N   0  0  0  0  0  0  0  0  0  0  0  0
    9.2292  -18.8706   20.6177 C   0  0  1  0  0  0  0  0  0  0  0  0
    9.5070  -18.5661   19.1457 C   0  0  0  0  0  0  0  0  0  0  0  0
    8.9459  -16.8924   18.7662 S   0  0  0  0  0  0  0  0  0  0  0  0
   10.4077  -18.5223   21.4478 C   0  0  0  0  0  0  0  0  0  0  0  0
   11.4844  -19.1399   21.2808 O   0  0  0  0  0  0  0  0  0  0  0  0
   10.3491  -17.5045   22.4303 N   0  0  0  0  0  0  0  0  0  0  0  0
   11.4653  -17.1839   23.3007 C   0  0  0  0  0  0  0  0  0  0  0  0
   12.5307  -16.4641   22.5670 C   0  0  0  0  0  0  0  0  0  0  0  0
   13.6004  -15.9431   23.2456 O   0  0  0  0  0  0  0  0  0  0  0  0
   12.4592  -16.3264   21.3114 O   0  0  0  0  0  0  0  0  0  0  0  0
  2  1  1  1
  2 10  1  0
  3  2  1  0
  3  4  1  0
  4  5  2  0
  4  9  1  0
  5  6  1  0
  6  7  2  0
  8  7  1  0
  9  8  2  0
 10 11  2  0
 12 10  1  0
 12 13  1  0
 13 16  1  0
 13 14  1  6
 15 14  1  0
 16 18  1  0
 17 16  2  0
 18 19  1  0
 19 20  1  0
 20 22  2  0
 20 21  1  0
M  END
$$$$
