FCG.pdb
     RDKit          3D

 22 22  0  0  1  0  0  0  0  0999 V2000
    7.5925  -18.8165   27.2003 N   0  0  0  0  0  0  0  0  0  0  0  0
    7.9922  -17.4456   27.2015 C   0  0  1  0  0  0  0  0  0  0  0  0
    9.4880  -17.3789   27.4044 C   0  0  0  0  0  0  0  0  0  0  0  0
    9.7850  -16.1101   28.1049 C   0  0  0  0  0  0  0  0  0  0  0  0
    9.8846  -14.9559   27.3700 C   0  0  0  0  0  0  0  0  0  0  0  0
   10.1611  -13.7403   27.9756 C   0  0  0  0  0  0  0  0  0  0  0  0
   10.3347  -13.7104   29.3312 C   0  0  0  0  0  0  0  0  0  0  0  0
   10.2395  -14.8574   30.0918 C   0  0  0  0  0  0  0  0  0  0  0  0
    9.9596  -16.0747   29.4612 C   0  0  0  0  0  0  0  0  0  0  0  0
    7.5651  -16.7205   25.9753 C   0  0  0  0  0  0  0  0  0  0  0  0
    7.3945  -17.3308   24.8878 O   0  0  0  0  0  0  0  0  0  0  0  0
    7.3303  -15.3183   25.9680 N   0  0  0  0  0  0  0  0  0  0  0  0
    6.8137  -14.5917   24.8505 C   0  0  1  0  0  0  0  0  0  0  0  0
    6.1035  -13.3117   25.2910 C   0  0  0  0  0  0  0  0  0  0  0  0
    6.9181  -12.6531   26.7617 S   0  0  0  0  0  0  0  0  0  0  0  0
    7.8515  -14.2832   23.8372 C   0  0  0  0  0  0  0  0  0  0  0  0
    7.7614  -13.2325   23.1617 O   0  0  0  0  0  0  0  0  0  0  0  0
    8.9486  -15.1491   23.6107 N   0  0  0  0  0  0  0  0  0  0  0  0
    9.9608  -14.8920   22.6028 C   0  0  0  0  0  0  0  0  0  0  0  0
   11.0193  -15.9266   22.6267 C   0  0  0  0  0  0  0  0  0  0  0  0
   12.0762  -15.8481   21.7589 O   0  0  0  0  0  0  0  0  0  0  0  0
   10.9538  -16.8873   23.4473 O   0  0  0  0  0  0  0  0  0  0  0  0
  2  1  1  6
  2 10  1  0
  3  2  1  0
  3  4  1  0
  4  5  2  0
  4  9  1  0
  5  6  1  0
  6  7  2  0
  8  7  1  0
  9  8  2  0
 10 11  2  0
 12 10  1  0
 12 13  1  0
 13 16  1  0
 13 14  1  1
 15 14  1  0
 16 18  1  0
 17 16  2  0
 18 19  1  0
 19 20  1  0
 20 22  2  0
 20 21  1  0
M  END
$$$$
