FCG.pdb
     RDKit          3D

 22 22  0  0  1  0  0  0  0  0999 V2000
   11.7260  -12.6666   19.7280 N   0  0  0  0  0  0  0  0  0  0  0  0
   11.5355  -14.0412   20.0643 C   0  0  1  0  0  0  0  0  0  0  0  0
   10.6338  -14.6714   19.0285 C   0  0  0  0  0  0  0  0  0  0  0  0
    9.2819  -14.0983   19.2087 C   0  0  0  0  0  0  0  0  0  0  0  0
    8.5475  -14.4676   20.3071 C   0  0  0  0  0  0  0  0  0  0  0  0
    7.2758  -13.9610   20.5244 C   0  0  0  0  0  0  0  0  0  0  0  0
    6.7604  -13.0783   19.6167 C   0  0  0  0  0  0  0  0  0  0  0  0
    7.4793  -12.6916   18.5045 C   0  0  0  0  0  0  0  0  0  0  0  0
    8.7615  -13.2146   18.3034 C   0  0  0  0  0  0  0  0  0  0  0  0
   12.8173  -14.7813   20.2090 C   0  0  0  0  0  0  0  0  0  0  0  0
   13.8601  -14.3925   19.6211 O   0  0  0  0  0  0  0  0  0  0  0  0
   12.9299  -15.9513   21.0088 N   0  0  0  0  0  0  0  0  0  0  0  0
   14.1366  -16.6978   21.1826 C   0  0  1  0  0  0  0  0  0  0  0  0
   14.1816  -17.3853   22.5472 C   0  0  0  0  0  0  0  0  0  0  0  0
   14.1091  -16.1351   23.8480 S   0  0  0  0  0  0  0  0  0  0  0  0
   14.3614  -17.6856   20.0997 C   0  0  0  0  0  0  0  0  0  0  0  0
   13.5587  -18.6359   19.9549 O   0  0  0  0  0  0  0  0  0  0  0  0
   15.4655  -17.5836   19.2192 N   0  0  0  0  0  0  0  0  0  0  0  0
   15.6322  -18.4426   18.0613 C   0  0  0  0  0  0  0  0  0  0  0  0
   16.8753  -18.1190   17.3255 C   0  0  0  0  0  0  0  0  0  0  0  0
   17.5372  -19.0971   16.6316 O   0  0  0  0  0  0  0  0  0  0  0  0
   17.3325  -16.9393   17.3334 O   0  0  0  0  0  0  0  0  0  0  0  0
  2  1  1  6
  2 10  1  0
  3  2  1  0
  3  4  1  0
  4  5  2  0
  4  9  1  0
  5  6  1  0
  6  7  2  0
  8  7  1  0
  9  8  2  0
 10 11  2  0
 12 10  1  0
 12 13  1  0
 13 16  1  0
 13 14  1  1
 15 14  1  0
 16 18  1  0
 17 16  2  0
 18 19  1  0
 19 20  1  0
 20 22  2  0
 20 21  1  0
M  END
$$$$
