FCG.pdb
     RDKit          3D

 22 22  0  0  1  0  0  0  0  0999 V2000
    6.3347  -17.6493   26.0394 N   0  0  0  0  0  0  0  0  0  0  0  0
    6.8215  -16.3929   25.5665 C   0  0  1  0  0  0  0  0  0  0  0  0
    7.6094  -15.7325   26.6738 C   0  0  0  0  0  0  0  0  0  0  0  0
    7.1365  -14.3349   26.7829 C   0  0  0  0  0  0  0  0  0  0  0  0
    7.9591  -13.4010   27.3601 C   0  0  0  0  0  0  0  0  0  0  0  0
    7.5658  -12.0781   27.4875 C   0  0  0  0  0  0  0  0  0  0  0  0
    6.3320  -11.7159   27.0237 C   0  0  0  0  0  0  0  0  0  0  0  0
    5.4868  -12.6366   26.4395 C   0  0  0  0  0  0  0  0  0  0  0  0
    5.9028  -13.9673   26.3204 C   0  0  0  0  0  0  0  0  0  0  0  0
    7.6174  -16.5176   24.3165 C   0  0  0  0  0  0  0  0  0  0  0  0
    8.3209  -17.5376   24.0951 O   0  0  0  0  0  0  0  0  0  0  0  0
    7.6248  -15.5042   23.3194 N   0  0  0  0  0  0  0  0  0  0  0  0
    8.4482  -15.5267   22.1510 C   0  0  1  0  0  0  0  0  0  0  0  0
    7.8868  -14.6279   21.0493 C   0  0  0  0  0  0  0  0  0  0  0  0
    6.2461  -15.2159   20.5776 S   0  0  0  0  0  0  0  0  0  0  0  0
    9.8595  -15.1724   22.4366 C   0  0  0  0  0  0  0  0  0  0  0  0
   10.1241  -14.0663   22.9613 O   0  0  0  0  0  0  0  0  0  0  0  0
   10.9233  -16.0553   22.1308 N   0  0  0  0  0  0  0  0  0  0  0  0
   12.3058  -15.7707   22.4684 C   0  0  0  0  0  0  0  0  0  0  0  0
   13.2114  -16.8286   21.9661 C   0  0  0  0  0  0  0  0  0  0  0  0
   14.3420  -16.4915   21.2702 O   0  0  0  0  0  0  0  0  0  0  0  0
   12.9465  -18.0477   22.1764 O   0  0  0  0  0  0  0  0  0  0  0  0
  2  1  1  1
  2 10  1  0
  3  2  1  0
  3  4  1  0
  4  5  2  0
  4  9  1  0
  5  6  1  0
  6  7  2  0
  8  7  1  0
  9  8  2  0
 10 11  2  0
 12 10  1  0
 12 13  1  0
 13 16  1  0
 13 14  1  6
 15 14  1  0
 16 18  1  0
 17 16  2  0
 18 19  1  0
 19 20  1  0
 20 22  2  0
 20 21  1  0
M  END
$$$$
