FCG.pdb
     RDKit          3D

 22 22  0  0  1  0  0  0  0  0999 V2000
    8.2794  -18.1138   27.3116 N   0  0  0  0  0  0  0  0  0  0  0  0
    7.4991  -17.3444   26.3962 C   0  0  1  0  0  0  0  0  0  0  0  0
    7.0030  -16.1064   27.1063 C   0  0  0  0  0  0  0  0  0  0  0  0
    8.1882  -15.3790   27.6113 C   0  0  0  0  0  0  0  0  0  0  0  0
    8.9741  -15.9753   28.5647 C   0  0  0  0  0  0  0  0  0  0  0  0
   10.0957  -15.3385   29.0722 C   0  0  0  0  0  0  0  0  0  0  0  0
   10.4088  -14.0937   28.6020 C   0  0  0  0  0  0  0  0  0  0  0  0
    9.6343  -13.4734   27.6436 C   0  0  0  0  0  0  0  0  0  0  0  0
    8.5060  -14.1333   27.1441 C   0  0  0  0  0  0  0  0  0  0  0  0
    8.2375  -17.0112   25.1490 C   0  0  0  0  0  0  0  0  0  0  0  0
    9.2867  -17.6300   24.8320 O   0  0  0  0  0  0  0  0  0  0  0  0
    7.8022  -15.9895   24.2614 N   0  0  0  0  0  0  0  0  0  0  0  0
    8.4043  -15.7087   22.9956 C   0  0  1  0  0  0  0  0  0  0  0  0
    7.5222  -14.7974   22.1424 C   0  0  0  0  0  0  0  0  0  0  0  0
    5.9986  -15.6685   21.7180 S   0  0  0  0  0  0  0  0  0  0  0  0
    9.7665  -15.1365   23.1225 C   0  0  0  0  0  0  0  0  0  0  0  0
    9.9226  -14.0370   23.7015 O   0  0  0  0  0  0  0  0  0  0  0  0
   10.9030  -15.8029   22.6038 N   0  0  0  0  0  0  0  0  0  0  0  0
   12.2518  -15.2851   22.7422 C   0  0  0  0  0  0  0  0  0  0  0  0
   13.2304  -16.1339   22.0257 C   0  0  0  0  0  0  0  0  0  0  0  0
   14.5533  -15.7802   21.9944 O   0  0  0  0  0  0  0  0  0  0  0  0
   12.8509  -17.1889   21.4393 O   0  0  0  0  0  0  0  0  0  0  0  0
  2  1  1  1
  2 10  1  0
  3  2  1  0
  3  4  1  0
  4  5  2  0
  4  9  1  0
  5  6  1  0
  6  7  2  0
  8  7  1  0
  9  8  2  0
 10 11  2  0
 12 10  1  0
 12 13  1  0
 13 16  1  0
 13 14  1  1
 15 14  1  0
 16 18  1  0
 17 16  2  0
 18 19  1  0
 19 20  1  0
 20 22  2  0
 20 21  1  0
M  END
$$$$
