FCG.pdb
     RDKit          3D

 22 22  0  0  1  0  0  0  0  0999 V2000
    6.2883  -17.8524   26.1881 N   0  0  0  0  0  0  0  0  0  0  0  0
    6.7167  -16.5684   25.7333 C   0  0  1  0  0  0  0  0  0  0  0  0
    7.5799  -15.9404   26.8026 C   0  0  0  0  0  0  0  0  0  0  0  0
    7.3107  -14.4857   26.7933 C   0  0  0  0  0  0  0  0  0  0  0  0
    8.3502  -13.6217   26.5588 C   0  0  0  0  0  0  0  0  0  0  0  0
    8.1536  -12.2499   26.5391 C   0  0  0  0  0  0  0  0  0  0  0  0
    6.8938  -11.7674   26.7596 C   0  0  0  0  0  0  0  0  0  0  0  0
    5.8323  -12.6159   26.9977 C   0  0  0  0  0  0  0  0  0  0  0  0
    6.0519  -13.9977   27.0134 C   0  0  0  0  0  0  0  0  0  0  0  0
    7.4126  -16.6256   24.4202 C   0  0  0  0  0  0  0  0  0  0  0  0
    8.2311  -17.5457   24.1600 O   0  0  0  0  0  0  0  0  0  0  0  0
    7.1922  -15.6564   23.4036 N   0  0  0  0  0  0  0  0  0  0  0  0
    7.8943  -15.6174   22.1590 C   0  0  1  0  0  0  0  0  0  0  0  0
    7.4003  -14.4765   21.2696 C   0  0  0  0  0  0  0  0  0  0  0  0
    8.3342  -14.4773   19.7242 S   0  0  0  0  0  0  0  0  0  0  0  0
    9.3649  -15.5368   22.3320 C   0  0  0  0  0  0  0  0  0  0  0  0
    9.8599  -14.5779   22.9677 O   0  0  0  0  0  0  0  0  0  0  0  0
   10.2307  -16.5201   21.7951 N   0  0  0  0  0  0  0  0  0  0  0  0
   11.6456  -16.5825   22.1121 C   0  0  0  0  0  0  0  0  0  0  0  0
   12.4593  -15.9036   21.0786 C   0  0  0  0  0  0  0  0  0  0  0  0
   11.8641  -15.4210   19.9432 O   0  0  0  0  0  0  0  0  0  0  0  0
   13.7068  -15.7656   21.2379 O   0  0  0  0  0  0  0  0  0  0  0  0
  2  1  1  1
  2 10  1  0
  3  2  1  0
  3  4  1  0
  4  5  2  0
  4  9  1  0
  5  6  1  0
  6  7  2  0
  8  7  1  0
  9  8  2  0
 10 11  2  0
 12 10  1  0
 12 13  1  0
 13 16  1  0
 13 14  1  1
 15 14  1  0
 16 18  1  0
 17 16  2  0
 18 19  1  0
 19 20  1  0
 20 22  2  0
 20 21  1  0
M  END
$$$$
