FCG.pdb
     RDKit          3D

 22 22  0  0  1  0  0  0  0  0999 V2000
    6.7982  -16.3214   25.9009 N   0  0  0  0  0  0  0  0  0  0  0  0
    7.1308  -15.4513   24.8186 C   0  0  1  0  0  0  0  0  0  0  0  0
    8.1024  -14.4079   25.3188 C   0  0  0  0  0  0  0  0  0  0  0  0
    7.3306  -13.4261   26.1119 C   0  0  0  0  0  0  0  0  0  0  0  0
    7.8382  -13.0000   27.3131 C   0  0  0  0  0  0  0  0  0  0  0  0
    7.1564  -12.0817   28.0959 C   0  0  0  0  0  0  0  0  0  0  0  0
    5.9575  -11.6028   27.6464 C   0  0  0  0  0  0  0  0  0  0  0  0
    5.4263  -12.0160   26.4421 C   0  0  0  0  0  0  0  0  0  0  0  0
    6.1304  -12.9438   25.6667 C   0  0  0  0  0  0  0  0  0  0  0  0
    7.6594  -16.1808   23.6354 C   0  0  0  0  0  0  0  0  0  0  0  0
    8.0950  -17.3570   23.7405 O   0  0  0  0  0  0  0  0  0  0  0  0
    7.6996  -15.5950   22.3405 N   0  0  0  0  0  0  0  0  0  0  0  0
    8.4338  -16.1275   21.2355 C   0  0  1  0  0  0  0  0  0  0  0  0
    7.9040  -15.6012   19.9017 C   0  0  0  0  0  0  0  0  0  0  0  0
    8.0258  -13.7998   19.8802 S   0  0  0  0  0  0  0  0  0  0  0  0
    9.8923  -15.8826   21.3441 C   0  0  0  0  0  0  0  0  0  0  0  0
   10.3180  -15.0512   22.1784 O   0  0  0  0  0  0  0  0  0  0  0  0
   10.8230  -16.5669   20.5255 N   0  0  0  0  0  0  0  0  0  0  0  0
   11.8012  -17.4997   21.0540 C   0  0  0  0  0  0  0  0  0  0  0  0
   12.8039  -16.8087   21.8958 C   0  0  0  0  0  0  0  0  0  0  0  0
   13.9085  -16.2388   21.3202 O   0  0  0  0  0  0  0  0  0  0  0  0
   12.6465  -16.7410   23.1493 O   0  0  0  0  0  0  0  0  0  0  0  0
  2  1  1  1
  2 10  1  0
  3  2  1  0
  3  4  1  0
  4  5  2  0
  4  9  1  0
  5  6  1  0
  6  7  2  0
  8  7  1  0
  9  8  2  0
 10 11  2  0
 12 10  1  0
 12 13  1  0
 13 16  1  0
 13 14  1  6
 15 14  1  0
 16 18  1  0
 17 16  2  0
 18 19  1  0
 19 20  1  0
 20 22  2  0
 20 21  1  0
M  END
$$$$
