FCG.pdb
     RDKit          3D

 22 22  0  0  1  0  0  0  0  0999 V2000
    6.3671  -18.0020   25.7910 N   0  0  0  0  0  0  0  0  0  0  0  0
    6.8395  -16.6832   25.5138 C   0  0  1  0  0  0  0  0  0  0  0  0
    7.5417  -16.1536   26.7424 C   0  0  0  0  0  0  0  0  0  0  0  0
    7.3833  -14.6826   26.7450 C   0  0  0  0  0  0  0  0  0  0  0  0
    8.4998  -13.8965   26.6125 C   0  0  0  0  0  0  0  0  0  0  0  0
    8.4083  -12.5135   26.6087 C   0  0  0  0  0  0  0  0  0  0  0  0
    7.1744  -11.9403   26.7405 C   0  0  0  0  0  0  0  0  0  0  0  0
    6.0370  -12.7093   26.8752 C   0  0  0  0  0  0  0  0  0  0  0  0
    6.1509  -14.1039   26.8766 C   0  0  0  0  0  0  0  0  0  0  0  0
    7.7086  -16.6247   24.3085 C   0  0  0  0  0  0  0  0  0  0  0  0
    8.4511  -17.5922   23.9972 O   0  0  0  0  0  0  0  0  0  0  0  0
    7.7455  -15.4874   23.4562 N   0  0  0  0  0  0  0  0  0  0  0  0
    8.4399  -15.4359   22.2077 C   0  0  1  0  0  0  0  0  0  0  0  0
    7.8683  -14.3554   21.2898 C   0  0  0  0  0  0  0  0  0  0  0  0
    6.0817  -14.5758   21.1489 S   0  0  0  0  0  0  0  0  0  0  0  0
    9.9023  -15.2528   22.3715 C   0  0  0  0  0  0  0  0  0  0  0  0
   10.6373  -15.2181   21.3580 O   0  0  0  0  0  0  0  0  0  0  0  0
   10.4947  -15.1152   23.6501 N   0  0  0  0  0  0  0  0  0  0  0  0
   11.9233  -14.9469   23.8430 C   0  0  0  0  0  0  0  0  0  0  0  0
   12.6033  -16.2528   23.9968 C   0  0  0  0  0  0  0  0  0  0  0  0
   13.9709  -16.3136   24.0449 O   0  0  0  0  0  0  0  0  0  0  0  0
   11.9263  -17.3180   24.0846 O   0  0  0  0  0  0  0  0  0  0  0  0
  2  1  1  1
  2 10  1  0
  3  2  1  0
  3  4  1  0
  4  5  2  0
  4  9  1  0
  5  6  1  0
  6  7  2  0
  8  7  1  0
  9  8  2  0
 10 11  2  0
 12 10  1  0
 12 13  1  0
 13 16  1  0
 13 14  1  6
 15 14  1  0
 16 18  1  0
 17 16  2  0
 18 19  1  0
 19 20  1  0
 20 22  2  0
 20 21  1  0
M  END
$$$$
