FCG.pdb
     RDKit          3D

 22 22  0  0  1  0  0  0  0  0999 V2000
    6.2744  -18.1249   25.8710 N   0  0  0  0  0  0  0  0  0  0  0  0
    6.7066  -16.7909   25.6014 C   0  0  1  0  0  0  0  0  0  0  0  0
    7.3035  -16.2123   26.8631 C   0  0  0  0  0  0  0  0  0  0  0  0
    7.2436  -14.7386   26.7477 C   0  0  0  0  0  0  0  0  0  0  0  0
    8.4152  -14.0368   26.6174 C   0  0  0  0  0  0  0  0  0  0  0  0
    8.4164  -12.6553   26.5056 C   0  0  0  0  0  0  0  0  0  0  0  0
    7.2185  -11.9972   26.5275 C   0  0  0  0  0  0  0  0  0  0  0  0
    6.0271  -12.6806   26.6575 C   0  0  0  0  0  0  0  0  0  0  0  0
    6.0476  -14.0752   26.7690 C   0  0  0  0  0  0  0  0  0  0  0  0
    7.6493  -16.7121   24.4540 C   0  0  0  0  0  0  0  0  0  0  0  0
    8.5777  -17.5513   24.3191 O   0  0  0  0  0  0  0  0  0  0  0  0
    7.5522  -15.6979   23.4625 N   0  0  0  0  0  0  0  0  0  0  0  0
    8.4510  -15.5577   22.3597 C   0  0  1  0  0  0  0  0  0  0  0  0
    7.8832  -14.6305   21.2851 C   0  0  0  0  0  0  0  0  0  0  0  0
    6.3239  -15.3072   20.6761 S   0  0  0  0  0  0  0  0  0  0  0  0
    9.8003  -15.1023   22.7734 C   0  0  0  0  0  0  0  0  0  0  0  0
    9.9184  -14.3359   23.7568 O   0  0  0  0  0  0  0  0  0  0  0  0
   10.9664  -15.5126   22.0831 N   0  0  0  0  0  0  0  0  0  0  0  0
   12.2883  -15.0010   22.3951 C   0  0  0  0  0  0  0  0  0  0  0  0
   12.9610  -15.8350   23.4165 C   0  0  0  0  0  0  0  0  0  0  0  0
   14.2624  -15.5824   23.7611 O   0  0  0  0  0  0  0  0  0  0  0  0
   12.3387  -16.7841   23.9759 O   0  0  0  0  0  0  0  0  0  0  0  0
  2  1  1  1
  2 10  1  0
  3  2  1  0
  3  4  1  0
  4  5  2  0
  4  9  1  0
  5  6  1  0
  6  7  2  0
  8  7  1  0
  9  8  2  0
 10 11  2  0
 12 10  1  0
 12 13  1  0
 13 16  1  0
 13 14  1  6
 15 14  1  0
 16 18  1  0
 17 16  2  0
 18 19  1  0
 19 20  1  0
 20 22  2  0
 20 21  1  0
M  END
$$$$
