FCG.pdb
     RDKit          3D

 22 22  0  0  1  0  0  0  0  0999 V2000
    6.1013  -17.5276   25.9065 N   0  0  0  0  0  0  0  0  0  0  0  0
    6.6885  -16.3028   25.4661 C   0  0  1  0  0  0  0  0  0  0  0  0
    7.3718  -15.6445   26.6420 C   0  0  0  0  0  0  0  0  0  0  0  0
    7.0530  -14.2008   26.5898 C   0  0  0  0  0  0  0  0  0  0  0  0
    8.0062  -13.3288   26.1280 C   0  0  0  0  0  0  0  0  0  0  0  0
    7.7601  -11.9665   26.0582 C   0  0  0  0  0  0  0  0  0  0  0  0
    6.5394  -11.5019   26.4614 C   0  0  0  0  0  0  0  0  0  0  0  0
    5.5647  -12.3587   26.9295 C   0  0  0  0  0  0  0  0  0  0  0  0
    5.8331  -13.7305   26.9921 C   0  0  0  0  0  0  0  0  0  0  0  0
    7.6152  -16.4889   24.3180 C   0  0  0  0  0  0  0  0  0  0  0  0
    8.4375  -17.4415   24.2966 O   0  0  0  0  0  0  0  0  0  0  0  0
    7.6202  -15.6117   23.1991 N   0  0  0  0  0  0  0  0  0  0  0  0
    8.5295  -15.7092   22.1004 C   0  0  1  0  0  0  0  0  0  0  0  0
    7.9932  -14.9936   20.8606 C   0  0  0  0  0  0  0  0  0  0  0  0
    6.3877  -15.6907   20.4170 S   0  0  0  0  0  0  0  0  0  0  0  0
    9.8875  -15.2155   22.4339 C   0  0  0  0  0  0  0  0  0  0  0  0
   10.0330  -14.0434   22.8503 O   0  0  0  0  0  0  0  0  0  0  0  0
   11.0316  -16.0378   22.2937 N   0  0  0  0  0  0  0  0  0  0  0  0
   12.3772  -15.5701   22.5714 C   0  0  0  0  0  0  0  0  0  0  0  0
   13.3859  -16.5976   22.2274 C   0  0  0  0  0  0  0  0  0  0  0  0
   14.7212  -16.3022   22.3048 O   0  0  0  0  0  0  0  0  0  0  0  0
   13.0208  -17.7522   21.8607 O   0  0  0  0  0  0  0  0  0  0  0  0
  2  1  1  1
  2 10  1  0
  3  2  1  0
  3  4  1  0
  4  5  2  0
  4  9  1  0
  5  6  1  0
  6  7  2  0
  8  7  1  0
  9  8  2  0
 10 11  2  0
 12 10  1  0
 12 13  1  0
 13 16  1  0
 13 14  1  6
 15 14  1  0
 16 18  1  0
 17 16  2  0
 18 19  1  0
 19 20  1  0
 20 22  2  0
 20 21  1  0
M  END
$$$$
