FCG.pdb
     RDKit          3D

 22 22  0  0  1  0  0  0  0  0999 V2000
    9.4807  -15.5626   22.2659 N   0  0  0  0  0  0  0  0  0  0  0  0
    9.2531  -15.0880   23.5933 C   0  0  1  0  0  0  0  0  0  0  0  0
    7.8234  -15.3917   23.9763 C   0  0  0  0  0  0  0  0  0  0  0  0
    7.3076  -14.2262   24.7275 C   0  0  0  0  0  0  0  0  0  0  0  0
    6.5408  -14.4449   25.8439 C   0  0  0  0  0  0  0  0  0  0  0  0
    6.0323  -13.3893   26.5843 C   0  0  0  0  0  0  0  0  0  0  0  0
    6.3106  -12.1137   26.1792 C   0  0  0  0  0  0  0  0  0  0  0  0
    7.0791  -11.8681   25.0602 C   0  0  0  0  0  0  0  0  0  0  0  0
    7.5830  -12.9477   24.3265 C   0  0  0  0  0  0  0  0  0  0  0  0
   10.2213  -15.6423   24.5766 C   0  0  0  0  0  0  0  0  0  0  0  0
   11.4422  -15.7544   24.2916 O   0  0  0  0  0  0  0  0  0  0  0  0
    9.8234  -16.0690   25.8731 N   0  0  0  0  0  0  0  0  0  0  0  0
   10.7274  -16.3447   26.9456 C   0  0  1  0  0  0  0  0  0  0  0  0
   11.5417  -15.1086   27.3273 C   0  0  0  0  0  0  0  0  0  0  0  0
   10.4596  -13.9047   28.1273 S   0  0  0  0  0  0  0  0  0  0  0  0
   10.0481  -16.9037   28.1394 C   0  0  0  0  0  0  0  0  0  0  0  0
    8.9245  -16.4627   28.4731 O   0  0  0  0  0  0  0  0  0  0  0  0
   10.6384  -17.9288   28.9175 N   0  0  0  0  0  0  0  0  0  0  0  0
   11.2194  -19.1247   28.3356 C   0  0  0  0  0  0  0  0  0  0  0  0
   10.2990  -20.2789   28.4457 C   0  0  0  0  0  0  0  0  0  0  0  0
   10.7148  -21.4333   29.0545 O   0  0  0  0  0  0  0  0  0  0  0  0
    9.1253  -20.2055   27.9790 O   0  0  0  0  0  0  0  0  0  0  0  0
  2  1  1  6
  2 10  1  0
  3  2  1  0
  3  4  1  0
  4  5  2  0
  4  9  1  0
  5  6  1  0
  6  7  2  0
  8  7  1  0
  9  8  2  0
 10 11  2  0
 12 10  1  0
 12 13  1  0
 13 16  1  0
 13 14  1  1
 15 14  1  0
 16 18  1  0
 17 16  2  0
 18 19  1  0
 19 20  1  0
 20 22  2  0
 20 21  1  0
M  END
$$$$
