DEW.pdb
     RDKit          3D

 32 33  0  0  1  0  0  0  0  0999 V2000
    8.9594  -18.7706   18.1895 N   0  0  0  0  0  0  0  0  0  0  0  0
    8.5850  -17.4456   18.6055 C   0  0  1  0  0  0  0  0  0  0  0  0
    7.4832  -16.9087   17.7576 C   0  0  0  0  0  0  0  0  0  0  0  0
    7.7524  -16.8750   16.3078 C   0  0  0  0  0  0  0  0  0  0  0  0
    8.7939  -17.2169   15.7369 O   0  0  0  0  0  0  0  0  0  0  0  0
    8.2254  -17.3451   20.0396 C   0  0  0  0  0  0  0  0  0  0  0  0
    7.8527  -16.2356   20.4779 O   0  0  0  0  0  0  0  0  0  0  0  0
    6.7018  -16.4010   15.5079 O   0  0  0  0  0  0  0  0  0  0  0  0
    8.2778  -18.4329   20.9653 N   0  0  0  0  0  0  0  0  0  0  0  0
    7.9304  -18.3239   22.3437 C   0  0  1  0  0  0  0  0  0  0  0  0
    7.3049  -19.4814   22.9847 C   0  0  0  0  0  0  0  0  0  0  0  0
    7.1318  -19.5939   24.4264 C   0  0  0  0  0  0  0  0  0  0  0  0
    6.6339  -20.8351   25.0163 C   0  0  0  0  0  0  0  0  0  0  0  0
    6.2688  -21.8747   24.4710 O   0  0  0  0  0  0  0  0  0  0  0  0
    9.0228  -17.6998   23.1525 C   0  0  0  0  0  0  0  0  0  0  0  0
   10.2137  -18.0705   23.0074 O   0  0  0  0  0  0  0  0  0  0  0  0
    6.5549  -20.8567   26.4363 O   0  0  0  0  0  0  0  0  0  0  0  0
    8.7766  -16.6795   24.1038 N   0  0  0  0  0  0  0  0  0  0  0  0
    9.8563  -16.1531   24.9547 C   0  0  1  0  0  0  0  0  0  0  0  0
    9.6102  -14.6882   25.1758 C   0  0  0  0  0  0  0  0  0  0  0  0
    8.2435  -14.3752   25.5574 C   0  0  0  0  0  0  0  0  0  0  0  0
    7.2010  -15.2835   25.6764 C   0  0  0  0  0  0  0  0  0  0  0  0
    6.0890  -14.6136   26.0112 N   0  0  0  0  0  0  0  0  0  0  0  0
    6.3419  -13.2834   26.1239 C   0  0  0  0  0  0  0  0  0  0  0  0
    5.5362  -12.2148   26.4571 C   0  0  0  0  0  0  0  0  0  0  0  0
    6.0800  -10.9547   26.5136 C   0  0  0  0  0  0  0  0  0  0  0  0
    7.4069  -10.7728   26.2408 C   0  0  0  0  0  0  0  0  0  0  0  0
    8.1943  -11.8473   25.9104 C   0  0  0  0  0  0  0  0  0  0  0  0
    7.6908  -13.1266   25.8411 C   0  0  0  0  0  0  0  0  0  0  0  0
   10.0252  -16.9561   26.1647 C   0  0  0  0  0  0  0  0  0  0  0  0
    9.1366  -17.8310   26.4344 O   0  0  0  0  0  0  0  0  0  0  0  0
   11.0672  -16.8744   27.0670 O   0  0  0  0  0  0  0  0  0  0  0  0
  2  1  1  6
  2  3  1  0
  3  4  1  0
  4  5  2  0
  4  8  1  0
  6  7  2  0
  6  2  1  0
  9  6  1  0
 10 11  1  1
 10  9  1  0
 11 12  1  0
 12 13  1  0
 13 17  1  0
 14 13  2  0
 15 18  1  0
 15 10  1  0
 16 15  2  0
 19 18  1  0
 19 20  1  1
 20 21  1  0
 21 22  2  0
 22 23  1  0
 24 23  1  0
 25 24  2  0
 26 25  1  0
 27 28  1  0
 27 26  2  0
 28 29  2  0
 29 21  1  0
 29 24  1  0
 30 32  1  0
 30 19  1  0
 31 30  2  0
M  END
$$$$
