DEW.pdb
     RDKit          3D

 32 33  0  0  1  0  0  0  0  0999 V2000
    7.3691  -16.3854   19.1928 N   0  0  0  0  0  0  0  0  0  0  0  0
    8.4901  -15.8058   19.8826 C   0  0  1  0  0  0  0  0  0  0  0  0
    8.2839  -14.3475   20.1105 C   0  0  0  0  0  0  0  0  0  0  0  0
    8.1883  -13.5190   18.8940 C   0  0  0  0  0  0  0  0  0  0  0  0
    8.2570  -13.9073   17.7228 O   0  0  0  0  0  0  0  0  0  0  0  0
    8.8267  -16.4826   21.1573 C   0  0  0  0  0  0  0  0  0  0  0  0
    7.8921  -16.7801   21.9318 O   0  0  0  0  0  0  0  0  0  0  0  0
    7.9993  -12.1457   19.1103 O   0  0  0  0  0  0  0  0  0  0  0  0
   10.1533  -16.8191   21.5693 N   0  0  0  0  0  0  0  0  0  0  0  0
   10.4543  -17.6335   22.7001 C   0  0  1  0  0  0  0  0  0  0  0  0
   11.5983  -18.5412   22.6039 C   0  0  0  0  0  0  0  0  0  0  0  0
   12.0378  -19.3851   23.7064 C   0  0  0  0  0  0  0  0  0  0  0  0
   13.1586  -20.3066   23.5305 C   0  0  0  0  0  0  0  0  0  0  0  0
   13.6366  -21.1236   24.3150 O   0  0  0  0  0  0  0  0  0  0  0  0
   10.3980  -16.8628   23.9806 C   0  0  0  0  0  0  0  0  0  0  0  0
   11.0319  -15.7859   24.1040 O   0  0  0  0  0  0  0  0  0  0  0  0
   13.8032  -20.2614   22.2634 O   0  0  0  0  0  0  0  0  0  0  0  0
    9.6426  -17.2977   25.0973 N   0  0  0  0  0  0  0  0  0  0  0  0
    9.7789  -16.6471   26.4108 C   0  0  1  0  0  0  0  0  0  0  0  0
    8.4047  -16.4466   26.9821 C   0  0  0  0  0  0  0  0  0  0  0  0
    7.5635  -15.5663   26.1889 C   0  0  0  0  0  0  0  0  0  0  0  0
    6.6290  -15.9642   25.2432 C   0  0  0  0  0  0  0  0  0  0  0  0
    6.0809  -14.8683   24.6993 N   0  0  0  0  0  0  0  0  0  0  0  0
    6.6108  -13.7420   25.2438 C   0  0  0  0  0  0  0  0  0  0  0  0
    6.3601  -12.4036   25.0247 C   0  0  0  0  0  0  0  0  0  0  0  0
    7.0479  -11.4629   25.7518 C   0  0  0  0  0  0  0  0  0  0  0  0
    7.9689  -11.8598   26.6804 C   0  0  0  0  0  0  0  0  0  0  0  0
    8.2064  -13.1959   26.8855 C   0  0  0  0  0  0  0  0  0  0  0  0
    7.5409  -14.1719   26.1787 C   0  0  0  0  0  0  0  0  0  0  0  0
   10.7224  -17.3627   27.2682 C   0  0  0  0  0  0  0  0  0  0  0  0
   11.1949  -18.4710   26.8483 O   0  0  0  0  0  0  0  0  0  0  0  0
   11.1739  -16.9601   28.5094 O   0  0  0  0  0  0  0  0  0  0  0  0
  2  1  1  1
  2  3  1  0
  3  4  1  0
  4  5  2  0
  4  8  1  0
  6  7  2  0
  6  2  1  0
  9  6  1  0
 10 11  1  6
 10  9  1  0
 11 12  1  0
 12 13  1  0
 13 17  1  0
 14 13  2  0
 15 18  1  0
 15 10  1  0
 16 15  2  0
 19 18  1  0
 19 20  1  1
 20 21  1  0
 21 22  2  0
 22 23  1  0
 24 23  1  0
 25 24  2  0
 26 25  1  0
 27 28  1  0
 27 26  2  0
 28 29  2  0
 29 21  1  0
 29 24  1  0
 30 32  1  0
 30 19  1  0
 31 30  2  0
M  END
$$$$
