DEW.pdb
     RDKit          3D

 32 33  0  0  1  0  0  0  0  0999 V2000
   11.8527  -17.4092   18.2002 N   0  0  0  0  0  0  0  0  0  0  0  0
   10.7533  -16.5095   18.4247 C   0  0  1  0  0  0  0  0  0  0  0  0
    9.7835  -16.5552   17.2939 C   0  0  0  0  0  0  0  0  0  0  0  0
   10.3138  -16.1404   15.9816 C   0  0  0  0  0  0  0  0  0  0  0  0
   11.4738  -15.8025   15.7216 O   0  0  0  0  0  0  0  0  0  0  0  0
   10.0521  -16.7267   19.7120 C   0  0  0  0  0  0  0  0  0  0  0  0
    9.1404  -15.9327   20.0284 O   0  0  0  0  0  0  0  0  0  0  0  0
    9.3869  -16.1352   14.9284 O   0  0  0  0  0  0  0  0  0  0  0  0
   10.3480  -17.7849   20.6262 N   0  0  0  0  0  0  0  0  0  0  0  0
    9.6641  -17.9860   21.8609 C   0  0  1  0  0  0  0  0  0  0  0  0
    9.1888  -19.3358   22.1672 C   0  0  0  0  0  0  0  0  0  0  0  0
    8.4953  -20.1729   21.1979 C   0  0  0  0  0  0  0  0  0  0  0  0
    8.6761  -21.6233   21.2107 C   0  0  0  0  0  0  0  0  0  0  0  0
    9.4006  -22.3200   21.9185 O   0  0  0  0  0  0  0  0  0  0  0  0
   10.3550  -17.3127   23.0039 C   0  0  0  0  0  0  0  0  0  0  0  0
   11.6077  -17.2338   23.0334 O   0  0  0  0  0  0  0  0  0  0  0  0
    7.9018  -22.3512   20.2653 O   0  0  0  0  0  0  0  0  0  0  0  0
    9.6473  -16.7407   24.0896 N   0  0  0  0  0  0  0  0  0  0  0  0
   10.3509  -16.2570   25.2888 C   0  0  1  0  0  0  0  0  0  0  0  0
    9.9918  -14.8135   25.4955 C   0  0  0  0  0  0  0  0  0  0  0  0
    8.5661  -14.5818   25.6547 C   0  0  0  0  0  0  0  0  0  0  0  0
    7.5814  -15.5583   25.7068 C   0  0  0  0  0  0  0  0  0  0  0  0
    6.3899  -14.9552   25.8238 N   0  0  0  0  0  0  0  0  0  0  0  0
    6.5329  -13.6044   25.8537 C   0  0  0  0  0  0  0  0  0  0  0  0
    5.6169  -12.5808   25.9768 C   0  0  0  0  0  0  0  0  0  0  0  0
    6.0600  -11.2809   25.9978 C   0  0  0  0  0  0  0  0  0  0  0  0
    7.3970  -11.0155   25.8970 C   0  0  0  0  0  0  0  0  0  0  0  0
    8.2950  -12.0462   25.7746 C   0  0  0  0  0  0  0  0  0  0  0  0
    7.8948  -13.3630   25.7483 C   0  0  0  0  0  0  0  0  0  0  0  0
   10.1237  -17.1359   26.4348 C   0  0  0  0  0  0  0  0  0  0  0  0
   10.7732  -16.9041   27.5083 O   0  0  0  0  0  0  0  0  0  0  0  0
    9.2597  -18.2117   26.4874 O   0  0  0  0  0  0  0  0  0  0  0  0
  2  1  1  6
  2  3  1  0
  3  4  1  0
  4  5  2  0
  4  8  1  0
  6  7  2  0
  6  2  1  0
  9  6  1  0
 10 11  1  1
 10  9  1  0
 11 12  1  0
 12 13  1  0
 13 17  1  0
 14 13  2  0
 15 18  1  0
 15 10  1  0
 16 15  2  0
 19 18  1  0
 19 20  1  1
 20 21  1  0
 21 22  2  0
 22 23  1  0
 24 23  1  0
 25 24  2  0
 26 25  1  0
 27 28  1  0
 27 26  2  0
 28 29  2  0
 29 21  1  0
 29 24  1  0
 30 32  1  0
 30 19  1  0
 31 30  2  0
M  END
$$$$
