DEW.pdb
     RDKit          3D

 32 33  0  0  1  0  0  0  0  0999 V2000
    9.0482  -12.7486   17.8143 N   0  0  0  0  0  0  0  0  0  0  0  0
    8.0464  -13.6797   18.2594 C   0  0  1  0  0  0  0  0  0  0  0  0
    7.2429  -14.1915   17.1134 C   0  0  0  0  0  0  0  0  0  0  0  0
    7.9948  -14.9472   16.0941 C   0  0  0  0  0  0  0  0  0  0  0  0
    9.2106  -15.1689   16.0797 O   0  0  0  0  0  0  0  0  0  0  0  0
    8.5857  -14.8085   19.0537 C   0  0  0  0  0  0  0  0  0  0  0  0
    7.7759  -15.6221   19.5479 O   0  0  0  0  0  0  0  0  0  0  0  0
    7.2308  -15.4612   15.0356 O   0  0  0  0  0  0  0  0  0  0  0  0
    9.9756  -15.0338   19.2997 N   0  0  0  0  0  0  0  0  0  0  0  0
   10.4773  -16.0469   20.1685 C   0  0  1  0  0  0  0  0  0  0  0  0
   11.7582  -16.6672   19.8273 C   0  0  0  0  0  0  0  0  0  0  0  0
   12.3495  -17.7477   20.6043 C   0  0  0  0  0  0  0  0  0  0  0  0
   13.6407  -18.3142   20.2191 C   0  0  0  0  0  0  0  0  0  0  0  0
   14.6741  -17.7496   19.8660 O   0  0  0  0  0  0  0  0  0  0  0  0
   10.3530  -15.6657   21.6094 C   0  0  0  0  0  0  0  0  0  0  0  0
   10.7587  -14.5468   22.0093 O   0  0  0  0  0  0  0  0  0  0  0  0
   13.7284  -19.7334   20.2538 O   0  0  0  0  0  0  0  0  0  0  0  0
    9.7829  -16.5285   22.5776 N   0  0  0  0  0  0  0  0  0  0  0  0
    9.2975  -16.0123   23.8680 C   0  0  1  0  0  0  0  0  0  0  0  0
    7.9257  -15.4379   23.6596 C   0  0  0  0  0  0  0  0  0  0  0  0
    7.2971  -14.9652   24.8815 C   0  0  0  0  0  0  0  0  0  0  0  0
    6.5850  -15.7406   25.7856 C   0  0  0  0  0  0  0  0  0  0  0  0
    6.1302  -14.9442   26.7635 N   0  0  0  0  0  0  0  0  0  0  0  0
    6.5100  -13.6567   26.5540 C   0  0  0  0  0  0  0  0  0  0  0  0
    6.3012  -12.5021   27.2788 C   0  0  0  0  0  0  0  0  0  0  0  0
    6.8326  -11.3190   26.8267 C   0  0  0  0  0  0  0  0  0  0  0  0
    7.5593  -11.2971   25.6694 C   0  0  0  0  0  0  0  0  0  0  0  0
    7.7572  -12.4553   24.9600 C   0  0  0  0  0  0  0  0  0  0  0  0
    7.2422  -13.6623   25.3759 C   0  0  0  0  0  0  0  0  0  0  0  0
    9.4089  -17.0176   24.9236 C   0  0  0  0  0  0  0  0  0  0  0  0
    9.3089  -18.2467   24.5963 O   0  0  0  0  0  0  0  0  0  0  0  0
    9.6207  -16.7791   26.2671 O   0  0  0  0  0  0  0  0  0  0  0  0
  2  1  1  6
  2  3  1  0
  3  4  1  0
  4  5  2  0
  4  8  1  0
  6  7  2  0
  6  2  1  0
  9  6  1  0
 10 11  1  6
 10  9  1  0
 11 12  1  0
 12 13  1  0
 13 17  1  0
 14 13  2  0
 15 18  1  0
 15 10  1  0
 16 15  2  0
 19 18  1  0
 19 20  1  6
 20 21  1  0
 21 22  2  0
 22 23  1  0
 24 23  1  0
 25 24  2  0
 26 25  1  0
 27 28  1  0
 27 26  2  0
 28 29  2  0
 29 21  1  0
 29 24  1  0
 30 32  1  0
 30 19  1  0
 31 30  2  0
M  END
$$$$
