DEW.pdb
     RDKit          3D

 32 33  0  0  1  0  0  0  0  0999 V2000
   12.3675  -17.9782   17.9721 N   0  0  0  0  0  0  0  0  0  0  0  0
   12.8029  -18.0883   19.3384 C   0  0  1  0  0  0  0  0  0  0  0  0
   13.9813  -17.2136   19.5979 C   0  0  0  0  0  0  0  0  0  0  0  0
   15.2325  -17.6134   18.9270 C   0  0  0  0  0  0  0  0  0  0  0  0
   15.6765  -18.7603   18.8041 O   0  0  0  0  0  0  0  0  0  0  0  0
   11.7365  -17.8220   20.3324 C   0  0  0  0  0  0  0  0  0  0  0  0
   11.0191  -16.8114   20.1713 O   0  0  0  0  0  0  0  0  0  0  0  0
   15.9855  -16.5656   18.3760 O   0  0  0  0  0  0  0  0  0  0  0  0
   11.4694  -18.6421   21.4722 N   0  0  0  0  0  0  0  0  0  0  0  0
   10.3565  -18.4572   22.3439 C   0  0  1  0  0  0  0  0  0  0  0  0
    9.4251  -19.5738   22.5098 C   0  0  0  0  0  0  0  0  0  0  0  0
    9.8599  -20.9382   22.7753 C   0  0  0  0  0  0  0  0  0  0  0  0
    8.8957  -22.0367   22.7629 C   0  0  0  0  0  0  0  0  0  0  0  0
    7.8872  -22.2066   23.4452 O   0  0  0  0  0  0  0  0  0  0  0  0
   10.7501  -17.8001   23.6286 C   0  0  0  0  0  0  0  0  0  0  0  0
   11.7803  -18.1703   24.2435 O   0  0  0  0  0  0  0  0  0  0  0  0
    9.1515  -23.0733   21.8232 O   0  0  0  0  0  0  0  0  0  0  0  0
    9.9976  -16.7481   24.2062 N   0  0  0  0  0  0  0  0  0  0  0  0
   10.3215  -16.2230   25.5428 C   0  0  1  0  0  0  0  0  0  0  0  0
    9.9405  -14.7710   25.5835 C   0  0  0  0  0  0  0  0  0  0  0  0
    8.5056  -14.5426   25.6061 C   0  0  0  0  0  0  0  0  0  0  0  0
    7.5243  -15.4900   25.3505 C   0  0  0  0  0  0  0  0  0  0  0  0
    6.3261  -14.8941   25.4313 N   0  0  0  0  0  0  0  0  0  0  0  0
    6.4613  -13.5764   25.7335 C   0  0  0  0  0  0  0  0  0  0  0  0
    5.5348  -12.5746   25.9337 C   0  0  0  0  0  0  0  0  0  0  0  0
    5.9689  -11.3116   26.2547 C   0  0  0  0  0  0  0  0  0  0  0  0
    7.3074  -11.0609   26.3721 C   0  0  0  0  0  0  0  0  0  0  0  0
    8.2159  -12.0694   26.1689 C   0  0  0  0  0  0  0  0  0  0  0  0
    7.8251  -13.3489   25.8448 C   0  0  0  0  0  0  0  0  0  0  0  0
    9.7507  -17.0568   26.5993 C   0  0  0  0  0  0  0  0  0  0  0  0
   10.0049  -16.7493   27.8112 O   0  0  0  0  0  0  0  0  0  0  0  0
    8.9432  -18.1636   26.4273 O   0  0  0  0  0  0  0  0  0  0  0  0
  2  1  1  6
  2  3  1  0
  3  4  1  0
  4  5  2  0
  4  8  1  0
  6  7  2  0
  6  2  1  0
  9  6  1  0
 10 11  1  1
 10  9  1  0
 11 12  1  0
 12 13  1  0
 13 17  1  0
 14 13  2  0
 15 18  1  0
 15 10  1  0
 16 15  2  0
 19 18  1  0
 19 20  1  6
 20 21  1  0
 21 22  2  0
 22 23  1  0
 24 23  1  0
 25 24  2  0
 26 25  1  0
 27 28  1  0
 27 26  2  0
 28 29  2  0
 29 21  1  0
 29 24  1  0
 30 32  1  0
 30 19  1  0
 31 30  2  0
M  END
$$$$
