DEW.pdb
     RDKit          3D

 32 33  0  0  1  0  0  0  0  0999 V2000
    7.9766  -17.2119   20.2005 N   0  0  0  0  0  0  0  0  0  0  0  0
    8.3226  -18.4131   20.9118 C   0  0  1  0  0  0  0  0  0  0  0  0
    8.2867  -19.5993   20.0104 C   0  0  0  0  0  0  0  0  0  0  0  0
    7.1337  -19.6689   19.0932 C   0  0  0  0  0  0  0  0  0  0  0  0
    6.2823  -18.7937   18.9016 O   0  0  0  0  0  0  0  0  0  0  0  0
    9.6252  -18.3411   21.6148 C   0  0  0  0  0  0  0  0  0  0  0  0
   10.6029  -18.9311   21.1070 O   0  0  0  0  0  0  0  0  0  0  0  0
    7.0068  -20.8644   18.3700 O   0  0  0  0  0  0  0  0  0  0  0  0
    9.8448  -17.6430   22.8426 N   0  0  0  0  0  0  0  0  0  0  0  0
   11.1324  -17.4156   23.4109 C   0  0  1  0  0  0  0  0  0  0  0  0
   12.2283  -17.0700   22.5045 C   0  0  0  0  0  0  0  0  0  0  0  0
   12.1574  -15.9664   21.5568 C   0  0  0  0  0  0  0  0  0  0  0  0
   13.2834  -15.6805   20.6698 C   0  0  0  0  0  0  0  0  0  0  0  0
   13.3517  -14.9239   19.7032 O   0  0  0  0  0  0  0  0  0  0  0  0
   11.0648  -16.5585   24.6347 C   0  0  0  0  0  0  0  0  0  0  0  0
   12.0539  -15.8686   24.9843 O   0  0  0  0  0  0  0  0  0  0  0  0
   14.4896  -16.3770   20.9577 O   0  0  0  0  0  0  0  0  0  0  0  0
    9.9060  -16.4816   25.4460 N   0  0  0  0  0  0  0  0  0  0  0  0
   10.0058  -16.3030   26.9038 C   0  0  1  0  0  0  0  0  0  0  0  0
    8.6216  -16.0986   27.4492 C   0  0  0  0  0  0  0  0  0  0  0  0
    7.7290  -15.4053   26.5359 C   0  0  0  0  0  0  0  0  0  0  0  0
    6.8446  -16.0023   25.6486 C   0  0  0  0  0  0  0  0  0  0  0  0
    6.2231  -15.0386   24.9541 N   0  0  0  0  0  0  0  0  0  0  0  0
    6.6547  -13.8097   25.3405 C   0  0  0  0  0  0  0  0  0  0  0  0
    6.3053  -12.5383   24.9360 C   0  0  0  0  0  0  0  0  0  0  0  0
    6.9055  -11.4549   25.5299 C   0  0  0  0  0  0  0  0  0  0  0  0
    7.8381  -11.6460   26.5107 C   0  0  0  0  0  0  0  0  0  0  0  0
    8.1745  -12.9182   26.9009 C   0  0  0  0  0  0  0  0  0  0  0  0
    7.5989  -14.0318   26.3321 C   0  0  0  0  0  0  0  0  0  0  0  0
   10.7780  -17.3783   27.5241 C   0  0  0  0  0  0  0  0  0  0  0  0
   11.2124  -17.1994   28.7103 O   0  0  0  0  0  0  0  0  0  0  0  0
   11.0923  -18.5975   26.9572 O   0  0  0  0  0  0  0  0  0  0  0  0
  2  1  1  6
  2  3  1  0
  3  4  1  0
  4  5  2  0
  4  8  1  0
  6  7  2  0
  6  2  1  0
  9  6  1  0
 10 11  1  6
 10  9  1  0
 11 12  1  0
 12 13  1  0
 13 17  1  0
 14 13  2  0
 15 18  1  0
 15 10  1  0
 16 15  2  0
 19 18  1  0
 19 20  1  1
 20 21  1  0
 21 22  2  0
 22 23  1  0
 24 23  1  0
 25 24  2  0
 26 25  1  0
 27 28  1  0
 27 26  2  0
 28 29  2  0
 29 21  1  0
 29 24  1  0
 30 32  1  0
 30 19  1  0
 31 30  2  0
M  END
$$$$
