DEW.pdb
     RDKit          3D

 32 33  0  0  1  0  0  0  0  0999 V2000
   10.2171  -15.2318   18.3797 N   0  0  0  0  0  0  0  0  0  0  0  0
    9.2500  -14.5661   19.2105 C   0  0  1  0  0  0  0  0  0  0  0  0
    7.9697  -14.3531   18.4779 C   0  0  0  0  0  0  0  0  0  0  0  0
    8.0961  -13.7716   17.1284 C   0  0  0  0  0  0  0  0  0  0  0  0
    9.0396  -13.9140   16.3429 O   0  0  0  0  0  0  0  0  0  0  0  0
    8.9960  -15.2480   20.5015 C   0  0  0  0  0  0  0  0  0  0  0  0
    8.0925  -14.7981   21.2385 O   0  0  0  0  0  0  0  0  0  0  0  0
    7.0202  -12.9745   16.7096 O   0  0  0  0  0  0  0  0  0  0  0  0
    9.7176  -16.3896   20.9695 N   0  0  0  0  0  0  0  0  0  0  0  0
    9.3777  -17.1202   22.1457 C   0  0  1  0  0  0  0  0  0  0  0  0
    9.3409  -18.5805   22.0567 C   0  0  0  0  0  0  0  0  0  0  0  0
   10.2635  -19.3497   21.2331 C   0  0  0  0  0  0  0  0  0  0  0  0
   10.5837  -20.7336   21.5774 C   0  0  0  0  0  0  0  0  0  0  0  0
   10.6296  -21.7324   20.8620 O   0  0  0  0  0  0  0  0  0  0  0  0
   10.0907  -16.6044   23.3551 C   0  0  0  0  0  0  0  0  0  0  0  0
   11.2826  -16.2178   23.2750 O   0  0  0  0  0  0  0  0  0  0  0  0
   10.8907  -20.9753   22.9450 O   0  0  0  0  0  0  0  0  0  0  0  0
    9.4716  -16.5261   24.6269 N   0  0  0  0  0  0  0  0  0  0  0  0
   10.2652  -16.3269   25.8507 C   0  0  1  0  0  0  0  0  0  0  0  0
    9.7931  -15.0673   26.5184 C   0  0  0  0  0  0  0  0  0  0  0  0
    8.3726  -14.8118   26.3488 C   0  0  0  0  0  0  0  0  0  0  0  0
    7.3824  -15.7728   26.2021 C   0  0  0  0  0  0  0  0  0  0  0  0
    6.2067  -15.1505   26.0352 N   0  0  0  0  0  0  0  0  0  0  0  0
    6.3658  -13.8015   26.0645 C   0  0  0  0  0  0  0  0  0  0  0  0
    5.4655  -12.7624   25.9553 C   0  0  0  0  0  0  0  0  0  0  0  0
    5.9180  -11.4686   26.0443 C   0  0  0  0  0  0  0  0  0  0  0  0
    7.2486  -11.2245   26.2393 C   0  0  0  0  0  0  0  0  0  0  0  0
    8.1310  -12.2703   26.3453 C   0  0  0  0  0  0  0  0  0  0  0  0
    7.7212  -13.5818   26.2611 C   0  0  0  0  0  0  0  0  0  0  0  0
   10.2679  -17.5247   26.6889 C   0  0  0  0  0  0  0  0  0  0  0  0
    9.4545  -18.4637   26.3982 O   0  0  0  0  0  0  0  0  0  0  0  0
   11.0761  -17.7605   27.7834 O   0  0  0  0  0  0  0  0  0  0  0  0
  2  1  1  6
  2  3  1  0
  3  4  1  0
  4  5  2  0
  4  8  1  0
  6  7  2  0
  6  2  1  0
  9  6  1  0
 10 11  1  6
 10  9  1  0
 11 12  1  0
 12 13  1  0
 13 17  1  0
 14 13  2  0
 15 18  1  0
 15 10  1  0
 16 15  2  0
 19 18  1  0
 19 20  1  1
 20 21  1  0
 21 22  2  0
 22 23  1  0
 24 23  1  0
 25 24  2  0
 26 25  1  0
 27 28  1  0
 27 26  2  0
 28 29  2  0
 29 21  1  0
 29 24  1  0
 30 32  1  0
 30 19  1  0
 31 30  2  0
M  END
$$$$
