DEW.pdb
     RDKit          3D

 32 33  0  0  1  0  0  0  0  0999 V2000
    9.4032  -16.2999   17.8258 N   0  0  0  0  0  0  0  0  0  0  0  0
    9.3186  -15.3504   18.9029 C   0  0  1  0  0  0  0  0  0  0  0  0
    8.2944  -14.3059   18.6177 C   0  0  0  0  0  0  0  0  0  0  0  0
    8.3889  -13.6648   17.2927 C   0  0  0  0  0  0  0  0  0  0  0  0
    9.2150  -13.9082   16.4063 O   0  0  0  0  0  0  0  0  0  0  0  0
    9.0702  -15.9653   20.2281 C   0  0  0  0  0  0  0  0  0  0  0  0
    7.9184  -16.3805   20.4791 O   0  0  0  0  0  0  0  0  0  0  0  0
    7.4300  -12.6752   17.0293 O   0  0  0  0  0  0  0  0  0  0  0  0
   10.0595  -16.1160   21.2486 N   0  0  0  0  0  0  0  0  0  0  0  0
    9.9717  -17.0638   22.3101 C   0  0  1  0  0  0  0  0  0  0  0  0
   10.6114  -18.3660   22.1184 C   0  0  0  0  0  0  0  0  0  0  0  0
   11.9869  -18.5163   21.6640 C   0  0  0  0  0  0  0  0  0  0  0  0
   12.5556  -19.8467   21.4568 C   0  0  0  0  0  0  0  0  0  0  0  0
   12.3334  -20.8992   22.0521 O   0  0  0  0  0  0  0  0  0  0  0  0
   10.2464  -16.4438   23.6432 C   0  0  0  0  0  0  0  0  0  0  0  0
   11.1655  -15.5986   23.7751 O   0  0  0  0  0  0  0  0  0  0  0  0
   13.5131  -19.9538   20.4105 O   0  0  0  0  0  0  0  0  0  0  0  0
    9.4997  -16.7704   24.8019 N   0  0  0  0  0  0  0  0  0  0  0  0
    9.8463  -16.2065   26.1168 C   0  0  1  0  0  0  0  0  0  0  0  0
    8.5851  -16.0799   26.9223 C   0  0  0  0  0  0  0  0  0  0  0  0
    7.5510  -15.2937   26.2712 C   0  0  0  0  0  0  0  0  0  0  0  0
    6.4292  -15.7950   25.6262 C   0  0  0  0  0  0  0  0  0  0  0  0
    5.7326  -14.7662   25.1225 N   0  0  0  0  0  0  0  0  0  0  0  0
    6.3429  -13.5855   25.4042 C   0  0  0  0  0  0  0  0  0  0  0  0
    6.0056  -12.2795   25.1170 C   0  0  0  0  0  0  0  0  0  0  0  0
    6.8187  -11.2630   25.5555 C   0  0  0  0  0  0  0  0  0  0  0  0
    7.9480  -11.5538   26.2685 C   0  0  0  0  0  0  0  0  0  0  0  0
    8.2691  -12.8592   26.5452 C   0  0  0  0  0  0  0  0  0  0  0  0
    7.4835  -13.9084   26.1245 C   0  0  0  0  0  0  0  0  0  0  0  0
   10.9304  -16.9541   26.7519 C   0  0  0  0  0  0  0  0  0  0  0  0
   11.2826  -18.0633   26.2289 O   0  0  0  0  0  0  0  0  0  0  0  0
   11.6359  -16.5815   27.8789 O   0  0  0  0  0  0  0  0  0  0  0  0
  2  1  1  6
  2  3  1  0
  3  4  1  0
  4  5  2  0
  4  8  1  0
  6  7  2  0
  6  2  1  0
  9  6  1  0
 10 11  1  6
 10  9  1  0
 11 12  1  0
 12 13  1  0
 13 17  1  0
 14 13  2  0
 15 18  1  0
 15 10  1  0
 16 15  2  0
 19 18  1  0
 19 20  1  1
 20 21  1  0
 21 22  2  0
 22 23  1  0
 24 23  1  0
 25 24  2  0
 26 25  1  0
 27 28  1  0
 27 26  2  0
 28 29  2  0
 29 21  1  0
 29 24  1  0
 30 32  1  0
 30 19  1  0
 31 30  2  0
M  END
$$$$
