DEW.pdb
     RDKit          3D

 32 33  0  0  1  0  0  0  0  0999 V2000
    9.1785  -14.5791   21.6379 N   0  0  0  0  0  0  0  0  0  0  0  0
    8.0199  -15.3498   22.0018 C   0  0  1  0  0  0  0  0  0  0  0  0
    7.2283  -15.7292   20.7974 C   0  0  0  0  0  0  0  0  0  0  0  0
    7.1677  -14.7149   19.7283 C   0  0  0  0  0  0  0  0  0  0  0  0
    6.3882  -13.7588   19.6541 O   0  0  0  0  0  0  0  0  0  0  0  0
    8.3277  -16.5506   22.8138 C   0  0  0  0  0  0  0  0  0  0  0  0
    7.3857  -17.3123   23.1209 O   0  0  0  0  0  0  0  0  0  0  0  0
    8.1028  -14.8691   18.6939 O   0  0  0  0  0  0  0  0  0  0  0  0
    9.6336  -16.9013   23.2771 N   0  0  0  0  0  0  0  0  0  0  0  0
    9.9126  -18.0416   24.0862 C   0  0  1  0  0  0  0  0  0  0  0  0
   10.7786  -19.0808   23.5275 C   0  0  0  0  0  0  0  0  0  0  0  0
   11.6960  -18.8409   22.4222 C   0  0  0  0  0  0  0  0  0  0  0  0
   12.5965  -19.8982   21.9664 C   0  0  0  0  0  0  0  0  0  0  0  0
   13.8235  -19.9610   22.0121 O   0  0  0  0  0  0  0  0  0  0  0  0
   10.2485  -17.6650   25.4941 C   0  0  0  0  0  0  0  0  0  0  0  0
   10.5021  -18.5509   26.3470 O   0  0  0  0  0  0  0  0  0  0  0  0
   11.9710  -21.0324   21.3789 O   0  0  0  0  0  0  0  0  0  0  0  0
   10.2974  -16.3179   25.9298 N   0  0  0  0  0  0  0  0  0  0  0  0
   10.5695  -15.9805   27.3366 C   0  0  1  0  0  0  0  0  0  0  0  0
    9.5196  -15.0120   27.8003 C   0  0  0  0  0  0  0  0  0  0  0  0
    8.4585  -14.7910   26.8324 C   0  0  0  0  0  0  0  0  0  0  0  0
    7.6552  -15.7697   26.2644 C   0  0  0  0  0  0  0  0  0  0  0  0
    6.8205  -15.1832   25.3946 N   0  0  0  0  0  0  0  0  0  0  0  0
    7.0296  -13.8414   25.3541 C   0  0  0  0  0  0  0  0  0  0  0  0
    6.4193  -12.8323   24.6390 C   0  0  0  0  0  0  0  0  0  0  0  0
    6.8337  -11.5352   24.8188 C   0  0  0  0  0  0  0  0  0  0  0  0
    7.8413  -11.2582   25.6999 C   0  0  0  0  0  0  0  0  0  0  0  0
    8.4382  -12.2745   26.4030 C   0  0  0  0  0  0  0  0  0  0  0  0
    8.0551  -13.5882   26.2532 C   0  0  0  0  0  0  0  0  0  0  0  0
   10.7281  -17.1815   28.1550 C   0  0  0  0  0  0  0  0  0  0  0  0
   10.9943  -17.0338   29.3941 O   0  0  0  0  0  0  0  0  0  0  0  0
   10.6137  -18.4893   27.7269 O   0  0  0  0  0  0  0  0  0  0  0  0
  2  1  1  6
  2  3  1  0
  3  4  1  0
  4  5  2  0
  4  8  1  0
  6  7  2  0
  6  2  1  0
  9  6  1  0
 10 11  1  6
 10  9  1  0
 11 12  1  0
 12 13  1  0
 13 17  1  0
 14 13  2  0
 15 18  1  0
 15 10  1  0
 16 15  2  0
 19 18  1  0
 19 20  1  1
 20 21  1  0
 21 22  2  0
 22 23  1  0
 24 23  1  0
 25 24  2  0
 26 25  1  0
 27 28  1  0
 27 26  2  0
 28 29  2  0
 29 21  1  0
 29 24  1  0
 30 32  1  0
 30 19  1  0
 31 30  2  0
M  END
$$$$
