DEW.pdb
     RDKit          3D

 32 33  0  0  1  0  0  0  0  0999 V2000
    8.0833  -17.2075   19.4276 N   0  0  0  0  0  0  0  0  0  0  0  0
    8.8526  -16.2548   20.1819 C   0  0  1  0  0  0  0  0  0  0  0  0
    8.1174  -14.9665   20.3271 C   0  0  0  0  0  0  0  0  0  0  0  0
    7.8661  -14.2307   19.0738 C   0  0  0  0  0  0  0  0  0  0  0  0
    8.2087  -14.5646   17.9342 O   0  0  0  0  0  0  0  0  0  0  0  0
    9.2885  -16.7501   21.5089 C   0  0  0  0  0  0  0  0  0  0  0  0
    8.4318  -17.2719   22.2542 O   0  0  0  0  0  0  0  0  0  0  0  0
    7.1617  -13.0252   19.2105 O   0  0  0  0  0  0  0  0  0  0  0  0
   10.6275  -16.6703   22.0026 N   0  0  0  0  0  0  0  0  0  0  0  0
   11.0963  -17.3719   23.1518 C   0  0  1  0  0  0  0  0  0  0  0  0
   12.4451  -17.9378   23.1043 C   0  0  0  0  0  0  0  0  0  0  0  0
   13.0104  -18.7356   24.1836 C   0  0  0  0  0  0  0  0  0  0  0  0
   14.3603  -19.2844   24.0681 C   0  0  0  0  0  0  0  0  0  0  0  0
   15.4068  -18.9186   24.5996 O   0  0  0  0  0  0  0  0  0  0  0  0
   10.7892  -16.6430   24.4212 C   0  0  0  0  0  0  0  0  0  0  0  0
   11.3049  -15.5218   24.6523 O   0  0  0  0  0  0  0  0  0  0  0  0
   14.4978  -20.4134   23.2141 O   0  0  0  0  0  0  0  0  0  0  0  0
    9.9186  -17.1679   25.4078 N   0  0  0  0  0  0  0  0  0  0  0  0
    9.8702  -16.5973   26.7640 C   0  0  1  0  0  0  0  0  0  0  0  0
    8.4368  -16.5650   27.2106 C   0  0  0  0  0  0  0  0  0  0  0  0
    7.5903  -15.7059   26.4000 C   0  0  0  0  0  0  0  0  0  0  0  0
    6.6609  -16.1282   25.4599 C   0  0  0  0  0  0  0  0  0  0  0  0
    6.1052  -15.0467   24.8953 N   0  0  0  0  0  0  0  0  0  0  0  0
    6.6249  -13.9066   25.4204 C   0  0  0  0  0  0  0  0  0  0  0  0
    6.3641  -12.5744   25.1768 C   0  0  0  0  0  0  0  0  0  0  0  0
    7.0428  -11.6153   25.8881 C   0  0  0  0  0  0  0  0  0  0  0  0
    7.9651  -11.9880   26.8255 C   0  0  0  0  0  0  0  0  0  0  0  0
    8.2128  -13.3183   27.0550 C   0  0  0  0  0  0  0  0  0  0  0  0
    7.5566  -14.3121   26.3647 C   0  0  0  0  0  0  0  0  0  0  0  0
   10.7986  -17.2778   27.6654 C   0  0  0  0  0  0  0  0  0  0  0  0
   10.8989  -16.8471   28.8623 O   0  0  0  0  0  0  0  0  0  0  0  0
   11.5942  -18.3641   27.3596 O   0  0  0  0  0  0  0  0  0  0  0  0
  2  1  1  1
  2  3  1  0
  3  4  1  0
  4  5  2  0
  4  8  1  0
  6  7  2  0
  6  2  1  0
  9  6  1  0
 10 11  1  6
 10  9  1  0
 11 12  1  0
 12 13  1  0
 13 17  1  0
 14 13  2  0
 15 18  1  0
 15 10  1  0
 16 15  2  0
 19 18  1  0
 19 20  1  1
 20 21  1  0
 21 22  2  0
 22 23  1  0
 24 23  1  0
 25 24  2  0
 26 25  1  0
 27 28  1  0
 27 26  2  0
 28 29  2  0
 29 21  1  0
 29 24  1  0
 30 32  1  0
 30 19  1  0
 31 30  2  0
M  END
$$$$
