DEW.pdb
     RDKit          3D

 32 33  0  0  1  0  0  0  0  0999 V2000
   10.2718  -17.1200   19.4500 N   0  0  0  0  0  0  0  0  0  0  0  0
    9.5590  -16.3376   20.4239 C   0  0  1  0  0  0  0  0  0  0  0  0
    8.1149  -16.2289   20.0716 C   0  0  0  0  0  0  0  0  0  0  0  0
    7.8248  -15.7006   18.7254 C   0  0  0  0  0  0  0  0  0  0  0  0
    6.7105  -15.4981   18.2305 O   0  0  0  0  0  0  0  0  0  0  0  0
    9.7133  -16.8240   21.8152 C   0  0  0  0  0  0  0  0  0  0  0  0
    8.7423  -17.4018   22.3492 O   0  0  0  0  0  0  0  0  0  0  0  0
    8.9466  -15.4024   17.9374 O   0  0  0  0  0  0  0  0  0  0  0  0
   10.9005  -16.6758   22.5973 N   0  0  0  0  0  0  0  0  0  0  0  0
   11.0978  -17.2870   23.8701 C   0  0  1  0  0  0  0  0  0  0  0  0
   12.1030  -18.3459   23.9717 C   0  0  0  0  0  0  0  0  0  0  0  0
   13.3990  -18.2768   23.3110 C   0  0  0  0  0  0  0  0  0  0  0  0
   14.3629  -19.3657   23.4591 C   0  0  0  0  0  0  0  0  0  0  0  0
   14.1832  -20.5818   23.4560 O   0  0  0  0  0  0  0  0  0  0  0  0
   11.1641  -16.2804   24.9743 C   0  0  0  0  0  0  0  0  0  0  0  0
   12.0296  -15.3710   24.9557 O   0  0  0  0  0  0  0  0  0  0  0  0
   15.7184  -18.9719   23.6340 O   0  0  0  0  0  0  0  0  0  0  0  0
   10.2726  -16.2996   26.0752 N   0  0  0  0  0  0  0  0  0  0  0  0
   10.6607  -15.7414   27.3809 C   0  0  1  0  0  0  0  0  0  0  0  0
    9.8951  -14.4673   27.5949 C   0  0  0  0  0  0  0  0  0  0  0  0
    8.6067  -14.4386   26.9233 C   0  0  0  0  0  0  0  0  0  0  0  0
    7.8483  -15.5442   26.5652 C   0  0  0  0  0  0  0  0  0  0  0  0
    6.7446  -15.1172   25.9353 N   0  0  0  0  0  0  0  0  0  0  0  0
    6.7283  -13.7610   25.8549 C   0  0  0  0  0  0  0  0  0  0  0  0
    5.8125  -12.8779   25.3225 C   0  0  0  0  0  0  0  0  0  0  0  0
    6.0540  -11.5282   25.4042 C   0  0  0  0  0  0  0  0  0  0  0  0
    7.1931  -11.0756   26.0090 C   0  0  0  0  0  0  0  0  0  0  0  0
    8.0942  -11.9683   26.5331 C   0  0  0  0  0  0  0  0  0  0  0  0
    7.8927  -13.3287   26.4726 C   0  0  0  0  0  0  0  0  0  0  0  0
   10.5436  -16.7364   28.4456 C   0  0  0  0  0  0  0  0  0  0  0  0
   10.8376  -16.3813   29.6353 O   0  0  0  0  0  0  0  0  0  0  0  0
   10.1353  -18.0478   28.3041 O   0  0  0  0  0  0  0  0  0  0  0  0
  2  1  1  6
  2  3  1  0
  3  4  1  0
  4  5  2  0
  4  8  1  0
  6  7  2  0
  6  2  1  0
  9  6  1  0
 10 11  1  6
 10  9  1  0
 11 12  1  0
 12 13  1  0
 13 17  1  0
 14 13  2  0
 15 18  1  0
 15 10  1  0
 16 15  2  0
 19 18  1  0
 19 20  1  1
 20 21  1  0
 21 22  2  0
 22 23  1  0
 24 23  1  0
 25 24  2  0
 26 25  1  0
 27 28  1  0
 27 26  2  0
 28 29  2  0
 29 21  1  0
 29 24  1  0
 30 32  1  0
 30 19  1  0
 31 30  2  0
M  END
$$$$
