DEW.pdb
     RDKit          3D

 32 33  0  0  1  0  0  0  0  0999 V2000
    8.3408  -17.6436   19.3182 N   0  0  0  0  0  0  0  0  0  0  0  0
    7.9843  -17.6783   20.7112 C   0  0  1  0  0  0  0  0  0  0  0  0
    6.7881  -18.5380   20.9374 C   0  0  0  0  0  0  0  0  0  0  0  0
    6.4325  -18.7777   22.3486 C   0  0  0  0  0  0  0  0  0  0  0  0
    6.0708  -19.8464   22.8530 O   0  0  0  0  0  0  0  0  0  0  0  0
    9.0915  -18.0928   21.6047 C   0  0  0  0  0  0  0  0  0  0  0  0
    9.7018  -19.1498   21.3365 O   0  0  0  0  0  0  0  0  0  0  0  0
    6.5201  -17.6606   23.1930 O   0  0  0  0  0  0  0  0  0  0  0  0
    9.5126  -17.3669   22.7618 N   0  0  0  0  0  0  0  0  0  0  0  0
   10.8616  -17.3101   23.2197 C   0  0  1  0  0  0  0  0  0  0  0  0
   11.9063  -17.0250   22.2352 C   0  0  0  0  0  0  0  0  0  0  0  0
   13.2483  -16.5950   22.6028 C   0  0  0  0  0  0  0  0  0  0  0  0
   14.2561  -16.3555   21.5715 C   0  0  0  0  0  0  0  0  0  0  0  0
   15.4481  -16.0772   21.6854 O   0  0  0  0  0  0  0  0  0  0  0  0
   10.9938  -16.5278   24.4876 C   0  0  0  0  0  0  0  0  0  0  0  0
   12.1280  -16.2380   24.9417 O   0  0  0  0  0  0  0  0  0  0  0  0
   13.8015  -16.4567   20.2276 O   0  0  0  0  0  0  0  0  0  0  0  0
    9.8704  -16.0821   25.2266 N   0  0  0  0  0  0  0  0  0  0  0  0
    9.7235  -16.3987   26.6567 C   0  0  1  0  0  0  0  0  0  0  0  0
    8.2777  -16.7028   26.9258 C   0  0  0  0  0  0  0  0  0  0  0  0
    7.3578  -15.7509   26.3263 C   0  0  0  0  0  0  0  0  0  0  0  0
    6.2221  -16.0643   25.5930 C   0  0  0  0  0  0  0  0  0  0  0  0
    5.6553  -14.9227   25.1775 N   0  0  0  0  0  0  0  0  0  0  0  0
    6.3667  -13.8468   25.6044 C   0  0  0  0  0  0  0  0  0  0  0  0
    6.1747  -12.4903   25.4461 C   0  0  0  0  0  0  0  0  0  0  0  0
    7.0643  -11.6139   26.0184 C   0  0  0  0  0  0  0  0  0  0  0  0
    8.1253  -12.0919   26.7354 C   0  0  0  0  0  0  0  0  0  0  0  0
    8.3017  -13.4450   26.8826 C   0  0  0  0  0  0  0  0  0  0  0  0
    7.4355  -14.3584   26.3256 C   0  0  0  0  0  0  0  0  0  0  0  0
   10.6752  -17.4250   27.0792 C   0  0  0  0  0  0  0  0  0  0  0  0
   11.2489  -17.2838   28.2100 O   0  0  0  0  0  0  0  0  0  0  0  0
   11.0265  -18.5601   26.3757 O   0  0  0  0  0  0  0  0  0  0  0  0
  2  1  1  6
  2  3  1  0
  3  4  1  0
  4  5  2  0
  4  8  1  0
  6  7  2  0
  6  2  1  0
  9  6  1  0
 10 11  1  6
 10  9  1  0
 11 12  1  0
 12 13  1  0
 13 17  1  0
 14 13  2  0
 15 18  1  0
 15 10  1  0
 16 15  2  0
 19 18  1  0
 19 20  1  6
 20 21  1  0
 21 22  2  0
 22 23  1  0
 24 23  1  0
 25 24  2  0
 26 25  1  0
 27 28  1  0
 27 26  2  0
 28 29  2  0
 29 21  1  0
 29 24  1  0
 30 32  1  0
 30 19  1  0
 31 30  2  0
M  END
$$$$
