SCS.pdb
     RDKit          3D

 19 18  0  0  1  0  0  0  0  0999 V2000
   17.5317  -26.7805   -3.2164 O   0  0  0  0  0  0  0  0  0  0  0  0
   16.5609  -26.9491   -4.2064 C   0  0  0  0  0  0  0  0  0  0  0  0
   16.5949  -25.7178   -5.0768 C   0  0  2  0  0  0  0  0  0  0  0  0
   17.9317  -25.4410   -5.5009 N   0  0  0  0  0  0  0  0  0  0  0  0
   16.0074  -24.5386   -4.4429 C   0  0  0  0  0  0  0  0  0  0  0  0
   16.7087  -23.6571   -3.8364 O   0  0  0  0  0  0  0  0  0  0  0  0
   14.5978  -24.3545   -4.4972 N   0  0  0  0  0  0  0  0  0  0  0  0
   13.9730  -23.1627   -3.9499 C   0  0  1  0  0  0  0  0  0  0  0  0
   12.7341  -22.7770   -4.7186 C   0  0  0  0  0  0  0  0  0  0  0  0
   12.1532  -21.1885   -4.0474 S   0  0  0  0  0  0  0  0  0  0  0  0
   13.7055  -23.3137   -2.4934 C   0  0  0  0  0  0  0  0  0  0  0  0
   13.1367  -24.3538   -2.0750 O   0  0  0  0  0  0  0  0  0  0  0  0
   15.6815  -21.3154    0.4080 O   0  0  0  0  0  0  0  0  0  0  0  0
   15.0031  -22.5024    0.6783 C   0  0  0  0  0  0  0  0  0  0  0  0
   13.7527  -22.5110   -0.1456 C   0  0  2  0  0  0  0  0  0  0  0  0
   14.0676  -22.3245   -1.5426 N   0  0  0  0  0  0  0  0  0  0  0  0
   12.8232  -21.4403    0.3388 C   0  0  0  0  0  0  0  0  0  0  0  0
   12.3284  -21.4322    1.6335 O   0  0  0  0  0  0  0  0  0  0  0  0
   12.4634  -20.5101   -0.4253 O   0  0  0  0  0  0  0  0  0  0  0  0
  2  1  1  0
  3  2  1  0
  3  4  1  1
  5  6  2  0
  5  3  1  0
  7  5  1  0
  8  7  1  0
  8  9  1  6
 10  9  1  0
 11  8  1  0
 11 12  2  0
 13 14  1  0
 15 16  1  0
 15 14  1  1
 16 11  1  0
 17 15  1  0
 18 17  1  0
 19 17  2  0
M  END
$$$$
