SCS.pdb
     RDKit          3D

 19 18  0  0  1  0  0  0  0  0999 V2000
   25.0388  -10.7627  -15.8250 O   0  0  0  0  0  0  0  0  0  0  0  0
   24.2838   -9.6094  -16.0503 C   0  0  0  0  0  0  0  0  0  0  0  0
   22.8336  -10.0235  -16.0669 C   0  0  2  0  0  0  0  0  0  0  0  0
   22.4738  -10.5361  -17.3519 N   0  0  0  0  0  0  0  0  0  0  0  0
   21.9173   -8.9556  -15.6699 C   0  0  0  0  0  0  0  0  0  0  0  0
   21.2229   -8.2902  -16.5136 O   0  0  0  0  0  0  0  0  0  0  0  0
   21.7851   -8.6354  -14.2902 N   0  0  0  0  0  0  0  0  0  0  0  0
   20.8712   -7.5987  -13.8426 C   0  0  1  0  0  0  0  0  0  0  0  0
   20.3939   -7.8437  -12.4332 C   0  0  0  0  0  0  0  0  0  0  0  0
   19.3282   -9.3183  -12.4712 S   0  0  0  0  0  0  0  0  0  0  0  0
   21.4688   -6.2451  -14.0053 C   0  0  0  0  0  0  0  0  0  0  0  0
   22.6360   -6.0318  -13.5901 O   0  0  0  0  0  0  0  0  0  0  0  0
   21.7695   -4.2909  -17.1343 O   0  0  0  0  0  0  0  0  0  0  0  0
   21.1551   -3.4193  -16.2370 C   0  0  0  0  0  0  0  0  0  0  0  0
   21.4424   -3.9127  -14.8526 C   0  0  2  0  0  0  0  0  0  0  0  0
   20.7724   -5.1698  -14.6158 N   0  0  0  0  0  0  0  0  0  0  0  0
   21.0132   -2.8832  -13.8522 C   0  0  0  0  0  0  0  0  0  0  0  0
   21.8570   -1.8609  -13.4469 O   0  0  0  0  0  0  0  0  0  0  0  0
   19.8630   -2.9198  -13.3480 O   0  0  0  0  0  0  0  0  0  0  0  0
  2  1  1  0
  3  2  1  0
  3  4  1  6
  5  6  2  0
  5  3  1  0
  7  5  1  0
  8  7  1  0
  8  9  1  1
 10  9  1  0
 11  8  1  0
 11 12  2  0
 13 14  1  0
 15 16  1  0
 15 14  1  6
 16 11  1  0
 17 15  1  0
 18 17  1  0
 19 17  2  0
M  END
$$$$
