SCS.pdb
     RDKit          3D

 19 18  0  0  1  0  0  0  0  0999 V2000
   15.4705  -11.1093  -11.5242 O   0  0  0  0  0  0  0  0  0  0  0  0
   15.8532  -10.9514  -10.1903 C   0  0  0  0  0  0  0  0  0  0  0  0
   15.0146   -9.8370   -9.6160 C   0  0  2  0  0  0  0  0  0  0  0  0
   13.6233  -10.1340   -9.7558 N   0  0  0  0  0  0  0  0  0  0  0  0
   15.3153   -8.5258  -10.1886 C   0  0  0  0  0  0  0  0  0  0  0  0
   14.6420   -8.0203  -11.1519 O   0  0  0  0  0  0  0  0  0  0  0  0
   16.4000   -7.7726   -9.6596 N   0  0  0  0  0  0  0  0  0  0  0  0
   16.7901   -6.5018  -10.2453 C   0  0  1  0  0  0  0  0  0  0  0  0
   16.3056   -5.3343   -9.4227 C   0  0  0  0  0  0  0  0  0  0  0  0
   16.4335   -5.8150   -7.6724 S   0  0  0  0  0  0  0  0  0  0  0  0
   18.2577   -6.4468  -10.4879 C   0  0  0  0  0  0  0  0  0  0  0  0
   19.0470   -6.4979   -9.5108 O   0  0  0  0  0  0  0  0  0  0  0  0
   22.0282   -7.6060  -12.8540 O   0  0  0  0  0  0  0  0  0  0  0  0
   20.6478   -7.6447  -12.6663 C   0  0  0  0  0  0  0  0  0  0  0  0
   20.2463   -6.3806  -11.9710 C   0  0  2  0  0  0  0  0  0  0  0  0
   18.8144   -6.3379  -11.7886 N   0  0  0  0  0  0  0  0  0  0  0  0
   20.7184   -5.1991  -12.7622 C   0  0  0  0  0  0  0  0  0  0  0  0
   22.0325   -4.7612  -12.7092 O   0  0  0  0  0  0  0  0  0  0  0  0
   19.9258   -4.5662  -13.5037 O   0  0  0  0  0  0  0  0  0  0  0  0
  2  1  1  0
  3  2  1  0
  3  4  1  6
  5  6  2  0
  5  3  1  0
  7  5  1  0
  8  7  1  0
  8  9  1  1
 10  9  1  0
 11  8  1  0
 11 12  2  0
 13 14  1  0
 15 16  1  0
 15 14  1  6
 16 11  1  0
 17 15  1  0
 18 17  1  0
 19 17  2  0
M  END
$$$$
