SCS.pdb
     RDKit          3D

 19 18  0  0  1  0  0  0  0  0999 V2000
   14.8811  -12.4140  -11.2454 O   0  0  0  0  0  0  0  0  0  0  0  0
   15.0822  -11.1138  -11.7143 C   0  0  0  0  0  0  0  0  0  0  0  0
   15.0411  -10.1978  -10.5168 C   0  0  2  0  0  0  0  0  0  0  0  0
   13.7190  -10.1387   -9.9766 N   0  0  0  0  0  0  0  0  0  0  0  0
   15.5382   -8.8513  -10.7948 C   0  0  0  0  0  0  0  0  0  0  0  0
   14.9399   -8.0420  -11.5846 O   0  0  0  0  0  0  0  0  0  0  0  0
   16.7365   -8.4130  -10.1656 N   0  0  0  0  0  0  0  0  0  0  0  0
   17.2295   -7.0586  -10.3466 C   0  0  1  0  0  0  0  0  0  0  0  0
   17.4377   -6.3579   -9.0276 C   0  0  0  0  0  0  0  0  0  0  0  0
   18.1479   -4.7221   -9.3897 S   0  0  0  0  0  0  0  0  0  0  0  0
   18.4542   -7.0384  -11.1924 C   0  0  0  0  0  0  0  0  0  0  0  0
   19.4462   -7.7346  -10.8587 O   0  0  0  0  0  0  0  0  0  0  0  0
   20.6402   -5.9231  -15.3046 O   0  0  0  0  0  0  0  0  0  0  0  0
   19.5058   -5.7044  -14.5252 C   0  0  0  0  0  0  0  0  0  0  0  0
   19.7521   -6.3144  -13.1799 C   0  0  2  0  0  0  0  0  0  0  0  0
   18.5550   -6.2589  -12.3740 N   0  0  0  0  0  0  0  0  0  0  0  0
   20.8834   -5.6019  -12.5037 C   0  0  0  0  0  0  0  0  0  0  0  0
   22.1848   -6.0753  -12.5618 O   0  0  0  0  0  0  0  0  0  0  0  0
   20.6798   -4.5435  -11.8581 O   0  0  0  0  0  0  0  0  0  0  0  0
  2  1  1  0
  3  2  1  0
  3  4  1  6
  5  6  2  0
  5  3  1  0
  7  5  1  0
  8  7  1  0
  8  9  1  1
 10  9  1  0
 11  8  1  0
 11 12  2  0
 13 14  1  0
 15 16  1  0
 15 14  1  6
 16 11  1  0
 17 15  1  0
 18 17  1  0
 19 17  2  0
M  END
$$$$
