SCS.pdb
     RDKit          3D

 19 18  0  0  1  0  0  0  0  0999 V2000
   15.7294  -12.5466  -10.9934 O   0  0  0  0  0  0  0  0  0  0  0  0
   16.1016  -11.3376  -11.5855 C   0  0  0  0  0  0  0  0  0  0  0  0
   15.3227  -10.2459  -10.8953 C   0  0  2  0  0  0  0  0  0  0  0  0
   13.9544  -10.2690  -11.3085 N   0  0  0  0  0  0  0  0  0  0  0  0
   15.8903   -8.9125  -11.0883 C   0  0  0  0  0  0  0  0  0  0  0  0
   15.8419   -8.2950  -12.2078 O   0  0  0  0  0  0  0  0  0  0  0  0
   16.5253   -8.2660   -9.9917 N   0  0  0  0  0  0  0  0  0  0  0  0
   17.0986   -6.9385  -10.1302 C   0  0  1  0  0  0  0  0  0  0  0  0
   16.9750   -6.1398   -8.8570 C   0  0  0  0  0  0  0  0  0  0  0  0
   15.2039   -6.0375   -8.4519 S   0  0  0  0  0  0  0  0  0  0  0  0
   18.5039   -7.0053  -10.6166 C   0  0  0  0  0  0  0  0  0  0  0  0
   19.2158   -7.9956  -10.3121 O   0  0  0  0  0  0  0  0  0  0  0  0
   21.4229   -7.5903  -13.6646 O   0  0  0  0  0  0  0  0  0  0  0  0
   20.1916   -7.3975  -13.0408 C   0  0  0  0  0  0  0  0  0  0  0  0
   20.3294   -6.2327  -12.1097 C   0  0  2  0  0  0  0  0  0  0  0  0
   19.0848   -5.9891  -11.4188 N   0  0  0  0  0  0  0  0  0  0  0  0
   20.7578   -5.0208  -12.8795 C   0  0  0  0  0  0  0  0  0  0  0  0
   22.0906   -4.6553  -12.9857 O   0  0  0  0  0  0  0  0  0  0  0  0
   19.9098   -4.2950  -13.4562 O   0  0  0  0  0  0  0  0  0  0  0  0
  2  1  1  0
  3  2  1  0
  3  4  1  6
  5  6  2  0
  5  3  1  0
  7  5  1  0
  8  7  1  0
  8  9  1  1
 10  9  1  0
 11  8  1  0
 11 12  2  0
 13 14  1  0
 15 16  1  0
 15 14  1  6
 16 11  1  0
 17 15  1  0
 18 17  1  0
 19 17  2  0
M  END
$$$$
