SCS.pdb
     RDKit          3D

 19 18  0  0  1  0  0  0  0  0999 V2000
   15.1305  -11.8233  -14.6556 O   0  0  0  0  0  0  0  0  0  0  0  0
   15.4372  -10.4741  -14.4644 C   0  0  0  0  0  0  0  0  0  0  0  0
   15.0614  -10.1294  -13.0450 C   0  0  2  0  0  0  0  0  0  0  0  0
   13.6400  -10.0959  -12.8973 N   0  0  0  0  0  0  0  0  0  0  0  0
   15.6521   -8.8783  -12.5724 C   0  0  0  0  0  0  0  0  0  0  0  0
   15.2110   -7.7293  -12.9216 O   0  0  0  0  0  0  0  0  0  0  0  0
   16.7642   -8.9299  -11.6867 N   0  0  0  0  0  0  0  0  0  0  0  0
   17.4124   -7.7161  -11.2213 C   0  0  1  0  0  0  0  0  0  0  0  0
   17.6255   -7.7325   -9.7284 C   0  0  0  0  0  0  0  0  0  0  0  0
   18.4515   -6.1737   -9.2822 S   0  0  0  0  0  0  0  0  0  0  0  0
   18.6755   -7.4589  -11.9657 C   0  0  0  0  0  0  0  0  0  0  0  0
   19.5543   -8.3563  -12.0186 O   0  0  0  0  0  0  0  0  0  0  0  0
   20.9891   -5.1840  -15.4136 O   0  0  0  0  0  0  0  0  0  0  0  0
   19.8277   -5.2451  -14.6457 C   0  0  0  0  0  0  0  0  0  0  0  0
   20.1218   -6.0825  -13.4396 C   0  0  2  0  0  0  0  0  0  0  0  0
   18.9370   -6.2311  -12.6274 N   0  0  0  0  0  0  0  0  0  0  0  0
   21.2331   -5.4582  -12.6521 C   0  0  0  0  0  0  0  0  0  0  0  0
   22.5653   -5.6940  -12.9535 O   0  0  0  0  0  0  0  0  0  0  0  0
   20.9836   -4.6949  -11.6857 O   0  0  0  0  0  0  0  0  0  0  0  0
  2  1  1  0
  3  2  1  0
  3  4  1  6
  5  6  2  0
  5  3  1  0
  7  5  1  0
  8  7  1  0
  8  9  1  1
 10  9  1  0
 11  8  1  0
 11 12  2  0
 13 14  1  0
 15 16  1  0
 15 14  1  6
 16 11  1  0
 17 15  1  0
 18 17  1  0
 19 17  2  0
M  END
$$$$
