SCS.pdb
     RDKit          3D

 19 18  0  0  1  0  0  0  0  0999 V2000
   21.6939  -12.6825  -20.2621 O   0  0  0  0  0  0  0  0  0  0  0  0
   21.7168  -11.9817  -19.0542 C   0  0  0  0  0  0  0  0  0  0  0  0
   23.1141  -12.0989  -18.4985 C   0  0  2  0  0  0  0  0  0  0  0  0
   23.3607  -13.4302  -18.0400 N   0  0  0  0  0  0  0  0  0  0  0  0
   23.4037  -11.1337  -17.4392 C   0  0  0  0  0  0  0  0  0  0  0  0
   22.7948  -11.1374  -16.3140 O   0  0  0  0  0  0  0  0  0  0  0  0
   24.4027  -10.1450  -17.6589 N   0  0  0  0  0  0  0  0  0  0  0  0
   24.7949   -9.2246  -16.6057 C   0  0  1  0  0  0  0  0  0  0  0  0
   26.2280   -8.7798  -16.7561 C   0  0  0  0  0  0  0  0  0  0  0  0
   27.2834  -10.1897  -16.2984 S   0  0  0  0  0  0  0  0  0  0  0  0
   23.8560   -8.0728  -16.5179 C   0  0  0  0  0  0  0  0  0  0  0  0
   23.4283   -7.5434  -17.5749 O   0  0  0  0  0  0  0  0  0  0  0  0
   20.5086   -5.6246  -14.3040 O   0  0  0  0  0  0  0  0  0  0  0  0
   21.4368   -6.6595  -14.2059 C   0  0  0  0  0  0  0  0  0  0  0  0
   22.4807   -6.4371  -15.2563 C   0  0  2  0  0  0  0  0  0  0  0  0
   23.4155   -7.5376  -15.2797 N   0  0  0  0  0  0  0  0  0  0  0  0
   23.1882   -5.1421  -14.9967 C   0  0  0  0  0  0  0  0  0  0  0  0
   22.7622   -3.9500  -15.5611 O   0  0  0  0  0  0  0  0  0  0  0  0
   24.1989   -5.1022  -14.2513 O   0  0  0  0  0  0  0  0  0  0  0  0
  2  1  1  0
  3  2  1  0
  3  4  1  1
  5  6  2  0
  5  3  1  0
  7  5  1  0
  8  7  1  0
  8  9  1  6
 10  9  1  0
 11  8  1  0
 11 12  2  0
 13 14  1  0
 15 16  1  0
 15 14  1  1
 16 11  1  0
 17 15  1  0
 18 17  1  0
 19 17  2  0
M  END
$$$$
