SCS.pdb
     RDKit          3D

 19 18  0  0  1  0  0  0  0  0999 V2000
   28.9940   -9.0428  -17.2337 O   0  0  0  0  0  0  0  0  0  0  0  0
   27.6430   -8.7321  -17.4042 C   0  0  0  0  0  0  0  0  0  0  0  0
   26.8675  -10.0154  -17.2410 C   0  0  2  0  0  0  0  0  0  0  0  0
   27.1782  -10.9263  -18.2979 N   0  0  0  0  0  0  0  0  0  0  0  0
   25.4220   -9.8160  -17.1492 C   0  0  0  0  0  0  0  0  0  0  0  0
   24.6694   -9.7223  -18.1795 O   0  0  0  0  0  0  0  0  0  0  0  0
   24.8173   -9.7211  -15.8650 N   0  0  0  0  0  0  0  0  0  0  0  0
   23.3886   -9.5017  -15.7204 C   0  0  1  0  0  0  0  0  0  0  0  0
   22.8525  -10.1217  -14.4545 C   0  0  0  0  0  0  0  0  0  0  0  0
   23.0822  -11.9215  -14.5938 S   0  0  0  0  0  0  0  0  0  0  0  0
   23.0512   -8.0556  -15.8236 C   0  0  0  0  0  0  0  0  0  0  0  0
   23.7673   -7.2108  -15.2289 O   0  0  0  0  0  0  0  0  0  0  0  0
   21.6671   -6.3083  -19.0561 O   0  0  0  0  0  0  0  0  0  0  0  0
   20.9216   -5.8842  -17.9577 C   0  0  0  0  0  0  0  0  0  0  0  0
   21.7268   -6.1606  -16.7257 C   0  0  2  0  0  0  0  0  0  0  0  0
   21.9435   -7.5801  -16.5725 N   0  0  0  0  0  0  0  0  0  0  0  0
   21.0248   -5.5963  -15.5284 C   0  0  0  0  0  0  0  0  0  0  0  0
   21.1107   -4.2534  -15.1957 O   0  0  0  0  0  0  0  0  0  0  0  0
   20.3312   -6.3345  -14.7851 O   0  0  0  0  0  0  0  0  0  0  0  0
  2  1  1  0
  3  2  1  0
  3  4  1  6
  5  6  2  0
  5  3  1  0
  7  5  1  0
  8  7  1  0
  8  9  1  1
 10  9  1  0
 11  8  1  0
 11 12  2  0
 13 14  1  0
 15 16  1  0
 15 14  1  6
 16 11  1  0
 17 15  1  0
 18 17  1  0
 19 17  2  0
M  END
$$$$
