SCS.pdb
     RDKit          3D

 19 18  0  0  1  0  0  0  0  0999 V2000
   28.7328  -11.6374  -15.8386 O   0  0  0  0  0  0  0  0  0  0  0  0
   27.8234  -10.7003  -16.3342 C   0  0  0  0  0  0  0  0  0  0  0  0
   26.6692  -11.4703  -16.9256 C   0  0  2  0  0  0  0  0  0  0  0  0
   27.1179  -12.2975  -18.0016 N   0  0  0  0  0  0  0  0  0  0  0  0
   25.5638  -10.6197  -17.3641 C   0  0  0  0  0  0  0  0  0  0  0  0
   25.4037  -10.2666  -18.5833 O   0  0  0  0  0  0  0  0  0  0  0  0
   24.6215  -10.1601  -16.4025 N   0  0  0  0  0  0  0  0  0  0  0  0
   23.5409   -9.2642  -16.7765 C   0  0  1  0  0  0  0  0  0  0  0  0
   22.2304   -9.9969  -16.9190 C   0  0  0  0  0  0  0  0  0  0  0  0
   20.9635   -8.7623  -17.3456 S   0  0  0  0  0  0  0  0  0  0  0  0
   23.4420   -8.1152  -15.8354 C   0  0  0  0  0  0  0  0  0  0  0  0
   23.3762   -8.3338  -14.5992 O   0  0  0  0  0  0  0  0  0  0  0  0
   23.7980   -4.2128  -17.0667 O   0  0  0  0  0  0  0  0  0  0  0  0
   24.1845   -4.5316  -15.7662 C   0  0  0  0  0  0  0  0  0  0  0  0
   23.3511   -5.6906  -15.3138 C   0  0  2  0  0  0  0  0  0  0  0  0
   23.4183   -6.7662  -16.2752 N   0  0  0  0  0  0  0  0  0  0  0  0
   21.9352   -5.2441  -15.1116 C   0  0  0  0  0  0  0  0  0  0  0  0
   20.8964   -5.7319  -15.8889 O   0  0  0  0  0  0  0  0  0  0  0  0
   21.6487   -4.4053  -14.2211 O   0  0  0  0  0  0  0  0  0  0  0  0
  2  1  1  0
  3  2  1  0
  3  4  1  6
  5  6  2  0
  5  3  1  0
  7  5  1  0
  8  7  1  0
  8  9  1  1
 10  9  1  0
 11  8  1  0
 11 12  2  0
 13 14  1  0
 15 16  1  0
 15 14  1  6
 16 11  1  0
 17 15  1  0
 18 17  1  0
 19 17  2  0
M  END
$$$$
