SCS.pdb
     RDKit          3D

 19 18  0  0  1  0  0  0  0  0999 V2000
   18.0788  -14.1171  -18.5840 O   0  0  0  0  0  0  0  0  0  0  0  0
   18.0236  -13.0476  -17.6874 C   0  0  0  0  0  0  0  0  0  0  0  0
   19.1577  -13.2281  -16.7096 C   0  0  2  0  0  0  0  0  0  0  0  0
   18.9369  -14.3809  -15.8937 N   0  0  0  0  0  0  0  0  0  0  0  0
   19.4011  -12.0527  -15.8749 C   0  0  0  0  0  0  0  0  0  0  0  0
   18.7285  -11.8049  -14.8152 O   0  0  0  0  0  0  0  0  0  0  0  0
   20.4267  -11.1401  -16.2480 N   0  0  0  0  0  0  0  0  0  0  0  0
   20.7024   -9.9535  -15.4568 C   0  0  1  0  0  0  0  0  0  0  0  0
   22.1626   -9.8492  -15.0945 C   0  0  0  0  0  0  0  0  0  0  0  0
   22.3585   -8.3671  -14.0570 S   0  0  0  0  0  0  0  0  0  0  0  0
   20.2029   -8.7253  -16.1333 C   0  0  0  0  0  0  0  0  0  0  0  0
   20.5871   -8.4647  -17.3016 O   0  0  0  0  0  0  0  0  0  0  0  0
   17.4583   -6.1769  -14.4069 O   0  0  0  0  0  0  0  0  0  0  0  0
   17.5000   -6.2374  -15.7986 C   0  0  0  0  0  0  0  0  0  0  0  0
   18.8922   -6.6189  -16.1971 C   0  0  2  0  0  0  0  0  0  0  0  0
   19.3010   -7.8228  -15.5122 N   0  0  0  0  0  0  0  0  0  0  0  0
   19.8295   -5.4896  -15.8956 C   0  0  0  0  0  0  0  0  0  0  0  0
   19.6926   -4.2463  -16.4926 O   0  0  0  0  0  0  0  0  0  0  0  0
   20.7761   -5.6418  -15.0835 O   0  0  0  0  0  0  0  0  0  0  0  0
  2  1  1  0
  3  2  1  0
  3  4  1  1
  5  6  2  0
  5  3  1  0
  7  5  1  0
  8  7  1  0
  8  9  1  6
 10  9  1  0
 11  8  1  0
 11 12  2  0
 13 14  1  0
 15 16  1  0
 15 14  1  1
 16 11  1  0
 17 15  1  0
 18 17  1  0
 19 17  2  0
M  END
$$$$
