SCS.pdb
     RDKit          3D

 19 18  0  0  1  0  0  0  0  0999 V2000
   20.3021  -11.8036  -19.7066 O   0  0  0  0  0  0  0  0  0  0  0  0
   19.7094  -11.2101  -18.5898 C   0  0  0  0  0  0  0  0  0  0  0  0
   20.7611  -11.1438  -17.5107 C   0  0  2  0  0  0  0  0  0  0  0  0
   21.1248  -12.4588  -17.0843 N   0  0  0  0  0  0  0  0  0  0  0  0
   20.3692  -10.3267  -16.3633 C   0  0  0  0  0  0  0  0  0  0  0  0
   19.5915  -10.7548  -15.4421 O   0  0  0  0  0  0  0  0  0  0  0  0
   20.8682   -8.9986  -16.2576 N   0  0  0  0  0  0  0  0  0  0  0  0
   20.4351   -8.1150  -15.1891 C   0  0  1  0  0  0  0  0  0  0  0  0
   21.5879   -7.6842  -14.3173 C   0  0  0  0  0  0  0  0  0  0  0  0
   21.8657   -9.0041  -13.0959 S   0  0  0  0  0  0  0  0  0  0  0  0
   19.6718   -6.9545  -15.7241 C   0  0  0  0  0  0  0  0  0  0  0  0
   20.0420   -6.4141  -16.7971 O   0  0  0  0  0  0  0  0  0  0  0  0
   15.8644   -4.0361  -15.5809 O   0  0  0  0  0  0  0  0  0  0  0  0
   16.5279   -5.0768  -14.9336 C   0  0  0  0  0  0  0  0  0  0  0  0
   17.8374   -5.2857  -15.6294 C   0  0  2  0  0  0  0  0  0  0  0  0
   18.5301   -6.4227  -15.0701 N   0  0  0  0  0  0  0  0  0  0  0  0
   18.6707   -4.0456  -15.5170 C   0  0  0  0  0  0  0  0  0  0  0  0
   18.6828   -3.0800  -16.5112 O   0  0  0  0  0  0  0  0  0  0  0  0
   19.3894   -3.8459  -14.5059 O   0  0  0  0  0  0  0  0  0  0  0  0
  2  1  1  0
  3  2  1  0
  3  4  1  1
  5  6  2  0
  5  3  1  0
  7  5  1  0
  8  7  1  0
  8  9  1  6
 10  9  1  0
 11  8  1  0
 11 12  2  0
 13 14  1  0
 15 16  1  0
 15 14  1  1
 16 11  1  0
 17 15  1  0
 18 17  1  0
 19 17  2  0
M  END
$$$$
