SCS.pdb
     RDKit          3D

 19 18  0  0  1  0  0  0  0  0999 V2000
   20.7587  -23.3710  -13.7408 O   0  0  0  0  0  0  0  0  0  0  0  0
   21.7549  -22.5420  -14.2615 C   0  0  0  0  0  0  0  0  0  0  0  0
   22.0026  -21.4534  -13.2474 C   0  0  2  0  0  0  0  0  0  0  0  0
   20.8348  -20.6451  -13.0848 N   0  0  0  0  0  0  0  0  0  0  0  0
   23.1608  -20.6176  -13.5596 C   0  0  0  0  0  0  0  0  0  0  0  0
   23.0636  -19.5056  -14.1848 O   0  0  0  0  0  0  0  0  0  0  0  0
   24.4545  -21.0500  -13.1555 N   0  0  0  0  0  0  0  0  0  0  0  0
   25.6512  -20.3489  -13.5875 C   0  0  1  0  0  0  0  0  0  0  0  0
   26.8232  -20.6313  -12.6814 C   0  0  0  0  0  0  0  0  0  0  0  0
   28.1695  -19.5098  -13.1722 S   0  0  0  0  0  0  0  0  0  0  0  0
   25.9619  -20.6395  -15.0140 C   0  0  0  0  0  0  0  0  0  0  0  0
   26.0752  -21.8336  -15.3900 O   0  0  0  0  0  0  0  0  0  0  0  0
   24.4346  -18.6531  -17.6409 O   0  0  0  0  0  0  0  0  0  0  0  0
   25.6343  -18.9954  -18.2621 C   0  0  0  0  0  0  0  0  0  0  0  0
   26.3518  -19.9595  -17.3687 C   0  0  2  0  0  0  0  0  0  0  0  0
   26.1385  -19.6170  -15.9821 N   0  0  0  0  0  0  0  0  0  0  0  0
   27.8132  -19.9599  -17.6990 C   0  0  0  0  0  0  0  0  0  0  0  0
   28.2786  -20.3091  -18.9570 O   0  0  0  0  0  0  0  0  0  0  0  0
   28.6660  -19.6399  -16.8336 O   0  0  0  0  0  0  0  0  0  0  0  0
  2  1  1  0
  3  2  1  0
  3  4  1  6
  5  6  2  0
  5  3  1  0
  7  5  1  0
  8  7  1  0
  8  9  1  1
 10  9  1  0
 11  8  1  0
 11 12  2  0
 13 14  1  0
 15 16  1  0
 15 14  1  6
 16 11  1  0
 17 15  1  0
 18 17  1  0
 19 17  2  0
M  END
$$$$
