SCS.pdb
     RDKit          3D

 19 18  0  0  1  0  0  0  0  0999 V2000
   17.2503   -9.2095  -17.3810 O   0  0  0  0  0  0  0  0  0  0  0  0
   17.1727   -8.9882  -16.0041 C   0  0  0  0  0  0  0  0  0  0  0  0
   18.4447   -9.5230  -15.3953 C   0  0  2  0  0  0  0  0  0  0  0  0
   18.5447  -10.9338  -15.6027 N   0  0  0  0  0  0  0  0  0  0  0  0
   18.5907   -9.2055  -13.9756 C   0  0  0  0  0  0  0  0  0  0  0  0
   18.0158   -9.8799  -13.0529 O   0  0  0  0  0  0  0  0  0  0  0  0
   19.4039   -8.1024  -13.5939 N   0  0  0  0  0  0  0  0  0  0  0  0
   19.5338   -7.7097  -12.2014 C   0  0  1  0  0  0  0  0  0  0  0  0
   20.9355   -7.2587  -11.8755 C   0  0  0  0  0  0  0  0  0  0  0  0
   20.9801   -6.8712  -10.0981 S   0  0  0  0  0  0  0  0  0  0  0  0
   18.5155   -6.6891  -11.8310 C   0  0  0  0  0  0  0  0  0  0  0  0
   18.4046   -5.6474  -12.5259 O   0  0  0  0  0  0  0  0  0  0  0  0
   14.4001   -5.3677  -10.1475 O   0  0  0  0  0  0  0  0  0  0  0  0
   15.3011   -6.4093  -10.3607 C   0  0  0  0  0  0  0  0  0  0  0  0
   16.6769   -5.8198  -10.4088 C   0  0  2  0  0  0  0  0  0  0  0  0
   17.6525   -6.8397  -10.7146 N   0  0  0  0  0  0  0  0  0  0  0  0
   16.9878   -5.1599   -9.1001 C   0  0  0  0  0  0  0  0  0  0  0  0
   16.5222   -3.8914   -8.7918 O   0  0  0  0  0  0  0  0  0  0  0  0
   17.6876   -5.7464   -8.2369 O   0  0  0  0  0  0  0  0  0  0  0  0
  2  1  1  0
  3  2  1  0
  3  4  1  1
  5  6  2  0
  5  3  1  0
  7  5  1  0
  8  7  1  0
  8  9  1  6
 10  9  1  0
 11  8  1  0
 11 12  2  0
 13 14  1  0
 15 16  1  0
 15 14  1  1
 16 11  1  0
 17 15  1  0
 18 17  1  0
 19 17  2  0
M  END
$$$$
