YDR.pdb
     RDKit          3D

 32 32  0  0  1  0  0  0  0  0999 V2000
    6.2691  -12.2139   17.1260 O   0  0  0  0  0  0  0  0  0  0  0  0
    7.0275  -12.7382   18.1654 C   0  0  0  0  0  0  0  0  0  0  0  0
    6.4199  -13.4302   19.1955 C   0  0  0  0  0  0  0  0  0  0  0  0
    7.2097  -13.9423   20.2207 C   0  0  0  0  0  0  0  0  0  0  0  0
    8.5804  -13.7806   20.2410 C   0  0  0  0  0  0  0  0  0  0  0  0
    9.3708  -14.3357   21.3376 C   0  0  0  0  0  0  0  0  0  0  0  0
   10.3904  -15.3386   20.8546 C   0  0  2  0  0  0  0  0  0  0  0  0
    9.7460  -16.2672   19.9495 N   0  0  0  0  0  0  0  0  0  0  0  0
   10.9913  -16.0768   21.9602 C   0  0  0  0  0  0  0  0  0  0  0  0
   11.5067  -15.4550   22.9222 O   0  0  0  0  0  0  0  0  0  0  0  0
    9.1872  -13.0896   19.2128 C   0  0  0  0  0  0  0  0  0  0  0  0
    8.4065  -12.5709   18.1782 C   0  0  0  0  0  0  0  0  0  0  0  0
   11.0432  -17.5057   22.0399 N   0  0  0  0  0  0  0  0  0  0  0  0
   11.8601  -18.2218   22.9918 C   0  0  1  0  0  0  0  0  0  0  0  0
   11.3773  -19.6500   23.0366 C   0  0  0  0  0  0  0  0  0  0  0  0
   12.0089  -20.4814   24.0572 C   0  0  0  0  0  0  0  0  0  0  0  0
   13.2312  -20.7237   24.1287 O   0  0  0  0  0  0  0  0  0  0  0  0
   13.2915  -18.2369   22.6044 C   0  0  0  0  0  0  0  0  0  0  0  0
   13.5992  -18.6813   21.4697 O   0  0  0  0  0  0  0  0  0  0  0  0
   11.2103  -21.0669   25.0469 O   0  0  0  0  0  0  0  0  0  0  0  0
   17.4300  -13.4272   19.1442 N   0  0  0  0  0  0  0  0  0  0  0  0
   16.5220  -13.9827   18.2008 C   0  0  0  0  0  0  0  0  0  0  0  0
   16.8861  -14.0061   16.9802 N   0  0  0  0  0  0  0  0  0  0  0  0
   15.2570  -14.4974   18.5729 N   0  0  0  0  0  0  0  0  0  0  0  0
   14.8381  -14.5233   19.9425 C   0  0  0  0  0  0  0  0  0  0  0  0
   15.3320  -15.6552   20.7566 C   0  0  0  0  0  0  0  0  0  0  0  0
   14.9242  -15.7754   22.1677 C   0  0  0  0  0  0  0  0  0  0  0  0
   15.4200  -16.9072   22.9727 C   0  0  2  0  0  0  0  0  0  0  0  0
   14.3309  -17.7777   23.4441 N   0  0  0  0  0  0  0  0  0  0  0  0
   16.2005  -16.4964   24.1370 C   0  0  0  0  0  0  0  0  0  0  0  0
   15.7629  -16.5402   25.3387 O   0  0  0  0  0  0  0  0  0  0  0  0
   17.4967  -16.0268   23.9972 O   0  0  0  0  0  0  0  0  0  0  0  0
  2  1  1  0
  3  2  2  0
  4  3  1  0
  5 11  1  0
  5  4  2  0
  6  5  1  0
  7  6  1  0
  7  8  1  6
  9 10  2  0
  9  7  1  0
 11 12  2  0
 12  2  1  0
 13  9  1  0
 14 13  1  0
 14 15  1  6
 16 15  1  0
 16 20  1  0
 17 16  2  0
 18 14  1  0
 19 18  2  0
 22 21  1  0
 22 23  2  0
 24 22  1  0
 25 24  1  0
 25 26  1  0
 27 26  1  0
 28 27  1  1
 28 29  1  0
 29 18  1  0
 30 28  1  0
 30 32  1  0
 31 30  2  0
M  END
$$$$
