YDR.pdb
     RDKit          3D

 32 32  0  0  1  0  0  0  0  0999 V2000
    6.9632  -11.4276   18.7754 O   0  0  0  0  0  0  0  0  0  0  0  0
    7.5860  -12.4393   19.4958 C   0  0  0  0  0  0  0  0  0  0  0  0
    8.7464  -13.0224   19.0239 C   0  0  0  0  0  0  0  0  0  0  0  0
    9.3442  -14.0331   19.7711 C   0  0  0  0  0  0  0  0  0  0  0  0
    8.8147  -14.4713   20.9681 C   0  0  0  0  0  0  0  0  0  0  0  0
    9.4763  -15.5354   21.7199 C   0  0  0  0  0  0  0  0  0  0  0  0
    9.6839  -16.7774   20.8873 C   0  0  2  0  0  0  0  0  0  0  0  0
    8.3954  -17.3707   20.5967 N   0  0  0  0  0  0  0  0  0  0  0  0
   10.5247  -17.7544   21.5707 C   0  0  0  0  0  0  0  0  0  0  0  0
   10.0053  -18.5940   22.3472 O   0  0  0  0  0  0  0  0  0  0  0  0
    7.6562  -13.8893   21.4393 C   0  0  0  0  0  0  0  0  0  0  0  0
    7.0465  -12.8744   20.6996 C   0  0  0  0  0  0  0  0  0  0  0  0
   11.9466  -17.8363   21.4222 N   0  0  0  0  0  0  0  0  0  0  0  0
   12.7541  -18.8653   22.0350 C   0  0  1  0  0  0  0  0  0  0  0  0
   14.0237  -18.9993   21.2318 C   0  0  0  0  0  0  0  0  0  0  0  0
   13.9143  -19.8405   20.0435 C   0  0  0  0  0  0  0  0  0  0  0  0
   12.9559  -20.5980   19.7874 O   0  0  0  0  0  0  0  0  0  0  0  0
   13.1306  -18.5281   23.4291 C   0  0  0  0  0  0  0  0  0  0  0  0
   13.5813  -17.3789   23.6655 O   0  0  0  0  0  0  0  0  0  0  0  0
   14.9469  -19.8194   19.0983 O   0  0  0  0  0  0  0  0  0  0  0  0
   12.1977  -22.7887   31.4348 N   0  0  0  0  0  0  0  0  0  0  0  0
   13.0359  -21.6596   31.6487 C   0  0  0  0  0  0  0  0  0  0  0  0
   13.3910  -21.4118   32.8468 N   0  0  0  0  0  0  0  0  0  0  0  0
   13.4749  -20.8257   30.5926 N   0  0  0  0  0  0  0  0  0  0  0  0
   12.9768  -20.9893   29.2595 C   0  0  0  0  0  0  0  0  0  0  0  0
   13.4886  -20.0385   28.2485 C   0  0  0  0  0  0  0  0  0  0  0  0
   13.0041  -20.1160   26.8588 C   0  0  0  0  0  0  0  0  0  0  0  0
   13.4587  -19.1160   25.8748 C   0  0  2  0  0  0  0  0  0  0  0  0
   13.0100  -19.4313   24.5090 N   0  0  0  0  0  0  0  0  0  0  0  0
   14.9094  -18.9485   25.8418 C   0  0  0  0  0  0  0  0  0  0  0  0
   15.7059  -19.7570   25.2508 O   0  0  0  0  0  0  0  0  0  0  0  0
   15.5171  -17.8703   26.4649 O   0  0  0  0  0  0  0  0  0  0  0  0
  2  1  1  0
  3  2  2  0
  4  3  1  0
  5 11  1  0
  5  4  2  0
  6  5  1  0
  7  6  1  0
  7  8  1  1
  9 10  2  0
  9  7  1  0
 11 12  2  0
 12  2  1  0
 13  9  1  0
 14 13  1  0
 14 15  1  6
 16 15  1  0
 16 20  1  0
 17 16  2  0
 18 14  1  0
 19 18  2  0
 22 21  1  0
 22 23  2  0
 24 22  1  0
 25 24  1  0
 25 26  1  0
 27 26  1  0
 28 27  1  1
 28 29  1  0
 29 18  1  0
 30 28  1  0
 30 32  1  0
 31 30  2  0
M  END
$$$$
