YDR.pdb
     RDKit          3D

 32 32  0  0  1  0  0  0  0  0999 V2000
    6.7208  -11.7600   28.8020 O   0  0  0  0  0  0  0  0  0  0  0  0
    6.8016  -12.2472   27.5033 C   0  0  0  0  0  0  0  0  0  0  0  0
    6.3439  -13.5155   27.2016 C   0  0  0  0  0  0  0  0  0  0  0  0
    6.4399  -13.9719   25.8902 C   0  0  0  0  0  0  0  0  0  0  0  0
    6.9779  -13.1979   24.8819 C   0  0  0  0  0  0  0  0  0  0  0  0
    7.0587  -13.7175   23.5185 C   0  0  0  0  0  0  0  0  0  0  0  0
    7.4556  -15.1736   23.4861 C   0  0  2  0  0  0  0  0  0  0  0  0
    7.2923  -15.7362   24.8103 N   0  0  0  0  0  0  0  0  0  0  0  0
    8.8369  -15.3499   23.0511 C   0  0  0  0  0  0  0  0  0  0  0  0
    9.2253  -14.8343   21.9736 O   0  0  0  0  0  0  0  0  0  0  0  0
    7.4351  -11.9316   25.1830 C   0  0  0  0  0  0  0  0  0  0  0  0
    7.3445  -11.4616   26.4944 C   0  0  0  0  0  0  0  0  0  0  0  0
    9.8219  -16.0908   23.7802 N   0  0  0  0  0  0  0  0  0  0  0  0
   11.1821  -16.2684   23.3278 C   0  0  1  0  0  0  0  0  0  0  0  0
   11.9919  -16.7953   24.4860 C   0  0  0  0  0  0  0  0  0  0  0  0
   13.4392  -16.7319   24.3044 C   0  0  0  0  0  0  0  0  0  0  0  0
   14.0150  -16.3506   23.2646 O   0  0  0  0  0  0  0  0  0  0  0  0
   11.2820  -17.2481   22.2191 C   0  0  0  0  0  0  0  0  0  0  0  0
   10.9196  -18.4324   22.4332 O   0  0  0  0  0  0  0  0  0  0  0  0
   14.2743  -17.1216   25.3583 O   0  0  0  0  0  0  0  0  0  0  0  0
    7.5061  -14.7247   19.0335 N   0  0  0  0  0  0  0  0  0  0  0  0
    8.3395  -13.8607   18.2705 C   0  0  0  0  0  0  0  0  0  0  0  0
    8.0320  -12.6248   18.2414 N   0  0  0  0  0  0  0  0  0  0  0  0
    9.4727  -14.3260   17.5614 N   0  0  0  0  0  0  0  0  0  0  0  0
    9.8234  -15.7148   17.5482 C   0  0  0  0  0  0  0  0  0  0  0  0
    9.8751  -16.3892   18.8637 C   0  0  0  0  0  0  0  0  0  0  0  0
   10.5116  -17.7131   18.9835 C   0  0  0  0  0  0  0  0  0  0  0  0
   11.7315  -17.8608   19.7990 C   0  0  2  0  0  0  0  0  0  0  0  0
   11.7641  -16.9216   20.9317 N   0  0  0  0  0  0  0  0  0  0  0  0
   12.9659  -17.6868   19.0377 C   0  0  0  0  0  0  0  0  0  0  0  0
   13.2530  -18.3551   17.9849 O   0  0  0  0  0  0  0  0  0  0  0  0
   13.9181  -16.7579   19.4256 O   0  0  0  0  0  0  0  0  0  0  0  0
  2  1  1  0
  3  2  2  0
  4  3  1  0
  5 11  1  0
  5  4  2  0
  6  5  1  0
  7  6  1  0
  7  8  1  1
  9 10  2  0
  9  7  1  0
 11 12  2  0
 12  2  1  0
 13  9  1  0
 14 13  1  0
 14 15  1  1
 16 15  1  0
 16 20  1  0
 17 16  2  0
 18 14  1  0
 19 18  2  0
 22 21  1  0
 22 23  2  0
 24 22  1  0
 25 24  1  0
 25 26  1  0
 27 26  1  0
 28 27  1  6
 28 29  1  0
 29 18  1  0
 30 28  1  0
 30 32  1  0
 31 30  2  0
M  END
$$$$
