YDR.pdb
     RDKit          3D

 32 32  0  0  1  0  0  0  0  0999 V2000
    7.2088  -11.7851   18.8195 O   0  0  0  0  0  0  0  0  0  0  0  0
    7.7805  -12.7149   19.6791 C   0  0  0  0  0  0  0  0  0  0  0  0
    7.0064  -13.3679   20.6191 C   0  0  0  0  0  0  0  0  0  0  0  0
    7.6115  -14.2935   21.4643 C   0  0  0  0  0  0  0  0  0  0  0  0
    8.9599  -14.5795   21.3932 C   0  0  0  0  0  0  0  0  0  0  0  0
    9.5534  -15.5593   22.3007 C   0  0  0  0  0  0  0  0  0  0  0  0
   10.0096  -16.8031   21.5772 C   0  0  2  0  0  0  0  0  0  0  0  0
    8.8535  -17.4784   21.0257 N   0  0  0  0  0  0  0  0  0  0  0  0
   10.7265  -17.7139   22.4632 C   0  0  0  0  0  0  0  0  0  0  0  0
   10.1568  -18.7473   22.8937 O   0  0  0  0  0  0  0  0  0  0  0  0
    9.7330  -13.9276   20.4549 C   0  0  0  0  0  0  0  0  0  0  0  0
    9.1384  -12.9969   19.6010 C   0  0  0  0  0  0  0  0  0  0  0  0
   12.0767  -17.5175   22.8978 N   0  0  0  0  0  0  0  0  0  0  0  0
   12.8257  -18.5027   23.6426 C   0  0  1  0  0  0  0  0  0  0  0  0
   14.2936  -18.2234   23.4370 C   0  0  0  0  0  0  0  0  0  0  0  0
   14.7936  -18.5148   22.0965 C   0  0  0  0  0  0  0  0  0  0  0  0
   14.4994  -19.5257   21.4259 O   0  0  0  0  0  0  0  0  0  0  0  0
   12.5490  -18.4364   25.0980 C   0  0  0  0  0  0  0  0  0  0  0  0
   12.4943  -17.3064   25.6454 O   0  0  0  0  0  0  0  0  0  0  0  0
   15.6725  -17.6111   21.4875 O   0  0  0  0  0  0  0  0  0  0  0  0
    8.8564  -24.8704   29.5296 N   0  0  0  0  0  0  0  0  0  0  0  0
    9.9275  -24.1379   30.1120 C   0  0  0  0  0  0  0  0  0  0  0  0
   10.5021  -24.6477   31.1282 N   0  0  0  0  0  0  0  0  0  0  0  0
   10.3610  -22.8895   29.6049 N   0  0  0  0  0  0  0  0  0  0  0  0
    9.6343  -22.2133   28.5721 C   0  0  0  0  0  0  0  0  0  0  0  0
   10.1857  -20.9150   28.1265 C   0  0  0  0  0  0  0  0  0  0  0  0
   11.6381  -20.7667   27.9248 C   0  0  0  0  0  0  0  0  0  0  0  0
   12.1684  -19.5097   27.3646 C   0  0  2  0  0  0  0  0  0  0  0  0
   12.3433  -19.5779   25.9049 N   0  0  0  0  0  0  0  0  0  0  0  0
   13.4437  -19.1033   27.9497 C   0  0  0  0  0  0  0  0  0  0  0  0
   14.5814  -19.5133   27.5314 O   0  0  0  0  0  0  0  0  0  0  0  0
   13.4895  -18.2229   29.0187 O   0  0  0  0  0  0  0  0  0  0  0  0
  2  1  1  0
  3  2  2  0
  4  3  1  0
  5 11  1  0
  5  4  2  0
  6  5  1  0
  7  6  1  0
  7  8  1  1
  9 10  2  0
  9  7  1  0
 11 12  2  0
 12  2  1  0
 13  9  1  0
 14 13  1  0
 14 15  1  1
 16 15  1  0
 16 20  1  0
 17 16  2  0
 18 14  1  0
 19 18  2  0
 22 21  1  0
 22 23  2  0
 24 22  1  0
 25 24  1  0
 25 26  1  0
 27 26  1  0
 28 27  1  1
 28 29  1  0
 29 18  1  0
 30 28  1  0
 30 32  1  0
 31 30  2  0
M  END
$$$$
