YDR.pdb
     RDKit          3D

 32 32  0  0  1  0  0  0  0  0999 V2000
    5.1958  -12.3337   16.4039 O   0  0  0  0  0  0  0  0  0  0  0  0
    6.3179  -13.0423   16.8154 C   0  0  0  0  0  0  0  0  0  0  0  0
    7.0586  -13.7709   15.9045 C   0  0  0  0  0  0  0  0  0  0  0  0
    8.1769  -14.4689   16.3508 C   0  0  0  0  0  0  0  0  0  0  0  0
    8.5693  -14.4564   17.6741 C   0  0  0  0  0  0  0  0  0  0  0  0
    9.7511  -15.2039   18.0986 C   0  0  0  0  0  0  0  0  0  0  0  0
   10.6646  -14.3781   18.9717 C   0  0  2  0  0  0  0  0  0  0  0  0
   10.9100  -13.1054   18.3261 N   0  0  0  0  0  0  0  0  0  0  0  0
   11.9358  -15.0510   19.2162 C   0  0  0  0  0  0  0  0  0  0  0  0
   11.9476  -16.2254   19.6617 O   0  0  0  0  0  0  0  0  0  0  0  0
    7.8299  -13.7291   18.5837 C   0  0  0  0  0  0  0  0  0  0  0  0
    6.7059  -13.0243   18.1490 C   0  0  0  0  0  0  0  0  0  0  0  0
   13.2182  -14.4588   18.9807 N   0  0  0  0  0  0  0  0  0  0  0  0
   14.4658  -15.0869   19.3485 C   0  0  1  0  0  0  0  0  0  0  0  0
   15.5790  -14.3628   18.6333 C   0  0  0  0  0  0  0  0  0  0  0  0
   15.7152  -14.6895   17.2168 C   0  0  0  0  0  0  0  0  0  0  0  0
   15.4811  -15.8075   16.7134 O   0  0  0  0  0  0  0  0  0  0  0  0
   14.7296  -15.0020   20.8053 C   0  0  0  0  0  0  0  0  0  0  0  0
   14.9078  -13.8673   21.3156 O   0  0  0  0  0  0  0  0  0  0  0  0
   16.1390  -13.6947   16.3275 O   0  0  0  0  0  0  0  0  0  0  0  0
    7.6165  -16.8791   24.4506 N   0  0  0  0  0  0  0  0  0  0  0  0
    8.4638  -16.7670   25.5876 C   0  0  0  0  0  0  0  0  0  0  0  0
    7.9071  -16.7397   26.7331 N   0  0  0  0  0  0  0  0  0  0  0  0
    9.8731  -16.6874   25.4824 N   0  0  0  0  0  0  0  0  0  0  0  0
   10.5166  -16.5314   24.2122 C   0  0  0  0  0  0  0  0  0  0  0  0
   11.9924  -16.4343   24.2338 C   0  0  0  0  0  0  0  0  0  0  0  0
   12.7339  -16.2651   22.9715 C   0  0  0  0  0  0  0  0  0  0  0  0
   14.2043  -16.1559   23.0024 C   0  0  2  0  0  0  0  0  0  0  0  0
   14.7916  -16.1306   21.6531 N   0  0  0  0  0  0  0  0  0  0  0  0
   14.8526  -17.2285   23.7527 C   0  0  0  0  0  0  0  0  0  0  0  0
   14.6556  -17.4453   24.9983 O   0  0  0  0  0  0  0  0  0  0  0  0
   15.7393  -18.0959   23.1351 O   0  0  0  0  0  0  0  0  0  0  0  0
  2  1  1  0
  3  2  2  0
  4  3  1  0
  5 11  1  0
  5  4  2  0
  6  5  1  0
  7  6  1  0
  7  8  1  6
  9 10  2  0
  9  7  1  0
 11 12  2  0
 12  2  1  0
 13  9  1  0
 14 13  1  0
 14 15  1  6
 16 15  1  0
 16 20  1  0
 17 16  2  0
 18 14  1  0
 19 18  2  0
 22 21  1  0
 22 23  2  0
 24 22  1  0
 25 24  1  0
 25 26  1  0
 27 26  1  0
 28 27  1  6
 28 29  1  0
 29 18  1  0
 30 28  1  0
 30 32  1  0
 31 30  2  0
M  END
$$$$
