YDR.pdb
     RDKit          3D

 32 32  0  0  1  0  0  0  0  0999 V2000
    8.6064  -12.5034   17.1690 O   0  0  0  0  0  0  0  0  0  0  0  0
    8.3031  -13.1044   18.3844 C   0  0  0  0  0  0  0  0  0  0  0  0
    7.2069  -12.6896   19.1162 C   0  0  0  0  0  0  0  0  0  0  0  0
    6.9321  -13.3135   20.3296 C   0  0  0  0  0  0  0  0  0  0  0  0
    7.7196  -14.3332   20.8249 C   0  0  0  0  0  0  0  0  0  0  0  0
    7.3933  -14.9604   22.1037 C   0  0  0  0  0  0  0  0  0  0  0  0
    7.0822  -16.4301   21.9549 C   0  0  2  0  0  0  0  0  0  0  0  0
    5.9070  -16.5811   21.1225 N   0  0  0  0  0  0  0  0  0  0  0  0
    6.8478  -17.0684   23.2456 C   0  0  0  0  0  0  0  0  0  0  0  0
    5.7091  -17.0156   23.7732 O   0  0  0  0  0  0  0  0  0  0  0  0
    8.8141  -14.7474   20.0944 C   0  0  0  0  0  0  0  0  0  0  0  0
    9.1009  -14.1299   18.8756 C   0  0  0  0  0  0  0  0  0  0  0  0
    7.8479  -17.7762   23.9868 N   0  0  0  0  0  0  0  0  0  0  0  0
    7.5796  -18.4735   25.2230 C   0  0  1  0  0  0  0  0  0  0  0  0
    6.5643  -19.5517   24.9373 C   0  0  0  0  0  0  0  0  0  0  0  0
    7.0808  -20.9158   25.0009 C   0  0  0  0  0  0  0  0  0  0  0  0
    8.2589  -21.2240   25.2747 O   0  0  0  0  0  0  0  0  0  0  0  0
    8.7921  -19.1246   25.7753 C   0  0  0  0  0  0  0  0  0  0  0  0
    9.5128  -19.8021   24.9999 O   0  0  0  0  0  0  0  0  0  0  0  0
    6.2138  -21.9838   24.7401 O   0  0  0  0  0  0  0  0  0  0  0  0
    6.5170  -14.3265   25.5133 N   0  0  0  0  0  0  0  0  0  0  0  0
    6.9504  -13.4705   26.5633 C   0  0  0  0  0  0  0  0  0  0  0  0
    6.2590  -12.4250   26.7906 N   0  0  0  0  0  0  0  0  0  0  0  0
    8.1002  -13.7430   27.3427 N   0  0  0  0  0  0  0  0  0  0  0  0
    9.1481  -14.5877   26.8525 C   0  0  0  0  0  0  0  0  0  0  0  0
    9.2017  -15.9557   27.4124 C   0  0  0  0  0  0  0  0  0  0  0  0
   10.3106  -16.8545   27.0452 C   0  0  0  0  0  0  0  0  0  0  0  0
   10.3369  -18.2297   27.5772 C   0  0  2  0  0  0  0  0  0  0  0  0
    9.1819  -19.0246   27.1297 N   0  0  0  0  0  0  0  0  0  0  0  0
   10.3831  -18.2894   29.0360 C   0  0  0  0  0  0  0  0  0  0  0  0
    9.3839  -18.6131   29.7670 O   0  0  0  0  0  0  0  0  0  0  0  0
   11.5479  -17.9929   29.7254 O   0  0  0  0  0  0  0  0  0  0  0  0
  2  1  1  0
  3  2  2  0
  4  3  1  0
  5 11  1  0
  5  4  2  0
  6  5  1  0
  7  6  1  0
  7  8  1  6
  9 10  2  0
  9  7  1  0
 11 12  2  0
 12  2  1  0
 13  9  1  0
 14 13  1  0
 14 15  1  6
 16 15  1  0
 16 20  1  0
 17 16  2  0
 18 14  1  0
 19 18  2  0
 22 21  1  0
 22 23  2  0
 24 22  1  0
 25 24  1  0
 25 26  1  0
 27 26  1  0
 28 27  1  1
 28 29  1  0
 29 18  1  0
 30 28  1  0
 30 32  1  0
 31 30  2  0
M  END
$$$$
