YDR.pdb
     RDKit          3D

 32 32  0  0  1  0  0  0  0  0999 V2000
    8.4303  -11.3949   17.9701 O   0  0  0  0  0  0  0  0  0  0  0  0
    8.6822  -12.3439   18.9531 C   0  0  0  0  0  0  0  0  0  0  0  0
    7.6560  -13.1212   19.4551 C   0  0  0  0  0  0  0  0  0  0  0  0
    7.9437  -14.0625   20.4391 C   0  0  0  0  0  0  0  0  0  0  0  0
    9.2212  -14.2440   20.9293 C   0  0  0  0  0  0  0  0  0  0  0  0
    9.4778  -15.2448   21.9627 C   0  0  0  0  0  0  0  0  0  0  0  0
   10.1975  -16.4549   21.4181 C   0  0  2  0  0  0  0  0  0  0  0  0
    9.5855  -16.8425   20.1643 N   0  0  0  0  0  0  0  0  0  0  0  0
   10.1510  -17.5779   22.3482 C   0  0  0  0  0  0  0  0  0  0  0  0
    9.8577  -18.7257   21.9307 O   0  0  0  0  0  0  0  0  0  0  0  0
   10.2458  -13.4680   20.4282 C   0  0  0  0  0  0  0  0  0  0  0  0
    9.9708  -12.5202   19.4409 C   0  0  0  0  0  0  0  0  0  0  0  0
   10.4224  -17.4734   23.7504 N   0  0  0  0  0  0  0  0  0  0  0  0
   11.4089  -18.2774   24.4334 C   0  0  1  0  0  0  0  0  0  0  0  0
   12.7406  -18.0469   23.7639 C   0  0  0  0  0  0  0  0  0  0  0  0
   13.8607  -18.7733   24.3551 C   0  0  0  0  0  0  0  0  0  0  0  0
   13.9333  -20.0148   24.4620 O   0  0  0  0  0  0  0  0  0  0  0  0
   11.5468  -17.9040   25.8620 C   0  0  0  0  0  0  0  0  0  0  0  0
   12.4949  -18.4004   26.5210 O   0  0  0  0  0  0  0  0  0  0  0  0
   14.9536  -18.0517   24.8500 O   0  0  0  0  0  0  0  0  0  0  0  0
    6.0251  -18.5901   22.3389 N   0  0  0  0  0  0  0  0  0  0  0  0
    6.0625  -17.2125   22.6910 C   0  0  0  0  0  0  0  0  0  0  0  0
    5.5712  -16.3815   21.8599 N   0  0  0  0  0  0  0  0  0  0  0  0
    6.6167  -16.7526   23.9096 N   0  0  0  0  0  0  0  0  0  0  0  0
    7.2117  -17.6594   24.8454 C   0  0  0  0  0  0  0  0  0  0  0  0
    7.7223  -17.0639   26.0994 C   0  0  0  0  0  0  0  0  0  0  0  0
    8.4515  -17.9046   27.0656 C   0  0  0  0  0  0  0  0  0  0  0  0
    9.7500  -17.4452   27.5926 C   0  0  2  0  0  0  0  0  0  0  0  0
   10.6676  -17.0181   26.5241 N   0  0  0  0  0  0  0  0  0  0  0  0
   10.4392  -18.4486   28.3999 C   0  0  0  0  0  0  0  0  0  0  0  0
    9.9140  -19.0325   29.4102 O   0  0  0  0  0  0  0  0  0  0  0  0
   11.7362  -18.8351   28.1026 O   0  0  0  0  0  0  0  0  0  0  0  0
  2  1  1  0
  3  2  2  0
  4  3  1  0
  5 11  1  0
  5  4  2  0
  6  5  1  0
  7  6  1  0
  7  8  1  6
  9 10  2  0
  9  7  1  0
 11 12  2  0
 12  2  1  0
 13  9  1  0
 14 13  1  0
 14 15  1  6
 16 15  1  0
 16 20  1  0
 17 16  2  0
 18 14  1  0
 19 18  2  0
 22 21  1  0
 22 23  2  0
 24 22  1  0
 25 24  1  0
 25 26  1  0
 27 26  1  0
 28 27  1  6
 28 29  1  0
 29 18  1  0
 30 28  1  0
 30 32  1  0
 31 30  2  0
M  END
$$$$
