YDR.pdb
     RDKit          3D

 32 32  0  0  1  0  0  0  0  0999 V2000
    8.0102  -11.4454   21.8301 O   0  0  0  0  0  0  0  0  0  0  0  0
    7.7821  -12.7259   21.3415 C   0  0  0  0  0  0  0  0  0  0  0  0
    7.9040  -12.9919   19.9911 C   0  0  0  0  0  0  0  0  0  0  0  0
    7.6685  -14.2858   19.5358 C   0  0  0  0  0  0  0  0  0  0  0  0
    7.3171  -15.3114   20.3902 C   0  0  0  0  0  0  0  0  0  0  0  0
    7.0795  -16.6555   19.8683 C   0  0  0  0  0  0  0  0  0  0  0  0
    8.3639  -17.3630   19.5099 C   0  0  2  0  0  0  0  0  0  0  0  0
    8.0496  -18.6827   19.0036 N   0  0  0  0  0  0  0  0  0  0  0  0
    9.2555  -17.4838   20.6584 C   0  0  0  0  0  0  0  0  0  0  0  0
    8.9818  -18.2895   21.5822 O   0  0  0  0  0  0  0  0  0  0  0  0
    7.1953  -15.0459   21.7384 C   0  0  0  0  0  0  0  0  0  0  0  0
    7.4288  -13.7523   22.2083 C   0  0  0  0  0  0  0  0  0  0  0  0
   10.4618  -16.7299   20.8235 N   0  0  0  0  0  0  0  0  0  0  0  0
   11.3771  -16.9214   21.9244 C   0  0  1  0  0  0  0  0  0  0  0  0
   12.6639  -16.2104   21.5877 C   0  0  0  0  0  0  0  0  0  0  0  0
   13.7379  -16.3879   22.5609 C   0  0  0  0  0  0  0  0  0  0  0  0
   14.4523  -17.4064   22.6620 O   0  0  0  0  0  0  0  0  0  0  0  0
   10.8593  -16.3503   23.1912 C   0  0  0  0  0  0  0  0  0  0  0  0
   10.4862  -15.1501   23.1976 O   0  0  0  0  0  0  0  0  0  0  0  0
   14.0136  -15.3550   23.4648 O   0  0  0  0  0  0  0  0  0  0  0  0
    5.4429  -18.0703   22.3913 N   0  0  0  0  0  0  0  0  0  0  0  0
    5.4166  -18.8698   23.5675 C   0  0  0  0  0  0  0  0  0  0  0  0
    5.2461  -20.1236   23.4204 N   0  0  0  0  0  0  0  0  0  0  0  0
    5.5711  -18.3229   24.8638 N   0  0  0  0  0  0  0  0  0  0  0  0
    6.3855  -17.1665   25.0911 C   0  0  0  0  0  0  0  0  0  0  0  0
    7.8419  -17.4023   25.1963 C   0  0  0  0  0  0  0  0  0  0  0  0
    8.7434  -16.2828   25.5223 C   0  0  0  0  0  0  0  0  0  0  0  0
   10.1936  -16.5272   25.6325 C   0  0  2  0  0  0  0  0  0  0  0  0
   10.7625  -17.0842   24.3947 N   0  0  0  0  0  0  0  0  0  0  0  0
   10.5522  -17.4202   26.7314 C   0  0  0  0  0  0  0  0  0  0  0  0
   11.1733  -18.5280   26.5745 O   0  0  0  0  0  0  0  0  0  0  0  0
   10.2320  -17.1030   28.0417 O   0  0  0  0  0  0  0  0  0  0  0  0
  2  1  1  0
  3  2  2  0
  4  3  1  0
  5 11  1  0
  5  4  2  0
  6  5  1  0
  7  6  1  0
  7  8  1  1
  9 10  2  0
  9  7  1  0
 11 12  2  0
 12  2  1  0
 13  9  1  0
 14 13  1  0
 14 15  1  6
 16 15  1  0
 16 20  1  0
 17 16  2  0
 18 14  1  0
 19 18  2  0
 22 21  1  0
 22 23  2  0
 24 22  1  0
 25 24  1  0
 25 26  1  0
 27 26  1  0
 28 27  1  6
 28 29  1  0
 29 18  1  0
 30 28  1  0
 30 32  1  0
 31 30  2  0
M  END
$$$$
