YDR.pdb
     RDKit          3D

 32 32  0  0  1  0  0  0  0  0999 V2000
    5.3746  -10.5334   26.1391 O   0  0  0  0  0  0  0  0  0  0  0  0
    5.8106  -11.7147   25.5520 C   0  0  0  0  0  0  0  0  0  0  0  0
    5.4195  -12.9370   26.0641 C   0  0  0  0  0  0  0  0  0  0  0  0
    5.8747  -14.1007   25.4513 C   0  0  0  0  0  0  0  0  0  0  0  0
    6.7045  -14.0725   24.3486 C   0  0  0  0  0  0  0  0  0  0  0  0
    7.1581  -15.3195   23.7366 C   0  0  0  0  0  0  0  0  0  0  0  0
    8.4284  -15.8354   24.3684 C   0  0  2  0  0  0  0  0  0  0  0  0
    9.4724  -14.8457   24.2034 N   0  0  0  0  0  0  0  0  0  0  0  0
    8.8570  -17.0965   23.7733 C   0  0  0  0  0  0  0  0  0  0  0  0
    8.1478  -18.1248   23.9055 O   0  0  0  0  0  0  0  0  0  0  0  0
    7.0952  -12.8523   23.8372 C   0  0  0  0  0  0  0  0  0  0  0  0
    6.6456  -11.6774   24.4424 C   0  0  0  0  0  0  0  0  0  0  0  0
   10.0655  -17.2629   23.0233 N   0  0  0  0  0  0  0  0  0  0  0  0
   10.6440  -18.5510   22.7192 C   0  0  1  0  0  0  0  0  0  0  0  0
   11.5419  -18.3853   21.5188 C   0  0  0  0  0  0  0  0  0  0  0  0
   10.8865  -17.8491   20.3294 C   0  0  0  0  0  0  0  0  0  0  0  0
    9.8907  -18.3536   19.7710 O   0  0  0  0  0  0  0  0  0  0  0  0
   11.4681  -19.0743   23.8356 C   0  0  0  0  0  0  0  0  0  0  0  0
   12.6905  -19.2819   23.6302 O   0  0  0  0  0  0  0  0  0  0  0  0
   11.3887  -16.6801   19.7452 O   0  0  0  0  0  0  0  0  0  0  0  0
   10.7516  -14.4414   27.6777 N   0  0  0  0  0  0  0  0  0  0  0  0
   11.0787  -15.1156   28.8868 C   0  0  0  0  0  0  0  0  0  0  0  0
   10.7031  -14.5770   29.9784 N   0  0  0  0  0  0  0  0  0  0  0  0
   11.7918  -16.3381   28.9083 N   0  0  0  0  0  0  0  0  0  0  0  0
   12.8090  -16.6231   27.9408 C   0  0  0  0  0  0  0  0  0  0  0  0
   12.4546  -17.5981   26.8865 C   0  0  0  0  0  0  0  0  0  0  0  0
   12.0853  -18.9759   27.2572 C   0  0  0  0  0  0  0  0  0  0  0  0
   11.7576  -19.9492   26.1988 C   0  0  2  0  0  0  0  0  0  0  0  0
   10.9520  -19.3532   25.1210 N   0  0  0  0  0  0  0  0  0  0  0  0
   11.0467  -21.1270   26.6901 C   0  0  0  0  0  0  0  0  0  0  0  0
    9.8430  -21.4175   26.3677 O   0  0  0  0  0  0  0  0  0  0  0  0
   11.6588  -22.0203   27.5546 O   0  0  0  0  0  0  0  0  0  0  0  0
  2  1  1  0
  3  2  2  0
  4  3  1  0
  5 11  1  0
  5  4  2  0
  6  5  1  0
  7  6  1  0
  7  8  1  6
  9 10  2  0
  9  7  1  0
 11 12  2  0
 12  2  1  0
 13  9  1  0
 14 13  1  0
 14 15  1  6
 16 15  1  0
 16 20  1  0
 17 16  2  0
 18 14  1  0
 19 18  2  0
 22 21  1  0
 22 23  2  0
 24 22  1  0
 25 24  1  0
 25 26  1  0
 27 26  1  0
 28 27  1  1
 28 29  1  0
 29 18  1  0
 30 28  1  0
 30 32  1  0
 31 30  2  0
M  END
$$$$
