YDR.pdb
     RDKit          3D

 32 32  0  0  1  0  0  0  0  0999 V2000
    9.8121  -13.6031   29.9415 O   0  0  0  0  0  0  0  0  0  0  0  0
   10.3668  -14.3326   28.8973 C   0  0  0  0  0  0  0  0  0  0  0  0
   11.0918  -13.6974   27.9072 C   0  0  0  0  0  0  0  0  0  0  0  0
   11.6337  -14.4587   26.8758 C   0  0  0  0  0  0  0  0  0  0  0  0
   11.4699  -15.8277   26.8106 C   0  0  0  0  0  0  0  0  0  0  0  0
   12.0571  -16.5877   25.7092 C   0  0  0  0  0  0  0  0  0  0  0  0
   11.3964  -16.2787   24.3875 C   0  0  2  0  0  0  0  0  0  0  0  0
    9.9670  -16.4695   24.5192 N   0  0  0  0  0  0  0  0  0  0  0  0
   11.9026  -17.1294   23.3159 C   0  0  0  0  0  0  0  0  0  0  0  0
   13.1410  -17.2570   23.1490 O   0  0  0  0  0  0  0  0  0  0  0  0
   10.7461  -16.4620   27.7989 C   0  0  0  0  0  0  0  0  0  0  0  0
   10.1972  -15.7101   28.8392 C   0  0  0  0  0  0  0  0  0  0  0  0
   11.0710  -17.8574   22.4053 N   0  0  0  0  0  0  0  0  0  0  0  0
   11.5792  -18.5647   21.2530 C   0  0  1  0  0  0  0  0  0  0  0  0
   10.4953  -19.4912   20.7613 C   0  0  0  0  0  0  0  0  0  0  0  0
   10.1490  -20.5741   21.6774 C   0  0  0  0  0  0  0  0  0  0  0  0
   10.7918  -20.8780   22.7033 O   0  0  0  0  0  0  0  0  0  0  0  0
   11.9332  -17.6481   20.1423 C   0  0  0  0  0  0  0  0  0  0  0  0
   11.0492  -17.3667   19.2944 O   0  0  0  0  0  0  0  0  0  0  0  0
    9.0143  -21.3507   21.4138 O   0  0  0  0  0  0  0  0  0  0  0  0
    7.2924  -13.7691   20.4239 N   0  0  0  0  0  0  0  0  0  0  0  0
    7.8717  -13.1697   19.2714 C   0  0  0  0  0  0  0  0  0  0  0  0
    7.0895  -12.5602   18.4717 N   0  0  0  0  0  0  0  0  0  0  0  0
    9.2590  -13.2306   18.9969 N   0  0  0  0  0  0  0  0  0  0  0  0
   10.1507  -13.9771   19.8333 C   0  0  0  0  0  0  0  0  0  0  0  0
   11.5833  -13.9306   19.4682 C   0  0  0  0  0  0  0  0  0  0  0  0
   12.5601  -14.7270   20.2322 C   0  0  0  0  0  0  0  0  0  0  0  0
   13.4234  -15.6906   19.5243 C   0  0  2  0  0  0  0  0  0  0  0  0
   13.2140  -17.0725   19.9852 N   0  0  0  0  0  0  0  0  0  0  0  0
   14.8483  -15.3910   19.6403 C   0  0  0  0  0  0  0  0  0  0  0  0
   15.4926  -14.6632   18.8081 O   0  0  0  0  0  0  0  0  0  0  0  0
   15.5990  -15.8918   20.6919 O   0  0  0  0  0  0  0  0  0  0  0  0
  2  1  1  0
  3  2  2  0
  4  3  1  0
  5 11  1  0
  5  4  2  0
  6  5  1  0
  7  6  1  0
  7  8  1  1
  9 10  2  0
  9  7  1  0
 11 12  2  0
 12  2  1  0
 13  9  1  0
 14 13  1  0
 14 15  1  6
 16 15  1  0
 16 20  1  0
 17 16  2  0
 18 14  1  0
 19 18  2  0
 22 21  1  0
 22 23  2  0
 24 22  1  0
 25 24  1  0
 25 26  1  0
 27 26  1  0
 28 27  1  1
 28 29  1  0
 29 18  1  0
 30 28  1  0
 30 32  1  0
 31 30  2  0
M  END
$$$$
