YDR.pdb
     RDKit          3D

 32 32  0  0  1  0  0  0  0  0999 V2000
    7.4991  -11.6263   17.2284 O   0  0  0  0  0  0  0  0  0  0  0  0
    7.6234  -12.5443   18.2639 C   0  0  0  0  0  0  0  0  0  0  0  0
    8.5362  -12.3343   19.2798 C   0  0  0  0  0  0  0  0  0  0  0  0
    8.6345  -13.2742   20.3016 C   0  0  0  0  0  0  0  0  0  0  0  0
    7.8494  -14.4090   20.3322 C   0  0  0  0  0  0  0  0  0  0  0  0
    7.9860  -15.3693   21.4252 C   0  0  0  0  0  0  0  0  0  0  0  0
    9.4255  -15.7514   21.6717 C   0  0  2  0  0  0  0  0  0  0  0  0
   10.1070  -15.8666   20.3993 N   0  0  0  0  0  0  0  0  0  0  0  0
    9.5355  -17.0126   22.3968 C   0  0  0  0  0  0  0  0  0  0  0  0
    8.9868  -17.1398   23.5195 O   0  0  0  0  0  0  0  0  0  0  0  0
    6.9382  -14.6189   19.3180 C   0  0  0  0  0  0  0  0  0  0  0  0
    6.8295  -13.6839   18.2871 C   0  0  0  0  0  0  0  0  0  0  0  0
   10.2448  -18.1591   21.9142 N   0  0  0  0  0  0  0  0  0  0  0  0
   10.3714  -19.3900   22.6593 C   0  0  1  0  0  0  0  0  0  0  0  0
   10.8552  -20.4591   21.7117 C   0  0  0  0  0  0  0  0  0  0  0  0
   11.0494  -21.7743   22.3151 C   0  0  0  0  0  0  0  0  0  0  0  0
   10.3758  -22.7911   22.0497 O   0  0  0  0  0  0  0  0  0  0  0  0
   11.3560  -19.2801   23.7628 C   0  0  0  0  0  0  0  0  0  0  0  0
   12.4467  -18.6984   23.5351 O   0  0  0  0  0  0  0  0  0  0  0  0
   12.0608  -21.9422   23.2685 O   0  0  0  0  0  0  0  0  0  0  0  0
   10.1330  -16.0008   30.3551 N   0  0  0  0  0  0  0  0  0  0  0  0
   10.3316  -14.7318   29.7441 C   0  0  0  0  0  0  0  0  0  0  0  0
   10.4137  -13.7182   30.5114 N   0  0  0  0  0  0  0  0  0  0  0  0
   10.4380  -14.5697   28.3420 N   0  0  0  0  0  0  0  0  0  0  0  0
    9.9387  -15.5628   27.4383 C   0  0  0  0  0  0  0  0  0  0  0  0
   10.6176  -16.8766   27.4698 C   0  0  0  0  0  0  0  0  0  0  0  0
   10.5986  -17.7396   26.2752 C   0  0  0  0  0  0  0  0  0  0  0  0
   11.3495  -19.0089   26.2848 C   0  0  2  0  0  0  0  0  0  0  0  0
   11.1340  -19.7953   25.0595 N   0  0  0  0  0  0  0  0  0  0  0  0
   11.0343  -19.8638   27.4265 C   0  0  0  0  0  0  0  0  0  0  0  0
   10.2616  -20.8817   27.3615 O   0  0  0  0  0  0  0  0  0  0  0  0
   11.5750  -19.6115   28.6771 O   0  0  0  0  0  0  0  0  0  0  0  0
  2  1  1  0
  3  2  2  0
  4  3  1  0
  5 11  1  0
  5  4  2  0
  6  5  1  0
  7  6  1  0
  7  8  1  6
  9 10  2  0
  9  7  1  0
 11 12  2  0
 12  2  1  0
 13  9  1  0
 14 13  1  0
 14 15  1  6
 16 15  1  0
 16 20  1  0
 17 16  2  0
 18 14  1  0
 19 18  2  0
 22 21  1  0
 22 23  2  0
 24 22  1  0
 25 24  1  0
 25 26  1  0
 27 26  1  0
 28 27  1  6
 28 29  1  0
 29 18  1  0
 30 28  1  0
 30 32  1  0
 31 30  2  0
M  END
$$$$
