YDR.pdb
     RDKit          3D

 32 32  0  0  1  0  0  0  0  0999 V2000
    5.9769  -12.2021   17.1174 O   0  0  0  0  0  0  0  0  0  0  0  0
    6.8283  -12.9388   17.9316 C   0  0  0  0  0  0  0  0  0  0  0  0
    7.8344  -13.7077   17.3785 C   0  0  0  0  0  0  0  0  0  0  0  0
    8.6693  -14.4330   18.2234 C   0  0  0  0  0  0  0  0  0  0  0  0
    8.5241  -14.4087   19.5959 C   0  0  0  0  0  0  0  0  0  0  0  0
    9.4242  -15.1859   20.4451 C   0  0  0  0  0  0  0  0  0  0  0  0
    9.7821  -16.5167   19.8288 C   0  0  2  0  0  0  0  0  0  0  0  0
    8.5782  -17.3082   19.6844 N   0  0  0  0  0  0  0  0  0  0  0  0
   10.7489  -17.2480   20.6404 C   0  0  0  0  0  0  0  0  0  0  0  0
   10.3491  -18.0543   21.5166 O   0  0  0  0  0  0  0  0  0  0  0  0
    7.5197  -13.6412   20.1482 C   0  0  0  0  0  0  0  0  0  0  0  0
    6.6753  -12.9087   19.3119 C   0  0  0  0  0  0  0  0  0  0  0  0
   12.1692  -17.1157   20.5142 N   0  0  0  0  0  0  0  0  0  0  0  0
   13.1134  -17.8574   21.3172 C   0  0  1  0  0  0  0  0  0  0  0  0
   14.4794  -17.6918   20.6997 C   0  0  0  0  0  0  0  0  0  0  0  0
   14.6726  -18.3960   19.4353 C   0  0  0  0  0  0  0  0  0  0  0  0
   15.2731  -17.9351   18.4428 O   0  0  0  0  0  0  0  0  0  0  0  0
   13.1802  -17.3569   22.7115 C   0  0  0  0  0  0  0  0  0  0  0  0
   13.7936  -16.2823   22.9323 O   0  0  0  0  0  0  0  0  0  0  0  0
   14.1572  -19.6898   19.2920 O   0  0  0  0  0  0  0  0  0  0  0  0
   10.3453  -13.9704   29.3334 N   0  0  0  0  0  0  0  0  0  0  0  0
    9.5923  -13.8016   28.1385 C   0  0  0  0  0  0  0  0  0  0  0  0
    9.3657  -12.6091   27.7519 N   0  0  0  0  0  0  0  0  0  0  0  0
    9.1011  -14.8957   27.3867 N   0  0  0  0  0  0  0  0  0  0  0  0
    9.8284  -16.1270   27.3028 C   0  0  0  0  0  0  0  0  0  0  0  0
   10.5145  -16.3956   26.0202 C   0  0  0  0  0  0  0  0  0  0  0  0
   11.3447  -17.6044   25.8728 C   0  0  0  0  0  0  0  0  0  0  0  0
   12.6468  -17.5115   25.1866 C   0  0  2  0  0  0  0  0  0  0  0  0
   12.5903  -18.0244   23.8082 N   0  0  0  0  0  0  0  0  0  0  0  0
   13.7230  -18.2131   25.8815 C   0  0  0  0  0  0  0  0  0  0  0  0
   14.4840  -17.6651   26.7522 O   0  0  0  0  0  0  0  0  0  0  0  0
   13.9819  -19.5508   25.6291 O   0  0  0  0  0  0  0  0  0  0  0  0
  2  1  1  0
  3  2  2  0
  4  3  1  0
  5 11  1  0
  5  4  2  0
  6  5  1  0
  7  6  1  0
  7  8  1  1
  9 10  2  0
  9  7  1  0
 11 12  2  0
 12  2  1  0
 13  9  1  0
 14 13  1  0
 14 15  1  6
 16 15  1  0
 16 20  1  0
 17 16  2  0
 18 14  1  0
 19 18  2  0
 22 21  1  0
 22 23  2  0
 24 22  1  0
 25 24  1  0
 25 26  1  0
 27 26  1  0
 28 27  1  1
 28 29  1  0
 29 18  1  0
 30 28  1  0
 30 32  1  0
 31 30  2  0
M  END
$$$$
