RNC.pdb
     RDKit          3D

 26 25  0  0  1  0  0  0  0  0999 V2000
   32.3952  -22.2933   -9.8832 N   0  0  0  0  0  0  0  0  0  0  0  0
   31.9647  -22.5397  -11.2133 C   0  0  0  0  0  0  0  0  0  0  0  0
   32.2995  -23.6001  -11.8551 N   0  0  0  0  0  0  0  0  0  0  0  0
   31.1247  -21.5956  -11.8950 N   0  0  0  0  0  0  0  0  0  0  0  0
   30.6792  -20.3685  -11.2760 C   0  0  0  0  0  0  0  0  0  0  0  0
   29.2212  -20.4738  -10.9826 C   0  0  0  0  0  0  0  0  0  0  0  0
   28.3539  -20.8131  -12.1548 C   0  0  0  0  0  0  0  0  0  0  0  0
   26.9149  -20.7406  -11.7693 C   0  0  2  0  0  0  0  0  0  0  0  0
   26.6655  -21.7429  -10.7519 N   0  0  0  0  0  0  0  0  0  0  0  0
   25.9979  -20.9192  -12.9324 C   0  0  0  0  0  0  0  0  0  0  0  0
   25.9686  -20.0819  -13.8626 O   0  0  0  0  0  0  0  0  0  0  0  0
   32.0516  -23.7605  -12.8352 N   0  0  0  0  0  0  0  0  0  0  0  0
   24.2853  -23.9934  -17.2299 C   0  0  0  0  0  0  0  0  0  0  0  0
   23.7296  -24.0011  -15.9257 O   0  0  0  0  0  0  0  0  0  0  0  0
   22.4997  -24.2792  -15.8580 C   0  0  0  0  0  0  0  0  0  0  0  0
   24.4324  -23.7210  -14.6830 C   0  0  1  0  0  0  0  0  0  0  0  0
   24.2736  -22.3255  -14.1386 N   0  0  0  0  0  0  0  0  0  0  0  0
   25.1236  -22.0471  -13.0271 C   0  0  0  0  0  0  0  0  0  0  0  0
   22.8787  -21.8771  -13.9964 O   0  0  0  0  0  0  0  0  0  0  0  0
   22.3163  -21.9562  -12.8898 N   0  0  0  0  0  0  0  0  0  0  0  0
   22.1948  -21.3629  -15.1193 C   0  0  2  0  0  0  0  0  0  0  0  0
   20.8208  -20.9456  -15.0477 C   0  0  0  0  0  0  0  0  0  0  0  0
   20.1012  -21.3803  -13.7940 S   0  0  0  0  0  0  0  0  0  0  0  0
   18.7354  -22.4786  -14.1818 C   0  0  0  0  0  0  0  0  0  0  0  0
   20.6504  -19.4930  -15.3195 O   0  0  0  0  0  0  0  0  0  0  0  0
   21.6367  -18.7746  -15.6305 O   0  0  0  0  0  0  0  0  0  0  0  0
  2  1  1  0
  2  3  2  0
  4  2  1  0
  5  4  1  0
  6  5  1  0
  7  6  1  0
  8  7  1  0
  8  9  1  1
 10  8  1  0
 10 17  1  0
 11 10  2  0
 13 14  2  0
 13 12  1  0
 15 13  1  0
 16 17  1  0
 16 15  1  6
 18 16  1  0
 19 18  2  0
 20 18  1  0
 21 20  1  0
 21 24  1  0
 21 22  1  6
 23 22  1  0
 24 26  1  0
 25 24  2  0
M  END
$$$$
