RNC.pdb
     RDKit          3D

 26 25  0  0  1  0  0  0  0  0999 V2000
   21.7409  -21.0888   -8.7460 N   0  0  0  0  0  0  0  0  0  0  0  0
   22.9264  -21.1048   -7.9652 C   0  0  0  0  0  0  0  0  0  0  0  0
   22.9134  -21.3612   -6.7073 N   0  0  0  0  0  0  0  0  0  0  0  0
   24.2007  -20.8318   -8.5680 N   0  0  0  0  0  0  0  0  0  0  0  0
   24.3554  -20.6233   -9.9893 C   0  0  0  0  0  0  0  0  0  0  0  0
   25.8053  -20.4760  -10.3038 C   0  0  0  0  0  0  0  0  0  0  0  0
   26.1258  -20.2063  -11.7413 C   0  0  0  0  0  0  0  0  0  0  0  0
   25.3723  -21.1447  -12.6222 C   0  0  2  0  0  0  0  0  0  0  0  0
   26.0899  -22.4038  -12.6647 N   0  0  0  0  0  0  0  0  0  0  0  0
   25.1629  -20.6017  -13.9957 C   0  0  0  0  0  0  0  0  0  0  0  0
   25.9721  -20.8538  -14.9171 O   0  0  0  0  0  0  0  0  0  0  0  0
   23.7540  -21.3340   -6.1238 N   0  0  0  0  0  0  0  0  0  0  0  0
   20.2514  -19.4709  -14.5759 C   0  0  0  0  0  0  0  0  0  0  0  0
   21.3397  -19.6499  -15.4665 O   0  0  0  0  0  0  0  0  0  0  0  0
   21.3875  -20.7674  -16.0525 C   0  0  0  0  0  0  0  0  0  0  0  0
   22.3873  -18.6836  -15.7595 C   0  0  2  0  0  0  0  0  0  0  0  0
   23.8007  -19.1720  -15.5789 N   0  0  0  0  0  0  0  0  0  0  0  0
   24.0365  -19.7780  -14.3090 C   0  0  0  0  0  0  0  0  0  0  0  0
   24.8380  -18.2318  -16.0337 O   0  0  0  0  0  0  0  0  0  0  0  0
   25.3562  -17.4461  -15.2205 N   0  0  0  0  0  0  0  0  0  0  0  0
   25.2320  -18.2322  -17.3894 C   0  0  1  0  0  0  0  0  0  0  0  0
   26.5245  -17.7602  -17.8061 C   0  0  0  0  0  0  0  0  0  0  0  0
   27.6860  -18.4203  -17.1035 S   0  0  0  0  0  0  0  0  0  0  0  0
   29.2520  -17.7890  -17.7128 C   0  0  0  0  0  0  0  0  0  0  0  0
   26.6847  -17.7652  -19.2851 O   0  0  0  0  0  0  0  0  0  0  0  0
   26.4333  -18.7996  -19.9577 O   0  0  0  0  0  0  0  0  0  0  0  0
  2  1  1  0
  2  3  2  0
  4  2  1  0
  5  4  1  0
  6  5  1  0
  7  6  1  0
  8  7  1  0
  8  9  1  6
 10  8  1  0
 10 17  1  0
 11 10  2  0
 13 14  2  0
 13 12  1  0
 15 13  1  0
 16 17  1  0
 16 15  1  6
 18 16  1  0
 19 18  2  0
 20 18  1  0
 21 20  1  0
 21 24  1  0
 21 22  1  6
 23 22  1  0
 24 26  1  0
 25 24  2  0
M  END
$$$$
