RNC.pdb
     RDKit          3D

 26 25  0  0  1  0  0  0  0  0999 V2000
   20.7758  -24.9774  -11.1504 N   0  0  0  0  0  0  0  0  0  0  0  0
   19.9711  -24.2581  -12.0726 C   0  0  0  0  0  0  0  0  0  0  0  0
   18.7414  -23.9773  -11.8333 N   0  0  0  0  0  0  0  0  0  0  0  0
   20.5165  -23.8121  -13.3237 N   0  0  0  0  0  0  0  0  0  0  0  0
   21.9385  -23.7654  -13.5750 C   0  0  0  0  0  0  0  0  0  0  0  0
   22.1709  -23.2681  -14.9612 C   0  0  0  0  0  0  0  0  0  0  0  0
   22.4511  -21.8020  -15.0783 C   0  0  0  0  0  0  0  0  0  0  0  0
   23.9073  -21.5391  -14.8913 C   0  0  2  0  0  0  0  0  0  0  0  0
   24.3993  -22.4230  -13.8527 N   0  0  0  0  0  0  0  0  0  0  0  0
   24.1969  -20.1133  -14.5617 C   0  0  0  0  0  0  0  0  0  0  0  0
   24.1165  -19.6964  -13.3840 O   0  0  0  0  0  0  0  0  0  0  0  0
   18.1209  -23.5527  -12.5279 N   0  0  0  0  0  0  0  0  0  0  0  0
   27.3985  -15.1890  -15.8186 C   0  0  0  0  0  0  0  0  0  0  0  0
   26.5671  -16.0236  -15.0299 O   0  0  0  0  0  0  0  0  0  0  0  0
   26.0428  -15.4749  -14.0207 C   0  0  0  0  0  0  0  0  0  0  0  0
   26.2703  -17.4274  -15.2711 C   0  0  2  0  0  0  0  0  0  0  0  0
   24.8094  -17.7864  -15.3469 N   0  0  0  0  0  0  0  0  0  0  0  0
   24.5747  -19.1753  -15.5731 C   0  0  0  0  0  0  0  0  0  0  0  0
   23.9923  -16.8667  -16.1552 O   0  0  0  0  0  0  0  0  0  0  0  0
   24.0946  -16.8798  -17.3948 N   0  0  0  0  0  0  0  0  0  0  0  0
   23.1021  -15.9789  -15.5132 C   0  0  1  0  0  0  0  0  0  0  0  0
   22.2790  -15.0603  -16.2520 C   0  0  0  0  0  0  0  0  0  0  0  0
   21.2195  -14.3701  -15.4276 S   0  0  0  0  0  0  0  0  0  0  0  0
   20.1964  -13.3075  -16.4504 C   0  0  0  0  0  0  0  0  0  0  0  0
   23.0782  -14.1000  -17.0596 O   0  0  0  0  0  0  0  0  0  0  0  0
   23.9693  -13.3906  -16.5226 O   0  0  0  0  0  0  0  0  0  0  0  0
  2  1  1  0
  2  3  2  0
  4  2  1  0
  5  4  1  0
  6  5  1  0
  7  6  1  0
  8  7  1  0
  8  9  1  1
 10  8  1  0
 10 17  1  0
 11 10  2  0
 13 14  2  0
 13 12  1  0
 15 13  1  0
 16 17  1  0
 16 15  1  1
 18 16  1  0
 19 18  2  0
 20 18  1  0
 21 20  1  0
 21 24  1  0
 21 22  1  1
 23 22  1  0
 24 26  1  0
 25 24  2  0
M  END
$$$$
