RNC.pdb
     RDKit          3D

 26 25  0  0  1  0  0  0  0  0999 V2000
   27.2759  -15.0905  -18.8871 N   0  0  0  0  0  0  0  0  0  0  0  0
   27.1609  -16.4960  -18.7245 C   0  0  0  0  0  0  0  0  0  0  0  0
   28.0625  -17.1920  -18.1320 N   0  0  0  0  0  0  0  0  0  0  0  0
   26.0116  -17.1967  -19.2244 N   0  0  0  0  0  0  0  0  0  0  0  0
   24.8930  -16.5135  -19.8324 C   0  0  0  0  0  0  0  0  0  0  0  0
   24.1095  -15.8223  -18.7687 C   0  0  0  0  0  0  0  0  0  0  0  0
   22.8901  -16.5503  -18.2948 C   0  0  0  0  0  0  0  0  0  0  0  0
   22.9125  -16.6807  -16.8092 C   0  0  2  0  0  0  0  0  0  0  0  0
   24.2391  -16.3291  -16.3418 N   0  0  0  0  0  0  0  0  0  0  0  0
   22.5261  -18.0449  -16.3454 C   0  0  0  0  0  0  0  0  0  0  0  0
   21.3852  -18.5043  -16.5790 O   0  0  0  0  0  0  0  0  0  0  0  0
   27.9726  -18.1985  -17.9688 N   0  0  0  0  0  0  0  0  0  0  0  0
   24.7547  -23.4790  -14.2539 C   0  0  0  0  0  0  0  0  0  0  0  0
   23.8485  -22.5205  -14.7733 O   0  0  0  0  0  0  0  0  0  0  0  0
   22.6405  -22.8842  -14.8269 C   0  0  0  0  0  0  0  0  0  0  0  0
   24.1770  -21.1833  -15.2432 C   0  0  2  0  0  0  0  0  0  0  0  0
   23.1105  -20.1378  -15.0475 N   0  0  0  0  0  0  0  0  0  0  0  0
   23.4395  -18.8736  -15.6211 C   0  0  0  0  0  0  0  0  0  0  0  0
   22.5410  -20.0882  -13.6910 O   0  0  0  0  0  0  0  0  0  0  0  0
   23.1091  -19.4204  -12.8087 N   0  0  0  0  0  0  0  0  0  0  0  0
   21.3558  -20.8007  -13.4069 C   0  0  1  0  0  0  0  0  0  0  0  0
   20.7061  -20.7171  -12.1271 C   0  0  0  0  0  0  0  0  0  0  0  0
   20.7123  -19.3382  -11.5132 S   0  0  0  0  0  0  0  0  0  0  0  0
   21.2301  -19.3988   -9.7956 C   0  0  0  0  0  0  0  0  0  0  0  0
   19.3476  -21.3233  -12.1357 O   0  0  0  0  0  0  0  0  0  0  0  0
   18.7985  -21.6609  -13.2175 O   0  0  0  0  0  0  0  0  0  0  0  0
  2  1  1  0
  2  3  2  0
  4  2  1  0
  5  4  1  0
  6  5  1  0
  7  6  1  0
  8  7  1  0
  8  9  1  6
 10  8  1  0
 10 17  1  0
 11 10  2  0
 13 14  2  0
 13 12  1  0
 15 13  1  0
 16 17  1  0
 16 15  1  6
 18 16  1  0
 19 18  2  0
 20 18  1  0
 21 20  1  0
 21 24  1  0
 21 22  1  1
 23 22  1  0
 24 26  1  0
 25 24  2  0
M  END
$$$$
