RNC.pdb
     RDKit          3D

 26 25  0  0  1  0  0  0  0  0999 V2000
   33.4909  -25.6182  -16.1568 N   0  0  0  0  0  0  0  0  0  0  0  0
   32.0886  -25.6665  -16.3726 C   0  0  0  0  0  0  0  0  0  0  0  0
   31.2680  -26.0348  -15.4565 N   0  0  0  0  0  0  0  0  0  0  0  0
   31.5330  -25.2969  -17.6439 N   0  0  0  0  0  0  0  0  0  0  0  0
   31.8065  -24.0221  -18.2666 C   0  0  0  0  0  0  0  0  0  0  0  0
   31.3471  -22.9305  -17.3609 C   0  0  0  0  0  0  0  0  0  0  0  0
   30.0879  -22.2370  -17.7796 C   0  0  0  0  0  0  0  0  0  0  0  0
   29.0679  -22.3216  -16.6947 C   0  0  2  0  0  0  0  0  0  0  0  0
   28.5886  -23.6882  -16.6267 N   0  0  0  0  0  0  0  0  0  0  0  0
   27.9380  -21.3676  -16.8916 C   0  0  0  0  0  0  0  0  0  0  0  0
   27.2004  -21.4440  -17.9003 O   0  0  0  0  0  0  0  0  0  0  0  0
   30.2555  -26.0809  -15.6003 N   0  0  0  0  0  0  0  0  0  0  0  0
   24.8242  -21.3850  -14.8647 C   0  0  0  0  0  0  0  0  0  0  0  0
   25.0675  -20.1255  -14.2611 O   0  0  0  0  0  0  0  0  0  0  0  0
   24.4860  -19.9274  -13.1579 C   0  0  0  0  0  0  0  0  0  0  0  0
   25.9074  -19.0605  -14.7874 C   0  0  2  0  0  0  0  0  0  0  0  0
   26.6222  -19.3645  -16.0780 N   0  0  0  0  0  0  0  0  0  0  0  0
   27.6574  -20.3366  -15.9410 C   0  0  0  0  0  0  0  0  0  0  0  0
   26.9680  -18.1808  -16.8818 O   0  0  0  0  0  0  0  0  0  0  0  0
   26.0958  -17.3300  -17.1318 N   0  0  0  0  0  0  0  0  0  0  0  0
   28.2869  -18.0256  -17.3608 C   0  0  1  0  0  0  0  0  0  0  0  0
   28.6483  -16.9678  -18.2650 C   0  0  0  0  0  0  0  0  0  0  0  0
   30.0751  -17.0258  -18.7545 S   0  0  0  0  0  0  0  0  0  0  0  0
   30.9940  -15.5729  -18.2382 C   0  0  0  0  0  0  0  0  0  0  0  0
   27.6763  -16.8130  -19.3805 O   0  0  0  0  0  0  0  0  0  0  0  0
   27.1650  -17.8212  -19.9353 O   0  0  0  0  0  0  0  0  0  0  0  0
  2  1  1  0
  2  3  2  0
  4  2  1  0
  5  4  1  0
  6  5  1  0
  7  6  1  0
  8  7  1  0
  8  9  1  6
 10  8  1  0
 10 17  1  0
 11 10  2  0
 13 14  2  0
 13 12  1  0
 15 13  1  0
 16 17  1  0
 16 15  1  6
 18 16  1  0
 19 18  2  0
 20 18  1  0
 21 20  1  0
 21 24  1  0
 21 22  1  6
 23 22  1  0
 24 26  1  0
 25 24  2  0
M  END
$$$$
