RNC.pdb
     RDKit          3D

 26 25  0  0  1  0  0  0  0  0999 V2000
   50.1191  -11.5674   -3.8598 N   0  0  0  0  0  0  0  0  0  0  0  0
   50.4269  -11.2432   -5.2072 C   0  0  0  0  0  0  0  0  0  0  0  0
   51.6246  -11.2953   -5.6667 N   0  0  0  0  0  0  0  0  0  0  0  0
   49.3904  -10.8414   -6.1159 N   0  0  0  0  0  0  0  0  0  0  0  0
   48.0052  -10.7461   -5.7162 C   0  0  0  0  0  0  0  0  0  0  0  0
   47.1582  -11.4362   -6.7308 C   0  0  0  0  0  0  0  0  0  0  0  0
   45.6833  -11.3821   -6.4790 C   0  0  0  0  0  0  0  0  0  0  0  0
   44.9535  -12.1582   -7.5228 C   0  0  2  0  0  0  0  0  0  0  0  0
   45.7844  -13.2774   -7.9215 N   0  0  0  0  0  0  0  0  0  0  0  0
   44.5771  -11.3248   -8.7015 C   0  0  0  0  0  0  0  0  0  0  0  0
   45.3899  -11.1231   -9.6321 O   0  0  0  0  0  0  0  0  0  0  0  0
   51.8518  -11.1321   -6.6513 N   0  0  0  0  0  0  0  0  0  0  0  0
   41.9757  -13.1013  -11.0171 C   0  0  0  0  0  0  0  0  0  0  0  0
   42.3390  -11.7929  -11.4243 O   0  0  0  0  0  0  0  0  0  0  0  0
   43.1316  -11.7266  -12.4050 C   0  0  0  0  0  0  0  0  0  0  0  0
   41.8927  -10.5441  -10.8258 C   0  0  2  0  0  0  0  0  0  0  0  0
   42.8636   -9.8840   -9.8821 N   0  0  0  0  0  0  0  0  0  0  0  0
   43.2816  -10.7290   -8.8113 C   0  0  0  0  0  0  0  0  0  0  0  0
   42.5089   -8.5073   -9.5003 O   0  0  0  0  0  0  0  0  0  0  0  0
   41.8576   -8.3052   -8.4601 N   0  0  0  0  0  0  0  0  0  0  0  0
   42.9119   -7.4315  -10.3209 C   0  0  1  0  0  0  0  0  0  0  0  0
   42.6099   -6.0659   -9.9876 C   0  0  0  0  0  0  0  0  0  0  0  0
   43.6097   -5.4134   -9.0639 S   0  0  0  0  0  0  0  0  0  0  0  0
   43.1516   -3.7134   -8.7144 C   0  0  0  0  0  0  0  0  0  0  0  0
   42.3266   -5.2344  -11.1882 O   0  0  0  0  0  0  0  0  0  0  0  0
   42.5317   -5.6830  -12.3467 O   0  0  0  0  0  0  0  0  0  0  0  0
  2  1  1  0
  2  3  2  0
  4  2  1  0
  5  4  1  0
  6  5  1  0
  7  6  1  0
  8  7  1  0
  8  9  1  6
 10  8  1  0
 10 17  1  0
 11 10  2  0
 13 14  2  0
 13 12  1  0
 15 13  1  0
 16 17  1  0
 16 15  1  6
 18 16  1  0
 19 18  2  0
 20 18  1  0
 21 20  1  0
 21 24  1  0
 21 22  1  6
 23 22  1  0
 24 26  1  0
 25 24  2  0
M  END
$$$$
