RNC.pdb
     RDKit          3D

 26 25  0  0  1  0  0  0  0  0999 V2000
   22.9288  -22.1499   -7.1921 N   0  0  0  0  0  0  0  0  0  0  0  0
   22.0820  -21.3098   -7.9616 C   0  0  0  0  0  0  0  0  0  0  0  0
   20.8416  -21.1423   -7.6754 N   0  0  0  0  0  0  0  0  0  0  0  0
   22.5945  -20.6065   -9.1037 N   0  0  0  0  0  0  0  0  0  0  0  0
   22.9992  -21.2858  -10.3130 C   0  0  0  0  0  0  0  0  0  0  0  0
   24.3954  -21.7819  -10.1475 C   0  0  0  0  0  0  0  0  0  0  0  0
   25.1651  -21.9674  -11.4183 C   0  0  0  0  0  0  0  0  0  0  0  0
   26.1511  -20.8616  -11.5897 C   0  0  2  0  0  0  0  0  0  0  0  0
   25.5231  -19.6235  -11.1715 N   0  0  0  0  0  0  0  0  0  0  0  0
   26.6612  -20.7570  -12.9877 C   0  0  0  0  0  0  0  0  0  0  0  0
   27.1052  -21.7625  -13.5870 O   0  0  0  0  0  0  0  0  0  0  0  0
   20.2104  -20.5708   -8.2435 N   0  0  0  0  0  0  0  0  0  0  0  0
   22.2415  -19.3029  -15.8059 C   0  0  0  0  0  0  0  0  0  0  0  0
   23.6096  -19.6632  -15.8952 O   0  0  0  0  0  0  0  0  0  0  0  0
   24.0763  -19.7490  -17.0654 C   0  0  0  0  0  0  0  0  0  0  0  0
   24.5069  -19.9399  -14.7839 C   0  0  2  0  0  0  0  0  0  0  0  0
   25.8219  -19.2055  -14.8027 N   0  0  0  0  0  0  0  0  0  0  0  0
   26.6618  -19.5116  -13.6908 C   0  0  0  0  0  0  0  0  0  0  0  0
   25.7227  -17.7776  -15.1465 O   0  0  0  0  0  0  0  0  0  0  0  0
   24.8748  -17.0653  -14.5799 N   0  0  0  0  0  0  0  0  0  0  0  0
   26.5913  -17.2331  -16.1170 C   0  0  1  0  0  0  0  0  0  0  0  0
   26.5425  -15.8451  -16.4886 C   0  0  0  0  0  0  0  0  0  0  0  0
   27.5392  -14.9707  -15.7671 S   0  0  0  0  0  0  0  0  0  0  0  0
   27.3433  -13.2484  -16.2335 C   0  0  0  0  0  0  0  0  0  0  0  0
   26.5829  -15.6467  -17.9624 O   0  0  0  0  0  0  0  0  0  0  0  0
   26.9596  -16.5728  -18.7280 O   0  0  0  0  0  0  0  0  0  0  0  0
  2  1  1  0
  2  3  2  0
  4  2  1  0
  5  4  1  0
  6  5  1  0
  7  6  1  0
  8  7  1  0
  8  9  1  6
 10  8  1  0
 10 17  1  0
 11 10  2  0
 13 14  2  0
 13 12  1  0
 15 13  1  0
 16 17  1  0
 16 15  1  6
 18 16  1  0
 19 18  2  0
 20 18  1  0
 21 20  1  0
 21 24  1  0
 21 22  1  6
 23 22  1  0
 24 26  1  0
 25 24  2  0
M  END
$$$$
