RNC.pdb
     RDKit          3D

 26 25  0  0  1  0  0  0  0  0999 V2000
   17.7080  -24.5704  -11.8909 N   0  0  0  0  0  0  0  0  0  0  0  0
   17.7582  -23.6866  -13.0007 C   0  0  0  0  0  0  0  0  0  0  0  0
   17.5443  -24.0849  -14.2024 N   0  0  0  0  0  0  0  0  0  0  0  0
   18.0531  -22.2941  -12.8117 N   0  0  0  0  0  0  0  0  0  0  0  0
   19.3080  -21.8369  -12.2605 C   0  0  0  0  0  0  0  0  0  0  0  0
   20.2204  -21.4590  -13.3774 C   0  0  0  0  0  0  0  0  0  0  0  0
   21.5407  -20.8881  -12.9619 C   0  0  0  0  0  0  0  0  0  0  0  0
   22.4320  -20.7347  -14.1479 C   0  0  2  0  0  0  0  0  0  0  0  0
   23.3385  -21.8656  -14.1848 N   0  0  0  0  0  0  0  0  0  0  0  0
   23.1841  -19.4464  -14.1397 C   0  0  0  0  0  0  0  0  0  0  0  0
   23.0696  -18.6411  -13.1881 O   0  0  0  0  0  0  0  0  0  0  0  0
   17.5343  -23.4515  -15.0064 N   0  0  0  0  0  0  0  0  0  0  0  0
   26.8813  -15.5811  -14.3025 C   0  0  0  0  0  0  0  0  0  0  0  0
   27.0481  -16.8037  -15.0004 O   0  0  0  0  0  0  0  0  0  0  0  0
   28.0067  -16.8372  -15.8217 C   0  0  0  0  0  0  0  0  0  0  0  0
   26.2305  -17.9991  -14.8612 C   0  0  1  0  0  0  0  0  0  0  0  0
   24.7921  -17.8645  -15.2877 N   0  0  0  0  0  0  0  0  0  0  0  0
   24.0585  -19.0859  -15.2124 C   0  0  0  0  0  0  0  0  0  0  0  0
   24.5867  -17.0775  -16.5146 O   0  0  0  0  0  0  0  0  0  0  0  0
   24.8678  -17.5749  -17.6195 N   0  0  0  0  0  0  0  0  0  0  0  0
   24.0733  -15.7657  -16.4225 C   0  0  1  0  0  0  0  0  0  0  0  0
   23.8318  -14.9597  -17.5883 C   0  0  0  0  0  0  0  0  0  0  0  0
   22.9181  -13.7812  -17.3537 S   0  0  0  0  0  0  0  0  0  0  0  0
   21.4034  -14.2917  -16.5369 C   0  0  0  0  0  0  0  0  0  0  0  0
   25.0881  -14.5684  -18.2823 O   0  0  0  0  0  0  0  0  0  0  0  0
   26.1787  -14.5062  -17.6559 O   0  0  0  0  0  0  0  0  0  0  0  0
  2  1  1  0
  2  3  2  0
  4  2  1  0
  5  4  1  0
  6  5  1  0
  7  6  1  0
  8  7  1  0
  8  9  1  1
 10  8  1  0
 10 17  1  0
 11 10  2  0
 13 14  2  0
 13 12  1  0
 15 13  1  0
 16 17  1  0
 16 15  1  1
 18 16  1  0
 19 18  2  0
 20 18  1  0
 21 20  1  0
 21 24  1  0
 21 22  1  6
 23 22  1  0
 24 26  1  0
 25 24  2  0
M  END
$$$$
