RNC.pdb
     RDKit          3D

 26 25  0  0  1  0  0  0  0  0999 V2000
   30.9539  -24.5149  -16.9952 N   0  0  0  0  0  0  0  0  0  0  0  0
   30.1401  -24.1172  -18.0884 C   0  0  0  0  0  0  0  0  0  0  0  0
   29.8755  -24.9058  -19.0664 N   0  0  0  0  0  0  0  0  0  0  0  0
   29.5753  -22.7980  -18.1355 N   0  0  0  0  0  0  0  0  0  0  0  0
   29.6816  -21.8711  -17.0322 C   0  0  0  0  0  0  0  0  0  0  0  0
   28.4408  -21.9508  -16.2094 C   0  0  0  0  0  0  0  0  0  0  0  0
   27.3355  -21.0302  -16.6247 C   0  0  0  0  0  0  0  0  0  0  0  0
   26.1676  -21.1812  -15.7093 C   0  0  2  0  0  0  0  0  0  0  0  0
   25.6574  -22.5318  -15.8421 N   0  0  0  0  0  0  0  0  0  0  0  0
   25.0967  -20.1766  -15.9724 C   0  0  0  0  0  0  0  0  0  0  0  0
   25.2405  -18.9799  -15.6338 O   0  0  0  0  0  0  0  0  0  0  0  0
   29.3369  -24.6154  -19.8870 N   0  0  0  0  0  0  0  0  0  0  0  0
   21.3287  -17.7283  -19.5490 C   0  0  0  0  0  0  0  0  0  0  0  0
   21.2295  -18.8768  -18.7239 O   0  0  0  0  0  0  0  0  0  0  0  0
   20.0757  -19.1311  -18.2786 C   0  0  0  0  0  0  0  0  0  0  0  0
   22.3148  -19.7703  -18.3488 C   0  0  1  0  0  0  0  0  0  0  0  0
   22.8206  -19.6328  -16.9367 N   0  0  0  0  0  0  0  0  0  0  0  0
   23.8733  -20.5412  -16.6172 C   0  0  0  0  0  0  0  0  0  0  0  0
   21.7669  -19.5016  -15.9172 O   0  0  0  0  0  0  0  0  0  0  0  0
   21.4954  -20.4691  -15.1842 N   0  0  0  0  0  0  0  0  0  0  0  0
   21.0754  -18.2780  -15.7840 C   0  0  1  0  0  0  0  0  0  0  0  0
   20.0925  -18.0676  -14.7561 C   0  0  0  0  0  0  0  0  0  0  0  0
   20.6529  -17.5502  -13.4535 S   0  0  0  0  0  0  0  0  0  0  0  0
   19.3563  -17.3451  -12.2293 C   0  0  0  0  0  0  0  0  0  0  0  0
   18.9343  -17.2630  -15.2296 O   0  0  0  0  0  0  0  0  0  0  0  0
   19.1048  -16.2658  -15.9793 O   0  0  0  0  0  0  0  0  0  0  0  0
  2  1  1  0
  2  3  2  0
  4  2  1  0
  5  4  1  0
  6  5  1  0
  7  6  1  0
  8  7  1  0
  8  9  1  6
 10  8  1  0
 10 17  1  0
 11 10  2  0
 13 14  2  0
 13 12  1  0
 15 13  1  0
 16 17  1  0
 16 15  1  6
 18 16  1  0
 19 18  2  0
 20 18  1  0
 21 20  1  0
 21 24  1  0
 21 22  1  6
 23 22  1  0
 24 26  1  0
 25 24  2  0
M  END
$$$$
