RNC.pdb
     RDKit          3D

 26 25  0  0  1  0  0  0  0  0999 V2000
   16.7167  -14.4661  -17.3845 N   0  0  0  0  0  0  0  0  0  0  0  0
   15.9190  -14.3131  -16.2203 C   0  0  0  0  0  0  0  0  0  0  0  0
   15.6349  -15.3011  -15.4512 N   0  0  0  0  0  0  0  0  0  0  0  0
   15.3965  -13.0257  -15.8579 N   0  0  0  0  0  0  0  0  0  0  0  0
   15.6633  -11.8363  -16.6335 C   0  0  0  0  0  0  0  0  0  0  0  0
   17.0033  -11.3017  -16.2577 C   0  0  0  0  0  0  0  0  0  0  0  0
   16.9872  -10.0982  -15.3671 C   0  0  0  0  0  0  0  0  0  0  0  0
   18.3803   -9.6436  -15.0897 C   0  0  2  0  0  0  0  0  0  0  0  0
   19.2244  -10.8156  -14.9628 N   0  0  0  0  0  0  0  0  0  0  0  0
   18.4736   -8.7831  -13.8746 C   0  0  0  0  0  0  0  0  0  0  0  0
   18.3269   -9.2687  -12.7301 O   0  0  0  0  0  0  0  0  0  0  0  0
   15.0676  -15.2039  -14.6047 N   0  0  0  0  0  0  0  0  0  0  0  0
   22.2403   -5.1673  -13.8216 C   0  0  0  0  0  0  0  0  0  0  0  0
   21.2016   -5.7805  -13.0767 O   0  0  0  0  0  0  0  0  0  0  0  0
   21.5441   -6.7761  -12.3796 C   0  0  0  0  0  0  0  0  0  0  0  0
   19.8042   -5.3767  -13.0443 C   0  0  2  0  0  0  0  0  0  0  0  0
   18.8035   -6.4876  -12.8610 N   0  0  0  0  0  0  0  0  0  0  0  0
   18.7325   -7.3800  -13.9719 C   0  0  0  0  0  0  0  0  0  0  0  0
   17.5076   -6.0614  -12.3078 O   0  0  0  0  0  0  0  0  0  0  0  0
   16.6046   -5.6841  -13.0755 N   0  0  0  0  0  0  0  0  0  0  0  0
   17.3052   -6.0850  -10.9109 C   0  0  1  0  0  0  0  0  0  0  0  0
   16.0996   -5.5846  -10.3083 C   0  0  0  0  0  0  0  0  0  0  0  0
   15.1388   -6.6560   -9.8525 S   0  0  0  0  0  0  0  0  0  0  0  0
   16.0087   -8.0000   -9.0407 C   0  0  0  0  0  0  0  0  0  0  0  0
   16.3674   -4.5793   -9.2450 O   0  0  0  0  0  0  0  0  0  0  0  0
   15.4232   -3.9474   -8.7020 O   0  0  0  0  0  0  0  0  0  0  0  0
  2  1  1  0
  2  3  2  0
  4  2  1  0
  5  4  1  0
  6  5  1  0
  7  6  1  0
  8  7  1  0
  8  9  1  1
 10  8  1  0
 10 17  1  0
 11 10  2  0
 13 14  2  0
 13 12  1  0
 15 13  1  0
 16 17  1  0
 16 15  1  1
 18 16  1  0
 19 18  2  0
 20 18  1  0
 21 20  1  0
 21 24  1  0
 21 22  1  1
 23 22  1  0
 24 26  1  0
 25 24  2  0
M  END
$$$$
