PNE.pdb
     RDKit          3D

 25 25  0  0  1  0  0  0  0  0999 V2000
    9.0177  -14.1363   18.4101 N   0  0  0  0  0  0  0  0  0  0  0  0
    8.3255  -13.1819   17.5731 C   0  0  0  0  0  0  0  0  0  0  0  0
    6.9199  -13.1248   18.1645 C   0  0  0  0  0  0  0  0  0  0  0  0
    7.0536  -13.7427   19.5496 C   0  0  0  0  0  0  0  0  0  0  0  0
    8.5317  -13.8281   19.7164 C   0  0  1  0  0  0  0  0  0  0  0  0
    8.9663  -14.7918   20.7509 C   0  0  0  0  0  0  0  0  0  0  0  0
    8.5653  -14.6890   21.9379 O   0  0  0  0  0  0  0  0  0  0  0  0
   12.0834  -20.0838   21.4479 N   0  0  0  0  0  0  0  0  0  0  0  0
   10.9759  -19.2408   21.8365 C   0  0  0  0  0  0  0  0  0  0  0  0
   10.4403  -19.5286   22.9122 O   0  0  0  0  0  0  0  0  0  0  0  0
   10.6382  -18.1678   20.9138 C   0  0  0  0  0  0  0  0  0  0  0  0
   10.2050  -16.8756   21.4795 C   0  0  2  0  0  0  0  0  0  0  0  0
    9.8465  -15.8782   20.4897 N   0  0  0  0  0  0  0  0  0  0  0  0
   11.1565  -16.2907   22.4914 C   0  0  0  0  0  0  0  0  0  0  0  0
   12.1286  -15.5852   22.1166 O   0  0  0  0  0  0  0  0  0  0  0  0
   10.9985  -16.5093   23.8748 N   0  0  0  0  0  0  0  0  0  0  0  0
   11.8140  -15.8576   24.8896 C   0  0  1  0  0  0  0  0  0  0  0  0
   11.1500  -15.8713   26.2174 C   0  0  0  0  0  0  0  0  0  0  0  0
   11.9580  -15.2060   27.2743 C   0  0  0  0  0  0  0  0  0  0  0  0
   11.1541  -15.1857   28.5591 C   0  0  0  0  0  0  0  0  0  0  0  0
   11.2075  -16.1821   29.3213 O   0  0  0  0  0  0  0  0  0  0  0  0
   13.1277  -16.5043   24.9263 C   0  0  0  0  0  0  0  0  0  0  0  0
   13.2871  -17.7176   24.6980 O   0  0  0  0  0  0  0  0  0  0  0  0
   10.3721  -14.1161   28.9149 O   0  0  0  0  0  0  0  0  0  0  0  0
   14.2502  -15.7492   25.2257 O   0  0  0  0  0  0  0  0  0  0  0  0
  1  2  1  0
  1  5  1  0
  2  3  1  0
  3  4  1  0
  5  6  1  1
  5  4  1  0
  6 13  1  0
  7  6  2  0
  8  9  1  0
  9 10  2  0
 11  9  1  0
 12 11  1  6
 12 14  1  0
 13 12  1  0
 14 15  2  0
 16 14  1  0
 16 17  1  0
 17 22  1  0
 17 18  1  1
 19 18  1  0
 20 19  1  0
 21 20  2  0
 22 23  2  0
 22 25  1  0
 24 20  1  0
M  END
$$$$
