PNE.pdb
     RDKit          3D

 25 25  0  0  1  0  0  0  0  0999 V2000
    8.4144  -14.9770   19.0911 N   0  0  0  0  0  0  0  0  0  0  0  0
    8.5655  -14.2109   17.8742 C   0  0  0  0  0  0  0  0  0  0  0  0
    7.7926  -12.9245   18.1505 C   0  0  0  0  0  0  0  0  0  0  0  0
    7.6163  -12.8920   19.6625 C   0  0  0  0  0  0  0  0  0  0  0  0
    8.5256  -13.9840   20.1104 C   0  0  1  0  0  0  0  0  0  0  0  0
    8.2310  -14.4944   21.4671 C   0  0  0  0  0  0  0  0  0  0  0  0
    8.3791  -13.7625   22.4783 O   0  0  0  0  0  0  0  0  0  0  0  0
    7.0910  -17.5513   25.5208 N   0  0  0  0  0  0  0  0  0  0  0  0
    6.3397  -18.0844   24.4076 C   0  0  0  0  0  0  0  0  0  0  0  0
    5.5733  -19.0147   24.6801 O   0  0  0  0  0  0  0  0  0  0  0  0
    6.5830  -17.4585   23.1171 C   0  0  0  0  0  0  0  0  0  0  0  0
    7.5437  -16.3400   23.0573 C   0  0  2  0  0  0  0  0  0  0  0  0
    7.7705  -15.8154   21.7246 N   0  0  0  0  0  0  0  0  0  0  0  0
    8.8575  -16.6128   23.7434 C   0  0  0  0  0  0  0  0  0  0  0  0
    9.7250  -17.3375   23.1907 O   0  0  0  0  0  0  0  0  0  0  0  0
    9.1604  -16.0771   25.0114 N   0  0  0  0  0  0  0  0  0  0  0  0
   10.4457  -16.2535   25.6721 C   0  0  1  0  0  0  0  0  0  0  0  0
   10.6133  -15.3083   26.8048 C   0  0  0  0  0  0  0  0  0  0  0  0
    9.8277  -15.7005   28.0054 C   0  0  0  0  0  0  0  0  0  0  0  0
   10.3911  -14.9760   29.2118 C   0  0  0  0  0  0  0  0  0  0  0  0
   11.5265  -15.3025   29.6370 O   0  0  0  0  0  0  0  0  0  0  0  0
   10.5693  -17.6490   26.0991 C   0  0  0  0  0  0  0  0  0  0  0  0
    9.5852  -18.3968   26.2483 O   0  0  0  0  0  0  0  0  0  0  0  0
    9.7017  -13.9777   29.8523 O   0  0  0  0  0  0  0  0  0  0  0  0
   11.8260  -18.1751   26.3516 O   0  0  0  0  0  0  0  0  0  0  0  0
  1  2  1  0
  1  5  1  0
  2  3  1  0
  3  4  1  0
  5  6  1  1
  5  4  1  0
  6 13  1  0
  7  6  2  0
  8  9  1  0
  9 10  2  0
 11  9  1  0
 12 11  1  6
 12 14  1  0
 13 12  1  0
 14 15  2  0
 16 14  1  0
 16 17  1  0
 17 22  1  0
 17 18  1  1
 19 18  1  0
 20 19  1  0
 21 20  2  0
 22 23  2  0
 22 25  1  0
 24 20  1  0
M  END
$$$$
