PNE.pdb
     RDKit          3D

 25 25  0  0  1  0  0  0  0  0999 V2000
    7.4449  -15.1683   19.0197 N   0  0  0  0  0  0  0  0  0  0  0  0
    7.0422  -14.6405   17.7353 C   0  0  0  0  0  0  0  0  0  0  0  0
    7.1066  -13.1274   17.9223 C   0  0  0  0  0  0  0  0  0  0  0  0
    7.9457  -12.9243   19.1764 C   0  0  0  0  0  0  0  0  0  0  0  0
    8.4980  -14.2880   19.4117 C   0  0  1  0  0  0  0  0  0  0  0  0
    8.9739  -14.5148   20.7936 C   0  0  0  0  0  0  0  0  0  0  0  0
   10.0681  -14.0363   21.1861 O   0  0  0  0  0  0  0  0  0  0  0  0
    7.8698  -14.3235   26.2599 N   0  0  0  0  0  0  0  0  0  0  0  0
    7.7190  -15.5452   25.5033 C   0  0  0  0  0  0  0  0  0  0  0  0
    7.8325  -16.5904   26.1526 O   0  0  0  0  0  0  0  0  0  0  0  0
    7.4541  -15.3852   24.0817 C   0  0  0  0  0  0  0  0  0  0  0  0
    8.6068  -15.3290   23.1621 C   0  0  2  0  0  0  0  0  0  0  0  0
    8.2506  -15.2703   21.7576 N   0  0  0  0  0  0  0  0  0  0  0  0
    9.6403  -16.4007   23.3959 C   0  0  0  0  0  0  0  0  0  0  0  0
    9.4268  -17.5827   23.0211 O   0  0  0  0  0  0  0  0  0  0  0  0
   10.8660  -16.1258   24.0352 N   0  0  0  0  0  0  0  0  0  0  0  0
   11.9126  -17.1195   24.2275 C   0  0  1  0  0  0  0  0  0  0  0  0
   13.2441  -16.5958   23.8313 C   0  0  0  0  0  0  0  0  0  0  0  0
   14.3429  -17.5686   24.0735 C   0  0  0  0  0  0  0  0  0  0  0  0
   15.6445  -16.9611   23.5895 C   0  0  0  0  0  0  0  0  0  0  0  0
   16.2344  -16.1315   24.3246 O   0  0  0  0  0  0  0  0  0  0  0  0
   11.8907  -17.5639   25.6229 C   0  0  0  0  0  0  0  0  0  0  0  0
   11.2647  -16.9583   26.5124 O   0  0  0  0  0  0  0  0  0  0  0  0
   16.1971  -17.2878   22.3771 O   0  0  0  0  0  0  0  0  0  0  0  0
   12.5902  -18.7037   25.9855 O   0  0  0  0  0  0  0  0  0  0  0  0
  1  2  1  0
  1  5  1  0
  2  3  1  0
  3  4  1  0
  5  6  1  1
  5  4  1  0
  6 13  1  0
  7  6  2  0
  8  9  1  0
  9 10  2  0
 11  9  1  0
 12 11  1  1
 12 14  1  0
 13 12  1  0
 14 15  2  0
 16 14  1  0
 16 17  1  0
 17 22  1  0
 17 18  1  1
 19 18  1  0
 20 19  1  0
 21 20  2  0
 22 23  2  0
 22 25  1  0
 24 20  1  0
M  END
$$$$
