PNE.pdb
     RDKit          3D

 25 25  0  0  1  0  0  0  0  0999 V2000
    8.0986  -14.7335   18.7808 N   0  0  0  0  0  0  0  0  0  0  0  0
    7.4586  -13.5628   18.2238 C   0  0  0  0  0  0  0  0  0  0  0  0
    6.8512  -12.8631   19.4362 C   0  0  0  0  0  0  0  0  0  0  0  0
    7.5563  -13.4795   20.6367 C   0  0  0  0  0  0  0  0  0  0  0  0
    8.6644  -14.2417   19.9955 C   0  0  1  0  0  0  0  0  0  0  0  0
    9.2397  -15.3022   20.8512 C   0  0  0  0  0  0  0  0  0  0  0  0
    8.9996  -16.5152   20.6249 O   0  0  0  0  0  0  0  0  0  0  0  0
   13.7821  -16.4148   24.7169 N   0  0  0  0  0  0  0  0  0  0  0  0
   12.8525  -16.9329   23.7395 C   0  0  0  0  0  0  0  0  0  0  0  0
   12.7533  -18.1640   23.7002 O   0  0  0  0  0  0  0  0  0  0  0  0
   12.1578  -15.9411   22.9331 C   0  0  0  0  0  0  0  0  0  0  0  0
   10.6975  -16.0773   22.7699 C   0  0  2  0  0  0  0  0  0  0  0  0
   10.0851  -15.0386   21.9643 N   0  0  0  0  0  0  0  0  0  0  0  0
    9.9420  -16.2517   24.0621 C   0  0  0  0  0  0  0  0  0  0  0  0
    9.6542  -15.2523   24.7704 O   0  0  0  0  0  0  0  0  0  0  0  0
    9.5363  -17.5210   24.5217 N   0  0  0  0  0  0  0  0  0  0  0  0
    8.8932  -17.7417   25.8091 C   0  0  1  0  0  0  0  0  0  0  0  0
    7.9464  -18.8841   25.7594 C   0  0  0  0  0  0  0  0  0  0  0  0
    7.2278  -19.0952   27.0445 C   0  0  0  0  0  0  0  0  0  0  0  0
    6.6270  -20.4868   27.0416 C   0  0  0  0  0  0  0  0  0  0  0  0
    6.8247  -21.2284   26.0480 O   0  0  0  0  0  0  0  0  0  0  0  0
    9.9287  -17.9310   26.8275 C   0  0  0  0  0  0  0  0  0  0  0  0
   10.9919  -18.5379   26.6016 O   0  0  0  0  0  0  0  0  0  0  0  0
    5.8759  -20.9605   28.0874 O   0  0  0  0  0  0  0  0  0  0  0  0
    9.7333  -17.4198   28.1004 O   0  0  0  0  0  0  0  0  0  0  0  0
  1  2  1  0
  1  5  1  0
  2  3  1  0
  3  4  1  0
  5  6  1  1
  5  4  1  0
  6 13  1  0
  7  6  2  0
  8  9  1  0
  9 10  2  0
 11  9  1  0
 12 11  1  1
 12 14  1  0
 13 12  1  0
 14 15  2  0
 16 14  1  0
 16 17  1  0
 17 22  1  0
 17 18  1  6
 19 18  1  0
 20 19  1  0
 21 20  2  0
 22 23  2  0
 22 25  1  0
 24 20  1  0
M  END
$$$$
