PNE.pdb
     RDKit          3D

 25 25  0  0  1  0  0  0  0  0999 V2000
    8.6413  -13.7982   19.8754 N   0  0  0  0  0  0  0  0  0  0  0  0
    7.4804  -12.9496   19.7243 C   0  0  0  0  0  0  0  0  0  0  0  0
    7.8243  -12.0643   18.5299 C   0  0  0  0  0  0  0  0  0  0  0  0
    8.9839  -12.7708   17.8411 C   0  0  0  0  0  0  0  0  0  0  0  0
    8.9994  -14.0941   18.5256 C   0  0  1  0  0  0  0  0  0  0  0  0
   10.2810  -14.8219   18.4004 C   0  0  0  0  0  0  0  0  0  0  0  0
   10.5829  -15.4188   17.3361 O   0  0  0  0  0  0  0  0  0  0  0  0
   15.1363  -16.2109   18.4025 N   0  0  0  0  0  0  0  0  0  0  0  0
   14.6163  -15.0513   17.7147 C   0  0  0  0  0  0  0  0  0  0  0  0
   15.3990  -14.5018   16.9322 O   0  0  0  0  0  0  0  0  0  0  0  0
   13.2448  -14.6844   18.0324 C   0  0  0  0  0  0  0  0  0  0  0  0
   12.6272  -15.2779   19.2339 C   0  0  2  0  0  0  0  0  0  0  0  0
   11.2432  -14.9001   19.4451 N   0  0  0  0  0  0  0  0  0  0  0  0
   13.4217  -15.0850   20.5000 C   0  0  0  0  0  0  0  0  0  0  0  0
   13.7672  -13.9313   20.8643 O   0  0  0  0  0  0  0  0  0  0  0  0
   13.8045  -16.1721   21.3114 N   0  0  0  0  0  0  0  0  0  0  0  0
   14.4362  -16.0192   22.6141 C   0  0  1  0  0  0  0  0  0  0  0  0
   14.2051  -17.2049   23.4772 C   0  0  0  0  0  0  0  0  0  0  0  0
   12.7704  -17.4013   23.8169 C   0  0  0  0  0  0  0  0  0  0  0  0
   12.6471  -18.6110   24.7219 C   0  0  0  0  0  0  0  0  0  0  0  0
   12.2249  -18.4490   25.8932 O   0  0  0  0  0  0  0  0  0  0  0  0
   15.8630  -15.7527   22.4183 C   0  0  0  0  0  0  0  0  0  0  0  0
   16.4278  -15.8869   21.3171 O   0  0  0  0  0  0  0  0  0  0  0  0
   12.9814  -19.8739   24.3030 O   0  0  0  0  0  0  0  0  0  0  0  0
   16.6310  -15.3330   23.4925 O   0  0  0  0  0  0  0  0  0  0  0  0
  1  2  1  0
  1  5  1  0
  2  3  1  0
  3  4  1  0
  5  6  1  1
  5  4  1  0
  6 13  1  0
  7  6  2  0
  8  9  1  0
  9 10  2  0
 11  9  1  0
 12 11  1  6
 12 14  1  0
 13 12  1  0
 14 15  2  0
 16 14  1  0
 16 17  1  0
 17 22  1  0
 17 18  1  1
 19 18  1  0
 20 19  1  0
 21 20  2  0
 22 23  2  0
 22 25  1  0
 24 20  1  0
M  END
$$$$
