PNE.pdb
     RDKit          3D

 25 25  0  0  1  0  0  0  0  0999 V2000
    7.8522  -14.9684   19.3337 N   0  0  0  0  0  0  0  0  0  0  0  0
    7.7177  -14.2103   18.1099 C   0  0  0  0  0  0  0  0  0  0  0  0
    7.5335  -12.7722   18.5859 C   0  0  0  0  0  0  0  0  0  0  0  0
    7.9978  -12.7782   20.0359 C   0  0  0  0  0  0  0  0  0  0  0  0
    8.6483  -14.1134   20.1541 C   0  0  1  0  0  0  0  0  0  0  0  0
    8.7890  -14.5937   21.5459 C   0  0  0  0  0  0  0  0  0  0  0  0
    9.6523  -14.0999   22.3149 O   0  0  0  0  0  0  0  0  0  0  0  0
    8.2958  -17.4126   25.9187 N   0  0  0  0  0  0  0  0  0  0  0  0
    6.9686  -17.2789   25.3630 C   0  0  0  0  0  0  0  0  0  0  0  0
    6.0505  -17.7095   26.0692 O   0  0  0  0  0  0  0  0  0  0  0  0
    6.8876  -16.6574   24.0501 C   0  0  0  0  0  0  0  0  0  0  0  0
    8.1242  -16.1029   23.4663 C   0  0  2  0  0  0  0  0  0  0  0  0
    7.9813  -15.6220   22.1057 N   0  0  0  0  0  0  0  0  0  0  0  0
    9.3239  -17.0081   23.5785 C   0  0  0  0  0  0  0  0  0  0  0  0
    9.3191  -18.1411   23.0313 O   0  0  0  0  0  0  0  0  0  0  0  0
   10.4791  -16.6279   24.2911 N   0  0  0  0  0  0  0  0  0  0  0  0
   11.6874  -17.4376   24.3537 C   0  0  1  0  0  0  0  0  0  0  0  0
   12.8711  -16.6941   23.8534 C   0  0  0  0  0  0  0  0  0  0  0  0
   14.1429  -17.4441   24.0335 C   0  0  0  0  0  0  0  0  0  0  0  0
   15.2867  -16.5890   23.5257 C   0  0  0  0  0  0  0  0  0  0  0  0
   15.0345  -15.4381   23.0918 O   0  0  0  0  0  0  0  0  0  0  0  0
   11.8730  -17.9026   25.7301 C   0  0  0  0  0  0  0  0  0  0  0  0
   11.2458  -17.4234   26.6928 O   0  0  0  0  0  0  0  0  0  0  0  0
   16.5854  -17.0313   23.5251 O   0  0  0  0  0  0  0  0  0  0  0  0
   12.7803  -18.9172   25.9895 O   0  0  0  0  0  0  0  0  0  0  0  0
  1  2  1  0
  1  5  1  0
  2  3  1  0
  3  4  1  0
  5  6  1  1
  5  4  1  0
  6 13  1  0
  7  6  2  0
  8  9  1  0
  9 10  2  0
 11  9  1  0
 12 11  1  6
 12 14  1  0
 13 12  1  0
 14 15  2  0
 16 14  1  0
 16 17  1  0
 17 22  1  0
 17 18  1  1
 19 18  1  0
 20 19  1  0
 21 20  2  0
 22 23  2  0
 22 25  1  0
 24 20  1  0
M  END
$$$$
