PNE.pdb
     RDKit          3D

 25 25  0  0  1  0  0  0  0  0999 V2000
    7.9395  -14.4466   18.2390 N   0  0  0  0  0  0  0  0  0  0  0  0
    7.2217  -13.2344   17.9136 C   0  0  0  0  0  0  0  0  0  0  0  0
    7.3201  -12.3957   19.1847 C   0  0  0  0  0  0  0  0  0  0  0  0
    8.4470  -13.0324   19.9865 C   0  0  0  0  0  0  0  0  0  0  0  0
    9.0509  -13.9673   18.9958 C   0  0  1  0  0  0  0  0  0  0  0  0
    9.8619  -15.0455   19.6020 C   0  0  0  0  0  0  0  0  0  0  0  0
    9.3881  -16.1994   19.7583 O   0  0  0  0  0  0  0  0  0  0  0  0
   13.6103  -18.5556   20.4392 N   0  0  0  0  0  0  0  0  0  0  0  0
   14.0972  -17.2224   20.7102 C   0  0  0  0  0  0  0  0  0  0  0  0
   15.1331  -17.1606   21.3811 O   0  0  0  0  0  0  0  0  0  0  0  0
   13.3071  -16.1318   20.1597 C   0  0  0  0  0  0  0  0  0  0  0  0
   11.9666  -15.8897   20.7268 C   0  0  2  0  0  0  0  0  0  0  0  0
   11.2024  -14.8649   20.0422 N   0  0  0  0  0  0  0  0  0  0  0  0
   11.9565  -15.6449   22.2138 C   0  0  0  0  0  0  0  0  0  0  0  0
   12.7864  -14.8549   22.7338 O   0  0  0  0  0  0  0  0  0  0  0  0
   11.0332  -16.2824   23.0669 N   0  0  0  0  0  0  0  0  0  0  0  0
   11.4241  -17.1372   24.1787 C   0  0  1  0  0  0  0  0  0  0  0  0
   10.9113  -18.5205   24.0123 C   0  0  0  0  0  0  0  0  0  0  0  0
   10.7206  -19.2257   25.3080 C   0  0  0  0  0  0  0  0  0  0  0  0
   11.3448  -20.6033   25.2073 C   0  0  0  0  0  0  0  0  0  0  0  0
   11.4605  -21.1330   24.0748 O   0  0  0  0  0  0  0  0  0  0  0  0
   12.8826  -17.1045   24.3090 C   0  0  0  0  0  0  0  0  0  0  0  0
   13.4614  -16.5355   25.2529 O   0  0  0  0  0  0  0  0  0  0  0  0
   11.7862  -21.2880   26.3111 O   0  0  0  0  0  0  0  0  0  0  0  0
   13.6659  -17.7277   23.3509 O   0  0  0  0  0  0  0  0  0  0  0  0
  1  2  1  0
  1  5  1  0
  2  3  1  0
  3  4  1  0
  5  6  1  1
  5  4  1  0
  6 13  1  0
  7  6  2  0
  8  9  1  0
  9 10  2  0
 11  9  1  0
 12 11  1  6
 12 14  1  0
 13 12  1  0
 14 15  2  0
 16 14  1  0
 16 17  1  0
 17 22  1  0
 17 18  1  6
 19 18  1  0
 20 19  1  0
 21 20  2  0
 22 23  2  0
 22 25  1  0
 24 20  1  0
M  END
$$$$
