PNE.pdb
     RDKit          3D

 25 25  0  0  1  0  0  0  0  0999 V2000
    7.1723  -14.9386   20.0377 N   0  0  0  0  0  0  0  0  0  0  0  0
    6.7781  -14.5396   18.7051 C   0  0  0  0  0  0  0  0  0  0  0  0
    7.0481  -13.0380   18.6752 C   0  0  0  0  0  0  0  0  0  0  0  0
    7.9680  -12.7830   19.8614 C   0  0  0  0  0  0  0  0  0  0  0  0
    8.3492  -14.1646   20.2687 C   0  0  1  0  0  0  0  0  0  0  0  0
    8.8600  -14.2650   21.6532 C   0  0  0  0  0  0  0  0  0  0  0  0
   10.0402  -13.9334   21.9313 O   0  0  0  0  0  0  0  0  0  0  0  0
    8.0002  -12.8517   27.1389 N   0  0  0  0  0  0  0  0  0  0  0  0
    7.9069  -14.1386   26.4884 C   0  0  0  0  0  0  0  0  0  0  0  0
    8.1215  -15.1171   27.2119 O   0  0  0  0  0  0  0  0  0  0  0  0
    7.5738  -14.1136   25.0724 C   0  0  0  0  0  0  0  0  0  0  0  0
    8.5310  -14.7130   24.1227 C   0  0  2  0  0  0  0  0  0  0  0  0
    8.0772  -14.7311   22.7455 N   0  0  0  0  0  0  0  0  0  0  0  0
    9.0352  -16.0749   24.5258 C   0  0  0  0  0  0  0  0  0  0  0  0
    8.2348  -17.0376   24.6520 O   0  0  0  0  0  0  0  0  0  0  0  0
   10.4007  -16.3192   24.7753 N   0  0  0  0  0  0  0  0  0  0  0  0
   10.9293  -17.6247   25.1439 C   0  0  1  0  0  0  0  0  0  0  0  0
   12.2233  -17.9014   24.4707 C   0  0  0  0  0  0  0  0  0  0  0  0
   13.3133  -16.9942   24.9191 C   0  0  0  0  0  0  0  0  0  0  0  0
   14.1596  -16.6217   23.7180 C   0  0  0  0  0  0  0  0  0  0  0  0
   13.9112  -17.1627   22.6125 O   0  0  0  0  0  0  0  0  0  0  0  0
   11.0439  -17.6927   26.6025 C   0  0  0  0  0  0  0  0  0  0  0  0
   10.8580  -16.7064   27.3389 O   0  0  0  0  0  0  0  0  0  0  0  0
   15.1856  -15.7146   23.8001 O   0  0  0  0  0  0  0  0  0  0  0  0
   11.3720  -18.8969   27.2042 O   0  0  0  0  0  0  0  0  0  0  0  0
  1  2  1  0
  1  5  1  0
  2  3  1  0
  3  4  1  0
  5  6  1  1
  5  4  1  0
  6 13  1  0
  7  6  2  0
  8  9  1  0
  9 10  2  0
 11  9  1  0
 12 11  1  1
 12 14  1  0
 13 12  1  0
 14 15  2  0
 16 14  1  0
 16 17  1  0
 17 22  1  0
 17 18  1  6
 19 18  1  0
 20 19  1  0
 21 20  2  0
 22 23  2  0
 22 25  1  0
 24 20  1  0
M  END
$$$$
