PNE.pdb
     RDKit          3D

 25 25  0  0  1  0  0  0  0  0999 V2000
    9.1062  -19.1086   17.5382 N   0  0  0  0  0  0  0  0  0  0  0  0
    8.2200  -20.2372   17.3611 C   0  0  0  0  0  0  0  0  0  0  0  0
    7.6844  -20.5086   18.7640 C   0  0  0  0  0  0  0  0  0  0  0  0
    7.9926  -19.2424   19.5514 C   0  0  0  0  0  0  0  0  0  0  0  0
    8.4045  -18.2949   18.4780 C   0  0  1  0  0  0  0  0  0  0  0  0
    9.1914  -17.1403   18.9632 C   0  0  0  0  0  0  0  0  0  0  0  0
   10.4452  -17.1301   18.8727 O   0  0  0  0  0  0  0  0  0  0  0  0
    8.4783  -11.5467   18.8814 N   0  0  0  0  0  0  0  0  0  0  0  0
    8.2332  -12.9683   18.9654 C   0  0  0  0  0  0  0  0  0  0  0  0
    7.6994  -13.4755   17.9730 O   0  0  0  0  0  0  0  0  0  0  0  0
    8.6456  -13.6136   20.2024 C   0  0  0  0  0  0  0  0  0  0  0  0
    9.3785  -14.8910   20.1090 C   0  0  2  0  0  0  0  0  0  0  0  0
    8.6067  -15.9854   19.5527 N   0  0  0  0  0  0  0  0  0  0  0  0
   10.0455  -15.3191   21.3909 C   0  0  0  0  0  0  0  0  0  0  0  0
    9.3568  -15.7384   22.3568 O   0  0  0  0  0  0  0  0  0  0  0  0
   11.4443  -15.2655   21.5560 N   0  0  0  0  0  0  0  0  0  0  0  0
   12.1539  -15.9513   22.6264 C   0  0  1  0  0  0  0  0  0  0  0  0
   11.8469  -17.4037   22.6439 C   0  0  0  0  0  0  0  0  0  0  0  0
   11.3750  -17.8784   23.9722 C   0  0  0  0  0  0  0  0  0  0  0  0
   11.1919  -19.3820   23.9133 C   0  0  0  0  0  0  0  0  0  0  0  0
   11.3758  -19.9708   22.8197 O   0  0  0  0  0  0  0  0  0  0  0  0
   13.5886  -15.6953   22.4810 C   0  0  0  0  0  0  0  0  0  0  0  0
   14.0709  -15.1070   21.4955 O   0  0  0  0  0  0  0  0  0  0  0  0
   10.8325  -20.1180   25.0139 O   0  0  0  0  0  0  0  0  0  0  0  0
   14.4596  -16.1186   23.4720 O   0  0  0  0  0  0  0  0  0  0  0  0
  1  2  1  0
  1  5  1  0
  2  3  1  0
  3  4  1  0
  5  6  1  1
  5  4  1  0
  6 13  1  0
  7  6  2  0
  8  9  1  0
  9 10  2  0
 11  9  1  0
 12 11  1  1
 12 14  1  0
 13 12  1  0
 14 15  2  0
 16 14  1  0
 16 17  1  0
 17 22  1  0
 17 18  1  6
 19 18  1  0
 20 19  1  0
 21 20  2  0
 22 23  2  0
 22 25  1  0
 24 20  1  0
M  END
$$$$
