PNE.pdb
     RDKit          3D

 25 25  0  0  1  0  0  0  0  0999 V2000
    8.1557  -15.0854   18.4022 N   0  0  0  0  0  0  0  0  0  0  0  0
    8.0241  -14.6428   17.0321 C   0  0  0  0  0  0  0  0  0  0  0  0
    7.8135  -13.1360   17.1505 C   0  0  0  0  0  0  0  0  0  0  0  0
    8.2614  -12.7890   18.5637 C   0  0  0  0  0  0  0  0  0  0  0  0
    8.9299  -14.0465   19.0013 C   0  0  1  0  0  0  0  0  0  0  0  0
    9.0618  -14.1793   20.4686 C   0  0  0  0  0  0  0  0  0  0  0  0
    9.9385  -13.5353   21.0987 O   0  0  0  0  0  0  0  0  0  0  0  0
    7.3911  -14.2235   25.7513 N   0  0  0  0  0  0  0  0  0  0  0  0
    7.0483  -15.2951   24.8445 C   0  0  0  0  0  0  0  0  0  0  0  0
    6.7696  -16.3744   25.3778 O   0  0  0  0  0  0  0  0  0  0  0  0
    7.0760  -14.9640   23.4281 C   0  0  0  0  0  0  0  0  0  0  0  0
    8.3458  -15.1413   22.6978 C   0  0  2  0  0  0  0  0  0  0  0  0
    8.2303  -15.0219   21.2572 N   0  0  0  0  0  0  0  0  0  0  0  0
    9.1010  -16.3941   23.0605 C   0  0  0  0  0  0  0  0  0  0  0  0
    8.6074  -17.5262   22.8199 O   0  0  0  0  0  0  0  0  0  0  0  0
   10.3684  -16.3475   23.6755 N   0  0  0  0  0  0  0  0  0  0  0  0
   11.1529  -17.5329   23.9901 C   0  0  1  0  0  0  0  0  0  0  0  0
   12.5115  -17.4638   23.3955 C   0  0  0  0  0  0  0  0  0  0  0  0
   13.3279  -16.3498   23.9478 C   0  0  0  0  0  0  0  0  0  0  0  0
   14.6553  -16.3122   23.2168 C   0  0  0  0  0  0  0  0  0  0  0  0
   15.6921  -16.0189   23.8615 O   0  0  0  0  0  0  0  0  0  0  0  0
   11.1983  -17.6963   25.4449 C   0  0  0  0  0  0  0  0  0  0  0  0
   10.7298  -16.8531   26.2318 O   0  0  0  0  0  0  0  0  0  0  0  0
   14.7596  -16.5875   21.8769 O   0  0  0  0  0  0  0  0  0  0  0  0
   11.7831  -18.8305   25.9847 O   0  0  0  0  0  0  0  0  0  0  0  0
  1  2  1  0
  1  5  1  0
  2  3  1  0
  3  4  1  0
  5  6  1  1
  5  4  1  0
  6 13  1  0
  7  6  2  0
  8  9  1  0
  9 10  2  0
 11  9  1  0
 12 11  1  1
 12 14  1  0
 13 12  1  0
 14 15  2  0
 16 14  1  0
 16 17  1  0
 17 22  1  0
 17 18  1  1
 19 18  1  0
 20 19  1  0
 21 20  2  0
 22 23  2  0
 22 25  1  0
 24 20  1  0
M  END
$$$$
