PNE.pdb
     RDKit          3D

 25 25  0  0  1  0  0  0  0  0999 V2000
    7.9210  -15.0629   19.1883 N   0  0  0  0  0  0  0  0  0  0  0  0
    7.8418  -14.2940   17.9664 C   0  0  0  0  0  0  0  0  0  0  0  0
    7.5062  -12.8829   18.4405 C   0  0  0  0  0  0  0  0  0  0  0  0
    7.8351  -12.8817   19.9271 C   0  0  0  0  0  0  0  0  0  0  0  0
    8.5715  -14.1668   20.0890 C   0  0  1  0  0  0  0  0  0  0  0  0
    8.6203  -14.6615   21.4821 C   0  0  0  0  0  0  0  0  0  0  0  0
    9.2954  -14.0618   22.3567 O   0  0  0  0  0  0  0  0  0  0  0  0
    6.4148  -16.5392   26.1623 N   0  0  0  0  0  0  0  0  0  0  0  0
    6.6462  -17.4793   25.0897 C   0  0  0  0  0  0  0  0  0  0  0  0
    6.7806  -18.6581   25.4353 O   0  0  0  0  0  0  0  0  0  0  0  0
    6.6903  -16.9171   23.7486 C   0  0  0  0  0  0  0  0  0  0  0  0
    7.9487  -16.2919   23.2983 C   0  0  2  0  0  0  0  0  0  0  0  0
    7.9267  -15.8210   21.9269 N   0  0  0  0  0  0  0  0  0  0  0  0
    9.1795  -17.1256   23.5459 C   0  0  0  0  0  0  0  0  0  0  0  0
    9.4089  -18.1447   22.8445 O   0  0  0  0  0  0  0  0  0  0  0  0
   10.1059  -16.8029   24.5580 N   0  0  0  0  0  0  0  0  0  0  0  0
   11.2928  -17.5962   24.8436 C   0  0  1  0  0  0  0  0  0  0  0  0
   12.5382  -16.8426   24.5519 C   0  0  0  0  0  0  0  0  0  0  0  0
   13.0345  -17.0609   23.1668 C   0  0  0  0  0  0  0  0  0  0  0  0
   14.3431  -16.3151   22.9969 C   0  0  0  0  0  0  0  0  0  0  0  0
   14.8358  -15.7252   23.9898 O   0  0  0  0  0  0  0  0  0  0  0  0
   11.2365  -18.0448   26.2367 C   0  0  0  0  0  0  0  0  0  0  0  0
   10.3595  -17.6608   27.0325 O   0  0  0  0  0  0  0  0  0  0  0  0
   15.0046  -16.2642   21.7961 O   0  0  0  0  0  0  0  0  0  0  0  0
   12.1909  -18.9335   26.7050 O   0  0  0  0  0  0  0  0  0  0  0  0
  1  2  1  0
  1  5  1  0
  2  3  1  0
  3  4  1  0
  5  6  1  1
  5  4  1  0
  6 13  1  0
  7  6  2  0
  8  9  1  0
  9 10  2  0
 11  9  1  0
 12 11  1  6
 12 14  1  0
 13 12  1  0
 14 15  2  0
 16 14  1  0
 16 17  1  0
 17 22  1  0
 17 18  1  1
 19 18  1  0
 20 19  1  0
 21 20  2  0
 22 23  2  0
 22 25  1  0
 24 20  1  0
M  END
$$$$
