PNE.pdb
     RDKit          3D

 25 25  0  0  1  0  0  0  0  0999 V2000
    8.4260  -14.9187   19.0542 N   0  0  0  0  0  0  0  0  0  0  0  0
    8.6774  -14.0454   17.9295 C   0  0  0  0  0  0  0  0  0  0  0  0
    7.9780  -12.7438   18.3104 C   0  0  0  0  0  0  0  0  0  0  0  0
    7.7405  -12.8525   19.8105 C   0  0  0  0  0  0  0  0  0  0  0  0
    8.5578  -14.0439   20.1744 C   0  0  1  0  0  0  0  0  0  0  0  0
    8.1740  -14.6677   21.4594 C   0  0  0  0  0  0  0  0  0  0  0  0
    8.3191  -14.0509   22.5451 O   0  0  0  0  0  0  0  0  0  0  0  0
    6.0383  -17.7395   25.0668 N   0  0  0  0  0  0  0  0  0  0  0  0
    5.6395  -18.3089   23.8000 C   0  0  0  0  0  0  0  0  0  0  0  0
    4.9005  -19.2968   23.8700 O   0  0  0  0  0  0  0  0  0  0  0  0
    6.1584  -17.6469   22.6129 C   0  0  0  0  0  0  0  0  0  0  0  0
    7.1103  -16.5347   22.7975 C   0  0  2  0  0  0  0  0  0  0  0  0
    7.6265  -15.9765   21.5627 N   0  0  0  0  0  0  0  0  0  0  0  0
    8.2400  -16.8358   23.7486 C   0  0  0  0  0  0  0  0  0  0  0  0
    9.2772  -17.4190   23.3397 O   0  0  0  0  0  0  0  0  0  0  0  0
    8.1789  -16.4835   25.1120 N   0  0  0  0  0  0  0  0  0  0  0  0
    9.3038  -16.6148   26.0270 C   0  0  1  0  0  0  0  0  0  0  0  0
    9.2678  -15.5799   27.0909 C   0  0  0  0  0  0  0  0  0  0  0  0
   10.3784  -15.7194   28.0704 C   0  0  0  0  0  0  0  0  0  0  0  0
   10.2328  -14.6414   29.1260 C   0  0  0  0  0  0  0  0  0  0  0  0
    9.2232  -13.8957   29.0930 O   0  0  0  0  0  0  0  0  0  0  0  0
    9.3061  -17.9709   26.5804 C   0  0  0  0  0  0  0  0  0  0  0  0
    8.2697  -18.6496   26.7028 O   0  0  0  0  0  0  0  0  0  0  0  0
   11.1666  -14.4551   30.1136 O   0  0  0  0  0  0  0  0  0  0  0  0
   10.5025  -18.5372   26.9897 O   0  0  0  0  0  0  0  0  0  0  0  0
  1  2  1  0
  1  5  1  0
  2  3  1  0
  3  4  1  0
  5  6  1  1
  5  4  1  0
  6 13  1  0
  7  6  2  0
  8  9  1  0
  9 10  2  0
 11  9  1  0
 12 11  1  6
 12 14  1  0
 13 12  1  0
 14 15  2  0
 16 14  1  0
 16 17  1  0
 17 22  1  0
 17 18  1  1
 19 18  1  0
 20 19  1  0
 21 20  2  0
 22 23  2  0
 22 25  1  0
 24 20  1  0
M  END
$$$$
