PNE.pdb
     RDKit          3D

 25 25  0  0  1  0  0  0  0  0999 V2000
    8.0843  -15.0491   19.2501 N   0  0  0  0  0  0  0  0  0  0  0  0
    7.2281  -14.5054   18.2197 C   0  0  0  0  0  0  0  0  0  0  0  0
    7.3963  -12.9952   18.3600 C   0  0  0  0  0  0  0  0  0  0  0  0
    8.6605  -12.8186   19.1901 C   0  0  0  0  0  0  0  0  0  0  0  0
    9.2278  -14.1963   19.1992 C   0  0  1  0  0  0  0  0  0  0  0  0
   10.1965  -14.4414   20.2898 C   0  0  0  0  0  0  0  0  0  0  0  0
   11.3192  -13.8758   20.2951 O   0  0  0  0  0  0  0  0  0  0  0  0
   12.4951  -15.8958   24.7040 N   0  0  0  0  0  0  0  0  0  0  0  0
   11.1443  -16.3971   24.8132 C   0  0  0  0  0  0  0  0  0  0  0  0
   10.8501  -16.9001   25.9029 O   0  0  0  0  0  0  0  0  0  0  0  0
   10.3109  -16.2445   23.6305 C   0  0  0  0  0  0  0  0  0  0  0  0
   10.8798  -15.5394   22.4658 C   0  0  2  0  0  0  0  0  0  0  0  0
    9.9396  -15.3113   21.3855 N   0  0  0  0  0  0  0  0  0  0  0  0
   12.1522  -16.1465   21.9332 C   0  0  0  0  0  0  0  0  0  0  0  0
   12.1641  -17.3332   21.5152 O   0  0  0  0  0  0  0  0  0  0  0  0
   13.3597  -15.4212   21.8852 N   0  0  0  0  0  0  0  0  0  0  0  0
   14.6143  -15.9803   21.4025 C   0  0  1  0  0  0  0  0  0  0  0  0
   15.2491  -15.1040   20.3859 C   0  0  0  0  0  0  0  0  0  0  0  0
   14.4543  -15.0034   19.1327 C   0  0  0  0  0  0  0  0  0  0  0  0
   15.2545  -14.2188   18.1121 C   0  0  0  0  0  0  0  0  0  0  0  0
   15.4670  -12.9988   18.3191 O   0  0  0  0  0  0  0  0  0  0  0  0
   15.4956  -16.2201   22.5475 C   0  0  0  0  0  0  0  0  0  0  0  0
   15.2143  -15.8499   23.7024 O   0  0  0  0  0  0  0  0  0  0  0  0
   15.7528  -14.7978   16.9725 O   0  0  0  0  0  0  0  0  0  0  0  0
   16.6959  -16.8850   22.3554 O   0  0  0  0  0  0  0  0  0  0  0  0
  1  2  1  0
  1  5  1  0
  2  3  1  0
  3  4  1  0
  5  6  1  1
  5  4  1  0
  6 13  1  0
  7  6  2  0
  8  9  1  0
  9 10  2  0
 11  9  1  0
 12 11  1  1
 12 14  1  0
 13 12  1  0
 14 15  2  0
 16 14  1  0
 16 17  1  0
 17 22  1  0
 17 18  1  6
 19 18  1  0
 20 19  1  0
 21 20  2  0
 22 23  2  0
 22 25  1  0
 24 20  1  0
M  END
$$$$
