WYM.pdb
     RDKit          3D

 35 37  0  0  1  0  0  0  0  0999 V2000
   23.3641   -9.3375  -18.6888 N   0  0  0  0  0  0  0  0  0  0  0  0
   22.1169  -10.0143  -18.9478 C   0  0  1  0  0  0  0  0  0  0  0  0
   22.4223  -11.4417  -19.3323 C   0  0  0  0  0  0  0  0  0  0  0  0
   23.0812  -11.5047  -20.6616 C   0  0  0  0  0  0  0  0  0  0  0  0
   24.3793  -11.8207  -20.9745 C   0  0  0  0  0  0  0  0  0  0  0  0
   24.5377  -11.7515  -22.3162 N   0  0  0  0  0  0  0  0  0  0  0  0
   23.3838  -11.3984  -22.9117 C   0  0  0  0  0  0  0  0  0  0  0  0
   23.0062  -11.1893  -24.2395 C   0  0  0  0  0  0  0  0  0  0  0  0
   21.7025  -10.8206  -24.5474 C   0  0  0  0  0  0  0  0  0  0  0  0
   20.7891  -10.6637  -23.5354 C   0  0  0  0  0  0  0  0  0  0  0  0
   21.1805  -10.8755  -22.2180 C   0  0  0  0  0  0  0  0  0  0  0  0
   22.4760  -11.2439  -21.8882 C   0  0  0  0  0  0  0  0  0  0  0  0
   21.2311   -9.9322  -17.7639 C   0  0  0  0  0  0  0  0  0  0  0  0
   21.5129  -10.4772  -16.6633 O   0  0  0  0  0  0  0  0  0  0  0  0
   22.6990   -4.5884  -14.0880 O   0  0  0  0  0  0  0  0  0  0  0  0
   21.7145   -5.3385  -14.7100 C   0  0  0  0  0  0  0  0  0  0  0  0
   20.8603   -6.1208  -13.9539 C   0  0  0  0  0  0  0  0  0  0  0  0
   19.8908   -6.8590  -14.5721 C   0  0  0  0  0  0  0  0  0  0  0  0
   19.7727   -6.8176  -15.9432 C   0  0  0  0  0  0  0  0  0  0  0  0
   18.7066   -7.6321  -16.5781 C   0  0  0  0  0  0  0  0  0  0  0  0
   19.0970   -9.0753  -16.7518 C   0  0  2  0  0  0  0  0  0  0  0  0
   20.0087   -9.2174  -17.8436 N   0  0  0  0  0  0  0  0  0  0  0  0
   17.8406   -9.8557  -16.9421 C   0  0  0  0  0  0  0  0  0  0  0  0
   17.2219   -9.6605  -18.0243 O   0  0  0  0  0  0  0  0  0  0  0  0
   20.6021   -6.0546  -16.7114 C   0  0  0  0  0  0  0  0  0  0  0  0
   21.5792   -5.3110  -16.0839 C   0  0  0  0  0  0  0  0  0  0  0  0
   14.0871  -15.6894  -14.8966 C   0  0  0  0  0  0  0  0  0  0  0  0
   15.8542  -15.3067  -15.0123 S   0  0  0  0  0  0  0  0  0  0  0  0
   16.1023  -13.4834  -14.8862 C   0  0  0  0  0  0  0  0  0  0  0  0
   16.1733  -12.8803  -16.2587 C   0  0  0  0  0  0  0  0  0  0  0  0
   16.0590  -11.4020  -16.2120 C   0  0  2  0  0  0  0  0  0  0  0  0
   17.3497  -10.7649  -15.9858 N   0  0  0  0  0  0  0  0  0  0  0  0
   15.1000  -10.9248  -15.2235 C   0  0  0  0  0  0  0  0  0  0  0  0
   13.7527  -11.2037  -15.1796 O   0  0  0  0  0  0  0  0  0  0  0  0
   15.5148  -10.1597  -14.2791 O   0  0  0  0  0  0  0  0  0  0  0  0
  2  1  1  1
  3  2  1  0
  4  3  1  0
  4  5  2  0
  6  5  1  0
  7  6  1  0
  8  7  2  0
  9  8  1  0
 10  9  2  0
 10 11  1  0
 11 12  2  0
 12  7  1  0
 12  4  1  0
 13  2  1  0
 14 13  2  0
 16 15  1  0
 17 16  2  0
 18 17  1  0
 19 25  1  0
 19 18  2  0
 20 19  1  0
 21 20  1  6
 21 23  1  0
 21 22  1  0
 22 13  1  0
 23 32  1  0
 24 23  2  0
 25 26  2  0
 26 16  1  0
 27 28  1  0
 28 29  1  0
 29 30  1  0
 31 33  1  0
 31 30  1  1
 32 31  1  0
 33 34  1  0
 35 33  2  0
M  END
$$$$
