WYM.pdb
     RDKit          3D

 35 37  0  0  1  0  0  0  0  0999 V2000
   25.6798  -21.6289   -9.3591 N   0  0  0  0  0  0  0  0  0  0  0  0
   26.1661  -20.2733   -9.2781 C   0  0  1  0  0  0  0  0  0  0  0  0
   27.3826  -20.2579   -8.3845 C   0  0  0  0  0  0  0  0  0  0  0  0
   27.0008  -20.4564   -6.9633 C   0  0  0  0  0  0  0  0  0  0  0  0
   25.8080  -20.8814   -6.4346 C   0  0  0  0  0  0  0  0  0  0  0  0
   25.9115  -20.9148   -5.0862 N   0  0  0  0  0  0  0  0  0  0  0  0
   27.1387  -20.5246   -4.6956 C   0  0  0  0  0  0  0  0  0  0  0  0
   27.7568  -20.3811   -3.4520 C   0  0  0  0  0  0  0  0  0  0  0  0
   29.0736  -19.9456   -3.3702 C   0  0  0  0  0  0  0  0  0  0  0  0
   29.7616  -19.6578   -4.5221 C   0  0  0  0  0  0  0  0  0  0  0  0
   29.1322  -19.8057   -5.7531 C   0  0  0  0  0  0  0  0  0  0  0  0
   27.8191  -20.2388   -5.8579 C   0  0  0  0  0  0  0  0  0  0  0  0
   26.4609  -19.7503  -10.6318 C   0  0  0  0  0  0  0  0  0  0  0  0
   27.2351  -18.7765  -10.8320 O   0  0  0  0  0  0  0  0  0  0  0  0
   28.3746  -19.3535  -19.0179 O   0  0  0  0  0  0  0  0  0  0  0  0
   28.0990  -19.6863  -17.7019 C   0  0  0  0  0  0  0  0  0  0  0  0
   27.4846  -20.8902  -17.4076 C   0  0  0  0  0  0  0  0  0  0  0  0
   27.2147  -21.2140  -16.1078 C   0  0  0  0  0  0  0  0  0  0  0  0
   27.5568  -20.3384  -15.1019 C   0  0  0  0  0  0  0  0  0  0  0  0
   27.2486  -20.7260  -13.7027 C   0  0  0  0  0  0  0  0  0  0  0  0
   26.1112  -19.9361  -13.1129 C   0  0  2  0  0  0  0  0  0  0  0  0
   25.8608  -20.3507  -11.7680 N   0  0  0  0  0  0  0  0  0  0  0  0
   24.9309  -20.1230  -14.0050 C   0  0  0  0  0  0  0  0  0  0  0  0
   24.3232  -21.2239  -13.9018 O   0  0  0  0  0  0  0  0  0  0  0  0
   28.1631  -19.1455  -15.3654 C   0  0  0  0  0  0  0  0  0  0  0  0
   28.4340  -18.8222  -16.6783 C   0  0  0  0  0  0  0  0  0  0  0  0
   18.3437  -17.4649  -16.9948 C   0  0  0  0  0  0  0  0  0  0  0  0
   19.8920  -17.1074  -16.1245 S   0  0  0  0  0  0  0  0  0  0  0  0
   21.0076  -18.5732  -16.2182 C   0  0  0  0  0  0  0  0  0  0  0  0
   22.2918  -18.2862  -15.4965 C   0  0  0  0  0  0  0  0  0  0  0  0
   23.2783  -19.3784  -15.6821 C   0  0  2  0  0  0  0  0  0  0  0  0
   24.4972  -19.1440  -14.9191 N   0  0  0  0  0  0  0  0  0  0  0  0
   23.6169  -19.6237  -17.0784 C   0  0  0  0  0  0  0  0  0  0  0  0
   23.2639  -20.7198  -17.8326 O   0  0  0  0  0  0  0  0  0  0  0  0
   24.3191  -18.7508  -17.7067 O   0  0  0  0  0  0  0  0  0  0  0  0
  2  1  1  6
  3  2  1  0
  4  3  1  0
  4  5  2  0
  6  5  1  0
  7  6  1  0
  8  7  2  0
  9  8  1  0
 10  9  2  0
 10 11  1  0
 11 12  2  0
 12  7  1  0
 12  4  1  0
 13  2  1  0
 14 13  2  0
 16 15  1  0
 17 16  2  0
 18 17  1  0
 19 25  1  0
 19 18  2  0
 20 19  1  0
 21 20  1  6
 21 23  1  0
 21 22  1  0
 22 13  1  0
 23 32  1  0
 24 23  2  0
 25 26  2  0
 26 16  1  0
 27 28  1  0
 28 29  1  0
 29 30  1  0
 31 33  1  0
 31 30  1  6
 32 31  1  0
 33 34  1  0
 35 33  2  0
M  END
$$$$
