WYM.pdb
     RDKit          3D

 35 37  0  0  1  0  0  0  0  0999 V2000
   27.4279  -22.1709  -13.2420 N   0  0  0  0  0  0  0  0  0  0  0  0
   26.2673  -21.5709  -12.6308 C   0  0  1  0  0  0  0  0  0  0  0  0
   26.6614  -20.2177  -12.0903 C   0  0  0  0  0  0  0  0  0  0  0  0
   27.7139  -20.3465  -11.0508 C   0  0  0  0  0  0  0  0  0  0  0  0
   29.0783  -20.2846  -11.1823 C   0  0  0  0  0  0  0  0  0  0  0  0
   29.6457  -20.4549   -9.9662 N   0  0  0  0  0  0  0  0  0  0  0  0
   28.7016  -20.6290   -9.0233 C   0  0  0  0  0  0  0  0  0  0  0  0
   28.7411  -20.8403   -7.6438 C   0  0  0  0  0  0  0  0  0  0  0  0
   27.5622  -20.9872   -6.9235 C   0  0  0  0  0  0  0  0  0  0  0  0
   26.3586  -20.9228   -7.5794 C   0  0  0  0  0  0  0  0  0  0  0  0
   26.3357  -20.7118   -8.9536 C   0  0  0  0  0  0  0  0  0  0  0  0
   27.4999  -20.5626   -9.6919 C   0  0  0  0  0  0  0  0  0  0  0  0
   25.1592  -21.4804  -13.6090 C   0  0  0  0  0  0  0  0  0  0  0  0
   25.1937  -20.7134  -14.6082 O   0  0  0  0  0  0  0  0  0  0  0  0
   27.5053  -24.5427  -18.3449 O   0  0  0  0  0  0  0  0  0  0  0  0
   26.3976  -24.3549  -17.5348 C   0  0  0  0  0  0  0  0  0  0  0  0
   26.3870  -24.8649  -16.2491 C   0  0  0  0  0  0  0  0  0  0  0  0
   25.2919  -24.6770  -15.4538 C   0  0  0  0  0  0  0  0  0  0  0  0
   24.2079  -23.9811  -15.9396 C   0  0  0  0  0  0  0  0  0  0  0  0
   23.0377  -23.7965  -15.0455 C   0  0  0  0  0  0  0  0  0  0  0  0
   22.9804  -22.4235  -14.4314 C   0  0  2  0  0  0  0  0  0  0  0  0
   23.9989  -22.2781  -13.4390 N   0  0  0  0  0  0  0  0  0  0  0  0
   21.6065  -22.2397  -13.8814 C   0  0  0  0  0  0  0  0  0  0  0  0
   21.3741  -22.7867  -12.7684 O   0  0  0  0  0  0  0  0  0  0  0  0
   24.1931  -23.4682  -17.2033 C   0  0  0  0  0  0  0  0  0  0  0  0
   25.3001  -23.6598  -18.0029 C   0  0  0  0  0  0  0  0  0  0  0  0
   17.8564  -18.0837  -10.3841 C   0  0  0  0  0  0  0  0  0  0  0  0
   17.5115  -18.1047  -12.1626 S   0  0  0  0  0  0  0  0  0  0  0  0
   17.7167  -19.8184  -12.8128 C   0  0  0  0  0  0  0  0  0  0  0  0
   19.0989  -19.9920  -13.3712 C   0  0  0  0  0  0  0  0  0  0  0  0
   19.3004  -21.3571  -13.9156 C   0  0  2  0  0  0  0  0  0  0  0  0
   20.6066  -21.5031  -14.5445 N   0  0  0  0  0  0  0  0  0  0  0  0
   18.2606  -21.7685  -14.8506 C   0  0  0  0  0  0  0  0  0  0  0  0
   18.4332  -22.1419  -16.1643 O   0  0  0  0  0  0  0  0  0  0  0  0
   17.0419  -21.7970  -14.4463 O   0  0  0  0  0  0  0  0  0  0  0  0
  2  1  1  6
  3  2  1  0
  4  3  1  0
  4  5  2  0
  6  5  1  0
  7  6  1  0
  8  7  2  0
  9  8  1  0
 10  9  2  0
 10 11  1  0
 11 12  2  0
 12  7  1  0
 12  4  1  0
 13  2  1  0
 14 13  2  0
 16 15  1  0
 17 16  2  0
 18 17  1  0
 19 25  1  0
 19 18  2  0
 20 19  1  0
 21 20  1  1
 21 23  1  0
 21 22  1  0
 22 13  1  0
 23 32  1  0
 24 23  2  0
 25 26  2  0
 26 16  1  0
 27 28  1  0
 28 29  1  0
 29 30  1  0
 31 33  1  0
 31 30  1  6
 32 31  1  0
 33 34  1  0
 35 33  2  0
M  END
$$$$
