WYM.pdb
     RDKit          3D

 35 37  0  0  1  0  0  0  0  0999 V2000
   28.7856  -21.0764  -10.3184 N   0  0  0  0  0  0  0  0  0  0  0  0
   27.3984  -21.3107   -9.9998 C   0  0  1  0  0  0  0  0  0  0  0  0
   27.1011  -20.6629   -8.6691 C   0  0  0  0  0  0  0  0  0  0  0  0
   28.1763  -20.9502   -7.6860 C   0  0  0  0  0  0  0  0  0  0  0  0
   29.2285  -21.8259   -7.7793 C   0  0  0  0  0  0  0  0  0  0  0  0
   29.9600  -21.7572   -6.6434 N   0  0  0  0  0  0  0  0  0  0  0  0
   29.4289  -20.8611   -5.7916 C   0  0  0  0  0  0  0  0  0  0  0  0
   29.7794  -20.4151   -4.5158 C   0  0  0  0  0  0  0  0  0  0  0  0
   29.0105  -19.4517   -3.8746 C   0  0  0  0  0  0  0  0  0  0  0  0
   27.9038  -18.9422   -4.5059 C   0  0  0  0  0  0  0  0  0  0  0  0
   27.5678  -19.3965   -5.7764 C   0  0  0  0  0  0  0  0  0  0  0  0
   28.3207  -20.3570   -6.4346 C   0  0  0  0  0  0  0  0  0  0  0  0
   26.5276  -20.7931  -11.0799 C   0  0  0  0  0  0  0  0  0  0  0  0
   26.0927  -19.6105  -11.0963 O   0  0  0  0  0  0  0  0  0  0  0  0
   22.7050  -20.3665  -18.9480 O   0  0  0  0  0  0  0  0  0  0  0  0
   23.4220  -20.7880  -17.8403 C   0  0  0  0  0  0  0  0  0  0  0  0
   24.5051  -20.0510  -17.3966 C   0  0  0  0  0  0  0  0  0  0  0  0
   25.2093  -20.4710  -16.3034 C   0  0  0  0  0  0  0  0  0  0  0  0
   24.8341  -21.6250  -15.6529 C   0  0  0  0  0  0  0  0  0  0  0  0
   25.6226  -22.0480  -14.4688 C   0  0  0  0  0  0  0  0  0  0  0  0
   25.3251  -21.2269  -13.2429 C   0  0  2  0  0  0  0  0  0  0  0  0
   26.1513  -21.6413  -12.1525 N   0  0  0  0  0  0  0  0  0  0  0  0
   23.8694  -21.3722  -12.9534 C   0  0  0  0  0  0  0  0  0  0  0  0
   23.5261  -22.4164  -12.3338 O   0  0  0  0  0  0  0  0  0  0  0  0
   23.7703  -22.3696  -16.0702 C   0  0  0  0  0  0  0  0  0  0  0  0
   23.0622  -21.9425  -17.1736 C   0  0  0  0  0  0  0  0  0  0  0  0
   20.0491  -22.3921   -8.0812 C   0  0  0  0  0  0  0  0  0  0  0  0
   20.3264  -20.9303   -9.1151 S   0  0  0  0  0  0  0  0  0  0  0  0
   20.7168  -21.4565  -10.8392 C   0  0  0  0  0  0  0  0  0  0  0  0
   21.1635  -20.2731  -11.6469 C   0  0  0  0  0  0  0  0  0  0  0  0
   21.5066  -20.6592  -13.0374 C   0  0  2  0  0  0  0  0  0  0  0  0
   22.9113  -20.4148  -13.3374 N   0  0  0  0  0  0  0  0  0  0  0  0
   20.6736  -20.0107  -14.0424 C   0  0  0  0  0  0  0  0  0  0  0  0
   19.5817  -20.5516  -14.6828 O   0  0  0  0  0  0  0  0  0  0  0  0
   20.9557  -18.8089  -14.3971 O   0  0  0  0  0  0  0  0  0  0  0  0
  2  1  1  6
  3  2  1  0
  4  3  1  0
  4  5  2  0
  6  5  1  0
  7  6  1  0
  8  7  2  0
  9  8  1  0
 10  9  2  0
 10 11  1  0
 11 12  2  0
 12  7  1  0
 12  4  1  0
 13  2  1  0
 14 13  2  0
 16 15  1  0
 17 16  2  0
 18 17  1  0
 19 25  1  0
 19 18  2  0
 20 19  1  0
 21 20  1  6
 21 23  1  0
 21 22  1  0
 22 13  1  0
 23 32  1  0
 24 23  2  0
 25 26  2  0
 26 16  1  0
 27 28  1  0
 28 29  1  0
 29 30  1  0
 31 33  1  0
 31 30  1  1
 32 31  1  0
 33 34  1  0
 35 33  2  0
M  END
$$$$
