WYM.pdb
     RDKit          3D

 35 37  0  0  1  0  0  0  0  0999 V2000
   22.9439  -24.7574  -17.8124 N   0  0  0  0  0  0  0  0  0  0  0  0
   23.0693  -26.1856  -17.6539 C   0  0  1  0  0  0  0  0  0  0  0  0
   22.0921  -26.8548  -18.5897 C   0  0  0  0  0  0  0  0  0  0  0  0
   20.6946  -26.6601  -18.1269 C   0  0  0  0  0  0  0  0  0  0  0  0
   19.8121  -25.6527  -18.4256 C   0  0  0  0  0  0  0  0  0  0  0  0
   18.6466  -25.8825  -17.7785 N   0  0  0  0  0  0  0  0  0  0  0  0
   18.7220  -27.0145  -17.0548 C   0  0  0  0  0  0  0  0  0  0  0  0
   17.8273  -27.6917  -16.2240 C   0  0  0  0  0  0  0  0  0  0  0  0
   18.2086  -28.8719  -15.5979 C   0  0  0  0  0  0  0  0  0  0  0  0
   19.4721  -29.3664  -15.8030 C   0  0  0  0  0  0  0  0  0  0  0  0
   20.3517  -28.6805  -16.6332 C   0  0  0  0  0  0  0  0  0  0  0  0
   19.9922  -27.5013  -17.2679 C   0  0  0  0  0  0  0  0  0  0  0  0
   24.4651  -26.6110  -17.9063 C   0  0  0  0  0  0  0  0  0  0  0  0
   25.2008  -26.0574  -18.7666 O   0  0  0  0  0  0  0  0  0  0  0  0
   31.8751  -31.2718  -16.8376 O   0  0  0  0  0  0  0  0  0  0  0  0
   30.6267  -30.6938  -16.6762 C   0  0  0  0  0  0  0  0  0  0  0  0
   29.5424  -31.4774  -16.3248 C   0  0  0  0  0  0  0  0  0  0  0  0
   28.3129  -30.9026  -16.1669 C   0  0  0  0  0  0  0  0  0  0  0  0
   28.1641  -29.5474  -16.3591 C   0  0  0  0  0  0  0  0  0  0  0  0
   26.8135  -28.9595  -16.1770 C   0  0  0  0  0  0  0  0  0  0  0  0
   26.3306  -28.2135  -17.3918 C   0  0  2  0  0  0  0  0  0  0  0  0
   25.0227  -27.6834  -17.1642 N   0  0  0  0  0  0  0  0  0  0  0  0
   26.3787  -29.1603  -18.5429 C   0  0  0  0  0  0  0  0  0  0  0  0
   25.4092  -29.9611  -18.6465 O   0  0  0  0  0  0  0  0  0  0  0  0
   29.2170  -28.7528  -16.7059 C   0  0  0  0  0  0  0  0  0  0  0  0
   30.4561  -29.3365  -16.8643 C   0  0  0  0  0  0  0  0  0  0  0  0
   26.6703  -28.7403  -25.4920 C   0  0  0  0  0  0  0  0  0  0  0  0
   28.0359  -29.5356  -24.6058 S   0  0  0  0  0  0  0  0  0  0  0  0
   27.3989  -30.3213  -23.0636 C   0  0  0  0  0  0  0  0  0  0  0  0
   27.6277  -29.4106  -21.8928 C   0  0  0  0  0  0  0  0  0  0  0  0
   27.3600  -30.0980  -20.6059 C   0  0  2  0  0  0  0  0  0  0  0  0
   27.4330  -29.1813  -19.4757 N   0  0  0  0  0  0  0  0  0  0  0  0
   28.2337  -31.2396  -20.3647 C   0  0  0  0  0  0  0  0  0  0  0  0
   29.5788  -31.2021  -20.0747 O   0  0  0  0  0  0  0  0  0  0  0  0
   27.7356  -32.4220  -20.4218 O   0  0  0  0  0  0  0  0  0  0  0  0
  2  1  1  6
  3  2  1  0
  4  3  1  0
  4  5  2  0
  6  5  1  0
  7  6  1  0
  8  7  2  0
  9  8  1  0
 10  9  2  0
 10 11  1  0
 11 12  2  0
 12  7  1  0
 12  4  1  0
 13  2  1  0
 14 13  2  0
 16 15  1  0
 17 16  2  0
 18 17  1  0
 19 25  1  0
 19 18  2  0
 20 19  1  0
 21 20  1  1
 21 23  1  0
 21 22  1  0
 22 13  1  0
 23 32  1  0
 24 23  2  0
 25 26  2  0
 26 16  1  0
 27 28  1  0
 28 29  1  0
 29 30  1  0
 31 33  1  0
 31 30  1  6
 32 31  1  0
 33 34  1  0
 35 33  2  0
M  END
$$$$
