WYM.pdb
     RDKit          3D

 35 37  0  0  1  0  0  0  0  0999 V2000
   26.1833  -17.7434  -17.7095 N   0  0  0  0  0  0  0  0  0  0  0  0
   26.9706  -18.1441  -16.5691 C   0  0  1  0  0  0  0  0  0  0  0  0
   28.0012  -17.0736  -16.3039 C   0  0  0  0  0  0  0  0  0  0  0  0
   28.7455  -16.7336  -17.5430 C   0  0  0  0  0  0  0  0  0  0  0  0
   28.7308  -15.5735  -18.2756 C   0  0  0  0  0  0  0  0  0  0  0  0
   29.5667  -15.7087  -19.3306 N   0  0  0  0  0  0  0  0  0  0  0  0
   30.1412  -16.9256  -19.3266 C   0  0  0  0  0  0  0  0  0  0  0  0
   31.0574  -17.5643  -20.1645 C   0  0  0  0  0  0  0  0  0  0  0  0
   31.4720  -18.8615  -19.8896 C   0  0  0  0  0  0  0  0  0  0  0  0
   30.9735  -19.5097  -18.7876 C   0  0  0  0  0  0  0  0  0  0  0  0
   30.0617  -18.8602  -17.9628 C   0  0  0  0  0  0  0  0  0  0  0  0
   29.6343  -17.5660  -18.2183 C   0  0  0  0  0  0  0  0  0  0  0  0
   26.0964  -18.3804  -15.3974 C   0  0  0  0  0  0  0  0  0  0  0  0
   25.4150  -17.4663  -14.8608 O   0  0  0  0  0  0  0  0  0  0  0  0
   20.2623  -21.6198  -10.0908 O   0  0  0  0  0  0  0  0  0  0  0  0
   21.2607  -21.5036  -11.0439 C   0  0  0  0  0  0  0  0  0  0  0  0
   21.1571  -20.5502  -12.0407 C   0  0  0  0  0  0  0  0  0  0  0  0
   22.1445  -20.4396  -12.9787 C   0  0  0  0  0  0  0  0  0  0  0  0
   23.2347  -21.2787  -12.9232 C   0  0  0  0  0  0  0  0  0  0  0  0
   24.2871  -21.1272  -13.9588 C   0  0  0  0  0  0  0  0  0  0  0  0
   25.2306  -19.9898  -13.6732 C   0  0  2  0  0  0  0  0  0  0  0  0
   26.0033  -19.6790  -14.8350 N   0  0  0  0  0  0  0  0  0  0  0  0
   26.0720  -20.3920  -12.5095 C   0  0  0  0  0  0  0  0  0  0  0  0
   26.9265  -21.2949  -12.7255 O   0  0  0  0  0  0  0  0  0  0  0  0
   23.3607  -22.2269  -11.9509 C   0  0  0  0  0  0  0  0  0  0  0  0
   22.3622  -22.3354  -11.0061 C   0  0  0  0  0  0  0  0  0  0  0  0
   28.5325  -19.4677   -5.0582 C   0  0  0  0  0  0  0  0  0  0  0  0
   27.4278  -18.8723   -6.3649 S   0  0  0  0  0  0  0  0  0  0  0  0
   27.5170  -20.0073   -7.8159 C   0  0  0  0  0  0  0  0  0  0  0  0
   26.6337  -19.4998   -8.9181 C   0  0  0  0  0  0  0  0  0  0  0  0
   26.7274  -20.3515  -10.1289 C   0  0  2  0  0  0  0  0  0  0  0  0
   25.9420  -19.8142  -11.2323 N   0  0  0  0  0  0  0  0  0  0  0  0
   26.3505  -21.7396   -9.8930 C   0  0  0  0  0  0  0  0  0  0  0  0
   25.3126  -22.4244  -10.4834 O   0  0  0  0  0  0  0  0  0  0  0  0
   27.0317  -22.4305   -9.0514 O   0  0  0  0  0  0  0  0  0  0  0  0
  2  1  1  6
  3  2  1  0
  4  3  1  0
  4  5  2  0
  6  5  1  0
  7  6  1  0
  8  7  2  0
  9  8  1  0
 10  9  2  0
 10 11  1  0
 11 12  2  0
 12  7  1  0
 12  4  1  0
 13  2  1  0
 14 13  2  0
 16 15  1  0
 17 16  2  0
 18 17  1  0
 19 25  1  0
 19 18  2  0
 20 19  1  0
 21 20  1  6
 21 23  1  0
 21 22  1  0
 22 13  1  0
 23 32  1  0
 24 23  2  0
 25 26  2  0
 26 16  1  0
 27 28  1  0
 28 29  1  0
 29 30  1  0
 31 33  1  0
 31 30  1  1
 32 31  1  0
 33 34  1  0
 35 33  2  0
M  END
$$$$
