WYM.pdb
     RDKit          3D

 35 37  0  0  1  0  0  0  0  0999 V2000
   23.4262  -17.1706  -18.5310 N   0  0  0  0  0  0  0  0  0  0  0  0
   22.7532  -17.4388  -17.2836 C   0  0  1  0  0  0  0  0  0  0  0  0
   21.2648  -17.4256  -17.5349 C   0  0  0  0  0  0  0  0  0  0  0  0
   20.7390  -16.0369  -17.5410 C   0  0  0  0  0  0  0  0  0  0  0  0
   20.5221  -15.1939  -18.6017 C   0  0  0  0  0  0  0  0  0  0  0  0
   20.0321  -14.0211  -18.1386 N   0  0  0  0  0  0  0  0  0  0  0  0
   19.9142  -14.0533  -16.7985 C   0  0  0  0  0  0  0  0  0  0  0  0
   19.4726  -13.1341  -15.8450 C   0  0  0  0  0  0  0  0  0  0  0  0
   19.4691  -13.4700  -14.4969 C   0  0  0  0  0  0  0  0  0  0  0  0
   19.9033  -14.7131  -14.1105 C   0  0  0  0  0  0  0  0  0  0  0  0
   20.3401  -15.6176  -15.0720 C   0  0  0  0  0  0  0  0  0  0  0  0
   20.3521  -15.3033  -16.4225 C   0  0  0  0  0  0  0  0  0  0  0  0
   23.2126  -18.7277  -16.7175 C   0  0  0  0  0  0  0  0  0  0  0  0
   23.4448  -19.7405  -17.4303 O   0  0  0  0  0  0  0  0  0  0  0  0
   29.5262  -19.3209  -17.4171 O   0  0  0  0  0  0  0  0  0  0  0  0
   28.4446  -19.4520  -16.5617 C   0  0  0  0  0  0  0  0  0  0  0  0
   27.7622  -18.3278  -16.1330 C   0  0  0  0  0  0  0  0  0  0  0  0
   26.6959  -18.4622  -15.2892 C   0  0  0  0  0  0  0  0  0  0  0  0
   26.3100  -19.7166  -14.8728 C   0  0  0  0  0  0  0  0  0  0  0  0
   25.1464  -19.8222  -13.9574 C   0  0  0  0  0  0  0  0  0  0  0  0
   23.8493  -20.0582  -14.6835 C   0  0  2  0  0  0  0  0  0  0  0  0
   23.4073  -18.8562  -15.3185 N   0  0  0  0  0  0  0  0  0  0  0  0
   22.8704  -20.5792  -13.6864 C   0  0  0  0  0  0  0  0  0  0  0  0
   22.1811  -19.7149  -13.0782 O   0  0  0  0  0  0  0  0  0  0  0  0
   26.9659  -20.8406  -15.2808 C   0  0  0  0  0  0  0  0  0  0  0  0
   28.0414  -20.7009  -16.1324 C   0  0  0  0  0  0  0  0  0  0  0  0
   20.5177  -21.7072   -7.0842 C   0  0  0  0  0  0  0  0  0  0  0  0
   21.5138  -21.0799   -8.4614 S   0  0  0  0  0  0  0  0  0  0  0  0
   21.2150  -22.1106   -9.9614 C   0  0  0  0  0  0  0  0  0  0  0  0
   22.1494  -21.6976  -11.0609 C   0  0  0  0  0  0  0  0  0  0  0  0
   21.8093  -22.3598  -12.3440 C   0  0  2  0  0  0  0  0  0  0  0  0
   22.7040  -21.9514  -13.4191 N   0  0  0  0  0  0  0  0  0  0  0  0
   20.4264  -22.1526  -12.7555 C   0  0  0  0  0  0  0  0  0  0  0  0
   19.9761  -21.2924  -13.7312 O   0  0  0  0  0  0  0  0  0  0  0  0
   19.5003  -22.8222  -12.1694 O   0  0  0  0  0  0  0  0  0  0  0  0
  2  1  1  6
  3  2  1  0
  4  3  1  0
  4  5  2  0
  6  5  1  0
  7  6  1  0
  8  7  2  0
  9  8  1  0
 10  9  2  0
 10 11  1  0
 11 12  2  0
 12  7  1  0
 12  4  1  0
 13  2  1  0
 14 13  2  0
 16 15  1  0
 17 16  2  0
 18 17  1  0
 19 25  1  0
 19 18  2  0
 20 19  1  0
 21 20  1  1
 21 23  1  0
 21 22  1  0
 22 13  1  0
 23 32  1  0
 24 23  2  0
 25 26  2  0
 26 16  1  0
 27 28  1  0
 28 29  1  0
 29 30  1  0
 31 33  1  0
 31 30  1  1
 32 31  1  0
 33 34  1  0
 35 33  2  0
M  END
$$$$
