WYM.pdb
     RDKit          3D

 35 37  0  0  1  0  0  0  0  0999 V2000
   26.0247  -21.9634  -18.5931 N   0  0  0  0  0  0  0  0  0  0  0  0
   25.6356  -22.6817  -17.4043 C   0  0  1  0  0  0  0  0  0  0  0  0
   26.5354  -22.2490  -16.2722 C   0  0  0  0  0  0  0  0  0  0  0  0
   27.9200  -22.7462  -16.4739 C   0  0  0  0  0  0  0  0  0  0  0  0
   29.0455  -22.0569  -16.8494 C   0  0  0  0  0  0  0  0  0  0  0  0
   30.0888  -22.9159  -16.9070 N   0  0  0  0  0  0  0  0  0  0  0  0
   29.6957  -24.1610  -16.5812 C   0  0  0  0  0  0  0  0  0  0  0  0
   30.3545  -25.3882  -16.4847 C   0  0  0  0  0  0  0  0  0  0  0  0
   29.6567  -26.5307  -16.1132 C   0  0  0  0  0  0  0  0  0  0  0  0
   28.3144  -26.4428  -15.8419 C   0  0  0  0  0  0  0  0  0  0  0  0
   27.6724  -25.2134  -15.9424 C   0  0  0  0  0  0  0  0  0  0  0  0
   28.3493  -24.0608  -16.3114 C   0  0  0  0  0  0  0  0  0  0  0  0
   24.2054  -22.4430  -17.1035 C   0  0  0  0  0  0  0  0  0  0  0  0
   23.7199  -21.2872  -16.9763 O   0  0  0  0  0  0  0  0  0  0  0  0
   15.6783  -24.3085  -16.1338 O   0  0  0  0  0  0  0  0  0  0  0  0
   17.0427  -24.4034  -16.3525 C   0  0  0  0  0  0  0  0  0  0  0  0
   17.6270  -23.6996  -17.3901 C   0  0  0  0  0  0  0  0  0  0  0  0
   18.9734  -23.7965  -17.6019 C   0  0  0  0  0  0  0  0  0  0  0  0
   19.7372  -24.5944  -16.7799 C   0  0  0  0  0  0  0  0  0  0  0  0
   21.1962  -24.6730  -17.0407 C   0  0  0  0  0  0  0  0  0  0  0  0
   21.9258  -23.4085  -16.6743 C   0  0  2  0  0  0  0  0  0  0  0  0
   23.3228  -23.5420  -16.9465 N   0  0  0  0  0  0  0  0  0  0  0  0
   21.6405  -23.1314  -15.2371 C   0  0  0  0  0  0  0  0  0  0  0  0
   22.1657  -23.9191  -14.4029 O   0  0  0  0  0  0  0  0  0  0  0  0
   19.1856  -25.2984  -15.7502 C   0  0  0  0  0  0  0  0  0  0  0  0
   17.8266  -25.1981  -15.5396 C   0  0  0  0  0  0  0  0  0  0  0  0
   19.6440  -16.5202  -13.9172 C   0  0  0  0  0  0  0  0  0  0  0  0
   20.7537  -17.7614  -13.2027 S   0  0  0  0  0  0  0  0  0  0  0  0
   20.1767  -19.4498  -13.6698 C   0  0  0  0  0  0  0  0  0  0  0  0
   20.9936  -20.4861  -12.9548 C   0  0  0  0  0  0  0  0  0  0  0  0
   20.6264  -21.8592  -13.3793 C   0  0  2  0  0  0  0  0  0  0  0  0
   20.8351  -22.0596  -14.8073 N   0  0  0  0  0  0  0  0  0  0  0  0
   19.2606  -22.2293  -13.0296 C   0  0  0  0  0  0  0  0  0  0  0  0
   18.2098  -22.4207  -13.8980 O   0  0  0  0  0  0  0  0  0  0  0  0
   18.9648  -22.4023  -11.7918 O   0  0  0  0  0  0  0  0  0  0  0  0
  2  1  1  6
  3  2  1  0
  4  3  1  0
  4  5  2  0
  6  5  1  0
  7  6  1  0
  8  7  2  0
  9  8  1  0
 10  9  2  0
 10 11  1  0
 11 12  2  0
 12  7  1  0
 12  4  1  0
 13  2  1  0
 14 13  2  0
 16 15  1  0
 17 16  2  0
 18 17  1  0
 19 25  1  0
 19 18  2  0
 20 19  1  0
 21 20  1  1
 21 23  1  0
 21 22  1  0
 22 13  1  0
 23 32  1  0
 24 23  2  0
 25 26  2  0
 26 16  1  0
 27 28  1  0
 28 29  1  0
 29 30  1  0
 31 33  1  0
 31 30  1  6
 32 31  1  0
 33 34  1  0
 35 33  2  0
M  END
$$$$
