WYM.pdb
     RDKit          3D

 35 37  0  0  1  0  0  0  0  0999 V2000
   26.2218  -21.9583  -13.7609 N   0  0  0  0  0  0  0  0  0  0  0  0
   26.3492  -20.7909  -12.9232 C   0  0  1  0  0  0  0  0  0  0  0  0
   25.1948  -19.8649  -13.2207 C   0  0  0  0  0  0  0  0  0  0  0  0
   25.3772  -19.1922  -14.5319 C   0  0  0  0  0  0  0  0  0  0  0  0
   24.4399  -18.8641  -15.4787 C   0  0  0  0  0  0  0  0  0  0  0  0
   25.0582  -18.2598  -16.5190 N   0  0  0  0  0  0  0  0  0  0  0  0
   26.3827  -18.1732  -16.2973 C   0  0  0  0  0  0  0  0  0  0  0  0
   27.4529  -17.6543  -17.0284 C   0  0  0  0  0  0  0  0  0  0  0  0
   28.7441  -17.7144  -16.5189 C   0  0  0  0  0  0  0  0  0  0  0  0
   28.9586  -18.2881  -15.2909 C   0  0  0  0  0  0  0  0  0  0  0  0
   27.8824  -18.8005  -14.5749 C   0  0  0  0  0  0  0  0  0  0  0  0
   26.5859  -18.7511  -15.0643 C   0  0  0  0  0  0  0  0  0  0  0  0
   26.3966  -21.1839  -11.4963 C   0  0  0  0  0  0  0  0  0  0  0  0
   25.7630  -22.1733  -11.0409 O   0  0  0  0  0  0  0  0  0  0  0  0
   28.0749  -20.2150   -2.9098 O   0  0  0  0  0  0  0  0  0  0  0  0
   28.0763  -20.0746   -4.2878 C   0  0  0  0  0  0  0  0  0  0  0  0
   28.7707  -20.9764   -5.0738 C   0  0  0  0  0  0  0  0  0  0  0  0
   28.7691  -20.8337   -6.4327 C   0  0  0  0  0  0  0  0  0  0  0  0
   28.0758  -19.7925   -7.0081 C   0  0  0  0  0  0  0  0  0  0  0  0
   28.0967  -19.6714   -8.4872 C   0  0  0  0  0  0  0  0  0  0  0  0
   27.1698  -20.6427   -9.1677 C   0  0  2  0  0  0  0  0  0  0  0  0
   27.1790  -20.4334  -10.5818 N   0  0  0  0  0  0  0  0  0  0  0  0
   25.8176  -20.4630   -8.5652 C   0  0  0  0  0  0  0  0  0  0  0  0
   25.2105  -19.3986   -8.8662 O   0  0  0  0  0  0  0  0  0  0  0  0
   27.3834  -18.8900   -6.2556 C   0  0  0  0  0  0  0  0  0  0  0  0
   27.3873  -19.0374   -4.8847 C   0  0  0  0  0  0  0  0  0  0  0  0
   18.5356  -21.8604   -7.7225 C   0  0  0  0  0  0  0  0  0  0  0  0
   20.1711  -22.3036   -8.3638 S   0  0  0  0  0  0  0  0  0  0  0  0
   21.4754  -21.4594   -7.3699 C   0  0  0  0  0  0  0  0  0  0  0  0
   22.8268  -21.7288   -7.9644 C   0  0  0  0  0  0  0  0  0  0  0  0
   23.9118  -21.1347   -7.1457 C   0  0  2  0  0  0  0  0  0  0  0  0
   25.2279  -21.4104   -7.7069 N   0  0  0  0  0  0  0  0  0  0  0  0
   23.8802  -21.5516   -5.7494 C   0  0  0  0  0  0  0  0  0  0  0  0
   23.0007  -21.1242   -4.7805 O   0  0  0  0  0  0  0  0  0  0  0  0
   24.7486  -22.4044   -5.3392 O   0  0  0  0  0  0  0  0  0  0  0  0
  2  1  1  6
  3  2  1  0
  4  3  1  0
  4  5  2  0
  6  5  1  0
  7  6  1  0
  8  7  2  0
  9  8  1  0
 10  9  2  0
 10 11  1  0
 11 12  2  0
 12  7  1  0
 12  4  1  0
 13  2  1  0
 14 13  2  0
 16 15  1  0
 17 16  2  0
 18 17  1  0
 19 25  1  0
 19 18  2  0
 20 19  1  0
 21 20  1  1
 21 23  1  0
 21 22  1  0
 22 13  1  0
 23 32  1  0
 24 23  2  0
 25 26  2  0
 26 16  1  0
 27 28  1  0
 28 29  1  0
 29 30  1  0
 31 33  1  0
 31 30  1  6
 32 31  1  0
 33 34  1  0
 35 33  2  0
M  END
$$$$
