WYM.pdb
     RDKit          3D

 35 37  0  0  1  0  0  0  0  0999 V2000
   21.1070  -18.0600  -16.0614 N   0  0  0  0  0  0  0  0  0  0  0  0
   22.4895  -18.3294  -15.7501 C   0  0  1  0  0  0  0  0  0  0  0  0
   23.2786  -17.0591  -15.9557 C   0  0  0  0  0  0  0  0  0  0  0  0
   23.4736  -16.7826  -17.4015 C   0  0  0  0  0  0  0  0  0  0  0  0
   22.8581  -15.8515  -18.1996 C   0  0  0  0  0  0  0  0  0  0  0  0
   23.3486  -15.9557  -19.4559 N   0  0  0  0  0  0  0  0  0  0  0  0
   24.2749  -16.9294  -19.5234 C   0  0  0  0  0  0  0  0  0  0  0  0
   25.0698  -17.4373  -20.5528 C   0  0  0  0  0  0  0  0  0  0  0  0
   25.9580  -18.4763  -20.3045 C   0  0  0  0  0  0  0  0  0  0  0  0
   26.0476  -18.9992  -19.0389 C   0  0  0  0  0  0  0  0  0  0  0  0
   25.2493  -18.4826  -18.0244 C   0  0  0  0  0  0  0  0  0  0  0  0
   24.3562  -17.4461  -18.2499 C   0  0  0  0  0  0  0  0  0  0  0  0
   22.6146  -18.8472  -14.3684 C   0  0  0  0  0  0  0  0  0  0  0  0
   22.0231  -18.3215  -13.3879 O   0  0  0  0  0  0  0  0  0  0  0  0
   17.4591  -22.3660  -12.8432 O   0  0  0  0  0  0  0  0  0  0  0  0
   18.8414  -22.2795  -12.8578 C   0  0  0  0  0  0  0  0  0  0  0  0
   19.5391  -22.1606  -11.6694 C   0  0  0  0  0  0  0  0  0  0  0  0
   20.9028  -22.0755  -11.6889 C   0  0  0  0  0  0  0  0  0  0  0  0
   21.5707  -22.1089  -12.8924 C   0  0  0  0  0  0  0  0  0  0  0  0
   23.0518  -22.0152  -12.8729 C   0  0  0  0  0  0  0  0  0  0  0  0
   23.5486  -20.5952  -12.8241 C   0  0  2  0  0  0  0  0  0  0  0  0
   23.4274  -19.9801  -14.1087 N   0  0  0  0  0  0  0  0  0  0  0  0
   24.9556  -20.6334  -12.3314 C   0  0  0  0  0  0  0  0  0  0  0  0
   25.8550  -20.6631  -13.2159 O   0  0  0  0  0  0  0  0  0  0  0  0
   20.9064  -22.2254  -14.0779 C   0  0  0  0  0  0  0  0  0  0  0  0
   19.5304  -22.3110  -14.0541 C   0  0  0  0  0  0  0  0  0  0  0  0
   27.8592  -18.5885   -5.9579 C   0  0  0  0  0  0  0  0  0  0  0  0
   26.8280  -19.7705   -6.8645 S   0  0  0  0  0  0  0  0  0  0  0  0
   27.7202  -20.3388   -8.3754 C   0  0  0  0  0  0  0  0  0  0  0  0
   26.8358  -21.2441   -9.1821 C   0  0  0  0  0  0  0  0  0  0  0  0
   26.6892  -20.7627  -10.5776 C   0  0  2  0  0  0  0  0  0  0  0  0
   25.2900  -20.6366  -10.9639 N   0  0  0  0  0  0  0  0  0  0  0  0
   27.3918  -21.5872  -11.5529 C   0  0  0  0  0  0  0  0  0  0  0  0
   28.6623  -21.3842  -12.0421 O   0  0  0  0  0  0  0  0  0  0  0  0
   26.7968  -22.6195  -12.0324 O   0  0  0  0  0  0  0  0  0  0  0  0
  2  1  1  1
  3  2  1  0
  4  3  1  0
  4  5  2  0
  6  5  1  0
  7  6  1  0
  8  7  2  0
  9  8  1  0
 10  9  2  0
 10 11  1  0
 11 12  2  0
 12  7  1  0
 12  4  1  0
 13  2  1  0
 14 13  2  0
 16 15  1  0
 17 16  2  0
 18 17  1  0
 19 25  1  0
 19 18  2  0
 20 19  1  0
 21 20  1  6
 21 23  1  0
 21 22  1  0
 22 13  1  0
 23 32  1  0
 24 23  2  0
 25 26  2  0
 26 16  1  0
 27 28  1  0
 28 29  1  0
 29 30  1  0
 31 33  1  0
 31 30  1  1
 32 31  1  0
 33 34  1  0
 35 33  2  0
M  END
$$$$
