WYM.pdb
     RDKit          3D

 35 37  0  0  1  0  0  0  0  0999 V2000
   19.3496  -11.6922  -16.7313 N   0  0  0  0  0  0  0  0  0  0  0  0
   18.8674  -10.4859  -17.3583 C   0  0  1  0  0  0  0  0  0  0  0  0
   17.4612  -10.7345  -17.8474 C   0  0  0  0  0  0  0  0  0  0  0  0
   17.4397  -11.7939  -18.8877 C   0  0  0  0  0  0  0  0  0  0  0  0
   17.4653  -13.1579  -18.7404 C   0  0  0  0  0  0  0  0  0  0  0  0
   17.4294  -13.7333  -19.9641 N   0  0  0  0  0  0  0  0  0  0  0  0
   17.3805  -12.7950  -20.9274 C   0  0  0  0  0  0  0  0  0  0  0  0
   17.3304  -12.8434  -22.3218 C   0  0  0  0  0  0  0  0  0  0  0  0
   17.2860  -11.6687  -23.0624 C   0  0  0  0  0  0  0  0  0  0  0  0
   17.2917  -10.4605  -22.4118 C   0  0  0  0  0  0  0  0  0  0  0  0
   17.3418  -10.4289  -21.0226 C   0  0  0  0  0  0  0  0  0  0  0  0
   17.3867  -11.5886  -20.2639 C   0  0  0  0  0  0  0  0  0  0  0  0
   18.9365   -9.3501  -16.4106 C   0  0  0  0  0  0  0  0  0  0  0  0
   18.4698   -9.4091  -15.2416 O   0  0  0  0  0  0  0  0  0  0  0  0
   23.6301  -11.0427  -12.8770 O   0  0  0  0  0  0  0  0  0  0  0  0
   23.0466  -10.0050  -13.5850 C   0  0  0  0  0  0  0  0  0  0  0  0
   22.2633   -9.0740  -12.9270 C   0  0  0  0  0  0  0  0  0  0  0  0
   21.6897   -8.0521  -13.6298 C   0  0  0  0  0  0  0  0  0  0  0  0
   21.8968   -7.9582  -14.9877 C   0  0  0  0  0  0  0  0  0  0  0  0
   21.2583   -6.8336  -15.7162 C   0  0  0  0  0  0  0  0  0  0  0  0
   19.7813   -7.0342  -15.9249 C   0  0  2  0  0  0  0  0  0  0  0  0
   19.5472   -8.1334  -16.8084 N   0  0  0  0  0  0  0  0  0  0  0  0
   19.2269   -5.7495  -16.4406 C   0  0  0  0  0  0  0  0  0  0  0  0
   19.7311   -5.3156  -17.5129 O   0  0  0  0  0  0  0  0  0  0  0  0
   22.6647   -8.8630  -15.6600 C   0  0  0  0  0  0  0  0  0  0  0  0
   23.2418   -9.8927  -14.9474 C   0  0  0  0  0  0  0  0  0  0  0  0
   12.9525   -4.5555  -13.7874 C   0  0  0  0  0  0  0  0  0  0  0  0
   13.7181   -4.0307  -15.3434 S   0  0  0  0  0  0  0  0  0  0  0  0
   15.5540   -4.0481  -15.1667 C   0  0  0  0  0  0  0  0  0  0  0  0
   16.1992   -3.8512  -16.5073 C   0  0  0  0  0  0  0  0  0  0  0  0
   17.6787   -3.8260  -16.4028 C   0  0  2  0  0  0  0  0  0  0  0  0
   18.2000   -5.0403  -15.7891 N   0  0  0  0  0  0  0  0  0  0  0  0
   18.1906   -2.6616  -15.6910 C   0  0  0  0  0  0  0  0  0  0  0  0
   18.1823   -1.3569  -16.1299 O   0  0  0  0  0  0  0  0  0  0  0  0
   18.7144   -2.8279  -14.5302 O   0  0  0  0  0  0  0  0  0  0  0  0
  2  1  1  1
  3  2  1  0
  4  3  1  0
  4  5  2  0
  6  5  1  0
  7  6  1  0
  8  7  2  0
  9  8  1  0
 10  9  2  0
 10 11  1  0
 11 12  2  0
 12  7  1  0
 12  4  1  0
 13  2  1  0
 14 13  2  0
 16 15  1  0
 17 16  2  0
 18 17  1  0
 19 25  1  0
 19 18  2  0
 20 19  1  0
 21 20  1  6
 21 23  1  0
 21 22  1  0
 22 13  1  0
 23 32  1  0
 24 23  2  0
 25 26  2  0
 26 16  1  0
 27 28  1  0
 28 29  1  0
 29 30  1  0
 31 33  1  0
 31 30  1  1
 32 31  1  0
 33 34  1  0
 35 33  2  0
M  END
$$$$
