WYM.pdb
     RDKit          3D

 35 37  0  0  1  0  0  0  0  0999 V2000
   19.1274  -27.0460  -15.4821 N   0  0  0  0  0  0  0  0  0  0  0  0
   18.7651  -25.6719  -15.7300 C   0  0  1  0  0  0  0  0  0  0  0  0
   18.0185  -25.1529  -14.5251 C   0  0  0  0  0  0  0  0  0  0  0  0
   16.6971  -25.8171  -14.3920 C   0  0  0  0  0  0  0  0  0  0  0  0
   16.3283  -26.8664  -13.5883 C   0  0  0  0  0  0  0  0  0  0  0  0
   15.0200  -27.1406  -13.7956 N   0  0  0  0  0  0  0  0  0  0  0  0
   14.5010  -26.3059  -14.7147 C   0  0  0  0  0  0  0  0  0  0  0  0
   13.2331  -26.1598  -15.2808 C   0  0  0  0  0  0  0  0  0  0  0  0
   13.0005  -25.1757  -16.2336 C   0  0  0  0  0  0  0  0  0  0  0  0
   14.0274  -24.3486  -16.6136 C   0  0  0  0  0  0  0  0  0  0  0  0
   15.2844  -24.5067  -16.0407 C   0  0  0  0  0  0  0  0  0  0  0  0
   15.5388  -25.4819  -15.0883 C   0  0  0  0  0  0  0  0  0  0  0  0
   19.9718  -24.8672  -16.0286 C   0  0  0  0  0  0  0  0  0  0  0  0
   21.1012  -25.1231  -15.5317 O   0  0  0  0  0  0  0  0  0  0  0  0
   25.2981  -19.4016  -20.3043 O   0  0  0  0  0  0  0  0  0  0  0  0
   24.2700  -20.2441  -19.9147 C   0  0  0  0  0  0  0  0  0  0  0  0
   22.9602  -19.8013  -19.9558 C   0  0  0  0  0  0  0  0  0  0  0  0
   21.9495  -20.6361  -19.5703 C   0  0  0  0  0  0  0  0  0  0  0  0
   22.2440  -21.9117  -19.1441 C   0  0  0  0  0  0  0  0  0  0  0  0
   21.1192  -22.7893  -18.7348 C   0  0  0  0  0  0  0  0  0  0  0  0
   20.9877  -22.9148  -17.2406 C   0  0  2  0  0  0  0  0  0  0  0  0
   19.8819  -23.7568  -16.9063 N   0  0  0  0  0  0  0  0  0  0  0  0
   20.8523  -21.5360  -16.6891 C   0  0  0  0  0  0  0  0  0  0  0  0
   19.7793  -20.9302  -16.9606 O   0  0  0  0  0  0  0  0  0  0  0  0
   23.5268  -22.3725  -19.0942 C   0  0  0  0  0  0  0  0  0  0  0  0
   24.5440  -21.5271  -19.4840 C   0  0  0  0  0  0  0  0  0  0  0  0
   22.5821  -14.5410  -16.5596 C   0  0  0  0  0  0  0  0  0  0  0  0
   22.9008  -16.2738  -16.9818 S   0  0  0  0  0  0  0  0  0  0  0  0
   22.8183  -17.3078  -15.4568 C   0  0  0  0  0  0  0  0  0  0  0  0
   22.9653  -18.7583  -15.8130 C   0  0  0  0  0  0  0  0  0  0  0  0
   21.7111  -19.5110  -15.5665 C   0  0  2  0  0  0  0  0  0  0  0  0
   21.8486  -20.9209  -15.9072 N   0  0  0  0  0  0  0  0  0  0  0  0
   20.5543  -18.9534  -16.2561 C   0  0  0  0  0  0  0  0  0  0  0  0
   20.0695  -19.3276  -17.4889 O   0  0  0  0  0  0  0  0  0  0  0  0
   19.8917  -18.0107  -15.6888 O   0  0  0  0  0  0  0  0  0  0  0  0
  2  1  1  1
  3  2  1  0
  4  3  1  0
  4  5  2  0
  6  5  1  0
  7  6  1  0
  8  7  2  0
  9  8  1  0
 10  9  2  0
 10 11  1  0
 11 12  2  0
 12  7  1  0
 12  4  1  0
 13  2  1  0
 14 13  2  0
 16 15  1  0
 17 16  2  0
 18 17  1  0
 19 25  1  0
 19 18  2  0
 20 19  1  0
 21 20  1  6
 21 23  1  0
 21 22  1  0
 22 13  1  0
 23 32  1  0
 24 23  2  0
 25 26  2  0
 26 16  1  0
 27 28  1  0
 28 29  1  0
 29 30  1  0
 31 33  1  0
 31 30  1  6
 32 31  1  0
 33 34  1  0
 35 33  2  0
M  END
$$$$
