LYI.pdb
     RDKit          3D

 29 29  0  0  1  0  0  0  0  0999 V2000
   29.5107  -17.5577  -18.5088 C   0  0  0  0  0  0  0  0  0  0  0  0
   28.0146  -17.5771  -18.5293 C   0  0  2  0  0  0  0  0  0  0  0  0
   27.4365  -16.7108  -19.6087 C   0  0  0  0  0  0  0  0  0  0  0  0
   27.5194  -17.1863  -17.1528 C   0  0  0  0  0  0  0  0  0  0  0  0
   27.9617  -18.2930  -16.1890 C   0  0  2  0  0  0  0  0  0  0  0  0
   28.1308  -19.4787  -17.0081 N   0  0  0  0  0  0  0  0  0  0  0  0
   26.9624  -18.5405  -15.1497 C   0  0  0  0  0  0  0  0  0  0  0  0
   26.6767  -17.6102  -14.3246 O   0  0  0  0  0  0  0  0  0  0  0  0
   19.6404  -21.7577  -11.4956 O   0  0  0  0  0  0  0  0  0  0  0  0
   20.7560  -21.5363  -12.3137 C   0  0  0  0  0  0  0  0  0  0  0  0
   20.7866  -20.3967  -13.0741 C   0  0  0  0  0  0  0  0  0  0  0  0
   21.8605  -20.1559  -13.8795 C   0  0  0  0  0  0  0  0  0  0  0  0
   22.9029  -21.0274  -13.9419 C   0  0  0  0  0  0  0  0  0  0  0  0
   24.0544  -20.7473  -14.8166 C   0  0  0  0  0  0  0  0  0  0  0  0
   25.1935  -20.0430  -14.1409 C   0  0  2  0  0  0  0  0  0  0  0  0
   26.2975  -19.7909  -15.0306 N   0  0  0  0  0  0  0  0  0  0  0  0
   25.6397  -20.6105  -12.8752 C   0  0  0  0  0  0  0  0  0  0  0  0
   26.2856  -21.7135  -12.9028 O   0  0  0  0  0  0  0  0  0  0  0  0
   22.8954  -22.1737  -13.1911 C   0  0  0  0  0  0  0  0  0  0  0  0
   21.8103  -22.4163  -12.3777 C   0  0  0  0  0  0  0  0  0  0  0  0
   28.1338  -19.9985   -7.4272 C   0  0  0  0  0  0  0  0  0  0  0  0
   27.1524  -20.7481   -8.2954 C   0  0  0  0  0  0  0  0  0  0  0  0
   26.7471  -19.9324   -9.5054 C   0  0  2  0  0  0  0  0  0  0  0  0
   25.9250  -18.7740   -8.9818 C   0  0  0  0  0  0  0  0  0  0  0  0
   25.8449  -20.7561  -10.3976 C   0  0  2  0  0  0  0  0  0  0  0  0
   25.4420  -20.0735  -11.5810 N   0  0  0  0  0  0  0  0  0  0  0  0
   24.7369  -21.2823   -9.5747 C   0  0  0  0  0  0  0  0  0  0  0  0
   24.9282  -22.1714   -8.6875 O   0  0  0  0  0  0  0  0  0  0  0  0
   23.4575  -20.7938   -9.7752 O   0  0  0  0  0  0  0  0  0  0  0  0
  2  1  1  1
  2  4  1  0
  3  2  1  0
  4  5  1  0
  5  6  1  6
  7  5  1  0
  8  7  2  0
  9 10  1  0
 10 11  2  0
 10 20  1  0
 11 12  1  0
 12 13  2  0
 13 14  1  0
 15 14  1  6
 15 16  1  0
 15 17  1  0
 16  7  1  0
 17 26  1  0
 18 17  2  0
 19 13  1  0
 20 19  2  0
 21 22  1  0
 23 25  1  0
 23 22  1  0
 23 24  1  1
 25 27  1  0
 25 26  1  6
 27 28  2  0
 27 29  1  0
M  END
$$$$
