LYI.pdb
     RDKit          3D

 29 29  0  0  1  0  0  0  0  0999 V2000
   24.1966  -16.4973  -19.5076 C   0  0  0  0  0  0  0  0  0  0  0  0
   23.7143  -17.7591  -20.1512 C   0  0  2  0  0  0  0  0  0  0  0  0
   22.7499  -17.5083  -21.2723 C   0  0  0  0  0  0  0  0  0  0  0  0
   23.1236  -18.6423  -19.0725 C   0  0  0  0  0  0  0  0  0  0  0  0
   24.2817  -19.0744  -18.1662 C   0  0  2  0  0  0  0  0  0  0  0  0
   25.0828  -19.9838  -18.9641 N   0  0  0  0  0  0  0  0  0  0  0  0
   23.8051  -19.7527  -16.9608 C   0  0  0  0  0  0  0  0  0  0  0  0
   23.2896  -20.9155  -17.0617 O   0  0  0  0  0  0  0  0  0  0  0  0
   22.4957  -21.6117   -8.4203 O   0  0  0  0  0  0  0  0  0  0  0  0
   22.9257  -21.0308   -9.6205 C   0  0  0  0  0  0  0  0  0  0  0  0
   22.0885  -20.1470  -10.2495 C   0  0  0  0  0  0  0  0  0  0  0  0
   22.4817  -19.5666  -11.4193 C   0  0  0  0  0  0  0  0  0  0  0  0
   23.6912  -19.8494  -11.9736 C   0  0  0  0  0  0  0  0  0  0  0  0
   24.0977  -19.2097  -13.2366 C   0  0  0  0  0  0  0  0  0  0  0  0
   23.4248  -19.7603  -14.4590 C   0  0  2  0  0  0  0  0  0  0  0  0
   23.8990  -19.1532  -15.6757 N   0  0  0  0  0  0  0  0  0  0  0  0
   21.9696  -19.8217  -14.4187 C   0  0  0  0  0  0  0  0  0  0  0  0
   21.3169  -18.7252  -14.4969 O   0  0  0  0  0  0  0  0  0  0  0  0
   24.5457  -20.7299  -11.3635 C   0  0  0  0  0  0  0  0  0  0  0  0
   24.1478  -21.3158  -10.1819 C   0  0  0  0  0  0  0  0  0  0  0  0
   16.7509  -21.5936  -16.4583 C   0  0  0  0  0  0  0  0  0  0  0  0
   17.5221  -21.2915  -15.1962 C   0  0  0  0  0  0  0  0  0  0  0  0
   19.0169  -21.3382  -15.4355 C   0  0  2  0  0  0  0  0  0  0  0  0
   19.3611  -22.7893  -15.6960 C   0  0  0  0  0  0  0  0  0  0  0  0
   19.7485  -20.9221  -14.1784 C   0  0  2  0  0  0  0  0  0  0  0  0
   21.1661  -20.9808  -14.3022 N   0  0  0  0  0  0  0  0  0  0  0  0
   19.1905  -21.6868  -13.0445 C   0  0  0  0  0  0  0  0  0  0  0  0
   18.0056  -21.4941  -12.6281 O   0  0  0  0  0  0  0  0  0  0  0  0
   19.9786  -22.6378  -12.4200 O   0  0  0  0  0  0  0  0  0  0  0  0
  2  1  1  1
  2  4  1  0
  3  2  1  0
  4  5  1  0
  5  6  1  6
  7  5  1  0
  8  7  2  0
  9 10  1  0
 10 11  2  0
 10 20  1  0
 11 12  1  0
 12 13  2  0
 13 14  1  0
 15 14  1  1
 15 16  1  0
 15 17  1  0
 16  7  1  0
 17 26  1  0
 18 17  2  0
 19 13  1  0
 20 19  2  0
 21 22  1  0
 23 25  1  0
 23 22  1  0
 23 24  1  1
 25 27  1  0
 25 26  1  6
 27 28  2  0
 27 29  1  0
M  END
$$$$
