LYI.pdb
     RDKit          3D

 29 29  0  0  1  0  0  0  0  0999 V2000
   27.8640  -16.2158  -15.7493 C   0  0  0  0  0  0  0  0  0  0  0  0
   26.3917  -15.9528  -15.7941 C   0  0  2  0  0  0  0  0  0  0  0  0
   26.0543  -14.5024  -15.6139 C   0  0  0  0  0  0  0  0  0  0  0  0
   25.7243  -16.8307  -14.7567 C   0  0  0  0  0  0  0  0  0  0  0  0
   26.2762  -18.2476  -14.9498 C   0  0  2  0  0  0  0  0  0  0  0  0
   25.8049  -18.6752  -16.2537 N   0  0  0  0  0  0  0  0  0  0  0  0
   25.7936  -19.1647  -13.9172 C   0  0  0  0  0  0  0  0  0  0  0  0
   24.5445  -19.2152  -13.6620 O   0  0  0  0  0  0  0  0  0  0  0  0
   23.1971  -23.9369  -16.9064 O   0  0  0  0  0  0  0  0  0  0  0  0
   23.9811  -23.5582  -15.8088 C   0  0  0  0  0  0  0  0  0  0  0  0
   25.1912  -22.9625  -16.0511 C   0  0  0  0  0  0  0  0  0  0  0  0
   25.9749  -22.5837  -15.0013 C   0  0  0  0  0  0  0  0  0  0  0  0
   25.5768  -22.7867  -13.7166 C   0  0  0  0  0  0  0  0  0  0  0  0
   26.4374  -22.3678  -12.5969 C   0  0  0  0  0  0  0  0  0  0  0  0
   26.2594  -20.9395  -12.1745 C   0  0  2  0  0  0  0  0  0  0  0  0
   26.6774  -20.0042  -13.1867 N   0  0  0  0  0  0  0  0  0  0  0  0
   26.7875  -20.5866  -10.8632 C   0  0  0  0  0  0  0  0  0  0  0  0
   28.0238  -20.8135  -10.6296 O   0  0  0  0  0  0  0  0  0  0  0  0
   24.3712  -23.3804  -13.4488 C   0  0  0  0  0  0  0  0  0  0  0  0
   23.5801  -23.7628  -14.5099 C   0  0  0  0  0  0  0  0  0  0  0  0
   28.3956  -18.4932   -6.6158 C   0  0  0  0  0  0  0  0  0  0  0  0
   27.9093  -19.5501   -7.5777 C   0  0  0  0  0  0  0  0  0  0  0  0
   26.4440  -19.8653   -7.3604 C   0  0  2  0  0  0  0  0  0  0  0  0
   26.3774  -20.7612   -6.1418 C   0  0  0  0  0  0  0  0  0  0  0  0
   25.9137  -20.6616   -8.5324 C   0  0  2  0  0  0  0  0  0  0  0  0
   26.0794  -20.0045   -9.7851 N   0  0  0  0  0  0  0  0  0  0  0  0
   24.5290  -21.0723   -8.2232 C   0  0  0  0  0  0  0  0  0  0  0  0
   24.2637  -21.8474   -7.2521 O   0  0  0  0  0  0  0  0  0  0  0  0
   23.4940  -20.6001   -9.0116 O   0  0  0  0  0  0  0  0  0  0  0  0
  2  1  1  1
  2  4  1  0
  3  2  1  0
  4  5  1  0
  5  6  1  6
  7  5  1  0
  8  7  2  0
  9 10  1  0
 10 11  2  0
 10 20  1  0
 11 12  1  0
 12 13  2  0
 13 14  1  0
 15 14  1  6
 15 16  1  0
 15 17  1  0
 16  7  1  0
 17 26  1  0
 18 17  2  0
 19 13  1  0
 20 19  2  0
 21 22  1  0
 23 25  1  0
 23 22  1  0
 23 24  1  1
 25 27  1  0
 25 26  1  6
 27 28  2  0
 27 29  1  0
M  END
$$$$
