LYI.pdb
     RDKit          3D

 29 29  0  0  1  0  0  0  0  0999 V2000
   30.0569  -17.9208  -18.1294 C   0  0  0  0  0  0  0  0  0  0  0  0
   28.5665  -17.8941  -18.2599 C   0  0  2  0  0  0  0  0  0  0  0  0
   28.0922  -16.9411  -19.3166 C   0  0  0  0  0  0  0  0  0  0  0  0
   27.9798  -17.5813  -16.8995 C   0  0  0  0  0  0  0  0  0  0  0  0
   28.3758  -18.7321  -15.9678 C   0  0  2  0  0  0  0  0  0  0  0  0
   28.3109  -19.9321  -16.7810 N   0  0  0  0  0  0  0  0  0  0  0  0
   27.4642  -18.8485  -14.8295 C   0  0  0  0  0  0  0  0  0  0  0  0
   27.3642  -17.8771  -14.0084 O   0  0  0  0  0  0  0  0  0  0  0  0
   20.0375  -21.0730  -10.6934 O   0  0  0  0  0  0  0  0  0  0  0  0
   21.1264  -21.0286  -11.5739 C   0  0  0  0  0  0  0  0  0  0  0  0
   21.4433  -19.8279  -12.1532 C   0  0  0  0  0  0  0  0  0  0  0  0
   22.4984  -19.7560  -13.0143 C   0  0  0  0  0  0  0  0  0  0  0  0
   23.2428  -20.8557  -13.3087 C   0  0  0  0  0  0  0  0  0  0  0  0
   24.3800  -20.7559  -14.2396 C   0  0  0  0  0  0  0  0  0  0  0  0
   25.6016  -20.1034  -13.6634 C   0  0  2  0  0  0  0  0  0  0  0  0
   26.6836  -20.0156  -14.6097 N   0  0  0  0  0  0  0  0  0  0  0  0
   26.0528  -20.6097  -12.3738 C   0  0  0  0  0  0  0  0  0  0  0  0
   26.6854  -21.7205  -12.3495 O   0  0  0  0  0  0  0  0  0  0  0  0
   22.9455  -22.0674  -12.7421 C   0  0  0  0  0  0  0  0  0  0  0  0
   21.8795  -22.1393  -11.8724 C   0  0  0  0  0  0  0  0  0  0  0  0
   28.3327  -19.9060   -6.8140 C   0  0  0  0  0  0  0  0  0  0  0  0
   27.4283  -20.6745   -7.7469 C   0  0  0  0  0  0  0  0  0  0  0  0
   27.0448  -19.8455   -8.9550 C   0  0  2  0  0  0  0  0  0  0  0  0
   26.1863  -18.7110   -8.4375 C   0  0  0  0  0  0  0  0  0  0  0  0
   26.1850  -20.6697   -9.8877 C   0  0  2  0  0  0  0  0  0  0  0  0
   25.8733  -20.0039  -11.1076 N   0  0  0  0  0  0  0  0  0  0  0  0
   25.0156  -21.1572   -9.1283 C   0  0  0  0  0  0  0  0  0  0  0  0
   25.1406  -21.9676   -8.1578 O   0  0  0  0  0  0  0  0  0  0  0  0
   23.7514  -20.7195   -9.4831 O   0  0  0  0  0  0  0  0  0  0  0  0
  2  1  1  1
  2  4  1  0
  3  2  1  0
  4  5  1  0
  5  6  1  6
  7  5  1  0
  8  7  2  0
  9 10  1  0
 10 11  2  0
 10 20  1  0
 11 12  1  0
 12 13  2  0
 13 14  1  0
 15 14  1  6
 15 16  1  0
 15 17  1  0
 16  7  1  0
 17 26  1  0
 18 17  2  0
 19 13  1  0
 20 19  2  0
 21 22  1  0
 23 25  1  0
 23 22  1  0
 23 24  1  1
 25 27  1  0
 25 26  1  6
 27 28  2  0
 27 29  1  0
M  END
$$$$
