LYI.pdb
     RDKit          3D

 29 29  0  0  1  0  0  0  0  0999 V2000
   34.9952  -35.0724   -6.4193 C   0  0  0  0  0  0  0  0  0  0  0  0
   33.7346  -34.4716   -6.9569 C   0  0  2  0  0  0  0  0  0  0  0  0
   33.9875  -33.3026   -7.8622 C   0  0  0  0  0  0  0  0  0  0  0  0
   32.8482  -34.1084   -5.7843 C   0  0  0  0  0  0  0  0  0  0  0  0
   32.6749  -35.3796   -4.9458 C   0  0  2  0  0  0  0  0  0  0  0  0
   32.3034  -36.4197   -5.8868 N   0  0  0  0  0  0  0  0  0  0  0  0
   31.6310  -35.2247   -3.9326 C   0  0  0  0  0  0  0  0  0  0  0  0
   31.8040  -34.3929   -2.9807 O   0  0  0  0  0  0  0  0  0  0  0  0
   24.5403  -31.8097   -2.1876 O   0  0  0  0  0  0  0  0  0  0  0  0
   25.4141  -32.8375   -2.5657 C   0  0  0  0  0  0  0  0  0  0  0  0
   25.5638  -33.9052   -1.7198 C   0  0  0  0  0  0  0  0  0  0  0  0
   26.4079  -34.9200   -2.0629 C   0  0  0  0  0  0  0  0  0  0  0  0
   27.1046  -34.8915   -3.2307 C   0  0  0  0  0  0  0  0  0  0  0  0
   28.0094  -35.9990   -3.5835 C   0  0  0  0  0  0  0  0  0  0  0  0
   29.3820  -35.8966   -2.9871 C   0  0  2  0  0  0  0  0  0  0  0  0
   30.4253  -35.9757   -3.9766 N   0  0  0  0  0  0  0  0  0  0  0  0
   29.6533  -36.7625   -1.8470 C   0  0  0  0  0  0  0  0  0  0  0  0
   29.9455  -37.9861   -2.0746 O   0  0  0  0  0  0  0  0  0  0  0  0
   26.9718  -33.8348   -4.0929 C   0  0  0  0  0  0  0  0  0  0  0  0
   26.1189  -32.8100   -3.7456 C   0  0  0  0  0  0  0  0  0  0  0  0
   32.7941  -36.1652    2.4952 C   0  0  0  0  0  0  0  0  0  0  0  0
   31.9419  -36.5992    1.3273 C   0  0  0  0  0  0  0  0  0  0  0  0
   30.5210  -36.8975    1.7584 C   0  0  2  0  0  0  0  0  0  0  0  0
   30.6051  -38.0561    2.7293 C   0  0  0  0  0  0  0  0  0  0  0  0
   29.7141  -37.3671    0.5680 C   0  0  2  0  0  0  0  0  0  0  0  0
   29.6348  -36.4039   -0.4782 N   0  0  0  0  0  0  0  0  0  0  0  0
   28.4116  -37.8616    1.0589 C   0  0  0  0  0  0  0  0  0  0  0  0
   27.3259  -37.2559    0.7970 O   0  0  0  0  0  0  0  0  0  0  0  0
   28.3732  -39.0148    1.8234 O   0  0  0  0  0  0  0  0  0  0  0  0
  2  1  1  1
  2  4  1  0
  3  2  1  0
  4  5  1  0
  5  6  1  6
  7  5  1  0
  8  7  2  0
  9 10  1  0
 10 11  2  0
 10 20  1  0
 11 12  1  0
 12 13  2  0
 13 14  1  0
 15 14  1  6
 15 16  1  0
 15 17  1  0
 16  7  1  0
 17 26  1  0
 18 17  2  0
 19 13  1  0
 20 19  2  0
 21 22  1  0
 23 25  1  0
 23 22  1  0
 23 24  1  1
 25 27  1  0
 25 26  1  6
 27 28  2  0
 27 29  1  0
M  END
$$$$
