LYI.pdb
     RDKit          3D

 29 29  0  0  1  0  0  0  0  0999 V2000
   27.9509  -19.0766  -17.5281 C   0  0  0  0  0  0  0  0  0  0  0  0
   26.6985  -18.5059  -16.9410 C   0  0  2  0  0  0  0  0  0  0  0  0
   26.0073  -17.5476  -17.8650 C   0  0  0  0  0  0  0  0  0  0  0  0
   27.0481  -17.8706  -15.6117 C   0  0  0  0  0  0  0  0  0  0  0  0
   27.6168  -18.9818  -14.7223 C   0  0  2  0  0  0  0  0  0  0  0  0
   27.5684  -20.1884  -15.5269 N   0  0  0  0  0  0  0  0  0  0  0  0
   26.8274  -19.1605  -13.5036 C   0  0  0  0  0  0  0  0  0  0  0  0
   26.6760  -18.1745  -12.7082 O   0  0  0  0  0  0  0  0  0  0  0  0
   19.6809  -18.9761  -14.5548 O   0  0  0  0  0  0  0  0  0  0  0  0
   20.8187  -19.6178  -14.0485 C   0  0  0  0  0  0  0  0  0  0  0  0
   20.9544  -19.7198  -12.6887 C   0  0  0  0  0  0  0  0  0  0  0  0
   22.0522  -20.3396  -12.1685 C   0  0  0  0  0  0  0  0  0  0  0  0
   23.0159  -20.8589  -12.9758 C   0  0  0  0  0  0  0  0  0  0  0  0
   24.1928  -21.5266  -12.3936 C   0  0  0  0  0  0  0  0  0  0  0  0
   25.3314  -20.6074  -12.0641 C   0  0  2  0  0  0  0  0  0  0  0  0
   26.2219  -20.4041  -13.1774 N   0  0  0  0  0  0  0  0  0  0  0  0
   26.0604  -20.9017  -10.8373 C   0  0  0  0  0  0  0  0  0  0  0  0
   26.8139  -21.9343  -10.8161 O   0  0  0  0  0  0  0  0  0  0  0  0
   22.9027  -20.7693  -14.3385 C   0  0  0  0  0  0  0  0  0  0  0  0
   21.7935  -20.1431  -14.8632 C   0  0  0  0  0  0  0  0  0  0  0  0
   28.8690  -19.5212   -5.6232 C   0  0  0  0  0  0  0  0  0  0  0  0
   27.9207  -20.4175   -6.3823 C   0  0  0  0  0  0  0  0  0  0  0  0
   27.3863  -19.7342   -7.6238 C   0  0  2  0  0  0  0  0  0  0  0  0
   26.5019  -18.6045   -7.1405 C   0  0  0  0  0  0  0  0  0  0  0  0
   26.5076  -20.6932   -8.3963 C   0  0  2  0  0  0  0  0  0  0  0  0
   26.0377  -20.1616   -9.6313 N   0  0  0  0  0  0  0  0  0  0  0  0
   25.4514  -21.1855   -7.4886 C   0  0  0  0  0  0  0  0  0  0  0  0
   25.7191  -21.9311   -6.4953 O   0  0  0  0  0  0  0  0  0  0  0  0
   24.1365  -20.8247   -7.7262 O   0  0  0  0  0  0  0  0  0  0  0  0
  2  1  1  6
  2  4  1  0
  3  2  1  0
  4  5  1  0
  5  6  1  6
  7  5  1  0
  8  7  2  0
  9 10  1  0
 10 11  2  0
 10 20  1  0
 11 12  1  0
 12 13  2  0
 13 14  1  0
 15 14  1  6
 15 16  1  0
 15 17  1  0
 16  7  1  0
 17 26  1  0
 18 17  2  0
 19 13  1  0
 20 19  2  0
 21 22  1  0
 23 25  1  0
 23 22  1  0
 23 24  1  1
 25 27  1  0
 25 26  1  6
 27 28  2  0
 27 29  1  0
M  END
$$$$
