LYI.pdb
     RDKit          3D

 29 29  0  0  1  0  0  0  0  0999 V2000
   29.2352  -18.6674  -15.5632 C   0  0  0  0  0  0  0  0  0  0  0  0
   27.7903  -18.4395  -15.8778 C   0  0  2  0  0  0  0  0  0  0  0  0
   27.5662  -17.2335  -16.7411 C   0  0  0  0  0  0  0  0  0  0  0  0
   27.0303  -18.3590  -14.5707 C   0  0  0  0  0  0  0  0  0  0  0  0
   27.5051  -19.5319  -13.7059 C   0  0  2  0  0  0  0  0  0  0  0  0
   27.0788  -20.7296  -14.4052 N   0  0  0  0  0  0  0  0  0  0  0  0
   26.9138  -19.4957  -12.3682 C   0  0  0  0  0  0  0  0  0  0  0  0
   26.4944  -18.3848  -11.9014 O   0  0  0  0  0  0  0  0  0  0  0  0
   20.4812  -19.6904  -13.4347 O   0  0  0  0  0  0  0  0  0  0  0  0
   21.5786  -20.2138  -12.7385 C   0  0  0  0  0  0  0  0  0  0  0  0
   21.7752  -19.8136  -11.4427 C   0  0  0  0  0  0  0  0  0  0  0  0
   22.8355  -20.3073  -10.7414 C   0  0  0  0  0  0  0  0  0  0  0  0
   23.7025  -21.1907  -11.3054 C   0  0  0  0  0  0  0  0  0  0  0  0
   24.8401  -21.7138  -10.5297 C   0  0  0  0  0  0  0  0  0  0  0  0
   25.9854  -20.7566  -10.3803 C   0  0  2  0  0  0  0  0  0  0  0  0
   26.7920  -20.6650  -11.5698 N   0  0  0  0  0  0  0  0  0  0  0  0
   26.8034  -20.9150   -9.1850 C   0  0  0  0  0  0  0  0  0  0  0  0
   27.7203  -21.8058   -9.1949 O   0  0  0  0  0  0  0  0  0  0  0  0
   23.5270  -21.6058  -12.5995 C   0  0  0  0  0  0  0  0  0  0  0  0
   22.4556  -21.1066  -13.3073 C   0  0  0  0  0  0  0  0  0  0  0  0
   29.9058  -18.9831   -4.3944 C   0  0  0  0  0  0  0  0  0  0  0  0
   28.9861  -20.0230   -4.9873 C   0  0  0  0  0  0  0  0  0  0  0  0
   28.2980  -19.5082   -6.2344 C   0  0  2  0  0  0  0  0  0  0  0  0
   27.4312  -18.3478   -5.7940 C   0  0  0  0  0  0  0  0  0  0  0  0
   27.3759  -20.5734   -6.7855 C   0  0  2  0  0  0  0  0  0  0  0  0
   26.7059  -20.1804   -7.9793 N   0  0  0  0  0  0  0  0  0  0  0  0
   26.4893  -21.0266   -5.6945 C   0  0  0  0  0  0  0  0  0  0  0  0
   26.9499  -21.5676   -4.6412 O   0  0  0  0  0  0  0  0  0  0  0  0
   25.1217  -20.8569   -5.8229 O   0  0  0  0  0  0  0  0  0  0  0  0
  2  1  1  1
  2  4  1  0
  3  2  1  0
  4  5  1  0
  5  6  1  6
  7  5  1  0
  8  7  2  0
  9 10  1  0
 10 11  2  0
 10 20  1  0
 11 12  1  0
 12 13  2  0
 13 14  1  0
 15 14  1  6
 15 16  1  0
 15 17  1  0
 16  7  1  0
 17 26  1  0
 18 17  2  0
 19 13  1  0
 20 19  2  0
 21 22  1  0
 23 25  1  0
 23 22  1  0
 23 24  1  1
 25 27  1  0
 25 26  1  6
 27 28  2  0
 27 29  1  0
M  END
$$$$
