LYI.pdb
     RDKit          3D

 29 29  0  0  1  0  0  0  0  0999 V2000
   24.3478  -18.8913  -19.6418 C   0  0  0  0  0  0  0  0  0  0  0  0
   23.8934  -19.2568  -21.0198 C   0  0  2  0  0  0  0  0  0  0  0  0
   24.8562  -18.8213  -22.0843 C   0  0  0  0  0  0  0  0  0  0  0  0
   22.5087  -18.6807  -21.2277 C   0  0  0  0  0  0  0  0  0  0  0  0
   21.5961  -19.3230  -20.1770 C   0  0  2  0  0  0  0  0  0  0  0  0
   21.7021  -20.7542  -20.3911 N   0  0  0  0  0  0  0  0  0  0  0  0
   20.2055  -18.8952  -20.3298 C   0  0  0  0  0  0  0  0  0  0  0  0
   19.6776  -18.8928  -21.4914 O   0  0  0  0  0  0  0  0  0  0  0  0
   16.8365  -23.9779  -21.6722 O   0  0  0  0  0  0  0  0  0  0  0  0
   16.8920  -22.7817  -20.9450 C   0  0  0  0  0  0  0  0  0  0  0  0
   17.7547  -22.7082  -19.8828 C   0  0  0  0  0  0  0  0  0  0  0  0
   17.8292  -21.5557  -19.1574 C   0  0  0  0  0  0  0  0  0  0  0  0
   17.0619  -20.4768  -19.4694 C   0  0  0  0  0  0  0  0  0  0  0  0
   17.1595  -19.2406  -18.6744 C   0  0  0  0  0  0  0  0  0  0  0  0
   18.0165  -18.1723  -19.2861 C   0  0  2  0  0  0  0  0  0  0  0  0
   19.4216  -18.4806  -19.2193 N   0  0  0  0  0  0  0  0  0  0  0  0
   17.7433  -16.8063  -18.8588 C   0  0  0  0  0  0  0  0  0  0  0  0
   18.2793  -16.3950  -17.7734 O   0  0  0  0  0  0  0  0  0  0  0  0
   16.1919  -20.5260  -20.5269 C   0  0  0  0  0  0  0  0  0  0  0  0
   16.1172  -21.6905  -21.2592 C   0  0  0  0  0  0  0  0  0  0  0  0
   17.2752  -11.1389  -19.2369 C   0  0  0  0  0  0  0  0  0  0  0  0
   16.2004  -12.1717  -19.4754 C   0  0  0  0  0  0  0  0  0  0  0  0
   16.7787  -13.4544  -20.0359 C   0  0  2  0  0  0  0  0  0  0  0  0
   15.8757  -13.8643  -21.1798 C   0  0  0  0  0  0  0  0  0  0  0  0
   16.7047  -14.5468  -18.9920 C   0  0  2  0  0  0  0  0  0  0  0  0
   16.9352  -15.8500  -19.5184 N   0  0  0  0  0  0  0  0  0  0  0  0
   15.4377  -14.3908  -18.2489 C   0  0  0  0  0  0  0  0  0  0  0  0
   15.2687  -13.4544  -17.4070 O   0  0  0  0  0  0  0  0  0  0  0  0
   14.4082  -15.2875  -18.4762 O   0  0  0  0  0  0  0  0  0  0  0  0
  2  1  1  1
  2  4  1  0
  3  2  1  0
  4  5  1  0
  5  6  1  6
  7  5  1  0
  8  7  2  0
  9 10  1  0
 10 11  2  0
 10 20  1  0
 11 12  1  0
 12 13  2  0
 13 14  1  0
 15 14  1  1
 15 16  1  0
 15 17  1  0
 16  7  1  0
 17 26  1  0
 18 17  2  0
 19 13  1  0
 20 19  2  0
 21 22  1  0
 23 25  1  0
 23 22  1  0
 23 24  1  6
 25 27  1  0
 25 26  1  6
 27 28  2  0
 27 29  1  0
M  END
$$$$
