LYI.pdb
     RDKit          3D

 29 29  0  0  1  0  0  0  0  0999 V2000
   25.6569  -14.6777  -14.9350 C   0  0  0  0  0  0  0  0  0  0  0  0
   25.8613  -14.4600  -16.4012 C   0  0  2  0  0  0  0  0  0  0  0  0
   27.2782  -14.1077  -16.7449 C   0  0  0  0  0  0  0  0  0  0  0  0
   24.8792  -13.4038  -16.8622 C   0  0  0  0  0  0  0  0  0  0  0  0
   23.4746  -13.9419  -16.5672 C   0  0  2  0  0  0  0  0  0  0  0  0
   23.3145  -15.1032  -17.4222 N   0  0  0  0  0  0  0  0  0  0  0  0
   22.4393  -12.9527  -16.8668 C   0  0  0  0  0  0  0  0  0  0  0  0
   22.1406  -12.7112  -18.0835 O   0  0  0  0  0  0  0  0  0  0  0  0
   17.1220  -15.8526  -18.6306 O   0  0  0  0  0  0  0  0  0  0  0  0
   17.6769  -14.7909  -17.9041 C   0  0  0  0  0  0  0  0  0  0  0  0
   18.2210  -15.0603  -16.6756 C   0  0  0  0  0  0  0  0  0  0  0  0
   18.7680  -14.0456  -15.9468 C   0  0  0  0  0  0  0  0  0  0  0  0
   18.7833  -12.7697  -16.4177 C   0  0  0  0  0  0  0  0  0  0  0  0
   19.3813  -11.6886  -15.6156 C   0  0  0  0  0  0  0  0  0  0  0  0
   20.7415  -11.2522  -16.0735 C   0  0  2  0  0  0  0  0  0  0  0  0
   21.7534  -12.2498  -15.8396 N   0  0  0  0  0  0  0  0  0  0  0  0
   21.1742   -9.9319  -15.6344 C   0  0  0  0  0  0  0  0  0  0  0  0
   21.7207   -9.8279  -14.4833 O   0  0  0  0  0  0  0  0  0  0  0  0
   18.2454  -12.4753  -17.6432 C   0  0  0  0  0  0  0  0  0  0  0  0
   17.6930  -13.5009  -18.3788 C   0  0  0  0  0  0  0  0  0  0  0  0
   21.3056   -4.9091  -18.4202 C   0  0  0  0  0  0  0  0  0  0  0  0
   21.2992   -6.3743  -18.0569 C   0  0  0  0  0  0  0  0  0  0  0  0
   22.2904   -6.6758  -16.9522 C   0  0  2  0  0  0  0  0  0  0  0  0
   23.3645   -7.5457  -17.5698 C   0  0  0  0  0  0  0  0  0  0  0  0
   21.6175   -7.4929  -15.8713 C   0  0  2  0  0  0  0  0  0  0  0  0
   21.0624   -8.7149  -16.3477 N   0  0  0  0  0  0  0  0  0  0  0  0
   20.6698   -6.6171  -15.1526 C   0  0  0  0  0  0  0  0  0  0  0  0
   19.4157   -6.8174  -15.1905 O   0  0  0  0  0  0  0  0  0  0  0  0
   21.1608   -5.5512  -14.4188 O   0  0  0  0  0  0  0  0  0  0  0  0
  2  1  1  1
  2  4  1  0
  3  2  1  0
  4  5  1  0
  5  6  1  6
  7  5  1  0
  8  7  2  0
  9 10  1  0
 10 11  2  0
 10 20  1  0
 11 12  1  0
 12 13  2  0
 13 14  1  0
 15 14  1  1
 15 16  1  0
 15 17  1  0
 16  7  1  0
 17 26  1  0
 18 17  2  0
 19 13  1  0
 20 19  2  0
 21 22  1  0
 23 25  1  0
 23 22  1  0
 23 24  1  6
 25 27  1  0
 25 26  1  6
 27 28  2  0
 27 29  1  0
M  END
$$$$
