LYI.pdb
     RDKit          3D

 29 29  0  0  1  0  0  0  0  0999 V2000
   19.0654  -22.9304  -16.3408 C   0  0  0  0  0  0  0  0  0  0  0  0
   18.8054  -21.4796  -16.5989 C   0  0  2  0  0  0  0  0  0  0  0  0
   18.5957  -21.1760  -18.0528 C   0  0  0  0  0  0  0  0  0  0  0  0
   19.9480  -20.6831  -16.0051 C   0  0  0  0  0  0  0  0  0  0  0  0
   19.9977  -21.0208  -14.5109 C   0  0  2  0  0  0  0  0  0  0  0  0
   18.8601  -20.3414  -13.9196 N   0  0  0  0  0  0  0  0  0  0  0  0
   21.2376  -20.5556  -13.8891 C   0  0  0  0  0  0  0  0  0  0  0  0
   21.4065  -19.3063  -13.6926 O   0  0  0  0  0  0  0  0  0  0  0  0
   28.0084  -20.0650   -8.4373 O   0  0  0  0  0  0  0  0  0  0  0  0
   26.9720  -20.5445   -9.2489 C   0  0  0  0  0  0  0  0  0  0  0  0
   25.6917  -20.1433   -8.9703 C   0  0  0  0  0  0  0  0  0  0  0  0
   24.6635  -20.5947   -9.7443 C   0  0  0  0  0  0  0  0  0  0  0  0
   24.8862  -21.4369  -10.7889 C   0  0  0  0  0  0  0  0  0  0  0  0
   23.7618  -21.9109  -11.6141 C   0  0  0  0  0  0  0  0  0  0  0  0
   23.4734  -21.0656  -12.8193 C   0  0  2  0  0  0  0  0  0  0  0  0
   22.2638  -21.4566  -13.4960 N   0  0  0  0  0  0  0  0  0  0  0  0
   24.5770  -20.8791  -13.7522 C   0  0  0  0  0  0  0  0  0  0  0  0
   24.9027  -21.8594  -14.5054 O   0  0  0  0  0  0  0  0  0  0  0  0
   26.1575  -21.8522  -11.0873 C   0  0  0  0  0  0  0  0  0  0  0  0
   27.1955  -21.3957  -10.3050 C   0  0  0  0  0  0  0  0  0  0  0  0
   28.3179  -16.8189  -16.5881 C   0  0  0  0  0  0  0  0  0  0  0  0
   28.0518  -18.2216  -16.0978 C   0  0  0  0  0  0  0  0  0  0  0  0
   26.9996  -18.2379  -15.0086 C   0  0  2  0  0  0  0  0  0  0  0  0
   27.7338  -18.0114  -13.7042 C   0  0  0  0  0  0  0  0  0  0  0  0
   26.3634  -19.6084  -14.9335 C   0  0  2  0  0  0  0  0  0  0  0  0
   25.3543  -19.7106  -13.9337 N   0  0  0  0  0  0  0  0  0  0  0  0
   27.4415  -20.6133  -14.8349 C   0  0  0  0  0  0  0  0  0  0  0  0
   27.9968  -21.1001  -15.8688 O   0  0  0  0  0  0  0  0  0  0  0  0
   27.8573  -21.0351  -13.5840 O   0  0  0  0  0  0  0  0  0  0  0  0
  2  1  1  6
  2  4  1  0
  3  2  1  0
  4  5  1  0
  5  6  1  1
  7  5  1  0
  8  7  2  0
  9 10  1  0
 10 11  2  0
 10 20  1  0
 11 12  1  0
 12 13  2  0
 13 14  1  0
 15 14  1  1
 15 16  1  0
 15 17  1  0
 16  7  1  0
 17 26  1  0
 18 17  2  0
 19 13  1  0
 20 19  2  0
 21 22  1  0
 23 25  1  0
 23 22  1  0
 23 24  1  1
 25 27  1  0
 25 26  1  1
 27 28  2  0
 27 29  1  0
M  END
$$$$
