LYI.pdb
     RDKit          3D

 29 29  0  0  1  0  0  0  0  0999 V2000
   28.9068  -19.8783  -15.0935 C   0  0  0  0  0  0  0  0  0  0  0  0
   28.0654  -18.6962  -15.4592 C   0  0  2  0  0  0  0  0  0  0  0  0
   28.8812  -17.5076  -15.8734 C   0  0  0  0  0  0  0  0  0  0  0  0
   27.1532  -18.3874  -14.2909 C   0  0  0  0  0  0  0  0  0  0  0  0
   26.4957  -19.7087  -13.8771 C   0  0  2  0  0  0  0  0  0  0  0  0
   25.4541  -19.9498  -14.8581 N   0  0  0  0  0  0  0  0  0  0  0  0
   25.9136  -19.6303  -12.5373 C   0  0  0  0  0  0  0  0  0  0  0  0
   25.1931  -18.6238  -12.2279 O   0  0  0  0  0  0  0  0  0  0  0  0
   19.7342  -19.3649  -12.4775 O   0  0  0  0  0  0  0  0  0  0  0  0
   20.8808  -19.8747  -11.8544 C   0  0  0  0  0  0  0  0  0  0  0  0
   21.6460  -20.7784  -12.5441 C   0  0  0  0  0  0  0  0  0  0  0  0
   22.7677  -21.2907  -11.9616 C   0  0  0  0  0  0  0  0  0  0  0  0
   23.1410  -20.9206  -10.7072 C   0  0  0  0  0  0  0  0  0  0  0  0
   24.3576  -21.4841  -10.0972 C   0  0  0  0  0  0  0  0  0  0  0  0
   25.5792  -20.6244  -10.2343 C   0  0  2  0  0  0  0  0  0  0  0  0
   26.1272  -20.6454  -11.5659 N   0  0  0  0  0  0  0  0  0  0  0  0
   26.6119  -20.8095   -9.2232 C   0  0  0  0  0  0  0  0  0  0  0  0
   27.3641  -21.8396   -9.3105 O   0  0  0  0  0  0  0  0  0  0  0  0
   22.3923  -20.0186   -9.9976 C   0  0  0  0  0  0  0  0  0  0  0  0
   21.2593  -19.5015  -10.5867 C   0  0  0  0  0  0  0  0  0  0  0  0
   30.1618  -18.7484   -4.6077 C   0  0  0  0  0  0  0  0  0  0  0  0
   29.3259  -19.8267   -5.2537 C   0  0  0  0  0  0  0  0  0  0  0  0
   28.5098  -19.2794   -6.4063 C   0  0  2  0  0  0  0  0  0  0  0  0
   27.5535  -18.2693   -5.8088 C   0  0  0  0  0  0  0  0  0  0  0  0
   27.6739  -20.3859   -7.0109 C   0  0  2  0  0  0  0  0  0  0  0  0
   26.8942  -19.9627   -8.1251 N   0  0  0  0  0  0  0  0  0  0  0  0
   26.9089  -21.0327   -5.9254 C   0  0  0  0  0  0  0  0  0  0  0  0
   25.6484  -20.9048   -5.8293 O   0  0  0  0  0  0  0  0  0  0  0  0
   27.5825  -21.7980   -4.9894 O   0  0  0  0  0  0  0  0  0  0  0  0
  2  1  1  1
  2  4  1  0
  3  2  1  0
  4  5  1  0
  5  6  1  6
  7  5  1  0
  8  7  2  0
  9 10  1  0
 10 11  2  0
 10 20  1  0
 11 12  1  0
 12 13  2  0
 13 14  1  0
 15 14  1  6
 15 16  1  0
 15 17  1  0
 16  7  1  0
 17 26  1  0
 18 17  2  0
 19 13  1  0
 20 19  2  0
 21 22  1  0
 23 25  1  0
 23 22  1  0
 23 24  1  1
 25 27  1  0
 25 26  1  6
 27 28  2  0
 27 29  1  0
M  END
$$$$
