LYI.pdb
     RDKit          3D

 29 29  0  0  1  0  0  0  0  0999 V2000
   21.9280  -29.4089   -9.8958 C   0  0  0  0  0  0  0  0  0  0  0  0
   20.8173  -30.0631  -10.6556 C   0  0  2  0  0  0  0  0  0  0  0  0
   21.2665  -30.6293  -11.9700 C   0  0  0  0  0  0  0  0  0  0  0  0
   19.6991  -29.0551  -10.8169 C   0  0  0  0  0  0  0  0  0  0  0  0
   19.3929  -28.5016   -9.4208 C   0  0  2  0  0  0  0  0  0  0  0  0
   18.6838  -29.5613   -8.7282 N   0  0  0  0  0  0  0  0  0  0  0  0
   18.5612  -27.2996   -9.4826 C   0  0  0  0  0  0  0  0  0  0  0  0
   17.2956  -27.4214   -9.5890 O   0  0  0  0  0  0  0  0  0  0  0  0
   16.0830  -25.2060   -3.4995 O   0  0  0  0  0  0  0  0  0  0  0  0
   16.6991  -24.8551   -4.7078 C   0  0  0  0  0  0  0  0  0  0  0  0
   17.9884  -25.2671   -4.9219 C   0  0  0  0  0  0  0  0  0  0  0  0
   18.6124  -24.9396   -6.0895 C   0  0  0  0  0  0  0  0  0  0  0  0
   17.9776  -24.2106   -7.0464 C   0  0  0  0  0  0  0  0  0  0  0  0
   18.6689  -23.8697   -8.3016 C   0  0  0  0  0  0  0  0  0  0  0  0
   18.3538  -24.7778   -9.4532 C   0  0  2  0  0  0  0  0  0  0  0  0
   19.1226  -25.9952   -9.4277 N   0  0  0  0  0  0  0  0  0  0  0  0
   18.3586  -24.1646  -10.7750 C   0  0  0  0  0  0  0  0  0  0  0  0
   19.4875  -23.8930  -11.3101 O   0  0  0  0  0  0  0  0  0  0  0  0
   16.6884  -23.7871   -6.8555 C   0  0  0  0  0  0  0  0  0  0  0  0
   16.0587  -24.1184   -5.6758 C   0  0  0  0  0  0  0  0  0  0  0  0
   16.1215  -24.0145  -16.3839 C   0  0  0  0  0  0  0  0  0  0  0  0
   16.7611  -23.2450  -15.2536 C   0  0  0  0  0  0  0  0  0  0  0  0
   16.5907  -23.9606  -13.9297 C   0  0  2  0  0  0  0  0  0  0  0  0
   15.1196  -23.8709  -13.5837 C   0  0  0  0  0  0  0  0  0  0  0  0
   17.3517  -23.2240  -12.8494 C   0  0  2  0  0  0  0  0  0  0  0  0
   17.2337  -23.8246  -11.5634 N   0  0  0  0  0  0  0  0  0  0  0  0
   16.9721  -21.7978  -12.9076 C   0  0  0  0  0  0  0  0  0  0  0  0
   17.2874  -21.0628  -13.8948 O   0  0  0  0  0  0  0  0  0  0  0  0
   16.2541  -21.2481  -11.8597 O   0  0  0  0  0  0  0  0  0  0  0  0
  2  1  1  6
  2  4  1  0
  3  2  1  0
  4  5  1  0
  5  6  1  1
  7  5  1  0
  8  7  2  0
  9 10  1  0
 10 11  2  0
 10 20  1  0
 11 12  1  0
 12 13  2  0
 13 14  1  0
 15 14  1  1
 15 16  1  0
 15 17  1  0
 16  7  1  0
 17 26  1  0
 18 17  2  0
 19 13  1  0
 20 19  2  0
 21 22  1  0
 23 25  1  0
 23 22  1  0
 23 24  1  1
 25 27  1  0
 25 26  1  1
 27 28  2  0
 27 29  1  0
M  END
$$$$
