LYI.pdb
     RDKit          3D

 29 29  0  0  1  0  0  0  0  0999 V2000
   25.2533  -16.9291  -18.3460 C   0  0  0  0  0  0  0  0  0  0  0  0
   24.4913  -18.0467  -18.9857 C   0  0  2  0  0  0  0  0  0  0  0  0
   23.5448  -17.5719  -20.0480 C   0  0  0  0  0  0  0  0  0  0  0  0
   23.7859  -18.8221  -17.8931 C   0  0  0  0  0  0  0  0  0  0  0  0
   24.8745  -19.3938  -16.9780 C   0  0  2  0  0  0  0  0  0  0  0  0
   25.6327  -20.3157  -17.8030 N   0  0  0  0  0  0  0  0  0  0  0  0
   24.3047  -20.1006  -15.8308 C   0  0  0  0  0  0  0  0  0  0  0  0
   24.0200  -21.3396  -15.9399 O   0  0  0  0  0  0  0  0  0  0  0  0
   21.7069  -21.7529   -7.5356 O   0  0  0  0  0  0  0  0  0  0  0  0
   22.2896  -21.1924   -8.6798 C   0  0  0  0  0  0  0  0  0  0  0  0
   21.5153  -20.3875   -9.4738 C   0  0  0  0  0  0  0  0  0  0  0  0
   22.0569  -19.8286  -10.5937 C   0  0  0  0  0  0  0  0  0  0  0  0
   23.3532  -20.0560  -10.9372 C   0  0  0  0  0  0  0  0  0  0  0  0
   23.9195  -19.4407  -12.1498 C   0  0  0  0  0  0  0  0  0  0  0  0
   23.4921  -20.0867  -13.4344 C   0  0  2  0  0  0  0  0  0  0  0  0
   24.0575  -19.4463  -14.5937 N   0  0  0  0  0  0  0  0  0  0  0  0
   22.0626  -20.3210  -13.5911 C   0  0  0  0  0  0  0  0  0  0  0  0
   21.3176  -19.3266  -13.8920 O   0  0  0  0  0  0  0  0  0  0  0  0
   24.1474  -20.8571  -10.1594 C   0  0  0  0  0  0  0  0  0  0  0  0
   23.5996  -21.4213   -9.0282 C   0  0  0  0  0  0  0  0  0  0  0  0
   19.3355  -22.9867  -17.0334 C   0  0  0  0  0  0  0  0  0  0  0  0
   19.8161  -22.0654  -15.9384 C   0  0  0  0  0  0  0  0  0  0  0  0
   19.4593  -22.6006  -14.5673 C   0  0  2  0  0  0  0  0  0  0  0  0
   17.9472  -22.6061  -14.4928 C   0  0  0  0  0  0  0  0  0  0  0  0
   19.9577  -21.6489  -13.5021 C   0  0  2  0  0  0  0  0  0  0  0  0
   21.3776  -21.5511  -13.4491 N   0  0  0  0  0  0  0  0  0  0  0  0
   19.3103  -22.0065  -12.2235 C   0  0  0  0  0  0  0  0  0  0  0  0
   18.1724  -21.5436  -11.8991 O   0  0  0  0  0  0  0  0  0  0  0  0
   19.9599  -22.8683  -11.3570 O   0  0  0  0  0  0  0  0  0  0  0  0
  2  1  1  1
  2  4  1  0
  3  2  1  0
  4  5  1  0
  5  6  1  6
  7  5  1  0
  8  7  2  0
  9 10  1  0
 10 11  2  0
 10 20  1  0
 11 12  1  0
 12 13  2  0
 13 14  1  0
 15 14  1  1
 15 16  1  0
 15 17  1  0
 16  7  1  0
 17 26  1  0
 18 17  2  0
 19 13  1  0
 20 19  2  0
 21 22  1  0
 23 25  1  0
 23 22  1  0
 23 24  1  6
 25 27  1  0
 25 26  1  1
 27 28  2  0
 27 29  1  0
M  END
$$$$
