LYI.pdb
     RDKit          3D

 29 29  0  0  1  0  0  0  0  0999 V2000
   18.8861  -13.3589  -20.7744 C   0  0  0  0  0  0  0  0  0  0  0  0
   17.6083  -13.5430  -20.0179 C   0  0  2  0  0  0  0  0  0  0  0  0
   16.3945  -13.4430  -20.8935 C   0  0  0  0  0  0  0  0  0  0  0  0
   17.5828  -12.5394  -18.8845 C   0  0  0  0  0  0  0  0  0  0  0  0
   18.8526  -12.7687  -18.0572 C   0  0  2  0  0  0  0  0  0  0  0  0
   18.6769  -14.0623  -17.4238 N   0  0  0  0  0  0  0  0  0  0  0  0
   19.0332  -11.7332  -17.0397 C   0  0  0  0  0  0  0  0  0  0  0  0
   18.2898  -11.7411  -16.0027 O   0  0  0  0  0  0  0  0  0  0  0  0
   22.4815   -4.9016  -12.6173 O   0  0  0  0  0  0  0  0  0  0  0  0
   22.2368   -6.0660  -13.3570 C   0  0  0  0  0  0  0  0  0  0  0  0
   22.5096   -6.0504  -14.6998 C   0  0  0  0  0  0  0  0  0  0  0  0
   22.2809   -7.1701  -15.4441 C   0  0  0  0  0  0  0  0  0  0  0  0
   21.7864   -8.3033  -14.8770 C   0  0  0  0  0  0  0  0  0  0  0  0
   21.5490   -9.5027  -15.6984 C   0  0  0  0  0  0  0  0  0  0  0  0
   20.1638   -9.6061  -16.2647 C   0  0  2  0  0  0  0  0  0  0  0  0
   20.0153  -10.7146  -17.1719 N   0  0  0  0  0  0  0  0  0  0  0  0
   19.6016   -8.3797  -16.8153 C   0  0  0  0  0  0  0  0  0  0  0  0
   19.9615   -8.0250  -17.9896 O   0  0  0  0  0  0  0  0  0  0  0  0
   21.5058   -8.3434  -13.5364 C   0  0  0  0  0  0  0  0  0  0  0  0
   21.7371   -7.2120  -12.7852 C   0  0  0  0  0  0  0  0  0  0  0  0
   14.5638   -6.7332  -17.4172 C   0  0  0  0  0  0  0  0  0  0  0  0
   16.0509   -6.9847  -17.4813 C   0  0  0  0  0  0  0  0  0  0  0  0
   16.8205   -5.9705  -16.6609 C   0  0  2  0  0  0  0  0  0  0  0  0
   16.5786   -4.6251  -17.3116 C   0  0  0  0  0  0  0  0  0  0  0  0
   18.3031   -6.2555  -16.7568 C   0  0  2  0  0  0  0  0  0  0  0  0
   18.6769   -7.5085  -16.1920 N   0  0  0  0  0  0  0  0  0  0  0  0
   19.0334   -5.0887  -16.2212 C   0  0  0  0  0  0  0  0  0  0  0  0
   19.2732   -4.0658  -16.9356 O   0  0  0  0  0  0  0  0  0  0  0  0
   19.4672   -5.1102  -14.9070 O   0  0  0  0  0  0  0  0  0  0  0  0
  2  1  1  6
  2  4  1  0
  3  2  1  0
  4  5  1  0
  5  6  1  1
  7  5  1  0
  8  7  2  0
  9 10  1  0
 10 11  2  0
 10 20  1  0
 11 12  1  0
 12 13  2  0
 13 14  1  0
 15 14  1  6
 15 16  1  0
 15 17  1  0
 16  7  1  0
 17 26  1  0
 18 17  2  0
 19 13  1  0
 20 19  2  0
 21 22  1  0
 23 25  1  0
 23 22  1  0
 23 24  1  6
 25 27  1  0
 25 26  1  1
 27 28  2  0
 27 29  1  0
M  END
$$$$
