KVD.pdb
     RDKit          3D

 25 24  0  0  1  0  0  0  0  0999 V2000
    8.0446  -14.5469   20.6489 N   0  0  0  0  0  0  0  0  0  0  0  0
    7.4910  -15.1529   21.8348 C   0  0  1  0  0  0  0  0  0  0  0  0
    7.6999  -16.6670   21.8182 C   0  0  0  0  0  0  0  0  0  0  0  0
    6.9786  -17.2698   20.6326 C   0  0  0  0  0  0  0  0  0  0  0  0
    7.0877  -18.7692   20.7373 C   0  0  0  0  0  0  0  0  0  0  0  0
    6.2773  -19.4497   19.6339 C   0  0  0  0  0  0  0  0  0  0  0  0
    6.5273  -20.8754   19.7042 N   0  0  0  0  0  0  0  0  0  0  0  0
    8.1235  -14.5624   23.0428 C   0  0  0  0  0  0  0  0  0  0  0  0
    9.3539  -14.2776   22.9790 O   0  0  0  0  0  0  0  0  0  0  0  0
    6.4100  -11.9041   25.4646 C   0  0  0  0  0  0  0  0  0  0  0  0
    6.9106  -13.0788   26.2386 C   0  0  2  0  0  0  0  0  0  0  0  0
    7.5893  -12.6871   27.5312 C   0  0  0  0  0  0  0  0  0  0  0  0
    7.9333  -13.8228   25.4042 C   0  0  2  0  0  0  0  0  0  0  0  0
    7.3525  -14.3383   24.2078 N   0  0  0  0  0  0  0  0  0  0  0  0
    8.5211  -14.9657   26.1678 C   0  0  0  0  0  0  0  0  0  0  0  0
    7.8454  -15.9534   26.5491 O   0  0  0  0  0  0  0  0  0  0  0  0
    9.9275  -14.9876   26.5105 N   0  0  0  0  0  0  0  0  0  0  0  0
   10.4728  -16.1146   27.2357 C   0  0  1  0  0  0  0  0  0  0  0  0
   11.9408  -16.2253   26.9159 C   0  0  0  0  0  0  0  0  0  0  0  0
   12.1241  -17.1657   25.7970 C   0  0  0  0  0  0  0  0  0  0  0  0
   11.1929  -17.7902   25.2372 O   0  0  0  0  0  0  0  0  0  0  0  0
   10.2988  -15.9715   28.6961 C   0  0  0  0  0  0  0  0  0  0  0  0
   10.2678  -14.8291   29.2046 O   0  0  0  0  0  0  0  0  0  0  0  0
   13.4007  -17.4351   25.2636 O   0  0  0  0  0  0  0  0  0  0  0  0
   10.1681  -17.0670   29.5274 O   0  0  0  0  0  0  0  0  0  0  0  0
  2  1  1  6
  3  4  1  0
  3  2  1  0
  5  6  1  0
  5  4  1  0
  6  7  1  0
  8  9  2  0
  8  2  1  0
 11 10  1  6
 11 13  1  0
 11 12  1  0
 13 14  1  6
 14  8  1  0
 15 13  1  0
 16 15  2  0
 17 15  1  0
 18 22  1  0
 18 17  1  0
 18 19  1  1
 20 21  2  0
 20 19  1  0
 22 25  1  0
 23 22  2  0
 24 20  1  0
M  END
$$$$
