KVD.pdb
     RDKit          3D

 25 24  0  0  1  0  0  0  0  0999 V2000
    8.0513  -14.7954   20.6111 N   0  0  0  0  0  0  0  0  0  0  0  0
    7.2120  -15.1452   21.7306 C   0  0  1  0  0  0  0  0  0  0  0  0
    6.9586  -16.6522   21.7684 C   0  0  0  0  0  0  0  0  0  0  0  0
    6.3504  -17.1015   20.4577 C   0  0  0  0  0  0  0  0  0  0  0  0
    6.1287  -18.5900   20.5360 C   0  0  0  0  0  0  0  0  0  0  0  0
    5.3746  -19.0909   19.3041 C   0  0  0  0  0  0  0  0  0  0  0  0
    5.1415  -20.5122   19.4646 N   0  0  0  0  0  0  0  0  0  0  0  0
    7.8522  -14.7024   22.9962 C   0  0  0  0  0  0  0  0  0  0  0  0
    9.1023  -14.8591   23.1056 O   0  0  0  0  0  0  0  0  0  0  0  0
    6.6362  -11.5028   25.0919 C   0  0  0  0  0  0  0  0  0  0  0  0
    6.7719  -12.7031   25.9696 C   0  0  2  0  0  0  0  0  0  0  0  0
    7.4308  -12.3931   27.2943 C   0  0  0  0  0  0  0  0  0  0  0  0
    7.6358  -13.7331   25.2706 C   0  0  2  0  0  0  0  0  0  0  0  0
    7.0668  -14.1294   24.0243 N   0  0  0  0  0  0  0  0  0  0  0  0
    7.8059  -14.9545   26.1156 C   0  0  0  0  0  0  0  0  0  0  0  0
    7.0674  -15.9653   26.0135 O   0  0  0  0  0  0  0  0  0  0  0  0
    8.8528  -15.0306   27.1127 N   0  0  0  0  0  0  0  0  0  0  0  0
    9.5141  -16.2924   27.3651 C   0  0  1  0  0  0  0  0  0  0  0  0
   10.2182  -16.7248   26.1053 C   0  0  0  0  0  0  0  0  0  0  0  0
   10.9743  -17.9606   26.3718 C   0  0  0  0  0  0  0  0  0  0  0  0
   10.5944  -18.8701   27.1457 O   0  0  0  0  0  0  0  0  0  0  0  0
   10.4952  -16.1944   28.4657 C   0  0  0  0  0  0  0  0  0  0  0  0
   11.0475  -15.0976   28.7039 O   0  0  0  0  0  0  0  0  0  0  0  0
   12.2162  -18.2111   25.7541 O   0  0  0  0  0  0  0  0  0  0  0  0
   10.8267  -17.2833   29.2485 O   0  0  0  0  0  0  0  0  0  0  0  0
  2  1  1  6
  3  4  1  0
  3  2  1  0
  5  6  1  0
  5  4  1  0
  6  7  1  0
  8  9  2  0
  8  2  1  0
 11 10  1  6
 11 13  1  0
 11 12  1  0
 13 14  1  6
 14  8  1  0
 15 13  1  0
 16 15  2  0
 17 15  1  0
 18 22  1  0
 18 17  1  0
 18 19  1  6
 20 21  2  0
 20 19  1  0
 22 25  1  0
 23 22  2  0
 24 20  1  0
M  END
$$$$
