KVD.pdb
     RDKit          3D

 25 24  0  0  1  0  0  0  0  0999 V2000
    8.3740  -14.2219   16.2413 N   0  0  0  0  0  0  0  0  0  0  0  0
    7.8784  -15.0889   17.2819 C   0  0  1  0  0  0  0  0  0  0  0  0
    8.0203  -16.5564   16.8784 C   0  0  0  0  0  0  0  0  0  0  0  0
    6.9093  -16.9338   15.9231 C   0  0  0  0  0  0  0  0  0  0  0  0
    7.1210  -18.3675   15.5096 C   0  0  0  0  0  0  0  0  0  0  0  0
    6.0625  -18.8006   14.4952 C   0  0  0  0  0  0  0  0  0  0  0  0
    5.5953  -20.1213   14.8664 N   0  0  0  0  0  0  0  0  0  0  0  0
    8.6180  -14.8317   18.5447 C   0  0  0  0  0  0  0  0  0  0  0  0
    9.8506  -14.5635   18.4566 O   0  0  0  0  0  0  0  0  0  0  0  0
    7.2366  -12.4326   21.2375 C   0  0  0  0  0  0  0  0  0  0  0  0
    7.5960  -13.7265   21.8904 C   0  0  2  0  0  0  0  0  0  0  0  0
    8.2714  -13.5428   23.2302 C   0  0  0  0  0  0  0  0  0  0  0  0
    8.5648  -14.4784   21.0006 C   0  0  2  0  0  0  0  0  0  0  0  0
    7.9416  -14.8916   19.7860 N   0  0  0  0  0  0  0  0  0  0  0  0
    9.0952  -15.6941   21.6903 C   0  0  0  0  0  0  0  0  0  0  0  0
    8.3992  -16.7174   21.9047 O   0  0  0  0  0  0  0  0  0  0  0  0
   10.4658  -15.7495   22.1531 N   0  0  0  0  0  0  0  0  0  0  0  0
   10.9527  -16.9397   22.8160 C   0  0  1  0  0  0  0  0  0  0  0  0
   12.4508  -16.9931   22.6657 C   0  0  0  0  0  0  0  0  0  0  0  0
   12.9499  -18.2603   23.2268 C   0  0  0  0  0  0  0  0  0  0  0  0
   12.2235  -19.1392   23.7468 O   0  0  0  0  0  0  0  0  0  0  0  0
   10.6034  -16.9576   24.2517 C   0  0  0  0  0  0  0  0  0  0  0  0
   10.3500  -18.0472   24.8113 O   0  0  0  0  0  0  0  0  0  0  0  0
   14.3227  -18.5798   23.2163 O   0  0  0  0  0  0  0  0  0  0  0  0
   10.5464  -15.8008   25.0046 O   0  0  0  0  0  0  0  0  0  0  0  0
  2  1  1  6
  3  4  1  0
  3  2  1  0
  5  6  1  0
  5  4  1  0
  6  7  1  0
  8  9  2  0
  8  2  1  0
 11 10  1  6
 11 13  1  0
 11 12  1  0
 13 14  1  6
 14  8  1  0
 15 13  1  0
 16 15  2  0
 17 15  1  0
 18 22  1  0
 18 17  1  0
 18 19  1  1
 20 21  2  0
 20 19  1  0
 22 25  1  0
 23 22  2  0
 24 20  1  0
M  END
$$$$
