KVD.pdb
     RDKit          3D

 25 24  0  0  1  0  0  0  0  0999 V2000
    8.3947  -17.6872   16.4830 N   0  0  0  0  0  0  0  0  0  0  0  0
    7.6312  -17.5212   17.6953 C   0  0  1  0  0  0  0  0  0  0  0  0
    7.2973  -18.8777   18.3158 C   0  0  0  0  0  0  0  0  0  0  0  0
    6.1446  -19.5120   17.5686 C   0  0  0  0  0  0  0  0  0  0  0  0
    6.5756  -20.8894   17.1350 C   0  0  0  0  0  0  0  0  0  0  0  0
    5.4459  -21.6013   16.3906 C   0  0  0  0  0  0  0  0  0  0  0  0
    5.9642  -22.8515   15.8726 N   0  0  0  0  0  0  0  0  0  0  0  0
    8.3966  -16.6913   18.6613 C   0  0  0  0  0  0  0  0  0  0  0  0
    9.6584  -16.7670   18.6266 O   0  0  0  0  0  0  0  0  0  0  0  0
    7.1433  -13.0112   19.8070 C   0  0  0  0  0  0  0  0  0  0  0  0
    7.5233  -13.8723   20.9662 C   0  0  2  0  0  0  0  0  0  0  0  0
    8.2976  -13.1241   22.0273 C   0  0  0  0  0  0  0  0  0  0  0  0
    8.4099  -14.9993   20.4769 C   0  0  2  0  0  0  0  0  0  0  0  0
    7.7117  -15.8560   19.5752 N   0  0  0  0  0  0  0  0  0  0  0  0
    8.9055  -15.8276   21.6185 C   0  0  0  0  0  0  0  0  0  0  0  0
    8.1856  -16.6610   22.2223 O   0  0  0  0  0  0  0  0  0  0  0  0
   10.2684  -15.7048   22.0912 N   0  0  0  0  0  0  0  0  0  0  0  0
   10.6943  -16.4488   23.2567 C   0  0  1  0  0  0  0  0  0  0  0  0
   12.1957  -16.3705   23.3528 C   0  0  0  0  0  0  0  0  0  0  0  0
   12.7918  -17.0052   22.1647 C   0  0  0  0  0  0  0  0  0  0  0  0
   13.7562  -16.5332   21.5185 O   0  0  0  0  0  0  0  0  0  0  0  0
   10.0955  -15.9222   24.5007 C   0  0  0  0  0  0  0  0  0  0  0  0
   10.2215  -16.5652   25.5662 O   0  0  0  0  0  0  0  0  0  0  0  0
   12.3014  -18.2258   21.6583 O   0  0  0  0  0  0  0  0  0  0  0  0
    9.3942  -14.7324   24.5276 O   0  0  0  0  0  0  0  0  0  0  0  0
  2  1  1  6
  3  4  1  0
  3  2  1  0
  5  6  1  0
  5  4  1  0
  6  7  1  0
  8  9  2  0
  8  2  1  0
 11 10  1  6
 11 13  1  0
 11 12  1  0
 13 14  1  6
 14  8  1  0
 15 13  1  0
 16 15  2  0
 17 15  1  0
 18 22  1  0
 18 17  1  0
 18 19  1  1
 20 21  2  0
 20 19  1  0
 22 25  1  0
 23 22  2  0
 24 20  1  0
M  END
$$$$
