KVD.pdb
     RDKit          3D

 25 24  0  0  1  0  0  0  0  0999 V2000
    9.5948  -16.8714   18.4742 N   0  0  0  0  0  0  0  0  0  0  0  0
    8.6754  -17.1084   19.5598 C   0  0  1  0  0  0  0  0  0  0  0  0
    8.5342  -18.6056   19.8338 C   0  0  0  0  0  0  0  0  0  0  0  0
    7.9914  -19.3014   18.6047 C   0  0  0  0  0  0  0  0  0  0  0  0
    6.7308  -20.0259   19.0012 C   0  0  0  0  0  0  0  0  0  0  0  0
    6.1373  -20.7735   17.8070 C   0  0  0  0  0  0  0  0  0  0  0  0
    4.9824  -21.5172   18.2688 N   0  0  0  0  0  0  0  0  0  0  0  0
    9.1489  -16.4074   20.7813 C   0  0  0  0  0  0  0  0  0  0  0  0
   10.3966  -16.3604   20.9825 O   0  0  0  0  0  0  0  0  0  0  0  0
    7.6209  -13.0436   22.3683 C   0  0  0  0  0  0  0  0  0  0  0  0
    7.6279  -14.1688   23.3498 C   0  0  2  0  0  0  0  0  0  0  0  0
    8.0396  -13.7368   24.7387 C   0  0  0  0  0  0  0  0  0  0  0  0
    8.6223  -15.2174   22.8946 C   0  0  2  0  0  0  0  0  0  0  0  0
    8.2150  -15.8229   21.6691 N   0  0  0  0  0  0  0  0  0  0  0  0
    8.7743  -16.2949   23.9197 C   0  0  0  0  0  0  0  0  0  0  0  0
    7.8706  -17.1290   24.1747 O   0  0  0  0  0  0  0  0  0  0  0  0
    9.9973  -16.4298   24.6827 N   0  0  0  0  0  0  0  0  0  0  0  0
   10.2437  -17.6397   25.4368 C   0  0  1  0  0  0  0  0  0  0  0  0
   11.4637  -18.3177   24.8696 C   0  0  0  0  0  0  0  0  0  0  0  0
   11.7581  -19.5263   25.6586 C   0  0  0  0  0  0  0  0  0  0  0  0
   11.0887  -19.9067   26.6474 O   0  0  0  0  0  0  0  0  0  0  0  0
   10.4590  -17.3647   26.8726 C   0  0  0  0  0  0  0  0  0  0  0  0
   10.5858  -18.3191   27.6712 O   0  0  0  0  0  0  0  0  0  0  0  0
   12.8479  -20.3631   25.3442 O   0  0  0  0  0  0  0  0  0  0  0  0
   10.5256  -16.0770   27.3682 O   0  0  0  0  0  0  0  0  0  0  0  0
  2  1  1  6
  3  4  1  0
  3  2  1  0
  5  6  1  0
  5  4  1  0
  6  7  1  0
  8  9  2  0
  8  2  1  0
 11 10  1  6
 11 13  1  0
 11 12  1  0
 13 14  1  6
 14  8  1  0
 15 13  1  0
 16 15  2  0
 17 15  1  0
 18 22  1  0
 18 17  1  0
 18 19  1  6
 20 21  2  0
 20 19  1  0
 22 25  1  0
 23 22  2  0
 24 20  1  0
M  END
$$$$
