KVD.pdb
     RDKit          3D

 25 24  0  0  1  0  0  0  0  0999 V2000
    7.6270  -13.6839   20.2011 N   0  0  0  0  0  0  0  0  0  0  0  0
    7.3315  -14.5575   21.3099 C   0  0  1  0  0  0  0  0  0  0  0  0
    7.6248  -16.0130   20.9466 C   0  0  0  0  0  0  0  0  0  0  0  0
    6.3630  -16.6782   20.4416 C   0  0  0  0  0  0  0  0  0  0  0  0
    6.7122  -18.0874   20.0374 C   0  0  0  0  0  0  0  0  0  0  0  0
    5.4685  -18.8383   19.5614 C   0  0  0  0  0  0  0  0  0  0  0  0
    5.8937  -20.1036   18.9970 N   0  0  0  0  0  0  0  0  0  0  0  0
    8.1329  -14.1546   22.4945 C   0  0  0  0  0  0  0  0  0  0  0  0
    9.3689  -13.9495   22.3224 O   0  0  0  0  0  0  0  0  0  0  0  0
    8.3315  -12.3040   26.9611 C   0  0  0  0  0  0  0  0  0  0  0  0
    7.4844  -12.6865   25.7924 C   0  0  2  0  0  0  0  0  0  0  0  0
    6.1941  -13.3627   26.1959 C   0  0  0  0  0  0  0  0  0  0  0  0
    8.2497  -13.6649   24.9247 C   0  0  2  0  0  0  0  0  0  0  0  0
    7.5091  -14.0133   23.7565 N   0  0  0  0  0  0  0  0  0  0  0  0
    8.5574  -14.9212   25.6742 C   0  0  0  0  0  0  0  0  0  0  0  0
    7.6684  -15.7035   26.0925 O   0  0  0  0  0  0  0  0  0  0  0  0
    9.9247  -15.3027   25.9588 N   0  0  0  0  0  0  0  0  0  0  0  0
   10.1951  -16.5469   26.6460 C   0  0  1  0  0  0  0  0  0  0  0  0
   11.6142  -16.9583   26.3514 C   0  0  0  0  0  0  0  0  0  0  0  0
   11.8648  -16.8349   24.9050 C   0  0  0  0  0  0  0  0  0  0  0  0
   11.2602  -17.4889   24.0234 O   0  0  0  0  0  0  0  0  0  0  0  0
   10.0137  -16.4247   28.1073 C   0  0  0  0  0  0  0  0  0  0  0  0
    9.8280  -15.2959   28.6135 O   0  0  0  0  0  0  0  0  0  0  0  0
   12.8330  -15.9442   24.3993 O   0  0  0  0  0  0  0  0  0  0  0  0
   10.0424  -17.5250   28.9420 O   0  0  0  0  0  0  0  0  0  0  0  0
  2  1  1  6
  3  4  1  0
  3  2  1  0
  5  6  1  0
  5  4  1  0
  6  7  1  0
  8  9  2  0
  8  2  1  0
 11 10  1  1
 11 13  1  0
 11 12  1  0
 13 14  1  6
 14  8  1  0
 15 13  1  0
 16 15  2  0
 17 15  1  0
 18 22  1  0
 18 17  1  0
 18 19  1  1
 20 21  2  0
 20 19  1  0
 22 25  1  0
 23 22  2  0
 24 20  1  0
M  END
$$$$
