KVD.pdb
     RDKit          3D

 25 24  0  0  1  0  0  0  0  0999 V2000
    8.1768  -17.4985   16.2401 N   0  0  0  0  0  0  0  0  0  0  0  0
    7.7047  -17.7023   17.5876 C   0  0  1  0  0  0  0  0  0  0  0  0
    7.8853  -19.1601   18.0107 C   0  0  0  0  0  0  0  0  0  0  0  0
    6.8475  -20.0233   17.3270 C   0  0  0  0  0  0  0  0  0  0  0  0
    7.5094  -20.7042   16.1568 C   0  0  0  0  0  0  0  0  0  0  0  0
    6.5674  -21.7272   15.5217 C   0  0  0  0  0  0  0  0  0  0  0  0
    7.2092  -22.2556   14.3347 N   0  0  0  0  0  0  0  0  0  0  0  0
    8.4378  -16.8052   18.5179 C   0  0  0  0  0  0  0  0  0  0  0  0
    9.6795  -16.6559   18.3301 O   0  0  0  0  0  0  0  0  0  0  0  0
    6.6346  -13.5297   20.0952 C   0  0  0  0  0  0  0  0  0  0  0  0
    7.3832  -14.3193   21.1177 C   0  0  2  0  0  0  0  0  0  0  0  0
    8.1527  -13.4503   22.0860 C   0  0  0  0  0  0  0  0  0  0  0  0
    8.3904  -15.2085   20.4174 C   0  0  2  0  0  0  0  0  0  0  0  0
    7.7458  -16.1547   19.5667 N   0  0  0  0  0  0  0  0  0  0  0  0
    9.2224  -15.9606   21.4059 C   0  0  0  0  0  0  0  0  0  0  0  0
    8.8392  -17.0235   21.9544 O   0  0  0  0  0  0  0  0  0  0  0  0
   10.5373  -15.4881   21.7851 N   0  0  0  0  0  0  0  0  0  0  0  0
   11.3732  -16.3008   22.6418 C   0  0  1  0  0  0  0  0  0  0  0  0
   12.8158  -15.9887   22.3396 C   0  0  0  0  0  0  0  0  0  0  0  0
   13.6806  -16.7800   23.2316 C   0  0  0  0  0  0  0  0  0  0  0  0
   13.7411  -18.0317   23.2318 O   0  0  0  0  0  0  0  0  0  0  0  0
   11.1078  -16.0521   24.0740 C   0  0  0  0  0  0  0  0  0  0  0  0
   11.6748  -16.7571   24.9379 O   0  0  0  0  0  0  0  0  0  0  0  0
   14.5257  -16.1623   24.1755 O   0  0  0  0  0  0  0  0  0  0  0  0
   10.2464  -15.0580   24.4959 O   0  0  0  0  0  0  0  0  0  0  0  0
  2  1  1  6
  3  4  1  0
  3  2  1  0
  5  6  1  0
  5  4  1  0
  6  7  1  0
  8  9  2  0
  8  2  1  0
 11 10  1  6
 11 13  1  0
 11 12  1  0
 13 14  1  6
 14  8  1  0
 15 13  1  0
 16 15  2  0
 17 15  1  0
 18 22  1  0
 18 17  1  0
 18 19  1  1
 20 21  2  0
 20 19  1  0
 22 25  1  0
 23 22  2  0
 24 20  1  0
M  END
$$$$
