KVD.pdb
     RDKit          3D

 25 24  0  0  1  0  0  0  0  0999 V2000
    7.0099  -17.7878   17.6466 N   0  0  0  0  0  0  0  0  0  0  0  0
    8.4519  -17.7608   17.6620 C   0  0  1  0  0  0  0  0  0  0  0  0
    9.0044  -17.4992   16.2610 C   0  0  0  0  0  0  0  0  0  0  0  0
    8.5888  -18.6176   15.3304 C   0  0  0  0  0  0  0  0  0  0  0  0
    9.6513  -19.6849   15.3854 C   0  0  0  0  0  0  0  0  0  0  0  0
    9.4045  -20.7505   14.3173 C   0  0  0  0  0  0  0  0  0  0  0  0
   10.3885  -21.8000   14.4910 N   0  0  0  0  0  0  0  0  0  0  0  0
    8.9247  -16.7121   18.6024 C   0  0  0  0  0  0  0  0  0  0  0  0
   10.1716  -16.5163   18.6817 O   0  0  0  0  0  0  0  0  0  0  0  0
    7.3252  -13.2065   19.3887 C   0  0  0  0  0  0  0  0  0  0  0  0
    7.4326  -13.9903   20.6550 C   0  0  2  0  0  0  0  0  0  0  0  0
    7.9536  -13.1705   21.8132 C   0  0  0  0  0  0  0  0  0  0  0  0
    8.4010  -15.1370   20.4475 C   0  0  2  0  0  0  0  0  0  0  0  0
    7.9910  -15.9750   19.3685 N   0  0  0  0  0  0  0  0  0  0  0  0
    8.5082  -15.9793   21.6779 C   0  0  0  0  0  0  0  0  0  0  0  0
    7.8362  -17.0261   21.8512 O   0  0  0  0  0  0  0  0  0  0  0  0
    9.4117  -15.6195   22.7504 N   0  0  0  0  0  0  0  0  0  0  0  0
   10.2390  -16.6354   23.3641 C   0  0  1  0  0  0  0  0  0  0  0  0
   11.1068  -17.2542   22.2994 C   0  0  0  0  0  0  0  0  0  0  0  0
   11.9383  -18.3093   22.9038 C   0  0  0  0  0  0  0  0  0  0  0  0
   12.4763  -19.2416   22.2620 O   0  0  0  0  0  0  0  0  0  0  0  0
   11.0952  -16.0823   24.4339 C   0  0  0  0  0  0  0  0  0  0  0  0
   11.5591  -14.9265   24.3170 O   0  0  0  0  0  0  0  0  0  0  0  0
   12.1930  -18.3421   24.2897 O   0  0  0  0  0  0  0  0  0  0  0  0
   11.4040  -16.8050   25.5700 O   0  0  0  0  0  0  0  0  0  0  0  0
  2  1  1  6
  3  4  1  0
  3  2  1  0
  5  6  1  0
  5  4  1  0
  6  7  1  0
  8  9  2  0
  8  2  1  0
 11 10  1  6
 11 13  1  0
 11 12  1  0
 13 14  1  6
 14  8  1  0
 15 13  1  0
 16 15  2  0
 17 15  1  0
 18 22  1  0
 18 17  1  0
 18 19  1  6
 20 21  2  0
 20 19  1  0
 22 25  1  0
 23 22  2  0
 24 20  1  0
M  END
$$$$
