KVD.pdb
     RDKit          3D

 25 24  0  0  1  0  0  0  0  0999 V2000
    8.2533  -17.6785   16.4934 N   0  0  0  0  0  0  0  0  0  0  0  0
    7.4141  -17.2303   17.5774 C   0  0  1  0  0  0  0  0  0  0  0  0
    6.7953  -18.4197   18.3115 C   0  0  0  0  0  0  0  0  0  0  0  0
    7.1377  -19.7027   17.5862 C   0  0  0  0  0  0  0  0  0  0  0  0
    6.2557  -20.7946   18.1349 C   0  0  0  0  0  0  0  0  0  0  0  0
    6.6491  -22.1525   17.5530 C   0  0  0  0  0  0  0  0  0  0  0  0
    7.8119  -22.6321   18.2728 N   0  0  0  0  0  0  0  0  0  0  0  0
    8.2111  -16.4049   18.5215 C   0  0  0  0  0  0  0  0  0  0  0  0
    9.4711  -16.4791   18.4436 O   0  0  0  0  0  0  0  0  0  0  0  0
    7.1478  -12.6985   19.9604 C   0  0  0  0  0  0  0  0  0  0  0  0
    7.4324  -13.7128   21.0186 C   0  0  2  0  0  0  0  0  0  0  0  0
    8.1939  -13.1416   22.1929 C   0  0  0  0  0  0  0  0  0  0  0  0
    8.2836  -14.8188   20.4290 C   0  0  2  0  0  0  0  0  0  0  0  0
    7.5568  -15.5753   19.4626 N   0  0  0  0  0  0  0  0  0  0  0  0
    8.7602  -15.7553   21.4925 C   0  0  0  0  0  0  0  0  0  0  0  0
    8.0244  -16.6290   22.0146 O   0  0  0  0  0  0  0  0  0  0  0  0
   10.1220  -15.6971   21.9805 N   0  0  0  0  0  0  0  0  0  0  0  0
   10.5955  -16.6998   22.9098 C   0  0  1  0  0  0  0  0  0  0  0  0
   12.0509  -16.9666   22.6263 C   0  0  0  0  0  0  0  0  0  0  0  0
   12.5551  -17.9694   23.5803 C   0  0  0  0  0  0  0  0  0  0  0  0
   12.1218  -19.1419   23.6702 O   0  0  0  0  0  0  0  0  0  0  0  0
   10.4406  -16.2710   24.3154 C   0  0  0  0  0  0  0  0  0  0  0  0
   10.7574  -17.0545   25.2377 O   0  0  0  0  0  0  0  0  0  0  0  0
   13.5925  -17.6677   24.4855 O   0  0  0  0  0  0  0  0  0  0  0  0
    9.9533  -15.0223   24.6492 O   0  0  0  0  0  0  0  0  0  0  0  0
  2  1  1  6
  3  4  1  0
  3  2  1  0
  5  6  1  0
  5  4  1  0
  6  7  1  0
  8  9  2  0
  8  2  1  0
 11 10  1  6
 11 13  1  0
 11 12  1  0
 13 14  1  6
 14  8  1  0
 15 13  1  0
 16 15  2  0
 17 15  1  0
 18 22  1  0
 18 17  1  0
 18 19  1  6
 20 21  2  0
 20 19  1  0
 22 25  1  0
 23 22  2  0
 24 20  1  0
M  END
$$$$
