KVD.pdb
     RDKit          3D

 25 24  0  0  1  0  0  0  0  0999 V2000
    9.4804  -17.2040   16.2930 N   0  0  0  0  0  0  0  0  0  0  0  0
    8.4838  -17.3038   17.3308 C   0  0  1  0  0  0  0  0  0  0  0  0
    8.2569  -18.7628   17.7262 C   0  0  0  0  0  0  0  0  0  0  0  0
    7.9976  -19.5936   16.4885 C   0  0  0  0  0  0  0  0  0  0  0  0
    7.7293  -21.0096   16.9289 C   0  0  0  0  0  0  0  0  0  0  0  0
    7.3882  -21.8945   15.7298 C   0  0  0  0  0  0  0  0  0  0  0  0
    7.1339  -23.2356   16.2164 N   0  0  0  0  0  0  0  0  0  0  0  0
    8.9104  -16.5134   18.5145 C   0  0  0  0  0  0  0  0  0  0  0  0
   10.1512  -16.4206   18.7399 O   0  0  0  0  0  0  0  0  0  0  0  0
    7.2018  -13.0806   19.4786 C   0  0  0  0  0  0  0  0  0  0  0  0
    7.2674  -13.9780   20.6701 C   0  0  2  0  0  0  0  0  0  0  0  0
    7.6619  -13.2504   21.9350 C   0  0  0  0  0  0  0  0  0  0  0  0
    8.3107  -15.0495   20.4268 C   0  0  2  0  0  0  0  0  0  0  0  0
    7.9412  -15.8981   19.3416 N   0  0  0  0  0  0  0  0  0  0  0  0
    8.5005  -15.9005   21.6412 C   0  0  0  0  0  0  0  0  0  0  0  0
    7.7597  -16.8771   21.9148 O   0  0  0  0  0  0  0  0  0  0  0  0
    9.5707  -15.6325   22.5786 N   0  0  0  0  0  0  0  0  0  0  0  0
   10.2441  -16.7327   23.2339 C   0  0  1  0  0  0  0  0  0  0  0  0
   10.8286  -17.6341   22.1777 C   0  0  0  0  0  0  0  0  0  0  0  0
   11.5611  -18.7335   22.8294 C   0  0  0  0  0  0  0  0  0  0  0  0
   11.1884  -19.3086   23.8786 O   0  0  0  0  0  0  0  0  0  0  0  0
   11.3211  -16.2681   24.1325 C   0  0  0  0  0  0  0  0  0  0  0  0
   11.8198  -17.0628   24.9599 O   0  0  0  0  0  0  0  0  0  0  0  0
   12.7697  -19.2285   22.2993 O   0  0  0  0  0  0  0  0  0  0  0  0
   11.8011  -14.9735   24.0900 O   0  0  0  0  0  0  0  0  0  0  0  0
  2  1  1  6
  3  4  1  0
  3  2  1  0
  5  6  1  0
  5  4  1  0
  6  7  1  0
  8  9  2  0
  8  2  1  0
 11 10  1  6
 11 13  1  0
 11 12  1  0
 13 14  1  6
 14  8  1  0
 15 13  1  0
 16 15  2  0
 17 15  1  0
 18 22  1  0
 18 17  1  0
 18 19  1  6
 20 21  2  0
 20 19  1  0
 22 25  1  0
 23 22  2  0
 24 20  1  0
M  END
$$$$
