QTT.pdb
     RDKit          3D

 24 23  0  0  1  0  0  0  0  0999 V2000
   16.1942   -9.8853  -18.2792 N   0  0  0  0  0  0  0  0  0  0  0  0
   16.0697  -11.1676  -17.7041 C   0  0  0  0  0  0  0  0  0  0  0  0
   14.9385  -11.6604  -17.5425 O   0  0  0  0  0  0  0  0  0  0  0  0
   17.2714  -11.9119  -17.3005 C   0  0  0  0  0  0  0  0  0  0  0  0
   18.4907  -11.0893  -17.6234 C   0  0  0  0  0  0  0  0  0  0  0  0
   19.7640  -11.7683  -17.1447 C   0  0  2  0  0  0  0  0  0  0  0  0
   19.3814  -13.0685  -16.6274 N   0  0  0  0  0  0  0  0  0  0  0  0
   20.3180  -10.9164  -16.0411 C   0  0  0  0  0  0  0  0  0  0  0  0
   19.8883  -11.0046  -14.8588 O   0  0  0  0  0  0  0  0  0  0  0  0
   23.4513  -11.0363  -14.5971 C   0  0  0  0  0  0  0  0  0  0  0  0
   23.3629   -9.6153  -15.0466 C   0  0  1  0  0  0  0  0  0  0  0  0
   24.0911   -9.4459  -16.2145 O   0  0  0  0  0  0  0  0  0  0  0  0
   21.9072   -9.1704  -15.2247 C   0  0  2  0  0  0  0  0  0  0  0  0
   21.3513   -9.9706  -16.2734 N   0  0  0  0  0  0  0  0  0  0  0  0
   21.8313   -7.7170  -15.5017 C   0  0  0  0  0  0  0  0  0  0  0  0
   22.1085   -7.2413  -16.6319 O   0  0  0  0  0  0  0  0  0  0  0  0
   19.3718   -5.4001  -16.1436 C   0  0  0  0  0  0  0  0  0  0  0  0
   19.9868   -4.8180  -14.8880 C   0  0  1  0  0  0  0  0  0  0  0  0
   19.2870   -5.1404  -13.7463 O   0  0  0  0  0  0  0  0  0  0  0  0
   21.4035   -5.3344  -14.7749 C   0  0  2  0  0  0  0  0  0  0  0  0
   21.4389   -6.7591  -14.5070 N   0  0  0  0  0  0  0  0  0  0  0  0
   22.1703   -4.5760  -13.7404 C   0  0  0  0  0  0  0  0  0  0  0  0
   22.5666   -3.2605  -13.9307 O   0  0  0  0  0  0  0  0  0  0  0  0
   22.4745   -5.1313  -12.6580 O   0  0  0  0  0  0  0  0  0  0  0  0
  2  1  1  0
  2  3  2  0
  4  2  1  0
  5  4  1  0
  6  8  1  0
  6  5  1  0
  6  7  1  1
  8 14  1  0
  9  8  2  0
 11 10  1  6
 11 12  1  0
 13 11  1  0
 13 14  1  6
 15 21  1  0
 15 13  1  0
 16 15  2  0
 18 20  1  0
 18 17  1  6
 19 18  1  0
 20 21  1  1
 20 22  1  0
 22 23  1  0
 24 22  2  0
M  END
$$$$
