QTT.pdb
     RDKit          3D

 24 23  0  0  1  0  0  0  0  0999 V2000
   21.0191  -14.7180  -15.1547 N   0  0  0  0  0  0  0  0  0  0  0  0
   20.6704  -16.0802  -15.2716 C   0  0  0  0  0  0  0  0  0  0  0  0
   21.3200  -16.9358  -14.6435 O   0  0  0  0  0  0  0  0  0  0  0  0
   19.5467  -16.4801  -16.1308 C   0  0  0  0  0  0  0  0  0  0  0  0
   18.9179  -15.2468  -16.7235 C   0  0  0  0  0  0  0  0  0  0  0  0
   17.5905  -14.9227  -16.0567 C   0  0  2  0  0  0  0  0  0  0  0  0
   16.6743  -15.9955  -16.3943 N   0  0  0  0  0  0  0  0  0  0  0  0
   17.1138  -13.6305  -16.6514 C   0  0  0  0  0  0  0  0  0  0  0  0
   16.7579  -13.5499  -17.8584 O   0  0  0  0  0  0  0  0  0  0  0  0
   14.1725  -11.9522  -16.1002 C   0  0  0  0  0  0  0  0  0  0  0  0
   15.1994  -10.9314  -15.7364 C   0  0  1  0  0  0  0  0  0  0  0  0
   15.3405  -10.8777  -14.3579 O   0  0  0  0  0  0  0  0  0  0  0  0
   16.5393  -11.2098  -16.4260 C   0  0  2  0  0  0  0  0  0  0  0  0
   17.0401  -12.4371  -15.8856 N   0  0  0  0  0  0  0  0  0  0  0  0
   17.4713  -10.0727  -16.2437 C   0  0  0  0  0  0  0  0  0  0  0  0
   18.4374  -10.1283  -15.4412 O   0  0  0  0  0  0  0  0  0  0  0  0
   19.0777   -5.5597  -17.5487 C   0  0  0  0  0  0  0  0  0  0  0  0
   18.1166   -6.6891  -17.8554 C   0  0  1  0  0  0  0  0  0  0  0  0
   18.3637   -7.2919  -19.0690 O   0  0  0  0  0  0  0  0  0  0  0  0
   18.2276   -7.7148  -16.7500 C   0  0  2  0  0  0  0  0  0  0  0  0
   17.3369   -8.8387  -16.9650 N   0  0  0  0  0  0  0  0  0  0  0  0
   17.9894   -7.0911  -15.4130 C   0  0  0  0  0  0  0  0  0  0  0  0
   19.0289   -6.7512  -14.5600 O   0  0  0  0  0  0  0  0  0  0  0  0
   16.8170   -6.8598  -15.0328 O   0  0  0  0  0  0  0  0  0  0  0  0
  2  1  1  0
  2  3  2  0
  4  2  1  0
  5  4  1  0
  6  8  1  0
  6  5  1  0
  6  7  1  6
  8 14  1  0
  9  8  2  0
 11 10  1  1
 11 12  1  0
 13 11  1  0
 13 14  1  1
 15 21  1  0
 15 13  1  0
 16 15  2  0
 18 20  1  0
 18 17  1  1
 19 18  1  0
 20 21  1  6
 20 22  1  0
 22 23  1  0
 24 22  2  0
M  END
$$$$
