QTT.pdb
     RDKit          3D

 24 23  0  0  1  0  0  0  0  0999 V2000
   17.9280  -14.5932  -15.0004 N   0  0  0  0  0  0  0  0  0  0  0  0
   16.8907  -13.6538  -15.1798 C   0  0  0  0  0  0  0  0  0  0  0  0
   15.7058  -14.0254  -15.0993 O   0  0  0  0  0  0  0  0  0  0  0  0
   17.2133  -12.2472  -15.4597 C   0  0  0  0  0  0  0  0  0  0  0  0
   18.7093  -12.0754  -15.4534 C   0  0  0  0  0  0  0  0  0  0  0  0
   19.2386  -11.7486  -16.8407 C   0  0  2  0  0  0  0  0  0  0  0  0
   19.8865  -12.9469  -17.3395 N   0  0  0  0  0  0  0  0  0  0  0  0
   20.2460  -10.6502  -16.6699 C   0  0  0  0  0  0  0  0  0  0  0  0
   21.3834  -10.8683  -16.1711 O   0  0  0  0  0  0  0  0  0  0  0  0
   21.6597   -8.5991  -19.2982 C   0  0  0  0  0  0  0  0  0  0  0  0
   21.0936   -7.6286  -18.3150 C   0  0  1  0  0  0  0  0  0  0  0  0
   19.8901   -7.1282  -18.7885 O   0  0  0  0  0  0  0  0  0  0  0  0
   20.9304   -8.2616  -16.9289 C   0  0  2  0  0  0  0  0  0  0  0  0
   19.9686   -9.3136  -17.0609 N   0  0  0  0  0  0  0  0  0  0  0  0
   20.5407   -7.2419  -15.9273 C   0  0  0  0  0  0  0  0  0  0  0  0
   19.3387   -7.0381  -15.6205 O   0  0  0  0  0  0  0  0  0  0  0  0
   21.3054   -6.8561  -12.3381 C   0  0  0  0  0  0  0  0  0  0  0  0
   21.7997   -5.5680  -12.9624 C   0  0  1  0  0  0  0  0  0  0  0  0
   23.1648   -5.5473  -13.1448 O   0  0  0  0  0  0  0  0  0  0  0  0
   21.1092   -5.3964  -14.2967 C   0  0  2  0  0  0  0  0  0  0  0  0
   21.5009   -6.4228  -15.2432 N   0  0  0  0  0  0  0  0  0  0  0  0
   21.3526   -4.0319  -14.8555 C   0  0  0  0  0  0  0  0  0  0  0  0
   20.8461   -2.8872  -14.2580 O   0  0  0  0  0  0  0  0  0  0  0  0
   22.0353   -3.8980  -15.8988 O   0  0  0  0  0  0  0  0  0  0  0  0
  2  1  1  0
  2  3  2  0
  4  2  1  0
  5  4  1  0
  6  8  1  0
  6  5  1  0
  6  7  1  1
  8 14  1  0
  9  8  2  0
 11 10  1  6
 11 12  1  0
 13 11  1  0
 13 14  1  6
 15 21  1  0
 15 13  1  0
 16 15  2  0
 18 20  1  0
 18 17  1  6
 19 18  1  0
 20 21  1  6
 20 22  1  0
 22 23  1  0
 24 22  2  0
M  END
$$$$
