QTT.pdb
     RDKit          3D

 24 23  0  0  1  0  0  0  0  0999 V2000
   25.7949  -21.0075  -11.9794 N   0  0  0  0  0  0  0  0  0  0  0  0
   25.2596  -21.1849  -10.6861 C   0  0  0  0  0  0  0  0  0  0  0  0
   25.9324  -20.8542   -9.6930 O   0  0  0  0  0  0  0  0  0  0  0  0
   23.9157  -21.7569  -10.5191 C   0  0  0  0  0  0  0  0  0  0  0  0
   23.2998  -21.9696  -11.8766 C   0  0  0  0  0  0  0  0  0  0  0  0
   22.7115  -20.6813  -12.4298 C   0  0  2  0  0  0  0  0  0  0  0  0
   21.2810  -20.7341  -12.1944 N   0  0  0  0  0  0  0  0  0  0  0  0
   22.9924  -20.6773  -13.9035 C   0  0  0  0  0  0  0  0  0  0  0  0
   22.5421  -21.5762  -14.6646 O   0  0  0  0  0  0  0  0  0  0  0  0
   22.0033  -18.2969  -16.4206 C   0  0  0  0  0  0  0  0  0  0  0  0
   23.4955  -18.3248  -16.4637 C   0  0  1  0  0  0  0  0  0  0  0  0
   24.0057  -17.2362  -15.7726 O   0  0  0  0  0  0  0  0  0  0  0  0
   24.0501  -19.6449  -15.9175 C   0  0  2  0  0  0  0  0  0  0  0  0
   23.7775  -19.6629  -14.5123 N   0  0  0  0  0  0  0  0  0  0  0  0
   25.4919  -19.7796  -16.2304 C   0  0  0  0  0  0  0  0  0  0  0  0
   26.3762  -19.2049  -15.5462 O   0  0  0  0  0  0  0  0  0  0  0  0
   27.9624  -22.5967  -16.3061 C   0  0  0  0  0  0  0  0  0  0  0  0
   27.8737  -22.0725  -17.7242 C   0  0  1  0  0  0  0  0  0  0  0  0
   27.0330  -22.8169  -18.5218 O   0  0  0  0  0  0  0  0  0  0  0  0
   27.3827  -20.6435  -17.6679 C   0  0  2  0  0  0  0  0  0  0  0  0
   25.9751  -20.5694  -17.3275 N   0  0  0  0  0  0  0  0  0  0  0  0
   27.6616  -19.9291  -18.9506 C   0  0  0  0  0  0  0  0  0  0  0  0
   28.9525  -19.6706  -19.3873 O   0  0  0  0  0  0  0  0  0  0  0  0
   26.7092  -19.5432  -19.6692 O   0  0  0  0  0  0  0  0  0  0  0  0
  2  1  1  0
  2  3  2  0
  4  2  1  0
  5  4  1  0
  6  8  1  0
  6  5  1  0
  6  7  1  6
  8 14  1  0
  9  8  2  0
 11 10  1  1
 11 12  1  0
 13 11  1  0
 13 14  1  1
 15 21  1  0
 15 13  1  0
 16 15  2  0
 18 20  1  0
 18 17  1  1
 19 18  1  0
 20 21  1  6
 20 22  1  0
 22 23  1  0
 24 22  2  0
M  END
$$$$
