QTT.pdb
     RDKit          3D

 24 23  0  0  1  0  0  0  0  0999 V2000
   15.1252  -12.8952  -15.2235 N   0  0  0  0  0  0  0  0  0  0  0  0
   15.0359  -12.2422  -16.4711 C   0  0  0  0  0  0  0  0  0  0  0  0
   13.9913  -12.3384  -17.1404 O   0  0  0  0  0  0  0  0  0  0  0  0
   16.1721  -11.4552  -16.9717 C   0  0  0  0  0  0  0  0  0  0  0  0
   17.2586  -11.4424  -15.9291 C   0  0  0  0  0  0  0  0  0  0  0  0
   18.6394  -11.3939  -16.5637 C   0  0  2  0  0  0  0  0  0  0  0  0
   19.1340  -12.7570  -16.6054 N   0  0  0  0  0  0  0  0  0  0  0  0
   19.4996  -10.5600  -15.6607 C   0  0  0  0  0  0  0  0  0  0  0  0
   19.2375  -10.4286  -14.4343 O   0  0  0  0  0  0  0  0  0  0  0  0
   23.0342  -10.9532  -14.8675 C   0  0  0  0  0  0  0  0  0  0  0  0
   22.8988   -9.5726  -15.4194 C   0  0  1  0  0  0  0  0  0  0  0  0
   23.3369   -9.5476  -16.7349 O   0  0  0  0  0  0  0  0  0  0  0  0
   21.4611   -9.0561  -15.2981 C   0  0  2  0  0  0  0  0  0  0  0  0
   20.6490   -9.8792  -16.1420 N   0  0  0  0  0  0  0  0  0  0  0  0
   21.3874   -7.6179  -15.6463 C   0  0  0  0  0  0  0  0  0  0  0  0
   20.8550   -7.2196  -16.7133 O   0  0  0  0  0  0  0  0  0  0  0  0
   20.2599   -3.2529  -15.2365 C   0  0  0  0  0  0  0  0  0  0  0  0
   20.3170   -4.7651  -15.1796 C   0  0  1  0  0  0  0  0  0  0  0  0
   19.7218   -5.3677  -16.2658 O   0  0  0  0  0  0  0  0  0  0  0  0
   21.7695   -5.1788  -15.1056 C   0  0  2  0  0  0  0  0  0  0  0  0
   21.9144   -6.5880  -14.7963 N   0  0  0  0  0  0  0  0  0  0  0  0
   22.5184   -4.3357  -14.1248 C   0  0  0  0  0  0  0  0  0  0  0  0
   23.0449   -3.0982  -14.4641 O   0  0  0  0  0  0  0  0  0  0  0  0
   22.6861   -4.7446  -12.9513 O   0  0  0  0  0  0  0  0  0  0  0  0
  2  1  1  0
  2  3  2  0
  4  2  1  0
  5  4  1  0
  6  8  1  0
  6  5  1  0
  6  7  1  1
  8 14  1  0
  9  8  2  0
 11 10  1  6
 11 12  1  0
 13 11  1  0
 13 14  1  6
 15 21  1  0
 15 13  1  0
 16 15  2  0
 18 20  1  0
 18 17  1  6
 19 18  1  0
 20 21  1  1
 20 22  1  0
 22 23  1  0
 24 22  2  0
M  END
$$$$
