QTT.pdb
     RDKit          3D

 24 23  0  0  1  0  0  0  0  0999 V2000
   25.1158  -17.2910  -19.4242 N   0  0  0  0  0  0  0  0  0  0  0  0
   24.3604  -16.3804  -20.1929 C   0  0  0  0  0  0  0  0  0  0  0  0
   23.2216  -16.7006  -20.5792 O   0  0  0  0  0  0  0  0  0  0  0  0
   24.9196  -15.0639  -20.5320 C   0  0  0  0  0  0  0  0  0  0  0  0
   26.3413  -14.9925  -20.0410 C   0  0  0  0  0  0  0  0  0  0  0  0
   26.5128  -13.9115  -18.9856 C   0  0  2  0  0  0  0  0  0  0  0  0
   25.3167  -13.0914  -19.0216 N   0  0  0  0  0  0  0  0  0  0  0  0
   27.7076  -13.0996  -19.3906 C   0  0  0  0  0  0  0  0  0  0  0  0
   28.8422  -13.6268  -19.5484 O   0  0  0  0  0  0  0  0  0  0  0  0
   28.2185  -10.9773  -22.3972 C   0  0  0  0  0  0  0  0  0  0  0  0
   28.3867  -10.0974  -21.2028 C   0  0  1  0  0  0  0  0  0  0  0  0
   27.2323   -9.3565  -20.9990 O   0  0  0  0  0  0  0  0  0  0  0  0
   28.7607  -10.9059  -19.9558 C   0  0  2  0  0  0  0  0  0  0  0  0
   27.6196  -11.7004  -19.6154 N   0  0  0  0  0  0  0  0  0  0  0  0
   29.1921  -10.0100  -18.8576 C   0  0  0  0  0  0  0  0  0  0  0  0
   28.4241   -9.7030  -17.9109 O   0  0  0  0  0  0  0  0  0  0  0  0
   32.6543   -7.8305  -16.1661 C   0  0  0  0  0  0  0  0  0  0  0  0
   32.2994   -8.8482  -17.2299 C   0  0  1  0  0  0  0  0  0  0  0  0
   32.3370  -10.1453  -16.7681 O   0  0  0  0  0  0  0  0  0  0  0  0
   30.9106   -8.5330  -17.7381 C   0  0  2  0  0  0  0  0  0  0  0  0
   30.5063   -9.4352  -18.7989 N   0  0  0  0  0  0  0  0  0  0  0  0
   30.8109   -7.1088  -18.1796 C   0  0  0  0  0  0  0  0  0  0  0  0
   30.7018   -6.7552  -19.5164 O   0  0  0  0  0  0  0  0  0  0  0  0
   30.8249   -6.1892  -17.3272 O   0  0  0  0  0  0  0  0  0  0  0  0
  2  1  1  0
  2  3  2  0
  4  2  1  0
  5  4  1  0
  6  8  1  0
  6  5  1  0
  6  7  1  6
  8 14  1  0
  9  8  2  0
 11 10  1  6
 11 12  1  0
 13 11  1  0
 13 14  1  1
 15 21  1  0
 15 13  1  0
 16 15  2  0
 18 20  1  0
 18 17  1  1
 19 18  1  0
 20 21  1  6
 20 22  1  0
 22 23  1  0
 24 22  2  0
M  END
$$$$
