QTT.pdb
     RDKit          3D

 24 23  0  0  1  0  0  0  0  0999 V2000
   24.3764  -24.0677  -15.5908 N   0  0  0  0  0  0  0  0  0  0  0  0
   25.3929  -24.3294  -14.6480 C   0  0  0  0  0  0  0  0  0  0  0  0
   25.8365  -25.4860  -14.5293 O   0  0  0  0  0  0  0  0  0  0  0  0
   25.9203  -23.2396  -13.8143 C   0  0  0  0  0  0  0  0  0  0  0  0
   25.2022  -21.9627  -14.1625 C   0  0  0  0  0  0  0  0  0  0  0  0
   25.5924  -21.4628  -15.5444 C   0  0  2  0  0  0  0  0  0  0  0  0
   26.9921  -21.0872  -15.4789 N   0  0  0  0  0  0  0  0  0  0  0  0
   24.7462  -20.2551  -15.8205 C   0  0  0  0  0  0  0  0  0  0  0  0
   25.2429  -19.0971  -15.8683 O   0  0  0  0  0  0  0  0  0  0  0  0
   22.2796  -17.7128  -18.4294 C   0  0  0  0  0  0  0  0  0  0  0  0
   23.1107  -18.7969  -17.8269 C   0  0  1  0  0  0  0  0  0  0  0  0
   24.4279  -18.3760  -17.7227 O   0  0  0  0  0  0  0  0  0  0  0  0
   22.5564  -19.2432  -16.4696 C   0  0  2  0  0  0  0  0  0  0  0  0
   23.3473  -20.3568  -16.0412 N   0  0  0  0  0  0  0  0  0  0  0  0
   21.1129  -19.5612  -16.5695 C   0  0  0  0  0  0  0  0  0  0  0  0
   20.6502  -20.2586  -17.5076 O   0  0  0  0  0  0  0  0  0  0  0  0
   19.2349  -21.3729  -14.0433 C   0  0  0  0  0  0  0  0  0  0  0  0
   18.3722  -20.1523  -14.2870 C   0  0  1  0  0  0  0  0  0  0  0  0
   18.4914  -19.2023  -13.2969 O   0  0  0  0  0  0  0  0  0  0  0  0
   18.7726  -19.5506  -15.6152 C   0  0  2  0  0  0  0  0  0  0  0  0
   20.1505  -19.0989  -15.6098 N   0  0  0  0  0  0  0  0  0  0  0  0
   17.8476  -18.4428  -16.0032 C   0  0  0  0  0  0  0  0  0  0  0  0
   18.2560  -17.1178  -16.0408 O   0  0  0  0  0  0  0  0  0  0  0  0
   16.6590  -18.7009  -16.3082 O   0  0  0  0  0  0  0  0  0  0  0  0
  2  1  1  0
  2  3  2  0
  4  2  1  0
  5  4  1  0
  6  8  1  0
  6  5  1  0
  6  7  1  1
  8 14  1  0
  9  8  2  0
 11 10  1  1
 11 12  1  0
 13 11  1  0
 13 14  1  6
 15 21  1  0
 15 13  1  0
 16 15  2  0
 18 20  1  0
 18 17  1  1
 19 18  1  0
 20 21  1  1
 20 22  1  0
 22 23  1  0
 24 22  2  0
M  END
$$$$
