QTT.pdb
     RDKit          3D

 24 23  0  0  1  0  0  0  0  0999 V2000
   26.7375  -16.0946  -20.6679 N   0  0  0  0  0  0  0  0  0  0  0  0
   26.6629  -15.5277  -21.9578 C   0  0  0  0  0  0  0  0  0  0  0  0
   26.3563  -16.2458  -22.9267 O   0  0  0  0  0  0  0  0  0  0  0  0
   26.9464  -14.0981  -22.1499 C   0  0  0  0  0  0  0  0  0  0  0  0
   26.8801  -13.4005  -20.8171 C   0  0  0  0  0  0  0  0  0  0  0  0
   27.2959  -11.9423  -20.9300 C   0  0  2  0  0  0  0  0  0  0  0  0
   28.7349  -11.9256  -21.1128 N   0  0  0  0  0  0  0  0  0  0  0  0
   26.9331  -11.2888  -19.6292 C   0  0  0  0  0  0  0  0  0  0  0  0
   26.6259  -11.9674  -18.6117 O   0  0  0  0  0  0  0  0  0  0  0  0
   29.1335   -9.6456  -17.6411 C   0  0  0  0  0  0  0  0  0  0  0  0
   28.0728   -8.6110  -17.8246 C   0  0  1  0  0  0  0  0  0  0  0  0
   28.4838   -7.6787  -18.7654 O   0  0  0  0  0  0  0  0  0  0  0  0
   26.7309   -9.2423  -18.2109 C   0  0  2  0  0  0  0  0  0  0  0  0
   26.9180   -9.8768  -19.4804 N   0  0  0  0  0  0  0  0  0  0  0  0
   25.6548   -8.2242  -18.2244 C   0  0  0  0  0  0  0  0  0  0  0  0
   25.2759   -7.6728  -19.2888 O   0  0  0  0  0  0  0  0  0  0  0  0
   21.7058   -6.1392  -16.2152 C   0  0  0  0  0  0  0  0  0  0  0  0
   22.8041   -7.1727  -16.0778 C   0  0  1  0  0  0  0  0  0  0  0  0
   22.3667   -8.4576  -16.3122 O   0  0  0  0  0  0  0  0  0  0  0  0
   23.9019   -6.8260  -17.0581 C   0  0  2  0  0  0  0  0  0  0  0  0
   24.9757   -7.8003  -17.0328 N   0  0  0  0  0  0  0  0  0  0  0  0
   24.4242   -5.4473  -16.8135 C   0  0  0  0  0  0  0  0  0  0  0  0
   23.8822   -4.3308  -17.4329 O   0  0  0  0  0  0  0  0  0  0  0  0
   25.3840   -5.2748  -16.0251 O   0  0  0  0  0  0  0  0  0  0  0  0
  2  1  1  0
  2  3  2  0
  4  2  1  0
  5  4  1  0
  6  8  1  0
  6  5  1  0
  6  7  1  1
  8 14  1  0
  9  8  2  0
 11 10  1  6
 11 12  1  0
 13 11  1  0
 13 14  1  6
 15 21  1  0
 15 13  1  0
 16 15  2  0
 18 20  1  0
 18 17  1  6
 19 18  1  0
 20 21  1  1
 20 22  1  0
 22 23  1  0
 24 22  2  0
M  END
$$$$
