QTT.pdb
     RDKit          3D

 24 23  0  0  1  0  0  0  0  0999 V2000
   17.9794  -13.5278  -14.9495 N   0  0  0  0  0  0  0  0  0  0  0  0
   16.8424  -13.1788  -15.7086 C   0  0  0  0  0  0  0  0  0  0  0  0
   16.2072  -14.0668  -16.3056 O   0  0  0  0  0  0  0  0  0  0  0  0
   16.4159  -11.7745  -15.7901 C   0  0  0  0  0  0  0  0  0  0  0  0
   17.3419  -10.9302  -14.9550 C   0  0  0  0  0  0  0  0  0  0  0  0
   17.7699   -9.6731  -15.6955 C   0  0  2  0  0  0  0  0  0  0  0  0
   18.2269  -10.0899  -17.0077 N   0  0  0  0  0  0  0  0  0  0  0  0
   18.9072   -9.0806  -14.9170 C   0  0  0  0  0  0  0  0  0  0  0  0
   18.7413   -8.6107  -13.7587 O   0  0  0  0  0  0  0  0  0  0  0  0
   22.3029  -10.6737  -14.3059 C   0  0  0  0  0  0  0  0  0  0  0  0
   22.5263   -9.3297  -14.9165 C   0  0  1  0  0  0  0  0  0  0  0  0
   22.8549   -9.4712  -16.2563 O   0  0  0  0  0  0  0  0  0  0  0  0
   21.3087   -8.4177  -14.7318 C   0  0  2  0  0  0  0  0  0  0  0  0
   20.2237   -9.0200  -15.4455 N   0  0  0  0  0  0  0  0  0  0  0  0
   21.6088   -7.0403  -15.1873 C   0  0  0  0  0  0  0  0  0  0  0  0
   22.4707   -6.3252  -14.6160 O   0  0  0  0  0  0  0  0  0  0  0  0
   22.2798   -5.7693  -18.8562 C   0  0  0  0  0  0  0  0  0  0  0  0
   21.1593   -4.9516  -18.2485 C   0  0  1  0  0  0  0  0  0  0  0  0
   19.9112   -5.3467  -18.6766 O   0  0  0  0  0  0  0  0  0  0  0  0
   21.2426   -5.0836  -16.7445 C   0  0  2  0  0  0  0  0  0  0  0  0
   20.9418   -6.4318  -16.3034 N   0  0  0  0  0  0  0  0  0  0  0  0
   20.3556   -4.0888  -16.0684 C   0  0  0  0  0  0  0  0  0  0  0  0
   20.6480   -2.7331  -16.0455 O   0  0  0  0  0  0  0  0  0  0  0  0
   19.3078   -4.4742  -15.4976 O   0  0  0  0  0  0  0  0  0  0  0  0
  2  1  1  0
  2  3  2  0
  4  2  1  0
  5  4  1  0
  6  8  1  0
  6  5  1  0
  6  7  1  6
  8 14  1  0
  9  8  2  0
 11 10  1  6
 11 12  1  0
 13 11  1  0
 13 14  1  6
 15 21  1  0
 15 13  1  0
 16 15  2  0
 18 20  1  0
 18 17  1  6
 19 18  1  0
 20 21  1  6
 20 22  1  0
 22 23  1  0
 24 22  2  0
M  END
$$$$
