QTT.pdb
     RDKit          3D

 24 23  0  0  1  0  0  0  0  0999 V2000
   20.9416  -20.4912  -11.8913 N   0  0  0  0  0  0  0  0  0  0  0  0
   20.9478  -21.5668  -12.8044 C   0  0  0  0  0  0  0  0  0  0  0  0
   20.1674  -22.5209  -12.6336 O   0  0  0  0  0  0  0  0  0  0  0  0
   21.8719  -21.5553  -13.9475 C   0  0  0  0  0  0  0  0  0  0  0  0
   22.6179  -20.2473  -13.9633 C   0  0  0  0  0  0  0  0  0  0  0  0
   23.6086  -20.1846  -15.1149 C   0  0  2  0  0  0  0  0  0  0  0  0
   24.7089  -21.0669  -14.7750 N   0  0  0  0  0  0  0  0  0  0  0  0
   24.0898  -18.7658  -15.1927 C   0  0  0  0  0  0  0  0  0  0  0  0
   25.1277  -18.3857  -14.5858 O   0  0  0  0  0  0  0  0  0  0  0  0
   26.1706  -17.5082  -16.1833 C   0  0  0  0  0  0  0  0  0  0  0  0
   25.2347  -16.5675  -16.8678 C   0  0  1  0  0  0  0  0  0  0  0  0
   25.0438  -16.9680  -18.1816 O   0  0  0  0  0  0  0  0  0  0  0  0
   23.9031  -16.4529  -16.1181 C   0  0  2  0  0  0  0  0  0  0  0  0
   23.4013  -17.7833  -15.9522 N   0  0  0  0  0  0  0  0  0  0  0  0
   22.9649  -15.5656  -16.8443 C   0  0  0  0  0  0  0  0  0  0  0  0
   21.8259  -15.9568  -17.2050 O   0  0  0  0  0  0  0  0  0  0  0  0
   22.2141  -11.7881  -15.0234 C   0  0  0  0  0  0  0  0  0  0  0  0
   21.7225  -13.0582  -15.6856 C   0  0  1  0  0  0  0  0  0  0  0  0
   20.3496  -13.1207  -15.7779 O   0  0  0  0  0  0  0  0  0  0  0  0
   22.3256  -13.1308  -17.0703 C   0  0  2  0  0  0  0  0  0  0  0  0
   23.2888  -14.2089  -17.1837 N   0  0  0  0  0  0  0  0  0  0  0  0
   22.9371  -11.8236  -17.4586 C   0  0  0  0  0  0  0  0  0  0  0  0
   22.1879  -10.7880  -17.9971 O   0  0  0  0  0  0  0  0  0  0  0  0
   24.1671  -11.6388  -17.2995 O   0  0  0  0  0  0  0  0  0  0  0  0
  2  1  1  0
  2  3  2  0
  4  2  1  0
  5  4  1  0
  6  8  1  0
  6  5  1  0
  6  7  1  1
  8 14  1  0
  9  8  2  0
 11 10  1  1
 11 12  1  0
 13 11  1  0
 13 14  1  6
 15 21  1  0
 15 13  1  0
 16 15  2  0
 18 20  1  0
 18 17  1  6
 19 18  1  0
 20 21  1  1
 20 22  1  0
 22 23  1  0
 24 22  2  0
M  END
$$$$
