QTT.pdb
     RDKit          3D

 24 23  0  0  1  0  0  0  0  0999 V2000
   16.9505  -14.2608  -16.7326 N   0  0  0  0  0  0  0  0  0  0  0  0
   16.8321  -13.8213  -18.0681 C   0  0  0  0  0  0  0  0  0  0  0  0
   16.2815  -14.5551  -18.9088 O   0  0  0  0  0  0  0  0  0  0  0  0
   17.3572  -12.5048  -18.4579 C   0  0  0  0  0  0  0  0  0  0  0  0
   17.9240  -11.8218  -17.2414 C   0  0  0  0  0  0  0  0  0  0  0  0
   18.5177  -10.4660  -17.5894 C   0  0  2  0  0  0  0  0  0  0  0  0
   19.5486  -10.6980  -18.5833 N   0  0  0  0  0  0  0  0  0  0  0  0
   19.1276   -9.9265  -16.3294 C   0  0  0  0  0  0  0  0  0  0  0  0
   18.4473   -9.7734  -15.2787 O   0  0  0  0  0  0  0  0  0  0  0  0
   22.9792   -9.3259  -13.5027 C   0  0  0  0  0  0  0  0  0  0  0  0
   22.1664   -9.9334  -14.5979 C   0  0  1  0  0  0  0  0  0  0  0  0
   21.6287  -11.1382  -14.1709 O   0  0  0  0  0  0  0  0  0  0  0  0
   21.0751   -8.9752  -15.0872 C   0  0  2  0  0  0  0  0  0  0  0  0
   20.4982   -9.5624  -16.2584 N   0  0  0  0  0  0  0  0  0  0  0  0
   21.6315   -7.6238  -15.3301 C   0  0  0  0  0  0  0  0  0  0  0  0
   22.4681   -7.4044  -16.2425 O   0  0  0  0  0  0  0  0  0  0  0  0
   20.1276   -4.5610  -16.4346 C   0  0  0  0  0  0  0  0  0  0  0  0
   20.7642   -4.1470  -15.1244 C   0  0  1  0  0  0  0  0  0  0  0  0
   19.8580   -4.0527  -14.0915 O   0  0  0  0  0  0  0  0  0  0  0  0
   21.8252   -5.1659  -14.7740 C   0  0  2  0  0  0  0  0  0  0  0  0
   21.2570   -6.4805  -14.5468 N   0  0  0  0  0  0  0  0  0  0  0  0
   22.6298   -4.7197  -13.5964 C   0  0  0  0  0  0  0  0  0  0  0  0
   22.5678   -5.3663  -12.3709 O   0  0  0  0  0  0  0  0  0  0  0  0
   23.3921   -3.7295  -13.7011 O   0  0  0  0  0  0  0  0  0  0  0  0
  2  1  1  0
  2  3  2  0
  4  2  1  0
  5  4  1  0
  6  8  1  0
  6  5  1  0
  6  7  1  6
  8 14  1  0
  9  8  2  0
 11 10  1  1
 11 12  1  0
 13 11  1  0
 13 14  1  6
 15 21  1  0
 15 13  1  0
 16 15  2  0
 18 20  1  0
 18 17  1  6
 19 18  1  0
 20 21  1  1
 20 22  1  0
 22 23  1  0
 24 22  2  0
M  END
$$$$
