QTT.pdb
     RDKit          3D

 24 23  0  0  1  0  0  0  0  0999 V2000
   15.9562  -12.7050  -17.4695 N   0  0  0  0  0  0  0  0  0  0  0  0
   15.7121  -11.8070  -18.5300 C   0  0  0  0  0  0  0  0  0  0  0  0
   14.8018  -12.0505  -19.3428 O   0  0  0  0  0  0  0  0  0  0  0  0
   16.5305  -10.5939  -18.6689 C   0  0  0  0  0  0  0  0  0  0  0  0
   17.4297  -10.4673  -17.4677 C   0  0  0  0  0  0  0  0  0  0  0  0
   18.8103  -11.0424  -17.7418 C   0  0  2  0  0  0  0  0  0  0  0  0
   18.6876  -12.4865  -17.6775 N   0  0  0  0  0  0  0  0  0  0  0  0
   19.7074  -10.5512  -16.6444 C   0  0  0  0  0  0  0  0  0  0  0  0
   20.1091  -11.3169  -15.7265 O   0  0  0  0  0  0  0  0  0  0  0  0
   23.5383   -8.9403  -15.1100 C   0  0  0  0  0  0  0  0  0  0  0  0
   22.3846   -9.5445  -15.8401 C   0  0  1  0  0  0  0  0  0  0  0  0
   22.2333  -10.8706  -15.4639 O   0  0  0  0  0  0  0  0  0  0  0  0
   21.0953   -8.7476  -15.6140 C   0  0  2  0  0  0  0  0  0  0  0  0
   20.1474   -9.2024  -16.5855 N   0  0  0  0  0  0  0  0  0  0  0  0
   21.3555   -7.2914  -15.6951 C   0  0  0  0  0  0  0  0  0  0  0  0
   21.7050   -6.7383  -16.7686 O   0  0  0  0  0  0  0  0  0  0  0  0
   20.4223   -2.7500  -14.4502 C   0  0  0  0  0  0  0  0  0  0  0  0
   20.1228   -4.2335  -14.3965 C   0  0  1  0  0  0  0  0  0  0  0  0
   19.1633   -4.6224  -15.3049 O   0  0  0  0  0  0  0  0  0  0  0  0
   21.4078   -4.9831  -14.6669 C   0  0  2  0  0  0  0  0  0  0  0  0
   21.2277   -6.4182  -14.5628 N   0  0  0  0  0  0  0  0  0  0  0  0
   22.5029   -4.5142  -13.7646 C   0  0  0  0  0  0  0  0  0  0  0  0
   23.3666   -3.4891  -14.1212 O   0  0  0  0  0  0  0  0  0  0  0  0
   22.6613   -5.0536  -12.6437 O   0  0  0  0  0  0  0  0  0  0  0  0
  2  1  1  0
  2  3  2  0
  4  2  1  0
  5  4  1  0
  6  8  1  0
  6  5  1  0
  6  7  1  1
  8 14  1  0
  9  8  2  0
 11 10  1  1
 11 12  1  0
 13 11  1  0
 13 14  1  6
 15 21  1  0
 15 13  1  0
 16 15  2  0
 18 20  1  0
 18 17  1  6
 19 18  1  0
 20 21  1  1
 20 22  1  0
 22 23  1  0
 24 22  2  0
M  END
$$$$
