QTT.pdb
     RDKit          3D

 24 23  0  0  1  0  0  0  0  0999 V2000
   29.9335  -19.7134  -18.2127 N   0  0  0  0  0  0  0  0  0  0  0  0
   29.9427  -18.3550  -17.8313 C   0  0  0  0  0  0  0  0  0  0  0  0
   30.5812  -17.5313  -18.5113 O   0  0  0  0  0  0  0  0  0  0  0  0
   29.2014  -17.9215  -16.6382 C   0  0  0  0  0  0  0  0  0  0  0  0
   28.5482  -19.1203  -16.0029 C   0  0  0  0  0  0  0  0  0  0  0  0
   27.0736  -19.2078  -16.3629 C   0  0  2  0  0  0  0  0  0  0  0  0
   26.5175  -17.8785  -16.1950 N   0  0  0  0  0  0  0  0  0  0  0  0
   26.4467  -20.1569  -15.3848 C   0  0  0  0  0  0  0  0  0  0  0  0
   27.0556  -21.1828  -14.9764 O   0  0  0  0  0  0  0  0  0  0  0  0
   25.6983  -19.8077  -12.1004 C   0  0  0  0  0  0  0  0  0  0  0  0
   25.4177  -21.0951  -12.8026 C   0  0  1  0  0  0  0  0  0  0  0  0
   24.8861  -22.0118  -11.9082 O   0  0  0  0  0  0  0  0  0  0  0  0
   24.4947  -20.8892  -14.0085 C   0  0  2  0  0  0  0  0  0  0  0  0
   25.1395  -19.9468  -14.8719 N   0  0  0  0  0  0  0  0  0  0  0  0
   23.1489  -20.4497  -13.5722 C   0  0  0  0  0  0  0  0  0  0  0  0
   22.9683  -19.3585  -12.9746 O   0  0  0  0  0  0  0  0  0  0  0  0
   18.4455  -20.0701  -14.4046 C   0  0  0  0  0  0  0  0  0  0  0  0
   19.8009  -20.6304  -14.7819 C   0  0  1  0  0  0  0  0  0  0  0  0
   20.4599  -19.8623  -15.7161 O   0  0  0  0  0  0  0  0  0  0  0  0
   20.6370  -20.7257  -13.5256 C   0  0  2  0  0  0  0  0  0  0  0  0
   21.9675  -21.2329  -13.7999 N   0  0  0  0  0  0  0  0  0  0  0  0
   19.9523  -21.5533  -12.4866 C   0  0  0  0  0  0  0  0  0  0  0  0
   19.0123  -21.0195  -11.6176 O   0  0  0  0  0  0  0  0  0  0  0  0
   20.2240  -22.7731  -12.3823 O   0  0  0  0  0  0  0  0  0  0  0  0
  2  1  1  0
  2  3  2  0
  4  2  1  0
  5  4  1  0
  6  8  1  0
  6  5  1  0
  6  7  1  1
  8 14  1  0
  9  8  2  0
 11 10  1  1
 11 12  1  0
 13 11  1  0
 13 14  1  6
 15 21  1  0
 15 13  1  0
 16 15  2  0
 18 20  1  0
 18 17  1  1
 19 18  1  0
 20 21  1  6
 20 22  1  0
 22 23  1  0
 24 22  2  0
M  END
$$$$
