QTT.pdb
     RDKit          3D

 24 23  0  0  1  0  0  0  0  0999 V2000
   16.3766  -10.9076  -15.9812 N   0  0  0  0  0  0  0  0  0  0  0  0
   16.8092  -12.2129  -15.6655 C   0  0  0  0  0  0  0  0  0  0  0  0
   16.0799  -12.9517  -14.9794 O   0  0  0  0  0  0  0  0  0  0  0  0
   18.1132  -12.6915  -16.1464 C   0  0  0  0  0  0  0  0  0  0  0  0
   18.7361  -11.6310  -17.0153 C   0  0  0  0  0  0  0  0  0  0  0  0
   20.0833  -12.0777  -17.5606 C   0  0  2  0  0  0  0  0  0  0  0  0
   20.3608  -13.3810  -16.9871 N   0  0  0  0  0  0  0  0  0  0  0  0
   21.0945  -11.0777  -17.0830 C   0  0  0  0  0  0  0  0  0  0  0  0
   21.8589  -11.3235  -16.1107 O   0  0  0  0  0  0  0  0  0  0  0  0
   23.8514   -7.1881  -18.0855 C   0  0  0  0  0  0  0  0  0  0  0  0
   22.9496   -8.3230  -18.4433 C   0  0  1  0  0  0  0  0  0  0  0  0
   23.6864   -9.3419  -19.0281 O   0  0  0  0  0  0  0  0  0  0  0  0
   22.1668   -8.8259  -17.2256 C   0  0  2  0  0  0  0  0  0  0  0  0
   21.2400   -9.8078  -17.7013 N   0  0  0  0  0  0  0  0  0  0  0  0
   21.5089   -7.7006  -16.5215 C   0  0  0  0  0  0  0  0  0  0  0  0
   20.5566   -7.0613  -17.0361 O   0  0  0  0  0  0  0  0  0  0  0  0
   19.4256   -7.3899  -13.6757 C   0  0  0  0  0  0  0  0  0  0  0  0
   20.5854   -6.4923  -13.2981 C   0  0  1  0  0  0  0  0  0  0  0  0
   21.4636   -7.0880  -12.4201 O   0  0  0  0  0  0  0  0  0  0  0  0
   21.3178   -6.1119  -14.5651 C   0  0  2  0  0  0  0  0  0  0  0  0
   21.9101   -7.2658  -15.2134 N   0  0  0  0  0  0  0  0  0  0  0  0
   22.3470   -5.0624  -14.2956 C   0  0  0  0  0  0  0  0  0  0  0  0
   22.0052   -3.7599  -13.9631 O   0  0  0  0  0  0  0  0  0  0  0  0
   23.5653   -5.3506  -14.3677 O   0  0  0  0  0  0  0  0  0  0  0  0
  2  1  1  0
  2  3  2  0
  4  2  1  0
  5  4  1  0
  6  8  1  0
  6  5  1  0
  6  7  1  1
  8 14  1  0
  9  8  2  0
 11 10  1  1
 11 12  1  0
 13 11  1  0
 13 14  1  6
 15 21  1  0
 15 13  1  0
 16 15  2  0
 18 20  1  0
 18 17  1  6
 19 18  1  0
 20 21  1  1
 20 22  1  0
 22 23  1  0
 24 22  2  0
M  END
$$$$
