QTT.pdb
     RDKit          3D

 24 23  0  0  1  0  0  0  0  0999 V2000
   16.7360  -12.1676  -13.8461 N   0  0  0  0  0  0  0  0  0  0  0  0
   15.8913  -12.0499  -14.9701 C   0  0  0  0  0  0  0  0  0  0  0  0
   14.6637  -12.2002  -14.8334 O   0  0  0  0  0  0  0  0  0  0  0  0
   16.4631  -11.7516  -16.2911 C   0  0  0  0  0  0  0  0  0  0  0  0
   17.9603  -11.6489  -16.1670 C   0  0  0  0  0  0  0  0  0  0  0  0
   18.6168  -11.4145  -17.5182 C   0  0  2  0  0  0  0  0  0  0  0  0
   18.9395  -12.7193  -18.0639 N   0  0  0  0  0  0  0  0  0  0  0  0
   19.8741  -10.6387  -17.2575 C   0  0  0  0  0  0  0  0  0  0  0  0
   20.9994  -11.0535  -17.6469 O   0  0  0  0  0  0  0  0  0  0  0  0
   22.0127   -9.6787  -18.4287 C   0  0  0  0  0  0  0  0  0  0  0  0
   21.6296   -8.3853  -17.7890 C   0  0  1  0  0  0  0  0  0  0  0  0
   20.7531   -7.6953  -18.6128 O   0  0  0  0  0  0  0  0  0  0  0  0
   21.0339   -8.6017  -16.3937 C   0  0  2  0  0  0  0  0  0  0  0  0
   19.8585   -9.4015  -16.5609 N   0  0  0  0  0  0  0  0  0  0  0  0
   20.7635   -7.3051  -15.7300 C   0  0  0  0  0  0  0  0  0  0  0  0
   19.8659   -6.5250  -16.1378 O   0  0  0  0  0  0  0  0  0  0  0  0
   19.5632   -6.8810  -12.3658 C   0  0  0  0  0  0  0  0  0  0  0  0
   20.8023   -6.0107  -12.3885 C   0  0  1  0  0  0  0  0  0  0  0  0
   21.8952   -6.6146  -11.8072 O   0  0  0  0  0  0  0  0  0  0  0  0
   21.1165   -5.6768  -13.8294 C   0  0  2  0  0  0  0  0  0  0  0  0
   21.5016   -6.8534  -14.5845 N   0  0  0  0  0  0  0  0  0  0  0  0
   22.1660   -4.6166  -13.9182 C   0  0  0  0  0  0  0  0  0  0  0  0
   21.9403   -3.3156  -13.4937 O   0  0  0  0  0  0  0  0  0  0  0  0
   23.2945   -4.8942  -14.3894 O   0  0  0  0  0  0  0  0  0  0  0  0
  2  1  1  0
  2  3  2  0
  4  2  1  0
  5  4  1  0
  6  8  1  0
  6  5  1  0
  6  7  1  1
  8 14  1  0
  9  8  2  0
 11 10  1  6
 11 12  1  0
 13 11  1  0
 13 14  1  6
 15 21  1  0
 15 13  1  0
 16 15  2  0
 18 20  1  0
 18 17  1  6
 19 18  1  0
 20 21  1  6
 20 22  1  0
 22 23  1  0
 24 22  2  0
M  END
$$$$
