QTT.pdb
     RDKit          3D

 24 23  0  0  1  0  0  0  0  0999 V2000
   23.3358  -17.3985  -15.9576 N   0  0  0  0  0  0  0  0  0  0  0  0
   23.7184  -17.3265  -17.3137 C   0  0  0  0  0  0  0  0  0  0  0  0
   23.7472  -18.3648  -17.9989 O   0  0  0  0  0  0  0  0  0  0  0  0
   24.0794  -16.0312  -17.9078 C   0  0  0  0  0  0  0  0  0  0  0  0
   23.8846  -14.9478  -16.8803 C   0  0  0  0  0  0  0  0  0  0  0  0
   22.4925  -14.3424  -16.9657 C   0  0  2  0  0  0  0  0  0  0  0  0
   22.3312  -13.8416  -18.3176 N   0  0  0  0  0  0  0  0  0  0  0  0
   22.4558  -13.2063  -15.9866 C   0  0  0  0  0  0  0  0  0  0  0  0
   22.8627  -13.3423  -14.8009 O   0  0  0  0  0  0  0  0  0  0  0  0
   24.0611  -11.7942  -14.4192 C   0  0  0  0  0  0  0  0  0  0  0  0
   23.4785  -10.5902  -15.0827 C   0  0  1  0  0  0  0  0  0  0  0  0
   24.2362  -10.2537  -16.1943 O   0  0  0  0  0  0  0  0  0  0  0  0
   22.0073  -10.8075  -15.4526 C   0  0  2  0  0  0  0  0  0  0  0  0
   21.9620  -11.9246  -16.3466 N   0  0  0  0  0  0  0  0  0  0  0  0
   21.4232   -9.5760  -16.0333 C   0  0  0  0  0  0  0  0  0  0  0  0
   21.5182   -9.3100  -17.2583 O   0  0  0  0  0  0  0  0  0  0  0  0
   17.9418   -6.2482  -16.1682 C   0  0  0  0  0  0  0  0  0  0  0  0
   18.5466   -7.5164  -15.6029 C   0  0  1  0  0  0  0  0  0  0  0  0
   18.0278   -8.6595  -16.1697 O   0  0  0  0  0  0  0  0  0  0  0  0
   20.0399   -7.4700  -15.8357 C   0  0  2  0  0  0  0  0  0  0  0  0
   20.7141   -8.6091  -15.2437 N   0  0  0  0  0  0  0  0  0  0  0  0
   20.6211   -6.1862  -15.3384 C   0  0  0  0  0  0  0  0  0  0  0  0
   20.6978   -5.0523  -16.1335 O   0  0  0  0  0  0  0  0  0  0  0  0
   21.0590   -6.1129  -14.1656 O   0  0  0  0  0  0  0  0  0  0  0  0
  2  1  1  0
  2  3  2  0
  4  2  1  0
  5  4  1  0
  6  8  1  0
  6  5  1  0
  6  7  1  6
  8 14  1  0
  9  8  2  0
 11 10  1  6
 11 12  1  0
 13 11  1  0
 13 14  1  6
 15 21  1  0
 15 13  1  0
 16 15  2  0
 18 20  1  0
 18 17  1  6
 19 18  1  0
 20 21  1  1
 20 22  1  0
 22 23  1  0
 24 22  2  0
M  END
$$$$
