QTT.pdb
     RDKit          3D

 24 23  0  0  1  0  0  0  0  0999 V2000
   15.9962  -14.8675  -15.6615 N   0  0  0  0  0  0  0  0  0  0  0  0
   15.6874  -13.5121  -15.4201 C   0  0  0  0  0  0  0  0  0  0  0  0
   14.9857  -13.2082  -14.4384 O   0  0  0  0  0  0  0  0  0  0  0  0
   16.1938  -12.4704  -16.3253 C   0  0  0  0  0  0  0  0  0  0  0  0
   17.2776  -11.6947  -15.6245 C   0  0  0  0  0  0  0  0  0  0  0  0
   18.5841  -11.7368  -16.4010 C   0  0  2  0  0  0  0  0  0  0  0  0
   19.0273  -13.1182  -16.4091 N   0  0  0  0  0  0  0  0  0  0  0  0
   19.5618  -10.8856  -15.6460 C   0  0  0  0  0  0  0  0  0  0  0  0
   19.7913  -11.0717  -14.4201 O   0  0  0  0  0  0  0  0  0  0  0  0
   23.0365  -10.6575  -16.1491 C   0  0  0  0  0  0  0  0  0  0  0  0
   22.5835   -9.2389  -16.2563 C   0  0  1  0  0  0  0  0  0  0  0  0
   22.5421   -8.8586  -17.5893 O   0  0  0  0  0  0  0  0  0  0  0  0
   21.2292   -9.0268  -15.5712 C   0  0  2  0  0  0  0  0  0  0  0  0
   20.2754   -9.8305  -16.2736 N   0  0  0  0  0  0  0  0  0  0  0  0
   20.8709   -7.5895  -15.5473 C   0  0  0  0  0  0  0  0  0  0  0  0
   19.8114   -7.1607  -16.0708 O   0  0  0  0  0  0  0  0  0  0  0  0
   19.6908   -3.7999  -13.4454 C   0  0  0  0  0  0  0  0  0  0  0  0
   19.9591   -5.2273  -13.8743 C   0  0  1  0  0  0  0  0  0  0  0  0
   18.9361   -5.7658  -14.6231 O   0  0  0  0  0  0  0  0  0  0  0  0
   21.2381   -5.2438  -14.6807 C   0  0  2  0  0  0  0  0  0  0  0  0
   21.7018   -6.5950  -14.9296 N   0  0  0  0  0  0  0  0  0  0  0  0
   22.3003   -4.4267  -14.0193 C   0  0  0  0  0  0  0  0  0  0  0  0
   22.6582   -3.1680  -14.4789 O   0  0  0  0  0  0  0  0  0  0  0  0
   22.8987   -4.8779  -13.0139 O   0  0  0  0  0  0  0  0  0  0  0  0
  2  1  1  0
  2  3  2  0
  4  2  1  0
  5  4  1  0
  6  8  1  0
  6  5  1  0
  6  7  1  1
  8 14  1  0
  9  8  2  0
 11 10  1  6
 11 12  1  0
 13 11  1  0
 13 14  1  6
 15 21  1  0
 15 13  1  0
 16 15  2  0
 18 20  1  0
 18 17  1  6
 19 18  1  0
 20 21  1  1
 20 22  1  0
 22 23  1  0
 24 22  2  0
M  END
$$$$
