TDC.pdb
     RDKit          3D

 22 21  0  0  1  0  0  0  0  0999 V2000
   28.4400  -21.7571  -17.5501 C   0  0  0  0  0  0  0  0  0  0  0  0
   27.0280  -21.7646  -17.0103 C   0  0  1  0  0  0  0  0  0  0  0  0
   26.1380  -22.2885  -17.9148 O   0  0  0  0  0  0  0  0  0  0  0  0
   26.9392  -22.4749  -15.6807 C   0  0  2  0  0  0  0  0  0  0  0  0
   27.3349  -23.8719  -15.8682 N   0  0  0  0  0  0  0  0  0  0  0  0
   25.5995  -22.4647  -15.0827 C   0  0  0  0  0  0  0  0  0  0  0  0
   25.1857  -23.4619  -14.4377 O   0  0  0  0  0  0  0  0  0  0  0  0
   24.7046  -21.3444  -15.1950 N   0  0  0  0  0  0  0  0  0  0  0  0
   23.4244  -21.2627  -14.5330 C   0  0  1  0  0  0  0  0  0  0  0  0
   23.0447  -19.8106  -14.4097 C   0  0  0  0  0  0  0  0  0  0  0  0
   21.7964  -19.7101  -13.6258 C   0  0  0  0  0  0  0  0  0  0  0  0
   21.2628  -20.7023  -13.0812 O   0  0  0  0  0  0  0  0  0  0  0  0
   22.3740  -22.0096  -15.3168 C   0  0  0  0  0  0  0  0  0  0  0  0
   22.7182  -22.4998  -16.4107 O   0  0  0  0  0  0  0  0  0  0  0  0
   21.1449  -18.4830  -13.4544 O   0  0  0  0  0  0  0  0  0  0  0  0
   21.0434  -22.1753  -14.8754 N   0  0  0  0  0  0  0  0  0  0  0  0
   20.0771  -23.0204  -15.5314 C   0  0  1  0  0  0  0  0  0  0  0  0
   20.5808  -24.4548  -15.5741 C   0  0  0  0  0  0  0  0  0  0  0  0
   19.3541  -25.5185  -16.3840 S   0  0  0  0  0  0  0  0  0  0  0  0
   18.7858  -22.9562  -14.8138 C   0  0  0  0  0  0  0  0  0  0  0  0
   17.6092  -22.9996  -15.5415 O   0  0  0  0  0  0  0  0  0  0  0  0
   18.6854  -22.8636  -13.5696 O   0  0  0  0  0  0  0  0  0  0  0  0
  2  1  1  6
  2  4  1  0
  3  2  1  0
  4  6  1  0
  4  5  1  6
  6  7  2  0
  8  9  1  0
  8  6  1  0
  9 13  1  0
 10 11  1  0
  9 10  1  6
 11 15  1  0
 12 11  2  0
 13 14  2  0
 16 13  1  0
 16 17  1  0
 17 20  1  0
 17 18  1  1
 19 18  1  0
 20 22  2  0
 20 21  1  0
M  END
$$$$
