TDC.pdb
     RDKit          3D

 22 21  0  0  1  0  0  0  0  0999 V2000
   16.9513  -10.4602  -14.0030 C   0  0  0  0  0  0  0  0  0  0  0  0
   16.9306  -11.6179  -14.9748 C   0  0  1  0  0  0  0  0  0  0  0  0
   15.7881  -12.3688  -14.8507 O   0  0  0  0  0  0  0  0  0  0  0  0
   17.1318  -11.1587  -16.3992 C   0  0  2  0  0  0  0  0  0  0  0  0
   17.1209  -12.3314  -17.2756 N   0  0  0  0  0  0  0  0  0  0  0  0
   18.3908  -10.4406  -16.6266 C   0  0  0  0  0  0  0  0  0  0  0  0
   19.1720  -10.8052  -17.5423 O   0  0  0  0  0  0  0  0  0  0  0  0
   18.7952   -9.3080  -15.8378 N   0  0  0  0  0  0  0  0  0  0  0  0
   19.9745   -8.5185  -16.1020 C   0  0  1  0  0  0  0  0  0  0  0  0
   19.9651   -8.1212  -17.5546 C   0  0  0  0  0  0  0  0  0  0  0  0
   21.2111   -7.3863  -17.8550 C   0  0  0  0  0  0  0  0  0  0  0  0
   21.2725   -6.4981  -18.7344 O   0  0  0  0  0  0  0  0  0  0  0  0
   19.9963   -7.2896  -15.2274 C   0  0  0  0  0  0  0  0  0  0  0  0
   19.0341   -6.5022  -15.3242 O   0  0  0  0  0  0  0  0  0  0  0  0
   22.3961   -7.6542  -17.1597 O   0  0  0  0  0  0  0  0  0  0  0  0
   21.0382   -6.9967  -14.3210 N   0  0  0  0  0  0  0  0  0  0  0  0
   21.0060   -5.9011  -13.3844 C   0  0  1  0  0  0  0  0  0  0  0  0
   21.5001   -6.3632  -12.0223 C   0  0  0  0  0  0  0  0  0  0  0  0
   20.3575   -7.5924  -11.3328 S   0  0  0  0  0  0  0  0  0  0  0  0
   21.8481   -4.7919  -13.8812 C   0  0  0  0  0  0  0  0  0  0  0  0
   21.8294   -3.5811  -13.2110 O   0  0  0  0  0  0  0  0  0  0  0  0
   22.5897   -4.8778  -14.8859 O   0  0  0  0  0  0  0  0  0  0  0  0
  2  1  1  1
  2  4  1  0
  3  2  1  0
  4  6  1  0
  4  5  1  6
  6  7  2  0
  8  9  1  0
  8  6  1  0
  9 13  1  0
 10 11  1  0
  9 10  1  6
 11 15  1  0
 12 11  2  0
 13 14  2  0
 16 13  1  0
 16 17  1  0
 17 20  1  0
 17 18  1  1
 19 18  1  0
 20 22  2  0
 20 21  1  0
M  END
$$$$
