TDC.pdb
     RDKit          3D

 22 21  0  0  1  0  0  0  0  0999 V2000
   22.6437  -13.7270  -22.0204 C   0  0  0  0  0  0  0  0  0  0  0  0
   22.6215  -12.7853  -20.8381 C   0  0  1  0  0  0  0  0  0  0  0  0
   21.5472  -13.0219  -20.0166 O   0  0  0  0  0  0  0  0  0  0  0  0
   23.9191  -12.8222  -20.0667 C   0  0  2  0  0  0  0  0  0  0  0  0
   24.0680  -14.1476  -19.4630 N   0  0  0  0  0  0  0  0  0  0  0  0
   24.0073  -11.8275  -18.9919 C   0  0  0  0  0  0  0  0  0  0  0  0
   23.7577  -12.1547  -17.8034 O   0  0  0  0  0  0  0  0  0  0  0  0
   24.3745  -10.4569  -19.2269 N   0  0  0  0  0  0  0  0  0  0  0  0
   24.5185   -9.4685  -18.1848 C   0  0  1  0  0  0  0  0  0  0  0  0
   25.4430   -8.3874  -18.6793 C   0  0  0  0  0  0  0  0  0  0  0  0
   25.5878   -7.3650  -17.6227 C   0  0  0  0  0  0  0  0  0  0  0  0
   25.3843   -6.1482  -17.8321 O   0  0  0  0  0  0  0  0  0  0  0  0
   23.1773   -8.8800  -17.8236 C   0  0  0  0  0  0  0  0  0  0  0  0
   22.4865   -8.4188  -18.7538 O   0  0  0  0  0  0  0  0  0  0  0  0
   25.9647   -7.7161  -16.3211 O   0  0  0  0  0  0  0  0  0  0  0  0
   22.6786   -8.8291  -16.5040 N   0  0  0  0  0  0  0  0  0  0  0  0
   21.4222   -8.2222  -16.1411 C   0  0  1  0  0  0  0  0  0  0  0  0
   20.8061   -8.9605  -14.9629 C   0  0  0  0  0  0  0  0  0  0  0  0
   20.5221  -10.6983  -15.4003 S   0  0  0  0  0  0  0  0  0  0  0  0
   21.6335   -6.8000  -15.7957 C   0  0  0  0  0  0  0  0  0  0  0  0
   20.5361   -6.0084  -15.5048 O   0  0  0  0  0  0  0  0  0  0  0  0
   22.7597   -6.2557  -15.7485 O   0  0  0  0  0  0  0  0  0  0  0  0
  2  1  1  6
  2  4  1  0
  3  2  1  0
  4  6  1  0
  4  5  1  1
  6  7  2  0
  8  9  1  0
  8  6  1  0
  9 13  1  0
 10 11  1  0
  9 10  1  6
 11 15  1  0
 12 11  2  0
 13 14  2  0
 16 13  1  0
 16 17  1  0
 17 20  1  0
 17 18  1  1
 19 18  1  0
 20 22  2  0
 20 21  1  0
M  END
$$$$
