TDC.pdb
     RDKit          3D

 22 21  0  0  1  0  0  0  0  0999 V2000
   15.3957  -11.6211  -14.6895 C   0  0  0  0  0  0  0  0  0  0  0  0
   16.5947  -10.7134  -14.8428 C   0  0  1  0  0  0  0  0  0  0  0  0
   17.4798  -10.8560  -13.8032 O   0  0  0  0  0  0  0  0  0  0  0  0
   17.2791  -10.9075  -16.1749 C   0  0  2  0  0  0  0  0  0  0  0  0
   17.8585  -12.2515  -16.2126 N   0  0  0  0  0  0  0  0  0  0  0  0
   18.3556   -9.9474  -16.4426 C   0  0  0  0  0  0  0  0  0  0  0  0
   19.5570  -10.2792  -16.2748 O   0  0  0  0  0  0  0  0  0  0  0  0
   18.1078   -8.6067  -16.9004 N   0  0  0  0  0  0  0  0  0  0  0  0
   19.1459   -7.6449  -17.1855 C   0  0  1  0  0  0  0  0  0  0  0  0
   18.6145   -6.6551  -18.1884 C   0  0  0  0  0  0  0  0  0  0  0  0
   19.6953   -5.7133  -18.5460 C   0  0  0  0  0  0  0  0  0  0  0  0
   19.4871   -4.4957  -18.7460 O   0  0  0  0  0  0  0  0  0  0  0  0
   19.5680   -6.9317  -15.9251 C   0  0  0  0  0  0  0  0  0  0  0  0
   18.6648   -6.5526  -15.1532 O   0  0  0  0  0  0  0  0  0  0  0  0
   21.0197   -6.1466  -18.6790 O   0  0  0  0  0  0  0  0  0  0  0  0
   20.9150   -6.6789  -15.5866 N   0  0  0  0  0  0  0  0  0  0  0  0
   21.3275   -5.9674  -14.4026 C   0  0  1  0  0  0  0  0  0  0  0  0
   22.5415   -6.6426  -13.7834 C   0  0  0  0  0  0  0  0  0  0  0  0
   22.0395   -8.1699  -12.9424 S   0  0  0  0  0  0  0  0  0  0  0  0
   21.6459   -4.5648  -14.7458 C   0  0  0  0  0  0  0  0  0  0  0  0
   21.7391   -3.6286  -13.7308 O   0  0  0  0  0  0  0  0  0  0  0  0
   21.8399   -4.1618  -15.9149 O   0  0  0  0  0  0  0  0  0  0  0  0
  2  1  1  1
  2  4  1  0
  3  2  1  0
  4  6  1  0
  4  5  1  1
  6  7  2  0
  8  9  1  0
  8  6  1  0
  9 13  1  0
 10 11  1  0
  9 10  1  6
 11 15  1  0
 12 11  2  0
 13 14  2  0
 16 13  1  0
 16 17  1  0
 17 20  1  0
 17 18  1  6
 19 18  1  0
 20 22  2  0
 20 21  1  0
M  END
$$$$
