TDC.pdb
     RDKit          3D

 22 21  0  0  1  0  0  0  0  0999 V2000
   14.4390  -10.7982  -15.7179 C   0  0  0  0  0  0  0  0  0  0  0  0
   15.8704  -10.3875  -15.4581 C   0  0  1  0  0  0  0  0  0  0  0  0
   16.0782  -10.0650  -14.1399 O   0  0  0  0  0  0  0  0  0  0  0  0
   16.8494  -11.4380  -15.9254 C   0  0  2  0  0  0  0  0  0  0  0  0
   16.6693  -12.6416  -15.1116 N   0  0  0  0  0  0  0  0  0  0  0  0
   18.2564  -11.0349  -15.8246 C   0  0  0  0  0  0  0  0  0  0  0  0
   18.9197  -11.3021  -14.7900 O   0  0  0  0  0  0  0  0  0  0  0  0
   18.9421  -10.3299  -16.8741 N   0  0  0  0  0  0  0  0  0  0  0  0
   20.2818   -9.8059  -16.7547 C   0  0  1  0  0  0  0  0  0  0  0  0
   20.8757   -9.7002  -18.1346 C   0  0  0  0  0  0  0  0  0  0  0  0
   22.2664   -9.2151  -18.0183 C   0  0  0  0  0  0  0  0  0  0  0  0
   22.5643   -8.0023  -18.0986 O   0  0  0  0  0  0  0  0  0  0  0  0
   20.2638   -8.4511  -16.0917 C   0  0  0  0  0  0  0  0  0  0  0  0
   19.3193   -7.6881  -16.3764 O   0  0  0  0  0  0  0  0  0  0  0  0
   23.3287  -10.1026  -17.8100 O   0  0  0  0  0  0  0  0  0  0  0  0
   21.2502   -8.0164  -15.1802 N   0  0  0  0  0  0  0  0  0  0  0  0
   21.2998   -6.6888  -14.6202 C   0  0  1  0  0  0  0  0  0  0  0  0
   22.1206   -6.6918  -13.3399 C   0  0  0  0  0  0  0  0  0  0  0  0
   22.2213   -5.0109  -12.6644 S   0  0  0  0  0  0  0  0  0  0  0  0
   21.8907   -5.7529  -15.6007 C   0  0  0  0  0  0  0  0  0  0  0  0
   23.0917   -6.0816  -16.2049 O   0  0  0  0  0  0  0  0  0  0  0  0
   21.3665   -4.6637  -15.9257 O   0  0  0  0  0  0  0  0  0  0  0  0
  2  1  1  1
  2  4  1  0
  3  2  1  0
  4  6  1  0
  4  5  1  1
  6  7  2  0
  8  9  1  0
  8  6  1  0
  9 13  1  0
 10 11  1  0
  9 10  1  6
 11 15  1  0
 12 11  2  0
 13 14  2  0
 16 13  1  0
 16 17  1  0
 17 20  1  0
 17 18  1  1
 19 18  1  0
 20 22  2  0
 20 21  1  0
M  END
$$$$
