TDC.pdb
     RDKit          3D

 22 21  0  0  1  0  0  0  0  0999 V2000
   18.9612  -10.4696  -14.8509 C   0  0  0  0  0  0  0  0  0  0  0  0
   17.9069  -11.5490  -14.7607 C   0  0  1  0  0  0  0  0  0  0  0  0
   18.3697  -12.7555  -15.2242 O   0  0  0  0  0  0  0  0  0  0  0  0
   17.3523  -11.6764  -13.3619 C   0  0  2  0  0  0  0  0  0  0  0  0
   16.3922  -12.7814  -13.3372 N   0  0  0  0  0  0  0  0  0  0  0  0
   16.6653  -10.4745  -12.8764 C   0  0  0  0  0  0  0  0  0  0  0  0
   15.6785  -10.0114  -13.5038 O   0  0  0  0  0  0  0  0  0  0  0  0
   17.0681   -9.7737  -11.6868 N   0  0  0  0  0  0  0  0  0  0  0  0
   16.4997   -8.5185  -11.2563 C   0  0  1  0  0  0  0  0  0  0  0  0
   16.6885   -8.3969   -9.7672 C   0  0  0  0  0  0  0  0  0  0  0  0
   15.9363   -7.2196   -9.2867 C   0  0  0  0  0  0  0  0  0  0  0  0
   15.2699   -6.4888  -10.0533 O   0  0  0  0  0  0  0  0  0  0  0  0
   17.1687   -7.3646  -11.9608 C   0  0  0  0  0  0  0  0  0  0  0  0
   18.4127   -7.3015  -11.8997 O   0  0  0  0  0  0  0  0  0  0  0  0
   15.9350   -6.8633   -7.9329 O   0  0  0  0  0  0  0  0  0  0  0  0
   16.4624   -6.3712  -12.6730 N   0  0  0  0  0  0  0  0  0  0  0  0
   17.0952   -5.3123  -13.4192 C   0  0  1  0  0  0  0  0  0  0  0  0
   16.7547   -5.4380  -14.8961 C   0  0  0  0  0  0  0  0  0  0  0  0
   17.5434   -6.9172  -15.5903 S   0  0  0  0  0  0  0  0  0  0  0  0
   16.6487   -4.0001  -12.9044 C   0  0  0  0  0  0  0  0  0  0  0  0
   17.3957   -2.8727  -13.1986 O   0  0  0  0  0  0  0  0  0  0  0  0
   15.6214   -3.8393  -12.2076 O   0  0  0  0  0  0  0  0  0  0  0  0
  2  1  1  1
  2  4  1  0
  3  2  1  0
  4  6  1  0
  4  5  1  6
  6  7  2  0
  8  9  1  0
  8  6  1  0
  9 13  1  0
 10 11  1  0
  9 10  1  1
 11 15  1  0
 12 11  2  0
 13 14  2  0
 16 13  1  0
 16 17  1  0
 17 20  1  0
 17 18  1  6
 19 18  1  0
 20 22  2  0
 20 21  1  0
M  END
$$$$
