TDC.pdb
     RDKit          3D

 22 21  0  0  1  0  0  0  0  0999 V2000
   16.7530  -15.8413  -16.2036 C   0  0  0  0  0  0  0  0  0  0  0  0
   17.2725  -14.5431  -16.7777 C   0  0  1  0  0  0  0  0  0  0  0  0
   16.6338  -14.2092  -17.9462 O   0  0  0  0  0  0  0  0  0  0  0  0
   17.2012  -13.4171  -15.7740 C   0  0  2  0  0  0  0  0  0  0  0  0
   15.7938  -13.1254  -15.4961 N   0  0  0  0  0  0  0  0  0  0  0  0
   17.8374  -12.1729  -16.2209 C   0  0  0  0  0  0  0  0  0  0  0  0
   19.0872  -12.1094  -16.3457 O   0  0  0  0  0  0  0  0  0  0  0  0
   17.0901  -10.9848  -16.5346 N   0  0  0  0  0  0  0  0  0  0  0  0
   17.6841   -9.7583  -17.0108 C   0  0  1  0  0  0  0  0  0  0  0  0
   16.5999   -8.9119  -17.6243 C   0  0  0  0  0  0  0  0  0  0  0  0
   17.2101   -7.6862  -18.1795 C   0  0  0  0  0  0  0  0  0  0  0  0
   17.8468   -7.6806  -19.2567 O   0  0  0  0  0  0  0  0  0  0  0  0
   18.3449   -9.0145  -15.8771 C   0  0  0  0  0  0  0  0  0  0  0  0
   17.7351   -8.9706  -14.7901 O   0  0  0  0  0  0  0  0  0  0  0  0
   17.1019   -6.4583  -17.5162 O   0  0  0  0  0  0  0  0  0  0  0  0
   19.5997   -8.3776  -15.9896 N   0  0  0  0  0  0  0  0  0  0  0  0
   20.2244   -7.6357  -14.9229 C   0  0  1  0  0  0  0  0  0  0  0  0
   21.4941   -8.3398  -14.4702 C   0  0  0  0  0  0  0  0  0  0  0  0
   22.3304   -7.3525  -13.1983 S   0  0  0  0  0  0  0  0  0  0  0  0
   20.5390   -6.2658  -15.3823 C   0  0  0  0  0  0  0  0  0  0  0  0
   20.4882   -5.2234  -14.4732 O   0  0  0  0  0  0  0  0  0  0  0  0
   20.8536   -5.9824  -16.5601 O   0  0  0  0  0  0  0  0  0  0  0  0
  2  1  1  1
  2  4  1  0
  3  2  1  0
  4  6  1  0
  4  5  1  6
  6  7  2  0
  8  9  1  0
  8  6  1  0
  9 13  1  0
 10 11  1  0
  9 10  1  1
 11 15  1  0
 12 11  2  0
 13 14  2  0
 16 13  1  0
 16 17  1  0
 17 20  1  0
 17 18  1  6
 19 18  1  0
 20 22  2  0
 20 21  1  0
M  END
$$$$
