TDC.pdb
     RDKit          3D

 22 21  0  0  1  0  0  0  0  0999 V2000
   21.3753  -13.4535  -18.9232 C   0  0  0  0  0  0  0  0  0  0  0  0
   20.9251  -12.0967  -18.4319 C   0  0  1  0  0  0  0  0  0  0  0  0
   20.4375  -11.3194  -19.4531 O   0  0  0  0  0  0  0  0  0  0  0  0
   19.9257  -12.2107  -17.3057 C   0  0  2  0  0  0  0  0  0  0  0  0
   18.7508  -12.9355  -17.7932 N   0  0  0  0  0  0  0  0  0  0  0  0
   19.4689  -10.9213  -16.7753 C   0  0  0  0  0  0  0  0  0  0  0  0
   18.4791  -10.3396  -17.2887 O   0  0  0  0  0  0  0  0  0  0  0  0
   20.1080  -10.2643  -15.6670 N   0  0  0  0  0  0  0  0  0  0  0  0
   19.6685   -9.0073  -15.1096 C   0  0  1  0  0  0  0  0  0  0  0  0
   18.6981   -9.2950  -13.9945 C   0  0  0  0  0  0  0  0  0  0  0  0
   18.3163   -8.0191  -13.3549 C   0  0  0  0  0  0  0  0  0  0  0  0
   17.7700   -7.0873  -13.9867 O   0  0  0  0  0  0  0  0  0  0  0  0
   20.8438   -8.2203  -14.5854 C   0  0  0  0  0  0  0  0  0  0  0  0
   21.6489   -8.8200  -13.8456 O   0  0  0  0  0  0  0  0  0  0  0  0
   18.5517   -7.7916  -11.9939 O   0  0  0  0  0  0  0  0  0  0  0  0
   21.0687   -6.8602  -14.8894 N   0  0  0  0  0  0  0  0  0  0  0  0
   22.2035   -6.1068  -14.4170 C   0  0  1  0  0  0  0  0  0  0  0  0
   22.8303   -5.3308  -15.5650 C   0  0  0  0  0  0  0  0  0  0  0  0
   23.4883   -6.4811  -16.8043 S   0  0  0  0  0  0  0  0  0  0  0  0
   21.7788   -5.1781  -13.3476 C   0  0  0  0  0  0  0  0  0  0  0  0
   22.6398   -4.9277  -12.2933 O   0  0  0  0  0  0  0  0  0  0  0  0
   20.6722   -4.5934  -13.3333 O   0  0  0  0  0  0  0  0  0  0  0  0
  2  1  1  6
  2  4  1  0
  3  2  1  0
  4  6  1  0
  4  5  1  6
  6  7  2  0
  8  9  1  0
  8  6  1  0
  9 13  1  0
 10 11  1  0
  9 10  1  1
 11 15  1  0
 12 11  2  0
 13 14  2  0
 16 13  1  0
 16 17  1  0
 17 20  1  0
 17 18  1  6
 19 18  1  0
 20 22  2  0
 20 21  1  0
M  END
$$$$
