TDC.pdb
     RDKit          3D

 22 21  0  0  1  0  0  0  0  0999 V2000
   22.7331  -20.7354  -12.0906 C   0  0  0  0  0  0  0  0  0  0  0  0
   23.3136  -20.6023  -10.7013 C   0  0  1  0  0  0  0  0  0  0  0  0
   22.4585  -21.0852   -9.7419 O   0  0  0  0  0  0  0  0  0  0  0  0
   24.6743  -21.2488  -10.5971 C   0  0  2  0  0  0  0  0  0  0  0  0
   25.2049  -21.0103   -9.2537 N   0  0  0  0  0  0  0  0  0  0  0  0
   25.6554  -20.7423  -11.5632 C   0  0  0  0  0  0  0  0  0  0  0  0
   26.4478  -19.8214  -11.2382 O   0  0  0  0  0  0  0  0  0  0  0  0
   25.7664  -21.2548  -12.9024 N   0  0  0  0  0  0  0  0  0  0  0  0
   26.6547  -20.7145  -13.9038 C   0  0  1  0  0  0  0  0  0  0  0  0
   26.9409  -21.7917  -14.9166 C   0  0  0  0  0  0  0  0  0  0  0  0
   27.9421  -21.2866  -15.8785 C   0  0  0  0  0  0  0  0  0  0  0  0
   28.3420  -20.1009  -15.8723 O   0  0  0  0  0  0  0  0  0  0  0  0
   26.0281  -19.5199  -14.5790 C   0  0  0  0  0  0  0  0  0  0  0  0
   24.8429  -19.6304  -14.9512 O   0  0  0  0  0  0  0  0  0  0  0  0
   28.4966  -22.1235  -16.8541 O   0  0  0  0  0  0  0  0  0  0  0  0
   26.7108  -18.3050  -14.8040 N   0  0  0  0  0  0  0  0  0  0  0  0
   26.0981  -17.1309  -15.3738 C   0  0  1  0  0  0  0  0  0  0  0  0
   26.7729  -15.8773  -14.8389 C   0  0  0  0  0  0  0  0  0  0  0  0
   26.1150  -14.4116  -15.6819 S   0  0  0  0  0  0  0  0  0  0  0  0
   26.2037  -17.1756  -16.8480 C   0  0  0  0  0  0  0  0  0  0  0  0
   25.1252  -16.7649  -17.6122 O   0  0  0  0  0  0  0  0  0  0  0  0
   27.2224  -17.5672  -17.4607 O   0  0  0  0  0  0  0  0  0  0  0  0
  2  1  1  6
  2  4  1  0
  3  2  1  0
  4  6  1  0
  4  5  1  1
  6  7  2  0
  8  9  1  0
  8  6  1  0
  9 13  1  0
 10 11  1  0
  9 10  1  6
 11 15  1  0
 12 11  2  0
 13 14  2  0
 16 13  1  0
 16 17  1  0
 17 20  1  0
 17 18  1  1
 19 18  1  0
 20 22  2  0
 20 21  1  0
M  END
$$$$
