TDC.pdb
     RDKit          3D

 22 21  0  0  1  0  0  0  0  0999 V2000
   16.3971  -11.9196  -17.9368 C   0  0  0  0  0  0  0  0  0  0  0  0
   17.4273  -11.0769  -17.2203 C   0  0  1  0  0  0  0  0  0  0  0  0
   16.9858  -10.6703  -15.9856 O   0  0  0  0  0  0  0  0  0  0  0  0
   18.7586  -11.7825  -17.1204 C   0  0  2  0  0  0  0  0  0  0  0  0
   18.5844  -13.0025  -16.3301 N   0  0  0  0  0  0  0  0  0  0  0  0
   19.8150  -10.9852  -16.4873 C   0  0  0  0  0  0  0  0  0  0  0  0
   20.0256  -11.0796  -15.2510 O   0  0  0  0  0  0  0  0  0  0  0  0
   20.6496  -10.0734  -17.2227 N   0  0  0  0  0  0  0  0  0  0  0  0
   21.6592   -9.2361  -16.6198 C   0  0  1  0  0  0  0  0  0  0  0  0
   22.6765   -8.8847  -17.6732 C   0  0  0  0  0  0  0  0  0  0  0  0
   23.5443  -10.0575  -17.9066 C   0  0  0  0  0  0  0  0  0  0  0  0
   23.8927  -10.8300  -16.9859 O   0  0  0  0  0  0  0  0  0  0  0  0
   21.0398   -7.9812  -16.0567 C   0  0  0  0  0  0  0  0  0  0  0  0
   20.1420   -7.4358  -16.7289 O   0  0  0  0  0  0  0  0  0  0  0  0
   24.0227  -10.3619  -19.1865 O   0  0  0  0  0  0  0  0  0  0  0  0
   21.4240   -7.4074  -14.8255 N   0  0  0  0  0  0  0  0  0  0  0  0
   20.8446   -6.2040  -14.2826 C   0  0  1  0  0  0  0  0  0  0  0  0
   19.8081   -6.5535  -13.2260 C   0  0  0  0  0  0  0  0  0  0  0  0
   20.5242   -7.6922  -12.0083 S   0  0  0  0  0  0  0  0  0  0  0  0
   21.9052   -5.3581  -13.6943 C   0  0  0  0  0  0  0  0  0  0  0  0
   21.5668   -4.1222  -13.1713 O   0  0  0  0  0  0  0  0  0  0  0  0
   23.1100   -5.6926  -13.6373 O   0  0  0  0  0  0  0  0  0  0  0  0
  2  1  1  1
  2  4  1  0
  3  2  1  0
  4  6  1  0
  4  5  1  1
  6  7  2  0
  8  9  1  0
  8  6  1  0
  9 13  1  0
 10 11  1  0
  9 10  1  6
 11 15  1  0
 12 11  2  0
 13 14  2  0
 16 13  1  0
 16 17  1  0
 17 20  1  0
 17 18  1  1
 19 18  1  0
 20 22  2  0
 20 21  1  0
M  END
$$$$
