TDC.pdb
     RDKit          3D

 22 21  0  0  1  0  0  0  0  0999 V2000
   16.0096  -12.6121  -14.4476 C   0  0  0  0  0  0  0  0  0  0  0  0
   16.8925  -11.4360  -14.7972 C   0  0  1  0  0  0  0  0  0  0  0  0
   18.1907  -11.8211  -15.0232 O   0  0  0  0  0  0  0  0  0  0  0  0
   16.3439  -10.6495  -15.9636 C   0  0  2  0  0  0  0  0  0  0  0  0
   16.3548  -11.5044  -17.1521 N   0  0  0  0  0  0  0  0  0  0  0  0
   17.1029   -9.4341  -16.2786 C   0  0  0  0  0  0  0  0  0  0  0  0
   17.7066   -9.3306  -17.3770 O   0  0  0  0  0  0  0  0  0  0  0  0
   17.1988   -8.3193  -15.3749 N   0  0  0  0  0  0  0  0  0  0  0  0
   17.9117   -7.0990  -15.6692 C   0  0  1  0  0  0  0  0  0  0  0  0
   16.9293   -5.9577  -15.6485 C   0  0  0  0  0  0  0  0  0  0  0  0
   17.6328   -4.7173  -16.0351 C   0  0  0  0  0  0  0  0  0  0  0  0
   18.6142   -4.7150  -16.8113 O   0  0  0  0  0  0  0  0  0  0  0  0
   19.0022   -6.8644  -14.6538 C   0  0  0  0  0  0  0  0  0  0  0  0
   18.6795   -6.9015  -13.4497 O   0  0  0  0  0  0  0  0  0  0  0  0
   17.2274   -3.4709  -15.5435 O   0  0  0  0  0  0  0  0  0  0  0  0
   20.3469   -6.6093  -14.9993 N   0  0  0  0  0  0  0  0  0  0  0  0
   21.3954   -6.3785  -14.0371 C   0  0  1  0  0  0  0  0  0  0  0  0
   22.6636   -7.1024  -14.4622 C   0  0  0  0  0  0  0  0  0  0  0  0
   22.4164   -8.8970  -14.3608 S   0  0  0  0  0  0  0  0  0  0  0  0
   21.6544   -4.9277  -13.9160 C   0  0  0  0  0  0  0  0  0  0  0  0
   22.4691   -4.4731  -12.8937 O   0  0  0  0  0  0  0  0  0  0  0  0
   21.1767   -4.0689  -14.6912 O   0  0  0  0  0  0  0  0  0  0  0  0
  2  1  1  6
  2  4  1  0
  3  2  1  0
  4  6  1  0
  4  5  1  6
  6  7  2  0
  8  9  1  0
  8  6  1  0
  9 13  1  0
 10 11  1  0
  9 10  1  1
 11 15  1  0
 12 11  2  0
 13 14  2  0
 16 13  1  0
 16 17  1  0
 17 20  1  0
 17 18  1  6
 19 18  1  0
 20 22  2  0
 20 21  1  0
M  END
$$$$
