TDC.pdb
     RDKit          3D

 22 21  0  0  1  0  0  0  0  0999 V2000
   26.8799  -25.7546  -17.3102 C   0  0  0  0  0  0  0  0  0  0  0  0
   25.5698  -25.0121  -17.1774 C   0  0  1  0  0  0  0  0  0  0  0  0
   24.5091  -25.7648  -17.6168 O   0  0  0  0  0  0  0  0  0  0  0  0
   25.3444  -24.5190  -15.7680 C   0  0  2  0  0  0  0  0  0  0  0  0
   24.7575  -25.6042  -14.9800 N   0  0  0  0  0  0  0  0  0  0  0  0
   24.4490  -23.3607  -15.6730 C   0  0  0  0  0  0  0  0  0  0  0  0
   24.5567  -22.4079  -16.4869 O   0  0  0  0  0  0  0  0  0  0  0  0
   23.4230  -23.2492  -14.6714 N   0  0  0  0  0  0  0  0  0  0  0  0
   22.6248  -22.0651  -14.4600 C   0  0  1  0  0  0  0  0  0  0  0  0
   21.3580  -22.4660  -13.7511 C   0  0  0  0  0  0  0  0  0  0  0  0
   20.4783  -21.2838  -13.6438 C   0  0  0  0  0  0  0  0  0  0  0  0
   20.5097  -20.3451  -14.4707 O   0  0  0  0  0  0  0  0  0  0  0  0
   23.3836  -21.0546  -13.6363 C   0  0  0  0  0  0  0  0  0  0  0  0
   22.7285  -20.3720  -12.8238 O   0  0  0  0  0  0  0  0  0  0  0  0
   19.5568  -21.1587  -12.5976 O   0  0  0  0  0  0  0  0  0  0  0  0
   24.7765  -20.8510  -13.7423 N   0  0  0  0  0  0  0  0  0  0  0  0
   25.6433  -20.6133  -12.6150 C   0  0  1  0  0  0  0  0  0  0  0  0
   25.4904  -21.7296  -11.5935 C   0  0  0  0  0  0  0  0  0  0  0  0
   25.9406  -21.1253   -9.9431 S   0  0  0  0  0  0  0  0  0  0  0  0
   27.0474  -20.5302  -13.0710 C   0  0  0  0  0  0  0  0  0  0  0  0
   27.9296  -19.7126  -12.3862 O   0  0  0  0  0  0  0  0  0  0  0  0
   27.4983  -21.1620  -14.0530 O   0  0  0  0  0  0  0  0  0  0  0  0
  2  1  1  1
  2  4  1  0
  3  2  1  0
  4  6  1  0
  4  5  1  1
  6  7  2  0
  8  9  1  0
  8  6  1  0
  9 13  1  0
 10 11  1  0
  9 10  1  1
 11 15  1  0
 12 11  2  0
 13 14  2  0
 16 13  1  0
 16 17  1  0
 17 20  1  0
 17 18  1  1
 19 18  1  0
 20 22  2  0
 20 21  1  0
M  END
$$$$
