TDC.pdb
     RDKit          3D

 22 21  0  0  1  0  0  0  0  0999 V2000
   15.2691   -8.5333  -15.2191 C   0  0  0  0  0  0  0  0  0  0  0  0
   15.0026   -9.9158  -14.6691 C   0  0  1  0  0  0  0  0  0  0  0  0
   13.6759  -10.2561  -14.7630 O   0  0  0  0  0  0  0  0  0  0  0  0
   15.8821  -10.9575  -15.3186 C   0  0  2  0  0  0  0  0  0  0  0  0
   15.6004  -12.2569  -14.7058 N   0  0  0  0  0  0  0  0  0  0  0  0
   17.3199  -10.6995  -15.1818 C   0  0  0  0  0  0  0  0  0  0  0  0
   17.8708  -10.7641  -14.0530 O   0  0  0  0  0  0  0  0  0  0  0  0
   18.1616  -10.3668  -16.2995 N   0  0  0  0  0  0  0  0  0  0  0  0
   19.5689  -10.0649  -16.1901 C   0  0  1  0  0  0  0  0  0  0  0  0
   20.2021  -10.2525  -17.5436 C   0  0  0  0  0  0  0  0  0  0  0  0
   21.6658  -10.1029  -17.4091 C   0  0  0  0  0  0  0  0  0  0  0  0
   22.2279   -9.9595  -16.3003 O   0  0  0  0  0  0  0  0  0  0  0  0
   19.7715   -8.6480  -15.7137 C   0  0  0  0  0  0  0  0  0  0  0  0
   19.0487   -7.7663  -16.2192 O   0  0  0  0  0  0  0  0  0  0  0  0
   22.5018  -10.1150  -18.5318 O   0  0  0  0  0  0  0  0  0  0  0  0
   20.7250   -8.2824  -14.7391 N   0  0  0  0  0  0  0  0  0  0  0  0
   20.9521   -6.9269  -14.3038 C   0  0  1  0  0  0  0  0  0  0  0  0
   21.9789   -6.9031  -13.1822 C   0  0  0  0  0  0  0  0  0  0  0  0
   22.2221   -5.2018  -12.6006 S   0  0  0  0  0  0  0  0  0  0  0  0
   21.4224   -6.1072  -15.4411 C   0  0  0  0  0  0  0  0  0  0  0  0
   22.4389   -6.5928  -16.2451 O   0  0  0  0  0  0  0  0  0  0  0  0
   20.9531   -4.9831  -15.7292 O   0  0  0  0  0  0  0  0  0  0  0  0
  2  1  1  6
  2  4  1  0
  3  2  1  0
  4  6  1  0
  4  5  1  1
  6  7  2  0
  8  9  1  0
  8  6  1  0
  9 13  1  0
 10 11  1  0
  9 10  1  6
 11 15  1  0
 12 11  2  0
 13 14  2  0
 16 13  1  0
 16 17  1  0
 17 20  1  0
 17 18  1  1
 19 18  1  0
 20 22  2  0
 20 21  1  0
M  END
$$$$
