TDC.pdb
     RDKit          3D

 22 21  0  0  1  0  0  0  0  0999 V2000
   16.4021   -8.9681  -10.8978 C   0  0  0  0  0  0  0  0  0  0  0  0
   16.3226  -10.3418  -11.5235 C   0  0  1  0  0  0  0  0  0  0  0  0
   15.6075  -11.2175  -10.7446 O   0  0  0  0  0  0  0  0  0  0  0  0
   15.7750  -10.2873  -12.9297 C   0  0  2  0  0  0  0  0  0  0  0  0
   15.7157  -11.6496  -13.4628 N   0  0  0  0  0  0  0  0  0  0  0  0
   16.5757   -9.4781  -13.8551 C   0  0  0  0  0  0  0  0  0  0  0  0
   17.6067   -9.9607  -14.3898 O   0  0  0  0  0  0  0  0  0  0  0  0
   16.2384   -8.1223  -14.1967 N   0  0  0  0  0  0  0  0  0  0  0  0
   17.0413   -7.2802  -15.0511 C   0  0  1  0  0  0  0  0  0  0  0  0
   16.1221   -6.3645  -15.8156 C   0  0  0  0  0  0  0  0  0  0  0  0
   15.3629   -7.1647  -16.7986 C   0  0  0  0  0  0  0  0  0  0  0  0
   15.9153   -7.7638  -17.7482 O   0  0  0  0  0  0  0  0  0  0  0  0
   18.0170   -6.4718  -14.2326 C   0  0  0  0  0  0  0  0  0  0  0  0
   17.5641   -5.8576  -13.2462 O   0  0  0  0  0  0  0  0  0  0  0  0
   13.9715   -7.2906  -16.7108 O   0  0  0  0  0  0  0  0  0  0  0  0
   19.3944   -6.3811  -14.5281 N   0  0  0  0  0  0  0  0  0  0  0  0
   20.3365   -5.6180  -13.7479 C   0  0  1  0  0  0  0  0  0  0  0  0
   21.6857   -6.3196  -13.7249 C   0  0  0  0  0  0  0  0  0  0  0  0
   22.8930   -5.3116  -12.8202 S   0  0  0  0  0  0  0  0  0  0  0  0
   20.4785   -4.2617  -14.3195 C   0  0  0  0  0  0  0  0  0  0  0  0
   20.5391   -4.1143  -15.6943 O   0  0  0  0  0  0  0  0  0  0  0  0
   20.5486   -3.2199  -13.6292 O   0  0  0  0  0  0  0  0  0  0  0  0
  2  1  1  1
  2  4  1  0
  3  2  1  0
  4  6  1  0
  4  5  1  6
  6  7  2  0
  8  9  1  0
  8  6  1  0
  9 13  1  0
 10 11  1  0
  9 10  1  1
 11 15  1  0
 12 11  2  0
 13 14  2  0
 16 13  1  0
 16 17  1  0
 17 20  1  0
 17 18  1  6
 19 18  1  0
 20 22  2  0
 20 21  1  0
M  END
$$$$
