TDC.pdb
     RDKit          3D

 22 21  0  0  1  0  0  0  0  0999 V2000
   24.5357   -9.1743  -21.0886 C   0  0  0  0  0  0  0  0  0  0  0  0
   23.6318   -8.8540  -19.9201 C   0  0  1  0  0  0  0  0  0  0  0  0
   22.4957   -9.6246  -19.9266 O   0  0  0  0  0  0  0  0  0  0  0  0
   24.3594   -8.9627  -18.6013 C   0  0  2  0  0  0  0  0  0  0  0  0
   24.8374  -10.3372  -18.4417 N   0  0  0  0  0  0  0  0  0  0  0  0
   23.5356   -8.6358  -17.4322 C   0  0  0  0  0  0  0  0  0  0  0  0
   22.8973   -9.5393  -16.8339 O   0  0  0  0  0  0  0  0  0  0  0  0
   23.4125   -7.2994  -16.9149 N   0  0  0  0  0  0  0  0  0  0  0  0
   22.6367   -6.9525  -15.7480 C   0  0  1  0  0  0  0  0  0  0  0  0
   22.9191   -5.5149  -15.3994 C   0  0  0  0  0  0  0  0  0  0  0  0
   22.1941   -5.1751  -14.1578 C   0  0  0  0  0  0  0  0  0  0  0  0
   21.5874   -4.0908  -14.0088 O   0  0  0  0  0  0  0  0  0  0  0  0
   21.1642   -7.1427  -16.0150 C   0  0  0  0  0  0  0  0  0  0  0  0
   20.6987   -6.6215  -17.0479 O   0  0  0  0  0  0  0  0  0  0  0  0
   22.1526   -6.0631  -13.0765 O   0  0  0  0  0  0  0  0  0  0  0  0
   20.3056   -7.8710  -15.1634 N   0  0  0  0  0  0  0  0  0  0  0  0
   18.8932   -8.0402  -15.3978 C   0  0  1  0  0  0  0  0  0  0  0  0
   18.4267   -9.3752  -14.8382 C   0  0  0  0  0  0  0  0  0  0  0  0
   16.6292   -9.5327  -15.0281 S   0  0  0  0  0  0  0  0  0  0  0  0
   18.1438   -6.9338  -14.7647 C   0  0  0  0  0  0  0  0  0  0  0  0
   18.5091   -6.5125  -13.4980 O   0  0  0  0  0  0  0  0  0  0  0  0
   17.1839   -6.3431  -15.3090 O   0  0  0  0  0  0  0  0  0  0  0  0
  2  1  1  6
  2  4  1  0
  3  2  1  0
  4  6  1  0
  4  5  1  1
  6  7  2  0
  8  9  1  0
  8  6  1  0
  9 13  1  0
 10 11  1  0
  9 10  1  6
 11 15  1  0
 12 11  2  0
 13 14  2  0
 16 13  1  0
 16 17  1  0
 17 20  1  0
 17 18  1  1
 19 18  1  0
 20 22  2  0
 20 21  1  0
M  END
$$$$
