EPF.pdb
     RDKit          3D

 28 29  0  0  1  0  0  0  0  0999 V2000
    9.6690  -17.6533   17.6423 N   0  0  0  0  0  0  0  0  0  0  0  0
    9.8710  -18.2439   18.9401 C   0  0  1  0  0  0  0  0  0  0  0  0
   11.3637  -18.4192   19.1593 C   0  0  0  0  0  0  0  0  0  0  0  0
   11.5999  -18.9215   20.5452 C   0  0  0  0  0  0  0  0  0  0  0  0
   13.0576  -19.0922   20.8295 C   0  0  0  0  0  0  0  0  0  0  0  0
   13.5147  -20.2320   21.0468 O   0  0  0  0  0  0  0  0  0  0  0  0
    9.2867  -17.4905   20.0468 C   0  0  0  0  0  0  0  0  0  0  0  0
    9.5358  -16.2414   20.0994 O   0  0  0  0  0  0  0  0  0  0  0  0
   13.9064  -18.0086   20.8553 O   0  0  0  0  0  0  0  0  0  0  0  0
    8.4732  -18.0189   21.0610 N   0  0  0  0  0  0  0  0  0  0  0  0
    8.2733  -19.3830   21.4202 C   0  0  0  0  0  0  0  0  0  0  0  0
    6.7570  -19.4570   21.6502 C   0  0  0  0  0  0  0  0  0  0  0  0
    6.4075  -18.0706   22.0634 C   0  0  0  0  0  0  0  0  0  0  0  0
    7.6251  -17.2326   21.9629 C   0  0  1  0  0  0  0  0  0  0  0  0
    8.3600  -17.0477   23.2115 C   0  0  0  0  0  0  0  0  0  0  0  0
    9.0995  -17.9664   23.6488 O   0  0  0  0  0  0  0  0  0  0  0  0
    8.2905  -15.8544   23.9910 N   0  0  0  0  0  0  0  0  0  0  0  0
    9.1616  -15.6716   25.1391 C   0  0  1  0  0  0  0  0  0  0  0  0
    9.3659  -14.2042   25.3565 C   0  0  0  0  0  0  0  0  0  0  0  0
    8.1560  -13.4593   25.7372 C   0  0  0  0  0  0  0  0  0  0  0  0
    7.1648  -13.1826   24.8215 C   0  0  0  0  0  0  0  0  0  0  0  0
    6.0363  -12.4774   25.2247 C   0  0  0  0  0  0  0  0  0  0  0  0
    5.9111  -12.0587   26.5301 C   0  0  0  0  0  0  0  0  0  0  0  0
    6.8951  -12.3262   27.4652 C   0  0  0  0  0  0  0  0  0  0  0  0
    8.0201  -13.0341   27.0455 C   0  0  0  0  0  0  0  0  0  0  0  0
    8.5966  -16.3608   26.3202 C   0  0  0  0  0  0  0  0  0  0  0  0
    9.3885  -16.6169   27.4271 O   0  0  0  0  0  0  0  0  0  0  0  0
    7.3972  -16.7324   26.3589 O   0  0  0  0  0  0  0  0  0  0  0  0
  2  1  1  6
  2  3  1  0
  2  7  1  0
  4  3  1  0
  5  6  2  0
  5  4  1  0
  7  8  2  0
  7 10  1  0
  9  5  1  0
 10 14  1  0
 10 11  1  0
 12 11  1  0
 13 14  1  0
 13 12  1  0
 15 16  2  0
 14 15  1  1
 17 15  1  0
 18 26  1  0
 18 17  1  0
 18 19  1  1
 20 19  1  0
 21 20  2  0
 22 21  1  0
 23 24  1  0
 23 22  2  0
 24 25  2  0
 25 20  1  0
 26 27  1  0
 28 26  2  0
M  END
$$$$
