EPF.pdb
     RDKit          3D

 28 29  0  0  1  0  0  0  0  0999 V2000
    8.9547  -17.2682   17.8284 N   0  0  0  0  0  0  0  0  0  0  0  0
    8.7170  -18.0916   18.9856 C   0  0  1  0  0  0  0  0  0  0  0  0
    9.9837  -18.8745   19.2847 C   0  0  0  0  0  0  0  0  0  0  0  0
   10.7978  -18.9841   18.0380 C   0  0  0  0  0  0  0  0  0  0  0  0
   12.1134  -19.6461   18.2945 C   0  0  0  0  0  0  0  0  0  0  0  0
   12.9543  -19.0856   19.0255 O   0  0  0  0  0  0  0  0  0  0  0  0
    8.2883  -17.3582   20.1740 C   0  0  0  0  0  0  0  0  0  0  0  0
    8.5155  -16.1042   20.2004 O   0  0  0  0  0  0  0  0  0  0  0  0
   12.4131  -20.8679   17.7355 O   0  0  0  0  0  0  0  0  0  0  0  0
    7.6469  -17.9110   21.2933 N   0  0  0  0  0  0  0  0  0  0  0  0
    7.4863  -19.2840   21.6380 C   0  0  0  0  0  0  0  0  0  0  0  0
    6.0288  -19.3477   22.1168 C   0  0  0  0  0  0  0  0  0  0  0  0
    5.7775  -17.9719   22.6260 C   0  0  0  0  0  0  0  0  0  0  0  0
    6.9756  -17.1455   22.3490 C   0  0  1  0  0  0  0  0  0  0  0  0
    7.9122  -17.0118   23.4616 C   0  0  0  0  0  0  0  0  0  0  0  0
    8.7268  -17.9364   23.7137 O   0  0  0  0  0  0  0  0  0  0  0  0
    7.9637  -15.8634   24.3073 N   0  0  0  0  0  0  0  0  0  0  0  0
    9.0800  -15.6659   25.2158 C   0  0  1  0  0  0  0  0  0  0  0  0
    9.2629  -14.1963   25.4373 C   0  0  0  0  0  0  0  0  0  0  0  0
    8.0939  -13.5038   26.0008 C   0  0  0  0  0  0  0  0  0  0  0  0
    7.9208  -13.3773   27.3616 C   0  0  0  0  0  0  0  0  0  0  0  0
    6.8020  -12.7128   27.8515 C   0  0  0  0  0  0  0  0  0  0  0  0
    5.8740  -12.1853   26.9823 C   0  0  0  0  0  0  0  0  0  0  0  0
    6.0291  -12.3015   25.6124 C   0  0  0  0  0  0  0  0  0  0  0  0
    7.1559  -12.9703   25.1369 C   0  0  0  0  0  0  0  0  0  0  0  0
    8.8541  -16.4187   26.4693 C   0  0  0  0  0  0  0  0  0  0  0  0
    9.8783  -16.5716   27.3889 O   0  0  0  0  0  0  0  0  0  0  0  0
    7.7424  -16.9381   26.7384 O   0  0  0  0  0  0  0  0  0  0  0  0
  2  1  1  6
  2  3  1  0
  2  7  1  0
  4  3  1  0
  5  6  2  0
  5  4  1  0
  7  8  2  0
  7 10  1  0
  9  5  1  0
 10 14  1  0
 10 11  1  0
 12 11  1  0
 13 14  1  0
 13 12  1  0
 15 16  2  0
 14 15  1  1
 17 15  1  0
 18 26  1  0
 18 17  1  0
 18 19  1  1
 20 19  1  0
 21 20  2  0
 22 21  1  0
 23 24  1  0
 23 22  2  0
 24 25  2  0
 25 20  1  0
 26 27  1  0
 28 26  2  0
M  END
$$$$
