EPF.pdb
     RDKit          3D

 28 29  0  0  1  0  0  0  0  0999 V2000
   11.6977  -14.6234   18.5013 N   0  0  0  0  0  0  0  0  0  0  0  0
   10.6448  -15.4844   18.9745 C   0  0  1  0  0  0  0  0  0  0  0  0
   11.2204  -16.8744   19.1831 C   0  0  0  0  0  0  0  0  0  0  0  0
   12.4564  -16.7734   20.0144 C   0  0  0  0  0  0  0  0  0  0  0  0
   13.0229  -18.1211   20.3269 C   0  0  0  0  0  0  0  0  0  0  0  0
   14.0565  -18.2108   21.0191 O   0  0  0  0  0  0  0  0  0  0  0  0
    9.9886  -15.0248   20.1960 C   0  0  0  0  0  0  0  0  0  0  0  0
   10.5948  -14.1432   20.8889 O   0  0  0  0  0  0  0  0  0  0  0  0
   12.4207  -19.2684   19.8618 O   0  0  0  0  0  0  0  0  0  0  0  0
    8.7470  -15.4676   20.6777 N   0  0  0  0  0  0  0  0  0  0  0  0
    7.9627  -16.5706   20.2327 C   0  0  0  0  0  0  0  0  0  0  0  0
    6.5394  -15.9947   20.2199 C   0  0  0  0  0  0  0  0  0  0  0  0
    6.5912  -14.9365   21.2651 C   0  0  0  0  0  0  0  0  0  0  0  0
    7.9841  -14.8368   21.7599 C   0  0  1  0  0  0  0  0  0  0  0  0
    8.2646  -15.5763   22.9878 C   0  0  0  0  0  0  0  0  0  0  0  0
    8.6460  -16.7735   22.9286 O   0  0  0  0  0  0  0  0  0  0  0  0
    8.1293  -15.0099   24.2906 N   0  0  0  0  0  0  0  0  0  0  0  0
    8.5791  -15.7406   25.4629 C   0  0  1  0  0  0  0  0  0  0  0  0
    8.6166  -14.8005   26.6279 C   0  0  0  0  0  0  0  0  0  0  0  0
    7.5585  -13.7788   26.6346 C   0  0  0  0  0  0  0  0  0  0  0  0
    6.2447  -14.1067   26.8879 C   0  0  0  0  0  0  0  0  0  0  0  0
    5.2766  -13.1087   26.8868 C   0  0  0  0  0  0  0  0  0  0  0  0
    5.6291  -11.8022   26.6342 C   0  0  0  0  0  0  0  0  0  0  0  0
    6.9426  -11.4519   26.3775 C   0  0  0  0  0  0  0  0  0  0  0  0
    7.9014  -12.4637   26.3822 C   0  0  0  0  0  0  0  0  0  0  0  0
    7.7107  -16.9163   25.6927 C   0  0  0  0  0  0  0  0  0  0  0  0
    6.5708  -17.1052   24.9293 O   0  0  0  0  0  0  0  0  0  0  0  0
    7.9732  -17.7706   26.5756 O   0  0  0  0  0  0  0  0  0  0  0  0
  2  1  1  1
  2  3  1  0
  2  7  1  0
  4  3  1  0
  5  6  2  0
  5  4  1  0
  7  8  2  0
  7 10  1  0
  9  5  1  0
 10 14  1  0
 10 11  1  0
 12 11  1  0
 13 14  1  0
 13 12  1  0
 15 16  2  0
 14 15  1  1
 17 15  1  0
 18 26  1  0
 18 17  1  0
 18 19  1  1
 20 19  1  0
 21 20  2  0
 22 21  1  0
 23 24  1  0
 23 22  2  0
 24 25  2  0
 25 20  1  0
 26 27  1  0
 28 26  2  0
M  END
$$$$
