EPF.pdb
     RDKit          3D

 28 29  0  0  1  0  0  0  0  0999 V2000
   11.9636  -16.4711   19.3942 N   0  0  0  0  0  0  0  0  0  0  0  0
   10.5934  -16.8306   19.6535 C   0  0  1  0  0  0  0  0  0  0  0  0
   10.5271  -18.3306   19.8826 C   0  0  0  0  0  0  0  0  0  0  0  0
   11.8078  -18.9521   19.4328 C   0  0  0  0  0  0  0  0  0  0  0  0
   11.9407  -20.3583   19.9225 C   0  0  0  0  0  0  0  0  0  0  0  0
   13.0216  -20.9632   19.7766 O   0  0  0  0  0  0  0  0  0  0  0  0
    9.9834  -16.1241   20.7771 C   0  0  0  0  0  0  0  0  0  0  0  0
   10.7555  -15.4401   21.5260 O   0  0  0  0  0  0  0  0  0  0  0  0
   10.8864  -20.9986   20.5337 O   0  0  0  0  0  0  0  0  0  0  0  0
    8.6196  -16.1302   21.1081 N   0  0  0  0  0  0  0  0  0  0  0  0
    7.5665  -16.8922   20.5249 C   0  0  0  0  0  0  0  0  0  0  0  0
    6.4289  -15.8678   20.4061 C   0  0  0  0  0  0  0  0  0  0  0  0
    6.7144  -14.9127   21.5112 C   0  0  0  0  0  0  0  0  0  0  0  0
    7.9956  -15.3017   22.1452 C   0  0  1  0  0  0  0  0  0  0  0  0
    7.8732  -16.1190   23.3494 C   0  0  0  0  0  0  0  0  0  0  0  0
    8.2460  -17.3202   23.3358 O   0  0  0  0  0  0  0  0  0  0  0  0
    7.3411  -15.6264   24.5786 N   0  0  0  0  0  0  0  0  0  0  0  0
    7.8213  -16.1415   25.8492 C   0  0  1  0  0  0  0  0  0  0  0  0
    7.0834  -15.4522   26.9550 C   0  0  0  0  0  0  0  0  0  0  0  0
    6.9615  -13.9941   26.8046 C   0  0  0  0  0  0  0  0  0  0  0  0
    5.7642  -13.4048   26.4628 C   0  0  0  0  0  0  0  0  0  0  0  0
    5.6928  -12.0222   26.3334 C   0  0  0  0  0  0  0  0  0  0  0  0
    6.8113  -11.2482   26.5454 C   0  0  0  0  0  0  0  0  0  0  0  0
    8.0231  -11.8203   26.8893 C   0  0  0  0  0  0  0  0  0  0  0  0
    8.0784  -13.2074   27.0152 C   0  0  0  0  0  0  0  0  0  0  0  0
    7.6806  -17.6139   25.8863 C   0  0  0  0  0  0  0  0  0  0  0  0
    6.9289  -18.2702   24.9260 O   0  0  0  0  0  0  0  0  0  0  0  0
    8.2293  -18.3090   26.7773 O   0  0  0  0  0  0  0  0  0  0  0  0
  2  1  1  1
  2  3  1  0
  2  7  1  0
  4  3  1  0
  5  6  2  0
  5  4  1  0
  7  8  2  0
  7 10  1  0
  9  5  1  0
 10 14  1  0
 10 11  1  0
 12 11  1  0
 13 14  1  0
 13 12  1  0
 15 16  2  0
 14 15  1  1
 17 15  1  0
 18 26  1  0
 18 17  1  0
 18 19  1  1
 20 19  1  0
 21 20  2  0
 22 21  1  0
 23 24  1  0
 23 22  2  0
 24 25  2  0
 25 20  1  0
 26 27  1  0
 28 26  2  0
M  END
$$$$
