EPF.pdb
     RDKit          3D

 28 29  0  0  1  0  0  0  0  0999 V2000
   11.1042  -17.0479   18.0792 N   0  0  0  0  0  0  0  0  0  0  0  0
    9.9263  -17.2003   18.8936 C   0  0  1  0  0  0  0  0  0  0  0  0
    9.7205  -18.6804   19.1657 C   0  0  0  0  0  0  0  0  0  0  0  0
   10.9449  -19.2339   19.8164 C   0  0  0  0  0  0  0  0  0  0  0  0
   10.7746  -20.6745   20.1775 C   0  0  0  0  0  0  0  0  0  0  0  0
   10.4346  -21.4944   19.3013 O   0  0  0  0  0  0  0  0  0  0  0  0
    9.9589  -16.4588   20.1517 C   0  0  0  0  0  0  0  0  0  0  0  0
   11.0645  -15.9174   20.4825 O   0  0  0  0  0  0  0  0  0  0  0  0
   10.9875  -21.1126   21.4651 O   0  0  0  0  0  0  0  0  0  0  0  0
    8.8797  -16.2880   21.0325 N   0  0  0  0  0  0  0  0  0  0  0  0
    7.5737  -16.8526   20.9585 C   0  0  0  0  0  0  0  0  0  0  0  0
    6.6684  -15.6692   21.3294 C   0  0  0  0  0  0  0  0  0  0  0  0
    7.5394  -14.8349   22.2014 C   0  0  0  0  0  0  0  0  0  0  0  0
    8.8900  -15.4431   22.2313 C   0  0  1  0  0  0  0  0  0  0  0  0
    9.1604  -16.3062   23.3780 C   0  0  0  0  0  0  0  0  0  0  0  0
    9.0145  -17.5514   23.2772 O   0  0  0  0  0  0  0  0  0  0  0  0
    9.5930  -15.8116   24.6448 N   0  0  0  0  0  0  0  0  0  0  0  0
   10.5713  -16.5460   25.4284 C   0  0  1  0  0  0  0  0  0  0  0  0
   11.4362  -15.5642   26.1566 C   0  0  0  0  0  0  0  0  0  0  0  0
   10.7358  -14.7417   27.1549 C   0  0  0  0  0  0  0  0  0  0  0  0
    9.8335  -13.7706   26.7803 C   0  0  0  0  0  0  0  0  0  0  0  0
    9.1919  -13.0173   27.7572 C   0  0  0  0  0  0  0  0  0  0  0  0
    9.4572  -13.2408   29.0894 C   0  0  0  0  0  0  0  0  0  0  0  0
   10.3600  -14.2111   29.4866 C   0  0  0  0  0  0  0  0  0  0  0  0
   10.9948  -14.9578   28.4954 C   0  0  0  0  0  0  0  0  0  0  0  0
    9.8878  -17.4990   26.3304 C   0  0  0  0  0  0  0  0  0  0  0  0
    8.5073  -17.4922   26.4405 O   0  0  0  0  0  0  0  0  0  0  0  0
   10.5265  -18.3343   27.0178 O   0  0  0  0  0  0  0  0  0  0  0  0
  2  1  1  1
  2  3  1  0
  2  7  1  0
  4  3  1  0
  5  6  2  0
  5  4  1  0
  7  8  2  0
  7 10  1  0
  9  5  1  0
 10 14  1  0
 10 11  1  0
 12 11  1  0
 13 14  1  0
 13 12  1  0
 15 16  2  0
 14 15  1  1
 17 15  1  0
 18 26  1  0
 18 17  1  0
 18 19  1  1
 20 19  1  0
 21 20  2  0
 22 21  1  0
 23 24  1  0
 23 22  2  0
 24 25  2  0
 25 20  1  0
 26 27  1  0
 28 26  2  0
M  END
$$$$
