EPF.pdb
     RDKit          3D

 28 29  0  0  1  0  0  0  0  0999 V2000
   10.8601  -16.8311   18.0042 N   0  0  0  0  0  0  0  0  0  0  0  0
   10.3473  -17.5550   19.1386 C   0  0  1  0  0  0  0  0  0  0  0  0
   11.4475  -18.4591   19.6668 C   0  0  0  0  0  0  0  0  0  0  0  0
   10.9431  -19.1977   20.8622 C   0  0  0  0  0  0  0  0  0  0  0  0
   11.9668  -20.1470   21.3969 C   0  0  0  0  0  0  0  0  0  0  0  0
   12.6613  -20.8157   20.6057 O   0  0  0  0  0  0  0  0  0  0  0  0
    9.8319  -16.7112   20.2138 C   0  0  0  0  0  0  0  0  0  0  0  0
   10.6112  -15.8159   20.6787 O   0  0  0  0  0  0  0  0  0  0  0  0
   12.1562  -20.2956   22.7523 O   0  0  0  0  0  0  0  0  0  0  0  0
    8.5522  -16.7973   20.7836 N   0  0  0  0  0  0  0  0  0  0  0  0
    7.5743  -17.8208   20.6228 C   0  0  0  0  0  0  0  0  0  0  0  0
    6.2712  -17.0255   20.4590 C   0  0  0  0  0  0  0  0  0  0  0  0
    6.5432  -15.7686   21.2082 C   0  0  0  0  0  0  0  0  0  0  0  0
    7.9505  -15.7959   21.6704 C   0  0  1  0  0  0  0  0  0  0  0  0
    8.1471  -16.2479   23.0453 C   0  0  0  0  0  0  0  0  0  0  0  0
    8.4044  -17.4566   23.2800 O   0  0  0  0  0  0  0  0  0  0  0  0
    8.0633  -15.3790   24.1742 N   0  0  0  0  0  0  0  0  0  0  0  0
    8.4616  -15.8418   25.4923 C   0  0  1  0  0  0  0  0  0  0  0  0
    8.9094  -14.6624   26.2989 C   0  0  0  0  0  0  0  0  0  0  0  0
    7.9786  -13.5235   26.3019 C   0  0  0  0  0  0  0  0  0  0  0  0
    8.0827  -12.5081   25.3768 C   0  0  0  0  0  0  0  0  0  0  0  0
    7.1800  -11.4512   25.4143 C   0  0  0  0  0  0  0  0  0  0  0  0
    6.1893  -11.4202   26.3697 C   0  0  0  0  0  0  0  0  0  0  0  0
    6.0676  -12.4299   27.3077 C   0  0  0  0  0  0  0  0  0  0  0  0
    6.9800  -13.4824   27.2569 C   0  0  0  0  0  0  0  0  0  0  0  0
    7.3529  -16.5906   26.1243 C   0  0  0  0  0  0  0  0  0  0  0  0
    6.0942  -16.5987   25.5466 O   0  0  0  0  0  0  0  0  0  0  0  0
    7.5124  -17.2346   27.1910 O   0  0  0  0  0  0  0  0  0  0  0  0
  2  1  1  6
  2  3  1  0
  2  7  1  0
  4  3  1  0
  5  6  2  0
  5  4  1  0
  7  8  2  0
  7 10  1  0
  9  5  1  0
 10 14  1  0
 10 11  1  0
 12 11  1  0
 13 14  1  0
 13 12  1  0
 15 16  2  0
 14 15  1  1
 17 15  1  0
 18 26  1  0
 18 17  1  0
 18 19  1  1
 20 19  1  0
 21 20  2  0
 22 21  1  0
 23 24  1  0
 23 22  2  0
 24 25  2  0
 25 20  1  0
 26 27  1  0
 28 26  2  0
M  END
$$$$
