EPF.pdb
     RDKit          3D

 28 29  0  0  1  0  0  0  0  0999 V2000
    6.4136  -19.6556   20.7614 N   0  0  0  0  0  0  0  0  0  0  0  0
    6.2776  -18.3707   21.3974 C   0  0  1  0  0  0  0  0  0  0  0  0
    5.8284  -18.5915   22.8314 C   0  0  0  0  0  0  0  0  0  0  0  0
    6.5692  -19.7546   23.4035 C   0  0  0  0  0  0  0  0  0  0  0  0
    7.1266  -19.4430   24.7552 C   0  0  0  0  0  0  0  0  0  0  0  0
    6.5475  -19.8684   25.7747 O   0  0  0  0  0  0  0  0  0  0  0  0
    7.4857  -17.5501   21.3710 C   0  0  0  0  0  0  0  0  0  0  0  0
    8.5724  -18.1206   21.0266 O   0  0  0  0  0  0  0  0  0  0  0  0
    8.2721  -18.6921   24.8937 O   0  0  0  0  0  0  0  0  0  0  0  0
    7.5589  -16.1857   21.6916 N   0  0  0  0  0  0  0  0  0  0  0  0
    6.5736  -15.3637   22.3106 C   0  0  0  0  0  0  0  0  0  0  0  0
    6.6411  -14.0700   21.4865 C   0  0  0  0  0  0  0  0  0  0  0  0
    8.0463  -14.0517   20.9964 C   0  0  0  0  0  0  0  0  0  0  0  0
    8.7038  -15.3110   21.4169 C   0  0  1  0  0  0  0  0  0  0  0  0
    9.4962  -15.2228   22.6406 C   0  0  0  0  0  0  0  0  0  0  0  0
   10.6150  -14.6482   22.6263 O   0  0  0  0  0  0  0  0  0  0  0  0
    9.0688  -15.7635   23.8902 N   0  0  0  0  0  0  0  0  0  0  0  0
    9.9133  -15.6571   25.0674 C   0  0  1  0  0  0  0  0  0  0  0  0
   10.0563  -14.2101   25.4251 C   0  0  0  0  0  0  0  0  0  0  0  0
    8.7931  -13.5160   25.7185 C   0  0  0  0  0  0  0  0  0  0  0  0
    8.0701  -13.7912   26.8584 C   0  0  0  0  0  0  0  0  0  0  0  0
    6.8819  -13.1099   27.0978 C   0  0  0  0  0  0  0  0  0  0  0  0
    6.4316  -12.1670   26.2016 C   0  0  0  0  0  0  0  0  0  0  0  0
    7.1426  -11.8760   25.0510 C   0  0  0  0  0  0  0  0  0  0  0  0
    8.3317  -12.5674   24.8253 C   0  0  0  0  0  0  0  0  0  0  0  0
    9.3569  -16.4753   26.1675 C   0  0  0  0  0  0  0  0  0  0  0  0
   10.1068  -16.7223   27.3053 O   0  0  0  0  0  0  0  0  0  0  0  0
    8.2026  -16.9674   26.1079 O   0  0  0  0  0  0  0  0  0  0  0  0
  2  1  1  1
  2  3  1  0
  2  7  1  0
  4  3  1  0
  5  6  2  0
  5  4  1  0
  7  8  2  0
  7 10  1  0
  9  5  1  0
 10 14  1  0
 10 11  1  0
 12 11  1  0
 13 14  1  0
 13 12  1  0
 15 16  2  0
 14 15  1  1
 17 15  1  0
 18 26  1  0
 18 17  1  0
 18 19  1  1
 20 19  1  0
 21 20  2  0
 22 21  1  0
 23 24  1  0
 23 22  2  0
 24 25  2  0
 25 20  1  0
 26 27  1  0
 28 26  2  0
M  END
$$$$
