EPF.pdb
     RDKit          3D

 28 29  0  0  1  0  0  0  0  0999 V2000
    7.2857  -19.5497   20.8193 N   0  0  0  0  0  0  0  0  0  0  0  0
    6.7728  -18.3430   21.4149 C   0  0  1  0  0  0  0  0  0  0  0  0
    5.9775  -18.7205   22.6526 C   0  0  0  0  0  0  0  0  0  0  0  0
    5.9638  -20.2069   22.7918 C   0  0  0  0  0  0  0  0  0  0  0  0
    6.4927  -20.6415   24.1207 C   0  0  0  0  0  0  0  0  0  0  0  0
    7.7093  -20.5241   24.3693 O   0  0  0  0  0  0  0  0  0  0  0  0
    7.7926  -17.3544   21.7563 C   0  0  0  0  0  0  0  0  0  0  0  0
    9.0067  -17.7428   21.7550 O   0  0  0  0  0  0  0  0  0  0  0  0
    5.6566  -21.1709   25.0778 O   0  0  0  0  0  0  0  0  0  0  0  0
    7.5561  -16.0111   22.0868 N   0  0  0  0  0  0  0  0  0  0  0  0
    6.3117  -15.3608   22.3285 C   0  0  0  0  0  0  0  0  0  0  0  0
    6.4724  -14.0280   21.5832 C   0  0  0  0  0  0  0  0  0  0  0  0
    7.9425  -13.7978   21.6107 C   0  0  0  0  0  0  0  0  0  0  0  0
    8.5885  -14.9791   22.2290 C   0  0  1  0  0  0  0  0  0  0  0  0
    8.8923  -14.8508   23.6518 C   0  0  0  0  0  0  0  0  0  0  0  0
    8.6914  -13.7587   24.2426 O   0  0  0  0  0  0  0  0  0  0  0  0
    9.4186  -15.9185   24.4389 N   0  0  0  0  0  0  0  0  0  0  0  0
    9.6623  -15.7370   25.8595 C   0  0  1  0  0  0  0  0  0  0  0  0
    8.3535  -15.4837   26.5414 C   0  0  0  0  0  0  0  0  0  0  0  0
    7.9046  -14.0831   26.5214 C   0  0  0  0  0  0  0  0  0  0  0  0
    6.6219  -13.7450   26.1499 C   0  0  0  0  0  0  0  0  0  0  0  0
    6.2386  -12.4084   26.1472 C   0  0  0  0  0  0  0  0  0  0  0  0
    7.1353  -11.4302   26.5134 C   0  0  0  0  0  0  0  0  0  0  0  0
    8.4280  -11.7486   26.8896 C   0  0  0  0  0  0  0  0  0  0  0  0
    8.7969  -13.0928   26.8871 C   0  0  0  0  0  0  0  0  0  0  0  0
   10.3844  -16.9078   26.4046 C   0  0  0  0  0  0  0  0  0  0  0  0
   10.6600  -17.9989   25.5975 O   0  0  0  0  0  0  0  0  0  0  0  0
   10.7661  -16.9520   27.6006 O   0  0  0  0  0  0  0  0  0  0  0  0
  2  1  1  1
  2  3  1  0
  2  7  1  0
  4  3  1  0
  5  6  2  0
  5  4  1  0
  7  8  2  0
  7 10  1  0
  9  5  1  0
 10 14  1  0
 10 11  1  0
 12 11  1  0
 13 14  1  0
 13 12  1  0
 15 16  2  0
 14 15  1  1
 17 15  1  0
 18 26  1  0
 18 17  1  0
 18 19  1  1
 20 19  1  0
 21 20  2  0
 22 21  1  0
 23 24  1  0
 23 22  2  0
 24 25  2  0
 25 20  1  0
 26 27  1  0
 28 26  2  0
M  END
$$$$
