EPF.pdb
     RDKit          3D

 28 29  0  0  1  0  0  0  0  0999 V2000
   11.4145  -17.1243   18.6662 N   0  0  0  0  0  0  0  0  0  0  0  0
   10.2111  -17.5162   19.3531 C   0  0  1  0  0  0  0  0  0  0  0  0
   10.4163  -18.9098   19.9212 C   0  0  0  0  0  0  0  0  0  0  0  0
   10.6292  -19.8704   18.7983 C   0  0  0  0  0  0  0  0  0  0  0  0
   10.8572  -21.2610   19.2974 C   0  0  0  0  0  0  0  0  0  0  0  0
   12.0093  -21.7385   19.2893 O   0  0  0  0  0  0  0  0  0  0  0  0
    9.7908  -16.6003   20.4106 C   0  0  0  0  0  0  0  0  0  0  0  0
   10.7021  -15.9354   21.0042 O   0  0  0  0  0  0  0  0  0  0  0  0
    9.8132  -22.0255   19.7673 O   0  0  0  0  0  0  0  0  0  0  0  0
    8.4701  -16.3854   20.8340 N   0  0  0  0  0  0  0  0  0  0  0  0
    7.2934  -17.1045   20.4759 C   0  0  0  0  0  0  0  0  0  0  0  0
    6.2641  -15.9869   20.2545 C   0  0  0  0  0  0  0  0  0  0  0  0
    6.7490  -14.8968   21.1442 C   0  0  0  0  0  0  0  0  0  0  0  0
    8.0348  -15.3216   21.7450 C   0  0  1  0  0  0  0  0  0  0  0  0
    7.9379  -15.8981   23.0834 C   0  0  0  0  0  0  0  0  0  0  0  0
    7.7458  -17.1331   23.2247 O   0  0  0  0  0  0  0  0  0  0  0  0
    8.0508  -15.1258   24.2781 N   0  0  0  0  0  0  0  0  0  0  0  0
    8.1943  -15.7789   25.5678 C   0  0  1  0  0  0  0  0  0  0  0  0
    8.4797  -14.7359   26.6037 C   0  0  0  0  0  0  0  0  0  0  0  0
    7.6003  -13.5578   26.5562 C   0  0  0  0  0  0  0  0  0  0  0  0
    6.3450  -13.5749   27.1233 C   0  0  0  0  0  0  0  0  0  0  0  0
    5.5473  -12.4380   27.0574 C   0  0  0  0  0  0  0  0  0  0  0  0
    6.0093  -11.3033   26.4295 C   0  0  0  0  0  0  0  0  0  0  0  0
    7.2666  -11.2654   25.8536 C   0  0  0  0  0  0  0  0  0  0  0  0
    8.0542  -12.4131   25.9282 C   0  0  0  0  0  0  0  0  0  0  0  0
    6.9879  -16.5811   25.8680 C   0  0  0  0  0  0  0  0  0  0  0  0
    7.0002  -17.5057   26.8990 O   0  0  0  0  0  0  0  0  0  0  0  0
    5.9270  -16.4537   25.2075 O   0  0  0  0  0  0  0  0  0  0  0  0
  2  1  1  1
  2  3  1  0
  2  7  1  0
  4  3  1  0
  5  6  2  0
  5  4  1  0
  7  8  2  0
  7 10  1  0
  9  5  1  0
 10 14  1  0
 10 11  1  0
 12 11  1  0
 13 14  1  0
 13 12  1  0
 15 16  2  0
 14 15  1  1
 17 15  1  0
 18 26  1  0
 18 17  1  0
 18 19  1  1
 20 19  1  0
 21 20  2  0
 22 21  1  0
 23 24  1  0
 23 22  2  0
 24 25  2  0
 25 20  1  0
 26 27  1  0
 28 26  2  0
M  END
$$$$
