EPF.pdb
     RDKit          3D

 28 29  0  0  1  0  0  0  0  0999 V2000
   10.4630  -16.6673   17.6304 N   0  0  0  0  0  0  0  0  0  0  0  0
   10.1716  -17.4540   18.8008 C   0  0  1  0  0  0  0  0  0  0  0  0
   11.3914  -18.2986   19.1259 C   0  0  0  0  0  0  0  0  0  0  0  0
   11.1237  -19.0905   20.3629 C   0  0  0  0  0  0  0  0  0  0  0  0
   12.2980  -19.9337   20.7433 C   0  0  0  0  0  0  0  0  0  0  0  0
   12.6319  -20.0223   21.9417 O   0  0  0  0  0  0  0  0  0  0  0  0
    9.7742  -16.6755   19.9712 C   0  0  0  0  0  0  0  0  0  0  0  0
   10.5403  -15.7203   20.3255 O   0  0  0  0  0  0  0  0  0  0  0  0
   13.0192  -20.6161   19.7897 O   0  0  0  0  0  0  0  0  0  0  0  0
    8.6214  -16.8847   20.7439 N   0  0  0  0  0  0  0  0  0  0  0  0
    7.7585  -18.0182   20.7646 C   0  0  0  0  0  0  0  0  0  0  0  0
    6.3610  -17.3830   20.8006 C   0  0  0  0  0  0  0  0  0  0  0  0
    6.5987  -16.0757   21.4711 C   0  0  0  0  0  0  0  0  0  0  0  0
    8.0550  -15.9252   21.6977 C   0  0  1  0  0  0  0  0  0  0  0  0
    8.5211  -16.2992   23.0304 C   0  0  0  0  0  0  0  0  0  0  0  0
    8.8607  -17.4867   23.2684 O   0  0  0  0  0  0  0  0  0  0  0  0
    8.6186  -15.3748   24.1132 N   0  0  0  0  0  0  0  0  0  0  0  0
    9.1418  -15.7991   25.4003 C   0  0  1  0  0  0  0  0  0  0  0  0
    9.3199  -14.5909   26.2668 C   0  0  0  0  0  0  0  0  0  0  0  0
    8.2452  -13.5917   26.1661 C   0  0  0  0  0  0  0  0  0  0  0  0
    7.0254  -13.7846   26.7765 C   0  0  0  0  0  0  0  0  0  0  0  0
    6.0379  -12.8130   26.6575 C   0  0  0  0  0  0  0  0  0  0  0  0
    6.2781  -11.6663   25.9346 C   0  0  0  0  0  0  0  0  0  0  0  0
    7.4961  -11.4534   25.3139 C   0  0  0  0  0  0  0  0  0  0  0  0
    8.4757  -12.4367   25.4425 C   0  0  0  0  0  0  0  0  0  0  0  0
    8.2517  -16.8178   25.9996 C   0  0  0  0  0  0  0  0  0  0  0  0
    8.6912  -17.5973   27.0567 O   0  0  0  0  0  0  0  0  0  0  0  0
    7.0845  -17.0085   25.5763 O   0  0  0  0  0  0  0  0  0  0  0  0
  2  1  1  6
  2  3  1  0
  2  7  1  0
  4  3  1  0
  5  6  2  0
  5  4  1  0
  7  8  2  0
  7 10  1  0
  9  5  1  0
 10 14  1  0
 10 11  1  0
 12 11  1  0
 13 14  1  0
 13 12  1  0
 15 16  2  0
 14 15  1  1
 17 15  1  0
 18 26  1  0
 18 17  1  0
 18 19  1  1
 20 19  1  0
 21 20  2  0
 22 21  1  0
 23 24  1  0
 23 22  2  0
 24 25  2  0
 25 20  1  0
 26 27  1  0
 28 26  2  0
M  END
$$$$
