EPF.pdb
     RDKit          3D

 28 29  0  0  1  0  0  0  0  0999 V2000
    8.1243  -19.3334   20.0931 N   0  0  0  0  0  0  0  0  0  0  0  0
    7.4614  -18.2031   20.6906 C   0  0  1  0  0  0  0  0  0  0  0  0
    6.5843  -18.7064   21.8237 C   0  0  0  0  0  0  0  0  0  0  0  0
    7.4422  -19.3686   22.8506 C   0  0  0  0  0  0  0  0  0  0  0  0
    6.6327  -19.8847   23.9965 C   0  0  0  0  0  0  0  0  0  0  0  0
    5.7924  -19.1422   24.5425 O   0  0  0  0  0  0  0  0  0  0  0  0
    8.3611  -17.1605   21.1778 C   0  0  0  0  0  0  0  0  0  0  0  0
    9.6018  -17.4446   21.2470 O   0  0  0  0  0  0  0  0  0  0  0  0
    6.7999  -21.1700   24.4605 O   0  0  0  0  0  0  0  0  0  0  0  0
    7.9821  -15.8699   21.5783 N   0  0  0  0  0  0  0  0  0  0  0  0
    6.6703  -15.3325   21.7206 C   0  0  0  0  0  0  0  0  0  0  0  0
    6.8051  -13.9339   21.1014 C   0  0  0  0  0  0  0  0  0  0  0  0
    8.2397  -13.6026   21.3184 C   0  0  0  0  0  0  0  0  0  0  0  0
    8.9059  -14.7825   21.9177 C   0  0  1  0  0  0  0  0  0  0  0  0
    9.0382  -14.7526   23.3719 C   0  0  0  0  0  0  0  0  0  0  0  0
    8.8523  -13.6783   23.9992 O   0  0  0  0  0  0  0  0  0  0  0  0
    9.3754  -15.9000   24.1506 N   0  0  0  0  0  0  0  0  0  0  0  0
    9.2638  -15.8673   25.5987 C   0  0  1  0  0  0  0  0  0  0  0  0
    7.8261  -15.6625   25.9637 C   0  0  0  0  0  0  0  0  0  0  0  0
    7.4207  -14.2576   26.1230 C   0  0  0  0  0  0  0  0  0  0  0  0
    8.2576  -13.3297   26.7029 C   0  0  0  0  0  0  0  0  0  0  0  0
    7.8351  -12.0113   26.8317 C   0  0  0  0  0  0  0  0  0  0  0  0
    6.5889  -11.6364   26.3827 C   0  0  0  0  0  0  0  0  0  0  0  0
    5.7333  -12.5528   25.7976 C   0  0  0  0  0  0  0  0  0  0  0  0
    6.1714  -13.8704   25.6756 C   0  0  0  0  0  0  0  0  0  0  0  0
    9.8412  -17.0991   26.1806 C   0  0  0  0  0  0  0  0  0  0  0  0
   10.1611  -17.1546   27.5269 O   0  0  0  0  0  0  0  0  0  0  0  0
   10.0586  -18.1215   25.4838 O   0  0  0  0  0  0  0  0  0  0  0  0
  2  1  1  1
  2  3  1  0
  2  7  1  0
  4  3  1  0
  5  6  2  0
  5  4  1  0
  7  8  2  0
  7 10  1  0
  9  5  1  0
 10 14  1  0
 10 11  1  0
 12 11  1  0
 13 14  1  0
 13 12  1  0
 15 16  2  0
 14 15  1  1
 17 15  1  0
 18 26  1  0
 18 17  1  0
 18 19  1  6
 20 19  1  0
 21 20  2  0
 22 21  1  0
 23 24  1  0
 23 22  2  0
 24 25  2  0
 25 20  1  0
 26 27  1  0
 28 26  2  0
M  END
$$$$
