EPF.pdb
     RDKit          3D

 28 29  0  0  1  0  0  0  0  0999 V2000
    7.3873  -18.2726   19.1952 N   0  0  0  0  0  0  0  0  0  0  0  0
    6.9886  -17.0008   19.7404 C   0  0  1  0  0  0  0  0  0  0  0  0
    5.7698  -17.2180   20.6204 C   0  0  0  0  0  0  0  0  0  0  0  0
    5.9089  -18.5201   21.3375 C   0  0  0  0  0  0  0  0  0  0  0  0
    4.7313  -18.7944   22.2166 C   0  0  0  0  0  0  0  0  0  0  0  0
    4.8551  -19.5607   23.1928 O   0  0  0  0  0  0  0  0  0  0  0  0
    8.0328  -16.3089   20.4918 C   0  0  0  0  0  0  0  0  0  0  0  0
    9.1377  -16.9227   20.6576 O   0  0  0  0  0  0  0  0  0  0  0  0
    3.5087  -18.2135   21.9657 O   0  0  0  0  0  0  0  0  0  0  0  0
    7.9296  -15.0253   21.0499 N   0  0  0  0  0  0  0  0  0  0  0  0
    6.7780  -14.1938   21.1604 C   0  0  0  0  0  0  0  0  0  0  0  0
    7.3180  -12.8093   20.7742 C   0  0  0  0  0  0  0  0  0  0  0  0
    8.7536  -12.8844   21.1597 C   0  0  0  0  0  0  0  0  0  0  0  0
    9.0400  -14.2607   21.6274 C   0  0  1  0  0  0  0  0  0  0  0  0
    9.0003  -14.4487   23.0752 C   0  0  0  0  0  0  0  0  0  0  0  0
    9.2367  -13.4805   23.8426 O   0  0  0  0  0  0  0  0  0  0  0  0
    8.7013  -15.6994   23.6939 N   0  0  0  0  0  0  0  0  0  0  0  0
    8.8013  -15.8519   25.1351 C   0  0  1  0  0  0  0  0  0  0  0  0
    7.4629  -15.5627   25.7413 C   0  0  0  0  0  0  0  0  0  0  0  0
    7.2180  -14.1471   26.0572 C   0  0  0  0  0  0  0  0  0  0  0  0
    8.1805  -13.3690   26.6620 C   0  0  0  0  0  0  0  0  0  0  0  0
    7.9077  -12.0344   26.9408 C   0  0  0  0  0  0  0  0  0  0  0  0
    6.6839  -11.4950   26.6145 C   0  0  0  0  0  0  0  0  0  0  0  0
    5.7037  -12.2592   26.0069 C   0  0  0  0  0  0  0  0  0  0  0  0
    5.9925  -13.5953   25.7339 C   0  0  0  0  0  0  0  0  0  0  0  0
    9.3112  -17.2001   25.4691 C   0  0  0  0  0  0  0  0  0  0  0  0
    9.6921  -17.5036   26.7656 O   0  0  0  0  0  0  0  0  0  0  0  0
    9.4155  -18.1022   24.6012 O   0  0  0  0  0  0  0  0  0  0  0  0
  2  1  1  1
  2  3  1  0
  2  7  1  0
  4  3  1  0
  5  6  2  0
  5  4  1  0
  7  8  2  0
  7 10  1  0
  9  5  1  0
 10 14  1  0
 10 11  1  0
 12 11  1  0
 13 14  1  0
 13 12  1  0
 15 16  2  0
 14 15  1  1
 17 15  1  0
 18 26  1  0
 18 17  1  0
 18 19  1  1
 20 19  1  0
 21 20  2  0
 22 21  1  0
 23 24  1  0
 23 22  2  0
 24 25  2  0
 25 20  1  0
 26 27  1  0
 28 26  2  0
M  END
$$$$
