EPF.pdb
     RDKit          3D

 28 29  0  0  1  0  0  0  0  0999 V2000
   10.2734  -17.0278   17.9404 N   0  0  0  0  0  0  0  0  0  0  0  0
   10.0801  -17.6393   19.2299 C   0  0  1  0  0  0  0  0  0  0  0  0
   11.3863  -18.2894   19.6521 C   0  0  0  0  0  0  0  0  0  0  0  0
   11.3052  -19.7592   19.4027 C   0  0  0  0  0  0  0  0  0  0  0  0
   12.4970  -20.4780   19.9484 C   0  0  0  0  0  0  0  0  0  0  0  0
   12.5418  -20.7670   21.1608 O   0  0  0  0  0  0  0  0  0  0  0  0
    9.6151  -16.7258   20.2706 C   0  0  0  0  0  0  0  0  0  0  0  0
   10.4388  -15.8466   20.6872 O   0  0  0  0  0  0  0  0  0  0  0  0
   13.5491  -20.8273   19.1322 O   0  0  0  0  0  0  0  0  0  0  0  0
    8.3395  -16.7285   20.8556 N   0  0  0  0  0  0  0  0  0  0  0  0
    7.2785  -17.6612   20.6707 C   0  0  0  0  0  0  0  0  0  0  0  0
    6.0437  -16.7557   20.5564 C   0  0  0  0  0  0  0  0  0  0  0  0
    6.4274  -15.5555   21.3485 C   0  0  0  0  0  0  0  0  0  0  0  0
    7.8330  -15.7163   21.7885 C   0  0  1  0  0  0  0  0  0  0  0  0
    8.0075  -16.2361   23.1422 C   0  0  0  0  0  0  0  0  0  0  0  0
    8.0747  -17.4770   23.3364 O   0  0  0  0  0  0  0  0  0  0  0  0
    8.1098  -15.4001   24.2942 N   0  0  0  0  0  0  0  0  0  0  0  0
    8.4402  -15.9673   25.5901 C   0  0  1  0  0  0  0  0  0  0  0  0
    8.8245  -14.8548   26.5159 C   0  0  0  0  0  0  0  0  0  0  0  0
    7.9952  -13.6447   26.4091 C   0  0  0  0  0  0  0  0  0  0  0  0
    8.3044  -12.6380   25.5210 C   0  0  0  0  0  0  0  0  0  0  0  0
    7.4918  -11.5119   25.4511 C   0  0  0  0  0  0  0  0  0  0  0  0
    6.3861  -11.4043   26.2641 C   0  0  0  0  0  0  0  0  0  0  0  0
    6.0582  -12.4038   27.1627 C   0  0  0  0  0  0  0  0  0  0  0  0
    6.8826  -13.5263   27.2208 C   0  0  0  0  0  0  0  0  0  0  0  0
    7.3091  -16.7775   26.0934 C   0  0  0  0  0  0  0  0  0  0  0  0
    7.4863  -17.6403   27.1621 O   0  0  0  0  0  0  0  0  0  0  0  0
    6.1662  -16.7121   25.5761 O   0  0  0  0  0  0  0  0  0  0  0  0
  2  1  1  6
  2  3  1  0
  2  7  1  0
  4  3  1  0
  5  6  2  0
  5  4  1  0
  7  8  2  0
  7 10  1  0
  9  5  1  0
 10 14  1  0
 10 11  1  0
 12 11  1  0
 13 14  1  0
 13 12  1  0
 15 16  2  0
 14 15  1  1
 17 15  1  0
 18 26  1  0
 18 17  1  0
 18 19  1  1
 20 19  1  0
 21 20  2  0
 22 21  1  0
 23 24  1  0
 23 22  2  0
 24 25  2  0
 25 20  1  0
 26 27  1  0
 28 26  2  0
M  END
$$$$
