EPF.pdb
     RDKit          3D

 28 29  0  0  1  0  0  0  0  0999 V2000
    8.6057  -12.8208   18.0278 N   0  0  0  0  0  0  0  0  0  0  0  0
    8.7569  -14.1773   18.4870 C   0  0  1  0  0  0  0  0  0  0  0  0
   10.2284  -14.5464   18.4140 C   0  0  0  0  0  0  0  0  0  0  0  0
   10.9947  -13.6978   19.3740 C   0  0  0  0  0  0  0  0  0  0  0  0
   12.4163  -14.1449   19.4927 C   0  0  0  0  0  0  0  0  0  0  0  0
   12.8300  -15.0821   18.7815 O   0  0  0  0  0  0  0  0  0  0  0  0
    8.2445  -14.4225   19.8328 C   0  0  0  0  0  0  0  0  0  0  0  0
    8.0330  -13.4057   20.5719 O   0  0  0  0  0  0  0  0  0  0  0  0
   13.2790  -13.5373   20.3769 O   0  0  0  0  0  0  0  0  0  0  0  0
    7.9631  -15.6804   20.3879 N   0  0  0  0  0  0  0  0  0  0  0  0
    8.2985  -16.9700   19.8835 C   0  0  0  0  0  0  0  0  0  0  0  0
    7.0125  -17.7747   20.1209 C   0  0  0  0  0  0  0  0  0  0  0  0
    6.3984  -17.0961   21.2946 C   0  0  0  0  0  0  0  0  0  0  0  0
    7.2209  -15.9109   21.6317 C   0  0  1  0  0  0  0  0  0  0  0  0
    8.1979  -16.1124   22.6985 C   0  0  0  0  0  0  0  0  0  0  0  0
    9.2167  -16.8210   22.4937 O   0  0  0  0  0  0  0  0  0  0  0  0
    8.0663  -15.5389   23.9986 N   0  0  0  0  0  0  0  0  0  0  0  0
    9.1493  -15.6383   24.9617 C   0  0  1  0  0  0  0  0  0  0  0  0
    9.5322  -14.2573   25.3961 C   0  0  0  0  0  0  0  0  0  0  0  0
    8.4086  -13.4043   25.8126 C   0  0  0  0  0  0  0  0  0  0  0  0
    7.5767  -12.8103   24.8891 C   0  0  0  0  0  0  0  0  0  0  0  0
    6.5249  -12.0131   25.3266 C   0  0  0  0  0  0  0  0  0  0  0  0
    6.3168  -11.8191   26.6736 C   0  0  0  0  0  0  0  0  0  0  0  0
    7.1407  -12.4064   27.6171 C   0  0  0  0  0  0  0  0  0  0  0  0
    8.1907  -13.2027   27.1626 C   0  0  0  0  0  0  0  0  0  0  0  0
    8.7496  -16.5114   26.0873 C   0  0  0  0  0  0  0  0  0  0  0  0
    9.6797  -16.9000   27.0370 O   0  0  0  0  0  0  0  0  0  0  0  0
    7.5706  -16.9249   26.2181 O   0  0  0  0  0  0  0  0  0  0  0  0
  2  1  1  1
  2  3  1  0
  2  7  1  0
  4  3  1  0
  5  6  2  0
  5  4  1  0
  7  8  2  0
  7 10  1  0
  9  5  1  0
 10 14  1  0
 10 11  1  0
 12 11  1  0
 13 14  1  0
 13 12  1  0
 15 16  2  0
 14 15  1  1
 17 15  1  0
 18 26  1  0
 18 17  1  0
 18 19  1  1
 20 19  1  0
 21 20  2  0
 22 21  1  0
 23 24  1  0
 23 22  2  0
 24 25  2  0
 25 20  1  0
 26 27  1  0
 28 26  2  0
M  END
$$$$
