EPF.pdb
     RDKit          3D

 28 29  0  0  1  0  0  0  0  0999 V2000
   10.2266  -17.0386   17.9444 N   0  0  0  0  0  0  0  0  0  0  0  0
    9.2807  -17.2457   19.0104 C   0  0  1  0  0  0  0  0  0  0  0  0
    9.2631  -18.7250   19.3541 C   0  0  0  0  0  0  0  0  0  0  0  0
    8.5292  -19.4674   18.2868 C   0  0  0  0  0  0  0  0  0  0  0  0
    8.8434  -20.9287   18.3152 C   0  0  0  0  0  0  0  0  0  0  0  0
    8.4211  -21.6326   19.2542 O   0  0  0  0  0  0  0  0  0  0  0  0
    9.5377  -16.4547   20.2113 C   0  0  0  0  0  0  0  0  0  0  0  0
   10.7285  -16.0376   20.3926 O   0  0  0  0  0  0  0  0  0  0  0  0
    9.5935  -21.5120   17.3191 O   0  0  0  0  0  0  0  0  0  0  0  0
    8.5893  -16.1114   21.1871 N   0  0  0  0  0  0  0  0  0  0  0  0
    7.2108  -16.4658   21.2507 C   0  0  0  0  0  0  0  0  0  0  0  0
    6.5400  -15.1530   21.6800 C   0  0  0  0  0  0  0  0  0  0  0  0
    7.6105  -14.4588   22.4462 C   0  0  0  0  0  0  0  0  0  0  0  0
    8.8472  -15.2701   22.3605 C   0  0  1  0  0  0  0  0  0  0  0  0
    9.0917  -16.1568   23.4950 C   0  0  0  0  0  0  0  0  0  0  0  0
    8.5988  -17.3140   23.5074 O   0  0  0  0  0  0  0  0  0  0  0  0
    9.8785  -15.7826   24.6252 N   0  0  0  0  0  0  0  0  0  0  0  0
   10.4759  -16.7969   25.4764 C   0  0  1  0  0  0  0  0  0  0  0  0
   11.4400  -16.1319   26.4095 C   0  0  0  0  0  0  0  0  0  0  0  0
   10.8202  -15.3026   27.4542 C   0  0  0  0  0  0  0  0  0  0  0  0
   10.9155  -15.6364   28.7873 C   0  0  0  0  0  0  0  0  0  0  0  0
   10.3163  -14.8228   29.7424 C   0  0  0  0  0  0  0  0  0  0  0  0
    9.6324  -13.6916   29.3579 C   0  0  0  0  0  0  0  0  0  0  0  0
    9.5250  -13.3387   28.0245 C   0  0  0  0  0  0  0  0  0  0  0  0
   10.1311  -14.1645   27.0792 C   0  0  0  0  0  0  0  0  0  0  0  0
    9.4189  -17.5579   26.1785 C   0  0  0  0  0  0  0  0  0  0  0  0
    9.7363  -18.7000   26.8946 O   0  0  0  0  0  0  0  0  0  0  0  0
    8.2151  -17.2000   26.1491 O   0  0  0  0  0  0  0  0  0  0  0  0
  2  1  1  6
  2  3  1  0
  2  7  1  0
  4  3  1  0
  5  6  2  0
  5  4  1  0
  7  8  2  0
  7 10  1  0
  9  5  1  0
 10 14  1  0
 10 11  1  0
 12 11  1  0
 13 14  1  0
 13 12  1  0
 15 16  2  0
 14 15  1  1
 17 15  1  0
 18 26  1  0
 18 17  1  0
 18 19  1  1
 20 19  1  0
 21 20  2  0
 22 21  1  0
 23 24  1  0
 23 22  2  0
 24 25  2  0
 25 20  1  0
 26 27  1  0
 28 26  2  0
M  END
$$$$
