IPL.pdb
     RDKit          3D

 24 24  0  0  1  0  0  0  0  0999 V2000
   12.0334  -19.5427   23.6919 C   0  0  0  0  0  0  0  0  0  0  0  0
   12.1281  -18.3247   22.8384 C   0  0  0  0  0  0  0  0  0  0  0  0
   11.3636  -18.4431   21.5705 C   0  0  2  0  0  0  0  0  0  0  0  0
   12.0567  -19.4873   20.6889 C   0  0  0  0  0  0  0  0  0  0  0  0
   11.3068  -17.1062   20.8483 C   0  0  2  0  0  0  0  0  0  0  0  0
   12.6068  -16.6608   20.5696 N   0  0  0  0  0  0  0  0  0  0  0  0
   10.3710  -16.1657   21.4829 C   0  0  0  0  0  0  0  0  0  0  0  0
   10.9334  -15.4066   22.3656 O   0  0  0  0  0  0  0  0  0  0  0  0
    8.9873  -16.0235   21.2320 N   0  0  0  0  0  0  0  0  0  0  0  0
    8.2951  -16.5967   20.1018 C   0  0  0  0  0  0  0  0  0  0  0  0
    6.8138  -16.2173   20.2789 C   0  0  0  0  0  0  0  0  0  0  0  0
    6.7263  -15.9929   21.7361 C   0  0  0  0  0  0  0  0  0  0  0  0
    8.0514  -15.2937   22.0675 C   0  0  1  0  0  0  0  0  0  0  0  0
    8.2495  -15.5271   23.5230 C   0  0  0  0  0  0  0  0  0  0  0  0
    9.0117  -16.3862   24.0127 O   0  0  0  0  0  0  0  0  0  0  0  0
    8.3215  -12.0386   26.7092 C   0  0  0  0  0  0  0  0  0  0  0  0
    6.9474  -12.5244   26.2807 C   0  0  2  0  0  0  0  0  0  0  0  0
    5.8855  -11.5601   26.6777 C   0  0  0  0  0  0  0  0  0  0  0  0
    6.6992  -13.9498   26.6311 C   0  0  0  0  0  0  0  0  0  0  0  0
    7.4659  -14.9704   25.8606 C   0  0  2  0  0  0  0  0  0  0  0  0
    7.5204  -14.7156   24.4357 N   0  0  0  0  0  0  0  0  0  0  0  0
    7.1117  -16.3537   26.1633 C   0  0  0  0  0  0  0  0  0  0  0  0
    7.6953  -17.0222   27.2203 O   0  0  0  0  0  0  0  0  0  0  0  0
    6.2694  -16.9627   25.4681 O   0  0  0  0  0  0  0  0  0  0  0  0
  1  2  1  0
  3  2  1  0
  3  4  1  6
  5  3  1  0
  5  6  1  1
  7  8  2  0
  7  5  1  0
  9  7  1  0
 10  9  1  0
 11 10  1  0
 12 11  1  0
 12 13  1  0
 13 14  1  1
 13  9  1  0
 14 15  2  0
 17 16  1  1
 17 19  1  0
 18 17  1  0
 20 19  1  1
 20 21  1  0
 21 14  1  0
 22 20  1  0
 23 22  1  0
 24 22  2  0
M  END
$$$$
