IPL.pdb
     RDKit          3D

 24 24  0  0  1  0  0  0  0  0999 V2000
    7.6687  -11.7191   27.3426 C   0  0  0  0  0  0  0  0  0  0  0  0
    7.0919  -13.0675   27.0779 C   0  0  0  0  0  0  0  0  0  0  0  0
    6.7248  -13.2727   25.6534 C   0  0  2  0  0  0  0  0  0  0  0  0
    5.5547  -12.3407   25.3213 C   0  0  0  0  0  0  0  0  0  0  0  0
    6.3270  -14.7186   25.4020 C   0  0  2  0  0  0  0  0  0  0  0  0
    5.6285  -15.2191   26.5101 N   0  0  0  0  0  0  0  0  0  0  0  0
    7.4356  -15.5187   24.8599 C   0  0  0  0  0  0  0  0  0  0  0  0
    7.9113  -16.3696   25.7093 O   0  0  0  0  0  0  0  0  0  0  0  0
    8.0003  -15.4464   23.5663 N   0  0  0  0  0  0  0  0  0  0  0  0
    7.4409  -14.6947   22.4676 C   0  0  0  0  0  0  0  0  0  0  0  0
    8.4182  -14.8768   21.2922 C   0  0  0  0  0  0  0  0  0  0  0  0
    9.6794  -15.2013   21.9890 C   0  0  0  0  0  0  0  0  0  0  0  0
    9.2245  -16.1024   23.1447 C   0  0  1  0  0  0  0  0  0  0  0  0
   10.3195  -16.0147   24.1474 C   0  0  0  0  0  0  0  0  0  0  0  0
   11.3964  -15.4059   23.9796 O   0  0  0  0  0  0  0  0  0  0  0  0
   11.0051  -13.7191   27.2316 C   0  0  0  0  0  0  0  0  0  0  0  0
   10.0343  -14.7664   27.7499 C   0  0  2  0  0  0  0  0  0  0  0  0
    9.3859  -14.3233   29.0141 C   0  0  0  0  0  0  0  0  0  0  0  0
   10.6096  -16.1394   27.7574 C   0  0  0  0  0  0  0  0  0  0  0  0
   11.1237  -16.6554   26.4564 C   0  0  2  0  0  0  0  0  0  0  0  0
   10.1367  -16.6706   25.3962 N   0  0  0  0  0  0  0  0  0  0  0  0
   11.8579  -17.9136   26.5484 C   0  0  0  0  0  0  0  0  0  0  0  0
   11.4550  -19.0257   25.8374 O   0  0  0  0  0  0  0  0  0  0  0  0
   12.8702  -18.0091   27.2763 O   0  0  0  0  0  0  0  0  0  0  0  0
  1  2  1  0
  3  2  1  0
  3  4  1  1
  5  3  1  0
  5  6  1  1
  7  8  2  0
  7  5  1  0
  9  7  1  0
 10  9  1  0
 11 10  1  0
 12 11  1  0
 12 13  1  0
 13 14  1  1
 13  9  1  0
 14 15  2  0
 17 16  1  1
 17 19  1  0
 18 17  1  0
 20 19  1  1
 20 21  1  0
 21 14  1  0
 22 20  1  0
 23 22  1  0
 24 22  2  0
M  END
$$$$
