IPL.pdb
     RDKit          3D

 24 24  0  0  1  0  0  0  0  0999 V2000
    7.8194  -11.6868   26.8633 C   0  0  0  0  0  0  0  0  0  0  0  0
    7.2462  -13.0488   26.6699 C   0  0  0  0  0  0  0  0  0  0  0  0
    6.4423  -13.1694   25.4269 C   0  0  2  0  0  0  0  0  0  0  0  0
    5.1863  -12.3057   25.5830 C   0  0  0  0  0  0  0  0  0  0  0  0
    6.0513  -14.6173   25.1760 C   0  0  2  0  0  0  0  0  0  0  0  0
    5.3868  -15.1316   26.2985 N   0  0  0  0  0  0  0  0  0  0  0  0
    7.1526  -15.4033   24.5995 C   0  0  0  0  0  0  0  0  0  0  0  0
    7.7107  -16.1984   25.4529 O   0  0  0  0  0  0  0  0  0  0  0  0
    7.6330  -15.3708   23.2707 N   0  0  0  0  0  0  0  0  0  0  0  0
    6.9293  -14.7776   22.1581 C   0  0  0  0  0  0  0  0  0  0  0  0
    7.8553  -14.9407   20.9392 C   0  0  0  0  0  0  0  0  0  0  0  0
    9.1823  -15.0632   21.5760 C   0  0  0  0  0  0  0  0  0  0  0  0
    8.9011  -15.9150   22.8209 C   0  0  1  0  0  0  0  0  0  0  0  0
   10.0314  -15.6238   23.7428 C   0  0  0  0  0  0  0  0  0  0  0  0
   10.6263  -14.5291   23.8220 O   0  0  0  0  0  0  0  0  0  0  0  0
    9.6980  -14.9980   29.1866 C   0  0  0  0  0  0  0  0  0  0  0  0
   10.7697  -15.2460   28.1389 C   0  0  2  0  0  0  0  0  0  0  0  0
   11.8105  -14.1826   28.1686 C   0  0  0  0  0  0  0  0  0  0  0  0
   10.2087  -15.5735   26.7995 C   0  0  0  0  0  0  0  0  0  0  0  0
   11.0518  -16.4248   25.9120 C   0  0  2  0  0  0  0  0  0  0  0  0
   10.4767  -16.6643   24.6042 N   0  0  0  0  0  0  0  0  0  0  0  0
   11.5449  -17.6500   26.5336 C   0  0  0  0  0  0  0  0  0  0  0  0
   12.8676  -17.7757   26.9065 O   0  0  0  0  0  0  0  0  0  0  0  0
   10.7755  -18.6136   26.7412 O   0  0  0  0  0  0  0  0  0  0  0  0
  1  2  1  0
  3  2  1  0
  3  4  1  1
  5  3  1  0
  5  6  1  1
  7  8  2  0
  7  5  1  0
  9  7  1  0
 10  9  1  0
 11 10  1  0
 12 11  1  0
 12 13  1  0
 13 14  1  1
 13  9  1  0
 14 15  2  0
 17 16  1  1
 17 19  1  0
 18 17  1  0
 20 19  1  1
 20 21  1  0
 21 14  1  0
 22 20  1  0
 23 22  1  0
 24 22  2  0
M  END
$$$$
