IPL.pdb
     RDKit          3D

 24 24  0  0  1  0  0  0  0  0999 V2000
    5.7322  -11.2248   26.7013 C   0  0  0  0  0  0  0  0  0  0  0  0
    5.3853  -12.5674   26.1552 C   0  0  0  0  0  0  0  0  0  0  0  0
    6.5789  -13.4021   25.8643 C   0  0  2  0  0  0  0  0  0  0  0  0
    7.4980  -12.6131   24.9258 C   0  0  0  0  0  0  0  0  0  0  0  0
    6.1730  -14.7152   25.2138 C   0  0  2  0  0  0  0  0  0  0  0  0
    5.2712  -15.3976   26.0429 N   0  0  0  0  0  0  0  0  0  0  0  0
    7.3260  -15.4570   24.6817 C   0  0  0  0  0  0  0  0  0  0  0  0
    7.9345  -16.1623   25.5784 O   0  0  0  0  0  0  0  0  0  0  0  0
    7.8061  -15.4685   23.3524 N   0  0  0  0  0  0  0  0  0  0  0  0
    7.1419  -14.8406   22.2346 C   0  0  0  0  0  0  0  0  0  0  0  0
    8.0539  -15.0756   21.0169 C   0  0  0  0  0  0  0  0  0  0  0  0
    9.3706  -15.2794   21.6542 C   0  0  0  0  0  0  0  0  0  0  0  0
    9.0351  -16.0993   22.9071 C   0  0  1  0  0  0  0  0  0  0  0  0
   10.1832  -15.8747   23.8258 C   0  0  0  0  0  0  0  0  0  0  0  0
   10.9640  -14.9022   23.7707 O   0  0  0  0  0  0  0  0  0  0  0  0
   10.1089  -15.0768   29.2675 C   0  0  0  0  0  0  0  0  0  0  0  0
   11.1008  -14.9848   28.1205 C   0  0  2  0  0  0  0  0  0  0  0  0
   11.8685  -13.7107   28.1712 C   0  0  0  0  0  0  0  0  0  0  0  0
   10.5009  -15.3338   26.8036 C   0  0  0  0  0  0  0  0  0  0  0  0
   11.0723  -16.5191   26.1022 C   0  0  2  0  0  0  0  0  0  0  0  0
   10.4187  -16.8346   24.8486 N   0  0  0  0  0  0  0  0  0  0  0  0
   11.2518  -17.6968   26.9456 C   0  0  0  0  0  0  0  0  0  0  0  0
   10.3773  -18.7620   26.8750 O   0  0  0  0  0  0  0  0  0  0  0  0
   12.2052  -17.7639   27.7520 O   0  0  0  0  0  0  0  0  0  0  0  0
  1  2  1  0
  3  2  1  0
  3  4  1  6
  5  3  1  0
  5  6  1  1
  7  8  2  0
  7  5  1  0
  9  7  1  0
 10  9  1  0
 11 10  1  0
 12 11  1  0
 12 13  1  0
 13 14  1  1
 13  9  1  0
 14 15  2  0
 17 16  1  1
 17 19  1  0
 18 17  1  0
 20 19  1  1
 20 21  1  0
 21 14  1  0
 22 20  1  0
 23 22  1  0
 24 22  2  0
M  END
$$$$
