IPL.pdb
     RDKit          3D

 24 24  0  0  1  0  0  0  0  0999 V2000
    7.2445  -11.9680   27.5382 C   0  0  0  0  0  0  0  0  0  0  0  0
    6.8287  -13.3382   27.1250 C   0  0  0  0  0  0  0  0  0  0  0  0
    6.6150  -13.4634   25.6605 C   0  0  2  0  0  0  0  0  0  0  0  0
    5.4060  -12.6032   25.2777 C   0  0  0  0  0  0  0  0  0  0  0  0
    6.3668  -14.9128   25.2738 C   0  0  2  0  0  0  0  0  0  0  0  0
    5.4433  -15.4892   26.1577 N   0  0  0  0  0  0  0  0  0  0  0  0
    7.6147  -15.6413   24.9998 C   0  0  0  0  0  0  0  0  0  0  0  0
    7.9880  -16.3969   25.9804 O   0  0  0  0  0  0  0  0  0  0  0  0
    8.4025  -15.5934   23.8274 N   0  0  0  0  0  0  0  0  0  0  0  0
    8.0151  -14.9294   22.6050 C   0  0  0  0  0  0  0  0  0  0  0  0
    9.1997  -15.1038   21.6376 C   0  0  0  0  0  0  0  0  0  0  0  0
   10.3271  -15.3164   22.5678 C   0  0  0  0  0  0  0  0  0  0  0  0
    9.7163  -16.1902   23.6715 C   0  0  1  0  0  0  0  0  0  0  0  0
   10.6025  -15.9882   24.8488 C   0  0  0  0  0  0  0  0  0  0  0  0
   11.6268  -15.2745   24.8594 O   0  0  0  0  0  0  0  0  0  0  0  0
   11.9804  -13.7851   27.3775 C   0  0  0  0  0  0  0  0  0  0  0  0
   10.7576  -14.4839   27.9471 C   0  0  2  0  0  0  0  0  0  0  0  0
   10.1100  -13.6622   29.0056 C   0  0  0  0  0  0  0  0  0  0  0  0
   11.0103  -15.9101   28.2907 C   0  0  0  0  0  0  0  0  0  0  0  0
   11.2034  -16.8485   27.1482 C   0  0  2  0  0  0  0  0  0  0  0  0
   10.2671  -16.6539   26.0602 N   0  0  0  0  0  0  0  0  0  0  0  0
   11.3277  -18.2523   27.5283 C   0  0  0  0  0  0  0  0  0  0  0  0
   10.4782  -19.2076   27.0086 O   0  0  0  0  0  0  0  0  0  0  0  0
   12.2098  -18.6183   28.3355 O   0  0  0  0  0  0  0  0  0  0  0  0
  1  2  1  0
  3  2  1  0
  3  4  1  1
  5  3  1  0
  5  6  1  1
  7  8  2  0
  7  5  1  0
  9  7  1  0
 10  9  1  0
 11 10  1  0
 12 11  1  0
 12 13  1  0
 13 14  1  1
 13  9  1  0
 14 15  2  0
 17 16  1  1
 17 19  1  0
 18 17  1  0
 20 19  1  1
 20 21  1  0
 21 14  1  0
 22 20  1  0
 23 22  1  0
 24 22  2  0
M  END
$$$$
