IPL.pdb
     RDKit          3D

 24 24  0  0  1  0  0  0  0  0999 V2000
    6.6767  -20.0194   24.5854 C   0  0  0  0  0  0  0  0  0  0  0  0
    7.8790  -19.6229   23.7991 C   0  0  0  0  0  0  0  0  0  0  0  0
    7.5423  -19.0706   22.4621 C   0  0  2  0  0  0  0  0  0  0  0  0
    7.1454  -20.2352   21.5489 C   0  0  0  0  0  0  0  0  0  0  0  0
    8.7295  -18.3264   21.8716 C   0  0  2  0  0  0  0  0  0  0  0  0
    9.8530  -19.1651   21.8493 N   0  0  0  0  0  0  0  0  0  0  0  0
    8.8811  -16.9762   22.4347 C   0  0  0  0  0  0  0  0  0  0  0  0
    9.5602  -16.9575   23.5349 O   0  0  0  0  0  0  0  0  0  0  0  0
    8.3786  -15.7623   21.9137 N   0  0  0  0  0  0  0  0  0  0  0  0
    7.9337  -15.5753   20.5528 C   0  0  0  0  0  0  0  0  0  0  0  0
    7.4346  -14.1214   20.4692 C   0  0  0  0  0  0  0  0  0  0  0  0
    7.1019  -13.8295   21.8783 C   0  0  0  0  0  0  0  0  0  0  0  0
    8.2236  -14.5268   22.6594 C   0  0  1  0  0  0  0  0  0  0  0  0
    7.6683  -14.7244   24.0250 C   0  0  0  0  0  0  0  0  0  0  0  0
    7.4648  -15.8334   24.5611 O   0  0  0  0  0  0  0  0  0  0  0  0
    9.7819  -15.1723   28.0168 C   0  0  0  0  0  0  0  0  0  0  0  0
    8.9701  -14.0824   27.3379 C   0  0  2  0  0  0  0  0  0  0  0  0
    9.1492  -12.7716   28.0195 C   0  0  0  0  0  0  0  0  0  0  0  0
    7.5646  -14.4894   27.0641 C   0  0  0  0  0  0  0  0  0  0  0  0
    6.7901  -13.6274   26.1258 C   0  0  2  0  0  0  0  0  0  0  0  0
    7.3408  -13.5691   24.7873 N   0  0  0  0  0  0  0  0  0  0  0  0
    6.4595  -12.3048   26.6473 C   0  0  0  0  0  0  0  0  0  0  0  0
    5.5946  -12.1561   27.7124 O   0  0  0  0  0  0  0  0  0  0  0  0
    6.9551  -11.2763   26.1371 O   0  0  0  0  0  0  0  0  0  0  0  0
  1  2  1  0
  3  2  1  0
  3  4  1  6
  5  3  1  0
  5  6  1  1
  7  8  2  0
  7  5  1  0
  9  7  1  0
 10  9  1  0
 11 10  1  0
 12 11  1  0
 12 13  1  0
 13 14  1  1
 13  9  1  0
 14 15  2  0
 17 16  1  1
 17 19  1  0
 18 17  1  0
 20 19  1  1
 20 21  1  0
 21 14  1  0
 22 20  1  0
 23 22  1  0
 24 22  2  0
M  END
$$$$
