IPL.pdb
     RDKit          3D

 24 24  0  0  1  0  0  0  0  0999 V2000
    6.3660  -20.8483   17.8390 C   0  0  0  0  0  0  0  0  0  0  0  0
    6.7989  -19.4346   17.6521 C   0  0  0  0  0  0  0  0  0  0  0  0
    7.5222  -18.8883   18.8288 C   0  0  2  0  0  0  0  0  0  0  0  0
    6.5448  -18.8307   20.0075 C   0  0  0  0  0  0  0  0  0  0  0  0
    8.0630  -17.4986   18.5317 C   0  0  2  0  0  0  0  0  0  0  0  0
    8.7594  -17.5096   17.3147 N   0  0  0  0  0  0  0  0  0  0  0  0
    8.7157  -16.8896   19.7005 C   0  0  0  0  0  0  0  0  0  0  0  0
    9.8176  -17.4791   20.0321 O   0  0  0  0  0  0  0  0  0  0  0  0
    8.2729  -15.7800   20.4556 N   0  0  0  0  0  0  0  0  0  0  0  0
    7.1439  -14.9493   20.1088 C   0  0  0  0  0  0  0  0  0  0  0  0
    7.0212  -13.9122   21.2397 C   0  0  0  0  0  0  0  0  0  0  0  0
    7.6873  -14.6023   22.3628 C   0  0  0  0  0  0  0  0  0  0  0  0
    8.8716  -15.3104   21.6916 C   0  0  1  0  0  0  0  0  0  0  0  0
    9.2371  -16.4074   22.6273 C   0  0  0  0  0  0  0  0  0  0  0  0
    8.7611  -17.5612   22.5979 O   0  0  0  0  0  0  0  0  0  0  0  0
   13.8411  -19.3715   22.9895 C   0  0  0  0  0  0  0  0  0  0  0  0
   12.5367  -19.1505   23.7363 C   0  0  2  0  0  0  0  0  0  0  0  0
   11.7907  -20.4266   23.9097 C   0  0  0  0  0  0  0  0  0  0  0  0
   11.7515  -18.0016   23.2077 C   0  0  0  0  0  0  0  0  0  0  0  0
   11.0611  -17.1448   24.2139 C   0  0  2  0  0  0  0  0  0  0  0  0
   10.2012  -16.1324   23.6361 N   0  0  0  0  0  0  0  0  0  0  0  0
   11.9321  -16.6051   25.2534 C   0  0  0  0  0  0  0  0  0  0  0  0
   12.6510  -15.4452   25.0473 O   0  0  0  0  0  0  0  0  0  0  0  0
   12.0447  -17.1854   26.3553 O   0  0  0  0  0  0  0  0  0  0  0  0
  1  2  1  0
  3  2  1  0
  3  4  1  1
  5  3  1  0
  5  6  1  6
  7  8  2  0
  7  5  1  0
  9  7  1  0
 10  9  1  0
 11 10  1  0
 12 11  1  0
 12 13  1  0
 13 14  1  1
 13  9  1  0
 14 15  2  0
 17 16  1  6
 17 19  1  0
 18 17  1  0
 20 19  1  6
 20 21  1  0
 21 14  1  0
 22 20  1  0
 23 22  1  0
 24 22  2  0
M  END
$$$$
