IPL.pdb
     RDKit          3D

 24 24  0  0  1  0  0  0  0  0999 V2000
    8.0513  -11.8613   27.3568 C   0  0  0  0  0  0  0  0  0  0  0  0
    7.4605  -13.2033   27.0903 C   0  0  0  0  0  0  0  0  0  0  0  0
    6.8152  -13.2992   25.7559 C   0  0  2  0  0  0  0  0  0  0  0  0
    5.5829  -12.3885   25.7532 C   0  0  0  0  0  0  0  0  0  0  0  0
    6.4048  -14.7325   25.4573 C   0  0  2  0  0  0  0  0  0  0  0  0
    5.7521  -15.2818   26.5701 N   0  0  0  0  0  0  0  0  0  0  0  0
    7.4884  -15.5076   24.8344 C   0  0  0  0  0  0  0  0  0  0  0  0
    8.0159  -16.3768   25.6332 O   0  0  0  0  0  0  0  0  0  0  0  0
    7.9816  -15.3953   23.5147 N   0  0  0  0  0  0  0  0  0  0  0  0
    7.3397  -14.6469   22.4597 C   0  0  0  0  0  0  0  0  0  0  0  0
    8.2598  -14.7760   21.2322 C   0  0  0  0  0  0  0  0  0  0  0  0
    9.5662  -15.0664   21.8569 C   0  0  0  0  0  0  0  0  0  0  0  0
    9.2039  -16.0009   23.0188 C   0  0  1  0  0  0  0  0  0  0  0  0
   10.3464  -15.8900   23.9648 C   0  0  0  0  0  0  0  0  0  0  0  0
   11.3466  -15.1621   23.7966 O   0  0  0  0  0  0  0  0  0  0  0  0
    9.9655  -13.1334   27.5965 C   0  0  0  0  0  0  0  0  0  0  0  0
   10.1637  -14.6393   27.6221 C   0  0  2  0  0  0  0  0  0  0  0  0
   10.1436  -15.1632   29.0150 C   0  0  0  0  0  0  0  0  0  0  0  0
   11.2984  -15.0910   26.7709 C   0  0  0  0  0  0  0  0  0  0  0  0
   11.2318  -16.4885   26.2553 C   0  0  2  0  0  0  0  0  0  0  0  0
   10.3069  -16.6679   25.1549 N   0  0  0  0  0  0  0  0  0  0  0  0
   11.0725  -17.5101   27.2856 C   0  0  0  0  0  0  0  0  0  0  0  0
   10.0053  -18.3847   27.2608 O   0  0  0  0  0  0  0  0  0  0  0  0
   11.9031  -17.6131   28.2147 O   0  0  0  0  0  0  0  0  0  0  0  0
  1  2  1  0
  3  2  1  0
  3  4  1  1
  5  3  1  0
  5  6  1  1
  7  8  2  0
  7  5  1  0
  9  7  1  0
 10  9  1  0
 11 10  1  0
 12 11  1  0
 12 13  1  0
 13 14  1  1
 13  9  1  0
 14 15  2  0
 17 16  1  1
 17 19  1  0
 18 17  1  0
 20 19  1  1
 20 21  1  0
 21 14  1  0
 22 20  1  0
 23 22  1  0
 24 22  2  0
M  END
$$$$
