IPL.pdb
     RDKit          3D

 24 24  0  0  1  0  0  0  0  0999 V2000
   12.9034  -13.9763   18.1110 C   0  0  0  0  0  0  0  0  0  0  0  0
   11.4170  -13.9272   18.0146 C   0  0  0  0  0  0  0  0  0  0  0  0
   10.7466  -13.9992   19.3380 C   0  0  2  0  0  0  0  0  0  0  0  0
   11.1437  -15.3204   20.0048 C   0  0  0  0  0  0  0  0  0  0  0  0
    9.2358  -13.9278   19.1815 C   0  0  2  0  0  0  0  0  0  0  0  0
    8.8802  -12.7323   18.5407 N   0  0  0  0  0  0  0  0  0  0  0  0
    8.5265  -14.2914   20.4176 C   0  0  0  0  0  0  0  0  0  0  0  0
    8.6407  -13.4024   21.3495 O   0  0  0  0  0  0  0  0  0  0  0  0
    7.7735  -15.4608   20.6685 N   0  0  0  0  0  0  0  0  0  0  0  0
    7.4413  -16.4523   19.6726 C   0  0  0  0  0  0  0  0  0  0  0  0
    6.6622  -17.5518   20.4168 C   0  0  0  0  0  0  0  0  0  0  0  0
    7.1321  -17.3746   21.8058 C   0  0  0  0  0  0  0  0  0  0  0  0
    7.2284  -15.8505   21.9559 C   0  0  1  0  0  0  0  0  0  0  0  0
    8.1711  -15.6399   23.0870 C   0  0  0  0  0  0  0  0  0  0  0  0
    9.3984  -15.8651   23.0470 O   0  0  0  0  0  0  0  0  0  0  0  0
    5.9224  -13.1181   25.6794 C   0  0  0  0  0  0  0  0  0  0  0  0
    7.1236  -13.0379   26.6060 C   0  0  2  0  0  0  0  0  0  0  0  0
    7.1630  -11.7370   27.3279 C   0  0  0  0  0  0  0  0  0  0  0  0
    8.3922  -13.4602   25.9514 C   0  0  0  0  0  0  0  0  0  0  0  0
    8.4616  -14.8722   25.4775 C   0  0  2  0  0  0  0  0  0  0  0  0
    7.6454  -15.1443   24.3122 N   0  0  0  0  0  0  0  0  0  0  0  0
    8.2854  -15.8744   26.5240 C   0  0  0  0  0  0  0  0  0  0  0  0
    7.3384  -16.8708   26.4022 O   0  0  0  0  0  0  0  0  0  0  0  0
    8.9918  -15.8496   27.5556 O   0  0  0  0  0  0  0  0  0  0  0  0
  1  2  1  0
  3  2  1  0
  3  4  1  6
  5  3  1  0
  5  6  1  1
  7  8  2  0
  7  5  1  0
  9  7  1  0
 10  9  1  0
 11 10  1  0
 12 11  1  0
 12 13  1  0
 13 14  1  1
 13  9  1  0
 14 15  2  0
 17 16  1  6
 17 19  1  0
 18 17  1  0
 20 19  1  1
 20 21  1  0
 21 14  1  0
 22 20  1  0
 23 22  1  0
 24 22  2  0
M  END
$$$$
