IPL.pdb
     RDKit          3D

 24 24  0  0  1  0  0  0  0  0999 V2000
    7.3133  -12.1310   19.7522 C   0  0  0  0  0  0  0  0  0  0  0  0
    7.2719  -13.6207   19.7582 C   0  0  0  0  0  0  0  0  0  0  0  0
    7.8613  -14.2131   20.9861 C   0  0  2  0  0  0  0  0  0  0  0  0
    9.3215  -13.7592   21.0835 C   0  0  0  0  0  0  0  0  0  0  0  0
    7.7893  -15.7313   20.9404 C   0  0  2  0  0  0  0  0  0  0  0  0
    6.4952  -16.1353   20.5824 N   0  0  0  0  0  0  0  0  0  0  0  0
    8.4127  -16.3575   22.1160 C   0  0  0  0  0  0  0  0  0  0  0  0
    7.8123  -16.0688   23.2242 O   0  0  0  0  0  0  0  0  0  0  0  0
    9.5476  -17.1994   22.1456 N   0  0  0  0  0  0  0  0  0  0  0  0
   10.2122  -17.7220   20.9750 C   0  0  0  0  0  0  0  0  0  0  0  0
   11.4087  -18.5367   21.4990 C   0  0  0  0  0  0  0  0  0  0  0  0
   11.6413  -17.9242   22.8226 C   0  0  0  0  0  0  0  0  0  0  0  0
   10.2230  -17.6594   23.3451 C   0  0  1  0  0  0  0  0  0  0  0  0
   10.3901  -16.5992   24.3748 C   0  0  0  0  0  0  0  0  0  0  0  0
   10.5505  -15.3851   24.1322 O   0  0  0  0  0  0  0  0  0  0  0  0
    8.0596  -13.0352   27.6737 C   0  0  0  0  0  0  0  0  0  0  0  0
    9.2533  -13.9664   27.8002 C   0  0  2  0  0  0  0  0  0  0  0  0
   10.4992  -13.2097   28.1007 C   0  0  0  0  0  0  0  0  0  0  0  0
    9.3407  -14.9539   26.6897 C   0  0  0  0  0  0  0  0  0  0  0  0
   10.3517  -16.0396   26.8392 C   0  0  2  0  0  0  0  0  0  0  0  0
   10.3670  -16.9865   25.7431 N   0  0  0  0  0  0  0  0  0  0  0  0
   10.3482  -16.6989   28.1415 C   0  0  0  0  0  0  0  0  0  0  0  0
    9.4237  -17.6791   28.4398 O   0  0  0  0  0  0  0  0  0  0  0  0
   11.1861  -16.3872   29.0159 O   0  0  0  0  0  0  0  0  0  0  0  0
  1  2  1  0
  3  2  1  0
  3  4  1  6
  5  3  1  0
  5  6  1  1
  7  8  2  0
  7  5  1  0
  9  7  1  0
 10  9  1  0
 11 10  1  0
 12 11  1  0
 12 13  1  0
 13 14  1  1
 13  9  1  0
 14 15  2  0
 17 16  1  6
 17 19  1  0
 18 17  1  0
 20 19  1  6
 20 21  1  0
 21 14  1  0
 22 20  1  0
 23 22  1  0
 24 22  2  0
M  END
$$$$
