IPL.pdb
     RDKit          3D

 24 24  0  0  1  0  0  0  0  0999 V2000
   13.3884  -18.3288   19.0844 C   0  0  0  0  0  0  0  0  0  0  0  0
   11.9212  -18.5028   18.8896 C   0  0  0  0  0  0  0  0  0  0  0  0
   11.1136  -17.8664   19.9614 C   0  0  2  0  0  0  0  0  0  0  0  0
   11.4383  -18.5661   21.2853 C   0  0  0  0  0  0  0  0  0  0  0  0
    9.6280  -17.9853   19.6597 C   0  0  2  0  0  0  0  0  0  0  0  0
    9.3613  -17.4821   18.3784 N   0  0  0  0  0  0  0  0  0  0  0  0
    8.7905  -17.5221   20.7765 C   0  0  0  0  0  0  0  0  0  0  0  0
    8.8830  -16.2499   20.9877 O   0  0  0  0  0  0  0  0  0  0  0  0
    7.9407  -18.2976   21.5975 N   0  0  0  0  0  0  0  0  0  0  0  0
    7.7866  -19.7299   21.4978 C   0  0  0  0  0  0  0  0  0  0  0  0
    6.8056  -20.1266   22.6158 C   0  0  0  0  0  0  0  0  0  0  0  0
    6.9643  -19.0129   23.5729 C   0  0  0  0  0  0  0  0  0  0  0  0
    7.1040  -17.7830   22.6660 C   0  0  1  0  0  0  0  0  0  0  0  0
    7.7820  -16.7639   23.5112 C   0  0  0  0  0  0  0  0  0  0  0  0
    9.0171  -16.6711   23.6678 O   0  0  0  0  0  0  0  0  0  0  0  0
    8.1512  -12.8250   26.9433 C   0  0  0  0  0  0  0  0  0  0  0  0
    7.1661  -12.3897   25.8718 C   0  0  2  0  0  0  0  0  0  0  0  0
    6.1288  -11.4797   26.4294 C   0  0  0  0  0  0  0  0  0  0  0  0
    6.6653  -13.5234   25.0473 C   0  0  0  0  0  0  0  0  0  0  0  0
    7.5107  -14.7512   25.0157 C   0  0  2  0  0  0  0  0  0  0  0  0
    6.9714  -15.8181   24.1976 N   0  0  0  0  0  0  0  0  0  0  0  0
    7.9463  -15.2237   26.3263 C   0  0  0  0  0  0  0  0  0  0  0  0
    9.2182  -14.9578   26.7914 O   0  0  0  0  0  0  0  0  0  0  0  0
    7.1728  -15.8813   27.0562 O   0  0  0  0  0  0  0  0  0  0  0  0
  1  2  1  0
  3  2  1  0
  3  4  1  1
  5  3  1  0
  5  6  1  6
  7  8  2  0
  7  5  1  0
  9  7  1  0
 10  9  1  0
 11 10  1  0
 12 11  1  0
 12 13  1  0
 13 14  1  1
 13  9  1  0
 14 15  2  0
 17 16  1  1
 17 19  1  0
 18 17  1  0
 20 19  1  1
 20 21  1  0
 21 14  1  0
 22 20  1  0
 23 22  1  0
 24 22  2  0
M  END
$$$$
