IPL.pdb
     RDKit          3D

 24 24  0  0  1  0  0  0  0  0999 V2000
    7.3788  -18.4948   21.6176 C   0  0  0  0  0  0  0  0  0  0  0  0
    8.1403  -17.2162   21.5389 C   0  0  0  0  0  0  0  0  0  0  0  0
    7.2673  -16.0316   21.3375 C   0  0  2  0  0  0  0  0  0  0  0  0
    6.5763  -16.1716   19.9771 C   0  0  0  0  0  0  0  0  0  0  0  0
    8.0818  -14.7483   21.3788 C   0  0  2  0  0  0  0  0  0  0  0  0
    9.0393  -14.7597   20.3545 N   0  0  0  0  0  0  0  0  0  0  0  0
    8.5239  -14.4087   22.7398 C   0  0  0  0  0  0  0  0  0  0  0  0
    9.7827  -14.6300   22.9354 O   0  0  0  0  0  0  0  0  0  0  0  0
    7.7419  -13.8920   23.7976 N   0  0  0  0  0  0  0  0  0  0  0  0
    6.4172  -13.3384   23.6443 C   0  0  0  0  0  0  0  0  0  0  0  0
    5.9543  -12.9554   25.0616 C   0  0  0  0  0  0  0  0  0  0  0  0
    6.7802  -13.8434   25.9048 C   0  0  0  0  0  0  0  0  0  0  0  0
    8.1395  -13.8451   25.1928 C   0  0  1  0  0  0  0  0  0  0  0  0
    8.8105  -15.0877   25.6599 C   0  0  0  0  0  0  0  0  0  0  0  0
    8.7692  -16.1879   25.0712 O   0  0  0  0  0  0  0  0  0  0  0  0
   11.8335  -13.8877   30.1010 C   0  0  0  0  0  0  0  0  0  0  0  0
   10.8047  -14.8055   29.4631 C   0  0  2  0  0  0  0  0  0  0  0  0
    9.9817  -15.4939   30.4945 C   0  0  0  0  0  0  0  0  0  0  0  0
   11.3804  -15.6744   28.4002 C   0  0  0  0  0  0  0  0  0  0  0  0
   10.4620  -16.0780   27.2970 C   0  0  2  0  0  0  0  0  0  0  0  0
    9.5589  -15.0298   26.8680 N   0  0  0  0  0  0  0  0  0  0  0  0
    9.7753  -17.3481   27.5111 C   0  0  0  0  0  0  0  0  0  0  0  0
    8.3972  -17.4216   27.5031 O   0  0  0  0  0  0  0  0  0  0  0  0
   10.4247  -18.3986   27.7069 O   0  0  0  0  0  0  0  0  0  0  0  0
  1  2  1  0
  3  2  1  0
  3  4  1  6
  5  3  1  0
  5  6  1  6
  7  8  2  0
  7  5  1  0
  9  7  1  0
 10  9  1  0
 11 10  1  0
 12 11  1  0
 12 13  1  0
 13 14  1  1
 13  9  1  0
 14 15  2  0
 17 16  1  1
 17 19  1  0
 18 17  1  0
 20 19  1  1
 20 21  1  0
 21 14  1  0
 22 20  1  0
 23 22  1  0
 24 22  2  0
M  END
$$$$
