IPL.pdb
     RDKit          3D

 24 24  0  0  1  0  0  0  0  0999 V2000
    5.6249  -10.9659   26.7035 C   0  0  0  0  0  0  0  0  0  0  0  0
    5.3436  -12.3426   26.2070 C   0  0  0  0  0  0  0  0  0  0  0  0
    6.5763  -13.1270   25.9402 C   0  0  2  0  0  0  0  0  0  0  0  0
    7.4293  -12.3503   24.9316 C   0  0  0  0  0  0  0  0  0  0  0  0
    6.2322  -14.4996   25.3840 C   0  0  2  0  0  0  0  0  0  0  0  0
    5.3024  -15.1324   26.2213 N   0  0  0  0  0  0  0  0  0  0  0  0
    7.4266  -15.2545   24.9758 C   0  0  0  0  0  0  0  0  0  0  0  0
    8.0142  -15.8487   25.9625 O   0  0  0  0  0  0  0  0  0  0  0  0
    7.9640  -15.3825   23.6749 N   0  0  0  0  0  0  0  0  0  0  0  0
    7.4070  -14.7679   22.4929 C   0  0  0  0  0  0  0  0  0  0  0  0
    8.3502  -15.1474   21.3370 C   0  0  0  0  0  0  0  0  0  0  0  0
    9.6145  -15.4215   22.0497 C   0  0  0  0  0  0  0  0  0  0  0  0
    9.1540  -16.1370   23.3265 C   0  0  1  0  0  0  0  0  0  0  0  0
   10.2739  -15.9546   24.2882 C   0  0  0  0  0  0  0  0  0  0  0  0
   11.1794  -15.1022   24.1787 O   0  0  0  0  0  0  0  0  0  0  0  0
   11.5145  -13.9395   27.2249 C   0  0  0  0  0  0  0  0  0  0  0  0
   10.5807  -14.9688   27.8384 C   0  0  2  0  0  0  0  0  0  0  0  0
   10.1298  -14.5495   29.1933 C   0  0  0  0  0  0  0  0  0  0  0  0
   11.0939  -16.3614   27.7228 C   0  0  0  0  0  0  0  0  0  0  0  0
   11.4385  -16.8348   26.3515 C   0  0  2  0  0  0  0  0  0  0  0  0
   10.3273  -16.8110   25.4226 N   0  0  0  0  0  0  0  0  0  0  0  0
   12.1692  -18.0977   26.3097 C   0  0  0  0  0  0  0  0  0  0  0  0
   11.6019  -19.2635   26.7824 O   0  0  0  0  0  0  0  0  0  0  0  0
   13.3282  -18.1482   25.8430 O   0  0  0  0  0  0  0  0  0  0  0  0
  1  2  1  0
  3  2  1  0
  3  4  1  6
  5  3  1  0
  5  6  1  1
  7  8  2  0
  7  5  1  0
  9  7  1  0
 10  9  1  0
 11 10  1  0
 12 11  1  0
 12 13  1  0
 13 14  1  1
 13  9  1  0
 14 15  2  0
 17 16  1  1
 17 19  1  0
 18 17  1  0
 20 19  1  1
 20 21  1  0
 21 14  1  0
 22 20  1  0
 23 22  1  0
 24 22  2  0
M  END
$$$$
