IPL.pdb
     RDKit          3D

 24 24  0  0  1  0  0  0  0  0999 V2000
    8.0661  -11.2595   27.0098 C   0  0  0  0  0  0  0  0  0  0  0  0
    7.4141  -12.5977   26.9394 C   0  0  0  0  0  0  0  0  0  0  0  0
    6.7083  -12.8330   25.6539 C   0  0  2  0  0  0  0  0  0  0  0  0
    5.5098  -11.8808   25.5843 C   0  0  0  0  0  0  0  0  0  0  0  0
    6.2351  -14.2746   25.5546 C   0  0  2  0  0  0  0  0  0  0  0  0
    5.6011  -14.6501   26.7476 N   0  0  0  0  0  0  0  0  0  0  0  0
    7.2673  -15.1667   25.0054 C   0  0  0  0  0  0  0  0  0  0  0  0
    7.7825  -15.9545   25.8919 O   0  0  0  0  0  0  0  0  0  0  0  0
    7.7253  -15.2379   23.6702 N   0  0  0  0  0  0  0  0  0  0  0  0
    7.1325  -14.5291   22.5606 C   0  0  0  0  0  0  0  0  0  0  0  0
    7.9917  -14.8771   21.3315 C   0  0  0  0  0  0  0  0  0  0  0  0
    9.2796  -15.2478   21.9523 C   0  0  0  0  0  0  0  0  0  0  0  0
    8.8581  -16.0197   23.2097 C   0  0  1  0  0  0  0  0  0  0  0  0
   10.0369  -15.9443   24.1137 C   0  0  0  0  0  0  0  0  0  0  0  0
   11.0501  -15.2435   23.9113 O   0  0  0  0  0  0  0  0  0  0  0  0
   11.0588  -13.9227   27.3403 C   0  0  0  0  0  0  0  0  0  0  0  0
   10.1450  -15.0309   27.8352 C   0  0  2  0  0  0  0  0  0  0  0  0
    9.6206  -14.7315   29.1955 C   0  0  0  0  0  0  0  0  0  0  0  0
   10.7214  -16.3897   27.6419 C   0  0  0  0  0  0  0  0  0  0  0  0
   11.1132  -16.7576   26.2510 C   0  0  2  0  0  0  0  0  0  0  0  0
   10.0193  -16.7257   25.3020 N   0  0  0  0  0  0  0  0  0  0  0  0
   11.9037  -17.9800   26.1449 C   0  0  0  0  0  0  0  0  0  0  0  0
   13.1194  -18.0987   26.7873 O   0  0  0  0  0  0  0  0  0  0  0  0
   11.4936  -18.9474   25.4670 O   0  0  0  0  0  0  0  0  0  0  0  0
  1  2  1  0
  3  2  1  0
  3  4  1  1
  5  3  1  0
  5  6  1  1
  7  8  2  0
  7  5  1  0
  9  7  1  0
 10  9  1  0
 11 10  1  0
 12 11  1  0
 12 13  1  0
 13 14  1  1
 13  9  1  0
 14 15  2  0
 17 16  1  1
 17 19  1  0
 18 17  1  0
 20 19  1  1
 20 21  1  0
 21 14  1  0
 22 20  1  0
 23 22  1  0
 24 22  2  0
M  END
$$$$
