HQA.pdb
     RDKit          3D

 25 25  0  0  1  0  0  0  0  0999 V2000
   35.3369  -35.4334   -8.9127 N   0  0  0  0  0  0  0  0  0  0  0  0
   35.3542  -36.2763   -7.7332 C   0  0  1  0  0  0  0  0  0  0  0  0
   36.7753  -36.4280   -7.2881 C   0  0  0  0  0  0  0  0  0  0  0  0
   37.4940  -37.2442   -8.3005 C   0  0  0  0  0  0  0  0  0  0  0  0
   38.5545  -36.8970   -9.1159 C   0  0  0  0  0  0  0  0  0  0  0  0
   38.9038  -37.9362   -9.8910 N   0  0  0  0  0  0  0  0  0  0  0  0
   38.0905  -38.9338   -9.5869 C   0  0  0  0  0  0  0  0  0  0  0  0
   37.2191  -38.5354   -8.6167 N   0  0  0  0  0  0  0  0  0  0  0  0
   34.4547  -35.7919   -6.6795 C   0  0  0  0  0  0  0  0  0  0  0  0
   34.5732  -34.6029   -6.2926 O   0  0  0  0  0  0  0  0  0  0  0  0
   29.3531  -34.7708   -4.2514 N   0  0  0  0  0  0  0  0  0  0  0  0
   29.6733  -34.5018   -5.5995 C   0  0  0  0  0  0  0  0  0  0  0  0
   29.1651  -33.4373   -6.0920 O   0  0  0  0  0  0  0  0  0  0  0  0
   30.5496  -35.3961   -6.4111 C   0  0  0  0  0  0  0  0  0  0  0  0
   31.1020  -36.4533   -5.4885 C   0  0  0  0  0  0  0  0  0  0  0  0
   32.5340  -36.2118   -5.1107 C   0  0  2  0  0  0  0  0  0  0  0  0
   33.4730  -36.6467   -6.1099 N   0  0  0  0  0  0  0  0  0  0  0  0
   32.8002  -36.8773   -3.8259 C   0  0  0  0  0  0  0  0  0  0  0  0
   33.0636  -38.0917   -3.7989 O   0  0  0  0  0  0  0  0  0  0  0  0
   33.5524  -35.6708   -0.4367 C   0  0  0  0  0  0  0  0  0  0  0  0
   33.0601  -36.7690   -1.3760 C   0  0  2  0  0  0  0  0  0  0  0  0
   32.7551  -36.1338   -2.6324 N   0  0  0  0  0  0  0  0  0  0  0  0
   31.8559  -37.3869   -0.7844 C   0  0  0  0  0  0  0  0  0  0  0  0
   30.7342  -37.1449   -1.2590 O   0  0  0  0  0  0  0  0  0  0  0  0
   31.9476  -38.2455    0.3068 O   0  0  0  0  0  0  0  0  0  0  0  0
  2  1  1  6
  2  3  1  0
  2  9  1  0
  4  5  2  0
  4  3  1  0
  6  5  1  0
  7  8  2  0
  7  6  1  0
  8  4  1  0
  9 10  2  0
 11 12  1  0
 12 13  2  0
 12 14  1  0
 14 15  1  0
 16 15  1  6
 16 18  1  0
 17 16  1  0
 17  9  1  0
 18 19  2  0
 21 20  1  1
 21 23  1  0
 22 21  1  0
 22 18  1  0
 23 24  2  0
 23 25  1  0
M  END
$$$$
