HQA.pdb
     RDKit          3D

 25 25  0  0  1  0  0  0  0  0999 V2000
   19.2810  -11.2343  -15.8627 N   0  0  0  0  0  0  0  0  0  0  0  0
   19.7198   -9.8987  -16.2171 C   0  0  1  0  0  0  0  0  0  0  0  0
   19.4874   -9.7041  -17.6830 C   0  0  0  0  0  0  0  0  0  0  0  0
   20.2760  -10.7268  -18.4177 C   0  0  0  0  0  0  0  0  0  0  0  0
   19.8395  -11.7474  -19.2410 C   0  0  0  0  0  0  0  0  0  0  0  0
   20.8859  -12.4487  -19.7057 N   0  0  0  0  0  0  0  0  0  0  0  0
   21.9752  -11.8977  -19.1970 C   0  0  0  0  0  0  0  0  0  0  0  0
   21.6286  -10.8427  -18.4058 N   0  0  0  0  0  0  0  0  0  0  0  0
   19.1057   -8.8615  -15.3799 C   0  0  0  0  0  0  0  0  0  0  0  0
   17.8619   -8.8914  -15.2076 O   0  0  0  0  0  0  0  0  0  0  0  0
   21.1115   -6.6691  -10.1013 N   0  0  0  0  0  0  0  0  0  0  0  0
   20.0068   -5.8236  -10.3406 C   0  0  0  0  0  0  0  0  0  0  0  0
   19.6228   -5.1135   -9.3496 O   0  0  0  0  0  0  0  0  0  0  0  0
   19.3205   -5.7533  -11.6637 C   0  0  0  0  0  0  0  0  0  0  0  0
   19.9680   -6.7716  -12.5682 C   0  0  0  0  0  0  0  0  0  0  0  0
   19.3520   -6.8169  -13.9358 C   0  0  2  0  0  0  0  0  0  0  0  0
   19.8981   -7.8474  -14.7780 N   0  0  0  0  0  0  0  0  0  0  0  0
   19.5081   -5.4967  -14.5660 C   0  0  0  0  0  0  0  0  0  0  0  0
   20.6267   -5.1258  -14.9608 O   0  0  0  0  0  0  0  0  0  0  0  0
   17.1209   -2.7824  -15.4551 C   0  0  0  0  0  0  0  0  0  0  0  0
   18.5075   -3.4210  -15.4442 C   0  0  2  0  0  0  0  0  0  0  0  0
   18.3877   -4.6595  -14.7185 N   0  0  0  0  0  0  0  0  0  0  0  0
   19.4437   -2.4972  -14.7718 C   0  0  0  0  0  0  0  0  0  0  0  0
   19.5433   -2.5025  -13.5341 O   0  0  0  0  0  0  0  0  0  0  0  0
   20.2283   -1.6084  -15.5005 O   0  0  0  0  0  0  0  0  0  0  0  0
  2  1  1  1
  2  3  1  0
  2  9  1  0
  4  5  2  0
  4  3  1  0
  6  5  1  0
  7  8  2  0
  7  6  1  0
  8  4  1  0
  9 10  2  0
 11 12  1  0
 12 13  2  0
 12 14  1  0
 14 15  1  0
 16 15  1  1
 16 18  1  0
 17 16  1  0
 17  9  1  0
 18 19  2  0
 21 20  1  1
 21 23  1  0
 22 21  1  0
 22 18  1  0
 23 24  2  0
 23 25  1  0
M  END
$$$$
