HQA.pdb
     RDKit          3D

 25 25  0  0  1  0  0  0  0  0999 V2000
   20.6108  -13.5975  -15.7671 N   0  0  0  0  0  0  0  0  0  0  0  0
   19.9350  -12.4523  -16.3447 C   0  0  1  0  0  0  0  0  0  0  0  0
   18.4684  -12.5929  -16.0805 C   0  0  0  0  0  0  0  0  0  0  0  0
   17.9893  -13.8216  -16.7650 C   0  0  0  0  0  0  0  0  0  0  0  0
   17.5059  -13.9787  -18.0502 C   0  0  0  0  0  0  0  0  0  0  0  0
   17.1787  -15.2623  -18.2694 N   0  0  0  0  0  0  0  0  0  0  0  0
   17.4429  -15.9229  -17.1545 C   0  0  0  0  0  0  0  0  0  0  0  0
   17.9397  -15.0637  -16.2194 N   0  0  0  0  0  0  0  0  0  0  0  0
   20.4966  -11.1755  -15.8882 C   0  0  0  0  0  0  0  0  0  0  0  0
   20.3167  -10.8371  -14.6921 O   0  0  0  0  0  0  0  0  0  0  0  0
   25.5369   -8.2997  -18.1678 N   0  0  0  0  0  0  0  0  0  0  0  0
   25.0578   -7.3566  -17.2333 C   0  0  0  0  0  0  0  0  0  0  0  0
   25.8006   -6.3341  -17.0418 O   0  0  0  0  0  0  0  0  0  0  0  0
   23.7660   -7.5300  -16.5069 C   0  0  0  0  0  0  0  0  0  0  0  0
   23.1706   -8.8451  -16.9426 C   0  0  0  0  0  0  0  0  0  0  0  0
   21.7978   -9.0809  -16.3843 C   0  0  2  0  0  0  0  0  0  0  0  0
   21.2265  -10.3414  -16.7771 N   0  0  0  0  0  0  0  0  0  0  0  0
   20.9264   -7.9681  -16.7928 C   0  0  0  0  0  0  0  0  0  0  0  0
   20.7778   -7.7067  -17.9987 O   0  0  0  0  0  0  0  0  0  0  0  0
   18.3737   -5.9126  -15.1610 C   0  0  0  0  0  0  0  0  0  0  0  0
   19.4813   -6.0595  -16.2014 C   0  0  2  0  0  0  0  0  0  0  0  0
   20.2647   -7.2044  -15.8138 N   0  0  0  0  0  0  0  0  0  0  0  0
   20.2970   -4.8279  -16.1947 C   0  0  0  0  0  0  0  0  0  0  0  0
   19.8103   -3.7560  -16.5897 O   0  0  0  0  0  0  0  0  0  0  0  0
   21.6158   -4.8386  -15.7507 O   0  0  0  0  0  0  0  0  0  0  0  0
  2  1  1  1
  2  3  1  0
  2  9  1  0
  4  5  2  0
  4  3  1  0
  6  5  1  0
  7  8  2  0
  7  6  1  0
  8  4  1  0
  9 10  2  0
 11 12  1  0
 12 13  2  0
 12 14  1  0
 14 15  1  0
 16 15  1  6
 16 18  1  0
 17 16  1  0
 17  9  1  0
 18 19  2  0
 21 20  1  1
 21 23  1  0
 22 21  1  0
 22 18  1  0
 23 24  2  0
 23 25  1  0
M  END
$$$$
