HQA.pdb
     RDKit          3D

 25 25  0  0  1  0  0  0  0  0999 V2000
   16.2809  -11.1048  -16.1330 N   0  0  0  0  0  0  0  0  0  0  0  0
   17.3613  -10.9285  -15.1824 C   0  0  1  0  0  0  0  0  0  0  0  0
   18.6111  -11.4888  -15.7863 C   0  0  0  0  0  0  0  0  0  0  0  0
   18.4329  -12.9554  -15.9444 C   0  0  0  0  0  0  0  0  0  0  0  0
   18.4589  -13.9513  -14.9864 C   0  0  0  0  0  0  0  0  0  0  0  0
   18.2538  -15.1494  -15.5566 N   0  0  0  0  0  0  0  0  0  0  0  0
   18.0985  -14.9375  -16.8528 C   0  0  0  0  0  0  0  0  0  0  0  0
   18.2038  -13.6036  -17.1150 N   0  0  0  0  0  0  0  0  0  0  0  0
   17.4961   -9.5382  -14.7319 C   0  0  0  0  0  0  0  0  0  0  0  0
   17.4160   -8.6223  -15.5875 O   0  0  0  0  0  0  0  0  0  0  0  0
   16.2372   -7.4810   -8.9482 N   0  0  0  0  0  0  0  0  0  0  0  0
   16.6386   -6.3018   -9.6122 C   0  0  0  0  0  0  0  0  0  0  0  0
   16.4888   -5.2143   -8.9575 O   0  0  0  0  0  0  0  0  0  0  0  0
   17.2041   -6.3100  -10.9930 C   0  0  0  0  0  0  0  0  0  0  0  0
   17.2155   -7.7396  -11.4729 C   0  0  0  0  0  0  0  0  0  0  0  0
   17.7836   -7.8902  -12.8536 C   0  0  2  0  0  0  0  0  0  0  0  0
   17.7120   -9.2344  -13.3608 N   0  0  0  0  0  0  0  0  0  0  0  0
   19.1756   -7.4141  -12.8440 C   0  0  0  0  0  0  0  0  0  0  0  0
   20.0142   -7.9632  -12.1092 O   0  0  0  0  0  0  0  0  0  0  0  0
   21.0643   -5.1119  -15.0385 C   0  0  0  0  0  0  0  0  0  0  0  0
   20.9370   -5.9623  -13.7771 C   0  0  2  0  0  0  0  0  0  0  0  0
   19.5506   -6.3375  -13.6685 N   0  0  0  0  0  0  0  0  0  0  0  0
   21.3621   -5.1498  -12.6191 C   0  0  0  0  0  0  0  0  0  0  0  0
   22.5537   -4.8258  -12.4889 O   0  0  0  0  0  0  0  0  0  0  0  0
   20.4481   -4.7322  -11.6565 O   0  0  0  0  0  0  0  0  0  0  0  0
  2  1  1  6
  2  3  1  0
  2  9  1  0
  4  5  2  0
  4  3  1  0
  6  5  1  0
  7  8  2  0
  7  6  1  0
  8  4  1  0
  9 10  2  0
 11 12  1  0
 12 13  2  0
 12 14  1  0
 14 15  1  0
 16 15  1  1
 16 18  1  0
 17 16  1  0
 17  9  1  0
 18 19  2  0
 21 20  1  6
 21 23  1  0
 22 21  1  0
 22 18  1  0
 23 24  2  0
 23 25  1  0
M  END
$$$$
