HQA.pdb
     RDKit          3D

 25 25  0  0  1  0  0  0  0  0999 V2000
   14.1739  -11.6801  -11.7071 N   0  0  0  0  0  0  0  0  0  0  0  0
   15.4293  -11.1968  -12.2479 C   0  0  1  0  0  0  0  0  0  0  0  0
   15.6217  -11.8084  -13.6005 C   0  0  0  0  0  0  0  0  0  0  0  0
   15.7236  -13.2813  -13.4335 C   0  0  0  0  0  0  0  0  0  0  0  0
   16.8011  -14.0466  -13.0295 C   0  0  0  0  0  0  0  0  0  0  0  0
   16.4675  -15.3470  -13.0148 N   0  0  0  0  0  0  0  0  0  0  0  0
   15.2045  -15.4249  -13.3996 C   0  0  0  0  0  0  0  0  0  0  0  0
   14.7272  -14.1748  -13.6614 N   0  0  0  0  0  0  0  0  0  0  0  0
   15.5191   -9.7320  -12.2448 C   0  0  0  0  0  0  0  0  0  0  0  0
   14.8256   -9.0890  -13.0713 O   0  0  0  0  0  0  0  0  0  0  0  0
   15.6892   -6.0396   -7.4326 N   0  0  0  0  0  0  0  0  0  0  0  0
   14.5971   -6.5749   -8.1490 C   0  0  0  0  0  0  0  0  0  0  0  0
   13.4641   -6.5233   -7.5595 O   0  0  0  0  0  0  0  0  0  0  0  0
   14.7422   -7.1674   -9.5107 C   0  0  0  0  0  0  0  0  0  0  0  0
   16.1948   -7.0619   -9.9018 C   0  0  0  0  0  0  0  0  0  0  0  0
   16.4774   -7.6231  -11.2645 C   0  0  2  0  0  0  0  0  0  0  0  0
   16.3699   -9.0562  -11.3293 N   0  0  0  0  0  0  0  0  0  0  0  0
   17.8176   -7.1852  -11.6849 C   0  0  0  0  0  0  0  0  0  0  0  0
   18.1065   -5.9764  -11.6764 O   0  0  0  0  0  0  0  0  0  0  0  0
   20.9711   -8.9460  -12.4957 C   0  0  0  0  0  0  0  0  0  0  0  0
   20.0697   -7.7146  -12.5384 C   0  0  2  0  0  0  0  0  0  0  0  0
   18.7667   -8.1393  -12.0950 N   0  0  0  0  0  0  0  0  0  0  0  0
   20.0238   -7.2153  -13.9279 C   0  0  0  0  0  0  0  0  0  0  0  0
   19.0243   -7.4273  -14.6336 O   0  0  0  0  0  0  0  0  0  0  0  0
   21.0873   -6.5032  -14.4740 O   0  0  0  0  0  0  0  0  0  0  0  0
  2  1  1  6
  2  3  1  0
  2  9  1  0
  4  5  2  0
  4  3  1  0
  6  5  1  0
  7  8  2  0
  7  6  1  0
  8  4  1  0
  9 10  2  0
 11 12  1  0
 12 13  2  0
 12 14  1  0
 14 15  1  0
 16 15  1  1
 16 18  1  0
 17 16  1  0
 17  9  1  0
 18 19  2  0
 21 20  1  6
 21 23  1  0
 22 21  1  0
 22 18  1  0
 23 24  2  0
 23 25  1  0
M  END
$$$$
