HQA.pdb
     RDKit          3D

 25 25  0  0  1  0  0  0  0  0999 V2000
   27.9028  -21.0003  -17.3393 N   0  0  0  0  0  0  0  0  0  0  0  0
   27.1982  -20.0549  -16.4957 C   0  0  1  0  0  0  0  0  0  0  0  0
   26.5751  -19.0170  -17.3762 C   0  0  0  0  0  0  0  0  0  0  0  0
   27.6375  -18.0677  -17.7979 C   0  0  0  0  0  0  0  0  0  0  0  0
   28.8035  -18.3100  -18.4992 C   0  0  0  0  0  0  0  0  0  0  0  0
   29.4880  -17.1678  -18.6707 N   0  0  0  0  0  0  0  0  0  0  0  0
   28.7845  -16.2071  -18.0951 C   0  0  0  0  0  0  0  0  0  0  0  0
   27.6483  -16.7323  -17.5541 N   0  0  0  0  0  0  0  0  0  0  0  0
   26.2466  -20.7071  -15.5886 C   0  0  0  0  0  0  0  0  0  0  0  0
   25.5913  -21.6897  -16.0158 O   0  0  0  0  0  0  0  0  0  0  0  0
   26.2536  -20.2340   -9.2912 N   0  0  0  0  0  0  0  0  0  0  0  0
   25.0743  -20.9693   -9.5380 C   0  0  0  0  0  0  0  0  0  0  0  0
   24.4438  -21.3764   -8.5033 O   0  0  0  0  0  0  0  0  0  0  0  0
   24.5827  -21.2606  -10.9164 C   0  0  0  0  0  0  0  0  0  0  0  0
   25.5383  -20.6144  -11.8877 C   0  0  0  0  0  0  0  0  0  0  0  0
   25.1657  -20.8508  -13.3219 C   0  0  2  0  0  0  0  0  0  0  0  0
   26.0699  -20.2391  -14.2588 N   0  0  0  0  0  0  0  0  0  0  0  0
   23.7928  -20.3678  -13.5371 C   0  0  0  0  0  0  0  0  0  0  0  0
   23.5571  -19.1475  -13.5373 O   0  0  0  0  0  0  0  0  0  0  0  0
   20.7509  -21.8135  -14.9228 C   0  0  0  0  0  0  0  0  0  0  0  0
   21.4071  -20.8252  -13.9620 C   0  0  2  0  0  0  0  0  0  0  0  0
   22.7520  -21.2920  -13.7419 N   0  0  0  0  0  0  0  0  0  0  0  0
   20.6344  -20.8120  -12.7031 C   0  0  0  0  0  0  0  0  0  0  0  0
   21.1035  -21.3334  -11.6784 O   0  0  0  0  0  0  0  0  0  0  0  0
   19.3761  -20.2217  -12.6353 O   0  0  0  0  0  0  0  0  0  0  0  0
  2  1  1  6
  2  3  1  0
  2  9  1  0
  4  5  2  0
  4  3  1  0
  6  5  1  0
  7  8  2  0
  7  6  1  0
  8  4  1  0
  9 10  2  0
 11 12  1  0
 12 13  2  0
 12 14  1  0
 14 15  1  0
 16 15  1  1
 16 18  1  0
 17 16  1  0
 17  9  1  0
 18 19  2  0
 21 20  1  6
 21 23  1  0
 22 21  1  0
 22 18  1  0
 23 24  2  0
 23 25  1  0
M  END
$$$$
