HQA.pdb
     RDKit          3D

 25 25  0  0  1  0  0  0  0  0999 V2000
   22.8756  -13.0258  -17.8934 N   0  0  0  0  0  0  0  0  0  0  0  0
   23.3136  -12.0018  -16.9651 C   0  0  1  0  0  0  0  0  0  0  0  0
   24.7960  -11.8483  -17.1041 C   0  0  0  0  0  0  0  0  0  0  0  0
   25.4355  -13.1237  -16.6891 C   0  0  0  0  0  0  0  0  0  0  0  0
   25.7768  -13.5637  -15.4243 C   0  0  0  0  0  0  0  0  0  0  0  0
   26.3389  -14.7812  -15.4923 N   0  0  0  0  0  0  0  0  0  0  0  0
   26.3624  -15.1237  -16.7695 C   0  0  0  0  0  0  0  0  0  0  0  0
   25.8154  -14.1264  -17.5216 N   0  0  0  0  0  0  0  0  0  0  0  0
   22.5733  -10.7442  -17.1208 C   0  0  0  0  0  0  0  0  0  0  0  0
   22.4141  -10.2839  -18.2785 O   0  0  0  0  0  0  0  0  0  0  0  0
   17.3733   -9.3819  -14.4476 N   0  0  0  0  0  0  0  0  0  0  0  0
   17.6938   -8.1120  -14.9739 C   0  0  0  0  0  0  0  0  0  0  0  0
   16.7758   -7.2263  -14.8920 O   0  0  0  0  0  0  0  0  0  0  0  0
   19.0182   -7.8088  -15.5906 C   0  0  0  0  0  0  0  0  0  0  0  0
   19.8499   -9.0650  -15.5261 C   0  0  0  0  0  0  0  0  0  0  0  0
   21.2288   -8.8850  -16.0900 C   0  0  2  0  0  0  0  0  0  0  0  0
   22.0488  -10.0628  -15.9898 N   0  0  0  0  0  0  0  0  0  0  0  0
   21.8702   -7.7486  -15.4106 C   0  0  0  0  0  0  0  0  0  0  0  0
   22.4066   -7.9111  -14.3013 O   0  0  0  0  0  0  0  0  0  0  0  0
   22.4379   -4.1908  -16.3457 C   0  0  0  0  0  0  0  0  0  0  0  0
   22.5814   -5.3874  -15.4086 C   0  0  2  0  0  0  0  0  0  0  0  0
   21.8729   -6.4814  -16.0218 N   0  0  0  0  0  0  0  0  0  0  0  0
   21.9890   -5.0336  -14.1025 C   0  0  0  0  0  0  0  0  0  0  0  0
   20.8167   -5.3508  -13.8434 O   0  0  0  0  0  0  0  0  0  0  0  0
   22.7215   -4.3439  -13.1412 O   0  0  0  0  0  0  0  0  0  0  0  0
  2  1  1  6
  2  3  1  0
  2  9  1  0
  4  5  2  0
  4  3  1  0
  6  5  1  0
  7  8  2  0
  7  6  1  0
  8  4  1  0
  9 10  2  0
 11 12  1  0
 12 13  2  0
 12 14  1  0
 14 15  1  0
 16 15  1  1
 16 18  1  0
 17 16  1  0
 17  9  1  0
 18 19  2  0
 21 20  1  6
 21 23  1  0
 22 21  1  0
 22 18  1  0
 23 24  2  0
 23 25  1  0
M  END
$$$$
