HQA.pdb
     RDKit          3D

 25 25  0  0  1  0  0  0  0  0999 V2000
   16.7420  -11.1279  -16.2424 N   0  0  0  0  0  0  0  0  0  0  0  0
   17.9919  -10.7577  -15.6080 C   0  0  1  0  0  0  0  0  0  0  0  0
   19.1098  -11.1000  -16.5428 C   0  0  0  0  0  0  0  0  0  0  0  0
   19.1481  -12.5771  -16.6991 C   0  0  0  0  0  0  0  0  0  0  0  0
   19.6714  -13.5361  -15.8527 C   0  0  0  0  0  0  0  0  0  0  0  0
   19.4982  -14.7607  -16.3753 N   0  0  0  0  0  0  0  0  0  0  0  0
   18.8778  -14.6015  -17.5323 C   0  0  0  0  0  0  0  0  0  0  0  0
   18.6526  -13.2749  -17.7529 N   0  0  0  0  0  0  0  0  0  0  0  0
   18.0055   -9.3605  -15.1591 C   0  0  0  0  0  0  0  0  0  0  0  0
   17.7033   -8.4643  -15.9856 O   0  0  0  0  0  0  0  0  0  0  0  0
   16.9578   -7.2780   -9.3571 N   0  0  0  0  0  0  0  0  0  0  0  0
   16.0090   -7.6170  -10.3456 C   0  0  0  0  0  0  0  0  0  0  0  0
   14.8055   -7.7580   -9.9387 O   0  0  0  0  0  0  0  0  0  0  0  0
   16.3746   -7.8023  -11.7803 C   0  0  0  0  0  0  0  0  0  0  0  0
   17.8587   -7.5670  -11.9070 C   0  0  0  0  0  0  0  0  0  0  0  0
   18.3519   -7.6802  -13.3197 C   0  0  2  0  0  0  0  0  0  0  0  0
   18.3521   -9.0282  -13.8219 N   0  0  0  0  0  0  0  0  0  0  0  0
   19.7017   -7.0998  -13.3947 C   0  0  0  0  0  0  0  0  0  0  0  0
   20.6716   -7.7222  -12.9293 O   0  0  0  0  0  0  0  0  0  0  0  0
   21.1007   -4.0812  -15.0447 C   0  0  0  0  0  0  0  0  0  0  0  0
   21.2132   -5.2921  -14.1218 C   0  0  2  0  0  0  0  0  0  0  0  0
   19.8874   -5.8406  -13.9942 N   0  0  0  0  0  0  0  0  0  0  0  0
   21.7310   -4.8388  -12.8147 C   0  0  0  0  0  0  0  0  0  0  0  0
   20.9497   -4.6366  -11.8711 O   0  0  0  0  0  0  0  0  0  0  0  0
   23.0916   -4.6295  -12.6110 O   0  0  0  0  0  0  0  0  0  0  0  0
  2  1  1  6
  2  3  1  0
  2  9  1  0
  4  5  2  0
  4  3  1  0
  6  5  1  0
  7  8  2  0
  7  6  1  0
  8  4  1  0
  9 10  2  0
 11 12  1  0
 12 13  2  0
 12 14  1  0
 14 15  1  0
 16 15  1  1
 16 18  1  0
 17 16  1  0
 17  9  1  0
 18 19  2  0
 21 20  1  6
 21 23  1  0
 22 21  1  0
 22 18  1  0
 23 24  2  0
 23 25  1  0
M  END
$$$$
