HQA.pdb
     RDKit          3D

 25 25  0  0  1  0  0  0  0  0999 V2000
   24.8980    1.4866   -8.6282 N   0  0  0  0  0  0  0  0  0  0  0  0
   24.4614    2.1007   -7.3896 C   0  0  1  0  0  0  0  0  0  0  0  0
   22.9647    2.1175   -7.3785 C   0  0  0  0  0  0  0  0  0  0  0  0
   22.5047    3.1310   -8.3629 C   0  0  0  0  0  0  0  0  0  0  0  0
   21.8237    2.9536   -9.5523 C   0  0  0  0  0  0  0  0  0  0  0  0
   21.6017    4.1395  -10.1415 N   0  0  0  0  0  0  0  0  0  0  0  0
   22.1255    5.0645   -9.3546 C   0  0  0  0  0  0  0  0  0  0  0  0
   22.6837    4.4727   -8.2602 N   0  0  0  0  0  0  0  0  0  0  0  0
   25.0528    1.4667   -6.2055 C   0  0  0  0  0  0  0  0  0  0  0  0
   25.2595    0.2281   -6.2313 O   0  0  0  0  0  0  0  0  0  0  0  0
   29.1110    4.2839   -2.4829 N   0  0  0  0  0  0  0  0  0  0  0  0
   28.8677    3.0999   -1.7541 C   0  0  0  0  0  0  0  0  0  0  0  0
   29.5707    2.9402   -0.6985 O   0  0  0  0  0  0  0  0  0  0  0  0
   27.8557    2.0889   -2.1782 C   0  0  0  0  0  0  0  0  0  0  0  0
   27.1772    2.6148   -3.4180 C   0  0  0  0  0  0  0  0  0  0  0  0
   26.1052    1.6996   -3.9328 C   0  0  2  0  0  0  0  0  0  0  0  0
   25.3842    2.2345   -5.0569 N   0  0  0  0  0  0  0  0  0  0  0  0
   25.1843    1.3861   -2.8291 C   0  0  0  0  0  0  0  0  0  0  0  0
   24.2396    2.1518   -2.5726 O   0  0  0  0  0  0  0  0  0  0  0  0
   24.5634   -1.6173   -0.7896 C   0  0  0  0  0  0  0  0  0  0  0  0
   24.4637   -0.1093   -1.0055 C   0  0  2  0  0  0  0  0  0  0  0  0
   25.3788    0.2185   -2.0686 N   0  0  0  0  0  0  0  0  0  0  0  0
   24.8403    0.5701    0.2509 C   0  0  0  0  0  0  0  0  0  0  0  0
   25.9185    1.1810    0.3301 O   0  0  0  0  0  0  0  0  0  0  0  0
   24.0057    0.5425    1.3641 O   0  0  0  0  0  0  0  0  0  0  0  0
  2  1  1  6
  2  3  1  0
  2  9  1  0
  4  5  2  0
  4  3  1  0
  6  5  1  0
  7  8  2  0
  7  6  1  0
  8  4  1  0
  9 10  2  0
 11 12  1  0
 12 13  2  0
 12 14  1  0
 14 15  1  0
 16 15  1  1
 16 18  1  0
 17 16  1  0
 17  9  1  0
 18 19  2  0
 21 20  1  1
 21 23  1  0
 22 21  1  0
 22 18  1  0
 23 24  2  0
 23 25  1  0
M  END
$$$$
