LRH.pdb
     RDKit          3D

 30 30  0  0  1  0  0  0  0  0999 V2000
    7.2012  -11.7735   19.6457 C   0  0  0  0  0  0  0  0  0  0  0  0
    7.5211  -13.1135   19.0761 C   0  0  1  0  0  0  0  0  0  0  0  0
    8.4666  -12.8757   17.8892 C   0  0  0  0  0  0  0  0  0  0  0  0
    8.2497  -14.0017   20.0333 C   0  0  0  0  0  0  0  0  0  0  0  0
    8.4518  -15.4180   19.5877 C   0  0  2  0  0  0  0  0  0  0  0  0
    7.2654  -15.9143   18.9351 N   0  0  0  0  0  0  0  0  0  0  0  0
    9.0106  -16.2564   20.6280 C   0  0  0  0  0  0  0  0  0  0  0  0
    8.2367  -16.7300   21.4993 O   0  0  0  0  0  0  0  0  0  0  0  0
   13.8272  -18.9438   16.7978 N   0  0  0  0  0  0  0  0  0  0  0  0
   12.7926  -19.9228   16.9914 C   0  0  0  0  0  0  0  0  0  0  0  0
   12.6504  -20.8053   16.0723 N   0  0  0  0  0  0  0  0  0  0  0  0
   11.9646  -19.9279   18.1306 N   0  0  0  0  0  0  0  0  0  0  0  0
   12.0729  -18.8705   19.0951 C   0  0  0  0  0  0  0  0  0  0  0  0
   11.7908  -19.3369   20.5046 C   0  0  0  0  0  0  0  0  0  0  0  0
   12.1023  -18.2243   21.4763 C   0  0  0  0  0  0  0  0  0  0  0  0
   10.8719  -17.4350   21.8511 C   0  0  2  0  0  0  0  0  0  0  0  0
   10.3934  -16.6123   20.7744 N   0  0  0  0  0  0  0  0  0  0  0  0
   11.0636  -16.5980   23.0542 C   0  0  0  0  0  0  0  0  0  0  0  0
   11.5774  -15.4551   22.9706 O   0  0  0  0  0  0  0  0  0  0  0  0
   11.8809  -21.5125   16.0691 N   0  0  0  0  0  0  0  0  0  0  0  0
   10.6738  -17.0598   24.3362 C   0  0  2  0  0  0  0  0  0  0  0  0
   10.9544  -16.2222   25.4903 C   0  0  0  0  0  0  0  0  0  0  0  0
    9.8616  -16.2745   26.4992 C   0  0  0  0  0  0  0  0  0  0  0  0
   10.1828  -15.4305   27.6615 C   0  0  0  0  0  0  0  0  0  0  0  0
   11.1923  -14.5130   27.8575 N   0  0  0  0  0  0  0  0  0  0  0  0
   11.0992  -13.9952   29.1209 C   0  0  0  0  0  0  0  0  0  0  0  0
   10.0445  -14.5868   29.6971 N   0  0  0  0  0  0  0  0  0  0  0  0
    9.4883  -15.4464   28.8361 C   0  0  0  0  0  0  0  0  0  0  0  0
   12.2351  -16.6163   26.0584 O   0  0  0  0  0  0  0  0  0  0  0  0
   13.2057  -15.7322   26.5323 O   0  0  0  0  0  0  0  0  0  0  0  0
  2  1  1  1
  3  2  1  0
  4  2  1  0
  5  6  1  1
  5  7  1  0
  5  4  1  0
  7  8  2  0
 10  9  1  0
 10 12  1  0
 11 10  2  0
 12 13  1  0
 13 14  1  0
 14 15  1  0
 16 15  1  6
 16 18  1  0
 17  7  1  0
 17 16  1  0
 18 20  1  0
 19 18  2  0
 20 21  1  0
 21 22  1  6
 22 23  1  0
 23 24  2  0
 23 27  1  0
 24 25  1  0
 25 26  1  0
 27 26  2  0
 28 29  1  0
 28 21  1  0
 30 28  2  0
M  END
$$$$
