LRH.pdb
     RDKit          3D

 30 30  0  0  1  0  0  0  0  0999 V2000
    6.6172  -12.1272   18.5496 C   0  0  0  0  0  0  0  0  0  0  0  0
    7.8382  -12.9598   18.7448 C   0  0  1  0  0  0  0  0  0  0  0  0
    8.9981  -11.9887   19.0114 C   0  0  0  0  0  0  0  0  0  0  0  0
    7.7523  -13.8618   19.9343 C   0  0  0  0  0  0  0  0  0  0  0  0
    8.9989  -14.6221   20.2705 C   0  0  2  0  0  0  0  0  0  0  0  0
    9.6241  -15.1197   19.0699 N   0  0  0  0  0  0  0  0  0  0  0  0
    8.7968  -15.5834   21.3348 C   0  0  0  0  0  0  0  0  0  0  0  0
    7.6762  -15.6228   21.9048 O   0  0  0  0  0  0  0  0  0  0  0  0
   12.0860  -23.6661   23.1741 N   0  0  0  0  0  0  0  0  0  0  0  0
   10.8438  -23.5215   23.8829 C   0  0  0  0  0  0  0  0  0  0  0  0
   10.3312  -24.5875   24.3776 N   0  0  0  0  0  0  0  0  0  0  0  0
   10.2054  -22.2756   24.0366 N   0  0  0  0  0  0  0  0  0  0  0  0
   10.5749  -21.1763   23.1909 C   0  0  0  0  0  0  0  0  0  0  0  0
    9.7803  -19.9244   23.4829 C   0  0  0  0  0  0  0  0  0  0  0  0
   10.1749  -18.8382   22.5116 C   0  0  0  0  0  0  0  0  0  0  0  0
    9.4462  -17.5440   22.7783 C   0  0  2  0  0  0  0  0  0  0  0  0
    9.7684  -16.5207   21.8223 N   0  0  0  0  0  0  0  0  0  0  0  0
    9.6705  -17.0223   24.1429 C   0  0  0  0  0  0  0  0  0  0  0  0
   10.6629  -16.2978   24.4024 O   0  0  0  0  0  0  0  0  0  0  0  0
    9.4209  -24.6025   24.8907 N   0  0  0  0  0  0  0  0  0  0  0  0
    8.7733  -17.3238   25.1979 C   0  0  2  0  0  0  0  0  0  0  0  0
    8.9499  -16.6491   26.4730 C   0  0  0  0  0  0  0  0  0  0  0  0
    7.6827  -16.0450   26.9672 C   0  0  0  0  0  0  0  0  0  0  0  0
    7.5027  -14.6897   26.4221 C   0  0  0  0  0  0  0  0  0  0  0  0
    8.3620  -13.8850   25.7057 N   0  0  0  0  0  0  0  0  0  0  0  0
    7.7529  -12.6882   25.4418 C   0  0  0  0  0  0  0  0  0  0  0  0
    6.5322  -12.7543   25.9895 N   0  0  0  0  0  0  0  0  0  0  0  0
    6.3701  -13.9446   26.5782 C   0  0  0  0  0  0  0  0  0  0  0  0
    9.5104  -17.5908   27.4308 O   0  0  0  0  0  0  0  0  0  0  0  0
    9.9315  -17.2640   28.7208 O   0  0  0  0  0  0  0  0  0  0  0  0
  2  1  1  1
  3  2  1  0
  4  2  1  0
  5  6  1  6
  5  7  1  0
  5  4  1  0
  7  8  2  0
 10  9  1  0
 10 12  1  0
 11 10  2  0
 12 13  1  0
 13 14  1  0
 14 15  1  0
 16 15  1  6
 16 18  1  0
 17  7  1  0
 17 16  1  0
 18 20  1  0
 19 18  2  0
 20 21  1  0
 21 22  1  6
 22 23  1  0
 23 24  2  0
 23 27  1  0
 24 25  1  0
 25 26  1  0
 27 26  2  0
 28 29  1  0
 28 21  1  0
 30 28  2  0
M  END
$$$$
