LRH.pdb
     RDKit          3D

 30 30  0  0  1  0  0  0  0  0999 V2000
    7.4005  -11.4380   26.0292 C   0  0  0  0  0  0  0  0  0  0  0  0
    6.4796  -12.6045   26.1447 C   0  0  1  0  0  0  0  0  0  0  0  0
    5.1270  -12.0551   26.6222 C   0  0  0  0  0  0  0  0  0  0  0  0
    6.2278  -13.2879   24.8388 C   0  0  0  0  0  0  0  0  0  0  0  0
    6.2278  -14.7859   24.8733 C   0  0  2  0  0  0  0  0  0  0  0  0
    5.8290  -15.2593   26.1759 N   0  0  0  0  0  0  0  0  0  0  0  0
    7.4411  -15.3571   24.3264 C   0  0  0  0  0  0  0  0  0  0  0  0
    7.9862  -16.3108   24.9393 O   0  0  0  0  0  0  0  0  0  0  0  0
    8.1538  -12.7243   16.7733 N   0  0  0  0  0  0  0  0  0  0  0  0
    7.7263  -14.0967   16.7678 C   0  0  0  0  0  0  0  0  0  0  0  0
    7.3363  -14.5778   15.6452 N   0  0  0  0  0  0  0  0  0  0  0  0
    7.7288  -14.8907   17.9310 N   0  0  0  0  0  0  0  0  0  0  0  0
    8.4863  -14.4739   19.0768 C   0  0  0  0  0  0  0  0  0  0  0  0
    8.4637  -15.4935   20.1920 C   0  0  0  0  0  0  0  0  0  0  0  0
    9.5690  -15.1911   21.1748 C   0  0  0  0  0  0  0  0  0  0  0  0
    9.2275  -15.6452   22.5727 C   0  0  2  0  0  0  0  0  0  0  0  0
    8.1064  -14.9366   23.1261 N   0  0  0  0  0  0  0  0  0  0  0  0
   10.3690  -15.5548   23.5074 C   0  0  0  0  0  0  0  0  0  0  0  0
   10.2759  -14.9080   24.5798 O   0  0  0  0  0  0  0  0  0  0  0  0
    6.9220  -15.5318   15.5419 N   0  0  0  0  0  0  0  0  0  0  0  0
   11.6010  -16.1945   23.2214 C   0  0  2  0  0  0  0  0  0  0  0  0
   12.1928  -17.0468   24.2391 C   0  0  0  0  0  0  0  0  0  0  0  0
   11.2884  -18.1617   24.6311 C   0  0  0  0  0  0  0  0  0  0  0  0
   10.8442  -18.0082   26.0260 C   0  0  0  0  0  0  0  0  0  0  0  0
   10.8240  -16.9029   26.8488 N   0  0  0  0  0  0  0  0  0  0  0  0
   10.3463  -17.2599   28.0807 C   0  0  0  0  0  0  0  0  0  0  0  0
   10.0753  -18.5703   28.0179 N   0  0  0  0  0  0  0  0  0  0  0  0
   10.3683  -19.0295   26.7960 C   0  0  0  0  0  0  0  0  0  0  0  0
   13.4764  -17.5349   23.7568 O   0  0  0  0  0  0  0  0  0  0  0  0
   14.5487  -17.9035   24.5706 O   0  0  0  0  0  0  0  0  0  0  0  0
  2  1  1  6
  3  2  1  0
  4  2  1  0
  5  6  1  1
  5  7  1  0
  5  4  1  0
  7  8  2  0
 10  9  1  0
 10 12  1  0
 11 10  2  0
 12 13  1  0
 13 14  1  0
 14 15  1  0
 16 15  1  6
 16 18  1  0
 17  7  1  0
 17 16  1  0
 18 20  1  0
 19 18  2  0
 20 21  1  0
 21 22  1  1
 22 23  1  0
 23 24  2  0
 23 27  1  0
 24 25  1  0
 25 26  1  0
 27 26  2  0
 28 29  1  0
 28 21  1  0
 30 28  2  0
M  END
$$$$
