LRH.pdb
     RDKit          3D

 30 30  0  0  1  0  0  0  0  0999 V2000
    6.7377  -11.6217   27.6714 C   0  0  0  0  0  0  0  0  0  0  0  0
    6.1246  -12.5383   26.6684 C   0  0  1  0  0  0  0  0  0  0  0  0
    5.8341  -11.6953   25.4177 C   0  0  0  0  0  0  0  0  0  0  0  0
    7.0406  -13.6398   26.2396 C   0  0  0  0  0  0  0  0  0  0  0  0
    6.4233  -14.7131   25.3958 C   0  0  2  0  0  0  0  0  0  0  0  0
    5.2666  -15.2682   26.0544 N   0  0  0  0  0  0  0  0  0  0  0  0
    7.3974  -15.6633   24.9001 C   0  0  0  0  0  0  0  0  0  0  0  0
    7.7012  -16.6461   25.6240 O   0  0  0  0  0  0  0  0  0  0  0  0
    7.5803  -14.6795   17.5494 N   0  0  0  0  0  0  0  0  0  0  0  0
    8.5927  -13.7606   17.9932 C   0  0  0  0  0  0  0  0  0  0  0  0
    8.5827  -12.5902   17.4699 N   0  0  0  0  0  0  0  0  0  0  0  0
    9.5583  -14.1118   18.9564 N   0  0  0  0  0  0  0  0  0  0  0  0
    9.4796  -15.3860   19.6126 C   0  0  0  0  0  0  0  0  0  0  0  0
    9.2975  -15.2606   21.1076 C   0  0  0  0  0  0  0  0  0  0  0  0
    9.2003  -16.6365   21.7213 C   0  0  0  0  0  0  0  0  0  0  0  0
    9.0364  -16.5807   23.2203 C   0  0  2  0  0  0  0  0  0  0  0  0
    8.0727  -15.5987   23.6352 N   0  0  0  0  0  0  0  0  0  0  0  0
   10.3087  -16.3452   23.9348 C   0  0  0  0  0  0  0  0  0  0  0  0
   10.8369  -15.2060   23.9548 O   0  0  0  0  0  0  0  0  0  0  0  0
    9.3197  -11.8724   17.6539 N   0  0  0  0  0  0  0  0  0  0  0  0
   10.9696  -17.3967   24.6177 C   0  0  1  0  0  0  0  0  0  0  0  0
   12.3228  -17.1701   25.0970 C   0  0  0  0  0  0  0  0  0  0  0  0
   12.5007  -17.6184   26.5049 C   0  0  0  0  0  0  0  0  0  0  0  0
   11.8731  -16.6692   27.4386 C   0  0  0  0  0  0  0  0  0  0  0  0
   11.2551  -15.4583   27.2129 N   0  0  0  0  0  0  0  0  0  0  0  0
   10.8493  -14.9238   28.4057 C   0  0  0  0  0  0  0  0  0  0  0  0
   11.2132  -15.7952   29.3558 N   0  0  0  0  0  0  0  0  0  0  0  0
   11.8258  -16.8421   28.7915 C   0  0  0  0  0  0  0  0  0  0  0  0
   13.2580  -17.8285   24.1969 O   0  0  0  0  0  0  0  0  0  0  0  0
   14.6479  -17.7897   24.3196 O   0  0  0  0  0  0  0  0  0  0  0  0
  2  1  1  1
  3  2  1  0
  4  2  1  0
  5  6  1  1
  5  7  1  0
  5  4  1  0
  7  8  2  0
 10  9  1  0
 10 12  1  0
 11 10  2  0
 12 13  1  0
 13 14  1  0
 14 15  1  0
 16 15  1  6
 16 18  1  0
 17  7  1  0
 17 16  1  0
 18 20  1  0
 19 18  2  0
 20 21  1  0
 21 22  1  6
 22 23  1  0
 23 24  2  0
 23 27  1  0
 24 25  1  0
 25 26  1  0
 27 26  2  0
 28 29  1  0
 28 21  1  0
 30 28  2  0
M  END
$$$$
