LRH.pdb
     RDKit          3D

 30 30  0  0  1  0  0  0  0  0999 V2000
    6.4505  -12.2064   18.9726 C   0  0  0  0  0  0  0  0  0  0  0  0
    7.5583  -13.2034   19.0074 C   0  0  1  0  0  0  0  0  0  0  0  0
    8.8310  -12.4666   18.5640 C   0  0  0  0  0  0  0  0  0  0  0  0
    7.8274  -13.7372   20.3780 C   0  0  0  0  0  0  0  0  0  0  0  0
    8.9465  -14.7277   20.4865 C   0  0  2  0  0  0  0  0  0  0  0  0
    9.1410  -15.4069   19.2293 N   0  0  0  0  0  0  0  0  0  0  0  0
    8.8359  -15.5689   21.6602 C   0  0  0  0  0  0  0  0  0  0  0  0
    8.7180  -15.0189   22.7854 O   0  0  0  0  0  0  0  0  0  0  0  0
    5.1355  -22.2428   24.8708 N   0  0  0  0  0  0  0  0  0  0  0  0
    6.2737  -22.1528   25.7441 C   0  0  0  0  0  0  0  0  0  0  0  0
    6.1702  -22.7162   26.8911 N   0  0  0  0  0  0  0  0  0  0  0  0
    7.4552  -21.4815   25.3742 N   0  0  0  0  0  0  0  0  0  0  0  0
    7.4713  -20.6651   24.1938 C   0  0  0  0  0  0  0  0  0  0  0  0
    8.8246  -20.0451   23.9330 C   0  0  0  0  0  0  0  0  0  0  0  0
    8.7780  -19.2534   22.6485 C   0  0  0  0  0  0  0  0  0  0  0  0
    8.8531  -17.7663   22.8935 C   0  0  2  0  0  0  0  0  0  0  0  0
    8.8488  -17.0041   21.6752 N   0  0  0  0  0  0  0  0  0  0  0  0
   10.0201  -17.3709   23.7099 C   0  0  0  0  0  0  0  0  0  0  0  0
   10.8653  -16.5507   23.2739 O   0  0  0  0  0  0  0  0  0  0  0  0
    6.9470  -22.7437   27.5898 N   0  0  0  0  0  0  0  0  0  0  0  0
   10.2197  -17.9050   25.0075 C   0  0  2  0  0  0  0  0  0  0  0  0
   10.4157  -16.9837   26.1144 C   0  0  0  0  0  0  0  0  0  0  0  0
    9.2683  -16.0497   26.2756 C   0  0  0  0  0  0  0  0  0  0  0  0
    9.4503  -15.1987   27.4627 C   0  0  0  0  0  0  0  0  0  0  0  0
   10.1318  -14.0119   27.6248 N   0  0  0  0  0  0  0  0  0  0  0  0
   10.0412  -13.6084   28.9294 C   0  0  0  0  0  0  0  0  0  0  0  0
    9.3124  -14.5358   29.5642 N   0  0  0  0  0  0  0  0  0  0  0  0
    8.9532  -15.4913   28.6994 C   0  0  0  0  0  0  0  0  0  0  0  0
   10.6647  -17.7497   27.3267 O   0  0  0  0  0  0  0  0  0  0  0  0
   10.5313  -19.1346   27.4390 O   0  0  0  0  0  0  0  0  0  0  0  0
  2  1  1  1
  3  2  1  0
  4  2  1  0
  5  6  1  6
  5  7  1  0
  5  4  1  0
  7  8  2  0
 10  9  1  0
 10 12  1  0
 11 10  2  0
 12 13  1  0
 13 14  1  0
 14 15  1  0
 16 15  1  6
 16 18  1  0
 17  7  1  0
 17 16  1  0
 18 20  1  0
 19 18  2  0
 20 21  1  0
 21 22  1  6
 22 23  1  0
 23 24  2  0
 23 27  1  0
 24 25  1  0
 25 26  1  0
 27 26  2  0
 28 29  1  0
 28 21  1  0
 30 28  2  0
M  END
$$$$
