LRH.pdb
     RDKit          3D

 30 30  0  0  1  0  0  0  0  0999 V2000
    6.5234  -12.3276   28.6452 C   0  0  0  0  0  0  0  0  0  0  0  0
    6.3018  -12.2457   27.1733 C   0  0  1  0  0  0  0  0  0  0  0  0
    6.8662  -10.8926   26.7152 C   0  0  0  0  0  0  0  0  0  0  0  0
    7.0374  -13.2984   26.4074 C   0  0  0  0  0  0  0  0  0  0  0  0
    7.0750  -13.1198   24.9202 C   0  0  2  0  0  0  0  0  0  0  0  0
    5.8449  -12.5295   24.4530 N   0  0  0  0  0  0  0  0  0  0  0  0
    7.5201  -14.3102   24.2257 C   0  0  0  0  0  0  0  0  0  0  0  0
    8.4065  -15.0234   24.7624 O   0  0  0  0  0  0  0  0  0  0  0  0
    9.9528  -14.8908   16.8318 N   0  0  0  0  0  0  0  0  0  0  0  0
    8.6095  -14.8735   16.3202 C   0  0  0  0  0  0  0  0  0  0  0  0
    8.4166  -15.4260   15.1795 N   0  0  0  0  0  0  0  0  0  0  0  0
    7.5431  -14.2821   17.0248 N   0  0  0  0  0  0  0  0  0  0  0  0
    7.8013  -13.5761   18.2475 C   0  0  0  0  0  0  0  0  0  0  0  0
    8.2165  -14.4945   19.3736 C   0  0  0  0  0  0  0  0  0  0  0  0
    7.4921  -14.1015   20.6385 C   0  0  0  0  0  0  0  0  0  0  0  0
    7.9088  -14.9450   21.8183 C   0  0  2  0  0  0  0  0  0  0  0  0
    7.0442  -14.7737   22.9534 N   0  0  0  0  0  0  0  0  0  0  0  0
    9.3080  -14.7114   22.2336 C   0  0  0  0  0  0  0  0  0  0  0  0
    9.5948  -13.8087   23.0582 O   0  0  0  0  0  0  0  0  0  0  0  0
    7.5016  -15.3982   14.6751 N   0  0  0  0  0  0  0  0  0  0  0  0
   10.3662  -15.4981   21.7139 C   0  0  2  0  0  0  0  0  0  0  0  0
   11.1630  -16.2869   22.6387 C   0  0  0  0  0  0  0  0  0  0  0  0
   10.3200  -17.1565   23.5035 C   0  0  0  0  0  0  0  0  0  0  0  0
   11.1548  -17.9389   24.4296 C   0  0  0  0  0  0  0  0  0  0  0  0
   12.5245  -18.0229   24.5563 N   0  0  0  0  0  0  0  0  0  0  0  0
   12.8372  -18.9113   25.5492 C   0  0  0  0  0  0  0  0  0  0  0  0
   11.6736  -19.3698   26.0289 N   0  0  0  0  0  0  0  0  0  0  0  0
   10.6608  -18.7970   25.3687 C   0  0  0  0  0  0  0  0  0  0  0  0
   12.1377  -17.0583   21.8815 O   0  0  0  0  0  0  0  0  0  0  0  0
   13.3852  -17.4612   22.3607 O   0  0  0  0  0  0  0  0  0  0  0  0
  2  1  1  1
  3  2  1  0
  4  2  1  0
  5  6  1  6
  5  7  1  0
  5  4  1  0
  7  8  2  0
 10  9  1  0
 10 12  1  0
 11 10  2  0
 12 13  1  0
 13 14  1  0
 14 15  1  0
 16 15  1  6
 16 18  1  0
 17  7  1  0
 17 16  1  0
 18 20  1  0
 19 18  2  0
 20 21  1  0
 21 22  1  1
 22 23  1  0
 23 24  2  0
 23 27  1  0
 24 25  1  0
 25 26  1  0
 27 26  2  0
 28 29  1  0
 28 21  1  0
 30 28  2  0
M  END
$$$$
