LRH.pdb
     RDKit          3D

 30 30  0  0  1  0  0  0  0  0999 V2000
    8.1423  -11.9300   19.1346 C   0  0  0  0  0  0  0  0  0  0  0  0
    8.1861  -13.4188   19.0717 C   0  0  1  0  0  0  0  0  0  0  0  0
    9.6677  -13.8150   18.9884 C   0  0  0  0  0  0  0  0  0  0  0  0
    7.6346  -14.0766   20.2961 C   0  0  0  0  0  0  0  0  0  0  0  0
    7.4793  -15.5653   20.2256 C   0  0  2  0  0  0  0  0  0  0  0  0
    6.7018  -15.9359   19.0688 N   0  0  0  0  0  0  0  0  0  0  0  0
    7.0681  -16.1443   21.4878 C   0  0  0  0  0  0  0  0  0  0  0  0
    5.9499  -15.8184   21.9630 O   0  0  0  0  0  0  0  0  0  0  0  0
    8.4486  -21.0028   27.2604 N   0  0  0  0  0  0  0  0  0  0  0  0
    7.1716  -21.6620   27.2286 C   0  0  0  0  0  0  0  0  0  0  0  0
    6.7514  -22.1651   28.3305 N   0  0  0  0  0  0  0  0  0  0  0  0
    6.4043  -21.7605   26.0518 N   0  0  0  0  0  0  0  0  0  0  0  0
    6.8858  -21.1697   24.8355 C   0  0  0  0  0  0  0  0  0  0  0  0
    6.8879  -19.6592   24.8829 C   0  0  0  0  0  0  0  0  0  0  0  0
    7.3901  -19.1137   23.5680 C   0  0  0  0  0  0  0  0  0  0  0  0
    7.3424  -17.6061   23.5218 C   0  0  2  0  0  0  0  0  0  0  0  0
    7.8241  -17.0754   22.2763 N   0  0  0  0  0  0  0  0  0  0  0  0
    8.0731  -16.9679   24.6370 C   0  0  0  0  0  0  0  0  0  0  0  0
    9.3042  -16.7346   24.5528 O   0  0  0  0  0  0  0  0  0  0  0  0
    5.7886  -22.5520   28.4551 N   0  0  0  0  0  0  0  0  0  0  0  0
    7.4069  -16.6010   25.8330 C   0  0  2  0  0  0  0  0  0  0  0  0
    8.1350  -15.8245   26.8225 C   0  0  0  0  0  0  0  0  0  0  0  0
    7.2394  -14.9214   27.5953 C   0  0  0  0  0  0  0  0  0  0  0  0
    7.1228  -13.6111   26.9349 C   0  0  0  0  0  0  0  0  0  0  0  0
    7.7844  -13.0895   25.8443 N   0  0  0  0  0  0  0  0  0  0  0  0
    7.3538  -11.8102   25.6185 C   0  0  0  0  0  0  0  0  0  0  0  0
    6.4375  -11.5462   26.5592 N   0  0  0  0  0  0  0  0  0  0  0  0
    6.2901  -12.6136   27.3520 C   0  0  0  0  0  0  0  0  0  0  0  0
    8.8662  -16.7350   27.6912 O   0  0  0  0  0  0  0  0  0  0  0  0
    9.9574  -16.3792   28.4854 O   0  0  0  0  0  0  0  0  0  0  0  0
  2  1  1  1
  3  2  1  0
  4  2  1  0
  5  6  1  6
  5  7  1  0
  5  4  1  0
  7  8  2  0
 10  9  1  0
 10 12  1  0
 11 10  2  0
 12 13  1  0
 13 14  1  0
 14 15  1  0
 16 15  1  6
 16 18  1  0
 17  7  1  0
 17 16  1  0
 18 20  1  0
 19 18  2  0
 20 21  1  0
 21 22  1  6
 22 23  1  0
 23 24  2  0
 23 27  1  0
 24 25  1  0
 25 26  1  0
 27 26  2  0
 28 29  1  0
 28 21  1  0
 30 28  2  0
M  END
$$$$
