LRH.pdb
     RDKit          3D

 30 30  0  0  1  0  0  0  0  0999 V2000
    7.0919  -11.3116   27.1368 C   0  0  0  0  0  0  0  0  0  0  0  0
    6.3435  -12.4765   26.5845 C   0  0  1  0  0  0  0  0  0  0  0  0
    5.3201  -11.9127   25.5874 C   0  0  0  0  0  0  0  0  0  0  0  0
    7.2104  -13.4244   25.8192 C   0  0  0  0  0  0  0  0  0  0  0  0
    6.5383  -14.6657   25.3165 C   0  0  2  0  0  0  0  0  0  0  0  0
    5.6359  -15.1880   26.3129 N   0  0  0  0  0  0  0  0  0  0  0  0
    7.4708  -15.6101   24.7369 C   0  0  0  0  0  0  0  0  0  0  0  0
    8.0393  -16.4367   25.4957 O   0  0  0  0  0  0  0  0  0  0  0  0
    8.3692  -13.7543   16.5568 N   0  0  0  0  0  0  0  0  0  0  0  0
    8.3888  -13.2864   17.9158 C   0  0  0  0  0  0  0  0  0  0  0  0
    8.9274  -12.1423   18.1271 N   0  0  0  0  0  0  0  0  0  0  0  0
    7.8469  -14.0358   18.9780 N   0  0  0  0  0  0  0  0  0  0  0  0
    8.6697  -14.9841   19.6737 C   0  0  0  0  0  0  0  0  0  0  0  0
    7.8994  -15.7789   20.7026 C   0  0  0  0  0  0  0  0  0  0  0  0
    8.8248  -16.7628   21.3767 C   0  0  0  0  0  0  0  0  0  0  0  0
    8.8683  -16.5702   22.8728 C   0  0  2  0  0  0  0  0  0  0  0  0
    7.8258  -15.7034   23.3493 N   0  0  0  0  0  0  0  0  0  0  0  0
   10.1732  -16.0721   23.3561 C   0  0  0  0  0  0  0  0  0  0  0  0
   10.4247  -14.8420   23.3846 O   0  0  0  0  0  0  0  0  0  0  0  0
    9.0996  -11.7562   19.0829 N   0  0  0  0  0  0  0  0  0  0  0  0
   11.1783  -16.9667   23.8012 C   0  0  1  0  0  0  0  0  0  0  0  0
   11.6286  -16.8740   25.1800 C   0  0  0  0  0  0  0  0  0  0  0  0
   10.4957  -16.6941   26.1282 C   0  0  0  0  0  0  0  0  0  0  0  0
   10.9800  -16.6444   27.5172 C   0  0  0  0  0  0  0  0  0  0  0  0
   12.2413  -16.8338   28.0392 N   0  0  0  0  0  0  0  0  0  0  0  0
   12.1938  -16.7146   29.4018 C   0  0  0  0  0  0  0  0  0  0  0  0
   10.9178  -16.4550   29.7161 N   0  0  0  0  0  0  0  0  0  0  0  0
   10.1823  -16.4105   28.5995 C   0  0  0  0  0  0  0  0  0  0  0  0
   12.4186  -18.0543   25.4981 O   0  0  0  0  0  0  0  0  0  0  0  0
   13.5170  -18.0731   26.3592 O   0  0  0  0  0  0  0  0  0  0  0  0
  2  1  1  6
  3  2  1  0
  4  2  1  0
  5  6  1  1
  5  7  1  0
  5  4  1  0
  7  8  2  0
 10  9  1  0
 10 12  1  0
 11 10  2  0
 12 13  1  0
 13 14  1  0
 14 15  1  0
 16 15  1  6
 16 18  1  0
 17  7  1  0
 17 16  1  0
 18 20  1  0
 19 18  2  0
 20 21  1  0
 21 22  1  1
 22 23  1  0
 23 24  2  0
 23 27  1  0
 24 25  1  0
 25 26  1  0
 27 26  2  0
 28 29  1  0
 28 21  1  0
 30 28  2  0
M  END
$$$$
