LRH.pdb
     RDKit          3D

 30 30  0  0  1  0  0  0  0  0999 V2000
    5.2526  -11.5047   26.6197 C   0  0  0  0  0  0  0  0  0  0  0  0
    6.5060  -12.2775   26.3870 C   0  0  1  0  0  0  0  0  0  0  0  0
    7.2874  -12.2623   27.7094 C   0  0  0  0  0  0  0  0  0  0  0  0
    6.2588  -13.7136   26.0516 C   0  0  0  0  0  0  0  0  0  0  0  0
    7.4766  -14.5364   25.7595 C   0  0  2  0  0  0  0  0  0  0  0  0
    8.6583  -13.8841   26.2673 N   0  0  0  0  0  0  0  0  0  0  0  0
    7.5314  -14.9836   24.3831 C   0  0  0  0  0  0  0  0  0  0  0  0
    6.9496  -16.0557   24.0755 O   0  0  0  0  0  0  0  0  0  0  0  0
    8.5819  -12.5165   16.2398 N   0  0  0  0  0  0  0  0  0  0  0  0
    8.2622  -13.9150   16.1496 C   0  0  0  0  0  0  0  0  0  0  0  0
    8.3346  -14.4525   14.9879 N   0  0  0  0  0  0  0  0  0  0  0  0
    7.8852  -14.6751   17.2737 N   0  0  0  0  0  0  0  0  0  0  0  0
    7.7563  -14.0386   18.5538 C   0  0  0  0  0  0  0  0  0  0  0  0
    8.7534  -14.5565   19.5645 C   0  0  0  0  0  0  0  0  0  0  0  0
    8.4971  -13.9087   20.9038 C   0  0  0  0  0  0  0  0  0  0  0  0
    8.3935  -14.9232   22.0161 C   0  0  2  0  0  0  0  0  0  0  0  0
    8.1998  -14.3146   23.3034 N   0  0  0  0  0  0  0  0  0  0  0  0
    9.5546  -15.8355   22.0796 C   0  0  0  0  0  0  0  0  0  0  0  0
   10.5674  -15.5453   22.7632 O   0  0  0  0  0  0  0  0  0  0  0  0
    8.0761  -15.4471   14.7979 N   0  0  0  0  0  0  0  0  0  0  0  0
    9.5597  -17.0634   21.3717 C   0  0  2  0  0  0  0  0  0  0  0  0
   10.6515  -17.9940   21.6045 C   0  0  0  0  0  0  0  0  0  0  0  0
   10.2490  -19.1188   22.4919 C   0  0  0  0  0  0  0  0  0  0  0  0
   10.6513  -18.8563   23.8832 C   0  0  0  0  0  0  0  0  0  0  0  0
   11.2889  -17.7728   24.4477 N   0  0  0  0  0  0  0  0  0  0  0  0
   11.4763  -17.9992   25.7844 C   0  0  0  0  0  0  0  0  0  0  0  0
   10.9604  -19.2086   26.0408 N   0  0  0  0  0  0  0  0  0  0  0  0
   10.4644  -19.7313   24.9136 C   0  0  0  0  0  0  0  0  0  0  0  0
   11.1485  -18.4679   20.3212 O   0  0  0  0  0  0  0  0  0  0  0  0
   10.6983  -19.6135   19.6631 O   0  0  0  0  0  0  0  0  0  0  0  0
  2  1  1  1
  3  2  1  0
  4  2  1  0
  5  6  1  6
  5  7  1  0
  5  4  1  0
  7  8  2  0
 10  9  1  0
 10 12  1  0
 11 10  2  0
 12 13  1  0
 13 14  1  0
 14 15  1  0
 16 15  1  6
 16 18  1  0
 17  7  1  0
 17 16  1  0
 18 20  1  0
 19 18  2  0
 20 21  1  0
 21 22  1  1
 22 23  1  0
 23 24  2  0
 23 27  1  0
 24 25  1  0
 25 26  1  0
 27 26  2  0
 28 29  1  0
 28 21  1  0
 30 28  2  0
M  END
$$$$
