LRH.pdb
     RDKit          3D

 30 30  0  0  1  0  0  0  0  0999 V2000
    7.1715  -11.8612   28.1572 C   0  0  0  0  0  0  0  0  0  0  0  0
    6.3763  -12.9229   27.4770 C   0  0  1  0  0  0  0  0  0  0  0  0
    4.9931  -12.3218   27.1857 C   0  0  0  0  0  0  0  0  0  0  0  0
    6.9503  -13.3359   26.1595 C   0  0  0  0  0  0  0  0  0  0  0  0
    6.2813  -14.4971   25.4892 C   0  0  2  0  0  0  0  0  0  0  0  0
    5.9199  -15.4993   26.4613 N   0  0  0  0  0  0  0  0  0  0  0  0
    7.0061  -14.9635   24.3253 C   0  0  0  0  0  0  0  0  0  0  0  0
    7.6098  -16.0649   24.3943 O   0  0  0  0  0  0  0  0  0  0  0  0
   11.2091  -13.3489   18.2653 N   0  0  0  0  0  0  0  0  0  0  0  0
   10.5041  -14.0123   17.2026 C   0  0  0  0  0  0  0  0  0  0  0  0
   11.2085  -14.4513   16.2254 N   0  0  0  0  0  0  0  0  0  0  0  0
    9.1061  -14.1813   17.2172 N   0  0  0  0  0  0  0  0  0  0  0  0
    8.3431  -13.7123   18.3389 C   0  0  0  0  0  0  0  0  0  0  0  0
    8.6406  -14.4789   19.6068 C   0  0  0  0  0  0  0  0  0  0  0  0
    7.7545  -13.9756   20.7205 C   0  0  0  0  0  0  0  0  0  0  0  0
    7.9546  -14.7492   22.0007 C   0  0  2  0  0  0  0  0  0  0  0  0
    7.1123  -14.2813   23.0669 N   0  0  0  0  0  0  0  0  0  0  0  0
    9.3595  -14.7585   22.4596 C   0  0  0  0  0  0  0  0  0  0  0  0
    9.9359  -13.6950   22.7969 O   0  0  0  0  0  0  0  0  0  0  0  0
   10.8037  -14.9678   15.4120 N   0  0  0  0  0  0  0  0  0  0  0  0
   10.0972  -15.9666   22.5324 C   0  0  1  0  0  0  0  0  0  0  0  0
   10.8484  -16.2488   23.7441 C   0  0  0  0  0  0  0  0  0  0  0  0
    9.9728  -16.3016   24.9464 C   0  0  0  0  0  0  0  0  0  0  0  0
   10.7686  -16.5344   26.1625 C   0  0  0  0  0  0  0  0  0  0  0  0
   12.1296  -16.6610   26.3383 N   0  0  0  0  0  0  0  0  0  0  0  0
   12.3988  -16.8993   27.6589 C   0  0  0  0  0  0  0  0  0  0  0  0
   11.2173  -16.9198   28.2897 N   0  0  0  0  0  0  0  0  0  0  0  0
   10.2354  -16.7032   27.4073 C   0  0  0  0  0  0  0  0  0  0  0  0
   11.5911  -17.4870   23.5605 O   0  0  0  0  0  0  0  0  0  0  0  0
   12.8786  -17.7262   24.0435 O   0  0  0  0  0  0  0  0  0  0  0  0
  2  1  1  6
  3  2  1  0
  4  2  1  0
  5  6  1  1
  5  7  1  0
  5  4  1  0
  7  8  2  0
 10  9  1  0
 10 12  1  0
 11 10  2  0
 12 13  1  0
 13 14  1  0
 14 15  1  0
 16 15  1  6
 16 18  1  0
 17  7  1  0
 17 16  1  0
 18 20  1  0
 19 18  2  0
 20 21  1  0
 21 22  1  6
 22 23  1  0
 23 24  2  0
 23 27  1  0
 24 25  1  0
 25 26  1  0
 27 26  2  0
 28 29  1  0
 28 21  1  0
 30 28  2  0
M  END
$$$$
