TMG.pdb
     RDKit          3D

 20 19  0  0  1  0  0  0  0  0999 V2000
   17.5447  -17.1783    3.6145 C   0  0  0  0  0  0  0  0  0  0  0  0
   17.8122  -15.7822    3.0738 C   0  0  1  0  0  0  0  0  0  0  0  0
   17.2416  -15.6942    1.8301 O   0  0  0  0  0  0  0  0  0  0  0  0
   17.2286  -14.8106    4.0687 C   0  0  2  0  0  0  0  0  0  0  0  0
   17.3302  -13.4753    3.5288 N   0  0  0  0  0  0  0  0  0  0  0  0
   17.9461  -14.8671    5.3804 C   0  0  0  0  0  0  0  0  0  0  0  0
   19.0349  -14.2661    5.5535 O   0  0  0  0  0  0  0  0  0  0  0  0
   17.0123  -14.1455   11.8680 C   0  0  0  0  0  0  0  0  0  0  0  0
   16.4482  -13.1035   10.4687 S   0  0  0  0  0  0  0  0  0  0  0  0
   17.2404  -13.7100    8.9789 C   0  0  0  0  0  0  0  0  0  0  0  0
   17.4605  -15.1935    8.9394 C   0  0  0  0  0  0  0  0  0  0  0  0
   18.0894  -15.7524    7.7505 C   0  0  2  0  0  0  0  0  0  0  0  0
   17.4401  -15.5948    6.4869 N   0  0  0  0  0  0  0  0  0  0  0  0
   18.5987  -17.1196    7.9200 C   0  0  0  0  0  0  0  0  0  0  0  0
   18.0115  -18.1193    7.4277 O   0  0  0  0  0  0  0  0  0  0  0  0
   19.7949  -17.4000    8.6689 N   0  0  0  0  0  0  0  0  0  0  0  0
   20.3348  -18.6955    8.9296 C   0  0  0  0  0  0  0  0  0  0  0  0
   21.5191  -18.8000    9.7573 C   0  0  0  0  0  0  0  0  0  0  0  0
   22.1391  -17.8448   10.2347 O   0  0  0  0  0  0  0  0  0  0  0  0
   22.0097  -20.0822   10.0459 O   0  0  0  0  0  0  0  0  0  0  0  0
  2  1  1  1
  3  2  1  0
  4  5  1  6
  4  2  1  0
  6  4  1  0
  6  7  2  0
  9  8  1  0
  9 10  1  0
 10 11  1  0
 12 11  1  1
 12 13  1  0
 12 14  1  0
 13  6  1  0
 14 16  1  0
 14 15  2  0
 16 17  1  0
 18 17  1  0
 18 20  1  0
 19 18  2  0
M  END
$$$$
