TMG.pdb
     RDKit          3D

 20 19  0  0  1  0  0  0  0  0999 V2000
   26.1563  -18.2374  -15.0673 C   0  0  0  0  0  0  0  0  0  0  0  0
   26.7975  -19.4060  -15.7996 C   0  0  1  0  0  0  0  0  0  0  0  0
   27.7613  -18.9034  -16.6353 O   0  0  0  0  0  0  0  0  0  0  0  0
   27.3465  -20.3329  -14.7442 C   0  0  2  0  0  0  0  0  0  0  0  0
   28.0465  -21.4154  -15.3948 N   0  0  0  0  0  0  0  0  0  0  0  0
   26.2587  -20.8960  -13.8851 C   0  0  0  0  0  0  0  0  0  0  0  0
   25.4868  -21.7890  -14.3137 O   0  0  0  0  0  0  0  0  0  0  0  0
   26.1395  -19.7453   -7.3298 C   0  0  0  0  0  0  0  0  0  0  0  0
   27.3382  -20.4536   -8.5228 S   0  0  0  0  0  0  0  0  0  0  0  0
   26.4224  -21.4664   -9.6848 C   0  0  0  0  0  0  0  0  0  0  0  0
   25.1903  -20.8231  -10.2495 C   0  0  0  0  0  0  0  0  0  0  0  0
   24.9913  -20.8920  -11.6907 C   0  0  2  0  0  0  0  0  0  0  0  0
   26.0434  -20.4562  -12.5547 N   0  0  0  0  0  0  0  0  0  0  0  0
   23.6873  -20.3935  -12.1472 C   0  0  0  0  0  0  0  0  0  0  0  0
   23.3568  -19.1830  -12.0374 O   0  0  0  0  0  0  0  0  0  0  0  0
   22.7038  -21.2618  -12.7381 N   0  0  0  0  0  0  0  0  0  0  0  0
   21.5317  -20.8449  -13.4381 C   0  0  0  0  0  0  0  0  0  0  0  0
   20.2545  -21.4076  -13.0499 C   0  0  0  0  0  0  0  0  0  0  0  0
   19.1544  -21.0191  -13.4540 O   0  0  0  0  0  0  0  0  0  0  0  0
   20.2550  -22.4788  -12.1440 O   0  0  0  0  0  0  0  0  0  0  0  0
  2  1  1  1
  3  2  1  0
  4  5  1  6
  4  2  1  0
  6  4  1  0
  6  7  2  0
  9  8  1  0
  9 10  1  0
 10 11  1  0
 12 11  1  1
 12 13  1  0
 12 14  1  0
 13  6  1  0
 14 16  1  0
 14 15  2  0
 16 17  1  0
 18 17  1  0
 18 20  1  0
 19 18  2  0
M  END
$$$$
