TMG.pdb
     RDKit          3D

 20 19  0  0  1  0  0  0  0  0999 V2000
   26.1650  -18.0315  -14.7951 C   0  0  0  0  0  0  0  0  0  0  0  0
   27.1413  -18.9967  -15.4496 C   0  0  1  0  0  0  0  0  0  0  0  0
   27.8359  -18.3082  -16.4106 O   0  0  0  0  0  0  0  0  0  0  0  0
   28.0204  -19.5389  -14.3507 C   0  0  2  0  0  0  0  0  0  0  0  0
   29.1838  -20.1526  -14.9464 N   0  0  0  0  0  0  0  0  0  0  0  0
   27.3006  -20.5528  -13.5187 C   0  0  0  0  0  0  0  0  0  0  0  0
   27.8635  -21.6147  -13.1547 O   0  0  0  0  0  0  0  0  0  0  0  0
   28.2604  -20.5204   -8.1683 C   0  0  0  0  0  0  0  0  0  0  0  0
   26.4774  -20.2158   -7.8680 S   0  0  0  0  0  0  0  0  0  0  0  0
   25.5727  -20.7940   -9.3040 C   0  0  0  0  0  0  0  0  0  0  0  0
   26.1693  -20.4066  -10.6248 C   0  0  0  0  0  0  0  0  0  0  0  0
   25.4215  -20.7418  -11.8290 C   0  0  2  0  0  0  0  0  0  0  0  0
   25.9582  -20.3709  -13.1008 N   0  0  0  0  0  0  0  0  0  0  0  0
   23.9846  -20.4477  -11.7517 C   0  0  0  0  0  0  0  0  0  0  0  0
   23.5358  -19.4628  -11.1074 O   0  0  0  0  0  0  0  0  0  0  0  0
   23.0014  -21.2748  -12.3997 N   0  0  0  0  0  0  0  0  0  0  0  0
   21.5899  -21.0621  -12.3883 C   0  0  0  0  0  0  0  0  0  0  0  0
   20.7369  -22.0302  -13.0468 C   0  0  0  0  0  0  0  0  0  0  0  0
   21.1344  -23.0004  -13.6989 O   0  0  0  0  0  0  0  0  0  0  0  0
   19.3480  -21.8627  -12.9423 O   0  0  0  0  0  0  0  0  0  0  0  0
  2  1  1  1
  3  2  1  0
  4  5  1  6
  4  2  1  0
  6  4  1  0
  6  7  2  0
  9  8  1  0
  9 10  1  0
 10 11  1  0
 12 11  1  1
 12 13  1  0
 12 14  1  0
 13  6  1  0
 14 16  1  0
 14 15  2  0
 16 17  1  0
 18 17  1  0
 18 20  1  0
 19 18  2  0
M  END
$$$$
