TMG.pdb
     RDKit          3D

 20 19  0  0  1  0  0  0  0  0999 V2000
   22.4763   -7.4810  -17.9812 C   0  0  0  0  0  0  0  0  0  0  0  0
   21.6842   -8.7787  -18.0216 C   0  0  1  0  0  0  0  0  0  0  0  0
   22.2549   -9.5929  -18.9658 O   0  0  0  0  0  0  0  0  0  0  0  0
   21.7261   -9.3580  -16.6298 C   0  0  2  0  0  0  0  0  0  0  0  0
   21.0935  -10.6559  -16.6473 N   0  0  0  0  0  0  0  0  0  0  0  0
   21.0201   -8.4796  -15.6457 C   0  0  0  0  0  0  0  0  0  0  0  0
   19.7682   -8.3818  -15.6410 O   0  0  0  0  0  0  0  0  0  0  0  0
   18.9042   -5.2211   -9.0760 C   0  0  0  0  0  0  0  0  0  0  0  0
   19.9387   -6.5079   -9.8735 S   0  0  0  0  0  0  0  0  0  0  0  0
   20.1015   -6.0837  -11.6079 C   0  0  0  0  0  0  0  0  0  0  0  0
   20.8931   -7.0611  -12.4258 C   0  0  0  0  0  0  0  0  0  0  0  0
   21.1471   -6.7263  -13.8204 C   0  0  2  0  0  0  0  0  0  0  0  0
   21.7195   -7.7184  -14.6756 N   0  0  0  0  0  0  0  0  0  0  0  0
   21.7828   -5.4179  -14.0237 C   0  0  0  0  0  0  0  0  0  0  0  0
   23.0303   -5.2602  -13.9498 O   0  0  0  0  0  0  0  0  0  0  0  0
   21.0162   -4.2342  -14.3092 N   0  0  0  0  0  0  0  0  0  0  0  0
   21.5481   -2.9369  -14.5772 C   0  0  0  0  0  0  0  0  0  0  0  0
   20.6267   -1.8395  -14.7897 C   0  0  0  0  0  0  0  0  0  0  0  0
   19.4059   -1.9543  -14.9350 O   0  0  0  0  0  0  0  0  0  0  0  0
   21.1510   -0.5391  -14.8360 O   0  0  0  0  0  0  0  0  0  0  0  0
  2  1  1  1
  3  2  1  0
  4  5  1  6
  4  2  1  0
  6  4  1  0
  6  7  2  0
  9  8  1  0
  9 10  1  0
 10 11  1  0
 12 11  1  1
 12 13  1  0
 12 14  1  0
 13  6  1  0
 14 16  1  0
 14 15  2  0
 16 17  1  0
 18 17  1  0
 18 20  1  0
 19 18  2  0
M  END
$$$$
