TMG.pdb
     RDKit          3D

 20 19  0  0  1  0  0  0  0  0999 V2000
   19.4397  -11.3552  -20.1564 C   0  0  0  0  0  0  0  0  0  0  0  0
   19.8354  -10.4445  -19.0043 C   0  0  1  0  0  0  0  0  0  0  0  0
   18.7851  -10.3959  -18.1242 O   0  0  0  0  0  0  0  0  0  0  0  0
   21.0917  -11.0232  -18.4034 C   0  0  2  0  0  0  0  0  0  0  0  0
   20.7986  -12.3422  -17.8944 N   0  0  0  0  0  0  0  0  0  0  0  0
   21.6136  -10.1707  -17.2901 C   0  0  0  0  0  0  0  0  0  0  0  0
   21.3768  -10.4511  -16.0892 O   0  0  0  0  0  0  0  0  0  0  0  0
   26.8781  -11.4286  -14.7967 C   0  0  0  0  0  0  0  0  0  0  0  0
   26.5076   -9.7001  -15.2836 S   0  0  0  0  0  0  0  0  0  0  0  0
   24.7601   -9.6025  -15.6728 C   0  0  0  0  0  0  0  0  0  0  0  0
   24.2840   -8.2474  -16.1061 C   0  0  0  0  0  0  0  0  0  0  0  0
   22.8960   -8.1217  -16.5294 C   0  0  2  0  0  0  0  0  0  0  0  0
   22.3954   -9.0124  -17.5289 N   0  0  0  0  0  0  0  0  0  0  0  0
   22.4617   -6.7414  -16.7813 C   0  0  0  0  0  0  0  0  0  0  0  0
   22.7035   -6.1503  -17.8671 O   0  0  0  0  0  0  0  0  0  0  0  0
   21.7423   -5.9771  -15.7971 N   0  0  0  0  0  0  0  0  0  0  0  0
   21.3798   -4.6008  -15.9071 C   0  0  0  0  0  0  0  0  0  0  0  0
   20.5464   -4.0180  -14.8754 C   0  0  0  0  0  0  0  0  0  0  0  0
   19.9981   -4.6468  -13.9652 O   0  0  0  0  0  0  0  0  0  0  0  0
   20.3387   -2.6308  -14.9023 O   0  0  0  0  0  0  0  0  0  0  0  0
  2  1  1  6
  3  2  1  0
  4  5  1  1
  4  2  1  0
  6  4  1  0
  6  7  2  0
  9  8  1  0
  9 10  1  0
 10 11  1  0
 12 11  1  6
 12 13  1  0
 12 14  1  0
 13  6  1  0
 14 16  1  0
 14 15  2  0
 16 17  1  0
 18 17  1  0
 18 20  1  0
 19 18  2  0
M  END
$$$$
