TMG.pdb
     RDKit          3D

 20 19  0  0  1  0  0  0  0  0999 V2000
   17.9204   -8.1342  -17.3504 C   0  0  0  0  0  0  0  0  0  0  0  0
   17.3435   -8.7286  -16.0749 C   0  0  1  0  0  0  0  0  0  0  0  0
   16.0494   -9.1026  -16.3307 O   0  0  0  0  0  0  0  0  0  0  0  0
   18.2341   -9.8835  -15.6910 C   0  0  2  0  0  0  0  0  0  0  0  0
   17.6658  -10.5463  -14.5409 N   0  0  0  0  0  0  0  0  0  0  0  0
   19.6194   -9.4251  -15.3603 C   0  0  0  0  0  0  0  0  0  0  0  0
   19.9229   -9.0540  -14.1997 O   0  0  0  0  0  0  0  0  0  0  0  0
   26.8832  -10.4448  -14.8455 C   0  0  0  0  0  0  0  0  0  0  0  0
   25.1506  -10.9295  -15.1992 S   0  0  0  0  0  0  0  0  0  0  0  0
   24.4751   -9.7422  -16.3608 C   0  0  0  0  0  0  0  0  0  0  0  0
   23.0373   -9.9642  -16.7269 C   0  0  0  0  0  0  0  0  0  0  0  0
   22.0360   -9.1377  -16.0667 C   0  0  2  0  0  0  0  0  0  0  0  0
   20.6531   -9.3858  -16.3296 N   0  0  0  0  0  0  0  0  0  0  0  0
   22.3309   -7.6988  -16.0834 C   0  0  0  0  0  0  0  0  0  0  0  0
   22.2716   -7.0149  -17.1395 O   0  0  0  0  0  0  0  0  0  0  0  0
   22.7160   -6.9858  -14.8944 N   0  0  0  0  0  0  0  0  0  0  0  0
   23.0642   -5.6033  -14.8233 C   0  0  0  0  0  0  0  0  0  0  0  0
   22.0005   -4.6206  -14.7906 C   0  0  0  0  0  0  0  0  0  0  0  0
   22.1587   -3.4070  -14.6266 O   0  0  0  0  0  0  0  0  0  0  0  0
   20.6824   -5.0712  -14.9572 O   0  0  0  0  0  0  0  0  0  0  0  0
  2  1  1  6
  3  2  1  0
  4  5  1  1
  4  2  1  0
  6  4  1  0
  6  7  2  0
  9  8  1  0
  9 10  1  0
 10 11  1  0
 12 11  1  6
 12 13  1  0
 12 14  1  0
 13  6  1  0
 14 16  1  0
 14 15  2  0
 16 17  1  0
 18 17  1  0
 18 20  1  0
 19 18  2  0
M  END
$$$$
