TMG.pdb
     RDKit          3D

 20 19  0  0  1  0  0  0  0  0999 V2000
   25.3979  -21.4772  -17.1150 C   0  0  0  0  0  0  0  0  0  0  0  0
   25.4887  -22.9906  -17.2348 C   0  0  1  0  0  0  0  0  0  0  0  0
   26.1457  -23.2833  -18.4023 O   0  0  0  0  0  0  0  0  0  0  0  0
   26.2093  -23.4825  -16.0047 C   0  0  2  0  0  0  0  0  0  0  0  0
   26.1958  -24.9263  -16.0043 N   0  0  0  0  0  0  0  0  0  0  0  0
   25.5629  -22.9838  -14.7509 C   0  0  0  0  0  0  0  0  0  0  0  0
   24.4549  -23.4326  -14.3665 O   0  0  0  0  0  0  0  0  0  0  0  0
   24.6785  -20.5477   -7.8818 C   0  0  0  0  0  0  0  0  0  0  0  0
   25.6332  -21.3616   -9.2190 S   0  0  0  0  0  0  0  0  0  0  0  0
   25.8000  -20.1894  -10.5655 C   0  0  0  0  0  0  0  0  0  0  0  0
   26.4379  -20.7396  -11.8069 C   0  0  0  0  0  0  0  0  0  0  0  0
   25.5718  -21.3897  -12.7810 C   0  0  2  0  0  0  0  0  0  0  0  0
   26.1607  -21.9881  -13.9379 N   0  0  0  0  0  0  0  0  0  0  0  0
   24.3708  -20.6209  -13.1328 C   0  0  0  0  0  0  0  0  0  0  0  0
   24.4081  -19.6480  -13.9320 O   0  0  0  0  0  0  0  0  0  0  0  0
   23.0797  -20.9270  -12.5761 N   0  0  0  0  0  0  0  0  0  0  0  0
   21.8607  -20.2418  -12.8630 C   0  0  0  0  0  0  0  0  0  0  0  0
   21.3134  -20.3302  -14.2013 C   0  0  0  0  0  0  0  0  0  0  0  0
   21.1587  -21.3767  -14.8382 O   0  0  0  0  0  0  0  0  0  0  0  0
   20.9250  -19.1398  -14.8338 O   0  0  0  0  0  0  0  0  0  0  0  0
  2  1  1  1
  3  2  1  0
  4  5  1  1
  4  2  1  0
  6  4  1  0
  6  7  2  0
  9  8  1  0
  9 10  1  0
 10 11  1  0
 12 11  1  6
 12 13  1  0
 12 14  1  0
 13  6  1  0
 14 16  1  0
 14 15  2  0
 16 17  1  0
 18 17  1  0
 18 20  1  0
 19 18  2  0
M  END
$$$$
