WDI.pdb
     RDKit          3D

 31 32  0  0  1  0  0  0  0  0999 V2000
   27.8279  -21.8335  -13.5273 N   0  0  0  0  0  0  0  0  0  0  0  0
   26.7404  -21.5914  -12.5893 C   0  0  1  0  0  0  0  0  0  0  0  0
   27.0558  -20.3391  -11.7915 C   0  0  0  0  0  0  0  0  0  0  0  0
   28.0605  -20.5630  -10.7568 C   0  0  0  0  0  0  0  0  0  0  0  0
   29.4047  -20.7735  -10.9804 C   0  0  0  0  0  0  0  0  0  0  0  0
   30.0039  -20.9389   -9.7959 N   0  0  0  0  0  0  0  0  0  0  0  0
   29.1080  -20.8470   -8.7743 C   0  0  0  0  0  0  0  0  0  0  0  0
   29.2345  -20.9451   -7.4067 C   0  0  0  0  0  0  0  0  0  0  0  0
   28.1077  -20.8033   -6.6156 C   0  0  0  0  0  0  0  0  0  0  0  0
   26.8818  -20.5648   -7.2301 C   0  0  0  0  0  0  0  0  0  0  0  0
   26.7655  -20.4687   -8.5936 C   0  0  0  0  0  0  0  0  0  0  0  0
   27.8852  -20.6095   -9.4009 C   0  0  0  0  0  0  0  0  0  0  0  0
   25.5415  -21.2426  -13.4395 C   0  0  0  0  0  0  0  0  0  0  0  0
   25.5764  -20.1554  -14.0975 O   0  0  0  0  0  0  0  0  0  0  0  0
   24.4040  -22.0973  -13.5110 N   0  0  0  0  0  0  0  0  0  0  0  0
   23.3179  -21.7267  -14.3849 C   0  0  1  0  0  0  0  0  0  0  0  0
   23.0538  -22.9363  -15.3060 C   0  0  0  0  0  0  0  0  0  0  0  0
   23.0551  -24.1351  -14.4326 C   0  0  0  0  0  0  0  0  0  0  0  0
   24.1415  -24.6442  -14.0218 O   0  0  0  0  0  0  0  0  0  0  0  0
   22.0847  -21.3943  -13.6387 C   0  0  0  0  0  0  0  0  0  0  0  0
   21.9940  -21.7641  -12.4437 O   0  0  0  0  0  0  0  0  0  0  0  0
   21.8390  -24.7014  -14.0682 O   0  0  0  0  0  0  0  0  0  0  0  0
   20.2936  -16.5314  -13.7247 C   0  0  0  0  0  0  0  0  0  0  0  0
   20.4893  -17.9652  -13.3607 C   0  0  0  0  0  0  0  0  0  0  0  0
   19.3885  -18.8785  -13.8480 C   0  0  2  0  0  0  0  0  0  0  0  0
   18.1331  -18.4984  -13.0989 C   0  0  0  0  0  0  0  0  0  0  0  0
   19.7916  -20.3139  -13.4972 C   0  0  2  0  0  0  0  0  0  0  0  0
   21.0050  -20.6808  -14.2040 N   0  0  0  0  0  0  0  0  0  0  0  0
   18.7183  -21.2094  -13.9938 C   0  0  0  0  0  0  0  0  0  0  0  0
   17.6689  -21.6301  -13.1979 O   0  0  0  0  0  0  0  0  0  0  0  0
   18.7669  -21.5991  -15.1805 O   0  0  0  0  0  0  0  0  0  0  0  0
  2  1  1  6
  2  3  1  0
  2 13  1  0
  3  4  1  0
  4  5  2  0
  5  6  1  0
  7  6  1  0
  8  7  2  0
  9  8  1  0
 10 11  1  0
 10  9  2  0
 11 12  2  0
 12  4  1  0
 12  7  1  0
 13 15  1  0
 13 14  2  0
 15 16  1  0
 16 17  1  6
 17 18  1  0
 18 19  2  0
 18 22  1  0
 20 21  2  0
 20 16  1  0
 23 24  1  0
 24 25  1  0
 25 27  1  0
 25 26  1  1
 27 28  1  6
 28 20  1  0
 29 30  1  0
 29 27  1  0
 31 29  2  0
M  END
$$$$
