WDI.pdb
     RDKit          3D

 31 32  0  0  1  0  0  0  0  0999 V2000
   24.7823  -17.6575  -15.9735 N   0  0  0  0  0  0  0  0  0  0  0  0
   25.9300  -18.0836  -15.1847 C   0  0  1  0  0  0  0  0  0  0  0  0
   26.5190  -16.8705  -14.4879 C   0  0  0  0  0  0  0  0  0  0  0  0
   27.1568  -15.9386  -15.4125 C   0  0  0  0  0  0  0  0  0  0  0  0
   26.8008  -14.6181  -15.5887 C   0  0  0  0  0  0  0  0  0  0  0  0
   27.6077  -14.0884  -16.5148 N   0  0  0  0  0  0  0  0  0  0  0  0
   28.5013  -15.0083  -16.9730 C   0  0  0  0  0  0  0  0  0  0  0  0
   29.5114  -14.9477  -17.9069 C   0  0  0  0  0  0  0  0  0  0  0  0
   30.2632  -16.0823  -18.1583 C   0  0  0  0  0  0  0  0  0  0  0  0
   29.9730  -17.2489  -17.4568 C   0  0  0  0  0  0  0  0  0  0  0  0
   28.9645  -17.2997  -16.5282 C   0  0  0  0  0  0  0  0  0  0  0  0
   28.2009  -16.1714  -16.2651 C   0  0  0  0  0  0  0  0  0  0  0  0
   25.3664  -18.9524  -14.0850 C   0  0  0  0  0  0  0  0  0  0  0  0
   24.2756  -18.5896  -13.5420 O   0  0  0  0  0  0  0  0  0  0  0  0
   26.0256  -20.1427  -13.6631 N   0  0  0  0  0  0  0  0  0  0  0  0
   25.3811  -20.9742  -12.6763 C   0  0  1  0  0  0  0  0  0  0  0  0
   25.1280  -22.3428  -13.3427 C   0  0  0  0  0  0  0  0  0  0  0  0
   24.3100  -23.1284  -12.3868 C   0  0  0  0  0  0  0  0  0  0  0  0
   23.8418  -22.5966  -11.3351 O   0  0  0  0  0  0  0  0  0  0  0  0
   26.2129  -21.1588  -11.4672 C   0  0  0  0  0  0  0  0  0  0  0  0
   27.2774  -21.8139  -11.5711 O   0  0  0  0  0  0  0  0  0  0  0  0
   24.0625  -24.4690  -12.6588 O   0  0  0  0  0  0  0  0  0  0  0  0
   28.6393  -19.5744   -6.2333 C   0  0  0  0  0  0  0  0  0  0  0  0
   27.7549  -20.5272   -6.9657 C   0  0  0  0  0  0  0  0  0  0  0  0
   27.1613  -19.9624   -8.2353 C   0  0  2  0  0  0  0  0  0  0  0  0
   26.1933  -18.8769   -7.8276 C   0  0  0  0  0  0  0  0  0  0  0  0
   26.4084  -21.0970   -8.9366 C   0  0  2  0  0  0  0  0  0  0  0  0
   25.8692  -20.6338  -10.2020 N   0  0  0  0  0  0  0  0  0  0  0  0
   25.2500  -21.4548   -8.0818 C   0  0  0  0  0  0  0  0  0  0  0  0
   23.9430  -21.1883   -8.4456 O   0  0  0  0  0  0  0  0  0  0  0  0
   25.4667  -22.0198   -6.9880 O   0  0  0  0  0  0  0  0  0  0  0  0
  2  1  1  6
  2  3  1  0
  2 13  1  0
  3  4  1  0
  4  5  2  0
  5  6  1  0
  7  6  1  0
  8  7  2  0
  9  8  1  0
 10 11  1  0
 10  9  2  0
 11 12  2  0
 12  4  1  0
 12  7  1  0
 13 15  1  0
 13 14  2  0
 15 16  1  0
 16 17  1  6
 17 18  1  0
 18 19  2  0
 18 22  1  0
 20 21  2  0
 20 16  1  0
 23 24  1  0
 24 25  1  0
 25 27  1  0
 25 26  1  1
 27 28  1  6
 28 20  1  0
 29 30  1  0
 29 27  1  0
 31 29  2  0
M  END
$$$$
