WDI.pdb
     RDKit          3D

 31 32  0  0  1  0  0  0  0  0999 V2000
   21.6178  -13.7756  -17.3175 N   0  0  0  0  0  0  0  0  0  0  0  0
   21.3289  -14.6454  -18.4494 C   0  0  1  0  0  0  0  0  0  0  0  0
   22.6194  -14.9058  -19.2049 C   0  0  0  0  0  0  0  0  0  0  0  0
   23.1972  -13.6937  -19.7766 C   0  0  0  0  0  0  0  0  0  0  0  0
   24.2584  -12.9886  -19.2493 C   0  0  0  0  0  0  0  0  0  0  0  0
   24.5010  -11.9418  -20.0462 N   0  0  0  0  0  0  0  0  0  0  0  0
   23.6374  -11.9142  -21.0988 C   0  0  0  0  0  0  0  0  0  0  0  0
   23.4876  -11.0552  -22.1645 C   0  0  0  0  0  0  0  0  0  0  0  0
   22.4892  -11.3013  -23.0910 C   0  0  0  0  0  0  0  0  0  0  0  0
   21.6688  -12.4117  -22.9148 C   0  0  0  0  0  0  0  0  0  0  0  0
   21.8255  -13.2620  -21.8496 C   0  0  0  0  0  0  0  0  0  0  0  0
   22.8208  -13.0289  -20.9114 C   0  0  0  0  0  0  0  0  0  0  0  0
   20.9321  -15.9737  -17.8492 C   0  0  0  0  0  0  0  0  0  0  0  0
   20.6867  -16.9348  -18.6444 O   0  0  0  0  0  0  0  0  0  0  0  0
   20.8347  -16.1558  -16.4397 N   0  0  0  0  0  0  0  0  0  0  0  0
   20.2902  -17.3951  -15.9413 C   0  0  1  0  0  0  0  0  0  0  0  0
   21.0210  -17.7032  -14.6176 C   0  0  0  0  0  0  0  0  0  0  0  0
   20.5524  -19.0417  -14.1830 C   0  0  0  0  0  0  0  0  0  0  0  0
   19.7381  -19.1687  -13.2193 O   0  0  0  0  0  0  0  0  0  0  0  0
   18.8342  -17.3102  -15.6946 C   0  0  0  0  0  0  0  0  0  0  0  0
   18.3840  -16.2813  -15.1364 O   0  0  0  0  0  0  0  0  0  0  0  0
   21.0233  -20.1669  -14.8498 O   0  0  0  0  0  0  0  0  0  0  0  0
   15.1425  -18.8496  -19.3185 C   0  0  0  0  0  0  0  0  0  0  0  0
   15.7884  -18.2146  -18.1327 C   0  0  0  0  0  0  0  0  0  0  0  0
   15.7405  -19.0596  -16.8810 C   0  0  2  0  0  0  0  0  0  0  0  0
   14.2866  -19.1998  -16.4962 C   0  0  0  0  0  0  0  0  0  0  0  0
   16.5000  -18.3047  -15.7859 C   0  0  2  0  0  0  0  0  0  0  0  0
   17.9257  -18.3289  -16.0570 N   0  0  0  0  0  0  0  0  0  0  0  0
   16.2924  -19.0407  -14.5148 C   0  0  0  0  0  0  0  0  0  0  0  0
   17.2195  -19.9327  -14.0084 O   0  0  0  0  0  0  0  0  0  0  0  0
   15.2351  -18.8453  -13.8772 O   0  0  0  0  0  0  0  0  0  0  0  0
  2  1  1  1
  2  3  1  0
  2 13  1  0
  3  4  1  0
  4  5  2  0
  5  6  1  0
  7  6  1  0
  8  7  2  0
  9  8  1  0
 10 11  1  0
 10  9  2  0
 11 12  2  0
 12  4  1  0
 12  7  1  0
 13 15  1  0
 13 14  2  0
 15 16  1  0
 16 17  1  1
 17 18  1  0
 18 19  2  0
 18 22  1  0
 20 21  2  0
 20 16  1  0
 23 24  1  0
 24 25  1  0
 25 27  1  0
 25 26  1  1
 27 28  1  6
 28 20  1  0
 29 30  1  0
 29 27  1  0
 31 29  2  0
M  END
$$$$
