WDI.pdb
     RDKit          3D

 31 32  0  0  1  0  0  0  0  0999 V2000
   28.8424  -20.4920  -10.0223 N   0  0  0  0  0  0  0  0  0  0  0  0
   27.4829  -20.8533   -9.6451 C   0  0  1  0  0  0  0  0  0  0  0  0
   26.8461  -19.6743   -8.9320 C   0  0  0  0  0  0  0  0  0  0  0  0
   27.5976  -19.2492   -7.7552 C   0  0  0  0  0  0  0  0  0  0  0  0
   28.4038  -18.1330   -7.6822 C   0  0  0  0  0  0  0  0  0  0  0  0
   28.9227  -18.0728   -6.4507 N   0  0  0  0  0  0  0  0  0  0  0  0
   28.4934  -19.1138   -5.6846 C   0  0  0  0  0  0  0  0  0  0  0  0
   28.7425  -19.4821   -4.3814 C   0  0  0  0  0  0  0  0  0  0  0  0
   28.1424  -20.6238   -3.8792 C   0  0  0  0  0  0  0  0  0  0  0  0
   27.3048  -21.3626   -4.7097 C   0  0  0  0  0  0  0  0  0  0  0  0
   27.0626  -20.9878   -6.0070 C   0  0  0  0  0  0  0  0  0  0  0  0
   27.6572  -19.8466   -6.5261 C   0  0  0  0  0  0  0  0  0  0  0  0
   26.7271  -21.0010  -10.9447 C   0  0  0  0  0  0  0  0  0  0  0  0
   27.1268  -20.3245  -11.9440 O   0  0  0  0  0  0  0  0  0  0  0  0
   25.6030  -21.8686  -11.0591 N   0  0  0  0  0  0  0  0  0  0  0  0
   24.9445  -21.9776  -12.3378 C   0  0  1  0  0  0  0  0  0  0  0  0
   24.7770  -23.4842  -12.6264 C   0  0  0  0  0  0  0  0  0  0  0  0
   24.1865  -23.5870  -13.9831 C   0  0  0  0  0  0  0  0  0  0  0  0
   24.5803  -22.8368  -14.9267 O   0  0  0  0  0  0  0  0  0  0  0  0
   23.6185  -21.3221  -12.3447 C   0  0  0  0  0  0  0  0  0  0  0  0
   22.9603  -21.2987  -11.2773 O   0  0  0  0  0  0  0  0  0  0  0  0
   23.1841  -24.5231  -14.2098 O   0  0  0  0  0  0  0  0  0  0  0  0
   23.0823  -17.5902  -16.0474 C   0  0  0  0  0  0  0  0  0  0  0  0
   22.6406  -18.1178  -14.7234 C   0  0  0  0  0  0  0  0  0  0  0  0
   21.6291  -19.2366  -14.8144 C   0  0  2  0  0  0  0  0  0  0  0  0
   20.2628  -18.5953  -14.8735 C   0  0  0  0  0  0  0  0  0  0  0  0
   21.7565  -20.0777  -13.5407 C   0  0  2  0  0  0  0  0  0  0  0  0
   23.0569  -20.7204  -13.4924 N   0  0  0  0  0  0  0  0  0  0  0  0
   20.7456  -21.1603  -13.6216 C   0  0  0  0  0  0  0  0  0  0  0  0
   19.5928  -21.1642  -12.8582 O   0  0  0  0  0  0  0  0  0  0  0  0
   20.9464  -22.1072  -14.4126 O   0  0  0  0  0  0  0  0  0  0  0  0
  2  1  1  6
  2  3  1  0
  2 13  1  0
  3  4  1  0
  4  5  2  0
  5  6  1  0
  7  6  1  0
  8  7  2  0
  9  8  1  0
 10 11  1  0
 10  9  2  0
 11 12  2  0
 12  4  1  0
 12  7  1  0
 13 15  1  0
 13 14  2  0
 15 16  1  0
 16 17  1  1
 17 18  1  0
 18 19  2  0
 18 22  1  0
 20 21  2  0
 20 16  1  0
 23 24  1  0
 24 25  1  0
 25 27  1  0
 25 26  1  1
 27 28  1  6
 28 20  1  0
 29 30  1  0
 29 27  1  0
 31 29  2  0
M  END
$$$$
