WDI.pdb
     RDKit          3D

 31 32  0  0  1  0  0  0  0  0999 V2000
   24.0273  -19.6688   -9.1845 N   0  0  0  0  0  0  0  0  0  0  0  0
   25.3147  -19.8255   -9.8472 C   0  0  1  0  0  0  0  0  0  0  0  0
   26.1012  -20.9093   -9.1324 C   0  0  0  0  0  0  0  0  0  0  0  0
   26.2259  -20.6683   -7.6984 C   0  0  0  0  0  0  0  0  0  0  0  0
   25.2488  -20.9184   -6.7581 C   0  0  0  0  0  0  0  0  0  0  0  0
   25.7267  -20.5722   -5.5575 N   0  0  0  0  0  0  0  0  0  0  0  0
   26.9985  -20.0948   -5.6533 C   0  0  0  0  0  0  0  0  0  0  0  0
   27.8938  -19.6225   -4.7198 C   0  0  0  0  0  0  0  0  0  0  0  0
   29.1418  -19.1968   -5.1407 C   0  0  0  0  0  0  0  0  0  0  0  0
   29.4511  -19.2613   -6.4962 C   0  0  0  0  0  0  0  0  0  0  0  0
   28.5524  -19.7332   -7.4190 C   0  0  0  0  0  0  0  0  0  0  0  0
   27.2968  -20.1629   -7.0137 C   0  0  0  0  0  0  0  0  0  0  0  0
   25.0013  -20.3837  -11.2155 C   0  0  0  0  0  0  0  0  0  0  0  0
   24.1691  -21.3418  -11.2894 O   0  0  0  0  0  0  0  0  0  0  0  0
   25.6108  -19.8601  -12.3919 N   0  0  0  0  0  0  0  0  0  0  0  0
   25.1144  -20.2923  -13.6754 C   0  0  1  0  0  0  0  0  0  0  0  0
   25.3262  -19.1182  -14.6541 C   0  0  0  0  0  0  0  0  0  0  0  0
   26.7759  -18.8059  -14.6250 C   0  0  0  0  0  0  0  0  0  0  0  0
   27.3066  -18.2565  -13.6128 O   0  0  0  0  0  0  0  0  0  0  0  0
   25.8232  -21.4895  -14.1779 C   0  0  0  0  0  0  0  0  0  0  0  0
   26.9715  -21.7310  -13.7351 O   0  0  0  0  0  0  0  0  0  0  0  0
   27.5533  -19.1235  -15.7328 O   0  0  0  0  0  0  0  0  0  0  0  0
   23.5459  -26.1429  -14.2407 C   0  0  0  0  0  0  0  0  0  0  0  0
   24.5742  -25.0655  -14.3315 C   0  0  0  0  0  0  0  0  0  0  0  0
   24.9844  -24.7254  -15.7455 C   0  0  2  0  0  0  0  0  0  0  0  0
   25.6974  -25.9345  -16.3033 C   0  0  0  0  0  0  0  0  0  0  0  0
   25.9490  -23.5379  -15.6725 C   0  0  2  0  0  0  0  0  0  0  0  0
   25.2716  -22.3744  -15.1302 N   0  0  0  0  0  0  0  0  0  0  0  0
   26.3392  -23.1979  -17.0627 C   0  0  0  0  0  0  0  0  0  0  0  0
   25.5209  -22.4777  -17.9131 O   0  0  0  0  0  0  0  0  0  0  0  0
   27.4537  -23.5798  -17.4807 O   0  0  0  0  0  0  0  0  0  0  0  0
  2  1  1  1
  2  3  1  0
  2 13  1  0
  3  4  1  0
  4  5  2  0
  5  6  1  0
  7  6  1  0
  8  7  2  0
  9  8  1  0
 10 11  1  0
 10  9  2  0
 11 12  2  0
 12  4  1  0
 12  7  1  0
 13 15  1  0
 13 14  2  0
 15 16  1  0
 16 17  1  6
 17 18  1  0
 18 19  2  0
 18 22  1  0
 20 21  2  0
 20 16  1  0
 23 24  1  0
 24 25  1  0
 25 27  1  0
 25 26  1  1
 27 28  1  6
 28 20  1  0
 29 30  1  0
 29 27  1  0
 31 29  2  0
M  END
$$$$
