WDI.pdb
     RDKit          3D

 31 32  0  0  1  0  0  0  0  0999 V2000
   25.0714  -16.7314  -18.6974 N   0  0  0  0  0  0  0  0  0  0  0  0
   24.6717  -16.7616  -17.2972 C   0  0  1  0  0  0  0  0  0  0  0  0
   23.8837  -15.5014  -16.9888 C   0  0  0  0  0  0  0  0  0  0  0  0
   24.6719  -14.2842  -17.1537 C   0  0  0  0  0  0  0  0  0  0  0  0
   24.3843  -13.2583  -18.0291 C   0  0  0  0  0  0  0  0  0  0  0  0
   25.3283  -12.3198  -17.8968 N   0  0  0  0  0  0  0  0  0  0  0  0
   26.2484  -12.6764  -16.9581 C   0  0  0  0  0  0  0  0  0  0  0  0
   27.3813  -12.0598  -16.4762 C   0  0  0  0  0  0  0  0  0  0  0  0
   28.1270  -12.6938  -15.4975 C   0  0  0  0  0  0  0  0  0  0  0  0
   27.7053  -13.9357  -15.0315 C   0  0  0  0  0  0  0  0  0  0  0  0
   26.5751  -14.5425  -15.5179 C   0  0  0  0  0  0  0  0  0  0  0  0
   25.8171  -13.9207  -16.4998 C   0  0  0  0  0  0  0  0  0  0  0  0
   23.6843  -17.8989  -17.1817 C   0  0  0  0  0  0  0  0  0  0  0  0
   23.4437  -18.5845  -18.2249 O   0  0  0  0  0  0  0  0  0  0  0  0
   23.0391  -18.2040  -15.9488 N   0  0  0  0  0  0  0  0  0  0  0  0
   22.9703  -19.5826  -15.5301 C   0  0  1  0  0  0  0  0  0  0  0  0
   24.4228  -20.0553  -15.3109 C   0  0  0  0  0  0  0  0  0  0  0  0
   24.3555  -21.5184  -15.0769 C   0  0  0  0  0  0  0  0  0  0  0  0
   23.2407  -22.1152  -14.9814 O   0  0  0  0  0  0  0  0  0  0  0  0
   22.2006  -19.7519  -14.2783 C   0  0  0  0  0  0  0  0  0  0  0  0
   22.6524  -19.2378  -13.2274 O   0  0  0  0  0  0  0  0  0  0  0  0
   25.5411  -22.2347  -14.9595 O   0  0  0  0  0  0  0  0  0  0  0  0
   17.3663  -18.4275  -14.8665 C   0  0  0  0  0  0  0  0  0  0  0  0
   18.6665  -18.8049  -14.2392 C   0  0  0  0  0  0  0  0  0  0  0  0
   18.6474  -20.1474  -13.5460 C   0  0  2  0  0  0  0  0  0  0  0  0
   17.7283  -20.0180  -12.3544 C   0  0  0  0  0  0  0  0  0  0  0  0
   20.0745  -20.4431  -13.0750 C   0  0  2  0  0  0  0  0  0  0  0  0
   20.9822  -20.4626  -14.2074 N   0  0  0  0  0  0  0  0  0  0  0  0
   20.0769  -21.8105  -12.4997 C   0  0  0  0  0  0  0  0  0  0  0  0
   20.0643  -22.0476  -11.1376 O   0  0  0  0  0  0  0  0  0  0  0  0
   20.0914  -22.7868  -13.2802 O   0  0  0  0  0  0  0  0  0  0  0  0
  2  1  1  6
  2  3  1  0
  2 13  1  0
  3  4  1  0
  4  5  2  0
  5  6  1  0
  7  6  1  0
  8  7  2  0
  9  8  1  0
 10 11  1  0
 10  9  2  0
 11 12  2  0
 12  4  1  0
 12  7  1  0
 13 15  1  0
 13 14  2  0
 15 16  1  0
 16 17  1  1
 17 18  1  0
 18 19  2  0
 18 22  1  0
 20 21  2  0
 20 16  1  0
 23 24  1  0
 24 25  1  0
 25 27  1  0
 25 26  1  1
 27 28  1  6
 28 20  1  0
 29 30  1  0
 29 27  1  0
 31 29  2  0
M  END
$$$$
