WDI.pdb
     RDKit          3D

 31 32  0  0  1  0  0  0  0  0999 V2000
   31.5004  -21.3643   11.8293 N   0  0  0  0  0  0  0  0  0  0  0  0
   31.6707  -21.9245   10.4958 C   0  0  1  0  0  0  0  0  0  0  0  0
   32.3533  -20.8916    9.6175 C   0  0  0  0  0  0  0  0  0  0  0  0
   31.5847  -20.5675    8.4200 C   0  0  0  0  0  0  0  0  0  0  0  0
   30.4493  -19.7857    8.3865 C   0  0  0  0  0  0  0  0  0  0  0  0
   30.0283  -19.7154    7.1187 N   0  0  0  0  0  0  0  0  0  0  0  0
   30.8430  -20.4253    6.2897 C   0  0  0  0  0  0  0  0  0  0  0  0
   30.8275  -20.6533    4.9319 C   0  0  0  0  0  0  0  0  0  0  0  0
   31.8186  -21.4401    4.3711 C   0  0  0  0  0  0  0  0  0  0  0  0
   32.8004  -21.9750    5.2000 C   0  0  0  0  0  0  0  0  0  0  0  0
   32.8075  -21.7424    6.5521 C   0  0  0  0  0  0  0  0  0  0  0  0
   31.8206  -20.9568    7.1300 C   0  0  0  0  0  0  0  0  0  0  0  0
   32.6667  -23.0494   10.6525 C   0  0  0  0  0  0  0  0  0  0  0  0
   33.5566  -22.9331   11.5530 O   0  0  0  0  0  0  0  0  0  0  0  0
   32.6189  -24.2083    9.8256 N   0  0  0  0  0  0  0  0  0  0  0  0
   33.6142  -25.2343   10.0194 C   0  0  1  0  0  0  0  0  0  0  0  0
   33.1257  -26.4805    9.2517 C   0  0  0  0  0  0  0  0  0  0  0  0
   32.2000  -27.1967   10.1628 C   0  0  0  0  0  0  0  0  0  0  0  0
   32.0659  -26.8398   11.3722 O   0  0  0  0  0  0  0  0  0  0  0  0
   34.9437  -24.8303    9.5124 C   0  0  0  0  0  0  0  0  0  0  0  0
   35.0132  -24.3063    8.3750 O   0  0  0  0  0  0  0  0  0  0  0  0
   31.4758  -28.2766    9.6709 O   0  0  0  0  0  0  0  0  0  0  0  0
   38.1554  -21.7692   12.2193 C   0  0  0  0  0  0  0  0  0  0  0  0
   37.5265  -22.5931   11.1459 C   0  0  0  0  0  0  0  0  0  0  0  0
   38.2287  -23.9060   10.8883 C   0  0  2  0  0  0  0  0  0  0  0  0
   39.6258  -23.5768   10.4179 C   0  0  0  0  0  0  0  0  0  0  0  0
   37.4607  -24.6293    9.7779 C   0  0  2  0  0  0  0  0  0  0  0  0
   36.1386  -25.0040   10.2450 N   0  0  0  0  0  0  0  0  0  0  0  0
   38.1860  -25.8900    9.4862 C   0  0  0  0  0  0  0  0  0  0  0  0
   39.0180  -26.0368    8.3918 O   0  0  0  0  0  0  0  0  0  0  0  0
   38.0369  -26.8583   10.2626 O   0  0  0  0  0  0  0  0  0  0  0  0
  2  1  1  1
  2  3  1  0
  2 13  1  0
  3  4  1  0
  4  5  2  0
  5  6  1  0
  7  6  1  0
  8  7  2  0
  9  8  1  0
 10 11  1  0
 10  9  2  0
 11 12  2  0
 12  4  1  0
 12  7  1  0
 13 15  1  0
 13 14  2  0
 15 16  1  0
 16 17  1  6
 17 18  1  0
 18 19  2  0
 18 22  1  0
 20 21  2  0
 20 16  1  0
 23 24  1  0
 24 25  1  0
 25 27  1  0
 25 26  1  6
 27 28  1  1
 28 20  1  0
 29 30  1  0
 29 27  1  0
 31 29  2  0
M  END
$$$$
