WDI.pdb
     RDKit          3D

 31 32  0  0  1  0  0  0  0  0999 V2000
   27.6091  -19.1719  -10.0257 N   0  0  0  0  0  0  0  0  0  0  0  0
   27.1339  -20.5448  -10.1287 C   0  0  1  0  0  0  0  0  0  0  0  0
   26.3728  -20.8926   -8.8622 C   0  0  0  0  0  0  0  0  0  0  0  0
   26.9098  -20.2310   -7.6773 C   0  0  0  0  0  0  0  0  0  0  0  0
   26.3019  -19.1993   -6.9936 C   0  0  0  0  0  0  0  0  0  0  0  0
   27.0904  -18.8561   -5.9689 N   0  0  0  0  0  0  0  0  0  0  0  0
   28.2152  -19.6231   -5.9353 C   0  0  0  0  0  0  0  0  0  0  0  0
   29.3041  -19.6514   -5.0929 C   0  0  0  0  0  0  0  0  0  0  0  0
   30.3121  -20.5702   -5.3281 C   0  0  0  0  0  0  0  0  0  0  0  0
   30.1908  -21.4374   -6.4100 C   0  0  0  0  0  0  0  0  0  0  0  0
   29.1022  -21.4017   -7.2440 C   0  0  0  0  0  0  0  0  0  0  0  0
   28.0835  -20.4860   -7.0227 C   0  0  0  0  0  0  0  0  0  0  0  0
   26.1044  -20.5358  -11.2341 C   0  0  0  0  0  0  0  0  0  0  0  0
   25.3350  -19.5274  -11.3206 O   0  0  0  0  0  0  0  0  0  0  0  0
   25.9914  -21.6154  -12.1567 N   0  0  0  0  0  0  0  0  0  0  0  0
   25.1044  -21.4675  -13.2845 C   0  0  1  0  0  0  0  0  0  0  0  0
   25.6144  -22.4253  -14.3817 C   0  0  0  0  0  0  0  0  0  0  0  0
   26.8367  -21.8024  -14.9455 C   0  0  0  0  0  0  0  0  0  0  0  0
   26.7972  -20.6557  -15.4855 O   0  0  0  0  0  0  0  0  0  0  0  0
   23.7042  -21.8034  -12.9461 C   0  0  0  0  0  0  0  0  0  0  0  0
   23.4942  -22.7579  -12.1599 O   0  0  0  0  0  0  0  0  0  0  0  0
   28.0379  -22.4987  -14.8765 O   0  0  0  0  0  0  0  0  0  0  0  0
   20.3631  -17.7839  -11.9883 C   0  0  0  0  0  0  0  0  0  0  0  0
   21.0307  -19.1149  -12.0848 C   0  0  0  0  0  0  0  0  0  0  0  0
   20.4176  -20.0366  -13.1133 C   0  0  2  0  0  0  0  0  0  0  0  0
   18.9910  -20.2906  -12.6865 C   0  0  0  0  0  0  0  0  0  0  0  0
   21.2109  -21.3465  -13.0894 C   0  0  2  0  0  0  0  0  0  0  0  0
   22.5921  -21.1029  -13.4628 N   0  0  0  0  0  0  0  0  0  0  0  0
   20.6349  -22.2325  -14.1304 C   0  0  0  0  0  0  0  0  0  0  0  0
   19.7887  -23.2842  -13.8312 O   0  0  0  0  0  0  0  0  0  0  0  0
   20.9283  -22.0181  -15.3265 O   0  0  0  0  0  0  0  0  0  0  0  0
  2  1  1  1
  2  3  1  0
  2 13  1  0
  3  4  1  0
  4  5  2  0
  5  6  1  0
  7  6  1  0
  8  7  2  0
  9  8  1  0
 10 11  1  0
 10  9  2  0
 11 12  2  0
 12  4  1  0
 12  7  1  0
 13 15  1  0
 13 14  2  0
 15 16  1  0
 16 17  1  6
 17 18  1  0
 18 19  2  0
 18 22  1  0
 20 21  2  0
 20 16  1  0
 23 24  1  0
 24 25  1  0
 25 27  1  0
 25 26  1  1
 27 28  1  6
 28 20  1  0
 29 30  1  0
 29 27  1  0
 31 29  2  0
M  END
$$$$
