WDI.pdb
     RDKit          3D

 31 32  0  0  1  0  0  0  0  0999 V2000
   17.4299  -13.1545  -14.9659 N   0  0  0  0  0  0  0  0  0  0  0  0
   17.4423  -12.1892  -16.0564 C   0  0  1  0  0  0  0  0  0  0  0  0
   16.0087  -11.8670  -16.4374 C   0  0  0  0  0  0  0  0  0  0  0  0
   15.4481  -12.8167  -17.3934 C   0  0  0  0  0  0  0  0  0  0  0  0
   15.1771  -14.1440  -17.1359 C   0  0  0  0  0  0  0  0  0  0  0  0
   14.6741  -14.6906  -18.2484 N   0  0  0  0  0  0  0  0  0  0  0  0
   14.5948  -13.7754  -19.2538 C   0  0  0  0  0  0  0  0  0  0  0  0
   14.1569  -13.8520  -20.5570 C   0  0  0  0  0  0  0  0  0  0  0  0
   14.2053  -12.7186  -21.3501 C   0  0  0  0  0  0  0  0  0  0  0  0
   14.6952  -11.5366  -20.8024 C   0  0  0  0  0  0  0  0  0  0  0  0
   15.1296  -11.4699  -19.5028 C   0  0  0  0  0  0  0  0  0  0  0  0
   15.0886  -12.5972  -18.6949 C   0  0  0  0  0  0  0  0  0  0  0  0
   18.0034  -10.9172  -15.4657 C   0  0  0  0  0  0  0  0  0  0  0  0
   17.7002  -10.6368  -14.2634 O   0  0  0  0  0  0  0  0  0  0  0  0
   18.8476  -10.0533  -16.2211 N   0  0  0  0  0  0  0  0  0  0  0  0
   19.3182   -8.8376  -15.6037 C   0  0  1  0  0  0  0  0  0  0  0  0
   20.8505   -8.9666  -15.4751 C   0  0  0  0  0  0  0  0  0  0  0  0
   21.3171   -7.7391  -14.7855 C   0  0  0  0  0  0  0  0  0  0  0  0
   22.3393   -7.1084  -15.1924 O   0  0  0  0  0  0  0  0  0  0  0  0
   18.9880   -7.6373  -16.4027 C   0  0  0  0  0  0  0  0  0  0  0  0
   19.2481   -7.6487  -17.6295 O   0  0  0  0  0  0  0  0  0  0  0  0
   20.6149   -7.2849  -13.6750 O   0  0  0  0  0  0  0  0  0  0  0  0
   14.6465   -4.1358  -18.1001 C   0  0  0  0  0  0  0  0  0  0  0  0
   16.0419   -4.1267  -17.5716 C   0  0  0  0  0  0  0  0  0  0  0  0
   16.4613   -5.4249  -16.9220 C   0  0  2  0  0  0  0  0  0  0  0  0
   15.6833   -5.5474  -15.6331 C   0  0  0  0  0  0  0  0  0  0  0  0
   17.9597   -5.3262  -16.6202 C   0  0  2  0  0  0  0  0  0  0  0  0
   18.3937   -6.4797  -15.8537 N   0  0  0  0  0  0  0  0  0  0  0  0
   18.1603   -4.1369  -15.7564 C   0  0  0  0  0  0  0  0  0  0  0  0
   18.2939   -2.8583  -16.2653 O   0  0  0  0  0  0  0  0  0  0  0  0
   18.2109   -4.2998  -14.5180 O   0  0  0  0  0  0  0  0  0  0  0  0
  2  1  1  1
  2  3  1  0
  2 13  1  0
  3  4  1  0
  4  5  2  0
  5  6  1  0
  7  6  1  0
  8  7  2  0
  9  8  1  0
 10 11  1  0
 10  9  2  0
 11 12  2  0
 12  4  1  0
 12  7  1  0
 13 15  1  0
 13 14  2  0
 15 16  1  0
 16 17  1  6
 17 18  1  0
 18 19  2  0
 18 22  1  0
 20 21  2  0
 20 16  1  0
 23 24  1  0
 24 25  1  0
 25 27  1  0
 25 26  1  1
 27 28  1  1
 28 20  1  0
 29 30  1  0
 29 27  1  0
 31 29  2  0
M  END
$$$$
