WDI.pdb
     RDKit          3D

 31 32  0  0  1  0  0  0  0  0999 V2000
   27.5514  -18.5834   -9.5352 N   0  0  0  0  0  0  0  0  0  0  0  0
   27.1766  -19.9861   -9.4209 C   0  0  1  0  0  0  0  0  0  0  0  0
   26.4205  -20.1832   -8.1195 C   0  0  0  0  0  0  0  0  0  0  0  0
   27.1362  -19.6566   -6.9616 C   0  0  0  0  0  0  0  0  0  0  0  0
   27.3278  -18.3203   -6.6805 C   0  0  0  0  0  0  0  0  0  0  0  0
   28.0252  -18.2291   -5.5427 N   0  0  0  0  0  0  0  0  0  0  0  0
   28.3132  -19.4624   -5.0419 C   0  0  0  0  0  0  0  0  0  0  0  0
   28.9939  -19.8820   -3.9210 C   0  0  0  0  0  0  0  0  0  0  0  0
   29.1219  -21.2391   -3.6810 C   0  0  0  0  0  0  0  0  0  0  0  0
   28.5562  -22.1364   -4.5823 C   0  0  0  0  0  0  0  0  0  0  0  0
   27.8798  -21.7089   -5.6966 C   0  0  0  0  0  0  0  0  0  0  0  0
   27.7435  -20.3519   -5.9522 C   0  0  0  0  0  0  0  0  0  0  0  0
   26.1682  -20.2274  -10.5194 C   0  0  0  0  0  0  0  0  0  0  0  0
   25.1454  -19.4736  -10.5622 O   0  0  0  0  0  0  0  0  0  0  0  0
   26.3479  -21.2613  -11.4827 N   0  0  0  0  0  0  0  0  0  0  0  0
   25.3635  -21.4087  -12.5267 C   0  0  1  0  0  0  0  0  0  0  0  0
   25.8735  -22.5209  -13.4671 C   0  0  0  0  0  0  0  0  0  0  0  0
   25.0534  -22.4346  -14.7000 C   0  0  0  0  0  0  0  0  0  0  0  0
   24.1714  -21.5338  -14.8374 O   0  0  0  0  0  0  0  0  0  0  0  0
   24.0335  -21.7803  -11.9965 C   0  0  0  0  0  0  0  0  0  0  0  0
   23.9770  -22.6152  -11.0623 O   0  0  0  0  0  0  0  0  0  0  0  0
   25.2633  -23.3640  -15.7122 O   0  0  0  0  0  0  0  0  0  0  0  0
   18.4733  -19.4344  -10.9457 C   0  0  0  0  0  0  0  0  0  0  0  0
   19.3434  -20.6069  -11.2536 C   0  0  0  0  0  0  0  0  0  0  0  0
   20.6992  -20.2368  -11.8086 C   0  0  2  0  0  0  0  0  0  0  0  0
   20.4686  -19.6212  -13.1686 C   0  0  0  0  0  0  0  0  0  0  0  0
   21.5074  -21.5301  -11.9512 C   0  0  2  0  0  0  0  0  0  0  0  0
   22.8244  -21.2414  -12.4886 N   0  0  0  0  0  0  0  0  0  0  0  0
   20.8130  -22.3787  -12.9503 C   0  0  0  0  0  0  0  0  0  0  0  0
   19.8505  -23.3078  -12.6008 O   0  0  0  0  0  0  0  0  0  0  0  0
   21.1123  -22.2474  -14.1568 O   0  0  0  0  0  0  0  0  0  0  0  0
  2  1  1  1
  2  3  1  0
  2 13  1  0
  3  4  1  0
  4  5  2  0
  5  6  1  0
  7  6  1  0
  8  7  2  0
  9  8  1  0
 10 11  1  0
 10  9  2  0
 11 12  2  0
 12  4  1  0
 12  7  1  0
 13 15  1  0
 13 14  2  0
 15 16  1  0
 16 17  1  6
 17 18  1  0
 18 19  2  0
 18 22  1  0
 20 21  2  0
 20 16  1  0
 23 24  1  0
 24 25  1  0
 25 27  1  0
 25 26  1  6
 27 28  1  6
 28 20  1  0
 29 30  1  0
 29 27  1  0
 31 29  2  0
M  END
$$$$
