WDI.pdb
     RDKit          3D

 31 32  0  0  1  0  0  0  0  0999 V2000
   26.9300  -19.7638  -11.6752 N   0  0  0  0  0  0  0  0  0  0  0  0
   26.2810  -21.0634  -11.7794 C   0  0  1  0  0  0  0  0  0  0  0  0
   26.0662  -21.6136  -10.3811 C   0  0  0  0  0  0  0  0  0  0  0  0
   27.0643  -21.1426   -9.4261 C   0  0  0  0  0  0  0  0  0  0  0  0
   26.8181  -20.2988   -8.3636 C   0  0  0  0  0  0  0  0  0  0  0  0
   27.9717  -20.0929   -7.7183 N   0  0  0  0  0  0  0  0  0  0  0  0
   28.9940  -20.7711   -8.3096 C   0  0  0  0  0  0  0  0  0  0  0  0
   30.3371  -20.8749   -8.0243 C   0  0  0  0  0  0  0  0  0  0  0  0
   31.1375  -21.6613   -8.8347 C   0  0  0  0  0  0  0  0  0  0  0  0
   30.5567  -22.3231   -9.9126 C   0  0  0  0  0  0  0  0  0  0  0  0
   29.2175  -22.2135  -10.1891 C   0  0  0  0  0  0  0  0  0  0  0  0
   28.4015  -21.4284   -9.3872 C   0  0  0  0  0  0  0  0  0  0  0  0
   24.9001  -20.7847  -12.3249 C   0  0  0  0  0  0  0  0  0  0  0  0
   24.2591  -19.7987  -11.8422 O   0  0  0  0  0  0  0  0  0  0  0  0
   24.3256  -21.5922  -13.3483 N   0  0  0  0  0  0  0  0  0  0  0  0
   22.9966  -21.2755  -13.8108 C   0  0  1  0  0  0  0  0  0  0  0  0
   23.1117  -20.9604  -15.3171 C   0  0  0  0  0  0  0  0  0  0  0  0
   23.7507  -19.6257  -15.4174 C   0  0  0  0  0  0  0  0  0  0  0  0
   23.2355  -18.6100  -14.8595 O   0  0  0  0  0  0  0  0  0  0  0  0
   22.0503  -22.3945  -13.6102 C   0  0  0  0  0  0  0  0  0  0  0  0
   22.4473  -23.5601  -13.8487 O   0  0  0  0  0  0  0  0  0  0  0  0
   24.9317  -19.4995  -16.1398 O   0  0  0  0  0  0  0  0  0  0  0  0
   18.5424  -22.2878   -9.5037 C   0  0  0  0  0  0  0  0  0  0  0  0
   19.4311  -22.6961  -10.6307 C   0  0  0  0  0  0  0  0  0  0  0  0
   18.7091  -22.8867  -11.9443 C   0  0  2  0  0  0  0  0  0  0  0  0
   17.7224  -24.0135  -11.7485 C   0  0  0  0  0  0  0  0  0  0  0  0
   19.7543  -23.2839  -12.9911 C   0  0  2  0  0  0  0  0  0  0  0  0
   20.7226  -22.2165  -13.1627 N   0  0  0  0  0  0  0  0  0  0  0  0
   19.0482  -23.4351  -14.2870 C   0  0  0  0  0  0  0  0  0  0  0  0
   18.6764  -24.6658  -14.7957 O   0  0  0  0  0  0  0  0  0  0  0  0
   18.7800  -22.4064  -14.9447 O   0  0  0  0  0  0  0  0  0  0  0  0
  2  1  1  1
  2  3  1  0
  2 13  1  0
  3  4  1  0
  4  5  2  0
  5  6  1  0
  7  6  1  0
  8  7  2  0
  9  8  1  0
 10 11  1  0
 10  9  2  0
 11 12  2  0
 12  4  1  0
 12  7  1  0
 13 15  1  0
 13 14  2  0
 15 16  1  0
 16 17  1  6
 17 18  1  0
 18 19  2  0
 18 22  1  0
 20 21  2  0
 20 16  1  0
 23 24  1  0
 24 25  1  0
 25 27  1  0
 25 26  1  1
 27 28  1  6
 28 20  1  0
 29 30  1  0
 29 27  1  0
 31 29  2  0
M  END
$$$$
