WDI.pdb
     RDKit          3D

 31 32  0  0  1  0  0  0  0  0999 V2000
   28.0834  -20.1114   -9.9204 N   0  0  0  0  0  0  0  0  0  0  0  0
   27.0444  -21.1269   -9.8180 C   0  0  1  0  0  0  0  0  0  0  0  0
   26.1735  -20.8125   -8.6152 C   0  0  0  0  0  0  0  0  0  0  0  0
   26.8044  -19.8812   -7.6853 C   0  0  0  0  0  0  0  0  0  0  0  0
   26.7550  -18.5061   -7.7748 C   0  0  0  0  0  0  0  0  0  0  0  0
   27.4469  -17.9961   -6.7498 N   0  0  0  0  0  0  0  0  0  0  0  0
   27.9646  -18.9825   -5.9665 C   0  0  0  0  0  0  0  0  0  0  0  0
   28.7328  -18.9642   -4.8238 C   0  0  0  0  0  0  0  0  0  0  0  0
   29.1106  -20.1652   -4.2487 C   0  0  0  0  0  0  0  0  0  0  0  0
   28.6998  -21.3537   -4.8453 C   0  0  0  0  0  0  0  0  0  0  0  0
   27.9346  -21.3620   -5.9839 C   0  0  0  0  0  0  0  0  0  0  0  0
   27.5483  -20.1668   -6.5735 C   0  0  0  0  0  0  0  0  0  0  0  0
   26.1600  -20.9257  -11.0261 C   0  0  0  0  0  0  0  0  0  0  0  0
   25.8419  -19.7348  -11.3370 O   0  0  0  0  0  0  0  0  0  0  0  0
   25.6935  -22.0267  -11.8004 N   0  0  0  0  0  0  0  0  0  0  0  0
   24.8888  -21.7566  -12.9667 C   0  0  1  0  0  0  0  0  0  0  0  0
   25.2577  -22.8224  -14.0198 C   0  0  0  0  0  0  0  0  0  0  0  0
   26.3394  -22.2355  -14.8477 C   0  0  0  0  0  0  0  0  0  0  0  0
   26.1667  -21.1457  -15.4729 O   0  0  0  0  0  0  0  0  0  0  0  0
   23.4398  -21.8267  -12.6781 C   0  0  0  0  0  0  0  0  0  0  0  0
   23.0649  -22.4600  -11.6625 O   0  0  0  0  0  0  0  0  0  0  0  0
   27.5562  -22.9022  -14.9332 O   0  0  0  0  0  0  0  0  0  0  0  0
   19.7268  -17.4162  -11.8464 C   0  0  0  0  0  0  0  0  0  0  0  0
   19.8230  -18.8419  -12.2762 C   0  0  0  0  0  0  0  0  0  0  0  0
   21.2073  -19.2591  -12.7151 C   0  0  2  0  0  0  0  0  0  0  0  0
   21.5246  -18.4875  -13.9743 C   0  0  0  0  0  0  0  0  0  0  0  0
   21.1616  -20.7595  -13.0197 C   0  0  2  0  0  0  0  0  0  0  0  0
   22.4574  -21.2157  -13.4880 N   0  0  0  0  0  0  0  0  0  0  0  0
   20.2076  -20.9556  -14.1387 C   0  0  0  0  0  0  0  0  0  0  0  0
   20.6165  -21.2597  -15.4240 O   0  0  0  0  0  0  0  0  0  0  0  0
   18.9844  -20.8401  -13.9080 O   0  0  0  0  0  0  0  0  0  0  0  0
  2  1  1  6
  2  3  1  0
  2 13  1  0
  3  4  1  0
  4  5  2  0
  5  6  1  0
  7  6  1  0
  8  7  2  0
  9  8  1  0
 10 11  1  0
 10  9  2  0
 11 12  2  0
 12  4  1  0
 12  7  1  0
 13 15  1  0
 13 14  2  0
 15 16  1  0
 16 17  1  6
 17 18  1  0
 18 19  2  0
 18 22  1  0
 20 21  2  0
 20 16  1  0
 23 24  1  0
 24 25  1  0
 25 27  1  0
 25 26  1  6
 27 28  1  6
 28 20  1  0
 29 30  1  0
 29 27  1  0
 31 29  2  0
M  END
$$$$
