WDI.pdb
     RDKit          3D

 31 32  0  0  1  0  0  0  0  0999 V2000
   28.3958  -18.9189  -13.0744 N   0  0  0  0  0  0  0  0  0  0  0  0
   27.9717  -20.2921  -13.3107 C   0  0  1  0  0  0  0  0  0  0  0  0
   27.3650  -20.8408  -12.0321 C   0  0  0  0  0  0  0  0  0  0  0  0
   28.3463  -21.0105  -10.9652 C   0  0  0  0  0  0  0  0  0  0  0  0
   28.0909  -20.8799   -9.6164 C   0  0  0  0  0  0  0  0  0  0  0  0
   29.2297  -21.1069   -8.9523 N   0  0  0  0  0  0  0  0  0  0  0  0
   30.2509  -21.3879   -9.8084 C   0  0  0  0  0  0  0  0  0  0  0  0
   31.5816  -21.6831   -9.6133 C   0  0  0  0  0  0  0  0  0  0  0  0
   32.3847  -21.9256  -10.7142 C   0  0  0  0  0  0  0  0  0  0  0  0
   31.8190  -21.8639  -11.9844 C   0  0  0  0  0  0  0  0  0  0  0  0
   30.4920  -21.5689  -12.1689 C   0  0  0  0  0  0  0  0  0  0  0  0
   29.6736  -21.3221  -11.0759 C   0  0  0  0  0  0  0  0  0  0  0  0
   26.8312  -20.2003  -14.2971 C   0  0  0  0  0  0  0  0  0  0  0  0
   26.3291  -19.0537  -14.5190 O   0  0  0  0  0  0  0  0  0  0  0  0
   26.3279  -21.3539  -14.9644 N   0  0  0  0  0  0  0  0  0  0  0  0
   25.2239  -21.1937  -15.8788 C   0  0  1  0  0  0  0  0  0  0  0  0
   25.0535  -22.5403  -16.6129 C   0  0  0  0  0  0  0  0  0  0  0  0
   26.1260  -22.5975  -17.6359 C   0  0  0  0  0  0  0  0  0  0  0  0
   26.3763  -21.6001  -18.3778 O   0  0  0  0  0  0  0  0  0  0  0  0
   23.9650  -20.8459  -15.1844 C   0  0  0  0  0  0  0  0  0  0  0  0
   23.6050  -21.5542  -14.2140 O   0  0  0  0  0  0  0  0  0  0  0  0
   26.8591  -23.7704  -17.7750 O   0  0  0  0  0  0  0  0  0  0  0  0
   19.6952  -16.2622  -14.8816 C   0  0  0  0  0  0  0  0  0  0  0  0
   20.2117  -17.6338  -14.6014 C   0  0  0  0  0  0  0  0  0  0  0  0
   21.5012  -17.9627  -15.3172 C   0  0  2  0  0  0  0  0  0  0  0  0
   21.2055  -17.9356  -16.7982 C   0  0  0  0  0  0  0  0  0  0  0  0
   21.9164  -19.3748  -14.8933 C   0  0  2  0  0  0  0  0  0  0  0  0
   23.1487  -19.7558  -15.5586 N   0  0  0  0  0  0  0  0  0  0  0  0
   20.8656  -20.3073  -15.3696 C   0  0  0  0  0  0  0  0  0  0  0  0
   19.7986  -20.6957  -14.5808 O   0  0  0  0  0  0  0  0  0  0  0  0
   20.9506  -20.7598  -16.5317 O   0  0  0  0  0  0  0  0  0  0  0  0
  2  1  1  1
  2  3  1  0
  2 13  1  0
  3  4  1  0
  4  5  2  0
  5  6  1  0
  7  6  1  0
  8  7  2  0
  9  8  1  0
 10 11  1  0
 10  9  2  0
 11 12  2  0
 12  4  1  0
 12  7  1  0
 13 15  1  0
 13 14  2  0
 15 16  1  0
 16 17  1  1
 17 18  1  0
 18 19  2  0
 18 22  1  0
 20 21  2  0
 20 16  1  0
 23 24  1  0
 24 25  1  0
 25 27  1  0
 25 26  1  6
 27 28  1  6
 28 20  1  0
 29 30  1  0
 29 27  1  0
 31 29  2  0
M  END
$$$$
