DGV.pdb
     RDKit          3D

 20 19  0  0  1  0  0  0  0  0999 V2000
    5.5725  -18.1892   24.2457 N   0  0  0  0  0  0  0  0  0  0  0  0
    6.4363  -18.4518   23.1413 C   0  0  1  0  0  0  0  0  0  0  0  0
    5.7117  -19.0796   21.9680 C   0  0  0  0  0  0  0  0  0  0  0  0
    5.2615  -20.4516   22.2903 C   0  0  0  0  0  0  0  0  0  0  0  0
    6.1364  -21.3111   22.5613 O   0  0  0  0  0  0  0  0  0  0  0  0
    7.2398  -17.2774   22.7197 C   0  0  0  0  0  0  0  0  0  0  0  0
    8.4040  -17.4712   22.2889 O   0  0  0  0  0  0  0  0  0  0  0  0
    3.9284  -20.8168   22.3037 O   0  0  0  0  0  0  0  0  0  0  0  0
    6.7434  -15.9345   22.7835 N   0  0  0  0  0  0  0  0  0  0  0  0
    7.4754  -14.7755   22.4134 C   0  0  0  0  0  0  0  0  0  0  0  0
    7.9355  -13.9212   23.5257 C   0  0  0  0  0  0  0  0  0  0  0  0
    8.7275  -12.9359   23.3209 O   0  0  0  0  0  0  0  0  0  0  0  0
    5.7859  -13.1536   27.0335 C   0  0  0  0  0  0  0  0  0  0  0  0
    7.0654  -12.4883   26.5788 C   0  0  2  0  0  0  0  0  0  0  0  0
    6.6695  -11.4745   25.5246 C   0  0  0  0  0  0  0  0  0  0  0  0
    8.0476  -13.4346   25.9901 C   0  0  2  0  0  0  0  0  0  0  0  0
    7.5281  -14.1566   24.8418 N   0  0  0  0  0  0  0  0  0  0  0  0
    8.5156  -14.3692   27.0451 C   0  0  0  0  0  0  0  0  0  0  0  0
    8.3118  -15.7304   26.9000 O   0  0  0  0  0  0  0  0  0  0  0  0
    9.0969  -13.9769   28.0792 O   0  0  0  0  0  0  0  0  0  0  0  0
  2  1  1  1
  2  3  1  0
  3  4  1  0
  4  5  2  0
  6  9  1  0
  6  2  1  0
  7  6  2  0
  8  4  1  0
 10  9  1  0
 11 12  2  0
 11 10  1  0
 14 13  1  6
 15 14  1  0
 16 14  1  0
 16 17  1  6
 17 11  1  0
 18 16  1  0
 19 18  1  0
 20 18  2  0
M  END
$$$$
