DGV.pdb
     RDKit          3D

 20 19  0  0  1  0  0  0  0  0999 V2000
   10.7086  -19.0394   20.3383 N   0  0  0  0  0  0  0  0  0  0  0  0
   11.3761  -18.5455   21.4981 C   0  0  1  0  0  0  0  0  0  0  0  0
   12.2289  -17.3271   21.2082 C   0  0  0  0  0  0  0  0  0  0  0  0
   13.3275  -17.6543   20.2727 C   0  0  0  0  0  0  0  0  0  0  0  0
   13.4124  -16.9930   19.2083 O   0  0  0  0  0  0  0  0  0  0  0  0
   10.4736  -18.3157   22.6537 C   0  0  0  0  0  0  0  0  0  0  0  0
   10.0572  -19.3118   23.2963 O   0  0  0  0  0  0  0  0  0  0  0  0
   14.2525  -18.6498   20.5254 O   0  0  0  0  0  0  0  0  0  0  0  0
   10.0585  -17.0074   23.0656 N   0  0  0  0  0  0  0  0  0  0  0  0
    9.4214  -16.7036   24.2977 C   0  0  0  0  0  0  0  0  0  0  0  0
   10.3106  -16.2726   25.3942 C   0  0  0  0  0  0  0  0  0  0  0  0
   11.5828  -16.2547   25.2479 O   0  0  0  0  0  0  0  0  0  0  0  0
    8.7821  -14.1051   28.8987 C   0  0  0  0  0  0  0  0  0  0  0  0
   10.1252  -14.0220   28.2088 C   0  0  2  0  0  0  0  0  0  0  0  0
    9.9455  -13.0826   27.0336 C   0  0  0  0  0  0  0  0  0  0  0  0
   10.6142  -15.3317   27.7061 C   0  0  2  0  0  0  0  0  0  0  0  0
    9.7994  -15.8719   26.6319 N   0  0  0  0  0  0  0  0  0  0  0  0
   10.7066  -16.2849   28.8412 C   0  0  0  0  0  0  0  0  0  0  0  0
   11.6966  -16.1264   29.7954 O   0  0  0  0  0  0  0  0  0  0  0  0
    9.9167  -17.2432   28.9787 O   0  0  0  0  0  0  0  0  0  0  0  0
  2  1  1  6
  2  3  1  0
  3  4  1  0
  4  5  2  0
  6  9  1  0
  6  2  1  0
  7  6  2  0
  8  4  1  0
 10  9  1  0
 11 12  2  0
 11 10  1  0
 14 13  1  6
 15 14  1  0
 16 14  1  0
 16 17  1  6
 17 11  1  0
 18 16  1  0
 19 18  1  0
 20 18  2  0
M  END
$$$$
