DGV.pdb
     RDKit          3D

 20 19  0  0  1  0  0  0  0  0999 V2000
    9.0808  -18.3965   20.4165 N   0  0  0  0  0  0  0  0  0  0  0  0
    8.8484  -17.0947   19.8816 C   0  0  1  0  0  0  0  0  0  0  0  0
    8.0627  -17.1259   18.5864 C   0  0  0  0  0  0  0  0  0  0  0  0
    8.9583  -17.3063   17.4226 C   0  0  0  0  0  0  0  0  0  0  0  0
   10.1809  -17.4920   17.6424 O   0  0  0  0  0  0  0  0  0  0  0  0
    8.2538  -16.1464   20.8562 C   0  0  0  0  0  0  0  0  0  0  0  0
    8.4601  -14.9171   20.6986 O   0  0  0  0  0  0  0  0  0  0  0  0
    8.5029  -17.2779   16.1178 O   0  0  0  0  0  0  0  0  0  0  0  0
    7.4558  -16.5743   21.9669 N   0  0  0  0  0  0  0  0  0  0  0  0
    6.8009  -15.7089   22.8826 C   0  0  0  0  0  0  0  0  0  0  0  0
    7.6592  -15.0915   23.9126 C   0  0  0  0  0  0  0  0  0  0  0  0
    8.9068  -15.3703   23.9901 O   0  0  0  0  0  0  0  0  0  0  0  0
    5.9249  -12.6089   27.0280 C   0  0  0  0  0  0  0  0  0  0  0  0
    7.2881  -12.3267   26.4373 C   0  0  2  0  0  0  0  0  0  0  0  0
    7.0746  -11.3102   25.3341 C   0  0  0  0  0  0  0  0  0  0  0  0
    7.9442  -13.5290   25.8620 C   0  0  2  0  0  0  0  0  0  0  0  0
    7.1435  -14.1841   24.8424 N   0  0  0  0  0  0  0  0  0  0  0  0
    8.2883  -14.4680   26.9599 C   0  0  0  0  0  0  0  0  0  0  0  0
    9.2317  -14.1062   27.9058 O   0  0  0  0  0  0  0  0  0  0  0  0
    7.7556  -15.5925   27.0728 O   0  0  0  0  0  0  0  0  0  0  0  0
  2  1  1  1
  2  3  1  0
  3  4  1  0
  4  5  2  0
  6  9  1  0
  6  2  1  0
  7  6  2  0
  8  4  1  0
 10  9  1  0
 11 12  2  0
 11 10  1  0
 14 13  1  6
 15 14  1  0
 16 14  1  0
 16 17  1  6
 17 11  1  0
 18 16  1  0
 19 18  1  0
 20 18  2  0
M  END
$$$$
