DGV.pdb
     RDKit          3D

 20 19  0  0  1  0  0  0  0  0999 V2000
    8.2175  -14.7922   19.8656 N   0  0  0  0  0  0  0  0  0  0  0  0
    7.0822  -15.3645   20.5123 C   0  0  1  0  0  0  0  0  0  0  0  0
    6.4804  -16.5138   19.7296 C   0  0  0  0  0  0  0  0  0  0  0  0
    7.5339  -17.3980   19.1838 C   0  0  0  0  0  0  0  0  0  0  0  0
    8.4299  -17.8005   19.9666 O   0  0  0  0  0  0  0  0  0  0  0  0
    7.3271  -15.7389   21.9274 C   0  0  0  0  0  0  0  0  0  0  0  0
    6.3435  -16.0542   22.6428 O   0  0  0  0  0  0  0  0  0  0  0  0
    7.5666  -17.7919   17.8593 O   0  0  0  0  0  0  0  0  0  0  0  0
    8.6363  -15.7556   22.5100 N   0  0  0  0  0  0  0  0  0  0  0  0
    8.9556  -16.2945   23.7843 C   0  0  0  0  0  0  0  0  0  0  0  0
    9.2470  -15.3108   24.8455 C   0  0  0  0  0  0  0  0  0  0  0  0
   10.3840  -15.2884   25.4345 O   0  0  0  0  0  0  0  0  0  0  0  0
    6.0352  -13.1040   26.7768 C   0  0  0  0  0  0  0  0  0  0  0  0
    7.3802  -12.4703   26.5008 C   0  0  2  0  0  0  0  0  0  0  0  0
    7.2364  -11.7110   25.1975 C   0  0  0  0  0  0  0  0  0  0  0  0
    8.4820  -13.4572   26.3626 C   0  0  2  0  0  0  0  0  0  0  0  0
    8.2944  -14.3711   25.2493 N   0  0  0  0  0  0  0  0  0  0  0  0
    8.6383  -14.1946   27.6421 C   0  0  0  0  0  0  0  0  0  0  0  0
    9.1688  -13.5524   28.7475 O   0  0  0  0  0  0  0  0  0  0  0  0
    8.3067  -15.3924   27.7711 O   0  0  0  0  0  0  0  0  0  0  0  0
  2  1  1  6
  2  3  1  0
  3  4  1  0
  4  5  2  0
  6  9  1  0
  6  2  1  0
  7  6  2  0
  8  4  1  0
 10  9  1  0
 11 12  2  0
 11 10  1  0
 14 13  1  6
 15 14  1  0
 16 14  1  0
 16 17  1  6
 17 11  1  0
 18 16  1  0
 19 18  1  0
 20 18  2  0
M  END
$$$$
