DGV.pdb
     RDKit          3D

 20 19  0  0  1  0  0  0  0  0999 V2000
    9.7123  -17.2764   19.7418 N   0  0  0  0  0  0  0  0  0  0  0  0
    9.9417  -17.8610   21.0226 C   0  0  1  0  0  0  0  0  0  0  0  0
   11.4139  -17.9522   21.3691 C   0  0  0  0  0  0  0  0  0  0  0  0
   12.1882  -18.5484   20.2582 C   0  0  0  0  0  0  0  0  0  0  0  0
   12.1335  -19.7936   20.1029 O   0  0  0  0  0  0  0  0  0  0  0  0
    9.1634  -17.2274   22.1160 C   0  0  0  0  0  0  0  0  0  0  0  0
    9.2295  -17.7278   23.2665 O   0  0  0  0  0  0  0  0  0  0  0  0
   12.9603  -17.7931   19.3957 O   0  0  0  0  0  0  0  0  0  0  0  0
    8.3416  -16.0709   21.9137 N   0  0  0  0  0  0  0  0  0  0  0  0
    7.5091  -15.4789   22.8999 C   0  0  0  0  0  0  0  0  0  0  0  0
    8.2066  -14.8370   24.0315 C   0  0  0  0  0  0  0  0  0  0  0  0
    9.4827  -14.8765   24.1321 O   0  0  0  0  0  0  0  0  0  0  0  0
    5.9473  -12.5679   26.9744 C   0  0  0  0  0  0  0  0  0  0  0  0
    7.3628  -12.2442   26.5522 C   0  0  2  0  0  0  0  0  0  0  0  0
    7.2527  -11.2801   25.3885 C   0  0  0  0  0  0  0  0  0  0  0  0
    8.1376  -13.4350   26.1176 C   0  0  2  0  0  0  0  0  0  0  0  0
    7.5023  -14.1663   25.0354 N   0  0  0  0  0  0  0  0  0  0  0  0
    8.3785  -14.3135   27.2906 C   0  0  0  0  0  0  0  0  0  0  0  0
    9.1569  -13.8615   28.3419 O   0  0  0  0  0  0  0  0  0  0  0  0
    7.9019  -15.4654   27.3752 O   0  0  0  0  0  0  0  0  0  0  0  0
  2  1  1  6
  2  3  1  0
  3  4  1  0
  4  5  2  0
  6  9  1  0
  6  2  1  0
  7  6  2  0
  8  4  1  0
 10  9  1  0
 11 12  2  0
 11 10  1  0
 14 13  1  6
 15 14  1  0
 16 14  1  0
 16 17  1  6
 17 11  1  0
 18 16  1  0
 19 18  1  0
 20 18  2  0
M  END
$$$$
