DGV.pdb
     RDKit          3D

 20 19  0  0  1  0  0  0  0  0999 V2000
   10.3821  -17.0524   19.9811 N   0  0  0  0  0  0  0  0  0  0  0  0
   10.1610  -17.8706   21.1284 C   0  0  1  0  0  0  0  0  0  0  0  0
   11.4505  -18.3028   21.7964 C   0  0  0  0  0  0  0  0  0  0  0  0
   12.6179  -18.0349   20.9277 C   0  0  0  0  0  0  0  0  0  0  0  0
   13.3990  -18.9866   20.6794 O   0  0  0  0  0  0  0  0  0  0  0  0
    9.2117  -17.2833   22.1064 C   0  0  0  0  0  0  0  0  0  0  0  0
    8.9905  -17.9058   23.1752 O   0  0  0  0  0  0  0  0  0  0  0  0
   12.8764  -16.7896   20.3863 O   0  0  0  0  0  0  0  0  0  0  0  0
    8.5385  -16.0381   21.8824 N   0  0  0  0  0  0  0  0  0  0  0  0
    7.6320  -15.4262   22.7878 C   0  0  0  0  0  0  0  0  0  0  0  0
    8.2384  -14.7730   23.9645 C   0  0  0  0  0  0  0  0  0  0  0  0
    9.5046  -14.7943   24.1553 O   0  0  0  0  0  0  0  0  0  0  0  0
    5.7517  -12.4967   26.7082 C   0  0  0  0  0  0  0  0  0  0  0  0
    7.2005  -12.1835   26.4092 C   0  0  2  0  0  0  0  0  0  0  0  0
    7.1978  -11.2210   25.2389 C   0  0  0  0  0  0  0  0  0  0  0  0
    8.0016  -13.3804   26.0446 C   0  0  2  0  0  0  0  0  0  0  0  0
    7.4553  -14.1112   24.9145 N   0  0  0  0  0  0  0  0  0  0  0  0
    8.1369  -14.2567   27.2360 C   0  0  0  0  0  0  0  0  0  0  0  0
    8.8341  -13.8097   28.3449 O   0  0  0  0  0  0  0  0  0  0  0  0
    7.6409  -15.4025   27.2859 O   0  0  0  0  0  0  0  0  0  0  0  0
  2  1  1  6
  2  3  1  0
  3  4  1  0
  4  5  2  0
  6  9  1  0
  6  2  1  0
  7  6  2  0
  8  4  1  0
 10  9  1  0
 11 12  2  0
 11 10  1  0
 14 13  1  6
 15 14  1  0
 16 14  1  0
 16 17  1  6
 17 11  1  0
 18 16  1  0
 19 18  1  0
 20 18  2  0
M  END
$$$$
