DGV.pdb
     RDKit          3D

 20 19  0  0  1  0  0  0  0  0999 V2000
    9.8292  -18.8562   21.0026 N   0  0  0  0  0  0  0  0  0  0  0  0
   10.4129  -17.5708   20.7982 C   0  0  1  0  0  0  0  0  0  0  0  0
   10.6333  -17.2545   19.3329 C   0  0  0  0  0  0  0  0  0  0  0  0
   11.9561  -17.7345   18.8758 C   0  0  0  0  0  0  0  0  0  0  0  0
   12.4850  -17.1588   17.8928 O   0  0  0  0  0  0  0  0  0  0  0  0
    9.6943  -16.4720   21.4902 C   0  0  0  0  0  0  0  0  0  0  0  0
   10.2038  -15.3236   21.4813 O   0  0  0  0  0  0  0  0  0  0  0  0
   12.6224  -18.7814   19.4847 O   0  0  0  0  0  0  0  0  0  0  0  0
    8.4459  -16.6667   22.1665 N   0  0  0  0  0  0  0  0  0  0  0  0
    7.6575  -15.6331   22.7377 C   0  0  0  0  0  0  0  0  0  0  0  0
    8.1562  -15.0686   24.0071 C   0  0  0  0  0  0  0  0  0  0  0  0
    9.2633  -15.4611   24.5175 O   0  0  0  0  0  0  0  0  0  0  0  0
    5.6594  -12.6262   26.5803 C   0  0  0  0  0  0  0  0  0  0  0  0
    7.0962  -12.2540   26.2905 C   0  0  2  0  0  0  0  0  0  0  0  0
    7.0582  -11.2523   25.1543 C   0  0  0  0  0  0  0  0  0  0  0  0
    7.9364  -13.4097   25.8839 C   0  0  2  0  0  0  0  0  0  0  0  0
    7.4392  -14.0893   24.7004 N   0  0  0  0  0  0  0  0  0  0  0  0
    8.0612  -14.3474   27.0288 C   0  0  0  0  0  0  0  0  0  0  0  0
    8.7817  -13.9741   28.1500 O   0  0  0  0  0  0  0  0  0  0  0  0
    7.5357  -15.4810   27.0281 O   0  0  0  0  0  0  0  0  0  0  0  0
  2  1  1  6
  2  3  1  0
  3  4  1  0
  4  5  2  0
  6  9  1  0
  6  2  1  0
  7  6  2  0
  8  4  1  0
 10  9  1  0
 11 12  2  0
 11 10  1  0
 14 13  1  6
 15 14  1  0
 16 14  1  0
 16 17  1  6
 17 11  1  0
 18 16  1  0
 19 18  1  0
 20 18  2  0
M  END
$$$$
