DGV.pdb
     RDKit          3D

 20 19  0  0  1  0  0  0  0  0999 V2000
    9.5404  -17.6992   19.9037 N   0  0  0  0  0  0  0  0  0  0  0  0
    8.5534  -16.7583   19.4853 C   0  0  1  0  0  0  0  0  0  0  0  0
    7.7006  -17.2733   18.3437 C   0  0  0  0  0  0  0  0  0  0  0  0
    8.5333  -17.6316   17.1743 C   0  0  0  0  0  0  0  0  0  0  0  0
    9.7756  -17.4696   17.2630 O   0  0  0  0  0  0  0  0  0  0  0  0
    7.7186  -16.2354   20.5954 C   0  0  0  0  0  0  0  0  0  0  0  0
    6.8798  -15.3350   20.3419 O   0  0  0  0  0  0  0  0  0  0  0  0
    7.9990  -18.1321   16.0019 O   0  0  0  0  0  0  0  0  0  0  0  0
    7.8298  -16.7143   21.9415 N   0  0  0  0  0  0  0  0  0  0  0  0
    7.0812  -16.2272   23.0454 C   0  0  0  0  0  0  0  0  0  0  0  0
    7.7576  -15.2236   23.8904 C   0  0  0  0  0  0  0  0  0  0  0  0
    9.0215  -15.0333   23.8106 O   0  0  0  0  0  0  0  0  0  0  0  0
    7.2735  -11.1549   26.7054 C   0  0  0  0  0  0  0  0  0  0  0  0
    6.6641  -12.2930   25.9180 C   0  0  2  0  0  0  0  0  0  0  0  0
    5.5709  -12.8789   26.7885 C   0  0  0  0  0  0  0  0  0  0  0  0
    7.6351  -13.3653   25.5799 C   0  0  2  0  0  0  0  0  0  0  0  0
    7.0466  -14.4472   24.8100 N   0  0  0  0  0  0  0  0  0  0  0  0
    8.2555  -13.8720   26.8305 C   0  0  0  0  0  0  0  0  0  0  0  0
    8.0888  -15.1967   27.1950 O   0  0  0  0  0  0  0  0  0  0  0  0
    8.9352  -13.1441   27.5851 O   0  0  0  0  0  0  0  0  0  0  0  0
  2  1  1  1
  2  3  1  0
  3  4  1  0
  4  5  2  0
  6  9  1  0
  6  2  1  0
  7  6  2  0
  8  4  1  0
 10  9  1  0
 11 12  2  0
 11 10  1  0
 14 13  1  1
 15 14  1  0
 16 14  1  0
 16 17  1  1
 17 11  1  0
 18 16  1  0
 19 18  1  0
 20 18  2  0
M  END
$$$$
