DGV.pdb
     RDKit          3D

 20 19  0  0  1  0  0  0  0  0999 V2000
   10.2515  -16.8867   19.9537 N   0  0  0  0  0  0  0  0  0  0  0  0
   10.3648  -17.6256   21.1686 C   0  0  1  0  0  0  0  0  0  0  0  0
   11.7977  -17.7541   21.6439 C   0  0  0  0  0  0  0  0  0  0  0  0
   12.6757  -18.2565   20.5642 C   0  0  0  0  0  0  0  0  0  0  0  0
   12.1721  -18.4286   19.4265 O   0  0  0  0  0  0  0  0  0  0  0  0
    9.4743  -17.1361   22.2502 C   0  0  0  0  0  0  0  0  0  0  0  0
    9.6254  -17.6012   23.4075 O   0  0  0  0  0  0  0  0  0  0  0  0
   14.0143  -18.5398   20.7606 O   0  0  0  0  0  0  0  0  0  0  0  0
    8.4515  -16.1568   22.0293 N   0  0  0  0  0  0  0  0  0  0  0  0
    7.5643  -15.6653   23.0229 C   0  0  0  0  0  0  0  0  0  0  0  0
    8.1771  -14.8431   24.0846 C   0  0  0  0  0  0  0  0  0  0  0  0
    9.4417  -14.6448   24.1228 O   0  0  0  0  0  0  0  0  0  0  0  0
    5.6106  -12.4490   26.5740 C   0  0  0  0  0  0  0  0  0  0  0  0
    7.0300  -12.0951   26.1906 C   0  0  2  0  0  0  0  0  0  0  0  0
    6.9467  -11.3694   24.8631 C   0  0  0  0  0  0  0  0  0  0  0  0
    7.9138  -13.2792   26.0359 C   0  0  2  0  0  0  0  0  0  0  0  0
    7.4026  -14.2539   25.0881 N   0  0  0  0  0  0  0  0  0  0  0  0
    8.1413  -13.8941   27.3685 C   0  0  0  0  0  0  0  0  0  0  0  0
    8.7937  -13.1770   28.3562 O   0  0  0  0  0  0  0  0  0  0  0  0
    7.7637  -15.0524   27.6462 O   0  0  0  0  0  0  0  0  0  0  0  0
  2  1  1  6
  2  3  1  0
  3  4  1  0
  4  5  2  0
  6  9  1  0
  6  2  1  0
  7  6  2  0
  8  4  1  0
 10  9  1  0
 11 12  2  0
 11 10  1  0
 14 13  1  6
 15 14  1  0
 16 14  1  0
 16 17  1  6
 17 11  1  0
 18 16  1  0
 19 18  1  0
 20 18  2  0
M  END
$$$$
