DGV.pdb
     RDKit          3D

 20 19  0  0  1  0  0  0  0  0999 V2000
    9.9081  -19.2233   20.3389 N   0  0  0  0  0  0  0  0  0  0  0  0
   10.1523  -17.9562   20.9467 C   0  0  1  0  0  0  0  0  0  0  0  0
   10.7076  -16.9372   19.9725 C   0  0  0  0  0  0  0  0  0  0  0  0
   12.0454  -17.3386   19.4843 C   0  0  0  0  0  0  0  0  0  0  0  0
   12.9878  -17.3801   20.3136 O   0  0  0  0  0  0  0  0  0  0  0  0
    8.9879  -17.4177   21.6928 C   0  0  0  0  0  0  0  0  0  0  0  0
    8.2662  -18.2192   22.3373 O   0  0  0  0  0  0  0  0  0  0  0  0
   12.2920  -17.6654   18.1642 O   0  0  0  0  0  0  0  0  0  0  0  0
    8.6536  -16.0242   21.7083 N   0  0  0  0  0  0  0  0  0  0  0  0
    7.6551  -15.4337   22.5271 C   0  0  0  0  0  0  0  0  0  0  0  0
    8.1456  -14.6443   23.6739 C   0  0  0  0  0  0  0  0  0  0  0  0
    9.3922  -14.6011   23.9642 O   0  0  0  0  0  0  0  0  0  0  0  0
    7.1679  -11.1329   27.0748 C   0  0  0  0  0  0  0  0  0  0  0  0
    6.6830  -12.0817   26.0017 C   0  0  2  0  0  0  0  0  0  0  0  0
    5.4839  -12.8052   26.5800 C   0  0  0  0  0  0  0  0  0  0  0  0
    7.7000  -13.0857   25.5961 C   0  0  2  0  0  0  0  0  0  0  0  0
    7.2700  -13.9186   24.4865 N   0  0  0  0  0  0  0  0  0  0  0  0
    8.0673  -13.9102   26.7754 C   0  0  0  0  0  0  0  0  0  0  0  0
    8.8707  -13.3751   27.7672 O   0  0  0  0  0  0  0  0  0  0  0  0
    7.6774  -15.0887   26.9179 O   0  0  0  0  0  0  0  0  0  0  0  0
  2  1  1  6
  2  3  1  0
  3  4  1  0
  4  5  2  0
  6  9  1  0
  6  2  1  0
  7  6  2  0
  8  4  1  0
 10  9  1  0
 11 12  2  0
 11 10  1  0
 14 13  1  1
 15 14  1  0
 16 14  1  0
 16 17  1  6
 17 11  1  0
 18 16  1  0
 19 18  1  0
 20 18  2  0
M  END
$$$$
