DGV.pdb
     RDKit          3D

 20 19  0  0  1  0  0  0  0  0999 V2000
    9.5220  -18.8167   26.0200 N   0  0  0  0  0  0  0  0  0  0  0  0
    8.3375  -19.3869   25.4663 C   0  0  1  0  0  0  0  0  0  0  0  0
    7.2494  -19.5946   26.5001 C   0  0  0  0  0  0  0  0  0  0  0  0
    7.8018  -20.1604   27.7508 C   0  0  0  0  0  0  0  0  0  0  0  0
    9.0211  -20.4606   27.7741 O   0  0  0  0  0  0  0  0  0  0  0  0
    7.8263  -18.6626   24.2761 C   0  0  0  0  0  0  0  0  0  0  0  0
    7.7679  -19.2754   23.1808 O   0  0  0  0  0  0  0  0  0  0  0  0
    7.0329  -20.3677   28.8805 O   0  0  0  0  0  0  0  0  0  0  0  0
    7.3975  -17.2960   24.3247 N   0  0  0  0  0  0  0  0  0  0  0  0
    6.9778  -16.5321   23.2038 C   0  0  0  0  0  0  0  0  0  0  0  0
    6.5764  -15.1400   23.4862 C   0  0  0  0  0  0  0  0  0  0  0  0
    6.2256  -14.3471   22.5437 O   0  0  0  0  0  0  0  0  0  0  0  0
    7.5480  -11.3039   26.3468 C   0  0  0  0  0  0  0  0  0  0  0  0
    6.6631  -12.4136   25.8250 C   0  0  2  0  0  0  0  0  0  0  0  0
    5.8626  -12.9155   27.0096 C   0  0  0  0  0  0  0  0  0  0  0  0
    7.4212  -13.5502   25.2416 C   0  0  2  0  0  0  0  0  0  0  0  0
    6.5672  -14.6346   24.7893 N   0  0  0  0  0  0  0  0  0  0  0  0
    8.4186  -14.0295   26.2320 C   0  0  0  0  0  0  0  0  0  0  0  0
    9.5212  -13.2489   26.5329 O   0  0  0  0  0  0  0  0  0  0  0  0
    8.3074  -15.1269   26.8189 O   0  0  0  0  0  0  0  0  0  0  0  0
  2  1  1  1
  2  3  1  0
  3  4  1  0
  4  5  2  0
  6  9  1  0
  6  2  1  0
  7  6  2  0
  8  4  1  0
 10  9  1  0
 11 12  2  0
 11 10  1  0
 14 13  1  1
 15 14  1  0
 16 14  1  0
 16 17  1  1
 17 11  1  0
 18 16  1  0
 19 18  1  0
 20 18  2  0
M  END
$$$$
