DGV.pdb
     RDKit          3D

 20 19  0  0  1  0  0  0  0  0999 V2000
    9.5694  -16.6516   19.5017 N   0  0  0  0  0  0  0  0  0  0  0  0
    9.1960  -17.7100   20.3821 C   0  0  1  0  0  0  0  0  0  0  0  0
   10.3852  -18.5118   20.8706 C   0  0  0  0  0  0  0  0  0  0  0  0
   11.5068  -18.4444   19.9080 C   0  0  0  0  0  0  0  0  0  0  0  0
   12.2921  -17.4672   19.9849 O   0  0  0  0  0  0  0  0  0  0  0  0
    8.3342  -17.2733   21.5087 C   0  0  0  0  0  0  0  0  0  0  0  0
    7.8272  -18.1512   22.2508 O   0  0  0  0  0  0  0  0  0  0  0  0
   11.7185  -19.4069   18.9388 O   0  0  0  0  0  0  0  0  0  0  0  0
    8.0572  -15.8944   21.7842 N   0  0  0  0  0  0  0  0  0  0  0  0
    7.2698  -15.4208   22.8667 C   0  0  0  0  0  0  0  0  0  0  0  0
    7.9990  -14.6957   23.9255 C   0  0  0  0  0  0  0  0  0  0  0  0
    9.2640  -14.5100   23.8513 O   0  0  0  0  0  0  0  0  0  0  0  0
    5.8041  -12.5785   27.0202 C   0  0  0  0  0  0  0  0  0  0  0  0
    7.1626  -12.2007   26.4741 C   0  0  2  0  0  0  0  0  0  0  0  0
    6.9091  -11.3287   25.2611 C   0  0  0  0  0  0  0  0  0  0  0  0
    7.9809  -13.3702   26.0622 C   0  0  2  0  0  0  0  0  0  0  0  0
    7.3388  -14.1883   25.0482 N   0  0  0  0  0  0  0  0  0  0  0  0
    8.3213  -14.1736   27.2640 C   0  0  0  0  0  0  0  0  0  0  0  0
    9.1474  -13.6406   28.2381 O   0  0  0  0  0  0  0  0  0  0  0  0
    7.8882  -15.3321   27.4413 O   0  0  0  0  0  0  0  0  0  0  0  0
  2  1  1  1
  2  3  1  0
  3  4  1  0
  4  5  2  0
  6  9  1  0
  6  2  1  0
  7  6  2  0
  8  4  1  0
 10  9  1  0
 11 12  2  0
 11 10  1  0
 14 13  1  6
 15 14  1  0
 16 14  1  0
 16 17  1  6
 17 11  1  0
 18 16  1  0
 19 18  1  0
 20 18  2  0
M  END
$$$$
