DGV.pdb
     RDKit          3D

 20 19  0  0  1  0  0  0  0  0999 V2000
    9.3578  -17.9665   20.2891 N   0  0  0  0  0  0  0  0  0  0  0  0
    8.4981  -16.9292   19.8205 C   0  0  1  0  0  0  0  0  0  0  0  0
    7.5422  -17.4027   18.7444 C   0  0  0  0  0  0  0  0  0  0  0  0
    8.0259  -18.6494   18.1112 C   0  0  0  0  0  0  0  0  0  0  0  0
    9.2191  -18.6882   17.7210 O   0  0  0  0  0  0  0  0  0  0  0  0
    7.7841  -16.2103   20.9049 C   0  0  0  0  0  0  0  0  0  0  0  0
    7.0889  -15.2082   20.6031 O   0  0  0  0  0  0  0  0  0  0  0  0
    7.2210  -19.7593   17.9357 O   0  0  0  0  0  0  0  0  0  0  0  0
    7.8547  -16.6113   22.2789 N   0  0  0  0  0  0  0  0  0  0  0  0
    7.1029  -16.0354   23.3367 C   0  0  0  0  0  0  0  0  0  0  0  0
    7.8462  -15.1357   24.2405 C   0  0  0  0  0  0  0  0  0  0  0  0
    9.1050  -14.9470   24.0999 O   0  0  0  0  0  0  0  0  0  0  0  0
    5.7158  -12.7735   27.2237 C   0  0  0  0  0  0  0  0  0  0  0  0
    6.9698  -12.3418   26.4970 C   0  0  2  0  0  0  0  0  0  0  0  0
    6.5128  -11.6441   25.2320 C   0  0  0  0  0  0  0  0  0  0  0  0
    7.8585  -13.4733   26.1270 C   0  0  2  0  0  0  0  0  0  0  0  0
    7.2066  -14.4598   25.2836 N   0  0  0  0  0  0  0  0  0  0  0  0
    8.3952  -14.0953   27.3642 C   0  0  0  0  0  0  0  0  0  0  0  0
    9.2676  -13.3848   28.1703 O   0  0  0  0  0  0  0  0  0  0  0  0
    8.0902  -15.2537   27.7196 O   0  0  0  0  0  0  0  0  0  0  0  0
  2  1  1  1
  2  3  1  0
  3  4  1  0
  4  5  2  0
  6  9  1  0
  6  2  1  0
  7  6  2  0
  8  4  1  0
 10  9  1  0
 11 12  2  0
 11 10  1  0
 14 13  1  6
 15 14  1  0
 16 14  1  0
 16 17  1  1
 17 11  1  0
 18 16  1  0
 19 18  1  0
 20 18  2  0
M  END
$$$$
