DGV.pdb
     RDKit          3D

 20 19  0  0  1  0  0  0  0  0999 V2000
    9.8352  -19.1238   21.4624 N   0  0  0  0  0  0  0  0  0  0  0  0
   10.3295  -17.8009   21.2612 C   0  0  1  0  0  0  0  0  0  0  0  0
   10.5063  -17.4588   19.7958 C   0  0  0  0  0  0  0  0  0  0  0  0
   11.8389  -17.8765   19.3067 C   0  0  0  0  0  0  0  0  0  0  0  0
   12.3439  -18.9201   19.7897 O   0  0  0  0  0  0  0  0  0  0  0  0
    9.5503  -16.7578   21.9735 C   0  0  0  0  0  0  0  0  0  0  0  0
    9.9426  -15.5661   21.9063 O   0  0  0  0  0  0  0  0  0  0  0  0
   12.5392  -17.1675   18.3489 O   0  0  0  0  0  0  0  0  0  0  0  0
    8.3715  -17.0533   22.7329 N   0  0  0  0  0  0  0  0  0  0  0  0
    7.5073  -16.0847   23.3083 C   0  0  0  0  0  0  0  0  0  0  0  0
    8.1100  -15.2119   24.3349 C   0  0  0  0  0  0  0  0  0  0  0  0
    9.3530  -15.2973   24.6310 O   0  0  0  0  0  0  0  0  0  0  0  0
    5.6304  -12.4731   26.6057 C   0  0  0  0  0  0  0  0  0  0  0  0
    7.0367  -12.1210   26.1753 C   0  0  2  0  0  0  0  0  0  0  0  0
    6.9082  -11.3689   24.8663 C   0  0  0  0  0  0  0  0  0  0  0  0
    7.9054  -13.3075   25.9641 C   0  0  2  0  0  0  0  0  0  0  0  0
    7.3480  -14.2637   25.0235 N   0  0  0  0  0  0  0  0  0  0  0  0
    8.1855  -13.9454   27.2757 C   0  0  0  0  0  0  0  0  0  0  0  0
    7.7992  -15.2551   27.5017 O   0  0  0  0  0  0  0  0  0  0  0  0
    8.7654  -13.3434   28.2043 O   0  0  0  0  0  0  0  0  0  0  0  0
  2  1  1  6
  2  3  1  0
  3  4  1  0
  4  5  2  0
  6  9  1  0
  6  2  1  0
  7  6  2  0
  8  4  1  0
 10  9  1  0
 11 12  2  0
 11 10  1  0
 14 13  1  6
 15 14  1  0
 16 14  1  0
 16 17  1  6
 17 11  1  0
 18 16  1  0
 19 18  1  0
 20 18  2  0
M  END
$$$$
