DGV.pdb
     RDKit          3D

 20 19  0  0  1  0  0  0  0  0999 V2000
    8.7114  -18.4418   22.5076 N   0  0  0  0  0  0  0  0  0  0  0  0
    9.6214  -17.4135   22.1213 C   0  0  1  0  0  0  0  0  0  0  0  0
   10.2623  -17.6752   20.7735 C   0  0  0  0  0  0  0  0  0  0  0  0
   11.1871  -18.8285   20.8366 C   0  0  0  0  0  0  0  0  0  0  0  0
   11.8363  -19.0065   21.8970 O   0  0  0  0  0  0  0  0  0  0  0  0
    9.0448  -16.0479   22.1938 C   0  0  0  0  0  0  0  0  0  0  0  0
    9.7944  -15.0675   21.9584 O   0  0  0  0  0  0  0  0  0  0  0  0
   11.3599  -19.7062   19.7830 O   0  0  0  0  0  0  0  0  0  0  0  0
    7.6712  -15.8022   22.5205 N   0  0  0  0  0  0  0  0  0  0  0  0
    7.0367  -14.5327   22.4775 C   0  0  0  0  0  0  0  0  0  0  0  0
    7.4197  -13.5843   23.5418 C   0  0  0  0  0  0  0  0  0  0  0  0
    7.5214  -12.3296   23.3065 O   0  0  0  0  0  0  0  0  0  0  0  0
    5.8813  -12.6972   26.8551 C   0  0  0  0  0  0  0  0  0  0  0  0
    7.1615  -12.1165   26.2979 C   0  0  2  0  0  0  0  0  0  0  0  0
    6.7713  -11.3198   25.0695 C   0  0  0  0  0  0  0  0  0  0  0  0
    8.1571  -13.1470   25.9056 C   0  0  2  0  0  0  0  0  0  0  0  0
    7.6885  -14.0190   24.8428 N   0  0  0  0  0  0  0  0  0  0  0  0
    8.5490  -13.9273   27.1069 C   0  0  0  0  0  0  0  0  0  0  0  0
    8.3517  -15.2970   27.1336 O   0  0  0  0  0  0  0  0  0  0  0  0
    9.0590  -13.3951   28.1158 O   0  0  0  0  0  0  0  0  0  0  0  0
  2  1  1  6
  2  3  1  0
  3  4  1  0
  4  5  2  0
  6  9  1  0
  6  2  1  0
  7  6  2  0
  8  4  1  0
 10  9  1  0
 11 12  2  0
 11 10  1  0
 14 13  1  6
 15 14  1  0
 16 14  1  0
 16 17  1  6
 17 11  1  0
 18 16  1  0
 19 18  1  0
 20 18  2  0
M  END
$$$$
