DGV.pdb
     RDKit          3D

 20 19  0  0  1  0  0  0  0  0999 V2000
   10.8402  -16.9056   20.4984 N   0  0  0  0  0  0  0  0  0  0  0  0
    9.4962  -17.3372   20.7031 C   0  0  1  0  0  0  0  0  0  0  0  0
    9.2650  -18.7651   20.2523 C   0  0  0  0  0  0  0  0  0  0  0  0
   10.0207  -19.0640   19.0158 C   0  0  0  0  0  0  0  0  0  0  0  0
   10.0913  -18.1694   18.1371 O   0  0  0  0  0  0  0  0  0  0  0  0
    9.0020  -17.1158   22.0849 C   0  0  0  0  0  0  0  0  0  0  0  0
    8.3652  -18.0404   22.6490 O   0  0  0  0  0  0  0  0  0  0  0  0
   10.6440  -20.2779   18.7961 O   0  0  0  0  0  0  0  0  0  0  0  0
    9.2210  -15.8937   22.8006 N   0  0  0  0  0  0  0  0  0  0  0  0
    8.8060  -15.6441   24.1353 C   0  0  0  0  0  0  0  0  0  0  0  0
    9.8507  -15.7730   25.1701 C   0  0  0  0  0  0  0  0  0  0  0  0
   11.0589  -16.0628   24.8597 O   0  0  0  0  0  0  0  0  0  0  0  0
    9.1300  -14.4390   29.2684 C   0  0  0  0  0  0  0  0  0  0  0  0
   10.4431  -14.4648   28.5188 C   0  0  2  0  0  0  0  0  0  0  0  0
   10.5133  -13.1709   27.7335 C   0  0  0  0  0  0  0  0  0  0  0  0
   10.5637  -15.6061   27.5756 C   0  0  2  0  0  0  0  0  0  0  0  0
    9.5610  -15.5875   26.5249 N   0  0  0  0  0  0  0  0  0  0  0  0
   10.5153  -16.8776   28.3414 C   0  0  0  0  0  0  0  0  0  0  0  0
   11.5668  -17.2218   29.1730 O   0  0  0  0  0  0  0  0  0  0  0  0
    9.5503  -17.6681   28.2693 O   0  0  0  0  0  0  0  0  0  0  0  0
  2  1  1  1
  2  3  1  0
  3  4  1  0
  4  5  2  0
  6  9  1  0
  6  2  1  0
  7  6  2  0
  8  4  1  0
 10  9  1  0
 11 12  2  0
 11 10  1  0
 14 13  1  6
 15 14  1  0
 16 14  1  0
 16 17  1  6
 17 11  1  0
 18 16  1  0
 19 18  1  0
 20 18  2  0
M  END
$$$$
