KQN.pdb
     RDKit          3D

 27 26  0  0  1  0  0  0  0  0999 V2000
   10.9999  -20.0399   18.2892 N   0  0  0  0  0  0  0  0  0  0  0  0
   11.7416  -19.0238   17.4544 C   0  0  1  0  0  0  0  0  0  0  0  0
   11.1470  -19.0877   16.1136 C   0  0  0  0  0  0  0  0  0  0  0  0
   10.0332  -18.2622   15.6801 C   0  0  0  0  0  0  0  0  0  0  0  0
    9.9641  -17.3655   14.5513 C   0  0  0  0  0  0  0  0  0  0  0  0
    9.9834  -17.7987   13.1386 C   0  0  0  0  0  0  0  0  0  0  0  0
    9.8415  -16.7748   12.1577 N   0  0  0  0  0  0  0  0  0  0  0  0
   11.6504  -17.7143   18.1284 C   0  0  0  0  0  0  0  0  0  0  0  0
   12.6123  -16.9030   18.1323 O   0  0  0  0  0  0  0  0  0  0  0  0
    6.7190  -12.5408   19.7535 N   0  0  0  0  0  0  0  0  0  0  0  0
    7.5025  -13.4047   18.9220 C   0  0  0  0  0  0  0  0  0  0  0  0
    7.1140  -13.7021   17.7729 O   0  0  0  0  0  0  0  0  0  0  0  0
    8.7781  -13.9473   19.4204 C   0  0  0  0  0  0  0  0  0  0  0  0
    9.0051  -15.3501   18.9736 C   0  0  0  0  0  0  0  0  0  0  0  0
   10.3283  -15.9441   19.3733 C   0  0  2  0  0  0  0  0  0  0  0  0
   10.4763  -17.2769   18.8180 N   0  0  0  0  0  0  0  0  0  0  0  0
   10.5339  -15.9256   20.8433 C   0  0  0  0  0  0  0  0  0  0  0  0
   10.5172  -14.8139   21.4150 O   0  0  0  0  0  0  0  0  0  0  0  0
    8.6268  -19.7455   22.5623 N   0  0  0  0  0  0  0  0  0  0  0  0
    8.8965  -18.5657   23.3041 C   0  0  0  0  0  0  0  0  0  0  0  0
    7.9363  -17.7993   23.5565 O   0  0  0  0  0  0  0  0  0  0  0  0
   10.2774  -18.3072   23.7336 C   0  0  0  0  0  0  0  0  0  0  0  0
   10.9592  -17.2148   23.0099 C   0  0  2  0  0  0  0  0  0  0  0  0
   10.7448  -17.0819   21.6232 N   0  0  0  0  0  0  0  0  0  0  0  0
   12.4000  -17.1957   23.4543 C   0  0  0  0  0  0  0  0  0  0  0  0
   13.0857  -18.2106   23.2519 O   0  0  0  0  0  0  0  0  0  0  0  0
   12.9369  -16.0734   24.0707 O   0  0  0  0  0  0  0  0  0  0  0  0
  2  1  1  1
  3  2  1  0
  4  3  1  0
  5  4  1  0
  6  5  1  0
  7  6  1  0
  8  2  1  0
  8  9  2  0
 10 11  1  0
 11 12  2  0
 13 11  1  0
 13 14  1  0
 15 14  1  1
 15 16  1  0
 16  8  1  0
 17 15  1  0
 18 17  2  0
 20 22  1  0
 20 19  1  0
 21 20  2  0
 23 22  1  6
 23 25  1  0
 23 24  1  0
 24 17  1  0
 25 27  1  0
 26 25  2  0
M  END
$$$$
