KQN.pdb
     RDKit          3D

 27 26  0  0  1  0  0  0  0  0999 V2000
    8.7507  -13.3237   17.2817 N   0  0  0  0  0  0  0  0  0  0  0  0
    8.3653  -14.7618   17.5318 C   0  0  1  0  0  0  0  0  0  0  0  0
    7.9719  -15.3098   16.2279 C   0  0  0  0  0  0  0  0  0  0  0  0
    8.0212  -14.5600   14.9847 C   0  0  0  0  0  0  0  0  0  0  0  0
    7.5150  -14.9364   13.6867 C   0  0  0  0  0  0  0  0  0  0  0  0
    7.6117  -14.0939   12.4764 C   0  0  0  0  0  0  0  0  0  0  0  0
    7.0305  -14.6210   11.2869 N   0  0  0  0  0  0  0  0  0  0  0  0
    9.4999  -15.4384   18.1895 C   0  0  0  0  0  0  0  0  0  0  0  0
    9.4329  -16.6409   18.5540 O   0  0  0  0  0  0  0  0  0  0  0  0
   15.7397  -14.6801   17.3985 N   0  0  0  0  0  0  0  0  0  0  0  0
   15.2550  -13.7599   18.3833 C   0  0  0  0  0  0  0  0  0  0  0  0
   15.9797  -12.8284   18.7917 O   0  0  0  0  0  0  0  0  0  0  0  0
   13.8911  -13.9077   18.9200 C   0  0  0  0  0  0  0  0  0  0  0  0
   13.1535  -15.0319   18.2789 C   0  0  0  0  0  0  0  0  0  0  0  0
   11.9046  -15.4700   18.9944 C   0  0  2  0  0  0  0  0  0  0  0  0
   10.7434  -14.7846   18.4571 N   0  0  0  0  0  0  0  0  0  0  0  0
   12.0137  -15.3138   20.4664 C   0  0  0  0  0  0  0  0  0  0  0  0
   13.1103  -14.9280   20.9268 O   0  0  0  0  0  0  0  0  0  0  0  0
    9.4546  -13.6079   22.2041 N   0  0  0  0  0  0  0  0  0  0  0  0
    8.9433  -14.5121   23.1715 C   0  0  0  0  0  0  0  0  0  0  0  0
    7.8186  -14.2650   23.6685 O   0  0  0  0  0  0  0  0  0  0  0  0
    9.7540  -15.6816   23.5364 C   0  0  0  0  0  0  0  0  0  0  0  0
   10.9914  -15.8507   22.7477 C   0  0  2  0  0  0  0  0  0  0  0  0
   10.9588  -15.5739   21.3660 N   0  0  0  0  0  0  0  0  0  0  0  0
   11.6099  -17.1698   23.1366 C   0  0  0  0  0  0  0  0  0  0  0  0
   11.7511  -18.0301   22.2529 O   0  0  0  0  0  0  0  0  0  0  0  0
   12.0071  -17.4079   24.4454 O   0  0  0  0  0  0  0  0  0  0  0  0
  2  1  1  6
  3  2  1  0
  4  3  1  0
  5  4  1  0
  6  5  1  0
  7  6  1  0
  8  2  1  0
  8  9  2  0
 10 11  1  0
 11 12  2  0
 13 11  1  0
 13 14  1  0
 15 14  1  6
 15 16  1  0
 16  8  1  0
 17 15  1  0
 18 17  2  0
 20 22  1  0
 20 19  1  0
 21 20  2  0
 23 22  1  6
 23 25  1  0
 23 24  1  0
 24 17  1  0
 25 27  1  0
 26 25  2  0
M  END
$$$$
