KQN.pdb
     RDKit          3D

 27 26  0  0  1  0  0  0  0  0999 V2000
    7.7911  -16.8654   17.7899 N   0  0  0  0  0  0  0  0  0  0  0  0
    8.5758  -15.7526   18.4420 C   0  0  1  0  0  0  0  0  0  0  0  0
    7.9626  -14.5001   17.9833 C   0  0  0  0  0  0  0  0  0  0  0  0
    7.4954  -14.2751   16.6264 C   0  0  0  0  0  0  0  0  0  0  0  0
    7.8789  -13.2333   15.7042 C   0  0  0  0  0  0  0  0  0  0  0  0
    7.2217  -12.9857   14.4040 C   0  0  0  0  0  0  0  0  0  0  0  0
    7.6204  -11.8105   13.7038 N   0  0  0  0  0  0  0  0  0  0  0  0
    8.5629  -15.9695   19.9016 C   0  0  0  0  0  0  0  0  0  0  0  0
    9.1268  -15.1718   20.6947 O   0  0  0  0  0  0  0  0  0  0  0  0
    5.1284  -20.3326   21.6939 N   0  0  0  0  0  0  0  0  0  0  0  0
    4.6092  -19.0020   21.5867 C   0  0  0  0  0  0  0  0  0  0  0  0
    3.4228  -18.8098   21.2470 O   0  0  0  0  0  0  0  0  0  0  0  0
    5.4765  -17.8480   21.8804 C   0  0  0  0  0  0  0  0  0  0  0  0
    6.8304  -18.2652   22.3408 C   0  0  0  0  0  0  0  0  0  0  0  0
    7.9541  -17.3481   21.9413 C   0  0  2  0  0  0  0  0  0  0  0  0
    7.9161  -17.0885   20.5137 N   0  0  0  0  0  0  0  0  0  0  0  0
    9.2784  -17.8536   22.3818 C   0  0  0  0  0  0  0  0  0  0  0  0
    9.8156  -18.7458   21.6899 O   0  0  0  0  0  0  0  0  0  0  0  0
   14.3300  -15.3596   23.0954 N   0  0  0  0  0  0  0  0  0  0  0  0
   13.6182  -16.5868   23.0477 C   0  0  0  0  0  0  0  0  0  0  0  0
   14.2621  -17.6461   23.2384 O   0  0  0  0  0  0  0  0  0  0  0  0
   12.1744  -16.5505   22.7791 C   0  0  0  0  0  0  0  0  0  0  0  0
   11.3395  -17.2567   23.7721 C   0  0  2  0  0  0  0  0  0  0  0  0
    9.9577  -17.3876   23.5269 N   0  0  0  0  0  0  0  0  0  0  0  0
   11.7160  -16.7445   25.1395 C   0  0  0  0  0  0  0  0  0  0  0  0
   10.8665  -16.0991   25.7741 O   0  0  0  0  0  0  0  0  0  0  0  0
   12.9766  -16.9911   25.6664 O   0  0  0  0  0  0  0  0  0  0  0  0
  2  1  1  6
  3  2  1  0
  4  3  1  0
  5  4  1  0
  6  5  1  0
  7  6  1  0
  8  2  1  0
  8  9  2  0
 10 11  1  0
 11 12  2  0
 13 11  1  0
 13 14  1  0
 15 14  1  6
 15 16  1  0
 16  8  1  0
 17 15  1  0
 18 17  2  0
 20 22  1  0
 20 19  1  0
 21 20  2  0
 23 22  1  6
 23 25  1  0
 23 24  1  0
 24 17  1  0
 25 27  1  0
 26 25  2  0
M  END
$$$$
