KQN.pdb
     RDKit          3D

 27 26  0  0  1  0  0  0  0  0999 V2000
    9.2873  -14.2761   16.3603 N   0  0  0  0  0  0  0  0  0  0  0  0
    8.6125  -15.4988   16.9340 C   0  0  1  0  0  0  0  0  0  0  0  0
    8.1898  -16.3070   15.7836 C   0  0  0  0  0  0  0  0  0  0  0  0
    7.9364  -15.7642   14.4602 C   0  0  0  0  0  0  0  0  0  0  0  0
    8.8817  -15.4880   13.4052 C   0  0  0  0  0  0  0  0  0  0  0  0
    8.5177  -14.9501   12.0778 C   0  0  0  0  0  0  0  0  0  0  0  0
    9.5971  -14.5878   11.2210 N   0  0  0  0  0  0  0  0  0  0  0  0
    9.5537  -16.1560   17.8612 C   0  0  0  0  0  0  0  0  0  0  0  0
    9.3127  -17.2864   18.3587 O   0  0  0  0  0  0  0  0  0  0  0  0
   15.6596  -15.2973   17.9743 N   0  0  0  0  0  0  0  0  0  0  0  0
   14.7553  -14.1911   18.0745 C   0  0  0  0  0  0  0  0  0  0  0  0
   15.1242  -13.0402   17.7595 O   0  0  0  0  0  0  0  0  0  0  0  0
   13.3779  -14.4075   18.5498 C   0  0  0  0  0  0  0  0  0  0  0  0
   13.1211  -15.8327   18.8987 C   0  0  0  0  0  0  0  0  0  0  0  0
   11.6908  -16.1648   19.2266 C   0  0  2  0  0  0  0  0  0  0  0  0
   10.7936  -15.5633   18.2570 N   0  0  0  0  0  0  0  0  0  0  0  0
   11.3324  -15.8004   20.6202 C   0  0  0  0  0  0  0  0  0  0  0  0
   12.2027  -15.9655   21.5025 O   0  0  0  0  0  0  0  0  0  0  0  0
    6.9695  -13.1629   20.5478 N   0  0  0  0  0  0  0  0  0  0  0  0
    8.2299  -13.1514   21.2005 C   0  0  0  0  0  0  0  0  0  0  0  0
    9.1185  -12.3916   20.7466 O   0  0  0  0  0  0  0  0  0  0  0  0
    8.4248  -14.0249   22.3654 C   0  0  0  0  0  0  0  0  0  0  0  0
    9.5873  -14.9317   22.2748 C   0  0  2  0  0  0  0  0  0  0  0  0
   10.0764  -15.2830   21.0003 N   0  0  0  0  0  0  0  0  0  0  0  0
    9.3530  -16.0789   23.2250 C   0  0  0  0  0  0  0  0  0  0  0  0
    9.3877  -17.2319   22.7662 O   0  0  0  0  0  0  0  0  0  0  0  0
    9.1065  -15.8451   24.5712 O   0  0  0  0  0  0  0  0  0  0  0  0
  2  1  1  6
  3  2  1  0
  4  3  1  0
  5  4  1  0
  6  5  1  0
  7  6  1  0
  8  2  1  0
  8  9  2  0
 10 11  1  0
 11 12  2  0
 13 11  1  0
 13 14  1  0
 15 14  1  6
 15 16  1  0
 16  8  1  0
 17 15  1  0
 18 17  2  0
 20 22  1  0
 20 19  1  0
 21 20  2  0
 23 22  1  6
 23 25  1  0
 23 24  1  0
 24 17  1  0
 25 27  1  0
 26 25  2  0
M  END
$$$$
