KQN.pdb
     RDKit          3D

 27 26  0  0  1  0  0  0  0  0999 V2000
    7.9577  -19.6600   16.8477 N   0  0  0  0  0  0  0  0  0  0  0  0
    7.6601  -19.6521   18.3279 C   0  0  1  0  0  0  0  0  0  0  0  0
    8.1607  -20.9297   18.8498 C   0  0  0  0  0  0  0  0  0  0  0  0
    7.3066  -22.0441   19.2225 C   0  0  0  0  0  0  0  0  0  0  0  0
    5.9849  -22.3649   18.7398 C   0  0  0  0  0  0  0  0  0  0  0  0
    5.1888  -23.5240   19.1942 C   0  0  0  0  0  0  0  0  0  0  0  0
    3.8841  -23.6569   18.6367 N   0  0  0  0  0  0  0  0  0  0  0  0
    8.2677  -18.4431   18.9167 C   0  0  0  0  0  0  0  0  0  0  0  0
    9.5129  -18.2619   18.9196 O   0  0  0  0  0  0  0  0  0  0  0  0
    8.5539  -11.6686   20.4039 N   0  0  0  0  0  0  0  0  0  0  0  0
    8.1645  -12.9822   19.9868 C   0  0  0  0  0  0  0  0  0  0  0  0
    8.3796  -13.3660   18.8179 O   0  0  0  0  0  0  0  0  0  0  0  0
    7.5070  -13.8923   20.9405 C   0  0  0  0  0  0  0  0  0  0  0  0
    7.0318  -15.1437   20.2869 C   0  0  0  0  0  0  0  0  0  0  0  0
    8.0813  -16.2041   20.0930 C   0  0  2  0  0  0  0  0  0  0  0  0
    7.4949  -17.4016   19.5195 N   0  0  0  0  0  0  0  0  0  0  0  0
    8.8297  -16.4921   21.3422 C   0  0  0  0  0  0  0  0  0  0  0  0
    8.2575  -17.1844   22.2119 O   0  0  0  0  0  0  0  0  0  0  0  0
   14.2535  -15.2598   24.2057 N   0  0  0  0  0  0  0  0  0  0  0  0
   13.1618  -16.0996   23.8625 C   0  0  0  0  0  0  0  0  0  0  0  0
   12.9373  -17.0963   24.5900 O   0  0  0  0  0  0  0  0  0  0  0  0
   12.3585  -15.7585   22.6808 C   0  0  0  0  0  0  0  0  0  0  0  0
   10.9471  -16.1900   22.7431 C   0  0  2  0  0  0  0  0  0  0  0  0
   10.1381  -16.0322   21.5997 N   0  0  0  0  0  0  0  0  0  0  0  0
   10.3634  -15.6742   24.0342 C   0  0  0  0  0  0  0  0  0  0  0  0
    9.5313  -14.7551   23.9712 O   0  0  0  0  0  0  0  0  0  0  0  0
   10.7496  -16.2156   25.2529 O   0  0  0  0  0  0  0  0  0  0  0  0
  2  1  1  6
  3  2  1  0
  4  3  1  0
  5  4  1  0
  6  5  1  0
  7  6  1  0
  8  2  1  0
  8  9  2  0
 10 11  1  0
 11 12  2  0
 13 11  1  0
 13 14  1  0
 15 14  1  1
 15 16  1  0
 16  8  1  0
 17 15  1  0
 18 17  2  0
 20 22  1  0
 20 19  1  0
 21 20  2  0
 23 22  1  6
 23 25  1  0
 23 24  1  0
 24 17  1  0
 25 27  1  0
 26 25  2  0
M  END
$$$$
