KQN.pdb
     RDKit          3D

 27 26  0  0  1  0  0  0  0  0999 V2000
    7.6919  -15.9162   21.0172 N   0  0  0  0  0  0  0  0  0  0  0  0
    8.5693  -14.6885   21.0669 C   0  0  1  0  0  0  0  0  0  0  0  0
    7.8905  -13.6709   20.2551 C   0  0  0  0  0  0  0  0  0  0  0  0
    7.5044  -13.8647   18.8681 C   0  0  0  0  0  0  0  0  0  0  0  0
    8.1051  -13.3060   17.6808 C   0  0  0  0  0  0  0  0  0  0  0  0
    7.5899  -13.5075   16.3105 C   0  0  0  0  0  0  0  0  0  0  0  0
    8.2440  -12.7828   15.2725 N   0  0  0  0  0  0  0  0  0  0  0  0
    8.7873  -14.3313   22.4819 C   0  0  0  0  0  0  0  0  0  0  0  0
    8.8699  -13.1331   22.8574 O   0  0  0  0  0  0  0  0  0  0  0  0
    6.9653  -10.9569   26.3092 N   0  0  0  0  0  0  0  0  0  0  0  0
    6.5026  -12.2500   25.9030 C   0  0  0  0  0  0  0  0  0  0  0  0
    5.5261  -12.7816   26.4720 O   0  0  0  0  0  0  0  0  0  0  0  0
    7.1786  -12.9617   24.8045 C   0  0  0  0  0  0  0  0  0  0  0  0
    7.2454  -14.4305   25.0435 C   0  0  0  0  0  0  0  0  0  0  0  0
    8.6145  -15.0399   24.9108 C   0  0  2  0  0  0  0  0  0  0  0  0
    8.9189  -15.3090   23.5173 N   0  0  0  0  0  0  0  0  0  0  0  0
    8.7803  -16.2451   25.7614 C   0  0  0  0  0  0  0  0  0  0  0  0
    8.6021  -16.1128   26.9918 O   0  0  0  0  0  0  0  0  0  0  0  0
   12.9986  -19.0820   22.7737 N   0  0  0  0  0  0  0  0  0  0  0  0
   12.5114  -18.6606   24.0385 C   0  0  0  0  0  0  0  0  0  0  0  0
   13.1554  -19.0031   25.0588 O   0  0  0  0  0  0  0  0  0  0  0  0
   11.2864  -17.8511   24.0844 C   0  0  0  0  0  0  0  0  0  0  0  0
   10.3766  -18.1634   25.2054 C   0  0  2  0  0  0  0  0  0  0  0  0
    9.1243  -17.5190   25.2630 N   0  0  0  0  0  0  0  0  0  0  0  0
   11.1856  -18.1367   26.4776 C   0  0  0  0  0  0  0  0  0  0  0  0
   12.2723  -17.5367   26.4645 O   0  0  0  0  0  0  0  0  0  0  0  0
   10.7229  -18.7663   27.6252 O   0  0  0  0  0  0  0  0  0  0  0  0
  2  1  1  1
  3  2  1  0
  4  3  1  0
  5  4  1  0
  6  5  1  0
  7  6  1  0
  8  2  1  0
  8  9  2  0
 10 11  1  0
 11 12  2  0
 13 11  1  0
 13 14  1  0
 15 14  1  6
 15 16  1  0
 16  8  1  0
 17 15  1  0
 18 17  2  0
 20 22  1  0
 20 19  1  0
 21 20  2  0
 23 22  1  6
 23 25  1  0
 23 24  1  0
 24 17  1  0
 25 27  1  0
 26 25  2  0
M  END
$$$$
