KQN.pdb
     RDKit          3D

 27 26  0  0  1  0  0  0  0  0999 V2000
    9.3459  -15.5984   19.9875 N   0  0  0  0  0  0  0  0  0  0  0  0
    8.9106  -14.3218   20.6659 C   0  0  1  0  0  0  0  0  0  0  0  0
    8.1276  -13.5792   19.6706 C   0  0  0  0  0  0  0  0  0  0  0  0
    7.8111  -14.0849   18.3460 C   0  0  0  0  0  0  0  0  0  0  0  0
    8.1268  -13.5049   17.0628 C   0  0  0  0  0  0  0  0  0  0  0  0
    7.5526  -13.9568   15.7783 C   0  0  0  0  0  0  0  0  0  0  0  0
    7.9172  -13.2096   14.6211 N   0  0  0  0  0  0  0  0  0  0  0  0
    8.1913  -14.6767   21.9045 C   0  0  0  0  0  0  0  0  0  0  0  0
    7.6509  -13.8023   22.6304 O   0  0  0  0  0  0  0  0  0  0  0  0
    6.2588  -20.4489   26.3041 N   0  0  0  0  0  0  0  0  0  0  0  0
    7.0299  -19.8064   25.2824 C   0  0  0  0  0  0  0  0  0  0  0  0
    7.6895  -20.4832   24.4659 O   0  0  0  0  0  0  0  0  0  0  0  0
    7.0465  -18.3364   25.1880 C   0  0  0  0  0  0  0  0  0  0  0  0
    7.5050  -17.8641   23.8517 C   0  0  0  0  0  0  0  0  0  0  0  0
    7.5682  -16.3700   23.6867 C   0  0  2  0  0  0  0  0  0  0  0  0
    8.0572  -16.0242   22.3646 N   0  0  0  0  0  0  0  0  0  0  0  0
    8.3559  -15.7167   24.7619 C   0  0  0  0  0  0  0  0  0  0  0  0
    9.6022  -15.7761   24.6826 O   0  0  0  0  0  0  0  0  0  0  0  0
    5.4218  -12.1857   27.3942 N   0  0  0  0  0  0  0  0  0  0  0  0
    6.7049  -12.5095   26.8809 C   0  0  0  0  0  0  0  0  0  0  0  0
    7.0227  -12.0447   25.7602 O   0  0  0  0  0  0  0  0  0  0  0  0
    7.5865  -13.3666   27.6849 C   0  0  0  0  0  0  0  0  0  0  0  0
    8.3956  -14.3281   26.9085 C   0  0  2  0  0  0  0  0  0  0  0  0
    7.7815  -15.0390   25.8576 N   0  0  0  0  0  0  0  0  0  0  0  0
    9.1881  -15.1593   27.8857 C   0  0  0  0  0  0  0  0  0  0  0  0
    9.1493  -16.3943   27.7656 O   0  0  0  0  0  0  0  0  0  0  0  0
    9.9362  -14.5548   28.8869 O   0  0  0  0  0  0  0  0  0  0  0  0
  2  1  1  6
  3  2  1  0
  4  3  1  0
  5  4  1  0
  6  5  1  0
  7  6  1  0
  8  2  1  0
  8  9  2  0
 10 11  1  0
 11 12  2  0
 13 11  1  0
 13 14  1  0
 15 14  1  1
 15 16  1  0
 16  8  1  0
 17 15  1  0
 18 17  2  0
 20 22  1  0
 20 19  1  0
 21 20  2  0
 23 22  1  1
 23 25  1  0
 23 24  1  0
 24 17  1  0
 25 27  1  0
 26 25  2  0
M  END
$$$$
