KQN.pdb
     RDKit          3D

 27 26  0  0  1  0  0  0  0  0999 V2000
    7.6874  -17.4136   17.5918 N   0  0  0  0  0  0  0  0  0  0  0  0
    8.9944  -16.6579   17.5742 C   0  0  1  0  0  0  0  0  0  0  0  0
    8.6470  -15.2414   17.7418 C   0  0  0  0  0  0  0  0  0  0  0  0
    7.9444  -14.4548   16.7429 C   0  0  0  0  0  0  0  0  0  0  0  0
    8.4320  -13.9696   15.4742 C   0  0  0  0  0  0  0  0  0  0  0  0
    7.7150  -13.0002   14.6197 C   0  0  0  0  0  0  0  0  0  0  0  0
    8.3188  -12.6887   13.3671 N   0  0  0  0  0  0  0  0  0  0  0  0
    9.8720  -17.2248   18.6163 C   0  0  0  0  0  0  0  0  0  0  0  0
    9.4313  -17.5468   19.7501 O   0  0  0  0  0  0  0  0  0  0  0  0
   14.3898  -21.0679   18.1565 N   0  0  0  0  0  0  0  0  0  0  0  0
   14.8615  -20.4813   19.3750 C   0  0  0  0  0  0  0  0  0  0  0  0
   15.7241  -21.0627   20.0662 O   0  0  0  0  0  0  0  0  0  0  0  0
   14.3301  -19.1814   19.8197 C   0  0  0  0  0  0  0  0  0  0  0  0
   13.3616  -18.6067   18.8446 C   0  0  0  0  0  0  0  0  0  0  0  0
   12.1548  -17.9459   19.4532 C   0  0  2  0  0  0  0  0  0  0  0  0
   11.2705  -17.4471   18.4159 N   0  0  0  0  0  0  0  0  0  0  0  0
   12.5222  -16.8897   20.4292 C   0  0  0  0  0  0  0  0  0  0  0  0
   12.9226  -15.7963   19.9739 O   0  0  0  0  0  0  0  0  0  0  0  0
   12.6141  -18.5754   24.2354 N   0  0  0  0  0  0  0  0  0  0  0  0
   11.9247  -17.4629   24.7848 C   0  0  0  0  0  0  0  0  0  0  0  0
   11.2427  -17.6488   25.8208 O   0  0  0  0  0  0  0  0  0  0  0  0
   12.0461  -16.1614   24.1144 C   0  0  0  0  0  0  0  0  0  0  0  0
   12.8337  -16.1769   22.8649 C   0  0  2  0  0  0  0  0  0  0  0  0
   12.4453  -17.0499   21.8286 N   0  0  0  0  0  0  0  0  0  0  0  0
   14.2937  -16.2149   23.2400 C   0  0  0  0  0  0  0  0  0  0  0  0
   14.9468  -17.2264   22.9378 O   0  0  0  0  0  0  0  0  0  0  0  0
   14.8830  -15.1471   23.9034 O   0  0  0  0  0  0  0  0  0  0  0  0
  2  1  1  1
  3  2  1  0
  4  3  1  0
  5  4  1  0
  6  5  1  0
  7  6  1  0
  8  2  1  0
  8  9  2  0
 10 11  1  0
 11 12  2  0
 13 11  1  0
 13 14  1  0
 15 14  1  6
 15 16  1  0
 16  8  1  0
 17 15  1  0
 18 17  2  0
 20 22  1  0
 20 19  1  0
 21 20  2  0
 23 22  1  1
 23 25  1  0
 23 24  1  0
 24 17  1  0
 25 27  1  0
 26 25  2  0
M  END
$$$$
