KQN.pdb
     RDKit          3D

 27 26  0  0  1  0  0  0  0  0999 V2000
    9.0200  -16.0136   21.4682 N   0  0  0  0  0  0  0  0  0  0  0  0
    8.4104  -14.9052   22.2924 C   0  0  1  0  0  0  0  0  0  0  0  0
    7.7006  -14.0373   21.3446 C   0  0  0  0  0  0  0  0  0  0  0  0
    8.2277  -13.6509   20.0473 C   0  0  0  0  0  0  0  0  0  0  0  0
    7.6436  -12.7689   19.0657 C   0  0  0  0  0  0  0  0  0  0  0  0
    8.2622  -12.4418   17.7641 C   0  0  0  0  0  0  0  0  0  0  0  0
    7.5073  -12.7705   16.6010 N   0  0  0  0  0  0  0  0  0  0  0  0
    7.5745  -15.5154   23.3443 C   0  0  0  0  0  0  0  0  0  0  0  0
    6.9713  -14.8166   24.1994 O   0  0  0  0  0  0  0  0  0  0  0  0
    3.3597  -18.6185   20.8692 N   0  0  0  0  0  0  0  0  0  0  0  0
    4.3065  -19.1070   21.8264 C   0  0  0  0  0  0  0  0  0  0  0  0
    4.2808  -20.3013   22.1910 O   0  0  0  0  0  0  0  0  0  0  0  0
    5.3220  -18.1986   22.3865 C   0  0  0  0  0  0  0  0  0  0  0  0
    5.4663  -18.3571   23.8606 C   0  0  0  0  0  0  0  0  0  0  0  0
    6.5608  -17.5384   24.4894 C   0  0  2  0  0  0  0  0  0  0  0  0
    7.3912  -16.9284   23.4671 N   0  0  0  0  0  0  0  0  0  0  0  0
    7.3604  -18.3204   25.4652 C   0  0  0  0  0  0  0  0  0  0  0  0
    6.7392  -19.0499   26.2685 O   0  0  0  0  0  0  0  0  0  0  0  0
   10.1683  -20.1075   24.0989 N   0  0  0  0  0  0  0  0  0  0  0  0
   11.2933  -19.6780   24.8504 C   0  0  0  0  0  0  0  0  0  0  0  0
   12.4331  -19.8832   24.3691 O   0  0  0  0  0  0  0  0  0  0  0  0
   11.0635  -19.0203   26.1438 C   0  0  0  0  0  0  0  0  0  0  0  0
    9.6428  -18.8281   26.4997 C   0  0  2  0  0  0  0  0  0  0  0  0
    8.7688  -18.2866   25.5355 N   0  0  0  0  0  0  0  0  0  0  0  0
    9.5914  -18.1869   27.8635 C   0  0  0  0  0  0  0  0  0  0  0  0
    8.9707  -17.1183   27.9818 O   0  0  0  0  0  0  0  0  0  0  0  0
   10.2215  -18.7793   28.9495 O   0  0  0  0  0  0  0  0  0  0  0  0
  2  1  1  6
  3  2  1  0
  4  3  1  0
  5  4  1  0
  6  5  1  0
  7  6  1  0
  8  2  1  0
  8  9  2  0
 10 11  1  0
 11 12  2  0
 13 11  1  0
 13 14  1  0
 15 14  1  6
 15 16  1  0
 16  8  1  0
 17 15  1  0
 18 17  2  0
 20 22  1  0
 20 19  1  0
 21 20  2  0
 23 22  1  6
 23 25  1  0
 23 24  1  0
 24 17  1  0
 25 27  1  0
 26 25  2  0
M  END
$$$$
