KQN.pdb
     RDKit          3D

 27 26  0  0  1  0  0  0  0  0999 V2000
    8.6519  -12.5295   19.0474 N   0  0  0  0  0  0  0  0  0  0  0  0
    7.6363  -13.3187   19.8380 C   0  0  1  0  0  0  0  0  0  0  0  0
    7.3508  -14.5217   19.0464 C   0  0  0  0  0  0  0  0  0  0  0  0
    8.3564  -15.4967   18.6613 C   0  0  0  0  0  0  0  0  0  0  0  0
    8.2064  -16.6581   17.8179 C   0  0  0  0  0  0  0  0  0  0  0  0
    9.3134  -17.5573   17.4306 C   0  0  0  0  0  0  0  0  0  0  0  0
    8.9814  -18.6362   16.5610 N   0  0  0  0  0  0  0  0  0  0  0  0
    8.1844  -13.5604   21.1866 C   0  0  0  0  0  0  0  0  0  0  0  0
    9.4199  -13.6925   21.3855 O   0  0  0  0  0  0  0  0  0  0  0  0
    5.3004  -12.2719   26.6484 N   0  0  0  0  0  0  0  0  0  0  0  0
    6.5804  -12.7432   27.0854 C   0  0  0  0  0  0  0  0  0  0  0  0
    6.9265  -12.6229   28.2794 O   0  0  0  0  0  0  0  0  0  0  0  0
    7.4984  -13.3776   26.1237 C   0  0  0  0  0  0  0  0  0  0  0  0
    6.9937  -13.2925   24.7248 C   0  0  0  0  0  0  0  0  0  0  0  0
    7.8892  -13.9041   23.6819 C   0  0  2  0  0  0  0  0  0  0  0  0
    7.3613  -13.6607   22.3519 N   0  0  0  0  0  0  0  0  0  0  0  0
    8.1388  -15.3464   23.9283 C   0  0  0  0  0  0  0  0  0  0  0  0
    7.6627  -16.1632   23.1102 O   0  0  0  0  0  0  0  0  0  0  0  0
   11.6601  -18.0795   22.0318 N   0  0  0  0  0  0  0  0  0  0  0  0
   10.6119  -17.4788   22.7770 C   0  0  0  0  0  0  0  0  0  0  0  0
    9.4380  -17.6244   22.3603 O   0  0  0  0  0  0  0  0  0  0  0  0
   10.9563  -16.7235   23.9891 C   0  0  0  0  0  0  0  0  0  0  0  0
    9.9387  -16.7675   25.0589 C   0  0  2  0  0  0  0  0  0  0  0  0
    8.8765  -15.8416   25.0239 N   0  0  0  0  0  0  0  0  0  0  0  0
   10.6603  -16.8862   26.3776 C   0  0  0  0  0  0  0  0  0  0  0  0
   10.5506  -15.9522   27.1879 O   0  0  0  0  0  0  0  0  0  0  0  0
   11.4227  -18.0092   26.6698 O   0  0  0  0  0  0  0  0  0  0  0  0
  2  1  1  6
  3  2  1  0
  4  3  1  0
  5  4  1  0
  6  5  1  0
  7  6  1  0
  8  2  1  0
  8  9  2  0
 10 11  1  0
 11 12  2  0
 13 11  1  0
 13 14  1  0
 15 14  1  1
 15 16  1  0
 16  8  1  0
 17 15  1  0
 18 17  2  0
 20 22  1  0
 20 19  1  0
 21 20  2  0
 23 22  1  6
 23 25  1  0
 23 24  1  0
 24 17  1  0
 25 27  1  0
 26 25  2  0
M  END
$$$$
