KQN.pdb
     RDKit          3D

 27 26  0  0  1  0  0  0  0  0999 V2000
   11.1581  -18.5658   17.2728 N   0  0  0  0  0  0  0  0  0  0  0  0
    9.9574  -17.6747   17.4816 C   0  0  1  0  0  0  0  0  0  0  0  0
    8.9630  -18.4918   18.1880 C   0  0  0  0  0  0  0  0  0  0  0  0
    8.4189  -19.7350   17.6698 C   0  0  0  0  0  0  0  0  0  0  0  0
    7.3702  -19.9210   16.6960 C   0  0  0  0  0  0  0  0  0  0  0  0
    6.8635  -21.2376   16.2558 C   0  0  0  0  0  0  0  0  0  0  0  0
    5.7269  -21.2264   15.3963 N   0  0  0  0  0  0  0  0  0  0  0  0
   10.4001  -16.4585   18.1903 C   0  0  0  0  0  0  0  0  0  0  0  0
   10.8720  -15.4678   17.5745 O   0  0  0  0  0  0  0  0  0  0  0  0
    7.5206  -12.0321   19.9850 N   0  0  0  0  0  0  0  0  0  0  0  0
    7.4246  -13.2777   19.2845 C   0  0  0  0  0  0  0  0  0  0  0  0
    6.6140  -13.4156   18.3445 O   0  0  0  0  0  0  0  0  0  0  0  0
    8.2880  -14.4072   19.6704 C   0  0  0  0  0  0  0  0  0  0  0  0
    9.7009  -13.9870   19.8850 C   0  0  0  0  0  0  0  0  0  0  0  0
   10.6389  -15.0844   20.3085 C   0  0  2  0  0  0  0  0  0  0  0  0
   10.3256  -16.3186   19.6117 N   0  0  0  0  0  0  0  0  0  0  0  0
   10.6661  -15.2661   21.7814 C   0  0  0  0  0  0  0  0  0  0  0  0
   10.8494  -14.2495   22.4856 O   0  0  0  0  0  0  0  0  0  0  0  0
   12.3344  -17.6046   25.9964 N   0  0  0  0  0  0  0  0  0  0  0  0
   11.0722  -18.2040   25.7465 C   0  0  0  0  0  0  0  0  0  0  0  0
   10.6061  -18.9753   26.6188 O   0  0  0  0  0  0  0  0  0  0  0  0
   10.3837  -17.8907   24.4872 C   0  0  0  0  0  0  0  0  0  0  0  0
   11.1533  -17.0456   23.5516 C   0  0  2  0  0  0  0  0  0  0  0  0
   10.4979  -16.5104   22.4243 N   0  0  0  0  0  0  0  0  0  0  0  0
   12.4659  -17.7359   23.2791 C   0  0  0  0  0  0  0  0  0  0  0  0
   12.7015  -18.1018   22.1165 O   0  0  0  0  0  0  0  0  0  0  0  0
   13.3787  -17.9526   24.3026 O   0  0  0  0  0  0  0  0  0  0  0  0
  2  1  1  1
  3  2  1  0
  4  3  1  0
  5  4  1  0
  6  5  1  0
  7  6  1  0
  8  2  1  0
  8  9  2  0
 10 11  1  0
 11 12  2  0
 13 11  1  0
 13 14  1  0
 15 14  1  1
 15 16  1  0
 16  8  1  0
 17 15  1  0
 18 17  2  0
 20 22  1  0
 20 19  1  0
 21 20  2  0
 23 22  1  6
 23 25  1  0
 23 24  1  0
 24 17  1  0
 25 27  1  0
 26 25  2  0
M  END
$$$$
