KQN.pdb
     RDKit          3D

 27 26  0  0  1  0  0  0  0  0999 V2000
    6.2727  -14.8828   22.2131 N   0  0  0  0  0  0  0  0  0  0  0  0
    7.1288  -15.1905   21.0082 C   0  0  1  0  0  0  0  0  0  0  0  0
    7.3439  -13.9092   20.3246 C   0  0  0  0  0  0  0  0  0  0  0  0
    8.0950  -13.7648   19.0896 C   0  0  0  0  0  0  0  0  0  0  0  0
    7.6337  -13.9284   17.7320 C   0  0  0  0  0  0  0  0  0  0  0  0
    8.4810  -13.7479   16.5348 C   0  0  0  0  0  0  0  0  0  0  0  0
    7.8833  -14.0615   15.2798 N   0  0  0  0  0  0  0  0  0  0  0  0
    8.3504  -15.8773   21.4704 C   0  0  0  0  0  0  0  0  0  0  0  0
    9.0073  -15.4651   22.4613 O   0  0  0  0  0  0  0  0  0  0  0  0
    9.7079  -21.7355   21.1689 N   0  0  0  0  0  0  0  0  0  0  0  0
   11.0549  -21.2775   21.3340 C   0  0  0  0  0  0  0  0  0  0  0  0
   11.9550  -22.0688   21.6855 O   0  0  0  0  0  0  0  0  0  0  0  0
   11.3870  -19.8638   21.0863 C   0  0  0  0  0  0  0  0  0  0  0  0
   10.1986  -19.0740   20.6586 C   0  0  0  0  0  0  0  0  0  0  0  0
   10.1132  -17.6845   21.2291 C   0  0  2  0  0  0  0  0  0  0  0  0
    8.8703  -17.0476   20.8336 N   0  0  0  0  0  0  0  0  0  0  0  0
   11.2979  -16.8594   20.8844 C   0  0  0  0  0  0  0  0  0  0  0  0
   11.2887  -16.2668   19.7836 O   0  0  0  0  0  0  0  0  0  0  0  0
   12.5467  -13.4862   19.5637 N   0  0  0  0  0  0  0  0  0  0  0  0
   13.6667  -14.3147   19.8358 C   0  0  0  0  0  0  0  0  0  0  0  0
   14.4158  -14.6215   18.8778 O   0  0  0  0  0  0  0  0  0  0  0  0
   13.8869  -14.7657   21.2164 C   0  0  0  0  0  0  0  0  0  0  0  0
   13.7113  -16.2164   21.4319 C   0  0  2  0  0  0  0  0  0  0  0  0
   12.4227  -16.7084   21.7222 N   0  0  0  0  0  0  0  0  0  0  0  0
   14.8124  -16.6833   22.3502 C   0  0  0  0  0  0  0  0  0  0  0  0
   14.4936  -17.3337   23.3584 O   0  0  0  0  0  0  0  0  0  0  0  0
   16.1405  -16.3908   22.0704 O   0  0  0  0  0  0  0  0  0  0  0  0
  2  1  1  1
  3  2  1  0
  4  3  1  0
  5  4  1  0
  6  5  1  0
  7  6  1  0
  8  2  1  0
  8  9  2  0
 10 11  1  0
 11 12  2  0
 13 11  1  0
 13 14  1  0
 15 14  1  6
 15 16  1  0
 16  8  1  0
 17 15  1  0
 18 17  2  0
 20 22  1  0
 20 19  1  0
 21 20  2  0
 23 22  1  1
 23 25  1  0
 23 24  1  0
 24 17  1  0
 25 27  1  0
 26 25  2  0
M  END
$$$$
