KQN.pdb
     RDKit          3D

 27 26  0  0  1  0  0  0  0  0999 V2000
    6.7689  -20.3654   22.3804 N   0  0  0  0  0  0  0  0  0  0  0  0
    6.3532  -19.0310   22.9514 C   0  0  1  0  0  0  0  0  0  0  0  0
    6.1085  -19.2590   24.3809 C   0  0  0  0  0  0  0  0  0  0  0  0
    6.9481  -20.0916   25.2247 C   0  0  0  0  0  0  0  0  0  0  0  0
    6.8092  -20.3732   26.6333 C   0  0  0  0  0  0  0  0  0  0  0  0
    7.8229  -21.0746   27.4484 C   0  0  0  0  0  0  0  0  0  0  0  0
    7.5168  -21.2520   28.8288 N   0  0  0  0  0  0  0  0  0  0  0  0
    7.4037  -18.0439   22.6358 C   0  0  0  0  0  0  0  0  0  0  0  0
    8.6221  -18.3574   22.6141 O   0  0  0  0  0  0  0  0  0  0  0  0
    6.6788  -12.8924   19.1830 N   0  0  0  0  0  0  0  0  0  0  0  0
    8.0459  -12.7545   19.5871 C   0  0  0  0  0  0  0  0  0  0  0  0
    8.7756  -11.8836   19.0684 O   0  0  0  0  0  0  0  0  0  0  0  0
    8.5999  -13.6426   20.6236 C   0  0  0  0  0  0  0  0  0  0  0  0
    7.6013  -14.6388   21.1027 C   0  0  0  0  0  0  0  0  0  0  0  0
    8.1425  -15.6955   22.0268 C   0  0  2  0  0  0  0  0  0  0  0  0
    7.1170  -16.6754   22.3351 N   0  0  0  0  0  0  0  0  0  0  0  0
    8.7483  -15.1168   23.2520 C   0  0  0  0  0  0  0  0  0  0  0  0
    9.7638  -14.4011   23.1118 O   0  0  0  0  0  0  0  0  0  0  0  0
    5.5471  -12.9191   26.5169 N   0  0  0  0  0  0  0  0  0  0  0  0
    6.8775  -13.1145   26.0624 C   0  0  0  0  0  0  0  0  0  0  0  0
    7.3013  -12.3661   25.1495 O   0  0  0  0  0  0  0  0  0  0  0  0
    7.6818  -14.1764   26.6817 C   0  0  0  0  0  0  0  0  0  0  0  0
    8.6775  -14.8031   25.7886 C   0  0  2  0  0  0  0  0  0  0  0  0
    8.2464  -15.3275   24.5533 N   0  0  0  0  0  0  0  0  0  0  0  0
    9.5359  -15.7186   26.6246 C   0  0  0  0  0  0  0  0  0  0  0  0
    9.8883  -15.3227   27.7471 O   0  0  0  0  0  0  0  0  0  0  0  0
    9.9168  -16.9653   26.1467 O   0  0  0  0  0  0  0  0  0  0  0  0
  2  1  1  1
  3  2  1  0
  4  3  1  0
  5  4  1  0
  6  5  1  0
  7  6  1  0
  8  2  1  0
  8  9  2  0
 10 11  1  0
 11 12  2  0
 13 11  1  0
 13 14  1  0
 15 14  1  1
 15 16  1  0
 16  8  1  0
 17 15  1  0
 18 17  2  0
 20 22  1  0
 20 19  1  0
 21 20  2  0
 23 22  1  1
 23 25  1  0
 23 24  1  0
 24 17  1  0
 25 27  1  0
 26 25  2  0
M  END
$$$$
