KQN.pdb
     RDKit          3D

 27 26  0  0  1  0  0  0  0  0999 V2000
    9.5780  -15.7646   14.8132 N   0  0  0  0  0  0  0  0  0  0  0  0
    8.6012  -14.9568   15.6335 C   0  0  1  0  0  0  0  0  0  0  0  0
    7.4033  -14.7991   14.7996 C   0  0  0  0  0  0  0  0  0  0  0  0
    7.3691  -15.0610   13.3712 C   0  0  0  0  0  0  0  0  0  0  0  0
    6.7361  -14.2878   12.3299 C   0  0  0  0  0  0  0  0  0  0  0  0
    6.5947  -14.7333   10.9280 C   0  0  0  0  0  0  0  0  0  0  0  0
    5.9285  -13.8389   10.0409 N   0  0  0  0  0  0  0  0  0  0  0  0
    8.3934  -15.6481   16.9205 C   0  0  0  0  0  0  0  0  0  0  0  0
    7.6357  -15.1795   17.8092 O   0  0  0  0  0  0  0  0  0  0  0  0
   10.5683  -21.4367   18.4655 N   0  0  0  0  0  0  0  0  0  0  0  0
   10.0970  -20.9573   19.7302 C   0  0  0  0  0  0  0  0  0  0  0  0
   10.1791  -21.6733   20.7502 O   0  0  0  0  0  0  0  0  0  0  0  0
    9.5122  -19.6092   19.8345 C   0  0  0  0  0  0  0  0  0  0  0  0
    9.5470  -18.8795   18.5363 C   0  0  0  0  0  0  0  0  0  0  0  0
    8.9637  -17.4930   18.5644 C   0  0  2  0  0  0  0  0  0  0  0  0
    9.0300  -16.8863   17.2475 N   0  0  0  0  0  0  0  0  0  0  0  0
    9.5892  -16.6389   19.6049 C   0  0  0  0  0  0  0  0  0  0  0  0
   10.7975  -16.3496   19.4652 O   0  0  0  0  0  0  0  0  0  0  0  0
    6.8009  -12.6132   21.3591 N   0  0  0  0  0  0  0  0  0  0  0  0
    8.0728  -13.2341   21.2513 C   0  0  0  0  0  0  0  0  0  0  0  0
    8.8111  -12.8966   20.2952 O   0  0  0  0  0  0  0  0  0  0  0  0
    8.4538  -14.2327   22.2591 C   0  0  0  0  0  0  0  0  0  0  0  0
    9.3513  -15.2989   21.7694 C   0  0  2  0  0  0  0  0  0  0  0  0
    8.9024  -16.1405   20.7316 N   0  0  0  0  0  0  0  0  0  0  0  0
    9.9375  -15.9967   22.9708 C   0  0  0  0  0  0  0  0  0  0  0  0
   10.4256  -15.2953   23.8713 O   0  0  0  0  0  0  0  0  0  0  0  0
    9.9282  -17.3821   23.0603 O   0  0  0  0  0  0  0  0  0  0  0  0
  2  1  1  6
  3  2  1  0
  4  3  1  0
  5  4  1  0
  6  5  1  0
  7  6  1  0
  8  2  1  0
  8  9  2  0
 10 11  1  0
 11 12  2  0
 13 11  1  0
 13 14  1  0
 15 14  1  6
 15 16  1  0
 16  8  1  0
 17 15  1  0
 18 17  2  0
 20 22  1  0
 20 19  1  0
 21 20  2  0
 23 22  1  1
 23 25  1  0
 23 24  1  0
 24 17  1  0
 25 27  1  0
 26 25  2  0
M  END
$$$$
