KQN.pdb
     RDKit          3D

 27 26  0  0  1  0  0  0  0  0999 V2000
    7.8376  -19.4940   18.2227 N   0  0  0  0  0  0  0  0  0  0  0  0
    7.4168  -18.8763   19.5346 C   0  0  1  0  0  0  0  0  0  0  0  0
    7.7053  -19.8794   20.5670 C   0  0  0  0  0  0  0  0  0  0  0  0
    7.7983  -21.3058   20.3086 C   0  0  0  0  0  0  0  0  0  0  0  0
    8.0023  -22.3792   21.2514 C   0  0  0  0  0  0  0  0  0  0  0  0
    8.1593  -23.8003   20.8775 C   0  0  0  0  0  0  0  0  0  0  0  0
    8.3550  -24.7212   21.9472 N   0  0  0  0  0  0  0  0  0  0  0  0
    8.1188  -17.5874   19.6867 C   0  0  0  0  0  0  0  0  0  0  0  0
    9.2241  -17.3652   19.1278 O   0  0  0  0  0  0  0  0  0  0  0  0
    9.5757  -11.5415   19.0680 N   0  0  0  0  0  0  0  0  0  0  0  0
    8.4906  -12.4727   18.9857 C   0  0  0  0  0  0  0  0  0  0  0  0
    8.2460  -13.0683   17.9155 O   0  0  0  0  0  0  0  0  0  0  0  0
    7.6549  -12.7352   20.1701 C   0  0  0  0  0  0  0  0  0  0  0  0
    7.1521  -14.1370   20.2037 C   0  0  0  0  0  0  0  0  0  0  0  0
    8.1923  -15.1844   20.4942 C   0  0  2  0  0  0  0  0  0  0  0  0
    7.6004  -16.5096   20.4708 N   0  0  0  0  0  0  0  0  0  0  0  0
    8.9204  -14.9203   21.7604 C   0  0  0  0  0  0  0  0  0  0  0  0
    9.5535  -13.8459   21.8495 O   0  0  0  0  0  0  0  0  0  0  0  0
    8.7855  -18.6118   26.1449 N   0  0  0  0  0  0  0  0  0  0  0  0
    9.7742  -17.7419   25.6153 C   0  0  0  0  0  0  0  0  0  0  0  0
   10.4607  -17.0728   26.4241 O   0  0  0  0  0  0  0  0  0  0  0  0
    9.9392  -17.6721   24.1572 C   0  0  0  0  0  0  0  0  0  0  0  0
   10.0232  -16.3043   23.6060 C   0  0  2  0  0  0  0  0  0  0  0  0
    8.9372  -15.8060   22.8582 N   0  0  0  0  0  0  0  0  0  0  0  0
   11.3822  -16.1446   22.9725 C   0  0  0  0  0  0  0  0  0  0  0  0
   12.3748  -16.1323   23.7180 O   0  0  0  0  0  0  0  0  0  0  0  0
   11.5120  -16.0157   21.5962 O   0  0  0  0  0  0  0  0  0  0  0  0
  2  1  1  6
  3  2  1  0
  4  3  1  0
  5  4  1  0
  6  5  1  0
  7  6  1  0
  8  2  1  0
  8  9  2  0
 10 11  1  0
 11 12  2  0
 13 11  1  0
 13 14  1  0
 15 14  1  1
 15 16  1  0
 16  8  1  0
 17 15  1  0
 18 17  2  0
 20 22  1  0
 20 19  1  0
 21 20  2  0
 23 22  1  6
 23 25  1  0
 23 24  1  0
 24 17  1  0
 25 27  1  0
 26 25  2  0
M  END
$$$$
