KQN.pdb
     RDKit          3D

 27 26  0  0  1  0  0  0  0  0999 V2000
    8.5626  -19.6783   17.5680 N   0  0  0  0  0  0  0  0  0  0  0  0
    9.3425  -19.7005   18.8606 C   0  0  1  0  0  0  0  0  0  0  0  0
   10.2764  -20.8281   18.7523 C   0  0  0  0  0  0  0  0  0  0  0  0
   10.0335  -22.0073   17.9395 C   0  0  0  0  0  0  0  0  0  0  0  0
   10.8430  -23.1954   17.8139 C   0  0  0  0  0  0  0  0  0  0  0  0
   10.5319  -24.3266   16.9153 C   0  0  0  0  0  0  0  0  0  0  0  0
   11.4354  -25.4281   16.9437 N   0  0  0  0  0  0  0  0  0  0  0  0
    9.9646  -18.3758   19.0498 C   0  0  0  0  0  0  0  0  0  0  0  0
   10.8963  -17.9696   18.3080 O   0  0  0  0  0  0  0  0  0  0  0  0
    6.3697  -13.6830   19.8374 N   0  0  0  0  0  0  0  0  0  0  0  0
    7.6172  -12.9867   19.9396 C   0  0  0  0  0  0  0  0  0  0  0  0
    7.6507  -11.7386   19.9120 O   0  0  0  0  0  0  0  0  0  0  0  0
    8.8729  -13.7439   20.0810 C   0  0  0  0  0  0  0  0  0  0  0  0
    8.6475  -15.2161   20.0546 C   0  0  0  0  0  0  0  0  0  0  0  0
    9.8956  -16.0562   20.0725 C   0  0  2  0  0  0  0  0  0  0  0  0
    9.5586  -17.4680   20.0776 N   0  0  0  0  0  0  0  0  0  0  0  0
   10.8028  -15.6945   21.1903 C   0  0  0  0  0  0  0  0  0  0  0  0
   11.7586  -14.9302   20.9344 O   0  0  0  0  0  0  0  0  0  0  0  0
    9.2722  -15.2813   24.5757 N   0  0  0  0  0  0  0  0  0  0  0  0
    9.8979  -16.3087   25.3292 C   0  0  0  0  0  0  0  0  0  0  0  0
    9.3337  -16.6903   26.3823 O   0  0  0  0  0  0  0  0  0  0  0  0
   11.1651  -16.8664   24.8381 C   0  0  0  0  0  0  0  0  0  0  0  0
   11.6072  -16.3459   23.5283 C   0  0  2  0  0  0  0  0  0  0  0  0
   10.6477  -16.1610   22.5124 N   0  0  0  0  0  0  0  0  0  0  0  0
   12.8486  -17.1016   23.1264 C   0  0  0  0  0  0  0  0  0  0  0  0
   12.7898  -18.3411   23.0896 O   0  0  0  0  0  0  0  0  0  0  0  0
   14.0186  -16.4250   22.8085 O   0  0  0  0  0  0  0  0  0  0  0  0
  2  1  1  6
  3  2  1  0
  4  3  1  0
  5  4  1  0
  6  5  1  0
  7  6  1  0
  8  2  1  0
  8  9  2  0
 10 11  1  0
 11 12  2  0
 13 11  1  0
 13 14  1  0
 15 14  1  1
 15 16  1  0
 16  8  1  0
 17 15  1  0
 18 17  2  0
 20 22  1  0
 20 19  1  0
 21 20  2  0
 23 22  1  1
 23 25  1  0
 23 24  1  0
 24 17  1  0
 25 27  1  0
 26 25  2  0
M  END
$$$$
