SFL.pdb
     RDKit          3D

 26 26  0  0  1  0  0  0  0  0999 V2000
   11.8940  -18.9685   21.6275 O   0  0  0  0  0  0  0  0  0  0  0  0
   10.9118  -18.7185   20.6804 C   0  0  0  0  0  0  0  0  0  0  0  0
   10.9046  -17.2764   20.2334 C   0  0  2  0  0  0  0  0  0  0  0  0
   12.2250  -16.9522   19.7500 N   0  0  0  0  0  0  0  0  0  0  0  0
   10.5859  -16.4520   21.4520 C   0  0  0  0  0  0  0  0  0  0  0  0
   11.5298  -15.8319   22.0100 O   0  0  0  0  0  0  0  0  0  0  0  0
    9.2655  -16.3696   21.9642 N   0  0  0  0  0  0  0  0  0  0  0  0
    8.9488  -15.5600   23.1212 C   0  0  1  0  0  0  0  0  0  0  0  0
    7.5122  -15.0836   23.0776 C   0  0  0  0  0  0  0  0  0  0  0  0
    7.1313  -14.2160   24.1850 C   0  0  0  0  0  0  0  0  0  0  0  0
    7.4634  -12.8785   24.1534 C   0  0  0  0  0  0  0  0  0  0  0  0
    7.1093  -12.0253   25.2065 C   0  0  0  0  0  0  0  0  0  0  0  0
    6.4205  -12.5204   26.2913 C   0  0  0  0  0  0  0  0  0  0  0  0
    6.0820  -13.8572   26.3353 C   0  0  0  0  0  0  0  0  0  0  0  0
    6.4440  -14.6940   25.2746 C   0  0  0  0  0  0  0  0  0  0  0  0
    9.3081  -16.2967   24.3318 C   0  0  0  0  0  0  0  0  0  0  0  0
    9.1243  -17.5376   24.3835 O   0  0  0  0  0  0  0  0  0  0  0  0
    9.4968  -13.6042   27.5042 C   0  0  0  0  0  0  0  0  0  0  0  0
   10.1244  -14.6825   28.4024 C   0  0  2  0  0  0  0  0  0  0  0  0
   10.7125  -13.9646   29.5701 C   0  0  0  0  0  0  0  0  0  0  0  0
   11.0717  -15.4272   27.5423 C   0  0  0  0  0  0  0  0  0  0  0  0
   10.4199  -16.4372   26.6024 C   0  0  2  0  0  0  0  0  0  0  0  0
    9.8710  -15.7052   25.5009 N   0  0  0  0  0  0  0  0  0  0  0  0
    9.5117  -17.3321   27.3060 C   0  0  0  0  0  0  0  0  0  0  0  0
    8.1711  -17.3501   26.9940 O   0  0  0  0  0  0  0  0  0  0  0  0
    9.8750  -18.1107   28.2030 O   0  0  0  0  0  0  0  0  0  0  0  0
  2  1  1  0
  3  2  1  0
  3  5  1  0
  3  4  1  1
  5  6  2  0
  7  8  1  0
  7  5  1  0
  9 10  1  0
  8  9  1  1
 10 15  2  0
 11 12  2  0
 11 10  1  0
 12 13  1  0
 13 14  2  0
 15 14  1  0
 16  8  1  0
 16 17  2  0
 19 18  1  6
 19 21  1  0
 20 19  1  0
 22 21  1  1
 22 23  1  0
 22 24  1  0
 23 16  1  0
 24 25  1  0
 26 24  2  0
M  END
$$$$
