SFL.pdb
     RDKit          3D

 26 26  0  0  1  0  0  0  0  0999 V2000
   11.1841  -19.2902   22.0021 O   0  0  0  0  0  0  0  0  0  0  0  0
   11.8969  -18.4397   21.1697 C   0  0  0  0  0  0  0  0  0  0  0  0
   11.0621  -17.2747   20.6950 C   0  0  2  0  0  0  0  0  0  0  0  0
   11.8770  -16.4699   19.8171 N   0  0  0  0  0  0  0  0  0  0  0  0
   10.6924  -16.4847   21.9219 C   0  0  0  0  0  0  0  0  0  0  0  0
   11.5771  -15.7568   22.4455 O   0  0  0  0  0  0  0  0  0  0  0  0
    9.3895  -16.5513   22.4793 N   0  0  0  0  0  0  0  0  0  0  0  0
    9.0132  -15.7557   23.6282 C   0  0  1  0  0  0  0  0  0  0  0  0
    7.5598  -15.3382   23.5508 C   0  0  0  0  0  0  0  0  0  0  0  0
    7.1393  -14.4220   24.6034 C   0  0  0  0  0  0  0  0  0  0  0  0
    6.4379  -14.9011   25.6891 C   0  0  0  0  0  0  0  0  0  0  0  0
    6.0220  -14.0397   26.7125 C   0  0  0  0  0  0  0  0  0  0  0  0
    6.3132  -12.6956   26.6416 C   0  0  0  0  0  0  0  0  0  0  0  0
    7.0147  -12.2033   25.5603 C   0  0  0  0  0  0  0  0  0  0  0  0
    7.4218  -13.0784   24.5478 C   0  0  0  0  0  0  0  0  0  0  0  0
    9.3740  -16.4776   24.8472 C   0  0  0  0  0  0  0  0  0  0  0  0
    9.1095  -17.7008   24.9481 O   0  0  0  0  0  0  0  0  0  0  0  0
   12.1730  -14.1769   27.3045 C   0  0  0  0  0  0  0  0  0  0  0  0
   10.7369  -14.1864   27.8531 C   0  0  2  0  0  0  0  0  0  0  0  0
   10.6858  -13.1368   28.9115 C   0  0  0  0  0  0  0  0  0  0  0  0
   10.4785  -15.5767   28.2916 C   0  0  0  0  0  0  0  0  0  0  0  0
   10.3977  -16.5971   27.1601 C   0  0  2  0  0  0  0  0  0  0  0  0
   10.0252  -15.8903   25.9716 N   0  0  0  0  0  0  0  0  0  0  0  0
    9.5776  -17.7463   27.5175 C   0  0  0  0  0  0  0  0  0  0  0  0
    8.3727  -17.9645   26.8886 O   0  0  0  0  0  0  0  0  0  0  0  0
    9.9007  -18.5759   28.3836 O   0  0  0  0  0  0  0  0  0  0  0  0
  2  1  1  0
  3  2  1  0
  3  5  1  0
  3  4  1  6
  5  6  2  0
  7  8  1  0
  7  5  1  0
  9 10  1  0
  8  9  1  1
 10 15  2  0
 11 12  2  0
 11 10  1  0
 12 13  1  0
 13 14  2  0
 15 14  1  0
 16  8  1  0
 16 17  2  0
 19 18  1  1
 19 21  1  0
 20 19  1  0
 22 21  1  1
 22 23  1  0
 22 24  1  0
 23 16  1  0
 24 25  1  0
 26 24  2  0
M  END
$$$$
