SFL.pdb
     RDKit          3D

 26 26  0  0  1  0  0  0  0  0999 V2000
   11.7389  -18.9707   22.4111 O   0  0  0  0  0  0  0  0  0  0  0  0
   10.4594  -19.3178   22.0027 C   0  0  0  0  0  0  0  0  0  0  0  0
    9.8655  -18.2987   21.0602 C   0  0  2  0  0  0  0  0  0  0  0  0
   10.7870  -18.1128   19.9654 N   0  0  0  0  0  0  0  0  0  0  0  0
    9.7308  -17.0195   21.8424 C   0  0  0  0  0  0  0  0  0  0  0  0
   10.6223  -16.1414   21.6981 O   0  0  0  0  0  0  0  0  0  0  0  0
    8.6365  -16.8002   22.7181 N   0  0  0  0  0  0  0  0  0  0  0  0
    8.5213  -15.5885   23.5012 C   0  0  1  0  0  0  0  0  0  0  0  0
    7.1008  -15.3830   23.9833 C   0  0  0  0  0  0  0  0  0  0  0  0
    6.8816  -14.1306   24.6958 C   0  0  0  0  0  0  0  0  0  0  0  0
    7.3432  -12.9474   24.1599 C   0  0  0  0  0  0  0  0  0  0  0  0
    7.1457  -11.7314   24.8268 C   0  0  0  0  0  0  0  0  0  0  0  0
    6.4830  -11.7082   26.0337 C   0  0  0  0  0  0  0  0  0  0  0  0
    6.0159  -12.8854   26.5810 C   0  0  0  0  0  0  0  0  0  0  0  0
    6.2224  -14.0901   25.9008 C   0  0  0  0  0  0  0  0  0  0  0  0
    9.5263  -15.6092   24.5628 C   0  0  0  0  0  0  0  0  0  0  0  0
   10.5710  -14.9228   24.4450 O   0  0  0  0  0  0  0  0  0  0  0  0
   11.5617  -13.9501   27.2523 C   0  0  0  0  0  0  0  0  0  0  0  0
   10.1746  -14.3844   27.7529 C   0  0  2  0  0  0  0  0  0  0  0  0
    9.8979  -13.5749   28.9747 C   0  0  0  0  0  0  0  0  0  0  0  0
   10.2502  -15.8512   27.9382 C   0  0  0  0  0  0  0  0  0  0  0  0
   10.5017  -16.6430   26.6584 C   0  0  2  0  0  0  0  0  0  0  0  0
    9.4169  -16.3687   25.7647 N   0  0  0  0  0  0  0  0  0  0  0  0
   10.7823  -18.0461   26.9294 C   0  0  0  0  0  0  0  0  0  0  0  0
    9.9401  -19.0281   26.4592 O   0  0  0  0  0  0  0  0  0  0  0  0
   11.7661  -18.4348   27.5805 O   0  0  0  0  0  0  0  0  0  0  0  0
  2  1  1  0
  3  2  1  0
  3  5  1  0
  3  4  1  6
  5  6  2  0
  7  8  1  0
  7  5  1  0
  9 10  1  0
  8  9  1  1
 10 15  2  0
 11 12  2  0
 11 10  1  0
 12 13  1  0
 13 14  2  0
 15 14  1  0
 16  8  1  0
 16 17  2  0
 19 18  1  1
 19 21  1  0
 20 19  1  0
 22 21  1  1
 22 23  1  0
 22 24  1  0
 23 16  1  0
 24 25  1  0
 26 24  2  0
M  END
$$$$
