SFL.pdb
     RDKit          3D

 26 26  0  0  1  0  0  0  0  0999 V2000
   12.6261  -19.0104   21.2610 O   0  0  0  0  0  0  0  0  0  0  0  0
   11.3115  -18.6296   21.0348 C   0  0  0  0  0  0  0  0  0  0  0  0
   11.2058  -17.2019   20.5554 C   0  0  2  0  0  0  0  0  0  0  0  0
   12.5051  -16.7938   20.0784 N   0  0  0  0  0  0  0  0  0  0  0  0
   10.8142  -16.3764   21.7518 C   0  0  0  0  0  0  0  0  0  0  0  0
   11.7226  -15.7549   22.3645 O   0  0  0  0  0  0  0  0  0  0  0  0
    9.4655  -16.2945   22.1842 N   0  0  0  0  0  0  0  0  0  0  0  0
    9.0893  -15.5398   23.3604 C   0  0  1  0  0  0  0  0  0  0  0  0
    7.6535  -15.0679   23.2703 C   0  0  0  0  0  0  0  0  0  0  0  0
    7.2578  -14.1382   24.3207 C   0  0  0  0  0  0  0  0  0  0  0  0
    7.7002  -12.8333   24.2833 C   0  0  0  0  0  0  0  0  0  0  0  0
    7.3344  -11.9218   25.2822 C   0  0  0  0  0  0  0  0  0  0  0  0
    6.5226  -12.3259   26.3185 C   0  0  0  0  0  0  0  0  0  0  0  0
    6.0728  -13.6293   26.3677 C   0  0  0  0  0  0  0  0  0  0  0  0
    6.4485  -14.5254   25.3615 C   0  0  0  0  0  0  0  0  0  0  0  0
    9.3958  -16.3295   24.5520 C   0  0  0  0  0  0  0  0  0  0  0  0
    9.5443  -17.5724   24.4544 O   0  0  0  0  0  0  0  0  0  0  0  0
   11.3745  -13.9710   27.6475 C   0  0  0  0  0  0  0  0  0  0  0  0
    9.8859  -14.1954   27.9592 C   0  0  2  0  0  0  0  0  0  0  0  0
    9.5484  -13.2701   29.0792 C   0  0  0  0  0  0  0  0  0  0  0  0
    9.7421  -15.6428   28.2350 C   0  0  0  0  0  0  0  0  0  0  0  0
    9.9274  -16.5448   27.0183 C   0  0  2  0  0  0  0  0  0  0  0  0
    9.5471  -15.7891   25.8629 N   0  0  0  0  0  0  0  0  0  0  0  0
    9.2799  -17.8376   27.1921 C   0  0  0  0  0  0  0  0  0  0  0  0
    9.8404  -18.7928   28.0096 O   0  0  0  0  0  0  0  0  0  0  0  0
    8.2163  -18.1519   26.6330 O   0  0  0  0  0  0  0  0  0  0  0  0
  2  1  1  0
  3  2  1  0
  3  5  1  0
  3  4  1  1
  5  6  2  0
  7  8  1  0
  7  5  1  0
  9 10  1  0
  8  9  1  6
 10 15  2  0
 11 12  2  0
 11 10  1  0
 12 13  1  0
 13 14  2  0
 15 14  1  0
 16  8  1  0
 16 17  2  0
 19 18  1  1
 19 21  1  0
 20 19  1  0
 22 21  1  1
 22 23  1  0
 22 24  1  0
 23 16  1  0
 24 25  1  0
 26 24  2  0
M  END
$$$$
