SFL.pdb
     RDKit          3D

 26 26  0  0  1  0  0  0  0  0999 V2000
   10.4944  -19.9692   19.7913 O   0  0  0  0  0  0  0  0  0  0  0  0
   10.6688  -18.9169   20.6782 C   0  0  0  0  0  0  0  0  0  0  0  0
   10.1840  -17.6052   20.1091 C   0  0  2  0  0  0  0  0  0  0  0  0
   11.1775  -17.1283   19.1775 N   0  0  0  0  0  0  0  0  0  0  0  0
   10.0668  -16.6526   21.2688 C   0  0  0  0  0  0  0  0  0  0  0  0
   11.0617  -15.9309   21.5443 O   0  0  0  0  0  0  0  0  0  0  0  0
    8.8759  -16.5630   22.0345 N   0  0  0  0  0  0  0  0  0  0  0  0
    8.7212  -15.5811   23.0865 C   0  0  1  0  0  0  0  0  0  0  0  0
    7.2860  -15.1091   23.1862 C   0  0  0  0  0  0  0  0  0  0  0  0
    7.0310  -14.1833   24.2825 C   0  0  0  0  0  0  0  0  0  0  0  0
    6.3289  -14.6089   25.3898 C   0  0  0  0  0  0  0  0  0  0  0  0
    6.0705  -13.7370   26.4553 C   0  0  0  0  0  0  0  0  0  0  0  0
    6.5198  -12.4363   26.4047 C   0  0  0  0  0  0  0  0  0  0  0  0
    7.2237  -11.9976   25.3021 C   0  0  0  0  0  0  0  0  0  0  0  0
    7.4723  -12.8824   24.2476 C   0  0  0  0  0  0  0  0  0  0  0  0
    9.2705  -16.1223   24.3286 C   0  0  0  0  0  0  0  0  0  0  0  0
    9.0837  -17.3295   24.6185 O   0  0  0  0  0  0  0  0  0  0  0  0
    9.7301  -13.8551   29.7947 C   0  0  0  0  0  0  0  0  0  0  0  0
   10.3217  -15.0184   28.9821 C   0  0  2  0  0  0  0  0  0  0  0  0
   11.7565  -15.1181   29.3770 C   0  0  0  0  0  0  0  0  0  0  0  0
   10.0503  -14.7014   27.5617 C   0  0  0  0  0  0  0  0  0  0  0  0
   10.3833  -15.8241   26.5835 C   0  0  2  0  0  0  0  0  0  0  0  0
   10.0289  -15.3693   25.2727 N   0  0  0  0  0  0  0  0  0  0  0  0
    9.8210  -17.1001   27.0034 C   0  0  0  0  0  0  0  0  0  0  0  0
   10.6451  -18.1203   27.4217 O   0  0  0  0  0  0  0  0  0  0  0  0
    8.6029  -17.3429   27.0111 O   0  0  0  0  0  0  0  0  0  0  0  0
  2  1  1  0
  3  2  1  0
  3  5  1  0
  3  4  1  6
  5  6  2  0
  7  8  1  0
  7  5  1  0
  9 10  1  0
  8  9  1  1
 10 15  2  0
 11 12  2  0
 11 10  1  0
 12 13  1  0
 13 14  2  0
 15 14  1  0
 16  8  1  0
 16 17  2  0
 19 18  1  1
 19 21  1  0
 20 19  1  0
 22 21  1  1
 22 23  1  0
 22 24  1  0
 23 16  1  0
 24 25  1  0
 26 24  2  0
M  END
$$$$
