SFL.pdb
     RDKit          3D

 26 26  0  0  1  0  0  0  0  0999 V2000
    9.4217  -18.7165   20.6766 O   0  0  0  0  0  0  0  0  0  0  0  0
    8.4189  -18.0277   20.0100 C   0  0  0  0  0  0  0  0  0  0  0  0
    8.7831  -16.5824   19.7691 C   0  0  2  0  0  0  0  0  0  0  0  0
   10.0019  -16.5518   18.9971 N   0  0  0  0  0  0  0  0  0  0  0  0
    9.0163  -15.9681   21.1235 C   0  0  0  0  0  0  0  0  0  0  0  0
   10.2028  -15.8818   21.5374 O   0  0  0  0  0  0  0  0  0  0  0  0
    7.9388  -15.4977   21.9174 N   0  0  0  0  0  0  0  0  0  0  0  0
    8.1586  -14.8833   23.2092 C   0  0  1  0  0  0  0  0  0  0  0  0
    6.9543  -14.0734   23.6407 C   0  0  0  0  0  0  0  0  0  0  0  0
    7.0964  -13.4277   24.9396 C   0  0  0  0  0  0  0  0  0  0  0  0
    6.5142  -13.9936   26.0535 C   0  0  0  0  0  0  0  0  0  0  0  0
    6.6360  -13.3908   27.3122 C   0  0  0  0  0  0  0  0  0  0  0  0
    7.3445  -12.2179   27.4478 C   0  0  0  0  0  0  0  0  0  0  0  0
    7.9321  -11.6411   26.3407 C   0  0  0  0  0  0  0  0  0  0  0  0
    7.7999  -12.2573   25.0919 C   0  0  0  0  0  0  0  0  0  0  0  0
    8.5725  -15.9117   24.1623 C   0  0  0  0  0  0  0  0  0  0  0  0
    7.9539  -17.0033   24.2086 O   0  0  0  0  0  0  0  0  0  0  0  0
   12.9899  -17.1924   23.6038 C   0  0  0  0  0  0  0  0  0  0  0  0
   12.3271  -16.4836   24.7961 C   0  0  2  0  0  0  0  0  0  0  0  0
   13.4338  -16.0754   25.7088 C   0  0  0  0  0  0  0  0  0  0  0  0
   11.3424  -17.4439   25.3438 C   0  0  0  0  0  0  0  0  0  0  0  0
   10.1068  -16.8028   25.9688 C   0  0  2  0  0  0  0  0  0  0  0  0
    9.6587  -15.7766   25.0762 N   0  0  0  0  0  0  0  0  0  0  0  0
   10.3359  -16.4078   27.3516 C   0  0  0  0  0  0  0  0  0  0  0  0
   10.1359  -15.1041   27.7457 O   0  0  0  0  0  0  0  0  0  0  0  0
   10.7139  -17.1945   28.2354 O   0  0  0  0  0  0  0  0  0  0  0  0
  2  1  1  0
  3  2  1  0
  3  5  1  0
  3  4  1  6
  5  6  2  0
  7  8  1  0
  7  5  1  0
  9 10  1  0
  8  9  1  1
 10 15  2  0
 11 12  2  0
 11 10  1  0
 12 13  1  0
 13 14  2  0
 15 14  1  0
 16  8  1  0
 16 17  2  0
 19 18  1  6
 19 21  1  0
 20 19  1  0
 22 21  1  6
 22 23  1  0
 22 24  1  0
 23 16  1  0
 24 25  1  0
 26 24  2  0
M  END
$$$$
