SFL.pdb
     RDKit          3D

 26 26  0  0  1  0  0  0  0  0999 V2000
   10.4146  -14.6239   18.8618 O   0  0  0  0  0  0  0  0  0  0  0  0
    9.1432  -15.1605   19.0032 C   0  0  0  0  0  0  0  0  0  0  0  0
    8.1961  -14.2086   19.6934 C   0  0  2  0  0  0  0  0  0  0  0  0
    8.3528  -12.9071   19.0901 N   0  0  0  0  0  0  0  0  0  0  0  0
    8.6156  -14.1598   21.1384 C   0  0  0  0  0  0  0  0  0  0  0  0
    9.6008  -13.4370   21.4441 O   0  0  0  0  0  0  0  0  0  0  0  0
    7.9284  -14.9020   22.1331 N   0  0  0  0  0  0  0  0  0  0  0  0
    8.2836  -14.8067   23.5329 C   0  0  1  0  0  0  0  0  0  0  0  0
    7.0678  -14.9829   24.4179 C   0  0  0  0  0  0  0  0  0  0  0  0
    6.8049  -13.8614   25.3108 C   0  0  0  0  0  0  0  0  0  0  0  0
    7.3242  -12.6180   25.0206 C   0  0  0  0  0  0  0  0  0  0  0  0
    7.0863  -11.5253   25.8643 C   0  0  0  0  0  0  0  0  0  0  0  0
    6.3249  -11.6862   27.0004 C   0  0  0  0  0  0  0  0  0  0  0  0
    5.7992  -12.9255   27.3024 C   0  0  0  0  0  0  0  0  0  0  0  0
    6.0473  -14.0051   26.4482 C   0  0  0  0  0  0  0  0  0  0  0  0
    9.3779  -15.7352   23.8117 C   0  0  0  0  0  0  0  0  0  0  0  0
   10.3505  -15.8072   23.0211 O   0  0  0  0  0  0  0  0  0  0  0  0
   10.6192  -13.4773   27.6590 C   0  0  0  0  0  0  0  0  0  0  0  0
   10.2753  -14.9661   27.4897 C   0  0  2  0  0  0  0  0  0  0  0  0
   10.6286  -15.6269   28.7792 C   0  0  0  0  0  0  0  0  0  0  0  0
   11.0171  -15.4209   26.2920 C   0  0  0  0  0  0  0  0  0  0  0  0
   10.5974  -16.7897   25.7643 C   0  0  2  0  0  0  0  0  0  0  0  0
    9.4378  -16.5965   24.9466 N   0  0  0  0  0  0  0  0  0  0  0  0
   10.4849  -17.7758   26.8301 C   0  0  0  0  0  0  0  0  0  0  0  0
    9.2486  -18.2275   27.2332 O   0  0  0  0  0  0  0  0  0  0  0  0
   11.4636  -18.2569   27.4246 O   0  0  0  0  0  0  0  0  0  0  0  0
  2  1  1  0
  3  2  1  0
  3  5  1  0
  3  4  1  6
  5  6  2  0
  7  8  1  0
  7  5  1  0
  9 10  1  0
  8  9  1  1
 10 15  2  0
 11 12  2  0
 11 10  1  0
 12 13  1  0
 13 14  2  0
 15 14  1  0
 16  8  1  0
 16 17  2  0
 19 18  1  1
 19 21  1  0
 20 19  1  0
 22 21  1  1
 22 23  1  0
 22 24  1  0
 23 16  1  0
 24 25  1  0
 26 24  2  0
M  END
$$$$
