SFL.pdb
     RDKit          3D

 26 26  0  0  1  0  0  0  0  0999 V2000
   12.2939  -18.9322   21.8189 O   0  0  0  0  0  0  0  0  0  0  0  0
   11.1764  -18.7334   21.0214 C   0  0  0  0  0  0  0  0  0  0  0  0
   11.0951  -17.3204   20.4958 C   0  0  2  0  0  0  0  0  0  0  0  0
   12.4057  -16.9433   20.0242 N   0  0  0  0  0  0  0  0  0  0  0  0
   10.6978  -16.4527   21.6601 C   0  0  0  0  0  0  0  0  0  0  0  0
   11.5852  -15.7346   22.1925 O   0  0  0  0  0  0  0  0  0  0  0  0
    9.3666  -16.4374   22.1504 N   0  0  0  0  0  0  0  0  0  0  0  0
    8.9997  -15.6816   23.3288 C   0  0  1  0  0  0  0  0  0  0  0  0
    7.5647  -15.2056   23.2473 C   0  0  0  0  0  0  0  0  0  0  0  0
    7.1845  -14.2575   24.2869 C   0  0  0  0  0  0  0  0  0  0  0  0
    7.6347  -12.9561   24.2256 C   0  0  0  0  0  0  0  0  0  0  0  0
    7.2837  -12.0272   25.2136 C   0  0  0  0  0  0  0  0  0  0  0  0
    6.4789  -12.4101   26.2634 C   0  0  0  0  0  0  0  0  0  0  0  0
    6.0215  -13.7097   26.3366 C   0  0  0  0  0  0  0  0  0  0  0  0
    6.3823  -14.6235   25.3408 C   0  0  0  0  0  0  0  0  0  0  0  0
    9.3112  -16.4719   24.5186 C   0  0  0  0  0  0  0  0  0  0  0  0
    9.3843  -17.7225   24.4341 O   0  0  0  0  0  0  0  0  0  0  0  0
   11.4953  -14.2074   27.4643 C   0  0  0  0  0  0  0  0  0  0  0  0
   10.0264  -14.3351   27.8997 C   0  0  2  0  0  0  0  0  0  0  0  0
    9.8476  -13.4016   29.0490 C   0  0  0  0  0  0  0  0  0  0  0  0
    9.8088  -15.7726   28.1791 C   0  0  0  0  0  0  0  0  0  0  0  0
    9.9378  -16.6848   26.9627 C   0  0  2  0  0  0  0  0  0  0  0  0
    9.5488  -15.9241   25.8135 N   0  0  0  0  0  0  0  0  0  0  0  0
    9.2598  -17.9584   27.1598 C   0  0  0  0  0  0  0  0  0  0  0  0
    9.8026  -18.9156   27.9868 O   0  0  0  0  0  0  0  0  0  0  0  0
    8.1844  -18.2541   26.6130 O   0  0  0  0  0  0  0  0  0  0  0  0
  2  1  1  0
  3  2  1  0
  3  5  1  0
  3  4  1  1
  5  6  2  0
  7  8  1  0
  7  5  1  0
  9 10  1  0
  8  9  1  6
 10 15  2  0
 11 12  2  0
 11 10  1  0
 12 13  1  0
 13 14  2  0
 15 14  1  0
 16  8  1  0
 16 17  2  0
 19 18  1  1
 19 21  1  0
 20 19  1  0
 22 21  1  1
 22 23  1  0
 22 24  1  0
 23 16  1  0
 24 25  1  0
 26 24  2  0
M  END
$$$$
