SFL.pdb
     RDKit          3D

 26 26  0  0  1  0  0  0  0  0999 V2000
   12.2168  -18.9990   21.4266 O   0  0  0  0  0  0  0  0  0  0  0  0
   10.8712  -19.0235   21.0904 C   0  0  0  0  0  0  0  0  0  0  0  0
   10.4213  -17.7355   20.4439 C   0  0  2  0  0  0  0  0  0  0  0  0
   11.4463  -17.3193   19.5173 N   0  0  0  0  0  0  0  0  0  0  0  0
   10.2875  -16.7245   21.5513 C   0  0  0  0  0  0  0  0  0  0  0  0
   11.2345  -15.9132   21.7291 O   0  0  0  0  0  0  0  0  0  0  0  0
    9.1335  -16.6790   22.3752 N   0  0  0  0  0  0  0  0  0  0  0  0
    8.9898  -15.6957   23.4274 C   0  0  1  0  0  0  0  0  0  0  0  0
    7.5304  -15.4362   23.7366 C   0  0  0  0  0  0  0  0  0  0  0  0
    7.2929  -14.2877   24.6017 C   0  0  0  0  0  0  0  0  0  0  0  0
    7.8354  -13.0624   24.2786 C   0  0  0  0  0  0  0  0  0  0  0  0
    7.6220  -11.9444   25.0952 C   0  0  0  0  0  0  0  0  0  0  0  0
    6.8619  -12.0616   26.2375 C   0  0  0  0  0  0  0  0  0  0  0  0
    6.3132  -13.2824   26.5724 C   0  0  0  0  0  0  0  0  0  0  0  0
    6.5370  -14.3877   25.7449 C   0  0  0  0  0  0  0  0  0  0  0  0
    9.7907  -16.1085   24.5787 C   0  0  0  0  0  0  0  0  0  0  0  0
   10.9707  -16.5020   24.4077 O   0  0  0  0  0  0  0  0  0  0  0  0
   10.9572  -13.6289   27.6575 C   0  0  0  0  0  0  0  0  0  0  0  0
    9.5413  -14.1825   27.8858 C   0  0  2  0  0  0  0  0  0  0  0  0
    8.9175  -13.3195   28.9301 C   0  0  0  0  0  0  0  0  0  0  0  0
    9.7145  -15.6119   28.2303 C   0  0  0  0  0  0  0  0  0  0  0  0
   10.1099  -16.5062   27.0589 C   0  0  2  0  0  0  0  0  0  0  0  0
    9.3302  -16.1009   25.9282 N   0  0  0  0  0  0  0  0  0  0  0  0
   10.0625  -17.9190   27.4091 C   0  0  0  0  0  0  0  0  0  0  0  0
    9.1182  -18.7454   26.8431 O   0  0  0  0  0  0  0  0  0  0  0  0
   10.8442  -18.4521   28.2138 O   0  0  0  0  0  0  0  0  0  0  0  0
  2  1  1  0
  3  2  1  0
  3  5  1  0
  3  4  1  6
  5  6  2  0
  7  8  1  0
  7  5  1  0
  9 10  1  0
  8  9  1  1
 10 15  2  0
 11 12  2  0
 11 10  1  0
 12 13  1  0
 13 14  2  0
 15 14  1  0
 16  8  1  0
 16 17  2  0
 19 18  1  1
 19 21  1  0
 20 19  1  0
 22 21  1  1
 22 23  1  0
 22 24  1  0
 23 16  1  0
 24 25  1  0
 26 24  2  0
M  END
$$$$
