SFL.pdb
     RDKit          3D

 26 26  0  0  1  0  0  0  0  0999 V2000
    9.8532  -21.2323   22.4387 O   0  0  0  0  0  0  0  0  0  0  0  0
    9.1058  -20.3264   23.1769 C   0  0  0  0  0  0  0  0  0  0  0  0
    8.3833  -19.3334   22.2985 C   0  0  2  0  0  0  0  0  0  0  0  0
    8.5702  -19.7339   20.9248 N   0  0  0  0  0  0  0  0  0  0  0  0
    9.0338  -17.9972   22.5381 C   0  0  0  0  0  0  0  0  0  0  0  0
   10.2343  -17.8520   22.1851 O   0  0  0  0  0  0  0  0  0  0  0  0
    8.3247  -16.9275   23.1426 N   0  0  0  0  0  0  0  0  0  0  0  0
    8.8689  -15.5873   23.1922 C   0  0  1  0  0  0  0  0  0  0  0  0
    7.7831  -14.5496   23.0002 C   0  0  0  0  0  0  0  0  0  0  0  0
    7.3097  -13.9374   24.2352 C   0  0  0  0  0  0  0  0  0  0  0  0
    6.5522  -14.6753   25.1194 C   0  0  0  0  0  0  0  0  0  0  0  0
    6.0848  -14.1082   26.3120 C   0  0  0  0  0  0  0  0  0  0  0  0
    6.3810  -12.7976   26.6133 C   0  0  0  0  0  0  0  0  0  0  0  0
    7.1383  -12.0480   25.7368 C   0  0  0  0  0  0  0  0  0  0  0  0
    7.5964  -12.6311   24.5507 C   0  0  0  0  0  0  0  0  0  0  0  0
    9.6462  -15.4333   24.4208 C   0  0  0  0  0  0  0  0  0  0  0  0
   10.5936  -14.6103   24.4594 O   0  0  0  0  0  0  0  0  0  0  0  0
   11.3521  -13.7150   27.2157 C   0  0  0  0  0  0  0  0  0  0  0  0
    9.9686  -14.2439   27.6274 C   0  0  2  0  0  0  0  0  0  0  0  0
    9.5480  -13.4398   28.8111 C   0  0  0  0  0  0  0  0  0  0  0  0
   10.1380  -15.6983   27.8460 C   0  0  0  0  0  0  0  0  0  0  0  0
   10.4192  -16.5042   26.5812 C   0  0  2  0  0  0  0  0  0  0  0  0
    9.4111  -16.1633   25.6230 N   0  0  0  0  0  0  0  0  0  0  0  0
   10.5951  -17.9220   26.8639 C   0  0  0  0  0  0  0  0  0  0  0  0
   11.6239  -18.3483   27.6729 O   0  0  0  0  0  0  0  0  0  0  0  0
    9.8537  -18.8085   26.4088 O   0  0  0  0  0  0  0  0  0  0  0  0
  2  1  1  0
  3  2  1  0
  3  5  1  0
  3  4  1  6
  5  6  2  0
  7  8  1  0
  7  5  1  0
  9 10  1  0
  8  9  1  1
 10 15  2  0
 11 12  2  0
 11 10  1  0
 12 13  1  0
 13 14  2  0
 15 14  1  0
 16  8  1  0
 16 17  2  0
 19 18  1  1
 19 21  1  0
 20 19  1  0
 22 21  1  1
 22 23  1  0
 22 24  1  0
 23 16  1  0
 24 25  1  0
 26 24  2  0
M  END
$$$$
