SYH.pdb
     RDKit          3D

 29 30  0  0  1  0  0  0  0  0999 V2000
   31.3159  -10.2394  -23.1765 O   0  0  0  0  0  0  0  0  0  0  0  0
   30.1536   -9.9369  -22.4390 C   0  0  0  0  0  0  0  0  0  0  0  0
   30.2167  -10.7677  -21.1829 C   0  0  2  0  0  0  0  0  0  0  0  0
   30.0604  -12.1536  -21.5720 N   0  0  0  0  0  0  0  0  0  0  0  0
   29.1987  -10.4276  -20.1973 C   0  0  0  0  0  0  0  0  0  0  0  0
   28.0202  -10.8181  -20.3725 O   0  0  0  0  0  0  0  0  0  0  0  0
   28.4467  -15.5507  -16.2163 O   0  0  0  0  0  0  0  0  0  0  0  0
   28.5679  -14.1743  -16.3490 C   0  0  0  0  0  0  0  0  0  0  0  0
   27.5542  -13.3746  -15.8632 C   0  0  0  0  0  0  0  0  0  0  0  0
   27.6336  -11.9859  -15.9749 C   0  0  0  0  0  0  0  0  0  0  0  0
   28.7121  -11.3687  -16.5662 C   0  0  0  0  0  0  0  0  0  0  0  0
   28.8082   -9.9239  -16.6903 C   0  0  0  0  0  0  0  0  0  0  0  0
   28.4023   -9.3973  -18.0342 C   0  0  2  0  0  0  0  0  0  0  0  0
   29.4464   -9.6642  -19.0172 N   0  0  0  0  0  0  0  0  0  0  0  0
   28.0322   -7.9743  -18.0066 C   0  0  0  0  0  0  0  0  0  0  0  0
   28.9079   -7.1114  -18.2881 O   0  0  0  0  0  0  0  0  0  0  0  0
   29.7194  -12.2024  -17.0470 C   0  0  0  0  0  0  0  0  0  0  0  0
   29.6435  -13.5658  -16.9384 C   0  0  0  0  0  0  0  0  0  0  0  0
   26.7332   -7.5209  -17.6777 N   0  0  0  0  0  0  0  0  0  0  0  0
   26.4099   -6.1118  -17.8094 C   0  0  1  0  0  0  0  0  0  0  0  0
   26.7039   -5.6849  -19.2247 C   0  0  0  0  0  0  0  0  0  0  0  0
   26.3193   -4.3074  -19.5312 C   0  0  0  0  0  0  0  0  0  0  0  0
   26.3246   -3.2932  -18.5879 C   0  0  0  0  0  0  0  0  0  0  0  0
   25.9261   -2.1429  -19.1580 N   0  0  0  0  0  0  0  0  0  0  0  0
   25.6718   -2.4198  -20.4411 C   0  0  0  0  0  0  0  0  0  0  0  0
   25.9067   -3.7175  -20.6684 N   0  0  0  0  0  0  0  0  0  0  0  0
   24.9664   -5.9823  -17.4909 C   0  0  0  0  0  0  0  0  0  0  0  0
   24.4415   -4.8376  -17.5521 O   0  0  0  0  0  0  0  0  0  0  0  0
   24.1453   -7.0333  -17.1291 O   0  0  0  0  0  0  0  0  0  0  0  0
  1  2  1  0
  2  3  1  0
  3  4  1  6
  5  3  1  0
  5  6  2  0
  7  8  1  0
  8  9  2  0
  9 10  1  0
 11 10  2  0
 11 12  1  0
 13 12  1  1
 13 14  1  0
 14  5  1  0
 15 13  1  0
 16 15  2  0
 17 11  1  0
 18  8  1  0
 18 17  2  0
 19 15  1  0
 20 21  1  6
 20 19  1  0
 21 22  1  0
 22 26  1  0
 23 22  2  0
 23 24  1  0
 24 25  1  0
 26 25  2  0
 27 29  1  0
 27 20  1  0
 28 27  2  0
M  END
$$$$
