SYH.pdb
     RDKit          3D

 29 30  0  0  1  0  0  0  0  0999 V2000
   23.0069  -19.8320  -19.0340 O   0  0  0  0  0  0  0  0  0  0  0  0
   23.8599  -18.7114  -18.9802 C   0  0  0  0  0  0  0  0  0  0  0  0
   24.3749  -18.6344  -17.5656 C   0  0  2  0  0  0  0  0  0  0  0  0
   25.1673  -19.8226  -17.3279 N   0  0  0  0  0  0  0  0  0  0  0  0
   23.3255  -18.5473  -16.5583 C   0  0  0  0  0  0  0  0  0  0  0  0
   23.3622  -19.3130  -15.5661 O   0  0  0  0  0  0  0  0  0  0  0  0
   20.1272  -12.3307  -19.1463 O   0  0  0  0  0  0  0  0  0  0  0  0
   20.4297  -13.2456  -18.1471 C   0  0  0  0  0  0  0  0  0  0  0  0
   19.3900  -13.8696  -17.4895 C   0  0  0  0  0  0  0  0  0  0  0  0
   19.6472  -14.7962  -16.4784 C   0  0  0  0  0  0  0  0  0  0  0  0
   20.9312  -15.1190  -16.1031 C   0  0  0  0  0  0  0  0  0  0  0  0
   21.2144  -16.0814  -15.0516 C   0  0  0  0  0  0  0  0  0  0  0  0
   21.2726  -17.5033  -15.5237 C   0  0  2  0  0  0  0  0  0  0  0  0
   22.2306  -17.6337  -16.6158 N   0  0  0  0  0  0  0  0  0  0  0  0
   19.9541  -18.0424  -15.8894 C   0  0  0  0  0  0  0  0  0  0  0  0
   19.6882  -18.2274  -17.1083 O   0  0  0  0  0  0  0  0  0  0  0  0
   21.9598  -14.4726  -16.7853 C   0  0  0  0  0  0  0  0  0  0  0  0
   21.7095  -13.5627  -17.7782 C   0  0  0  0  0  0  0  0  0  0  0  0
   18.9612  -18.3665  -14.9354 N   0  0  0  0  0  0  0  0  0  0  0  0
   17.6836  -18.8936  -15.3797 C   0  0  1  0  0  0  0  0  0  0  0  0
   17.9175  -20.2415  -16.0123 C   0  0  0  0  0  0  0  0  0  0  0  0
   16.7025  -20.9054  -16.4837 C   0  0  0  0  0  0  0  0  0  0  0  0
   15.4424  -20.3400  -16.3783 C   0  0  0  0  0  0  0  0  0  0  0  0
   14.5260  -21.1776  -16.8935 N   0  0  0  0  0  0  0  0  0  0  0  0
   15.1906  -22.2568  -17.3193 C   0  0  0  0  0  0  0  0  0  0  0  0
   16.4965  -22.0969  -17.0750 N   0  0  0  0  0  0  0  0  0  0  0  0
   16.8318  -19.0014  -14.1695 C   0  0  0  0  0  0  0  0  0  0  0  0
   15.6075  -18.7187  -14.2735 O   0  0  0  0  0  0  0  0  0  0  0  0
   17.2843  -19.3930  -12.9238 O   0  0  0  0  0  0  0  0  0  0  0  0
  1  2  1  0
  2  3  1  0
  3  4  1  1
  5  3  1  0
  5  6  2  0
  7  8  1  0
  8  9  2  0
  9 10  1  0
 11 10  2  0
 11 12  1  0
 13 12  1  6
 13 14  1  0
 14  5  1  0
 15 13  1  0
 16 15  2  0
 17 11  1  0
 18  8  1  0
 18 17  2  0
 19 15  1  0
 20 21  1  1
 20 19  1  0
 21 22  1  0
 22 26  1  0
 23 22  2  0
 23 24  1  0
 24 25  1  0
 26 25  2  0
 27 29  1  0
 27 20  1  0
 28 27  2  0
M  END
$$$$
