SYH.pdb
     RDKit          3D

 29 30  0  0  1  0  0  0  0  0999 V2000
   18.4295  -23.0174  -13.6072 O   0  0  0  0  0  0  0  0  0  0  0  0
   19.8084  -22.9667  -13.3203 C   0  0  0  0  0  0  0  0  0  0  0  0
   20.4286  -24.1648  -13.9926 C   0  0  2  0  0  0  0  0  0  0  0  0
   20.0320  -24.1337  -15.3848 N   0  0  0  0  0  0  0  0  0  0  0  0
   20.0340  -25.4404  -13.4090 C   0  0  0  0  0  0  0  0  0  0  0  0
   19.0373  -26.0446  -13.8712 O   0  0  0  0  0  0  0  0  0  0  0  0
   24.0581  -30.0974  -16.1742 O   0  0  0  0  0  0  0  0  0  0  0  0
   23.4413  -29.6091  -15.0306 C   0  0  0  0  0  0  0  0  0  0  0  0
   22.4701  -30.3802  -14.4264 C   0  0  0  0  0  0  0  0  0  0  0  0
   21.8237  -29.9291  -13.2750 C   0  0  0  0  0  0  0  0  0  0  0  0
   22.1261  -28.7136  -12.7051 C   0  0  0  0  0  0  0  0  0  0  0  0
   21.4609  -28.2306  -11.5067 C   0  0  0  0  0  0  0  0  0  0  0  0
   20.2766  -27.3516  -11.7771 C   0  0  2  0  0  0  0  0  0  0  0  0
   20.7125  -26.0714  -12.3236 N   0  0  0  0  0  0  0  0  0  0  0  0
   19.4112  -27.1748  -10.6013 C   0  0  0  0  0  0  0  0  0  0  0  0
   19.6865  -26.2640   -9.7735 O   0  0  0  0  0  0  0  0  0  0  0  0
   23.1108  -27.9578  -13.3378 C   0  0  0  0  0  0  0  0  0  0  0  0
   23.7466  -28.3987  -14.4682 C   0  0  0  0  0  0  0  0  0  0  0  0
   18.2764  -27.9812  -10.3500 N   0  0  0  0  0  0  0  0  0  0  0  0
   17.3595  -27.6182   -9.2846 C   0  0  1  0  0  0  0  0  0  0  0  0
   16.0551  -27.1866   -9.9040 C   0  0  0  0  0  0  0  0  0  0  0  0
   15.8905  -25.7374  -10.0152 C   0  0  0  0  0  0  0  0  0  0  0  0
   16.7901  -24.8310   -9.4789 C   0  0  0  0  0  0  0  0  0  0  0  0
   16.3786  -23.5778   -9.7379 N   0  0  0  0  0  0  0  0  0  0  0  0
   15.2376  -23.6845  -10.4266 C   0  0  0  0  0  0  0  0  0  0  0  0
   14.9418  -24.9787  -10.5948 N   0  0  0  0  0  0  0  0  0  0  0  0
   17.1890  -28.8317   -8.4478 C   0  0  0  0  0  0  0  0  0  0  0  0
   16.9508  -29.9269   -9.0252 O   0  0  0  0  0  0  0  0  0  0  0  0
   17.2732  -28.8519   -7.0686 O   0  0  0  0  0  0  0  0  0  0  0  0
  1  2  1  0
  2  3  1  0
  3  4  1  6
  5  3  1  0
  5  6  2  0
  7  8  1  0
  8  9  2  0
  9 10  1  0
 11 10  2  0
 11 12  1  0
 13 12  1  1
 13 14  1  0
 14  5  1  0
 15 13  1  0
 16 15  2  0
 17 11  1  0
 18  8  1  0
 18 17  2  0
 19 15  1  0
 20 21  1  6
 20 19  1  0
 21 22  1  0
 22 26  1  0
 23 22  2  0
 23 24  1  0
 24 25  1  0
 26 25  2  0
 27 29  1  0
 27 20  1  0
 28 27  2  0
M  END
$$$$
