SYH.pdb
     RDKit          3D

 29 30  0  0  1  0  0  0  0  0999 V2000
   45.6354  -10.8186   -4.5054 O   0  0  0  0  0  0  0  0  0  0  0  0
   44.7264  -10.1466   -5.3472 C   0  0  0  0  0  0  0  0  0  0  0  0
   44.0727  -11.2037   -6.1999 C   0  0  2  0  0  0  0  0  0  0  0  0
   45.0880  -11.7356   -7.0845 N   0  0  0  0  0  0  0  0  0  0  0  0
   42.9527  -10.7140   -6.9933 C   0  0  0  0  0  0  0  0  0  0  0  0
   43.1647  -10.2737   -8.1479 O   0  0  0  0  0  0  0  0  0  0  0  0
   35.2412   -6.3949   -7.7134 O   0  0  0  0  0  0  0  0  0  0  0  0
   36.2123   -7.3444   -7.4267 C   0  0  0  0  0  0  0  0  0  0  0  0
   36.7586   -8.0627   -8.4701 C   0  0  0  0  0  0  0  0  0  0  0  0
   37.7376   -9.0272   -8.2286 C   0  0  0  0  0  0  0  0  0  0  0  0
   38.1900   -9.2956   -6.9570 C   0  0  0  0  0  0  0  0  0  0  0  0
   39.2084  -10.2975   -6.6902 C   0  0  0  0  0  0  0  0  0  0  0  0
   40.5559   -9.9658   -7.2580 C   0  0  2  0  0  0  0  0  0  0  0  0
   41.5978  -10.6967   -6.5455 N   0  0  0  0  0  0  0  0  0  0  0  0
   40.8280   -8.5209   -7.2872 C   0  0  0  0  0  0  0  0  0  0  0  0
   41.1952   -7.9485   -6.2250 O   0  0  0  0  0  0  0  0  0  0  0  0
   37.6197   -8.5543   -5.9244 C   0  0  0  0  0  0  0  0  0  0  0  0
   36.6585   -7.6069   -6.1593 C   0  0  0  0  0  0  0  0  0  0  0  0
   40.6976   -7.7344   -8.4557 N   0  0  0  0  0  0  0  0  0  0  0  0
   40.9718   -6.3100   -8.3966 C   0  0  1  0  0  0  0  0  0  0  0  0
   42.1191   -6.0060   -9.3256 C   0  0  0  0  0  0  0  0  0  0  0  0
   42.4766   -4.5896   -9.3989 C   0  0  0  0  0  0  0  0  0  0  0  0
   42.8331   -3.8413   -8.2892 C   0  0  0  0  0  0  0  0  0  0  0  0
   43.1066   -2.5794   -8.6630 N   0  0  0  0  0  0  0  0  0  0  0  0
   42.9275   -2.5253   -9.9869 C   0  0  0  0  0  0  0  0  0  0  0  0
   42.5495   -3.7295  -10.4316 N   0  0  0  0  0  0  0  0  0  0  0  0
   39.7273   -5.6262   -8.8274 C   0  0  0  0  0  0  0  0  0  0  0  0
   39.3545   -4.6055   -8.1882 O   0  0  0  0  0  0  0  0  0  0  0  0
   38.9382   -6.0281   -9.8884 O   0  0  0  0  0  0  0  0  0  0  0  0
  1  2  1  0
  2  3  1  0
  3  4  1  6
  5  3  1  0
  5  6  2  0
  7  8  1  0
  8  9  2  0
  9 10  1  0
 11 10  2  0
 11 12  1  0
 13 12  1  1
 13 14  1  0
 14  5  1  0
 15 13  1  0
 16 15  2  0
 17 11  1  0
 18  8  1  0
 18 17  2  0
 19 15  1  0
 20 21  1  6
 20 19  1  0
 21 22  1  0
 22 26  1  0
 23 22  2  0
 23 24  1  0
 24 25  1  0
 26 25  2  0
 27 29  1  0
 27 20  1  0
 28 27  2  0
M  END
$$$$
