SYH.pdb
     RDKit          3D

 29 30  0  0  1  0  0  0  0  0999 V2000
   17.6210  -15.9839  -15.1611 O   0  0  0  0  0  0  0  0  0  0  0  0
   18.2273  -14.7141  -15.2414 C   0  0  0  0  0  0  0  0  0  0  0  0
   18.4968  -14.4613  -16.7027 C   0  0  2  0  0  0  0  0  0  0  0  0
   19.5040  -15.4105  -17.1279 N   0  0  0  0  0  0  0  0  0  0  0  0
   18.9571  -13.1096  -16.9938 C   0  0  0  0  0  0  0  0  0  0  0  0
   20.1881  -12.8825  -17.0647 O   0  0  0  0  0  0  0  0  0  0  0  0
   19.2454   -4.6225  -19.5732 O   0  0  0  0  0  0  0  0  0  0  0  0
   18.8710   -5.9317  -19.3036 C   0  0  0  0  0  0  0  0  0  0  0  0
   17.9895   -6.1641  -18.2683 C   0  0  0  0  0  0  0  0  0  0  0  0
   17.5856   -7.4640  -17.9616 C   0  0  0  0  0  0  0  0  0  0  0  0
   18.0450   -8.5501  -18.6708 C   0  0  0  0  0  0  0  0  0  0  0  0
   17.6337   -9.9095  -18.3625 C   0  0  0  0  0  0  0  0  0  0  0  0
   18.6049  -10.6619  -17.5029 C   0  0  2  0  0  0  0  0  0  0  0  0
   18.0919  -11.9955  -17.2100 N   0  0  0  0  0  0  0  0  0  0  0  0
   18.9683   -9.9373  -16.2759 C   0  0  0  0  0  0  0  0  0  0  0  0
   18.2635  -10.0974  -15.2423 O   0  0  0  0  0  0  0  0  0  0  0  0
   18.9337   -8.2837  -19.7101 C   0  0  0  0  0  0  0  0  0  0  0  0
   19.3315   -7.0083  -20.0129 C   0  0  0  0  0  0  0  0  0  0  0  0
   20.0773   -9.0628  -16.1958 N   0  0  0  0  0  0  0  0  0  0  0  0
   20.4214   -8.4544  -14.9234 C   0  0  1  0  0  0  0  0  0  0  0  0
   21.1066   -9.4899  -14.0691 C   0  0  0  0  0  0  0  0  0  0  0  0
   22.3003  -10.0783  -14.6759 C   0  0  0  0  0  0  0  0  0  0  0  0
   22.7257   -9.7726  -15.9581 C   0  0  0  0  0  0  0  0  0  0  0  0
   23.8444  -10.4625  -16.2403 N   0  0  0  0  0  0  0  0  0  0  0  0
   24.1261  -11.1942  -15.1573 C   0  0  0  0  0  0  0  0  0  0  0  0
   23.2018  -10.9662  -14.2168 N   0  0  0  0  0  0  0  0  0  0  0  0
   21.3261   -7.3198  -15.2332 C   0  0  0  0  0  0  0  0  0  0  0  0
   21.6505   -7.1255  -16.4360 O   0  0  0  0  0  0  0  0  0  0  0  0
   21.8448   -6.4504  -14.2925 O   0  0  0  0  0  0  0  0  0  0  0  0
  1  2  1  0
  2  3  1  0
  3  4  1  1
  5  3  1  0
  5  6  2  0
  7  8  1  0
  8  9  2  0
  9 10  1  0
 11 10  2  0
 11 12  1  0
 13 12  1  1
 13 14  1  0
 14  5  1  0
 15 13  1  0
 16 15  2  0
 17 11  1  0
 18  8  1  0
 18 17  2  0
 19 15  1  0
 20 21  1  1
 20 19  1  0
 21 22  1  0
 22 26  1  0
 23 22  2  0
 23 24  1  0
 24 25  1  0
 26 25  2  0
 27 29  1  0
 27 20  1  0
 28 27  2  0
M  END
$$$$
