SYH.pdb
     RDKit          3D

 29 30  0  0  1  0  0  0  0  0999 V2000
   28.4485  -34.8364  -15.9521 O   0  0  0  0  0  0  0  0  0  0  0  0
   27.5339  -33.8512  -16.3754 C   0  0  0  0  0  0  0  0  0  0  0  0
   27.7630  -32.6495  -15.4949 C   0  0  2  0  0  0  0  0  0  0  0  0
   29.0426  -32.0806  -15.8627 N   0  0  0  0  0  0  0  0  0  0  0  0
   27.7638  -32.9525  -14.0695 C   0  0  0  0  0  0  0  0  0  0  0  0
   28.5824  -32.3707  -13.3189 O   0  0  0  0  0  0  0  0  0  0  0  0
   25.5385  -33.1526   -5.7748 O   0  0  0  0  0  0  0  0  0  0  0  0
   25.7968  -33.0491   -7.1347 C   0  0  0  0  0  0  0  0  0  0  0  0
   24.7402  -33.1560   -8.0152 C   0  0  0  0  0  0  0  0  0  0  0  0
   24.9532  -33.0581   -9.3907 C   0  0  0  0  0  0  0  0  0  0  0  0
   26.2090  -32.8538   -9.9152 C   0  0  0  0  0  0  0  0  0  0  0  0
   26.4460  -32.7506  -11.3453 C   0  0  0  0  0  0  0  0  0  0  0  0
   26.8235  -34.0468  -11.9976 C   0  0  2  0  0  0  0  0  0  0  0  0
   26.8815  -33.8850  -13.4460 N   0  0  0  0  0  0  0  0  0  0  0  0
   25.9474  -35.1625  -11.6096 C   0  0  0  0  0  0  0  0  0  0  0  0
   24.7343  -35.1328  -11.9536 O   0  0  0  0  0  0  0  0  0  0  0  0
   27.2554  -32.7500   -9.0013 C   0  0  0  0  0  0  0  0  0  0  0  0
   27.0486  -32.8458   -7.6506 C   0  0  0  0  0  0  0  0  0  0  0  0
   26.4002  -36.2761  -10.8641 N   0  0  0  0  0  0  0  0  0  0  0  0
   25.4556  -37.3023  -10.4611 C   0  0  1  0  0  0  0  0  0  0  0  0
   25.8691  -38.6064  -11.0935 C   0  0  0  0  0  0  0  0  0  0  0  0
   25.0116  -39.7410  -10.7518 C   0  0  0  0  0  0  0  0  0  0  0  0
   23.6351  -39.7214  -10.9048 C   0  0  0  0  0  0  0  0  0  0  0  0
   23.1192  -40.8985  -10.5108 N   0  0  0  0  0  0  0  0  0  0  0  0
   24.1487  -41.6538  -10.1142 C   0  0  0  0  0  0  0  0  0  0  0  0
   25.2855  -40.9625  -10.2574 N   0  0  0  0  0  0  0  0  0  0  0  0
   25.5196  -37.3716   -8.9803 C   0  0  0  0  0  0  0  0  0  0  0  0
   24.7542  -38.1784   -8.3863 O   0  0  0  0  0  0  0  0  0  0  0  0
   26.3646  -36.6105   -8.1950 O   0  0  0  0  0  0  0  0  0  0  0  0
  1  2  1  0
  2  3  1  0
  3  4  1  6
  5  3  1  0
  5  6  2  0
  7  8  1  0
  8  9  2  0
  9 10  1  0
 11 10  2  0
 11 12  1  0
 13 12  1  1
 13 14  1  0
 14  5  1  0
 15 13  1  0
 16 15  2  0
 17 11  1  0
 18  8  1  0
 18 17  2  0
 19 15  1  0
 20 21  1  6
 20 19  1  0
 21 22  1  0
 22 26  1  0
 23 22  2  0
 23 24  1  0
 24 25  1  0
 26 25  2  0
 27 29  1  0
 27 20  1  0
 28 27  2  0
M  END
$$$$
