SYH.pdb
     RDKit          3D

 29 30  0  0  1  0  0  0  0  0999 V2000
   24.6459  -18.0157   10.3787 O   0  0  0  0  0  0  0  0  0  0  0  0
   26.0343  -18.0728   10.6138 C   0  0  0  0  0  0  0  0  0  0  0  0
   26.2440  -19.1164   11.6810 C   0  0  2  0  0  0  0  0  0  0  0  0
   25.5867  -18.6457   12.8821 N   0  0  0  0  0  0  0  0  0  0  0  0
   27.6452  -19.3881   11.9751 C   0  0  0  0  0  0  0  0  0  0  0  0
   28.1600  -18.9036   13.0105 O   0  0  0  0  0  0  0  0  0  0  0  0
   27.3206  -21.9832   17.7711 O   0  0  0  0  0  0  0  0  0  0  0  0
   27.5320  -22.0543   16.4011 C   0  0  0  0  0  0  0  0  0  0  0  0
   26.5589  -22.6350   15.6143 C   0  0  0  0  0  0  0  0  0  0  0  0
   26.7290  -22.7280   14.2325 C   0  0  0  0  0  0  0  0  0  0  0  0
   27.8591  -22.2504   13.6094 C   0  0  0  0  0  0  0  0  0  0  0  0
   28.0503  -22.3410   12.1715 C   0  0  0  0  0  0  0  0  0  0  0  0
   29.1052  -21.4198   11.6359 C   0  0  2  0  0  0  0  0  0  0  0  0
   28.4987  -20.1840   11.1537 N   0  0  0  0  0  0  0  0  0  0  0  0
   29.9498  -22.0480   10.6089 C   0  0  0  0  0  0  0  0  0  0  0  0
   30.5487  -23.1228   10.8863 O   0  0  0  0  0  0  0  0  0  0  0  0
   28.8236  -21.6696   14.4300 C   0  0  0  0  0  0  0  0  0  0  0  0
   28.6587  -21.5772   15.7868 C   0  0  0  0  0  0  0  0  0  0  0  0
   30.1259  -21.5034    9.3153 N   0  0  0  0  0  0  0  0  0  0  0  0
   31.4073  -20.9297    8.9462 C   0  0  1  0  0  0  0  0  0  0  0  0
   31.6783  -19.7497    9.8439 C   0  0  0  0  0  0  0  0  0  0  0  0
   30.9242  -18.5445    9.4998 C   0  0  0  0  0  0  0  0  0  0  0  0
   30.0328  -18.4868    8.4413 C   0  0  0  0  0  0  0  0  0  0  0  0
   29.4934  -17.2576    8.3703 N   0  0  0  0  0  0  0  0  0  0  0  0
   30.0317  -16.5456    9.3657 C   0  0  0  0  0  0  0  0  0  0  0  0
   30.8905  -17.3146   10.0454 N   0  0  0  0  0  0  0  0  0  0  0  0
   32.4159  -22.0012    9.1372 C   0  0  0  0  0  0  0  0  0  0  0  0
   32.0270  -23.1158    9.5800 O   0  0  0  0  0  0  0  0  0  0  0  0
   33.7638  -21.8680    8.8627 O   0  0  0  0  0  0  0  0  0  0  0  0
  1  2  1  0
  2  3  1  0
  3  4  1  1
  5  3  1  0
  5  6  2  0
  7  8  1  0
  8  9  2  0
  9 10  1  0
 11 10  2  0
 11 12  1  0
 13 12  1  6
 13 14  1  0
 14  5  1  0
 15 13  1  0
 16 15  2  0
 17 11  1  0
 18  8  1  0
 18 17  2  0
 19 15  1  0
 20 21  1  1
 20 19  1  0
 21 22  1  0
 22 26  1  0
 23 22  2  0
 23 24  1  0
 24 25  1  0
 26 25  2  0
 27 29  1  0
 27 20  1  0
 28 27  2  0
M  END
$$$$
