SYH.pdb
     RDKit          3D

 29 30  0  0  1  0  0  0  0  0999 V2000
   41.4523  -23.2547    3.3948 O   0  0  0  0  0  0  0  0  0  0  0  0
   41.3058  -24.6541    3.3133 C   0  0  0  0  0  0  0  0  0  0  0  0
   41.8033  -25.2123    4.6220 C   0  0  2  0  0  0  0  0  0  0  0  0
   42.4244  -26.4895    4.3400 N   0  0  0  0  0  0  0  0  0  0  0  0
   40.7589  -25.3962    5.6215 C   0  0  0  0  0  0  0  0  0  0  0  0
   40.0837  -26.4527    5.6163 O   0  0  0  0  0  0  0  0  0  0  0  0
   35.9669  -25.1771   13.0183 O   0  0  0  0  0  0  0  0  0  0  0  0
   36.9128  -24.9372   12.0312 C   0  0  0  0  0  0  0  0  0  0  0  0
   37.5597  -26.0154   11.4636 C   0  0  0  0  0  0  0  0  0  0  0  0
   38.5178  -25.8214   10.4679 C   0  0  0  0  0  0  0  0  0  0  0  0
   38.8502  -24.5635   10.0196 C   0  0  0  0  0  0  0  0  0  0  0  0
   39.8465  -24.3461    8.9841 C   0  0  0  0  0  0  0  0  0  0  0  0
   39.3692  -24.6677    7.5995 C   0  0  2  0  0  0  0  0  0  0  0  0
   40.4372  -24.4414    6.6322 N   0  0  0  0  0  0  0  0  0  0  0  0
   38.1412  -23.9466    7.2325 C   0  0  0  0  0  0  0  0  0  0  0  0
   38.2382  -22.8662    6.5891 O   0  0  0  0  0  0  0  0  0  0  0  0
   38.1803  -23.4950   10.6116 C   0  0  0  0  0  0  0  0  0  0  0  0
   37.2393  -23.6832   11.5892 C   0  0  0  0  0  0  0  0  0  0  0  0
   36.8463  -24.4074    7.5672 N   0  0  0  0  0  0  0  0  0  0  0  0
   35.6813  -23.6929    7.0778 C   0  0  1  0  0  0  0  0  0  0  0  0
   35.6409  -23.8177    5.5763 C   0  0  0  0  0  0  0  0  0  0  0  0
   34.4540  -23.2314    4.9542 C   0  0  0  0  0  0  0  0  0  0  0  0
   33.4991  -22.5236    5.6653 C   0  0  0  0  0  0  0  0  0  0  0  0
   32.5299  -22.1082    4.8317 N   0  0  0  0  0  0  0  0  0  0  0  0
   32.8617  -22.5436    3.6119 C   0  0  0  0  0  0  0  0  0  0  0  0
   34.0156  -23.2178    3.6817 N   0  0  0  0  0  0  0  0  0  0  0  0
   34.5014  -24.3346    7.7087 C   0  0  0  0  0  0  0  0  0  0  0  0
   34.6408  -25.4858    8.2037 O   0  0  0  0  0  0  0  0  0  0  0  0
   33.2481  -23.7588    7.7959 O   0  0  0  0  0  0  0  0  0  0  0  0
  1  2  1  0
  2  3  1  0
  3  4  1  6
  5  3  1  0
  5  6  2  0
  7  8  1  0
  8  9  2  0
  9 10  1  0
 11 10  2  0
 11 12  1  0
 13 12  1  1
 13 14  1  0
 14  5  1  0
 15 13  1  0
 16 15  2  0
 17 11  1  0
 18  8  1  0
 18 17  2  0
 19 15  1  0
 20 21  1  6
 20 19  1  0
 21 22  1  0
 22 26  1  0
 23 22  2  0
 23 24  1  0
 24 25  1  0
 26 25  2  0
 27 29  1  0
 27 20  1  0
 28 27  2  0
M  END
$$$$
