SYH.pdb
     RDKit          3D

 29 30  0  0  1  0  0  0  0  0999 V2000
   27.6687  -19.6750  -17.2054 O   0  0  0  0  0  0  0  0  0  0  0  0
   28.4278  -20.3064  -16.1997 C   0  0  0  0  0  0  0  0  0  0  0  0
   27.8521  -21.6898  -16.0354 C   0  0  2  0  0  0  0  0  0  0  0  0
   28.0214  -22.3818  -17.2959 N   0  0  0  0  0  0  0  0  0  0  0  0
   26.4427  -21.7035  -15.6652 C   0  0  0  0  0  0  0  0  0  0  0  0
   25.5856  -22.0182  -16.5244 O   0  0  0  0  0  0  0  0  0  0  0  0
   18.8592  -21.0443  -11.0617 O   0  0  0  0  0  0  0  0  0  0  0  0
   20.1989  -21.0692  -11.4241 C   0  0  0  0  0  0  0  0  0  0  0  0
   20.7063  -22.2205  -11.9899 C   0  0  0  0  0  0  0  0  0  0  0  0
   22.0472  -22.2905  -12.3696 C   0  0  0  0  0  0  0  0  0  0  0  0
   22.9041  -21.2276  -12.1964 C   0  0  0  0  0  0  0  0  0  0  0  0
   24.3029  -21.2862  -12.5863 C   0  0  0  0  0  0  0  0  0  0  0  0
   24.5232  -21.3275  -14.0688 C   0  0  2  0  0  0  0  0  0  0  0  0
   25.9503  -21.3778  -14.3659 N   0  0  0  0  0  0  0  0  0  0  0  0
   23.8580  -20.2255  -14.7801 C   0  0  0  0  0  0  0  0  0  0  0  0
   24.3454  -19.0652  -14.6979 O   0  0  0  0  0  0  0  0  0  0  0  0
   22.3627  -20.0792  -11.6228 C   0  0  0  0  0  0  0  0  0  0  0  0
   21.0466  -20.0084  -11.2494 C   0  0  0  0  0  0  0  0  0  0  0  0
   22.6898  -20.4027  -15.5579 N   0  0  0  0  0  0  0  0  0  0  0  0
   22.0559  -19.2511  -16.1738 C   0  0  1  0  0  0  0  0  0  0  0  0
   22.1019  -19.4245  -17.6703 C   0  0  0  0  0  0  0  0  0  0  0  0
   23.2532  -18.7938  -18.3154 C   0  0  0  0  0  0  0  0  0  0  0  0
   24.1713  -18.0153  -17.6302 C   0  0  0  0  0  0  0  0  0  0  0  0
   25.1138  -17.5731  -18.4805 N   0  0  0  0  0  0  0  0  0  0  0  0
   24.8014  -18.0614  -19.6854 C   0  0  0  0  0  0  0  0  0  0  0  0
   23.6857  -18.7941  -19.5899 N   0  0  0  0  0  0  0  0  0  0  0  0
   20.6597  -19.2239  -15.6721 C   0  0  0  0  0  0  0  0  0  0  0  0
   20.1748  -20.2864  -15.1971 O   0  0  0  0  0  0  0  0  0  0  0  0
   19.8425  -18.1095  -15.6860 O   0  0  0  0  0  0  0  0  0  0  0  0
  1  2  1  0
  2  3  1  0
  3  4  1  6
  5  3  1  0
  5  6  2  0
  7  8  1  0
  8  9  2  0
  9 10  1  0
 11 10  2  0
 11 12  1  0
 13 12  1  1
 13 14  1  0
 14  5  1  0
 15 13  1  0
 16 15  2  0
 17 11  1  0
 18  8  1  0
 18 17  2  0
 19 15  1  0
 20 21  1  6
 20 19  1  0
 21 22  1  0
 22 26  1  0
 23 22  2  0
 23 24  1  0
 24 25  1  0
 26 25  2  0
 27 29  1  0
 27 20  1  0
 28 27  2  0
M  END
$$$$
