SYH.pdb
     RDKit          3D

 29 30  0  0  1  0  0  0  0  0999 V2000
   27.2858  -19.2764  -19.1468 O   0  0  0  0  0  0  0  0  0  0  0  0
   26.3813  -19.9550  -18.3056 C   0  0  0  0  0  0  0  0  0  0  0  0
   27.1930  -20.9584  -17.5269 C   0  0  2  0  0  0  0  0  0  0  0  0
   27.2422  -22.1760  -18.3087 N   0  0  0  0  0  0  0  0  0  0  0  0
   26.6546  -21.2569  -16.2060 C   0  0  0  0  0  0  0  0  0  0  0  0
   25.8940  -22.2432  -16.0619 O   0  0  0  0  0  0  0  0  0  0  0  0
   24.5893  -20.6866   -7.5700 O   0  0  0  0  0  0  0  0  0  0  0  0
   25.2178  -20.6182   -8.8058 C   0  0  0  0  0  0  0  0  0  0  0  0
   25.1214  -19.4476   -9.5292 C   0  0  0  0  0  0  0  0  0  0  0  0
   25.7374  -19.3340  -10.7762 C   0  0  0  0  0  0  0  0  0  0  0  0
   26.4553  -20.3717  -11.3251 C   0  0  0  0  0  0  0  0  0  0  0  0
   27.1015  -20.2682  -12.6228 C   0  0  0  0  0  0  0  0  0  0  0  0
   26.2562  -20.7437  -13.7663 C   0  0  2  0  0  0  0  0  0  0  0  0
   26.9338  -20.4931  -15.0333 N   0  0  0  0  0  0  0  0  0  0  0  0
   24.8994  -20.1764  -13.7535 C   0  0  0  0  0  0  0  0  0  0  0  0
   24.7341  -18.9838  -14.1290 O   0  0  0  0  0  0  0  0  0  0  0  0
   26.5348  -21.5405  -10.5711 C   0  0  0  0  0  0  0  0  0  0  0  0
   25.9309  -21.6542   -9.3468 C   0  0  0  0  0  0  0  0  0  0  0  0
   23.7615  -20.9067  -13.3379 N   0  0  0  0  0  0  0  0  0  0  0  0
   22.4715  -20.2448  -13.2636 C   0  0  1  0  0  0  0  0  0  0  0  0
   21.7271  -20.5048  -14.5481 C   0  0  0  0  0  0  0  0  0  0  0  0
   21.2431  -19.2986  -15.2193 C   0  0  0  0  0  0  0  0  0  0  0  0
   21.4183  -18.0248  -14.7043 C   0  0  0  0  0  0  0  0  0  0  0  0
   20.8715  -17.1213  -15.5359 N   0  0  0  0  0  0  0  0  0  0  0  0
   20.3575  -17.8075  -16.5618 C   0  0  0  0  0  0  0  0  0  0  0  0
   20.5786  -19.1140  -16.3751 N   0  0  0  0  0  0  0  0  0  0  0  0
   21.7663  -20.8326  -12.0978 C   0  0  0  0  0  0  0  0  0  0  0  0
   22.3143  -21.7910  -11.4890 O   0  0  0  0  0  0  0  0  0  0  0  0
   20.5411  -20.4034  -11.6239 O   0  0  0  0  0  0  0  0  0  0  0  0
  1  2  1  0
  2  3  1  0
  3  4  1  6
  5  3  1  0
  5  6  2  0
  7  8  1  0
  8  9  2  0
  9 10  1  0
 11 10  2  0
 11 12  1  0
 13 12  1  1
 13 14  1  0
 14  5  1  0
 15 13  1  0
 16 15  2  0
 17 11  1  0
 18  8  1  0
 18 17  2  0
 19 15  1  0
 20 21  1  6
 20 19  1  0
 21 22  1  0
 22 26  1  0
 23 22  2  0
 23 24  1  0
 24 25  1  0
 26 25  2  0
 27 29  1  0
 27 20  1  0
 28 27  2  0
M  END
$$$$
