SYH.pdb
     RDKit          3D

 29 30  0  0  1  0  0  0  0  0999 V2000
   39.4613  -33.8875  -22.3351 O   0  0  0  0  0  0  0  0  0  0  0  0
   38.5389  -33.4314  -21.3721 C   0  0  0  0  0  0  0  0  0  0  0  0
   39.3029  -33.2957  -20.0798 C   0  0  2  0  0  0  0  0  0  0  0  0
   39.7745  -34.6152  -19.7150 N   0  0  0  0  0  0  0  0  0  0  0  0
   38.5165  -32.7463  -18.9829 C   0  0  0  0  0  0  0  0  0  0  0  0
   38.1959  -33.4894  -18.0253 O   0  0  0  0  0  0  0  0  0  0  0  0
   43.2438  -31.4416  -15.4851 O   0  0  0  0  0  0  0  0  0  0  0  0
   41.9557  -31.0610  -15.8355 C   0  0  0  0  0  0  0  0  0  0  0  0
   41.7504  -30.5007  -17.0793 C   0  0  0  0  0  0  0  0  0  0  0  0
   40.4723  -30.1033  -17.4737 C   0  0  0  0  0  0  0  0  0  0  0  0
   39.3816  -30.2530  -16.6481 C   0  0  0  0  0  0  0  0  0  0  0  0
   38.0450  -29.8432  -17.0451 C   0  0  0  0  0  0  0  0  0  0  0  0
   37.2805  -30.8936  -17.7936 C   0  0  2  0  0  0  0  0  0  0  0  0
   38.0715  -31.3921  -18.9131 N   0  0  0  0  0  0  0  0  0  0  0  0
   35.9510  -30.4383  -18.2270 C   0  0  0  0  0  0  0  0  0  0  0  0
   35.8321  -29.8951  -19.3590 O   0  0  0  0  0  0  0  0  0  0  0  0
   39.6205  -30.8217  -15.3989 C   0  0  0  0  0  0  0  0  0  0  0  0
   40.8743  -31.2125  -15.0096 C   0  0  0  0  0  0  0  0  0  0  0  0
   34.7896  -30.5799  -17.4319 N   0  0  0  0  0  0  0  0  0  0  0  0
   33.5061  -30.1447  -17.9521 C   0  0  1  0  0  0  0  0  0  0  0  0
   33.6963  -28.8195  -18.6445 C   0  0  0  0  0  0  0  0  0  0  0  0
   32.4716  -28.2524  -19.2083 C   0  0  0  0  0  0  0  0  0  0  0  0
   31.6709  -28.9305  -20.1125 C   0  0  0  0  0  0  0  0  0  0  0  0
   30.6210  -28.1627  -20.4519 N   0  0  0  0  0  0  0  0  0  0  0  0
   30.7509  -27.0165  -19.7759 C   0  0  0  0  0  0  0  0  0  0  0  0
   31.8600  -27.0669  -19.0289 N   0  0  0  0  0  0  0  0  0  0  0  0
   33.0613  -31.1952  -18.9011 C   0  0  0  0  0  0  0  0  0  0  0  0
   31.8234  -31.3907  -19.0386 O   0  0  0  0  0  0  0  0  0  0  0  0
   33.9111  -31.9833  -19.6538 O   0  0  0  0  0  0  0  0  0  0  0  0
  1  2  1  0
  2  3  1  0
  3  4  1  1
  5  3  1  0
  5  6  2  0
  7  8  1  0
  8  9  2  0
  9 10  1  0
 11 10  2  0
 11 12  1  0
 13 12  1  6
 13 14  1  0
 14  5  1  0
 15 13  1  0
 16 15  2  0
 17 11  1  0
 18  8  1  0
 18 17  2  0
 19 15  1  0
 20 21  1  6
 20 19  1  0
 21 22  1  0
 22 26  1  0
 23 22  2  0
 23 24  1  0
 24 25  1  0
 26 25  2  0
 27 29  1  0
 27 20  1  0
 28 27  2  0
M  END
$$$$
