IIQ.pdb
     RDKit          3D

 26 25  0  0  1  0  0  0  0  0999 V2000
    8.8315  -21.2433   24.7253 C   0  0  0  0  0  0  0  0  0  0  0  0
    7.6773  -20.4842   24.1228 C   0  0  0  0  0  0  0  0  0  0  0  0
    6.9552  -19.6443   25.1568 C   0  0  2  0  0  0  0  0  0  0  0  0
    6.3934  -20.5335   26.2204 C   0  0  0  0  0  0  0  0  0  0  0  0
    5.8194  -18.8582   24.4993 C   0  0  2  0  0  0  0  0  0  0  0  0
    5.3538  -19.6361   23.3925 N   0  0  0  0  0  0  0  0  0  0  0  0
    6.3866  -17.5439   24.0742 C   0  0  0  0  0  0  0  0  0  0  0  0
    6.6017  -17.3204   22.8766 O   0  0  0  0  0  0  0  0  0  0  0  0
    6.5785  -11.7531   26.3413 C   0  0  0  0  0  0  0  0  0  0  0  0
    7.0966  -12.7659   25.2926 C   0  0  0  0  0  0  0  0  0  0  0  0
    6.6667  -14.1693   25.7129 C   0  0  2  0  0  0  0  0  0  0  0  0
    7.3861  -14.3943   27.0435 C   0  0  0  0  0  0  0  0  0  0  0  0
    7.1429  -15.2316   24.7733 C   0  0  2  0  0  0  0  0  0  0  0  0
    6.6796  -16.5566   25.0168 N   0  0  0  0  0  0  0  0  0  0  0  0
    8.6008  -15.2267   24.6574 C   0  0  0  0  0  0  0  0  0  0  0  0
    9.2315  -14.1489   24.5764 O   0  0  0  0  0  0  0  0  0  0  0  0
   12.5719  -15.5688   20.8281 N   0  0  0  0  0  0  0  0  0  0  0  0
   13.1761  -15.7005   22.1241 C   0  0  0  0  0  0  0  0  0  0  0  0
   14.2492  -16.3721   22.2436 O   0  0  0  0  0  0  0  0  0  0  0  0
   12.5724  -15.0636   23.3045 C   0  0  0  0  0  0  0  0  0  0  0  0
   11.1234  -15.2956   23.5038 C   0  0  0  0  0  0  0  0  0  0  0  0
   10.7973  -16.3772   24.4698 C   0  0  2  0  0  0  0  0  0  0  0  0
    9.3289  -16.4359   24.6344 N   0  0  0  0  0  0  0  0  0  0  0  0
   11.3533  -16.2969   25.8181 C   0  0  0  0  0  0  0  0  0  0  0  0
   11.0113  -15.2555   26.7059 O   0  0  0  0  0  0  0  0  0  0  0  0
   12.1763  -17.1728   26.2198 O   0  0  0  0  0  0  0  0  0  0  0  0
  2  1  1  0
  3  2  1  0
  3  5  1  0
  3  4  1  1
  5  7  1  0
  5  6  1  6
  7  8  2  0
  9 10  1  0
 10 11  1  0
 11 13  1  0
 11 12  1  1
 13 14  1  1
 14  7  1  0
 15 16  2  0
 15 13  1  0
 17 18  1  0
 18 20  1  0
 18 19  2  0
 20 21  1  0
 22 21  1  6
 22 23  1  0
 22 24  1  0
 23 15  1  0
 24 25  1  0
 26 24  2  0
M  END
$$$$
