IIQ.pdb
     RDKit          3D

 26 25  0  0  1  0  0  0  0  0999 V2000
    6.9095  -21.5695   26.8073 C   0  0  0  0  0  0  0  0  0  0  0  0
    6.0492  -20.5259   26.1422 C   0  0  0  0  0  0  0  0  0  0  0  0
    6.8464  -19.2912   25.7736 C   0  0  2  0  0  0  0  0  0  0  0  0
    7.4523  -18.6998   27.0068 C   0  0  0  0  0  0  0  0  0  0  0  0
    5.9387  -18.2559   25.1067 C   0  0  2  0  0  0  0  0  0  0  0  0
    5.3669  -18.8778   23.9521 N   0  0  0  0  0  0  0  0  0  0  0  0
    6.7956  -17.0838   24.7577 C   0  0  0  0  0  0  0  0  0  0  0  0
    7.5328  -17.1292   23.7653 O   0  0  0  0  0  0  0  0  0  0  0  0
    5.2723  -12.0008   26.6729 C   0  0  0  0  0  0  0  0  0  0  0  0
    5.7952  -13.0492   25.6622 C   0  0  0  0  0  0  0  0  0  0  0  0
    7.1608  -13.5441   26.1323 C   0  0  2  0  0  0  0  0  0  0  0  0
    8.1200  -12.4230   25.7300 C   0  0  0  0  0  0  0  0  0  0  0  0
    7.6104  -14.7807   25.4204 C   0  0  2  0  0  0  0  0  0  0  0  0
    6.7759  -15.9289   25.5419 N   0  0  0  0  0  0  0  0  0  0  0  0
    8.9878  -15.1264   25.7699 C   0  0  0  0  0  0  0  0  0  0  0  0
    9.3165  -15.3129   26.9629 O   0  0  0  0  0  0  0  0  0  0  0  0
   10.6190  -19.5166   28.2524 N   0  0  0  0  0  0  0  0  0  0  0  0
   11.3385  -19.3414   27.0221 C   0  0  0  0  0  0  0  0  0  0  0  0
   11.6603  -20.3649   26.3398 O   0  0  0  0  0  0  0  0  0  0  0  0
   11.6973  -17.9972   26.5446 C   0  0  0  0  0  0  0  0  0  0  0  0
   10.7798  -17.3882   25.5543 C   0  0  0  0  0  0  0  0  0  0  0  0
   11.1921  -16.0434   25.0744 C   0  0  2  0  0  0  0  0  0  0  0  0
    9.9767  -15.2575   24.7710 N   0  0  0  0  0  0  0  0  0  0  0  0
   12.0373  -15.9574   23.8862 C   0  0  0  0  0  0  0  0  0  0  0  0
   13.4391  -16.0980   23.9553 O   0  0  0  0  0  0  0  0  0  0  0  0
   11.5178  -15.7415   22.7506 O   0  0  0  0  0  0  0  0  0  0  0  0
  2  1  1  0
  3  2  1  0
  3  5  1  0
  3  4  1  1
  5  7  1  0
  5  6  1  6
  7  8  2  0
  9 10  1  0
 10 11  1  0
 11 13  1  0
 11 12  1  6
 13 14  1  1
 14  7  1  0
 15 16  2  0
 15 13  1  0
 17 18  1  0
 18 20  1  0
 18 19  2  0
 20 21  1  0
 22 21  1  6
 22 23  1  0
 22 24  1  0
 23 15  1  0
 24 25  1  0
 26 24  2  0
M  END
$$$$
