IIQ.pdb
     RDKit          3D

 26 25  0  0  1  0  0  0  0  0999 V2000
    5.5891  -21.5712   24.2290 C   0  0  0  0  0  0  0  0  0  0  0  0
    5.2800  -20.1805   23.7373 C   0  0  0  0  0  0  0  0  0  0  0  0
    6.3313  -19.1817   24.1769 C   0  0  2  0  0  0  0  0  0  0  0  0
    6.4857  -19.2391   25.6637 C   0  0  0  0  0  0  0  0  0  0  0  0
    5.9219  -17.7670   23.7628 C   0  0  2  0  0  0  0  0  0  0  0  0
    5.7345  -17.7803   22.3445 N   0  0  0  0  0  0  0  0  0  0  0  0
    7.0245  -16.8522   24.1838 C   0  0  0  0  0  0  0  0  0  0  0  0
    8.0968  -16.8495   23.5667 O   0  0  0  0  0  0  0  0  0  0  0  0
    5.6421  -12.0534   26.1664 C   0  0  0  0  0  0  0  0  0  0  0  0
    6.6768  -12.9431   25.4371 C   0  0  0  0  0  0  0  0  0  0  0  0
    7.3401  -13.8620   26.4601 C   0  0  2  0  0  0  0  0  0  0  0  0
    8.5687  -13.0770   26.9218 C   0  0  0  0  0  0  0  0  0  0  0  0
    7.8372  -15.1396   25.8613 C   0  0  2  0  0  0  0  0  0  0  0  0
    6.8607  -15.9935   25.2723 N   0  0  0  0  0  0  0  0  0  0  0  0
    8.6496  -15.8948   26.8146 C   0  0  0  0  0  0  0  0  0  0  0  0
    8.1367  -16.3789   27.8483 O   0  0  0  0  0  0  0  0  0  0  0  0
   14.1248  -18.5524   25.2320 N   0  0  0  0  0  0  0  0  0  0  0  0
   12.7958  -18.6085   24.6911 C   0  0  0  0  0  0  0  0  0  0  0  0
   12.6146  -19.1197   23.5410 O   0  0  0  0  0  0  0  0  0  0  0  0
   11.6500  -18.0900   25.4538 C   0  0  0  0  0  0  0  0  0  0  0  0
   11.9539  -17.5278   26.7898 C   0  0  0  0  0  0  0  0  0  0  0  0
   10.7769  -16.9777   27.5116 C   0  0  2  0  0  0  0  0  0  0  0  0
   10.0291  -16.0946   26.5908 N   0  0  0  0  0  0  0  0  0  0  0  0
   11.0069  -16.1969   28.7244 C   0  0  0  0  0  0  0  0  0  0  0  0
   11.1544  -16.8062   29.9879 O   0  0  0  0  0  0  0  0  0  0  0  0
   11.0700  -14.9326   28.6644 O   0  0  0  0  0  0  0  0  0  0  0  0
  2  1  1  0
  3  2  1  0
  3  5  1  0
  3  4  1  1
  5  7  1  0
  5  6  1  6
  7  8  2  0
  9 10  1  0
 10 11  1  0
 11 13  1  0
 11 12  1  6
 13 14  1  1
 14  7  1  0
 15 16  2  0
 15 13  1  0
 17 18  1  0
 18 20  1  0
 18 19  2  0
 20 21  1  0
 22 21  1  6
 22 23  1  0
 22 24  1  0
 23 15  1  0
 24 25  1  0
 26 24  2  0
M  END
$$$$
