IIQ.pdb
     RDKit          3D

 26 25  0  0  1  0  0  0  0  0999 V2000
    7.6459  -18.5142   19.7079 C   0  0  0  0  0  0  0  0  0  0  0  0
    7.1347  -17.1275   20.0027 C   0  0  0  0  0  0  0  0  0  0  0  0
    7.8228  -16.5184   21.2075 C   0  0  2  0  0  0  0  0  0  0  0  0
    7.6917  -17.4405   22.3781 C   0  0  0  0  0  0  0  0  0  0  0  0
    7.1902  -15.1685   21.5508 C   0  0  2  0  0  0  0  0  0  0  0  0
    7.2994  -14.3435   20.3870 N   0  0  0  0  0  0  0  0  0  0  0  0
    7.9450  -14.6156   22.7147 C   0  0  0  0  0  0  0  0  0  0  0  0
    9.1209  -14.2572   22.5764 O   0  0  0  0  0  0  0  0  0  0  0  0
    5.2633  -11.6998   26.6968 C   0  0  0  0  0  0  0  0  0  0  0  0
    6.3495  -12.1316   25.6831 C   0  0  0  0  0  0  0  0  0  0  0  0
    7.0006  -13.4194   26.1816 C   0  0  2  0  0  0  0  0  0  0  0  0
    7.8603  -12.9669   27.3627 C   0  0  0  0  0  0  0  0  0  0  0  0
    7.9248  -14.0328   25.1778 C   0  0  2  0  0  0  0  0  0  0  0  0
    7.3371  -14.4969   23.9658 N   0  0  0  0  0  0  0  0  0  0  0  0
    8.7350  -15.0928   25.7767 C   0  0  0  0  0  0  0  0  0  0  0  0
    8.2113  -16.1706   26.1375 O   0  0  0  0  0  0  0  0  0  0  0  0
   14.6295  -16.0151   23.9166 N   0  0  0  0  0  0  0  0  0  0  0  0
   14.4098  -17.0646   24.8718 C   0  0  0  0  0  0  0  0  0  0  0  0
   15.3015  -17.9571   25.0298 O   0  0  0  0  0  0  0  0  0  0  0  0
   13.1741  -17.1111   25.6683 C   0  0  0  0  0  0  0  0  0  0  0  0
   12.1897  -16.0347   25.4121 C   0  0  0  0  0  0  0  0  0  0  0  0
   10.9538  -16.1187   26.2333 C   0  0  2  0  0  0  0  0  0  0  0  0
   10.1245  -14.9249   25.9613 N   0  0  0  0  0  0  0  0  0  0  0  0
   11.0873  -16.1969   27.6858 C   0  0  0  0  0  0  0  0  0  0  0  0
   10.8315  -15.0885   28.5198 O   0  0  0  0  0  0  0  0  0  0  0  0
   11.4515  -17.2801   28.2335 O   0  0  0  0  0  0  0  0  0  0  0  0
  2  1  1  0
  3  2  1  0
  3  5  1  0
  3  4  1  1
  5  7  1  0
  5  6  1  6
  7  8  2  0
  9 10  1  0
 10 11  1  0
 11 13  1  0
 11 12  1  1
 13 14  1  6
 14  7  1  0
 15 16  2  0
 15 13  1  0
 17 18  1  0
 18 20  1  0
 18 19  2  0
 20 21  1  0
 22 21  1  6
 22 23  1  0
 22 24  1  0
 23 15  1  0
 24 25  1  0
 26 24  2  0
M  END
$$$$
