IIQ.pdb
     RDKit          3D

 26 25  0  0  1  0  0  0  0  0999 V2000
    5.8260  -22.0342   24.9920 C   0  0  0  0  0  0  0  0  0  0  0  0
    5.1388  -20.7693   24.5456 C   0  0  0  0  0  0  0  0  0  0  0  0
    6.0989  -19.5986   24.4853 C   0  0  2  0  0  0  0  0  0  0  0  0
    6.8169  -19.4722   25.7915 C   0  0  0  0  0  0  0  0  0  0  0  0
    5.3362  -18.3041   24.1975 C   0  0  2  0  0  0  0  0  0  0  0  0
    4.6270  -18.4965   22.9699 N   0  0  0  0  0  0  0  0  0  0  0  0
    6.3495  -17.2111   24.1054 C   0  0  0  0  0  0  0  0  0  0  0  0
    7.0737  -17.1205   23.1065 O   0  0  0  0  0  0  0  0  0  0  0  0
    5.3867  -12.3381   26.6530 C   0  0  0  0  0  0  0  0  0  0  0  0
    6.0013  -13.1981   25.5231 C   0  0  0  0  0  0  0  0  0  0  0  0
    7.0965  -14.0793   26.1188 C   0  0  2  0  0  0  0  0  0  0  0  0
    8.3208  -13.1643   26.1716 C   0  0  0  0  0  0  0  0  0  0  0  0
    7.4543  -15.2381   25.2430 C   0  0  2  0  0  0  0  0  0  0  0  0
    6.4918  -16.2834   25.1388 N   0  0  0  0  0  0  0  0  0  0  0  0
    8.7582  -15.7952   25.6015 C   0  0  0  0  0  0  0  0  0  0  0  0
    8.9078  -16.4372   26.6652 O   0  0  0  0  0  0  0  0  0  0  0  0
   14.6269  -17.8145   21.6209 N   0  0  0  0  0  0  0  0  0  0  0  0
   13.2072  -17.6940   21.8001 C   0  0  0  0  0  0  0  0  0  0  0  0
   12.4538  -17.6495   20.7768 O   0  0  0  0  0  0  0  0  0  0  0  0
   12.6212  -17.6294   23.1476 C   0  0  0  0  0  0  0  0  0  0  0  0
   11.4896  -16.6906   23.3247 C   0  0  0  0  0  0  0  0  0  0  0  0
   10.8829  -16.7021   24.6814 C   0  0  2  0  0  0  0  0  0  0  0  0
    9.8761  -15.6215   24.7573 N   0  0  0  0  0  0  0  0  0  0  0  0
   11.7583  -16.5221   25.8367 C   0  0  0  0  0  0  0  0  0  0  0  0
   12.0188  -15.2488   26.3849 O   0  0  0  0  0  0  0  0  0  0  0  0
   12.3184  -17.5247   26.3726 O   0  0  0  0  0  0  0  0  0  0  0  0
  2  1  1  0
  3  2  1  0
  3  5  1  0
  3  4  1  1
  5  7  1  0
  5  6  1  6
  7  8  2  0
  9 10  1  0
 10 11  1  0
 11 13  1  0
 11 12  1  6
 13 14  1  1
 14  7  1  0
 15 16  2  0
 15 13  1  0
 17 18  1  0
 18 20  1  0
 18 19  2  0
 20 21  1  0
 22 21  1  6
 22 23  1  0
 22 24  1  0
 23 15  1  0
 24 25  1  0
 26 24  2  0
M  END
$$$$
