IIQ.pdb
     RDKit          3D

 26 25  0  0  1  0  0  0  0  0999 V2000
    3.2245  -20.3697   22.9074 C   0  0  0  0  0  0  0  0  0  0  0  0
    4.3024  -20.1717   23.9419 C   0  0  0  0  0  0  0  0  0  0  0  0
    5.1656  -18.9657   23.6312 C   0  0  2  0  0  0  0  0  0  0  0  0
    5.7718  -19.1205   22.2725 C   0  0  0  0  0  0  0  0  0  0  0  0
    6.2788  -18.8307   24.6718 C   0  0  2  0  0  0  0  0  0  0  0  0
    5.6551  -18.8332   25.9594 N   0  0  0  0  0  0  0  0  0  0  0  0
    6.9913  -17.5499   24.3858 C   0  0  0  0  0  0  0  0  0  0  0  0
    7.5240  -17.3702   23.2837 O   0  0  0  0  0  0  0  0  0  0  0  0
    5.3030  -12.9126   26.7959 C   0  0  0  0  0  0  0  0  0  0  0  0
    5.9510  -13.7243   25.6490 C   0  0  0  0  0  0  0  0  0  0  0  0
    7.3345  -14.1882   26.0982 C   0  0  2  0  0  0  0  0  0  0  0  0
    8.2446  -13.0010   25.7805 C   0  0  0  0  0  0  0  0  0  0  0  0
    7.8441  -15.3530   25.3098 C   0  0  2  0  0  0  0  0  0  0  0  0
    7.0651  -16.5451   25.3522 N   0  0  0  0  0  0  0  0  0  0  0  0
    9.2357  -15.6549   25.6433 C   0  0  0  0  0  0  0  0  0  0  0  0
    9.5213  -16.2731   26.6931 O   0  0  0  0  0  0  0  0  0  0  0  0
    9.8556  -20.0107   23.0923 N   0  0  0  0  0  0  0  0  0  0  0  0
   11.2712  -19.8081   23.2225 C   0  0  0  0  0  0  0  0  0  0  0  0
   12.0642  -20.7566   22.9255 O   0  0  0  0  0  0  0  0  0  0  0  0
   11.8078  -18.5194   23.6862 C   0  0  0  0  0  0  0  0  0  0  0  0
   10.8099  -17.4790   24.0251 C   0  0  0  0  0  0  0  0  0  0  0  0
   11.3896  -16.2071   24.5301 C   0  0  2  0  0  0  0  0  0  0  0  0
   10.2871  -15.2563   24.7898 N   0  0  0  0  0  0  0  0  0  0  0  0
   12.3477  -15.4961   23.6874 C   0  0  0  0  0  0  0  0  0  0  0  0
   11.9343  -14.6078   22.6727 O   0  0  0  0  0  0  0  0  0  0  0  0
   13.5919  -15.6747   23.8491 O   0  0  0  0  0  0  0  0  0  0  0  0
  2  1  1  0
  3  2  1  0
  3  5  1  0
  3  4  1  6
  5  7  1  0
  5  6  1  1
  7  8  2  0
  9 10  1  0
 10 11  1  0
 11 13  1  0
 11 12  1  6
 13 14  1  1
 14  7  1  0
 15 16  2  0
 15 13  1  0
 17 18  1  0
 18 20  1  0
 18 19  2  0
 20 21  1  0
 22 21  1  6
 22 23  1  0
 22 24  1  0
 23 15  1  0
 24 25  1  0
 26 24  2  0
M  END
$$$$
