IIQ.pdb
     RDKit          3D

 26 25  0  0  1  0  0  0  0  0999 V2000
    6.7717  -18.2834   19.2951 C   0  0  0  0  0  0  0  0  0  0  0  0
    6.7127  -16.8078   19.5963 C   0  0  0  0  0  0  0  0  0  0  0  0
    7.3793  -16.4759   20.9159 C   0  0  2  0  0  0  0  0  0  0  0  0
    6.7554  -17.2840   22.0092 C   0  0  0  0  0  0  0  0  0  0  0  0
    7.2185  -14.9872   21.2292 C   0  0  2  0  0  0  0  0  0  0  0  0
    7.7606  -14.2620   20.1215 N   0  0  0  0  0  0  0  0  0  0  0  0
    7.9588  -14.7255   22.4994 C   0  0  0  0  0  0  0  0  0  0  0  0
    9.1958  -14.7429   22.5101 O   0  0  0  0  0  0  0  0  0  0  0  0
    5.7587  -11.2601   26.1671 C   0  0  0  0  0  0  0  0  0  0  0  0
    6.8403  -11.9810   25.3277 C   0  0  0  0  0  0  0  0  0  0  0  0
    7.0658  -13.3736   25.9115 C   0  0  2  0  0  0  0  0  0  0  0  0
    7.9662  -13.1264   27.1227 C   0  0  0  0  0  0  0  0  0  0  0  0
    7.8155  -14.2798   24.9870 C   0  0  2  0  0  0  0  0  0  0  0  0
    7.2691  -14.4596   23.6837 N   0  0  0  0  0  0  0  0  0  0  0  0
    8.0692  -15.5808   25.6049 C   0  0  0  0  0  0  0  0  0  0  0  0
    7.1204  -16.3247   25.9400 O   0  0  0  0  0  0  0  0  0  0  0  0
   12.2132  -19.2156   23.1137 N   0  0  0  0  0  0  0  0  0  0  0  0
   12.2592  -17.9503   23.7912 C   0  0  0  0  0  0  0  0  0  0  0  0
   12.7568  -16.9440   23.1941 O   0  0  0  0  0  0  0  0  0  0  0  0
   11.7328  -17.8081   25.1573 C   0  0  0  0  0  0  0  0  0  0  0  0
   10.3174  -18.1957   25.3567 C   0  0  0  0  0  0  0  0  0  0  0  0
    9.5928  -17.3896   26.3736 C   0  0  2  0  0  0  0  0  0  0  0  0
    9.3884  -16.0267   25.8372 N   0  0  0  0  0  0  0  0  0  0  0  0
   10.2022  -17.2197   27.6901 C   0  0  0  0  0  0  0  0  0  0  0  0
   10.5590  -15.9496   28.1895 O   0  0  0  0  0  0  0  0  0  0  0  0
   10.4349  -18.2303   28.4184 O   0  0  0  0  0  0  0  0  0  0  0  0
  2  1  1  0
  3  2  1  0
  3  5  1  0
  3  4  1  1
  5  7  1  0
  5  6  1  6
  7  8  2  0
  9 10  1  0
 10 11  1  0
 11 13  1  0
 11 12  1  1
 13 14  1  6
 14  7  1  0
 15 16  2  0
 15 13  1  0
 17 18  1  0
 18 20  1  0
 18 19  2  0
 20 21  1  0
 22 21  1  6
 22 23  1  0
 22 24  1  0
 23 15  1  0
 24 25  1  0
 26 24  2  0
M  END
$$$$
