IIQ.pdb
     RDKit          3D

 26 25  0  0  1  0  0  0  0  0999 V2000
    6.4544  -18.1705   19.1456 C   0  0  0  0  0  0  0  0  0  0  0  0
    6.3042  -16.7262   19.5490 C   0  0  0  0  0  0  0  0  0  0  0  0
    7.0747  -16.4127   20.8155 C   0  0  2  0  0  0  0  0  0  0  0  0
    6.6383  -17.3360   21.9085 C   0  0  0  0  0  0  0  0  0  0  0  0
    6.8232  -14.9654   21.2423 C   0  0  2  0  0  0  0  0  0  0  0  0
    7.1574  -14.1328   20.1279 N   0  0  0  0  0  0  0  0  0  0  0  0
    7.6895  -14.7032   22.4301 C   0  0  0  0  0  0  0  0  0  0  0  0
    8.9187  -14.6506   22.3006 O   0  0  0  0  0  0  0  0  0  0  0  0
    5.5185  -11.6447   26.5726 C   0  0  0  0  0  0  0  0  0  0  0  0
    6.4787  -12.1999   25.4938 C   0  0  0  0  0  0  0  0  0  0  0  0
    7.0397  -13.5349   25.9776 C   0  0  2  0  0  0  0  0  0  0  0  0
    8.0398  -13.1439   27.0665 C   0  0  0  0  0  0  0  0  0  0  0  0
    7.8073  -14.2632   24.9200 C   0  0  2  0  0  0  0  0  0  0  0  0
    7.1270  -14.5154   23.6939 N   0  0  0  0  0  0  0  0  0  0  0  0
    8.3800  -15.5057   25.4370 C   0  0  0  0  0  0  0  0  0  0  0  0
    7.6414  -16.4154   25.8761 O   0  0  0  0  0  0  0  0  0  0  0  0
   12.5360  -18.9208   22.0454 N   0  0  0  0  0  0  0  0  0  0  0  0
   12.4824  -17.7260   22.8401 C   0  0  0  0  0  0  0  0  0  0  0  0
   13.4709  -16.9264   22.8267 O   0  0  0  0  0  0  0  0  0  0  0  0
   11.2991  -17.4181   23.6578 C   0  0  0  0  0  0  0  0  0  0  0  0
   11.5174  -17.3379   25.1204 C   0  0  0  0  0  0  0  0  0  0  0  0
   10.3013  -17.0117   25.9102 C   0  0  2  0  0  0  0  0  0  0  0  0
    9.7772  -15.7069   25.4524 N   0  0  0  0  0  0  0  0  0  0  0  0
   10.4206  -16.9134   27.3627 C   0  0  0  0  0  0  0  0  0  0  0  0
   10.2135  -15.6982   28.0482 O   0  0  0  0  0  0  0  0  0  0  0  0
   10.7275  -17.9354   28.0462 O   0  0  0  0  0  0  0  0  0  0  0  0
  2  1  1  0
  3  2  1  0
  3  5  1  0
  3  4  1  1
  5  7  1  0
  5  6  1  6
  7  8  2  0
  9 10  1  0
 10 11  1  0
 11 13  1  0
 11 12  1  1
 13 14  1  6
 14  7  1  0
 15 16  2  0
 15 13  1  0
 17 18  1  0
 18 20  1  0
 18 19  2  0
 20 21  1  0
 22 21  1  6
 22 23  1  0
 22 24  1  0
 23 15  1  0
 24 25  1  0
 26 24  2  0
M  END
$$$$
