IIQ.pdb
     RDKit          3D

 26 25  0  0  1  0  0  0  0  0999 V2000
   11.8990  -15.7449   30.4385 C   0  0  0  0  0  0  0  0  0  0  0  0
   10.5316  -16.2686   30.0816 C   0  0  0  0  0  0  0  0  0  0  0  0
   10.2182  -16.0679   28.6127 C   0  0  2  0  0  0  0  0  0  0  0  0
   10.2876  -14.6111   28.2804 C   0  0  0  0  0  0  0  0  0  0  0  0
    8.8179  -16.5955   28.2945 C   0  0  2  0  0  0  0  0  0  0  0  0
    8.8080  -17.9887   28.6199 N   0  0  0  0  0  0  0  0  0  0  0  0
    8.5773  -16.3475   26.8418 C   0  0  0  0  0  0  0  0  0  0  0  0
    8.7338  -17.2617   26.0231 O   0  0  0  0  0  0  0  0  0  0  0  0
    6.0208  -11.5126   25.8361 C   0  0  0  0  0  0  0  0  0  0  0  0
    6.1424  -13.0208   25.5130 C   0  0  0  0  0  0  0  0  0  0  0  0
    7.4898  -13.2704   24.8397 C   0  0  2  0  0  0  0  0  0  0  0  0
    7.1925  -13.1168   23.3474 C   0  0  0  0  0  0  0  0  0  0  0  0
    7.9951  -14.6636   25.0437 C   0  0  2  0  0  0  0  0  0  0  0  0
    8.1750  -15.0887   26.3915 N   0  0  0  0  0  0  0  0  0  0  0  0
    9.2172  -14.9052   24.2776 C   0  0  0  0  0  0  0  0  0  0  0  0
   10.2938  -14.3561   24.6024 O   0  0  0  0  0  0  0  0  0  0  0  0
   14.5332  -17.4249   24.7932 N   0  0  0  0  0  0  0  0  0  0  0  0
   13.3945  -18.1003   24.2370 C   0  0  0  0  0  0  0  0  0  0  0  0
   13.0976  -19.2640   24.6546 O   0  0  0  0  0  0  0  0  0  0  0  0
   12.5707  -17.4588   23.2010 C   0  0  0  0  0  0  0  0  0  0  0  0
   11.2813  -16.8865   23.6518 C   0  0  0  0  0  0  0  0  0  0  0  0
   10.5045  -16.1982   22.5880 C   0  0  2  0  0  0  0  0  0  0  0  0
    9.2105  -15.7621   23.1558 N   0  0  0  0  0  0  0  0  0  0  0  0
   10.1838  -16.9390   21.3707 C   0  0  0  0  0  0  0  0  0  0  0  0
    8.8590  -17.2913   21.0383 O   0  0  0  0  0  0  0  0  0  0  0  0
   11.1084  -17.2942   20.5801 O   0  0  0  0  0  0  0  0  0  0  0  0
  2  1  1  0
  3  2  1  0
  3  5  1  0
  3  4  1  1
  5  7  1  0
  5  6  1  6
  7  8  2  0
  9 10  1  0
 10 11  1  0
 11 13  1  0
 11 12  1  6
 13 14  1  1
 14  7  1  0
 15 16  2  0
 15 13  1  0
 17 18  1  0
 18 20  1  0
 18 19  2  0
 20 21  1  0
 22 21  1  1
 22 23  1  0
 22 24  1  0
 23 15  1  0
 24 25  1  0
 26 24  2  0
M  END
$$$$
