IIQ.pdb
     RDKit          3D

 26 25  0  0  1  0  0  0  0  0999 V2000
    6.8657  -18.0464   19.1239 C   0  0  0  0  0  0  0  0  0  0  0  0
    6.7539  -16.5803   19.4546 C   0  0  0  0  0  0  0  0  0  0  0  0
    7.4433  -16.2442   20.7614 C   0  0  2  0  0  0  0  0  0  0  0  0
    6.9512  -17.1598   21.8371 C   0  0  0  0  0  0  0  0  0  0  0  0
    7.1517  -14.7949   21.1551 C   0  0  2  0  0  0  0  0  0  0  0  0
    7.5616  -13.9699   20.0604 N   0  0  0  0  0  0  0  0  0  0  0  0
    7.9266  -14.5161   22.4007 C   0  0  0  0  0  0  0  0  0  0  0  0
    9.1561  -14.3884   22.3498 O   0  0  0  0  0  0  0  0  0  0  0  0
    5.6764  -11.4967   26.5268 C   0  0  0  0  0  0  0  0  0  0  0  0
    6.7109  -12.0659   25.5269 C   0  0  0  0  0  0  0  0  0  0  0  0
    7.0542  -13.4957   25.9381 C   0  0  2  0  0  0  0  0  0  0  0  0
    7.9376  -13.3238   27.1745 C   0  0  0  0  0  0  0  0  0  0  0  0
    7.8714  -14.2174   24.9137 C   0  0  2  0  0  0  0  0  0  0  0  0
    7.2778  -14.3967   23.6311 N   0  0  0  0  0  0  0  0  0  0  0  0
    8.3535  -15.5006   25.4236 C   0  0  0  0  0  0  0  0  0  0  0  0
    7.5495  -16.4105   25.7262 O   0  0  0  0  0  0  0  0  0  0  0  0
   12.0430  -19.3196   22.1831 N   0  0  0  0  0  0  0  0  0  0  0  0
   12.1781  -18.1260   22.9699 C   0  0  0  0  0  0  0  0  0  0  0  0
   13.2745  -17.4827   22.9390 O   0  0  0  0  0  0  0  0  0  0  0  0
   11.0646  -17.6410   23.7995 C   0  0  0  0  0  0  0  0  0  0  0  0
   11.3387  -17.5061   25.2486 C   0  0  0  0  0  0  0  0  0  0  0  0
   10.1722  -17.0722   26.0610 C   0  0  2  0  0  0  0  0  0  0  0  0
    9.7350  -15.7418   25.5858 N   0  0  0  0  0  0  0  0  0  0  0  0
   10.3375  -16.9517   27.5072 C   0  0  0  0  0  0  0  0  0  0  0  0
   10.4323  -18.0827   28.3447 O   0  0  0  0  0  0  0  0  0  0  0  0
   10.3906  -15.8068   28.0481 O   0  0  0  0  0  0  0  0  0  0  0  0
  2  1  1  0
  3  2  1  0
  3  5  1  0
  3  4  1  1
  5  7  1  0
  5  6  1  6
  7  8  2  0
  9 10  1  0
 10 11  1  0
 11 13  1  0
 11 12  1  1
 13 14  1  6
 14  7  1  0
 15 16  2  0
 15 13  1  0
 17 18  1  0
 18 20  1  0
 18 19  2  0
 20 21  1  0
 22 21  1  6
 22 23  1  0
 22 24  1  0
 23 15  1  0
 24 25  1  0
 26 24  2  0
M  END
$$$$
