IRV.pdb
     RDKit          3D

 27 26  0  0  1  0  0  0  0  0999 V2000
    8.1605  -11.8046   18.1282 C   0  0  0  0  0  0  0  0  0  0  0  0
    8.2750  -13.2668   18.3372 C   0  0  0  0  0  0  0  0  0  0  0  0
    7.8398  -13.7339   19.6917 C   0  0  2  0  0  0  0  0  0  0  0  0
    8.7055  -13.0759   20.7358 C   0  0  0  0  0  0  0  0  0  0  0  0
    7.9241  -15.2337   19.8862 C   0  0  2  0  0  0  0  0  0  0  0  0
    7.0329  -15.9122   18.9541 N   0  0  0  0  0  0  0  0  0  0  0  0
    7.4776  -15.4796   21.2983 C   0  0  0  0  0  0  0  0  0  0  0  0
    6.2505  -15.3374   21.6429 O   0  0  0  0  0  0  0  0  0  0  0  0
    6.1827  -20.6923   26.2203 N   0  0  0  0  0  0  0  0  0  0  0  0
    7.0834  -20.3123   27.2942 C   0  0  0  0  0  0  0  0  0  0  0  0
    6.7658  -20.4443   28.4957 N   0  0  0  0  0  0  0  0  0  0  0  0
    8.3570  -19.7786   26.9724 N   0  0  0  0  0  0  0  0  0  0  0  0
    8.6283  -19.4770   25.5601 C   0  0  0  0  0  0  0  0  0  0  0  0
    8.1589  -18.0389   25.3284 C   0  0  0  0  0  0  0  0  0  0  0  0
    8.4474  -17.6570   23.9060 C   0  0  0  0  0  0  0  0  0  0  0  0
    8.0569  -16.1827   23.6685 C   0  0  2  0  0  0  0  0  0  0  0  0
    8.3658  -15.8762   22.3167 N   0  0  0  0  0  0  0  0  0  0  0  0
    8.6154  -15.3389   24.7218 C   0  0  0  0  0  0  0  0  0  0  0  0
    9.8163  -15.0568   24.8166 O   0  0  0  0  0  0  0  0  0  0  0  0
    7.2519  -20.2677   29.3614 C   0  0  0  0  0  0  0  0  0  0  0  0
    6.5430  -12.1453   25.7867 C   0  0  2  0  0  0  0  0  0  0  0  0
    6.9966  -12.8587   27.0328 C   0  0  0  0  0  0  0  0  0  0  0  0
    5.8407  -13.5917   27.6403 C   0  0  2  0  0  0  0  0  0  0  0  0
    8.1502  -13.8244   26.7080 N   0  0  0  0  0  0  0  0  0  0  0  0
    7.7225  -14.7887   25.7111 C   0  0  0  0  0  0  0  0  0  0  0  0
    8.6820  -14.4460   27.9076 O   0  0  0  0  0  0  0  0  0  0  0  0
    9.3763  -13.8657   28.9513 O   0  0  0  0  0  0  0  0  0  0  0  0
  2  1  1  0
  3  4  1  1
  3  2  1  0
  5  3  1  0
  5  6  1  6
  7  8  2  0
  7  5  1  0
  9 10  1  0
 10 12  1  0
 11 10  2  0
 12 13  1  0
 13 14  1  0
 14 15  1  0
 16 15  1  1
 16 17  1  0
 17  7  1  0
 18 16  1  0
 19 18  2  0
 21 20  1  1
 21 23  1  0
 21 22  1  0
 23 24  1  1
 24 18  1  0
 25 26  1  0
 25 23  1  0
 27 25  2  0
M  END
$$$$
