IRV.pdb
     RDKit          3D

 27 26  0  0  1  0  0  0  0  0999 V2000
    7.8304  -12.1406   18.4763 C   0  0  0  0  0  0  0  0  0  0  0  0
    7.7694  -13.6101   18.6545 C   0  0  0  0  0  0  0  0  0  0  0  0
    7.6856  -14.0573   20.0811 C   0  0  2  0  0  0  0  0  0  0  0  0
    8.8860  -13.5334   20.8276 C   0  0  0  0  0  0  0  0  0  0  0  0
    7.6400  -15.5610   20.2572 C   0  0  2  0  0  0  0  0  0  0  0  0
    6.5427  -16.1248   19.4815 N   0  0  0  0  0  0  0  0  0  0  0  0
    7.4041  -15.7851   21.7228 C   0  0  0  0  0  0  0  0  0  0  0  0
    6.3345  -15.3699   22.2960 O   0  0  0  0  0  0  0  0  0  0  0  0
   12.0065  -19.6181   27.9087 N   0  0  0  0  0  0  0  0  0  0  0  0
   11.8608  -20.0710   26.5367 C   0  0  0  0  0  0  0  0  0  0  0  0
   12.5640  -20.9933   26.0710 N   0  0  0  0  0  0  0  0  0  0  0  0
   10.8950  -19.4523   25.7030 N   0  0  0  0  0  0  0  0  0  0  0  0
    9.4920  -19.5059   26.1361 C   0  0  0  0  0  0  0  0  0  0  0  0
    8.8868  -18.1390   25.8077 C   0  0  0  0  0  0  0  0  0  0  0  0
    8.9614  -17.9183   24.3251 C   0  0  0  0  0  0  0  0  0  0  0  0
    8.3112  -16.5664   23.9621 C   0  0  2  0  0  0  0  0  0  0  0  0
    8.3289  -16.4555   22.5464 N   0  0  0  0  0  0  0  0  0  0  0  0
    8.9063  -15.4936   24.7548 C   0  0  0  0  0  0  0  0  0  0  0  0
   10.0166  -14.9989   24.5241 O   0  0  0  0  0  0  0  0  0  0  0  0
   12.7386  -21.3222   25.1339 C   0  0  0  0  0  0  0  0  0  0  0  0
    7.1934  -12.2636   25.4759 C   0  0  2  0  0  0  0  0  0  0  0  0
    7.5740  -12.7913   26.8339 C   0  0  0  0  0  0  0  0  0  0  0  0
    6.3565  -13.3231   27.5249 C   0  0  2  0  0  0  0  0  0  0  0  0
    8.6518  -13.8820   26.7025 N   0  0  0  0  0  0  0  0  0  0  0  0
    8.1610  -14.9651   25.8702 C   0  0  0  0  0  0  0  0  0  0  0  0
    9.1197  -14.3317   28.0014 O   0  0  0  0  0  0  0  0  0  0  0  0
    9.8652  -13.6460   28.9406 O   0  0  0  0  0  0  0  0  0  0  0  0
  2  1  1  0
  3  4  1  1
  3  2  1  0
  5  3  1  0
  5  6  1  6
  7  8  2  0
  7  5  1  0
  9 10  1  0
 10 12  1  0
 11 10  2  0
 12 13  1  0
 13 14  1  0
 14 15  1  0
 16 15  1  6
 16 17  1  0
 17  7  1  0
 18 16  1  0
 19 18  2  0
 21 20  1  1
 21 23  1  0
 21 22  1  0
 23 24  1  1
 24 18  1  0
 25 26  1  0
 25 23  1  0
 27 25  2  0
M  END
$$$$
