IRV.pdb
     RDKit          3D

 27 26  0  0  1  0  0  0  0  0999 V2000
    6.2238  -10.1618   26.6700 C   0  0  0  0  0  0  0  0  0  0  0  0
    5.5850  -11.3963   26.1576 C   0  0  0  0  0  0  0  0  0  0  0  0
    6.5327  -12.5316   25.9228 C   0  0  2  0  0  0  0  0  0  0  0  0
    7.5838  -12.0930   24.9351 C   0  0  0  0  0  0  0  0  0  0  0  0
    5.8755  -13.7862   25.3860 C   0  0  2  0  0  0  0  0  0  0  0  0
    4.7731  -14.1857   26.2514 N   0  0  0  0  0  0  0  0  0  0  0  0
    6.9481  -14.8366   25.3991 C   0  0  0  0  0  0  0  0  0  0  0  0
    7.3537  -15.3603   26.4972 O   0  0  0  0  0  0  0  0  0  0  0  0
   12.1356  -19.5612   21.3755 N   0  0  0  0  0  0  0  0  0  0  0  0
   11.1059  -19.4695   20.3557 C   0  0  0  0  0  0  0  0  0  0  0  0
   11.3329  -19.7691   19.1639 N   0  0  0  0  0  0  0  0  0  0  0  0
    9.8082  -19.0299   20.7209 N   0  0  0  0  0  0  0  0  0  0  0  0
    9.5555  -18.7731   22.1454 C   0  0  0  0  0  0  0  0  0  0  0  0
   10.0819  -17.3644   22.4296 C   0  0  0  0  0  0  0  0  0  0  0  0
    8.9156  -16.4375   22.6113 C   0  0  0  0  0  0  0  0  0  0  0  0
    8.6643  -16.1983   24.1153 C   0  0  2  0  0  0  0  0  0  0  0  0
    7.5656  -15.3050   24.2233 N   0  0  0  0  0  0  0  0  0  0  0  0
    9.9153  -15.8520   24.7850 C   0  0  0  0  0  0  0  0  0  0  0  0
   10.8087  -15.1693   24.2690 O   0  0  0  0  0  0  0  0  0  0  0  0
   10.7550  -19.8011   18.3382 C   0  0  0  0  0  0  0  0  0  0  0  0
   10.4783  -13.9651   27.7767 C   0  0  2  0  0  0  0  0  0  0  0  0
   11.1074  -15.2879   28.1255 C   0  0  0  0  0  0  0  0  0  0  0  0
   10.2143  -16.0358   29.0666 C   0  0  2  0  0  0  0  0  0  0  0  0
   11.3724  -16.1083   26.8505 N   0  0  0  0  0  0  0  0  0  0  0  0
   10.1296  -16.3208   26.1316 C   0  0  0  0  0  0  0  0  0  0  0  0
   12.0758  -17.3439   27.1453 O   0  0  0  0  0  0  0  0  0  0  0  0
   13.3751  -17.5206   27.5798 O   0  0  0  0  0  0  0  0  0  0  0  0
  2  1  1  0
  3  4  1  6
  3  2  1  0
  5  3  1  0
  5  6  1  1
  7  8  2  0
  7  5  1  0
  9 10  1  0
 10 12  1  0
 11 10  2  0
 12 13  1  0
 13 14  1  0
 14 15  1  0
 16 15  1  6
 16 17  1  0
 17  7  1  0
 18 16  1  0
 19 18  2  0
 21 20  1  1
 21 23  1  0
 21 22  1  0
 23 24  1  6
 24 18  1  0
 25 26  1  0
 25 23  1  0
 27 25  2  0
M  END
$$$$
