IRV.pdb
     RDKit          3D

 27 26  0  0  1  0  0  0  0  0999 V2000
    7.6060  -11.9596   18.5601 C   0  0  0  0  0  0  0  0  0  0  0  0
    7.7262  -13.4264   18.7297 C   0  0  0  0  0  0  0  0  0  0  0  0
    7.4900  -13.9089   20.1274 C   0  0  2  0  0  0  0  0  0  0  0  0
    8.5204  -13.2902   21.0374 C   0  0  0  0  0  0  0  0  0  0  0  0
    7.5651  -15.4135   20.2843 C   0  0  2  0  0  0  0  0  0  0  0  0
    6.6544  -16.0623   19.3497 N   0  0  0  0  0  0  0  0  0  0  0  0
    7.1378  -15.6902   21.6967 C   0  0  0  0  0  0  0  0  0  0  0  0
    6.0032  -15.2888   22.1398 O   0  0  0  0  0  0  0  0  0  0  0  0
    7.6523  -20.2414   28.8809 N   0  0  0  0  0  0  0  0  0  0  0  0
    6.7751  -20.7045   27.8204 C   0  0  0  0  0  0  0  0  0  0  0  0
    5.7969  -21.4464   28.0538 N   0  0  0  0  0  0  0  0  0  0  0  0
    7.0334  -20.3041   26.4849 N   0  0  0  0  0  0  0  0  0  0  0  0
    8.3080  -19.6243   26.2157 C   0  0  0  0  0  0  0  0  0  0  0  0
    7.9589  -18.1752   25.8686 C   0  0  0  0  0  0  0  0  0  0  0  0
    8.0754  -17.9899   24.3838 C   0  0  0  0  0  0  0  0  0  0  0  0
    7.7646  -16.5246   24.0116 C   0  0  2  0  0  0  0  0  0  0  0  0
    7.9447  -16.3976   22.6087 N   0  0  0  0  0  0  0  0  0  0  0  0
    8.4919  -15.6166   24.8948 C   0  0  0  0  0  0  0  0  0  0  0  0
    9.7259  -15.5438   24.9457 O   0  0  0  0  0  0  0  0  0  0  0  0
    5.1263  -21.9112   27.4613 C   0  0  0  0  0  0  0  0  0  0  0  0
    7.4761  -11.8456   25.5148 C   0  0  2  0  0  0  0  0  0  0  0  0
    7.5434  -12.5541   26.8418 C   0  0  0  0  0  0  0  0  0  0  0  0
    6.1566  -12.8437   27.3269 C   0  0  2  0  0  0  0  0  0  0  0  0
    8.3637  -13.8503   26.7165 N   0  0  0  0  0  0  0  0  0  0  0  0
    7.7375  -14.7414   25.7572 C   0  0  0  0  0  0  0  0  0  0  0  0
    8.5829  -14.4724   28.0101 O   0  0  0  0  0  0  0  0  0  0  0  0
    9.3576  -14.0314   29.0653 O   0  0  0  0  0  0  0  0  0  0  0  0
  2  1  1  0
  3  4  1  1
  3  2  1  0
  5  3  1  0
  5  6  1  6
  7  8  2  0
  7  5  1  0
  9 10  1  0
 10 12  1  0
 11 10  2  0
 12 13  1  0
 13 14  1  0
 14 15  1  0
 16 15  1  1
 16 17  1  0
 17  7  1  0
 18 16  1  0
 19 18  2  0
 21 20  1  1
 21 23  1  0
 21 22  1  0
 23 24  1  1
 24 18  1  0
 25 26  1  0
 25 23  1  0
 27 25  2  0
M  END
$$$$
