IRV.pdb
     RDKit          3D

 27 26  0  0  1  0  0  0  0  0999 V2000
    8.4261  -12.1968   18.4999 C   0  0  0  0  0  0  0  0  0  0  0  0
    8.2983  -13.6708   18.5763 C   0  0  0  0  0  0  0  0  0  0  0  0
    7.8763  -14.1865   19.9172 C   0  0  2  0  0  0  0  0  0  0  0  0
    8.9200  -13.8062   20.9364 C   0  0  0  0  0  0  0  0  0  0  0  0
    7.6888  -15.6885   19.9722 C   0  0  2  0  0  0  0  0  0  0  0  0
    6.8396  -16.1295   18.8731 N   0  0  0  0  0  0  0  0  0  0  0  0
    7.0143  -15.9595   21.2858 C   0  0  0  0  0  0  0  0  0  0  0  0
    5.9406  -15.3442   21.6224 O   0  0  0  0  0  0  0  0  0  0  0  0
    9.6889  -20.5883   26.8276 N   0  0  0  0  0  0  0  0  0  0  0  0
    8.6667  -19.8844   27.5816 C   0  0  0  0  0  0  0  0  0  0  0  0
    8.9587  -19.0893   28.5005 N   0  0  0  0  0  0  0  0  0  0  0  0
    7.3016  -20.1033   27.2671 N   0  0  0  0  0  0  0  0  0  0  0  0
    6.9155  -20.0500   25.8504 C   0  0  0  0  0  0  0  0  0  0  0  0
    6.8871  -18.5688   25.4665 C   0  0  0  0  0  0  0  0  0  0  0  0
    7.2992  -18.4314   24.0299 C   0  0  0  0  0  0  0  0  0  0  0  0
    7.2614  -16.9459   23.6126 C   0  0  2  0  0  0  0  0  0  0  0  0
    7.5117  -16.8929   22.2157 N   0  0  0  0  0  0  0  0  0  0  0  0
    8.1027  -16.1518   24.5042 C   0  0  0  0  0  0  0  0  0  0  0  0
    9.3364  -16.1013   24.4262 O   0  0  0  0  0  0  0  0  0  0  0  0
    8.4051  -18.5309   29.1318 C   0  0  0  0  0  0  0  0  0  0  0  0
    6.0319  -13.3384   27.0080 C   0  0  2  0  0  0  0  0  0  0  0  0
    7.4071  -13.0954   26.4449 C   0  0  0  0  0  0  0  0  0  0  0  0
    8.1299  -12.0992   27.2979 C   0  0  1  0  0  0  0  0  0  0  0  0
    8.1919  -14.4165   26.3578 N   0  0  0  0  0  0  0  0  0  0  0  0
    7.4684  -15.3686   25.5353 C   0  0  0  0  0  0  0  0  0  0  0  0
    8.5154  -14.9350   27.6749 O   0  0  0  0  0  0  0  0  0  0  0  0
    9.4624  -14.4873   28.5755 O   0  0  0  0  0  0  0  0  0  0  0  0
  2  1  1  0
  3  4  1  1
  3  2  1  0
  5  3  1  0
  5  6  1  6
  7  8  2  0
  7  5  1  0
  9 10  1  0
 10 12  1  0
 11 10  2  0
 12 13  1  0
 13 14  1  0
 14 15  1  0
 16 15  1  1
 16 17  1  0
 17  7  1  0
 18 16  1  0
 19 18  2  0
 21 20  1  6
 21 23  1  0
 21 22  1  0
 23 24  1  6
 24 18  1  0
 25 26  1  0
 25 23  1  0
 27 25  2  0
M  END
$$$$
