IRV.pdb
     RDKit          3D

 27 26  0  0  1  0  0  0  0  0999 V2000
    8.1466  -11.9008   18.1792 C   0  0  0  0  0  0  0  0  0  0  0  0
    8.3285  -13.3626   18.3366 C   0  0  0  0  0  0  0  0  0  0  0  0
    7.8478  -13.9085   19.6454 C   0  0  2  0  0  0  0  0  0  0  0  0
    8.6514  -13.2852   20.7583 C   0  0  0  0  0  0  0  0  0  0  0  0
    7.9613  -15.4139   19.7679 C   0  0  2  0  0  0  0  0  0  0  0  0
    7.2074  -16.0630   18.7030 N   0  0  0  0  0  0  0  0  0  0  0  0
    7.3641  -15.7528   21.1029 C   0  0  0  0  0  0  0  0  0  0  0  0
    6.1229  -15.5441   21.3493 O   0  0  0  0  0  0  0  0  0  0  0  0
    9.2299  -19.0866   27.7678 N   0  0  0  0  0  0  0  0  0  0  0  0
    7.9254  -19.6776   28.0076 C   0  0  0  0  0  0  0  0  0  0  0  0
    7.5320  -19.9556   29.1608 N   0  0  0  0  0  0  0  0  0  0  0  0
    7.0743  -19.9456   26.9056 N   0  0  0  0  0  0  0  0  0  0  0  0
    7.6223  -19.7337   25.5589 C   0  0  0  0  0  0  0  0  0  0  0  0
    7.4325  -18.2478   25.2449 C   0  0  0  0  0  0  0  0  0  0  0  0
    7.9079  -17.9823   23.8464 C   0  0  0  0  0  0  0  0  0  0  0  0
    7.7292  -16.4875   23.5060 C   0  0  2  0  0  0  0  0  0  0  0  0
    8.1189  -16.3130   22.1516 N   0  0  0  0  0  0  0  0  0  0  0  0
    8.3643  -15.6598   24.5283 C   0  0  0  0  0  0  0  0  0  0  0  0
    9.5840  -15.6303   24.7333 O   0  0  0  0  0  0  0  0  0  0  0  0
    6.6899  -20.3788   29.5194 C   0  0  0  0  0  0  0  0  0  0  0  0
    7.5609  -11.8868   27.7289 C   0  0  1  0  0  0  0  0  0  0  0  0
    6.9935  -12.8815   26.7511 C   0  0  0  0  0  0  0  0  0  0  0  0
    6.4554  -12.1585   25.5552 C   0  0  1  0  0  0  0  0  0  0  0  0
    8.0696  -13.9015   26.3385 N   0  0  0  0  0  0  0  0  0  0  0  0
    7.5310  -14.8156   25.3480 C   0  0  0  0  0  0  0  0  0  0  0  0
    8.6331  -14.5813   27.4911 O   0  0  0  0  0  0  0  0  0  0  0  0
    9.6770  -14.1883   28.3060 O   0  0  0  0  0  0  0  0  0  0  0  0
  2  1  1  0
  3  4  1  1
  3  2  1  0
  5  3  1  0
  5  6  1  6
  7  8  2  0
  7  5  1  0
  9 10  1  0
 10 12  1  0
 11 10  2  0
 12 13  1  0
 13 14  1  0
 14 15  1  0
 16 15  1  1
 16 17  1  0
 17  7  1  0
 18 16  1  0
 19 18  2  0
 21 20  1  1
 21 23  1  0
 21 22  1  0
 23 24  1  1
 24 18  1  0
 25 26  1  0
 25 23  1  0
 27 25  2  0
M  END
$$$$
