IRV.pdb
     RDKit          3D

 27 26  0  0  1  0  0  0  0  0999 V2000
    7.0211  -11.6602   18.5886 C   0  0  0  0  0  0  0  0  0  0  0  0
    7.6871  -12.9833   18.5603 C   0  0  0  0  0  0  0  0  0  0  0  0
    7.7280  -13.6835   19.8833 C   0  0  2  0  0  0  0  0  0  0  0  0
    8.4637  -12.8153   20.8720 C   0  0  0  0  0  0  0  0  0  0  0  0
    8.4074  -15.0368   19.8470 C   0  0  2  0  0  0  0  0  0  0  0  0
    7.7462  -15.9054   18.8816 N   0  0  0  0  0  0  0  0  0  0  0  0
    8.2575  -15.5968   21.2319 C   0  0  0  0  0  0  0  0  0  0  0  0
    7.1063  -15.9103   21.7023 O   0  0  0  0  0  0  0  0  0  0  0  0
   10.6372  -21.7023   23.6479 N   0  0  0  0  0  0  0  0  0  0  0  0
   10.1974  -21.4943   25.0162 C   0  0  0  0  0  0  0  0  0  0  0  0
    9.4883  -22.3327   25.6131 N   0  0  0  0  0  0  0  0  0  0  0  0
   10.5828  -20.3101   25.6940 N   0  0  0  0  0  0  0  0  0  0  0  0
   11.2610  -19.2698   24.9087 C   0  0  0  0  0  0  0  0  0  0  0  0
   10.3135  -18.0684   24.8748 C   0  0  0  0  0  0  0  0  0  0  0  0
   10.2978  -17.5011   23.4855 C   0  0  0  0  0  0  0  0  0  0  0  0
    9.3370  -16.2949   23.4217 C   0  0  2  0  0  0  0  0  0  0  0  0
    9.3559  -15.8097   22.0871 N   0  0  0  0  0  0  0  0  0  0  0  0
    9.6272  -15.3631   24.5084 C   0  0  0  0  0  0  0  0  0  0  0  0
   10.7587  -14.9347   24.7669 O   0  0  0  0  0  0  0  0  0  0  0  0
    9.1467  -22.3986   26.5595 C   0  0  0  0  0  0  0  0  0  0  0  0
    7.3647  -12.2300   25.2565 C   0  0  2  0  0  0  0  0  0  0  0  0
    7.5088  -13.0266   26.5261 C   0  0  0  0  0  0  0  0  0  0  0  0
    6.2490  -13.7946   26.7825 C   0  0  2  0  0  0  0  0  0  0  0  0
    8.7193  -13.9724   26.4311 N   0  0  0  0  0  0  0  0  0  0  0  0
    8.5367  -14.9008   25.3305 C   0  0  0  0  0  0  0  0  0  0  0  0
    8.9809  -14.6360   27.6959 O   0  0  0  0  0  0  0  0  0  0  0  0
    9.4836  -14.1041   28.8675 O   0  0  0  0  0  0  0  0  0  0  0  0
  2  1  1  0
  3  4  1  1
  3  2  1  0
  5  3  1  0
  5  6  1  6
  7  8  2  0
  7  5  1  0
  9 10  1  0
 10 12  1  0
 11 10  2  0
 12 13  1  0
 13 14  1  0
 14 15  1  0
 16 15  1  6
 16 17  1  0
 17  7  1  0
 18 16  1  0
 19 18  2  0
 21 20  1  1
 21 23  1  0
 21 22  1  0
 23 24  1  1
 24 18  1  0
 25 26  1  0
 25 23  1  0
 27 25  2  0
M  END
$$$$
