IRV.pdb
     RDKit          3D

 27 26  0  0  1  0  0  0  0  0999 V2000
    7.8606  -11.9367   18.0871 C   0  0  0  0  0  0  0  0  0  0  0  0
    8.0231  -13.4078   18.1526 C   0  0  0  0  0  0  0  0  0  0  0  0
    7.9250  -13.9802   19.5328 C   0  0  2  0  0  0  0  0  0  0  0  0
    9.0387  -13.4133   20.3759 C   0  0  0  0  0  0  0  0  0  0  0  0
    8.0165  -15.4912   19.5846 C   0  0  2  0  0  0  0  0  0  0  0  0
    6.9830  -16.0863   18.7471 N   0  0  0  0  0  0  0  0  0  0  0  0
    7.7887  -15.8566   21.0228 C   0  0  0  0  0  0  0  0  0  0  0  0
    6.6209  -15.7924   21.5490 O   0  0  0  0  0  0  0  0  0  0  0  0
   12.7564  -19.5630   26.6007 N   0  0  0  0  0  0  0  0  0  0  0  0
   11.5347  -20.0092   27.2467 C   0  0  0  0  0  0  0  0  0  0  0  0
   11.5459  -20.5417   28.3772 N   0  0  0  0  0  0  0  0  0  0  0  0
   10.2961  -19.8355   26.5787 N   0  0  0  0  0  0  0  0  0  0  0  0
   10.3375  -19.5414   25.1397 C   0  0  0  0  0  0  0  0  0  0  0  0
    9.5411  -18.2497   24.9404 C   0  0  0  0  0  0  0  0  0  0  0  0
    9.5498  -17.8938   23.4825 C   0  0  0  0  0  0  0  0  0  0  0  0
    8.7498  -16.5937   23.2546 C   0  0  2  0  0  0  0  0  0  0  0  0
    8.8280  -16.2865   21.8702 N   0  0  0  0  0  0  0  0  0  0  0  0
    9.1577  -15.5767   24.2204 C   0  0  0  0  0  0  0  0  0  0  0  0
   10.3146  -15.1521   24.3289 O   0  0  0  0  0  0  0  0  0  0  0  0
   10.8248  -20.9353   28.9618 C   0  0  0  0  0  0  0  0  0  0  0  0
    6.0375  -13.6527   26.6185 C   0  0  2  0  0  0  0  0  0  0  0  0
    7.2882  -12.9742   26.1255 C   0  0  0  0  0  0  0  0  0  0  0  0
    7.6205  -11.8217   27.0220 C   0  0  1  0  0  0  0  0  0  0  0  0
    8.4539  -13.9772   26.0647 N   0  0  0  0  0  0  0  0  0  0  0  0
    8.1594  -15.0203   25.0995 C   0  0  0  0  0  0  0  0  0  0  0  0
    8.7820  -14.4973   27.3801 O   0  0  0  0  0  0  0  0  0  0  0  0
    8.6794  -15.7914   27.8522 O   0  0  0  0  0  0  0  0  0  0  0  0
  2  1  1  0
  3  4  1  1
  3  2  1  0
  5  3  1  0
  5  6  1  6
  7  8  2  0
  7  5  1  0
  9 10  1  0
 10 12  1  0
 11 10  2  0
 12 13  1  0
 13 14  1  0
 14 15  1  0
 16 15  1  6
 16 17  1  0
 17  7  1  0
 18 16  1  0
 19 18  2  0
 21 20  1  6
 21 23  1  0
 21 22  1  0
 23 24  1  6
 24 18  1  0
 25 26  1  0
 25 23  1  0
 27 25  2  0
M  END
$$$$
