IRV.pdb
     RDKit          3D

 27 26  0  0  1  0  0  0  0  0999 V2000
    6.0057  -10.1479   26.5059 C   0  0  0  0  0  0  0  0  0  0  0  0
    5.3952  -11.4183   26.0498 C   0  0  0  0  0  0  0  0  0  0  0  0
    6.3786  -12.5132   25.7738 C   0  0  2  0  0  0  0  0  0  0  0  0
    7.3524  -12.0408   24.7244 C   0  0  0  0  0  0  0  0  0  0  0  0
    5.7499  -13.8025   25.2874 C   0  0  2  0  0  0  0  0  0  0  0  0
    4.6523  -14.1887   26.1649 N   0  0  0  0  0  0  0  0  0  0  0  0
    6.8440  -14.8288   25.3477 C   0  0  0  0  0  0  0  0  0  0  0  0
    7.2999  -15.2507   26.4697 O   0  0  0  0  0  0  0  0  0  0  0  0
   12.6393  -16.3978   20.8142 N   0  0  0  0  0  0  0  0  0  0  0  0
   12.5080  -17.7877   20.4143 C   0  0  0  0  0  0  0  0  0  0  0  0
   13.3371  -18.3341   19.6554 N   0  0  0  0  0  0  0  0  0  0  0  0
   11.4118  -18.5459   20.8979 N   0  0  0  0  0  0  0  0  0  0  0  0
   10.1121  -17.8683   21.0011 C   0  0  0  0  0  0  0  0  0  0  0  0
    9.8980  -17.5700   22.4868 C   0  0  0  0  0  0  0  0  0  0  0  0
    8.7476  -16.6168   22.6301 C   0  0  0  0  0  0  0  0  0  0  0  0
    8.5358  -16.2695   24.1189 C   0  0  2  0  0  0  0  0  0  0  0  0
    7.4282  -15.3836   24.1928 N   0  0  0  0  0  0  0  0  0  0  0  0
    9.8003  -15.8597   24.7243 C   0  0  0  0  0  0  0  0  0  0  0  0
   10.6323  -15.1367   24.1627 O   0  0  0  0  0  0  0  0  0  0  0  0
   13.3815  -19.2436   19.2223 C   0  0  0  0  0  0  0  0  0  0  0  0
   10.5475  -13.8447   27.5359 C   0  0  2  0  0  0  0  0  0  0  0  0
   11.1659  -15.1567   27.9404 C   0  0  0  0  0  0  0  0  0  0  0  0
   10.2910  -15.8338   28.9498 C   0  0  2  0  0  0  0  0  0  0  0  0
   11.3772  -16.0528   26.7071 N   0  0  0  0  0  0  0  0  0  0  0  0
   10.1043  -16.3114   26.0594 C   0  0  0  0  0  0  0  0  0  0  0  0
   12.0993  -17.2665   27.0443 O   0  0  0  0  0  0  0  0  0  0  0  0
   13.4202  -17.4145   27.4207 O   0  0  0  0  0  0  0  0  0  0  0  0
  2  1  1  0
  3  4  1  6
  3  2  1  0
  5  3  1  0
  5  6  1  1
  7  8  2  0
  7  5  1  0
  9 10  1  0
 10 12  1  0
 11 10  2  0
 12 13  1  0
 13 14  1  0
 14 15  1  0
 16 15  1  6
 16 17  1  0
 17  7  1  0
 18 16  1  0
 19 18  2  0
 21 20  1  1
 21 23  1  0
 21 22  1  0
 23 24  1  6
 24 18  1  0
 25 26  1  0
 25 23  1  0
 27 25  2  0
M  END
$$$$
