IRV.pdb
     RDKit          3D

 27 26  0  0  1  0  0  0  0  0999 V2000
    5.7502  -10.5004   26.5096 C   0  0  0  0  0  0  0  0  0  0  0  0
    5.2814  -11.7985   25.9710 C   0  0  0  0  0  0  0  0  0  0  0  0
    6.3736  -12.7860   25.6988 C   0  0  2  0  0  0  0  0  0  0  0  0
    7.3084  -12.2071   24.6675 C   0  0  0  0  0  0  0  0  0  0  0  0
    5.8842  -14.1268   25.1918 C   0  0  2  0  0  0  0  0  0  0  0  0
    4.8335  -14.6398   26.0616 N   0  0  0  0  0  0  0  0  0  0  0  0
    7.0804  -15.0328   25.2383 C   0  0  0  0  0  0  0  0  0  0  0  0
    7.5868  -15.4101   26.3546 O   0  0  0  0  0  0  0  0  0  0  0  0
    7.3690  -13.9583   18.5041 N   0  0  0  0  0  0  0  0  0  0  0  0
    8.6129  -13.5765   19.1487 C   0  0  0  0  0  0  0  0  0  0  0  0
    9.0736  -12.4186   19.0542 N   0  0  0  0  0  0  0  0  0  0  0  0
    9.3237  -14.5414   19.9064 N   0  0  0  0  0  0  0  0  0  0  0  0
    8.6528  -15.8209   20.1746 C   0  0  0  0  0  0  0  0  0  0  0  0
    8.2166  -15.7800   21.6410 C   0  0  0  0  0  0  0  0  0  0  0  0
    9.3666  -16.2135   22.5023 C   0  0  0  0  0  0  0  0  0  0  0  0
    8.9361  -16.2294   23.9843 C   0  0  2  0  0  0  0  0  0  0  0  0
    7.7106  -15.5175   24.0760 N   0  0  0  0  0  0  0  0  0  0  0  0
   10.0492  -15.8174   24.8356 C   0  0  0  0  0  0  0  0  0  0  0  0
   10.9486  -15.0494   24.4725 O   0  0  0  0  0  0  0  0  0  0  0  0
    9.8971  -11.9710   19.4260 C   0  0  0  0  0  0  0  0  0  0  0  0
   10.2764  -13.8770   27.7456 C   0  0  2  0  0  0  0  0  0  0  0  0
   10.8031  -15.1960   28.2459 C   0  0  0  0  0  0  0  0  0  0  0  0
    9.7522  -15.8770   29.0670 C   0  0  2  0  0  0  0  0  0  0  0  0
   11.2381  -16.0823   27.0653 N   0  0  0  0  0  0  0  0  0  0  0  0
   10.1096  -16.3224   26.1847 C   0  0  0  0  0  0  0  0  0  0  0  0
   11.8737  -17.3060   27.5200 O   0  0  0  0  0  0  0  0  0  0  0  0
   13.0735  -17.4655   28.1857 O   0  0  0  0  0  0  0  0  0  0  0  0
  2  1  1  0
  3  4  1  6
  3  2  1  0
  5  3  1  0
  5  6  1  1
  7  8  2  0
  7  5  1  0
  9 10  1  0
 10 12  1  0
 11 10  2  0
 12 13  1  0
 13 14  1  0
 14 15  1  0
 16 15  1  6
 16 17  1  0
 17  7  1  0
 18 16  1  0
 19 18  2  0
 21 20  1  1
 21 23  1  0
 21 22  1  0
 23 24  1  1
 24 18  1  0
 25 26  1  0
 25 23  1  0
 27 25  2  0
M  END
$$$$
