IRV.pdb
     RDKit          3D

 27 26  0  0  1  0  0  0  0  0999 V2000
    5.5673  -11.3573   28.0143 C   0  0  0  0  0  0  0  0  0  0  0  0
    5.0731  -12.7126   27.6770 C   0  0  0  0  0  0  0  0  0  0  0  0
    5.9537  -13.4759   26.7368 C   0  0  2  0  0  0  0  0  0  0  0  0
    6.1670  -12.6530   25.4919 C   0  0  0  0  0  0  0  0  0  0  0  0
    5.3974  -14.8224   26.3224 C   0  0  2  0  0  0  0  0  0  0  0  0
    5.1342  -15.6410   27.4989 N   0  0  0  0  0  0  0  0  0  0  0  0
    6.4680  -15.4561   25.4822 C   0  0  0  0  0  0  0  0  0  0  0  0
    7.4333  -16.1103   26.0161 O   0  0  0  0  0  0  0  0  0  0  0  0
   11.2019  -14.3392   19.1849 N   0  0  0  0  0  0  0  0  0  0  0  0
   10.0056  -14.1964   18.3741 C   0  0  0  0  0  0  0  0  0  0  0  0
    9.8848  -13.2759   17.5375 N   0  0  0  0  0  0  0  0  0  0  0  0
    8.9468  -15.1259   18.5341 N   0  0  0  0  0  0  0  0  0  0  0  0
    7.8675  -14.7700   19.4655 C   0  0  0  0  0  0  0  0  0  0  0  0
    8.3005  -15.2794   20.8422 C   0  0  0  0  0  0  0  0  0  0  0  0
    7.1885  -15.0389   21.8210 C   0  0  0  0  0  0  0  0  0  0  0  0
    7.5658  -15.6236   23.1986 C   0  0  2  0  0  0  0  0  0  0  0  0
    6.4779  -15.3730   24.0764 N   0  0  0  0  0  0  0  0  0  0  0  0
    8.8981  -15.1701   23.5893 C   0  0  0  0  0  0  0  0  0  0  0  0
    9.3342  -14.0343   23.3649 O   0  0  0  0  0  0  0  0  0  0  0  0
    9.1570  -13.0271   16.8855 C   0  0  0  0  0  0  0  0  0  0  0  0
   12.2219  -15.5127   27.0895 C   0  0  2  0  0  0  0  0  0  0  0  0
   10.8976  -15.8146   26.4395 C   0  0  0  0  0  0  0  0  0  0  0  0
    9.8499  -14.8931   26.9836 C   0  0  1  0  0  0  0  0  0  0  0  0
   11.0077  -15.6796   24.9104 N   0  0  0  0  0  0  0  0  0  0  0  0
    9.7628  -16.0893   24.2866 C   0  0  0  0  0  0  0  0  0  0  0  0
   12.1630  -16.3901   24.3919 O   0  0  0  0  0  0  0  0  0  0  0  0
   13.4987  -16.0458   24.4656 O   0  0  0  0  0  0  0  0  0  0  0  0
  2  1  1  0
  3  4  1  6
  3  2  1  0
  5  3  1  0
  5  6  1  1
  7  8  2  0
  7  5  1  0
  9 10  1  0
 10 12  1  0
 11 10  2  0
 12 13  1  0
 13 14  1  0
 14 15  1  0
 16 15  1  6
 16 17  1  0
 17  7  1  0
 18 16  1  0
 19 18  2  0
 21 20  1  1
 21 23  1  0
 21 22  1  0
 23 24  1  1
 24 18  1  0
 25 26  1  0
 25 23  1  0
 27 25  2  0
M  END
$$$$
