IRV.pdb
     RDKit          3D

 27 26  0  0  1  0  0  0  0  0999 V2000
    7.1640  -11.8655   19.2159 C   0  0  0  0  0  0  0  0  0  0  0  0
    7.7628  -13.2181   19.1333 C   0  0  0  0  0  0  0  0  0  0  0  0
    7.8840  -13.9224   20.4491 C   0  0  2  0  0  0  0  0  0  0  0  0
    8.7573  -13.1011   21.3631 C   0  0  0  0  0  0  0  0  0  0  0  0
    8.4765  -15.3132   20.3550 C   0  0  2  0  0  0  0  0  0  0  0  0
    7.7146  -16.1213   19.4115 N   0  0  0  0  0  0  0  0  0  0  0  0
    8.3642  -15.8902   21.7364 C   0  0  0  0  0  0  0  0  0  0  0  0
    7.2230  -16.1700   22.2502 O   0  0  0  0  0  0  0  0  0  0  0  0
   12.9551  -19.3855   23.2068 N   0  0  0  0  0  0  0  0  0  0  0  0
   12.3430  -19.9883   22.0360 C   0  0  0  0  0  0  0  0  0  0  0  0
   12.9760  -20.1428   20.9696 N   0  0  0  0  0  0  0  0  0  0  0  0
   10.9922  -20.4143   22.1038 N   0  0  0  0  0  0  0  0  0  0  0  0
   10.3020  -20.2763   23.3936 C   0  0  0  0  0  0  0  0  0  0  0  0
    9.5018  -18.9739   23.3174 C   0  0  0  0  0  0  0  0  0  0  0  0
   10.2854  -17.8826   23.9864 C   0  0  0  0  0  0  0  0  0  0  0  0
    9.5074  -16.5521   23.9050 C   0  0  2  0  0  0  0  0  0  0  0  0
    9.4887  -16.1562   22.5413 N   0  0  0  0  0  0  0  0  0  0  0  0
   10.0162  -15.6107   24.8992 C   0  0  0  0  0  0  0  0  0  0  0  0
   11.1515  -15.1202   24.8682 O   0  0  0  0  0  0  0  0  0  0  0  0
   12.7351  -20.5426   20.0758 C   0  0  0  0  0  0  0  0  0  0  0  0
    8.4116  -12.3750   25.8922 C   0  0  2  0  0  0  0  0  0  0  0  0
    8.5143  -13.1687   27.1677 C   0  0  0  0  0  0  0  0  0  0  0  0
    7.1721  -13.7338   27.5166 C   0  0  2  0  0  0  0  0  0  0  0  0
    9.5603  -14.2880   27.0200 N   0  0  0  0  0  0  0  0  0  0  0  0
    9.1496  -15.2151   25.9815 C   0  0  0  0  0  0  0  0  0  0  0  0
    9.8295  -14.9401   28.2890 O   0  0  0  0  0  0  0  0  0  0  0  0
   10.4583  -14.4329   29.4095 O   0  0  0  0  0  0  0  0  0  0  0  0
  2  1  1  0
  3  4  1  1
  3  2  1  0
  5  3  1  0
  5  6  1  6
  7  8  2  0
  7  5  1  0
  9 10  1  0
 10 12  1  0
 11 10  2  0
 12 13  1  0
 13 14  1  0
 14 15  1  0
 16 15  1  6
 16 17  1  0
 17  7  1  0
 18 16  1  0
 19 18  2  0
 21 20  1  1
 21 23  1  0
 21 22  1  0
 23 24  1  1
 24 18  1  0
 25 26  1  0
 25 23  1  0
 27 25  2  0
M  END
$$$$
