IRV.pdb
     RDKit          3D

 27 26  0  0  1  0  0  0  0  0999 V2000
    5.8861  -10.3495   26.2700 C   0  0  0  0  0  0  0  0  0  0  0  0
    5.3607  -11.6425   25.7734 C   0  0  0  0  0  0  0  0  0  0  0  0
    6.3904  -12.7228   25.6514 C   0  0  2  0  0  0  0  0  0  0  0  0
    7.4530  -12.2761   24.6799 C   0  0  0  0  0  0  0  0  0  0  0  0
    5.8414  -14.0506   25.1721 C   0  0  2  0  0  0  0  0  0  0  0  0
    4.7137  -14.4568   26.0010 N   0  0  0  0  0  0  0  0  0  0  0  0
    6.9707  -15.0282   25.3228 C   0  0  0  0  0  0  0  0  0  0  0  0
    7.2529  -15.5492   26.4602 O   0  0  0  0  0  0  0  0  0  0  0  0
   13.4646  -17.4218   21.6166 N   0  0  0  0  0  0  0  0  0  0  0  0
   13.0165  -18.7861   21.4003 C   0  0  0  0  0  0  0  0  0  0  0  0
   13.8214  -19.7401   21.3386 N   0  0  0  0  0  0  0  0  0  0  0  0
   11.6296  -19.0439   21.2565 N   0  0  0  0  0  0  0  0  0  0  0  0
   10.7209  -17.8893   21.2673 C   0  0  0  0  0  0  0  0  0  0  0  0
   10.3249  -17.6658   22.7287 C   0  0  0  0  0  0  0  0  0  0  0  0
    9.2533  -16.6166   22.7865 C   0  0  0  0  0  0  0  0  0  0  0  0
    8.8546  -16.3537   24.2542 C   0  0  2  0  0  0  0  0  0  0  0  0
    7.7777  -15.4279   24.2402 N   0  0  0  0  0  0  0  0  0  0  0  0
   10.0391  -16.0362   25.0477 C   0  0  0  0  0  0  0  0  0  0  0  0
   10.9929  -15.3693   24.6280 O   0  0  0  0  0  0  0  0  0  0  0  0
   13.7081  -20.7295   21.1806 C   0  0  0  0  0  0  0  0  0  0  0  0
   10.1897  -14.0926   27.9121 C   0  0  2  0  0  0  0  0  0  0  0  0
   10.8287  -15.3513   28.4364 C   0  0  0  0  0  0  0  0  0  0  0  0
    9.8751  -16.0541   29.3526 C   0  0  2  0  0  0  0  0  0  0  0  0
   11.2465  -16.2660   27.2713 N   0  0  0  0  0  0  0  0  0  0  0  0
   10.1086  -16.5157   26.4056 C   0  0  0  0  0  0  0  0  0  0  0  0
   11.8763  -17.4848   27.7467 O   0  0  0  0  0  0  0  0  0  0  0  0
   13.0982  -17.6440   28.3711 O   0  0  0  0  0  0  0  0  0  0  0  0
  2  1  1  0
  3  4  1  6
  3  2  1  0
  5  3  1  0
  5  6  1  1
  7  8  2  0
  7  5  1  0
  9 10  1  0
 10 12  1  0
 11 10  2  0
 12 13  1  0
 13 14  1  0
 14 15  1  0
 16 15  1  6
 16 17  1  0
 17  7  1  0
 18 16  1  0
 19 18  2  0
 21 20  1  1
 21 23  1  0
 21 22  1  0
 23 24  1  1
 24 18  1  0
 25 26  1  0
 25 23  1  0
 27 25  2  0
M  END
$$$$
