IRV.pdb
     RDKit          3D

 27 26  0  0  1  0  0  0  0  0999 V2000
    6.8219  -11.3535   28.1255 C   0  0  0  0  0  0  0  0  0  0  0  0
    5.9699  -12.3483   27.4334 C   0  0  0  0  0  0  0  0  0  0  0  0
    6.6829  -13.1575   26.3947 C   0  0  2  0  0  0  0  0  0  0  0  0
    7.2340  -12.2266   25.3448 C   0  0  0  0  0  0  0  0  0  0  0  0
    5.8105  -14.1847   25.7031 C   0  0  2  0  0  0  0  0  0  0  0  0
    5.1711  -15.0465   26.6890 N   0  0  0  0  0  0  0  0  0  0  0  0
    6.7432  -14.9879   24.8435 C   0  0  0  0  0  0  0  0  0  0  0  0
    7.6202  -15.7676   25.3610 O   0  0  0  0  0  0  0  0  0  0  0  0
    8.4234  -12.9221   17.5346 N   0  0  0  0  0  0  0  0  0  0  0  0
    8.6912  -14.2161   16.9323 C   0  0  0  0  0  0  0  0  0  0  0  0
    9.0001  -14.3283   15.7266 N   0  0  0  0  0  0  0  0  0  0  0  0
    8.6012  -15.3832   17.7325 N   0  0  0  0  0  0  0  0  0  0  0  0
    7.5716  -15.4088   18.7804 C   0  0  0  0  0  0  0  0  0  0  0  0
    8.3155  -15.3636   20.1172 C   0  0  0  0  0  0  0  0  0  0  0  0
    7.4090  -14.7741   21.1579 C   0  0  0  0  0  0  0  0  0  0  0  0
    7.6849  -15.4304   22.5273 C   0  0  2  0  0  0  0  0  0  0  0  0
    6.7127  -14.9358   23.4366 N   0  0  0  0  0  0  0  0  0  0  0  0
    9.0977  -15.2966   22.8732 C   0  0  0  0  0  0  0  0  0  0  0  0
    9.6826  -14.2117   22.9799 O   0  0  0  0  0  0  0  0  0  0  0  0
    9.2800  -15.1111   15.1559 C   0  0  0  0  0  0  0  0  0  0  0  0
   10.8021  -17.0569   25.8402 C   0  0  2  0  0  0  0  0  0  0  0  0
   11.5564  -17.4589   24.6005 C   0  0  0  0  0  0  0  0  0  0  0  0
   11.1709  -18.8517   24.2081 C   0  0  2  0  0  0  0  0  0  0  0  0
   11.2753  -16.4680   23.4569 N   0  0  0  0  0  0  0  0  0  0  0  0
    9.8648  -16.4931   23.1159 C   0  0  0  0  0  0  0  0  0  0  0  0
   12.1396  -16.7088   22.3152 O   0  0  0  0  0  0  0  0  0  0  0  0
   13.4882  -16.4441   22.1763 O   0  0  0  0  0  0  0  0  0  0  0  0
  2  1  1  0
  3  4  1  6
  3  2  1  0
  5  3  1  0
  5  6  1  1
  7  8  2  0
  7  5  1  0
  9 10  1  0
 10 12  1  0
 11 10  2  0
 12 13  1  0
 13 14  1  0
 14 15  1  0
 16 15  1  6
 16 17  1  0
 17  7  1  0
 18 16  1  0
 19 18  2  0
 21 20  1  1
 21 23  1  0
 21 22  1  0
 23 24  1  6
 24 18  1  0
 25 26  1  0
 25 23  1  0
 27 25  2  0
M  END
$$$$
