TAS.pdb
     RDKit          3D

 19 18  0  0  1  0  0  0  0  0999 V2000
   19.7095  -10.2807  -21.5744 C   0  0  0  0  0  0  0  0  0  0  0  0
   20.2038   -9.4745  -20.4011 C   0  0  1  0  0  0  0  0  0  0  0  0
   19.2869   -9.5706  -19.3652 O   0  0  0  0  0  0  0  0  0  0  0  0
   21.5534  -10.0310  -19.9603 C   0  0  2  0  0  0  0  0  0  0  0  0
   21.4411  -11.4426  -19.7643 N   0  0  0  0  0  0  0  0  0  0  0  0
   22.1026   -9.3191  -18.7966 C   0  0  0  0  0  0  0  0  0  0  0  0
   21.7315   -9.5576  -17.6049 O   0  0  0  0  0  0  0  0  0  0  0  0
   24.8145   -6.6946  -18.3393 C   0  0  0  0  0  0  0  0  0  0  0  0
   23.5992   -7.4882  -17.9302 C   0  0  2  0  0  0  0  0  0  0  0  0
   23.0917   -8.3190  -18.9992 N   0  0  0  0  0  0  0  0  0  0  0  0
   22.5417   -6.6132  -17.3550 C   0  0  0  0  0  0  0  0  0  0  0  0
   21.6621   -6.0627  -18.0668 O   0  0  0  0  0  0  0  0  0  0  0  0
   22.2486   -6.4950  -13.2081 O   0  0  0  0  0  0  0  0  0  0  0  0
   21.1446   -6.2209  -13.9959 C   0  0  0  0  0  0  0  0  0  0  0  0
   21.5455   -5.5278  -15.3007 C   0  0  2  0  0  0  0  0  0  0  0  0
   22.4904   -6.3667  -15.9561 N   0  0  0  0  0  0  0  0  0  0  0  0
   22.1840   -4.2467  -14.9258 C   0  0  0  0  0  0  0  0  0  0  0  0
   21.4135   -3.2498  -14.3679 O   0  0  0  0  0  0  0  0  0  0  0  0
   23.4043   -4.1006  -15.1239 O   0  0  0  0  0  0  0  0  0  0  0  0
  2  3  1  0
  2  1  1  6
  4  2  1  0
  4  5  1  1
  6  4  1  0
  6 10  1  0
  7  6  2  0
  9  8  1  6
  9 10  1  0
  9 11  1  0
 11 12  2  0
 13 14  1  0
 15 14  1  1
 15 17  1  0
 16 11  1  0
 16 15  1  0
 17 18  1  0
 19 17  2  0
M  END
$$$$
