TAS.pdb
     RDKit          3D

 19 18  0  0  1  0  0  0  0  0999 V2000
   27.7499  -11.9720  -16.1263 C   0  0  0  0  0  0  0  0  0  0  0  0
   27.4483  -10.6120  -16.7012 C   0  0  1  0  0  0  0  0  0  0  0  0
   27.6385  -10.6468  -18.0744 O   0  0  0  0  0  0  0  0  0  0  0  0
   26.0003  -10.2569  -16.3811 C   0  0  2  0  0  0  0  0  0  0  0  0
   25.1323  -11.2102  -16.9989 N   0  0  0  0  0  0  0  0  0  0  0  0
   25.6750   -8.8629  -16.7181 C   0  0  0  0  0  0  0  0  0  0  0  0
   26.2369   -7.8698  -16.1589 O   0  0  0  0  0  0  0  0  0  0  0  0
   23.4135   -7.2325  -19.3025 C   0  0  0  0  0  0  0  0  0  0  0  0
   24.2615   -7.2645  -18.0560 C   0  0  2  0  0  0  0  0  0  0  0  0
   24.6919   -8.6009  -17.7101 N   0  0  0  0  0  0  0  0  0  0  0  0
   23.5872   -6.5844  -16.9169 C   0  0  0  0  0  0  0  0  0  0  0  0
   22.8496   -7.2012  -16.1053 O   0  0  0  0  0  0  0  0  0  0  0  0
   23.3716   -2.2876  -14.5842 O   0  0  0  0  0  0  0  0  0  0  0  0
   23.8744   -3.0829  -15.5987 C   0  0  0  0  0  0  0  0  0  0  0  0
   23.1575   -4.4343  -15.6587 C   0  0  2  0  0  0  0  0  0  0  0  0
   23.7582   -5.1893  -16.7053 N   0  0  0  0  0  0  0  0  0  0  0  0
   21.7425   -4.1535  -15.9882 C   0  0  0  0  0  0  0  0  0  0  0  0
   20.8430   -3.9451  -14.9653 O   0  0  0  0  0  0  0  0  0  0  0  0
   21.3987   -4.1122  -17.1839 O   0  0  0  0  0  0  0  0  0  0  0  0
  2  3  1  0
  2  1  1  6
  4  2  1  0
  4  5  1  6
  6  4  1  0
  6 10  1  0
  7  6  2  0
  9  8  1  6
  9 10  1  0
  9 11  1  0
 11 12  2  0
 13 14  1  0
 15 14  1  6
 15 17  1  0
 16 11  1  0
 16 15  1  0
 17 18  1  0
 19 17  2  0
M  END
$$$$
