TAS.pdb
     RDKit          3D

 19 18  0  0  1  0  0  0  0  0999 V2000
   20.1291   -5.2042  -18.7266 C   0  0  0  0  0  0  0  0  0  0  0  0
   19.2491   -6.4205  -18.8584 C   0  0  1  0  0  0  0  0  0  0  0  0
   19.0743   -6.7113  -20.2030 O   0  0  0  0  0  0  0  0  0  0  0  0
   19.9251   -7.5909  -18.1523 C   0  0  2  0  0  0  0  0  0  0  0  0
   19.2619   -8.8057  -18.5105 N   0  0  0  0  0  0  0  0  0  0  0  0
   20.0307   -7.3867  -16.6998 C   0  0  0  0  0  0  0  0  0  0  0  0
   19.0153   -7.2790  -15.9435 O   0  0  0  0  0  0  0  0  0  0  0  0
   22.5919   -7.8359  -14.0692 C   0  0  0  0  0  0  0  0  0  0  0  0
   21.5174   -6.9909  -14.7058 C   0  0  2  0  0  0  0  0  0  0  0  0
   21.3179   -7.3045  -16.1031 N   0  0  0  0  0  0  0  0  0  0  0  0
   21.7628   -5.5389  -14.4905 C   0  0  0  0  0  0  0  0  0  0  0  0
   21.9609   -5.0515  -13.3475 O   0  0  0  0  0  0  0  0  0  0  0  0
   23.9735   -3.4156  -16.9693 O   0  0  0  0  0  0  0  0  0  0  0  0
   22.7251   -2.8358  -16.8289 C   0  0  0  0  0  0  0  0  0  0  0  0
   22.0620   -3.2456  -15.5113 C   0  0  2  0  0  0  0  0  0  0  0  0
   21.7816   -4.6389  -15.5905 N   0  0  0  0  0  0  0  0  0  0  0  0
   20.7983   -2.4821  -15.4129 C   0  0  0  0  0  0  0  0  0  0  0  0
   20.8435   -1.1497  -15.0646 O   0  0  0  0  0  0  0  0  0  0  0  0
   19.7229   -3.0636  -15.6479 O   0  0  0  0  0  0  0  0  0  0  0  0
  2  3  1  0
  2  1  1  6
  4  2  1  0
  4  5  1  1
  6  4  1  0
  6 10  1  0
  7  6  2  0
  9  8  1  6
  9 10  1  0
  9 11  1  0
 11 12  2  0
 13 14  1  0
 15 14  1  6
 15 17  1  0
 16 11  1  0
 16 15  1  0
 17 18  1  0
 19 17  2  0
M  END
$$$$
