TAS.pdb
     RDKit          3D

 19 18  0  0  1  0  0  0  0  0999 V2000
   14.0681   -6.2700   -7.4784 C   0  0  0  0  0  0  0  0  0  0  0  0
   13.7692   -7.7433   -7.5827 C   0  0  1  0  0  0  0  0  0  0  0  0
   12.4751   -7.9767   -7.1420 O   0  0  0  0  0  0  0  0  0  0  0  0
   13.9117   -8.1684   -9.0402 C   0  0  2  0  0  0  0  0  0  0  0  0
   13.6514   -9.5698   -9.1512 N   0  0  0  0  0  0  0  0  0  0  0  0
   15.2006   -7.7636   -9.6209 C   0  0  0  0  0  0  0  0  0  0  0  0
   15.6068   -6.5596   -9.6248 O   0  0  0  0  0  0  0  0  0  0  0  0
   18.0674   -9.6368  -11.2738 C   0  0  0  0  0  0  0  0  0  0  0  0
   17.2227   -8.4255  -10.9684 C   0  0  2  0  0  0  0  0  0  0  0  0
   16.0379   -8.7514  -10.2064 N   0  0  0  0  0  0  0  0  0  0  0  0
   16.8981   -7.6588  -12.2019 C   0  0  0  0  0  0  0  0  0  0  0  0
   15.9239   -7.9539  -12.9417 O   0  0  0  0  0  0  0  0  0  0  0  0
   17.8415   -3.4614  -14.4685 O   0  0  0  0  0  0  0  0  0  0  0  0
   17.9885   -4.3248  -13.3974 C   0  0  0  0  0  0  0  0  0  0  0  0
   17.4583   -5.7226  -13.7276 C   0  0  2  0  0  0  0  0  0  0  0  0
   17.6935   -6.5471  -12.5914 N   0  0  0  0  0  0  0  0  0  0  0  0
   18.2438   -6.2167  -14.8801 C   0  0  0  0  0  0  0  0  0  0  0  0
   17.7010   -6.1429  -16.1445 O   0  0  0  0  0  0  0  0  0  0  0  0
   19.3783   -6.6880  -14.6787 O   0  0  0  0  0  0  0  0  0  0  0  0
  2  3  1  0
  2  1  1  6
  4  2  1  0
  4  5  1  1
  6  4  1  0
  6 10  1  0
  7  6  2  0
  9  8  1  6
  9 10  1  0
  9 11  1  0
 11 12  2  0
 13 14  1  0
 15 14  1  1
 15 17  1  0
 16 11  1  0
 16 15  1  0
 17 18  1  0
 19 17  2  0
M  END
$$$$
