TAS.pdb
     RDKit          3D

 19 18  0  0  1  0  0  0  0  0999 V2000
   19.9972   -9.3141  -20.2978 C   0  0  0  0  0  0  0  0  0  0  0  0
   19.2960  -10.3089  -19.4090 C   0  0  1  0  0  0  0  0  0  0  0  0
   18.6930  -11.2770  -20.1978 O   0  0  0  0  0  0  0  0  0  0  0  0
   20.3268  -10.9510  -18.4868 C   0  0  2  0  0  0  0  0  0  0  0  0
   19.7477  -12.0954  -17.8552 N   0  0  0  0  0  0  0  0  0  0  0  0
   20.9094   -9.9899  -17.5384 C   0  0  0  0  0  0  0  0  0  0  0  0
   20.2325   -9.4329  -16.6185 O   0  0  0  0  0  0  0  0  0  0  0  0
   24.4452   -8.7456  -16.9019 C   0  0  0  0  0  0  0  0  0  0  0  0
   22.9450   -8.7341  -16.7494 C   0  0  2  0  0  0  0  0  0  0  0  0
   22.2879   -9.6608  -17.6439 N   0  0  0  0  0  0  0  0  0  0  0  0
   22.3924   -7.3576  -16.8696 C   0  0  0  0  0  0  0  0  0  0  0  0
   22.0894   -6.8479  -17.9794 O   0  0  0  0  0  0  0  0  0  0  0  0
   19.8316   -5.8029  -14.3851 O   0  0  0  0  0  0  0  0  0  0  0  0
   20.2275   -5.2094  -15.5706 C   0  0  0  0  0  0  0  0  0  0  0  0
   21.7519   -5.2032  -15.7124 C   0  0  2  0  0  0  0  0  0  0  0  0
   22.1855   -6.5590  -15.7121 N   0  0  0  0  0  0  0  0  0  0  0  0
   22.2890   -4.5022  -14.5252 C   0  0  0  0  0  0  0  0  0  0  0  0
   22.0996   -3.1426  -14.4048 O   0  0  0  0  0  0  0  0  0  0  0  0
   22.9001   -5.1593  -13.6624 O   0  0  0  0  0  0  0  0  0  0  0  0
  2  3  1  0
  2  1  1  6
  4  2  1  0
  4  5  1  1
  6  4  1  0
  6 10  1  0
  7  6  2  0
  9  8  1  6
  9 10  1  0
  9 11  1  0
 11 12  2  0
 13 14  1  0
 15 14  1  1
 15 17  1  0
 16 11  1  0
 16 15  1  0
 17 18  1  0
 19 17  2  0
M  END
$$$$
