TAS.pdb
     RDKit          3D

 19 18  0  0  1  0  0  0  0  0999 V2000
   20.3711  -11.3707  -16.3121 C   0  0  0  0  0  0  0  0  0  0  0  0
   19.0263  -11.4007  -16.9915 C   0  0  1  0  0  0  0  0  0  0  0  0
   18.8189  -12.6602  -17.5334 O   0  0  0  0  0  0  0  0  0  0  0  0
   17.9497  -11.0910  -15.9569 C   0  0  2  0  0  0  0  0  0  0  0  0
   16.6660  -11.4036  -16.5029 N   0  0  0  0  0  0  0  0  0  0  0  0
   18.0474   -9.7190  -15.4366 C   0  0  0  0  0  0  0  0  0  0  0  0
   18.0249   -8.6941  -16.1875 O   0  0  0  0  0  0  0  0  0  0  0  0
   18.2316   -8.2139  -11.9517 C   0  0  0  0  0  0  0  0  0  0  0  0
   18.4152   -8.2174  -13.4485 C   0  0  2  0  0  0  0  0  0  0  0  0
   18.1727   -9.5162  -14.0356 N   0  0  0  0  0  0  0  0  0  0  0  0
   19.7424   -7.6688  -13.8390 C   0  0  0  0  0  0  0  0  0  0  0  0
   20.7652   -8.3937  -13.9481 O   0  0  0  0  0  0  0  0  0  0  0  0
   21.7642   -3.6750  -15.7783 O   0  0  0  0  0  0  0  0  0  0  0  0
   20.6658   -4.3725  -15.3078 C   0  0  0  0  0  0  0  0  0  0  0  0
   21.0830   -5.6676  -14.6059 C   0  0  2  0  0  0  0  0  0  0  0  0
   19.9001   -6.2818  -14.1063 N   0  0  0  0  0  0  0  0  0  0  0  0
   21.9632   -5.2801  -13.4813 C   0  0  0  0  0  0  0  0  0  0  0  0
   23.3266   -5.2425  -13.6771 O   0  0  0  0  0  0  0  0  0  0  0  0
   21.4491   -4.9968  -12.3835 O   0  0  0  0  0  0  0  0  0  0  0  0
  2  3  1  0
  2  1  1  1
  4  2  1  0
  4  5  1  6
  6  4  1  0
  6 10  1  0
  7  6  2  0
  9  8  1  1
  9 10  1  0
  9 11  1  0
 11 12  2  0
 13 14  1  0
 15 14  1  1
 15 17  1  0
 16 11  1  0
 16 15  1  0
 17 18  1  0
 19 17  2  0
M  END
$$$$
