TAS.pdb
     RDKit          3D

 19 18  0  0  1  0  0  0  0  0999 V2000
   18.5201   -9.7417  -18.2813 C   0  0  0  0  0  0  0  0  0  0  0  0
   17.9013  -10.7637  -17.3628 C   0  0  1  0  0  0  0  0  0  0  0  0
   17.1813  -11.6769  -18.1183 O   0  0  0  0  0  0  0  0  0  0  0  0
   19.0156  -11.4749  -16.6025 C   0  0  2  0  0  0  0  0  0  0  0  0
   18.4857  -12.6427  -15.9706 N   0  0  0  0  0  0  0  0  0  0  0  0
   19.7263  -10.5791  -15.6777 C   0  0  0  0  0  0  0  0  0  0  0  0
   19.1267   -9.8528  -14.8247 O   0  0  0  0  0  0  0  0  0  0  0  0
   23.3987   -9.8424  -15.0136 C   0  0  0  0  0  0  0  0  0  0  0  0
   21.9166   -9.5722  -14.9487 C   0  0  2  0  0  0  0  0  0  0  0  0
   21.1449  -10.5133  -15.7294 N   0  0  0  0  0  0  0  0  0  0  0  0
   21.6006   -8.1622  -15.3047 C   0  0  0  0  0  0  0  0  0  0  0  0
   21.5591   -7.7615  -16.4968 O   0  0  0  0  0  0  0  0  0  0  0  0
   18.7437   -5.7983  -14.5291 O   0  0  0  0  0  0  0  0  0  0  0  0
   19.8526   -5.4002  -13.8036 C   0  0  0  0  0  0  0  0  0  0  0  0
   21.1536   -5.8077  -14.5002 C   0  0  2  0  0  0  0  0  0  0  0  0
   21.3303   -7.2044  -14.2899 N   0  0  0  0  0  0  0  0  0  0  0  0
   22.2450   -5.0569  -13.8408 C   0  0  0  0  0  0  0  0  0  0  0  0
   22.9793   -5.6706  -12.8494 O   0  0  0  0  0  0  0  0  0  0  0  0
   22.4736   -3.8868  -14.1988 O   0  0  0  0  0  0  0  0  0  0  0  0
  2  3  1  0
  2  1  1  6
  4  2  1  0
  4  5  1  1
  6  4  1  0
  6 10  1  0
  7  6  2  0
  9  8  1  6
  9 10  1  0
  9 11  1  0
 11 12  2  0
 13 14  1  0
 15 14  1  1
 15 17  1  0
 16 11  1  0
 16 15  1  0
 17 18  1  0
 19 17  2  0
M  END
$$$$
