TAS.pdb
     RDKit          3D

 19 18  0  0  1  0  0  0  0  0999 V2000
   11.9622  -10.4177  -12.2164 C   0  0  0  0  0  0  0  0  0  0  0  0
   12.4166  -11.7417  -11.6582 C   0  0  1  0  0  0  0  0  0  0  0  0
   11.6610  -12.7571  -12.2250 O   0  0  0  0  0  0  0  0  0  0  0  0
   13.8911  -11.9339  -11.9963 C   0  0  2  0  0  0  0  0  0  0  0  0
   14.2751  -13.2763  -11.6895 N   0  0  0  0  0  0  0  0  0  0  0  0
   14.7496  -10.9198  -11.3662 C   0  0  0  0  0  0  0  0  0  0  0  0
   14.6859  -10.6351  -10.1294 O   0  0  0  0  0  0  0  0  0  0  0  0
   17.5270   -8.6576  -12.6598 C   0  0  0  0  0  0  0  0  0  0  0  0
   16.5509   -9.1803  -11.6361 C   0  0  2  0  0  0  0  0  0  0  0  0
   15.6958  -10.2204  -12.1632 N   0  0  0  0  0  0  0  0  0  0  0  0
   15.7682   -8.0787  -11.0127 C   0  0  0  0  0  0  0  0  0  0  0  0
   14.7213   -7.6165  -11.5359 O   0  0  0  0  0  0  0  0  0  0  0  0
   15.1184   -5.7074   -6.8336 O   0  0  0  0  0  0  0  0  0  0  0  0
   15.8157   -6.6254   -7.5989 C   0  0  0  0  0  0  0  0  0  0  0  0
   15.5118   -6.4576   -9.0900 C   0  0  2  0  0  0  0  0  0  0  0  0
   16.1864   -7.5022   -9.7827 N   0  0  0  0  0  0  0  0  0  0  0  0
   16.0646   -5.1460   -9.4942 C   0  0  0  0  0  0  0  0  0  0  0  0
   17.2718   -5.1010  -10.1572 O   0  0  0  0  0  0  0  0  0  0  0  0
   15.4242   -4.1130   -9.2248 O   0  0  0  0  0  0  0  0  0  0  0  0
  2  3  1  0
  2  1  1  6
  4  2  1  0
  4  5  1  1
  6  4  1  0
  6 10  1  0
  7  6  2  0
  9  8  1  6
  9 10  1  0
  9 11  1  0
 11 12  2  0
 13 14  1  0
 15 14  1  1
 15 17  1  0
 16 11  1  0
 16 15  1  0
 17 18  1  0
 19 17  2  0
M  END
$$$$
