TAS.pdb
     RDKit          3D

 19 18  0  0  1  0  0  0  0  0999 V2000
   19.9819  -12.6774  -17.4354 C   0  0  0  0  0  0  0  0  0  0  0  0
   18.6440  -12.4023  -16.7986 C   0  0  1  0  0  0  0  0  0  0  0  0
   18.0834  -13.6008  -16.3834 O   0  0  0  0  0  0  0  0  0  0  0  0
   18.8530  -11.4789  -15.6031 C   0  0  2  0  0  0  0  0  0  0  0  0
   17.6658  -11.4610  -14.8069 N   0  0  0  0  0  0  0  0  0  0  0  0
   19.3131  -10.1398  -16.0001 C   0  0  0  0  0  0  0  0  0  0  0  0
   20.4187   -9.9389  -16.5935 O   0  0  0  0  0  0  0  0  0  0  0  0
   17.7471   -6.6873  -15.9838 C   0  0  0  0  0  0  0  0  0  0  0  0
   18.9037   -7.6548  -15.9963 C   0  0  2  0  0  0  0  0  0  0  0  0
   18.4959   -9.0130  -15.7139 N   0  0  0  0  0  0  0  0  0  0  0  0
   20.0034   -7.2058  -15.0998 C   0  0  0  0  0  0  0  0  0  0  0  0
   20.0998   -7.5925  -13.9063 O   0  0  0  0  0  0  0  0  0  0  0  0
   24.1434   -4.5879  -15.1343 O   0  0  0  0  0  0  0  0  0  0  0  0
   23.1192   -5.2443  -15.7936 C   0  0  0  0  0  0  0  0  0  0  0  0
   22.0967   -5.8185  -14.8094 C   0  0  2  0  0  0  0  0  0  0  0  0
   20.9993   -6.3084  -15.5722 N   0  0  0  0  0  0  0  0  0  0  0  0
   21.6532   -4.6977  -13.9511 C   0  0  0  0  0  0  0  0  0  0  0  0
   22.2675   -4.4998  -12.7335 O   0  0  0  0  0  0  0  0  0  0  0  0
   20.7341   -3.9593  -14.3509 O   0  0  0  0  0  0  0  0  0  0  0  0
  2  3  1  0
  2  1  1  1
  4  2  1  0
  4  5  1  6
  6  4  1  0
  6 10  1  0
  7  6  2  0
  9  8  1  1
  9 10  1  0
  9 11  1  0
 11 12  2  0
 13 14  1  0
 15 14  1  6
 15 17  1  0
 16 11  1  0
 16 15  1  0
 17 18  1  0
 19 17  2  0
M  END
$$$$
