TAS.pdb
     RDKit          3D

 19 18  0  0  1  0  0  0  0  0999 V2000
   19.0485   -8.9180  -19.0052 C   0  0  0  0  0  0  0  0  0  0  0  0
   18.3534  -10.0814  -18.3463 C   0  0  1  0  0  0  0  0  0  0  0  0
   18.1259  -11.0698  -19.2921 O   0  0  0  0  0  0  0  0  0  0  0  0
   19.2469  -10.6169  -17.2327 C   0  0  2  0  0  0  0  0  0  0  0  0
   18.7517  -11.8857  -16.7984 N   0  0  0  0  0  0  0  0  0  0  0  0
   19.4226   -9.6503  -16.1384 C   0  0  0  0  0  0  0  0  0  0  0  0
   18.4531   -9.0142  -15.6185 O   0  0  0  0  0  0  0  0  0  0  0  0
   22.2048   -8.8650  -13.7425 C   0  0  0  0  0  0  0  0  0  0  0  0
   20.9911   -8.4822  -14.5515 C   0  0  2  0  0  0  0  0  0  0  0  0
   20.7276   -9.4074  -15.6309 N   0  0  0  0  0  0  0  0  0  0  0  0
   21.0736   -7.0758  -15.0312 C   0  0  0  0  0  0  0  0  0  0  0  0
   21.6241   -6.7666  -16.1196 O   0  0  0  0  0  0  0  0  0  0  0  0
   19.4187   -2.5786  -14.0830 O   0  0  0  0  0  0  0  0  0  0  0  0
   19.4679   -3.9313  -13.7966 C   0  0  0  0  0  0  0  0  0  0  0  0
   20.5542   -4.6376  -14.6121 C   0  0  2  0  0  0  0  0  0  0  0  0
   20.5226   -6.0165  -14.2602 N   0  0  0  0  0  0  0  0  0  0  0  0
   21.8474   -4.0436  -14.2066 C   0  0  0  0  0  0  0  0  0  0  0  0
   22.3826   -3.0209  -14.9593 O   0  0  0  0  0  0  0  0  0  0  0  0
   22.4213   -4.4833  -13.1932 O   0  0  0  0  0  0  0  0  0  0  0  0
  2  3  1  0
  2  1  1  6
  4  2  1  0
  4  5  1  1
  6  4  1  0
  6 10  1  0
  7  6  2  0
  9  8  1  6
  9 10  1  0
  9 11  1  0
 11 12  2  0
 13 14  1  0
 15 14  1  1
 15 17  1  0
 16 11  1  0
 16 15  1  0
 17 18  1  0
 19 17  2  0
M  END
$$$$
