TAS.pdb
     RDKit          3D

 19 18  0  0  1  0  0  0  0  0999 V2000
   23.5730  -11.8849  -14.7154 C   0  0  0  0  0  0  0  0  0  0  0  0
   23.6781  -12.2629  -16.1704 C   0  0  1  0  0  0  0  0  0  0  0  0
   24.0243  -13.6022  -16.2680 O   0  0  0  0  0  0  0  0  0  0  0  0
   22.3281  -12.0203  -16.8366 C   0  0  2  0  0  0  0  0  0  0  0  0
   22.3476  -12.5678  -18.1571 N   0  0  0  0  0  0  0  0  0  0  0  0
   21.9255  -10.6065  -16.7939 C   0  0  0  0  0  0  0  0  0  0  0  0
   22.5486   -9.6934  -17.4205 O   0  0  0  0  0  0  0  0  0  0  0  0
   18.9380   -8.7738  -15.3307 C   0  0  0  0  0  0  0  0  0  0  0  0
   20.3139   -8.8695  -15.9403 C   0  0  2  0  0  0  0  0  0  0  0  0
   20.7926  -10.2314  -16.0223 N   0  0  0  0  0  0  0  0  0  0  0  0
   21.2838   -7.9793  -15.2463 C   0  0  0  0  0  0  0  0  0  0  0  0
   21.8243   -8.2934  -14.1542 O   0  0  0  0  0  0  0  0  0  0  0  0
   23.6217   -3.7001  -15.7858 O   0  0  0  0  0  0  0  0  0  0  0  0
   22.7324   -4.6529  -16.2503 C   0  0  0  0  0  0  0  0  0  0  0  0
   22.6111   -5.8280  -15.2764 C   0  0  2  0  0  0  0  0  0  0  0  0
   21.6374   -6.7214  -15.8056 N   0  0  0  0  0  0  0  0  0  0  0  0
   22.1370   -5.2704  -13.9904 C   0  0  0  0  0  0  0  0  0  0  0  0
   23.0519   -5.0069  -12.9942 O   0  0  0  0  0  0  0  0  0  0  0  0
   20.9207   -5.0524  -13.8396 O   0  0  0  0  0  0  0  0  0  0  0  0
  2  3  1  0
  2  1  1  1
  4  2  1  0
  4  5  1  6
  6  4  1  0
  6 10  1  0
  7  6  2  0
  9  8  1  1
  9 10  1  0
  9 11  1  0
 11 12  2  0
 13 14  1  0
 15 14  1  6
 15 17  1  0
 16 11  1  0
 16 15  1  0
 17 18  1  0
 19 17  2  0
M  END
$$$$
