TAS.pdb
     RDKit          3D

 19 18  0  0  1  0  0  0  0  0999 V2000
   16.9563   -8.9562  -16.9204 C   0  0  0  0  0  0  0  0  0  0  0  0
   17.0762  -10.2269  -16.1193 C   0  0  1  0  0  0  0  0  0  0  0  0
   16.0097  -11.0590  -16.4250 O   0  0  0  0  0  0  0  0  0  0  0  0
   18.3925  -10.9080  -16.4782 C   0  0  2  0  0  0  0  0  0  0  0  0
   18.3983  -12.2348  -15.9460 N   0  0  0  0  0  0  0  0  0  0  0  0
   19.5640  -10.1122  -16.0823 C   0  0  0  0  0  0  0  0  0  0  0  0
   19.8131   -9.8065  -14.8743 O   0  0  0  0  0  0  0  0  0  0  0  0
   22.5353   -8.6771  -17.9732 C   0  0  0  0  0  0  0  0  0  0  0  0
   21.6108   -8.8273  -16.7913 C   0  0  2  0  0  0  0  0  0  0  0  0
   20.4647   -9.6589  -17.0837 N   0  0  0  0  0  0  0  0  0  0  0  0
   21.2123   -7.5053  -16.2360 C   0  0  0  0  0  0  0  0  0  0  0  0
   20.2300   -6.8564  -16.6803 O   0  0  0  0  0  0  0  0  0  0  0  0
   22.2760   -4.3428  -12.6551 O   0  0  0  0  0  0  0  0  0  0  0  0
   22.5045   -5.5420  -13.3065 C   0  0  0  0  0  0  0  0  0  0  0  0
   21.7005   -5.6357  -14.6060 C   0  0  2  0  0  0  0  0  0  0  0  0
   21.9428   -6.9221  -15.1652 N   0  0  0  0  0  0  0  0  0  0  0  0
   22.2239   -4.5870  -15.5092 C   0  0  0  0  0  0  0  0  0  0  0  0
   21.5742   -3.3737  -15.5778 O   0  0  0  0  0  0  0  0  0  0  0  0
   23.2405   -4.8270  -16.1864 O   0  0  0  0  0  0  0  0  0  0  0  0
  2  3  1  0
  2  1  1  6
  4  2  1  0
  4  5  1  1
  6  4  1  0
  6 10  1  0
  7  6  2  0
  9  8  1  6
  9 10  1  0
  9 11  1  0
 11 12  2  0
 13 14  1  0
 15 14  1  1
 15 17  1  0
 16 11  1  0
 16 15  1  0
 17 18  1  0
 19 17  2  0
M  END
$$$$
