NMW.pdb
     RDKit          3D

 31 32  0  0  1  0  0  0  0  0999 V2000
   12.6455  -18.7759   16.8171 N   0  0  0  0  0  0  0  0  0  0  0  0
   11.6784  -17.7875   16.5234 C   0  0  0  0  0  0  0  0  0  0  0  0
   11.5423  -17.3490   15.3547 O   0  0  0  0  0  0  0  0  0  0  0  0
   10.8264  -17.2772   17.6220 C   0  0  0  0  0  0  0  0  0  0  0  0
   11.2991  -17.8780   18.9299 C   0  0  2  0  0  0  0  0  0  0  0  0
   10.5951  -19.1126   19.1357 N   0  0  0  0  0  0  0  0  0  0  0  0
   11.0009  -16.8769   19.9892 C   0  0  0  0  0  0  0  0  0  0  0  0
   11.5219  -15.7314   19.9484 O   0  0  0  0  0  0  0  0  0  0  0  0
    5.6205  -17.7821   24.5374 C   0  0  0  0  0  0  0  0  0  0  0  0
    6.0128  -16.2097   23.8128 S   0  0  0  0  0  0  0  0  0  0  0  0
    7.7419  -15.8795   23.5772 C   0  0  0  0  0  0  0  0  0  0  0  0
    8.3256  -16.5059   22.3667 C   0  0  0  0  0  0  0  0  0  0  0  0
    9.7950  -16.3321   22.1546 C   0  0  2  0  0  0  0  0  0  0  0  0
   10.1325  -17.2300   21.0303 N   0  0  0  0  0  0  0  0  0  0  0  0
   10.4688  -16.9195   23.3550 C   0  0  0  0  0  0  0  0  0  0  0  0
   10.6089  -18.1542   23.4242 O   0  0  0  0  0  0  0  0  0  0  0  0
   10.9577  -16.1655   24.4170 N   0  0  0  0  0  0  0  0  0  0  0  0
   10.7145  -16.4937   25.7959 C   0  0  1  0  0  0  0  0  0  0  0  0
    9.3631  -16.3242   26.2751 C   0  0  0  0  0  0  0  0  0  0  0  0
    9.1083  -15.0231   26.9129 C   0  0  0  0  0  0  0  0  0  0  0  0
    9.8028  -14.5242   28.0302 C   0  0  0  0  0  0  0  0  0  0  0  0
    9.3154  -13.3409   28.4023 N   0  0  0  0  0  0  0  0  0  0  0  0
    8.3282  -13.0484   27.5678 C   0  0  0  0  0  0  0  0  0  0  0  0
    7.5124  -11.9131   27.5165 C   0  0  0  0  0  0  0  0  0  0  0  0
    6.5496  -11.7904   26.5414 C   0  0  0  0  0  0  0  0  0  0  0  0
    6.4124  -12.8087   25.6241 C   0  0  0  0  0  0  0  0  0  0  0  0
    7.2121  -13.9291   25.6703 C   0  0  0  0  0  0  0  0  0  0  0  0
    8.1739  -14.0541   26.6443 C   0  0  0  0  0  0  0  0  0  0  0  0
   11.2685  -17.8106   26.0518 C   0  0  0  0  0  0  0  0  0  0  0  0
   12.3224  -17.9327   26.9437 O   0  0  0  0  0  0  0  0  0  0  0  0
   10.8803  -18.8821   25.5329 O   0  0  0  0  0  0  0  0  0  0  0  0
  2  1  1  0
  3  2  2  0
  4  2  1  0
  5  6  1  1
  5  4  1  0
  7  5  1  0
  8  7  2  0
 10  9  1  0
 11 10  1  0
 12 11  1  0
 13 12  1  1
 13 14  1  0
 14  7  1  0
 15 13  1  0
 15 16  2  0
 17 15  1  0
 18 17  1  0
 18 19  1  6
 20 19  1  0
 20 21  2  0
 22 21  1  0
 23 22  1  0
 24 23  2  0
 25 24  1  0
 26 25  2  0
 26 27  1  0
 27 28  2  0
 28 23  1  0
 28 20  1  0
 29 18  1  0
 30 29  1  0
 31 29  2  0
M  END
$$$$
