NMW.pdb
     RDKit          3D

 31 32  0  0  1  0  0  0  0  0999 V2000
   12.3397  -18.4026   14.7392 N   0  0  0  0  0  0  0  0  0  0  0  0
   11.2315  -18.8798   15.4760 C   0  0  0  0  0  0  0  0  0  0  0  0
   10.8275  -20.0604   15.3366 O   0  0  0  0  0  0  0  0  0  0  0  0
   10.5539  -17.9594   16.4178 C   0  0  0  0  0  0  0  0  0  0  0  0
   10.7325  -18.4811   17.8287 C   0  0  2  0  0  0  0  0  0  0  0  0
    9.7249  -19.4756   18.0692 N   0  0  0  0  0  0  0  0  0  0  0  0
   10.5945  -17.3094   18.7352 C   0  0  0  0  0  0  0  0  0  0  0  0
   11.3922  -16.3392   18.6485 O   0  0  0  0  0  0  0  0  0  0  0  0
    7.3512  -11.7126   21.2653 C   0  0  0  0  0  0  0  0  0  0  0  0
    7.9941  -13.2085   20.5581 S   0  0  0  0  0  0  0  0  0  0  0  0
    7.3360  -14.7192   21.2208 C   0  0  0  0  0  0  0  0  0  0  0  0
    7.8434  -15.9481   20.5644 C   0  0  0  0  0  0  0  0  0  0  0  0
    9.3179  -16.1868   20.6193 C   0  0  2  0  0  0  0  0  0  0  0  0
    9.5641  -17.3045   19.6842 N   0  0  0  0  0  0  0  0  0  0  0  0
    9.6086  -16.7314   21.9827 C   0  0  0  0  0  0  0  0  0  0  0  0
   10.3467  -17.7278   22.0895 O   0  0  0  0  0  0  0  0  0  0  0  0
    9.1008  -16.1895   23.1592 N   0  0  0  0  0  0  0  0  0  0  0  0
    9.8032  -16.2280   24.4135 C   0  0  1  0  0  0  0  0  0  0  0  0
    9.7338  -15.0415   25.2333 C   0  0  0  0  0  0  0  0  0  0  0  0
    8.3670  -14.6460   25.6070 C   0  0  0  0  0  0  0  0  0  0  0  0
    7.2499  -15.5014   25.5971 C   0  0  0  0  0  0  0  0  0  0  0  0
    6.1444  -14.8423   25.9429 N   0  0  0  0  0  0  0  0  0  0  0  0
    6.4991  -13.5874   26.1793 C   0  0  0  0  0  0  0  0  0  0  0  0
    5.7170  -12.5039   26.5931 C   0  0  0  0  0  0  0  0  0  0  0  0
    6.2914  -11.2728   26.8105 C   0  0  0  0  0  0  0  0  0  0  0  0
    7.6475  -11.1379   26.6111 C   0  0  0  0  0  0  0  0  0  0  0  0
    8.4224  -12.2009   26.2029 C   0  0  0  0  0  0  0  0  0  0  0  0
    7.8503  -13.4314   25.9841 C   0  0  0  0  0  0  0  0  0  0  0  0
    9.4237  -17.4453   25.1071 C   0  0  0  0  0  0  0  0  0  0  0  0
   10.1999  -17.8810   26.1696 O   0  0  0  0  0  0  0  0  0  0  0  0
    8.4360  -18.1655   24.8357 O   0  0  0  0  0  0  0  0  0  0  0  0
  2  1  1  0
  3  2  2  0
  4  2  1  0
  5  6  1  1
  5  4  1  0
  7  5  1  0
  8  7  2  0
 10  9  1  0
 11 10  1  0
 12 11  1  0
 13 12  1  1
 13 14  1  0
 14  7  1  0
 15 13  1  0
 15 16  2  0
 17 15  1  0
 18 17  1  0
 18 19  1  1
 20 19  1  0
 20 21  2  0
 22 21  1  0
 23 22  1  0
 24 23  2  0
 25 24  1  0
 26 25  2  0
 26 27  1  0
 27 28  2  0
 28 23  1  0
 28 20  1  0
 29 18  1  0
 30 29  1  0
 31 29  2  0
M  END
$$$$
