NMW.pdb
     RDKit          3D

 31 32  0  0  1  0  0  0  0  0999 V2000
   10.4744  -20.8087   18.0618 N   0  0  0  0  0  0  0  0  0  0  0  0
   11.3752  -20.7126   19.1472 C   0  0  0  0  0  0  0  0  0  0  0  0
   11.9769  -21.7283   19.5747 O   0  0  0  0  0  0  0  0  0  0  0  0
   11.5970  -19.3885   19.7724 C   0  0  0  0  0  0  0  0  0  0  0  0
   10.2678  -18.6710   19.8882 C   0  0  2  0  0  0  0  0  0  0  0  0
    9.9244  -18.1531   18.5937 N   0  0  0  0  0  0  0  0  0  0  0  0
   10.4544  -17.5916   20.8949 C   0  0  0  0  0  0  0  0  0  0  0  0
   11.1866  -16.6001   20.6379 O   0  0  0  0  0  0  0  0  0  0  0  0
    5.7869  -14.2885   26.2284 C   0  0  0  0  0  0  0  0  0  0  0  0
    6.2257  -15.4490   24.9587 S   0  0  0  0  0  0  0  0  0  0  0  0
    7.9659  -15.6494   24.6657 C   0  0  0  0  0  0  0  0  0  0  0  0
    8.2961  -16.4894   23.4895 C   0  0  0  0  0  0  0  0  0  0  0  0
    9.7399  -16.6003   23.1191 C   0  0  2  0  0  0  0  0  0  0  0  0
    9.8027  -17.6972   22.1305 N   0  0  0  0  0  0  0  0  0  0  0  0
   10.4508  -17.1114   24.3329 C   0  0  0  0  0  0  0  0  0  0  0  0
   10.4461  -18.3342   24.5645 O   0  0  0  0  0  0  0  0  0  0  0  0
   11.1283  -16.2978   25.2355 N   0  0  0  0  0  0  0  0  0  0  0  0
   11.8243  -16.8052   26.3871 C   0  0  1  0  0  0  0  0  0  0  0  0
   12.2411  -15.8363   27.3731 C   0  0  0  0  0  0  0  0  0  0  0  0
   11.1304  -15.1736   28.0742 C   0  0  0  0  0  0  0  0  0  0  0  0
   10.7552  -15.4247   29.4068 C   0  0  0  0  0  0  0  0  0  0  0  0
    9.6866  -14.7028   29.7430 N   0  0  0  0  0  0  0  0  0  0  0  0
    9.3507  -13.9885   28.6783 C   0  0  0  0  0  0  0  0  0  0  0  0
    8.3172  -13.0591   28.5194 C   0  0  0  0  0  0  0  0  0  0  0  0
    8.1530  -12.3973   27.3245 C   0  0  0  0  0  0  0  0  0  0  0  0
    9.0278  -12.6732   26.2969 C   0  0  0  0  0  0  0  0  0  0  0  0
   10.0465  -13.5878   26.4474 C   0  0  0  0  0  0  0  0  0  0  0  0
   10.2116  -14.2507   27.6401 C   0  0  0  0  0  0  0  0  0  0  0  0
   11.0518  -17.9058   26.9338 C   0  0  0  0  0  0  0  0  0  0  0  0
   11.7119  -18.9101   27.6243 O   0  0  0  0  0  0  0  0  0  0  0  0
    9.8108  -18.0460   26.8427 O   0  0  0  0  0  0  0  0  0  0  0  0
  2  1  1  0
  3  2  2  0
  4  2  1  0
  5  6  1  6
  5  4  1  0
  7  5  1  0
  8  7  2  0
 10  9  1  0
 11 10  1  0
 12 11  1  0
 13 12  1  1
 13 14  1  0
 14  7  1  0
 15 13  1  0
 15 16  2  0
 17 15  1  0
 18 17  1  0
 18 19  1  1
 20 19  1  0
 20 21  2  0
 22 21  1  0
 23 22  1  0
 24 23  2  0
 25 24  1  0
 26 25  2  0
 26 27  1  0
 27 28  2  0
 28 23  1  0
 28 20  1  0
 29 18  1  0
 30 29  1  0
 31 29  2  0
M  END
$$$$
