NMW.pdb
     RDKit          3D

 31 32  0  0  1  0  0  0  0  0999 V2000
    7.1625  -14.0385   15.9413 N   0  0  0  0  0  0  0  0  0  0  0  0
    7.9498  -13.7608   17.0823 C   0  0  0  0  0  0  0  0  0  0  0  0
    8.9048  -12.9478   17.0215 O   0  0  0  0  0  0  0  0  0  0  0  0
    7.6268  -14.4479   18.3538 C   0  0  0  0  0  0  0  0  0  0  0  0
    8.8973  -14.6048   19.1639 C   0  0  2  0  0  0  0  0  0  0  0  0
    9.8813  -15.2420   18.3345 N   0  0  0  0  0  0  0  0  0  0  0  0
    8.5443  -15.4280   20.3518 C   0  0  0  0  0  0  0  0  0  0  0  0
    7.4207  -15.2994   20.9053 O   0  0  0  0  0  0  0  0  0  0  0  0
   10.3781  -22.0021   19.6571 C   0  0  0  0  0  0  0  0  0  0  0  0
   10.8570  -20.7410   20.8110 S   0  0  0  0  0  0  0  0  0  0  0  0
    9.7640  -19.3458   20.9256 C   0  0  0  0  0  0  0  0  0  0  0  0
   10.1721  -18.3286   21.9241 C   0  0  0  0  0  0  0  0  0  0  0  0
    9.2856  -17.1349   22.0772 C   0  0  2  0  0  0  0  0  0  0  0  0
    9.4813  -16.3465   20.8425 N   0  0  0  0  0  0  0  0  0  0  0  0
    9.8729  -16.3095   23.1790 C   0  0  0  0  0  0  0  0  0  0  0  0
   10.0201  -15.0862   23.0035 O   0  0  0  0  0  0  0  0  0  0  0  0
   10.2722  -16.8263   24.4074 N   0  0  0  0  0  0  0  0  0  0  0  0
    9.5734  -16.5673   25.6373 C   0  0  1  0  0  0  0  0  0  0  0  0
    8.1346  -16.6825   25.6034 C   0  0  0  0  0  0  0  0  0  0  0  0
    7.4315  -15.4034   25.4191 C   0  0  0  0  0  0  0  0  0  0  0  0
    6.3883  -15.1828   24.5011 C   0  0  0  0  0  0  0  0  0  0  0  0
    5.9852  -13.9130   24.5371 N   0  0  0  0  0  0  0  0  0  0  0  0
    6.7268  -13.2963   25.4461 C   0  0  0  0  0  0  0  0  0  0  0  0
    6.6844  -11.9659   25.8764 C   0  0  0  0  0  0  0  0  0  0  0  0
    7.5351  -11.5257   26.8640 C   0  0  0  0  0  0  0  0  0  0  0  0
    8.4226  -12.4245   27.4131 C   0  0  0  0  0  0  0  0  0  0  0  0
    8.4694  -13.7353   26.9928 C   0  0  0  0  0  0  0  0  0  0  0  0
    7.6211  -14.1768   26.0055 C   0  0  0  0  0  0  0  0  0  0  0  0
   10.2014  -17.3484   26.6873 C   0  0  0  0  0  0  0  0  0  0  0  0
   10.1567  -16.8780   27.9904 O   0  0  0  0  0  0  0  0  0  0  0  0
   10.7987  -18.4379   26.5322 O   0  0  0  0  0  0  0  0  0  0  0  0
  2  1  1  0
  3  2  2  0
  4  2  1  0
  5  6  1  6
  5  4  1  0
  7  5  1  0
  8  7  2  0
 10  9  1  0
 11 10  1  0
 12 11  1  0
 13 12  1  6
 13 14  1  0
 14  7  1  0
 15 13  1  0
 15 16  2  0
 17 15  1  0
 18 17  1  0
 18 19  1  6
 20 19  1  0
 20 21  2  0
 22 21  1  0
 23 22  1  0
 24 23  2  0
 25 24  1  0
 26 25  2  0
 26 27  1  0
 27 28  2  0
 28 23  1  0
 28 20  1  0
 29 18  1  0
 30 29  1  0
 31 29  2  0
M  END
$$$$
