NMW.pdb
     RDKit          3D

 31 32  0  0  1  0  0  0  0  0999 V2000
   11.8118  -20.8030   18.5055 N   0  0  0  0  0  0  0  0  0  0  0  0
   11.8582  -19.5116   17.9321 C   0  0  0  0  0  0  0  0  0  0  0  0
   11.9463  -19.3636   16.6884 O   0  0  0  0  0  0  0  0  0  0  0  0
   11.8010  -18.3333   18.8275 C   0  0  0  0  0  0  0  0  0  0  0  0
   10.3501  -17.9913   19.0973 C   0  0  2  0  0  0  0  0  0  0  0  0
    9.7376  -17.6237   17.8516 N   0  0  0  0  0  0  0  0  0  0  0  0
   10.3530  -16.8703   20.0754 C   0  0  0  0  0  0  0  0  0  0  0  0
   11.3667  -16.1335   20.1973 O   0  0  0  0  0  0  0  0  0  0  0  0
    7.4861  -11.7227   19.1692 C   0  0  0  0  0  0  0  0  0  0  0  0
    8.1188  -12.8275   20.4064 S   0  0  0  0  0  0  0  0  0  0  0  0
    7.2053  -14.3334   20.6346 C   0  0  0  0  0  0  0  0  0  0  0  0
    7.6471  -15.1481   21.7919 C   0  0  0  0  0  0  0  0  0  0  0  0
    9.0875  -15.5454   21.8313 C   0  0  2  0  0  0  0  0  0  0  0  0
    9.2112  -16.6493   20.8565 N   0  0  0  0  0  0  0  0  0  0  0  0
    9.3195  -16.1657   23.1734 C   0  0  0  0  0  0  0  0  0  0  0  0
    8.8421  -17.2908   23.4085 O   0  0  0  0  0  0  0  0  0  0  0  0
   10.0455  -15.5592   24.1936 N   0  0  0  0  0  0  0  0  0  0  0  0
   10.0725  -16.0526   25.5440 C   0  0  1  0  0  0  0  0  0  0  0  0
    8.8170  -16.5048   26.0954 C   0  0  0  0  0  0  0  0  0  0  0  0
    7.7490  -15.4933   26.0722 C   0  0  0  0  0  0  0  0  0  0  0  0
    6.4304  -15.7242   25.6390 C   0  0  0  0  0  0  0  0  0  0  0  0
    5.7097  -14.6045   25.6947 N   0  0  0  0  0  0  0  0  0  0  0  0
    6.5097  -13.6507   26.1495 C   0  0  0  0  0  0  0  0  0  0  0  0
    6.2321  -12.3045   26.4095 C   0  0  0  0  0  0  0  0  0  0  0  0
    7.2092  -11.4758   26.9109 C   0  0  0  0  0  0  0  0  0  0  0  0
    8.4587  -12.0045   27.1479 C   0  0  0  0  0  0  0  0  0  0  0  0
    8.7381  -13.3289   26.8929 C   0  0  0  0  0  0  0  0  0  0  0  0
    7.7636  -14.1582   26.3911 C   0  0  0  0  0  0  0  0  0  0  0  0
   11.1452  -17.0248   25.6490 C   0  0  0  0  0  0  0  0  0  0  0  0
   11.4249  -17.5832   26.8864 O   0  0  0  0  0  0  0  0  0  0  0  0
   11.8673  -17.4233   24.7068 O   0  0  0  0  0  0  0  0  0  0  0  0
  2  1  1  0
  3  2  2  0
  4  2  1  0
  5  6  1  6
  5  4  1  0
  7  5  1  0
  8  7  2  0
 10  9  1  0
 11 10  1  0
 12 11  1  0
 13 12  1  1
 13 14  1  0
 14  7  1  0
 15 13  1  0
 15 16  2  0
 17 15  1  0
 18 17  1  0
 18 19  1  6
 20 19  1  0
 20 21  2  0
 22 21  1  0
 23 22  1  0
 24 23  2  0
 25 24  1  0
 26 25  2  0
 26 27  1  0
 27 28  2  0
 28 23  1  0
 28 20  1  0
 29 18  1  0
 30 29  1  0
 31 29  2  0
M  END
$$$$
