NMW.pdb
     RDKit          3D

 31 32  0  0  1  0  0  0  0  0999 V2000
    8.7425  -17.5884   17.0290 N   0  0  0  0  0  0  0  0  0  0  0  0
    8.8258  -16.1871   17.1969 C   0  0  0  0  0  0  0  0  0  0  0  0
    8.8453  -15.4209   16.2023 O   0  0  0  0  0  0  0  0  0  0  0  0
    8.8898  -15.6378   18.5707 C   0  0  0  0  0  0  0  0  0  0  0  0
    9.0321  -16.7834   19.5517 C   0  0  2  0  0  0  0  0  0  0  0  0
    7.7592  -17.4389   19.6621 N   0  0  0  0  0  0  0  0  0  0  0  0
    9.4711  -16.1857   20.8415 C   0  0  0  0  0  0  0  0  0  0  0  0
   10.5195  -15.4909   20.8978 O   0  0  0  0  0  0  0  0  0  0  0  0
    6.8287  -12.6715   26.1034 C   0  0  0  0  0  0  0  0  0  0  0  0
    6.1518  -14.1831   25.4644 S   0  0  0  0  0  0  0  0  0  0  0  0
    6.8693  -14.7689   23.9490 C   0  0  0  0  0  0  0  0  0  0  0  0
    7.7843  -15.9243   24.1113 C   0  0  0  0  0  0  0  0  0  0  0  0
    9.0573  -15.8964   23.3285 C   0  0  2  0  0  0  0  0  0  0  0  0
    8.6994  -16.4088   21.9892 N   0  0  0  0  0  0  0  0  0  0  0  0
    9.9489  -16.9360   23.9321 C   0  0  0  0  0  0  0  0  0  0  0  0
    9.8573  -18.1125   23.5366 O   0  0  0  0  0  0  0  0  0  0  0  0
   10.8894  -16.6714   24.9225 N   0  0  0  0  0  0  0  0  0  0  0  0
   11.6962  -17.6908   25.5372 C   0  0  1  0  0  0  0  0  0  0  0  0
   12.6831  -17.2488   26.4941 C   0  0  0  0  0  0  0  0  0  0  0  0
   12.1208  -16.5567   27.6642 C   0  0  0  0  0  0  0  0  0  0  0  0
   12.0272  -17.1055   28.9563 C   0  0  0  0  0  0  0  0  0  0  0  0
   11.4327  -16.2540   29.7916 N   0  0  0  0  0  0  0  0  0  0  0  0
   11.1354  -15.1684   29.0920 C   0  0  0  0  0  0  0  0  0  0  0  0
   10.5261  -13.9800   29.5082 C   0  0  0  0  0  0  0  0  0  0  0  0
   10.3290  -12.9493   28.6185 C   0  0  0  0  0  0  0  0  0  0  0  0
   10.7452  -13.1188   27.3165 C   0  0  0  0  0  0  0  0  0  0  0  0
   11.3449  -14.2870   26.9009 C   0  0  0  0  0  0  0  0  0  0  0  0
   11.5418  -15.3182   27.7879 C   0  0  0  0  0  0  0  0  0  0  0  0
   10.8115  -18.7257   26.0403 C   0  0  0  0  0  0  0  0  0  0  0  0
   11.3340  -19.9806   26.3113 O   0  0  0  0  0  0  0  0  0  0  0  0
    9.5856  -18.5976   26.2612 O   0  0  0  0  0  0  0  0  0  0  0  0
  2  1  1  0
  3  2  2  0
  4  2  1  0
  5  6  1  1
  5  4  1  0
  7  5  1  0
  8  7  2  0
 10  9  1  0
 11 10  1  0
 12 11  1  0
 13 12  1  1
 13 14  1  0
 14  7  1  0
 15 13  1  0
 15 16  2  0
 17 15  1  0
 18 17  1  0
 18 19  1  1
 20 19  1  0
 20 21  2  0
 22 21  1  0
 23 22  1  0
 24 23  2  0
 25 24  1  0
 26 25  2  0
 26 27  1  0
 27 28  2  0
 28 23  1  0
 28 20  1  0
 29 18  1  0
 30 29  1  0
 31 29  2  0
M  END
$$$$
