NMW.pdb
     RDKit          3D

 31 32  0  0  1  0  0  0  0  0999 V2000
   11.0137  -15.5728   17.4404 N   0  0  0  0  0  0  0  0  0  0  0  0
    9.9674  -16.1211   18.2173 C   0  0  0  0  0  0  0  0  0  0  0  0
    9.2457  -17.0431   17.7640 O   0  0  0  0  0  0  0  0  0  0  0  0
    9.7376  -15.5867   19.5793 C   0  0  0  0  0  0  0  0  0  0  0  0
    9.8751  -16.7159   20.5798 C   0  0  2  0  0  0  0  0  0  0  0  0
    8.7617  -17.6060   20.4060 N   0  0  0  0  0  0  0  0  0  0  0  0
    9.8889  -16.0885   21.9287 C   0  0  0  0  0  0  0  0  0  0  0  0
   10.7270  -15.1907   22.2055 O   0  0  0  0  0  0  0  0  0  0  0  0
    7.3283  -11.8526   25.5905 C   0  0  0  0  0  0  0  0  0  0  0  0
    6.7430  -13.5152   25.8016 S   0  0  0  0  0  0  0  0  0  0  0  0
    6.8098  -14.5452   24.3564 C   0  0  0  0  0  0  0  0  0  0  0  0
    7.4409  -15.8687   24.5763 C   0  0  0  0  0  0  0  0  0  0  0  0
    8.8977  -15.9858   24.2626 C   0  0  2  0  0  0  0  0  0  0  0  0
    8.9553  -16.5130   22.8831 N   0  0  0  0  0  0  0  0  0  0  0  0
    9.4322  -17.0791   25.1338 C   0  0  0  0  0  0  0  0  0  0  0  0
    8.9962  -17.1936   26.2939 O   0  0  0  0  0  0  0  0  0  0  0  0
   10.4004  -17.9919   24.7274 N   0  0  0  0  0  0  0  0  0  0  0  0
   11.5017  -18.3969   25.5587 C   0  0  1  0  0  0  0  0  0  0  0  0
   12.2958  -17.3424   26.1437 C   0  0  0  0  0  0  0  0  0  0  0  0
   11.7698  -16.8274   27.4175 C   0  0  0  0  0  0  0  0  0  0  0  0
   11.7451  -17.5450   28.6276 C   0  0  0  0  0  0  0  0  0  0  0  0
   11.1689  -16.8286   29.5923 N   0  0  0  0  0  0  0  0  0  0  0  0
   10.8171  -15.6685   29.0565 C   0  0  0  0  0  0  0  0  0  0  0  0
   10.2002  -14.5632   29.6520 C   0  0  0  0  0  0  0  0  0  0  0  0
    9.9414  -13.4296   28.9165 C   0  0  0  0  0  0  0  0  0  0  0  0
   10.3040  -13.4135   27.5878 C   0  0  0  0  0  0  0  0  0  0  0  0
   10.9109  -14.4991   26.9961 C   0  0  0  0  0  0  0  0  0  0  0  0
   11.1693  -15.6329   27.7288 C   0  0  0  0  0  0  0  0  0  0  0  0
   11.0095  -19.3655   26.5212 C   0  0  0  0  0  0  0  0  0  0  0  0
   11.9235  -20.1086   27.2516 O   0  0  0  0  0  0  0  0  0  0  0  0
    9.8056  -19.6070   26.7671 O   0  0  0  0  0  0  0  0  0  0  0  0
  2  1  1  0
  3  2  2  0
  4  2  1  0
  5  6  1  1
  5  4  1  0
  7  5  1  0
  8  7  2  0
 10  9  1  0
 11 10  1  0
 12 11  1  0
 13 12  1  1
 13 14  1  0
 14  7  1  0
 15 13  1  0
 15 16  2  0
 17 15  1  0
 18 17  1  0
 18 19  1  1
 20 19  1  0
 20 21  2  0
 22 21  1  0
 23 22  1  0
 24 23  2  0
 25 24  1  0
 26 25  2  0
 26 27  1  0
 27 28  2  0
 28 23  1  0
 28 20  1  0
 29 18  1  0
 30 29  1  0
 31 29  2  0
M  END
$$$$
