NMW.pdb
     RDKit          3D

 31 32  0  0  1  0  0  0  0  0999 V2000
    8.7632  -21.7034   18.0621 N   0  0  0  0  0  0  0  0  0  0  0  0
    9.9381  -21.1379   18.6085 C   0  0  0  0  0  0  0  0  0  0  0  0
   10.8664  -21.8695   19.0322 O   0  0  0  0  0  0  0  0  0  0  0  0
   10.0545  -19.6628   18.6721 C   0  0  0  0  0  0  0  0  0  0  0  0
   10.4642  -19.2624   20.0745 C   0  0  2  0  0  0  0  0  0  0  0  0
    9.4610  -19.7358   20.9864 N   0  0  0  0  0  0  0  0  0  0  0  0
   10.5725  -17.7786   20.0777 C   0  0  0  0  0  0  0  0  0  0  0  0
   11.4057  -17.1987   19.3329 O   0  0  0  0  0  0  0  0  0  0  0  0
    7.3072  -11.2052   19.6737 C   0  0  0  0  0  0  0  0  0  0  0  0
    7.7620  -12.9187   19.5829 S   0  0  0  0  0  0  0  0  0  0  0  0
    7.9393  -13.7526   21.1410 C   0  0  0  0  0  0  0  0  0  0  0  0
    8.2629  -15.1953   21.0301 C   0  0  0  0  0  0  0  0  0  0  0  0
    9.7103  -15.5626   20.9642 C   0  0  2  0  0  0  0  0  0  0  0  0
    9.7332  -17.0397   20.9216 N   0  0  0  0  0  0  0  0  0  0  0  0
   10.3030  -15.1889   22.2868 C   0  0  0  0  0  0  0  0  0  0  0  0
   10.5555  -13.9924   22.5182 O   0  0  0  0  0  0  0  0  0  0  0  0
   10.5957  -16.1047   23.2924 N   0  0  0  0  0  0  0  0  0  0  0  0
    9.7788  -16.2793   24.4630 C   0  0  1  0  0  0  0  0  0  0  0  0
    8.3566  -16.4069   24.2492 C   0  0  0  0  0  0  0  0  0  0  0  0
    7.5353  -15.5828   25.1497 C   0  0  0  0  0  0  0  0  0  0  0  0
    6.4108  -16.0419   25.8599 C   0  0  0  0  0  0  0  0  0  0  0  0
    5.8522  -15.0518   26.5554 N   0  0  0  0  0  0  0  0  0  0  0  0
    6.5717  -13.9626   26.3260 C   0  0  0  0  0  0  0  0  0  0  0  0
    6.4159  -12.6689   26.8348 C   0  0  0  0  0  0  0  0  0  0  0  0
    7.2988  -11.6726   26.4873 C   0  0  0  0  0  0  0  0  0  0  0  0
    8.3323  -11.9821   25.6311 C   0  0  0  0  0  0  0  0  0  0  0  0
    8.4901  -13.2538   25.1263 C   0  0  0  0  0  0  0  0  0  0  0  0
    7.6086  -14.2503   25.4715 C   0  0  0  0  0  0  0  0  0  0  0  0
   10.3522  -17.3490   25.2591 C   0  0  0  0  0  0  0  0  0  0  0  0
   11.0221  -18.3780   24.6161 O   0  0  0  0  0  0  0  0  0  0  0  0
   10.3020  -17.4411   26.5069 O   0  0  0  0  0  0  0  0  0  0  0  0
  2  1  1  0
  3  2  2  0
  4  2  1  0
  5  6  1  1
  5  4  1  0
  7  5  1  0
  8  7  2  0
 10  9  1  0
 11 10  1  0
 12 11  1  0
 13 12  1  1
 13 14  1  0
 14  7  1  0
 15 13  1  0
 15 16  2  0
 17 15  1  0
 18 17  1  0
 18 19  1  6
 20 19  1  0
 20 21  2  0
 22 21  1  0
 23 22  1  0
 24 23  2  0
 25 24  1  0
 26 25  2  0
 26 27  1  0
 27 28  2  0
 28 23  1  0
 28 20  1  0
 29 18  1  0
 30 29  1  0
 31 29  2  0
M  END
$$$$
