NMW.pdb
     RDKit          3D

 31 32  0  0  1  0  0  0  0  0999 V2000
    9.8327  -20.0629   16.4287 N   0  0  0  0  0  0  0  0  0  0  0  0
   10.2033  -19.8825   17.7810 C   0  0  0  0  0  0  0  0  0  0  0  0
   10.8679  -20.7584   18.3874 O   0  0  0  0  0  0  0  0  0  0  0  0
    9.7924  -18.6383   18.4713 C   0  0  0  0  0  0  0  0  0  0  0  0
   10.2241  -18.7156   19.9214 C   0  0  2  0  0  0  0  0  0  0  0  0
    9.2032  -19.4085   20.6561 N   0  0  0  0  0  0  0  0  0  0  0  0
   10.3994  -17.3135   20.3873 C   0  0  0  0  0  0  0  0  0  0  0  0
   11.3385  -16.6054   19.9381 O   0  0  0  0  0  0  0  0  0  0  0  0
    7.4102  -12.0069   20.7594 C   0  0  0  0  0  0  0  0  0  0  0  0
    6.8114  -13.4586   19.9315 S   0  0  0  0  0  0  0  0  0  0  0  0
    7.4506  -15.0047   20.5277 C   0  0  0  0  0  0  0  0  0  0  0  0
    8.1669  -14.9127   21.8226 C   0  0  0  0  0  0  0  0  0  0  0  0
    9.5737  -15.4165   21.8568 C   0  0  2  0  0  0  0  0  0  0  0  0
    9.5035  -16.7963   21.3319 N   0  0  0  0  0  0  0  0  0  0  0  0
    9.9398  -15.5536   23.3015 C   0  0  0  0  0  0  0  0  0  0  0  0
   10.8306  -14.8216   23.7701 O   0  0  0  0  0  0  0  0  0  0  0  0
    9.3411  -16.4597   24.1711 N   0  0  0  0  0  0  0  0  0  0  0  0
    9.7819  -16.6638   25.5246 C   0  0  1  0  0  0  0  0  0  0  0  0
    8.7609  -16.6749   26.5454 C   0  0  0  0  0  0  0  0  0  0  0  0
    7.6742  -15.7087   26.3218 C   0  0  0  0  0  0  0  0  0  0  0  0
    6.3954  -16.0337   25.8333 C   0  0  0  0  0  0  0  0  0  0  0  0
    5.6470  -14.9394   25.6975 N   0  0  0  0  0  0  0  0  0  0  0  0
    6.3904  -13.9112   26.0807 C   0  0  0  0  0  0  0  0  0  0  0  0
    6.0641  -12.5526   26.1484 C   0  0  0  0  0  0  0  0  0  0  0  0
    6.9838  -11.6371   26.6055 C   0  0  0  0  0  0  0  0  0  0  0  0
    8.2251  -12.0920   26.9916 C   0  0  0  0  0  0  0  0  0  0  0  0
    8.5523  -13.4284   26.9262 C   0  0  0  0  0  0  0  0  0  0  0  0
    7.6353  -14.3444   26.4690 C   0  0  0  0  0  0  0  0  0  0  0  0
   10.6489  -17.8277   25.5472 C   0  0  0  0  0  0  0  0  0  0  0  0
   11.3060  -18.1512   26.7240 O   0  0  0  0  0  0  0  0  0  0  0  0
   10.8719  -18.5938   24.5821 O   0  0  0  0  0  0  0  0  0  0  0  0
  2  1  1  0
  3  2  2  0
  4  2  1  0
  5  6  1  1
  5  4  1  0
  7  5  1  0
  8  7  2  0
 10  9  1  0
 11 10  1  0
 12 11  1  0
 13 12  1  1
 13 14  1  0
 14  7  1  0
 15 13  1  0
 15 16  2  0
 17 15  1  0
 18 17  1  0
 18 19  1  1
 20 19  1  0
 20 21  2  0
 22 21  1  0
 23 22  1  0
 24 23  2  0
 25 24  1  0
 26 25  2  0
 26 27  1  0
 27 28  2  0
 28 23  1  0
 28 20  1  0
 29 18  1  0
 30 29  1  0
 31 29  2  0
M  END
$$$$
