NMW.pdb
     RDKit          3D

 31 32  0  0  1  0  0  0  0  0999 V2000
    8.4738  -12.5674   16.0604 N   0  0  0  0  0  0  0  0  0  0  0  0
    7.8784  -13.8144   16.3589 C   0  0  0  0  0  0  0  0  0  0  0  0
    7.7372  -14.6886   15.4687 O   0  0  0  0  0  0  0  0  0  0  0  0
    7.4231  -14.0717   17.7445 C   0  0  0  0  0  0  0  0  0  0  0  0
    8.5863  -14.6104   18.5518 C   0  0  2  0  0  0  0  0  0  0  0  0
    9.1035  -15.7666   17.8751 N   0  0  0  0  0  0  0  0  0  0  0  0
    8.0507  -14.9401   19.9001 C   0  0  0  0  0  0  0  0  0  0  0  0
    7.6467  -14.0264   20.6663 O   0  0  0  0  0  0  0  0  0  0  0  0
    5.8338  -18.7226   25.5425 C   0  0  0  0  0  0  0  0  0  0  0  0
    6.0083  -17.9583   23.9497 S   0  0  0  0  0  0  0  0  0  0  0  0
    6.8858  -18.9072   22.7316 C   0  0  0  0  0  0  0  0  0  0  0  0
    7.2140  -18.1605   21.4934 C   0  0  0  0  0  0  0  0  0  0  0  0
    7.5780  -16.7190   21.6472 C   0  0  2  0  0  0  0  0  0  0  0  0
    8.0037  -16.2816   20.3011 N   0  0  0  0  0  0  0  0  0  0  0  0
    8.8131  -16.6815   22.4917 C   0  0  0  0  0  0  0  0  0  0  0  0
    9.8273  -17.2900   22.1045 O   0  0  0  0  0  0  0  0  0  0  0  0
    8.9055  -16.0005   23.7014 N   0  0  0  0  0  0  0  0  0  0  0  0
   10.1334  -15.8612   24.4369 C   0  0  1  0  0  0  0  0  0  0  0  0
   10.2803  -14.6671   25.2353 C   0  0  0  0  0  0  0  0  0  0  0  0
    9.0984  -14.3345   26.0456 C   0  0  0  0  0  0  0  0  0  0  0  0
    8.6975  -15.0228   27.2055 C   0  0  0  0  0  0  0  0  0  0  0  0
    7.5656  -14.5144   27.6916 N   0  0  0  0  0  0  0  0  0  0  0  0
    7.2129  -13.5182   26.8918 C   0  0  0  0  0  0  0  0  0  0  0  0
    6.1173  -12.6527   26.9773 C   0  0  0  0  0  0  0  0  0  0  0  0
    5.9443  -11.6537   26.0473 C   0  0  0  0  0  0  0  0  0  0  0  0
    6.8727  -11.5305   25.0374 C   0  0  0  0  0  0  0  0  0  0  0  0
    7.9529  -12.3804   24.9476 C   0  0  0  0  0  0  0  0  0  0  0  0
    8.1270  -13.3796   25.8752 C   0  0  0  0  0  0  0  0  0  0  0  0
   10.3626  -17.0919   25.1716 C   0  0  0  0  0  0  0  0  0  0  0  0
   11.6380  -17.3648   25.6407 O   0  0  0  0  0  0  0  0  0  0  0  0
    9.4993  -17.9603   25.4333 O   0  0  0  0  0  0  0  0  0  0  0  0
  2  1  1  0
  3  2  2  0
  4  2  1  0
  5  6  1  6
  5  4  1  0
  7  5  1  0
  8  7  2  0
 10  9  1  0
 11 10  1  0
 12 11  1  0
 13 12  1  6
 13 14  1  0
 14  7  1  0
 15 13  1  0
 15 16  2  0
 17 15  1  0
 18 17  1  0
 18 19  1  1
 20 19  1  0
 20 21  2  0
 22 21  1  0
 23 22  1  0
 24 23  2  0
 25 24  1  0
 26 25  2  0
 26 27  1  0
 27 28  2  0
 28 23  1  0
 28 20  1  0
 29 18  1  0
 30 29  1  0
 31 29  2  0
M  END
$$$$
