NMW.pdb
     RDKit          3D

 31 32  0  0  1  0  0  0  0  0999 V2000
    6.7691  -18.1685   17.0451 N   0  0  0  0  0  0  0  0  0  0  0  0
    7.1769  -18.4039   18.3781 C   0  0  0  0  0  0  0  0  0  0  0  0
    6.3539  -18.3334   19.3237 O   0  0  0  0  0  0  0  0  0  0  0  0
    8.5963  -18.7360   18.6396 C   0  0  0  0  0  0  0  0  0  0  0  0
    8.8209  -18.7875   20.1369 C   0  0  2  0  0  0  0  0  0  0  0  0
    7.6038  -19.2304   20.7572 N   0  0  0  0  0  0  0  0  0  0  0  0
    9.1981  -17.4111   20.5571 C   0  0  0  0  0  0  0  0  0  0  0  0
   10.0986  -16.7814   19.9424 O   0  0  0  0  0  0  0  0  0  0  0  0
    5.6753  -13.3103   25.7656 C   0  0  0  0  0  0  0  0  0  0  0  0
    7.3447  -13.6278   25.2520 S   0  0  0  0  0  0  0  0  0  0  0  0
    7.6104  -13.7021   23.4975 C   0  0  0  0  0  0  0  0  0  0  0  0
    7.6257  -15.0751   22.9381 C   0  0  0  0  0  0  0  0  0  0  0  0
    8.8367  -15.4766   22.1593 C   0  0  2  0  0  0  0  0  0  0  0  0
    8.5357  -16.8293   21.6458 N   0  0  0  0  0  0  0  0  0  0  0  0
    9.9392  -15.6601   23.1547 C   0  0  0  0  0  0  0  0  0  0  0  0
   10.4037  -14.6600   23.7316 O   0  0  0  0  0  0  0  0  0  0  0  0
   10.4892  -16.8948   23.4846 N   0  0  0  0  0  0  0  0  0  0  0  0
   11.6288  -17.0456   24.3486 C   0  0  1  0  0  0  0  0  0  0  0  0
   11.9187  -15.9465   25.2389 C   0  0  0  0  0  0  0  0  0  0  0  0
   11.3542  -16.0990   26.5888 C   0  0  0  0  0  0  0  0  0  0  0  0
   11.2138  -17.3224   27.2695 C   0  0  0  0  0  0  0  0  0  0  0  0
   10.6299  -17.1421   28.4539 N   0  0  0  0  0  0  0  0  0  0  0  0
   10.3846  -15.8450   28.5719 C   0  0  0  0  0  0  0  0  0  0  0  0
    9.8064  -15.1410   29.6335 C   0  0  0  0  0  0  0  0  0  0  0  0
    9.6637  -13.7743   29.5675 C   0  0  0  0  0  0  0  0  0  0  0  0
   10.1026  -13.1233   28.4359 C   0  0  0  0  0  0  0  0  0  0  0  0
   10.6718  -13.8113   27.3872 C   0  0  0  0  0  0  0  0  0  0  0  0
   10.8144  -15.1769   27.4507 C   0  0  0  0  0  0  0  0  0  0  0  0
   11.5239  -18.3306   25.0153 C   0  0  0  0  0  0  0  0  0  0  0  0
   12.6576  -18.8807   25.5926 O   0  0  0  0  0  0  0  0  0  0  0  0
   10.4814  -19.0155   25.1259 O   0  0  0  0  0  0  0  0  0  0  0  0
  2  1  1  0
  3  2  2  0
  4  2  1  0
  5  6  1  1
  5  4  1  0
  7  5  1  0
  8  7  2  0
 10  9  1  0
 11 10  1  0
 12 11  1  0
 13 12  1  1
 13 14  1  0
 14  7  1  0
 15 13  1  0
 15 16  2  0
 17 15  1  0
 18 17  1  0
 18 19  1  1
 20 19  1  0
 20 21  2  0
 22 21  1  0
 23 22  1  0
 24 23  2  0
 25 24  1  0
 26 25  2  0
 26 27  1  0
 27 28  2  0
 28 23  1  0
 28 20  1  0
 29 18  1  0
 30 29  1  0
 31 29  2  0
M  END
$$$$
