NMW.pdb
     RDKit          3D

 31 32  0  0  1  0  0  0  0  0999 V2000
   10.1362  -18.5991   16.7682 N   0  0  0  0  0  0  0  0  0  0  0  0
   11.2601  -18.5635   17.6251 C   0  0  0  0  0  0  0  0  0  0  0  0
   12.1113  -19.4863   17.6071 O   0  0  0  0  0  0  0  0  0  0  0  0
   11.4156  -17.4148   18.5469 C   0  0  0  0  0  0  0  0  0  0  0  0
   11.3546  -17.9187   19.9743 C   0  0  2  0  0  0  0  0  0  0  0  0
   10.1750  -18.7255   20.1142 N   0  0  0  0  0  0  0  0  0  0  0  0
   11.3200  -16.7150   20.8481 C   0  0  0  0  0  0  0  0  0  0  0  0
   12.3210  -15.9552   20.9263 O   0  0  0  0  0  0  0  0  0  0  0  0
    6.9967  -12.6118   20.2026 C   0  0  0  0  0  0  0  0  0  0  0  0
    6.4941  -14.1512   20.9301 S   0  0  0  0  0  0  0  0  0  0  0  0
    7.8105  -15.2243   21.4496 C   0  0  0  0  0  0  0  0  0  0  0  0
    8.8950  -14.5449   22.1982 C   0  0  0  0  0  0  0  0  0  0  0  0
   10.0652  -15.3812   22.6050 C   0  0  2  0  0  0  0  0  0  0  0  0
   10.1573  -16.4424   21.5804 N   0  0  0  0  0  0  0  0  0  0  0  0
    9.6700  -16.0764   23.8700 C   0  0  0  0  0  0  0  0  0  0  0  0
    8.9767  -17.1076   23.8004 O   0  0  0  0  0  0  0  0  0  0  0  0
   10.0317  -15.6403   25.1407 N   0  0  0  0  0  0  0  0  0  0  0  0
    9.8562  -16.4338   26.3271 C   0  0  1  0  0  0  0  0  0  0  0  0
    8.4993  -16.6414   26.7747 C   0  0  0  0  0  0  0  0  0  0  0  0
    7.5637  -15.5782   26.3763 C   0  0  0  0  0  0  0  0  0  0  0  0
    6.4181  -15.7694   25.5821 C   0  0  0  0  0  0  0  0  0  0  0  0
    5.7982  -14.6114   25.3568 N   0  0  0  0  0  0  0  0  0  0  0  0
    6.4968  -13.6707   25.9760 C   0  0  0  0  0  0  0  0  0  0  0  0
    6.2555  -12.2956   26.0652 C   0  0  0  0  0  0  0  0  0  0  0  0
    7.0999  -11.4855   26.7887 C   0  0  0  0  0  0  0  0  0  0  0  0
    8.1813  -12.0617   27.4180 C   0  0  0  0  0  0  0  0  0  0  0  0
    8.4243  -13.4147   27.3328 C   0  0  0  0  0  0  0  0  0  0  0  0
    7.5825  -14.2256   26.6097 C   0  0  0  0  0  0  0  0  0  0  0  0
   10.6172  -17.6595   26.1681 C   0  0  0  0  0  0  0  0  0  0  0  0
   10.6790  -18.5522   27.2267 O   0  0  0  0  0  0  0  0  0  0  0  0
   11.2439  -18.0045   25.1404 O   0  0  0  0  0  0  0  0  0  0  0  0
  2  1  1  0
  3  2  2  0
  4  2  1  0
  5  6  1  6
  5  4  1  0
  7  5  1  0
  8  7  2  0
 10  9  1  0
 11 10  1  0
 12 11  1  0
 13 12  1  6
 13 14  1  0
 14  7  1  0
 15 13  1  0
 15 16  2  0
 17 15  1  0
 18 17  1  0
 18 19  1  6
 20 19  1  0
 20 21  2  0
 22 21  1  0
 23 22  1  0
 24 23  2  0
 25 24  1  0
 26 25  2  0
 26 27  1  0
 27 28  2  0
 28 23  1  0
 28 20  1  0
 29 18  1  0
 30 29  1  0
 31 29  2  0
M  END
$$$$
