NMW.pdb
     RDKit          3D

 31 32  0  0  1  0  0  0  0  0999 V2000
   13.2392  -18.3734   17.2118 N   0  0  0  0  0  0  0  0  0  0  0  0
   11.9375  -17.8356   17.3342 C   0  0  0  0  0  0  0  0  0  0  0  0
   11.0159  -18.2022   16.5642 O   0  0  0  0  0  0  0  0  0  0  0  0
   11.6798  -16.8294   18.3899 C   0  0  0  0  0  0  0  0  0  0  0  0
   11.2154  -17.5411   19.6440 C   0  0  2  0  0  0  0  0  0  0  0  0
   10.0590  -18.3249   19.3117 N   0  0  0  0  0  0  0  0  0  0  0  0
   10.9096  -16.4828   20.6439 C   0  0  0  0  0  0  0  0  0  0  0  0
   11.7937  -15.6538   20.9853 O   0  0  0  0  0  0  0  0  0  0  0  0
    7.5788  -12.1606   20.5503 C   0  0  0  0  0  0  0  0  0  0  0  0
    7.6305  -13.6486   19.5835 S   0  0  0  0  0  0  0  0  0  0  0  0
    7.4125  -15.1623   20.4864 C   0  0  0  0  0  0  0  0  0  0  0  0
    7.8133  -15.0882   21.9120 C   0  0  0  0  0  0  0  0  0  0  0  0
    9.2247  -15.4556   22.2396 C   0  0  2  0  0  0  0  0  0  0  0  0
    9.6241  -16.4247   21.1976 N   0  0  0  0  0  0  0  0  0  0  0  0
    9.1742  -16.2353   23.5161 C   0  0  0  0  0  0  0  0  0  0  0  0
    8.0794  -16.6764   23.9106 O   0  0  0  0  0  0  0  0  0  0  0  0
   10.2879  -16.5050   24.3052 N   0  0  0  0  0  0  0  0  0  0  0  0
   10.2832  -16.3996   25.7393 C   0  0  1  0  0  0  0  0  0  0  0  0
   10.0120  -15.0943   26.2937 C   0  0  0  0  0  0  0  0  0  0  0  0
    8.5889  -14.7213   26.2894 C   0  0  0  0  0  0  0  0  0  0  0  0
    7.5212  -15.6205   26.1123 C   0  0  0  0  0  0  0  0  0  0  0  0
    6.3540  -14.9773   26.1133 N   0  0  0  0  0  0  0  0  0  0  0  0
    6.6205  -13.6905   26.2856 C   0  0  0  0  0  0  0  0  0  0  0  0
    5.7438  -12.6046   26.3810 C   0  0  0  0  0  0  0  0  0  0  0  0
    6.2286  -11.3340   26.5893 C   0  0  0  0  0  0  0  0  0  0  0  0
    7.5907  -11.1622   26.7004 C   0  0  0  0  0  0  0  0  0  0  0  0
    8.4586  -12.2276   26.6064 C   0  0  0  0  0  0  0  0  0  0  0  0
    7.9763  -13.4976   26.3973 C   0  0  0  0  0  0  0  0  0  0  0  0
    9.4333  -17.4511   26.2673 C   0  0  0  0  0  0  0  0  0  0  0  0
    8.7354  -18.2569   25.3815 O   0  0  0  0  0  0  0  0  0  0  0  0
    9.2596  -17.7132   27.4794 O   0  0  0  0  0  0  0  0  0  0  0  0
  2  1  1  0
  3  2  2  0
  4  2  1  0
  5  6  1  6
  5  4  1  0
  7  5  1  0
  8  7  2  0
 10  9  1  0
 11 10  1  0
 12 11  1  0
 13 12  1  6
 13 14  1  0
 14  7  1  0
 15 13  1  0
 15 16  2  0
 17 15  1  0
 18 17  1  0
 18 19  1  6
 20 19  1  0
 20 21  2  0
 22 21  1  0
 23 22  1  0
 24 23  2  0
 25 24  1  0
 26 25  2  0
 26 27  1  0
 27 28  2  0
 28 23  1  0
 28 20  1  0
 29 18  1  0
 30 29  1  0
 31 29  2  0
M  END
$$$$
