NMW.pdb
     RDKit          3D

 31 32  0  0  1  0  0  0  0  0999 V2000
    5.3803  -18.3764   18.7318 N   0  0  0  0  0  0  0  0  0  0  0  0
    6.4338  -19.0599   19.3811 C   0  0  0  0  0  0  0  0  0  0  0  0
    6.2778  -20.2343   19.7969 O   0  0  0  0  0  0  0  0  0  0  0  0
    7.7282  -18.3636   19.5624 C   0  0  0  0  0  0  0  0  0  0  0  0
    8.1812  -18.5347   20.9979 C   0  0  2  0  0  0  0  0  0  0  0  0
    7.0975  -19.1104   21.7437 N   0  0  0  0  0  0  0  0  0  0  0  0
    8.5470  -17.1798   21.4918 C   0  0  0  0  0  0  0  0  0  0  0  0
    9.3206  -16.4451   20.8232 O   0  0  0  0  0  0  0  0  0  0  0  0
    6.5607  -11.3794   25.3974 C   0  0  0  0  0  0  0  0  0  0  0  0
    6.2747  -13.1101   25.6696 S   0  0  0  0  0  0  0  0  0  0  0  0
    7.6764  -14.1717   25.4194 C   0  0  0  0  0  0  0  0  0  0  0  0
    7.4307  -15.3020   24.4918 C   0  0  0  0  0  0  0  0  0  0  0  0
    8.3585  -15.4381   23.3278 C   0  0  2  0  0  0  0  0  0  0  0  0
    8.0171  -16.7369   22.7106 N   0  0  0  0  0  0  0  0  0  0  0  0
    9.7313  -15.6121   23.8982 C   0  0  0  0  0  0  0  0  0  0  0  0
   10.2882  -14.6385   24.4376 O   0  0  0  0  0  0  0  0  0  0  0  0
   10.4391  -16.8094   23.8656 N   0  0  0  0  0  0  0  0  0  0  0  0
   11.7900  -16.9408   24.3408 C   0  0  1  0  0  0  0  0  0  0  0  0
   12.1926  -16.0539   25.4066 C   0  0  0  0  0  0  0  0  0  0  0  0
   11.5288  -16.3168   26.6929 C   0  0  0  0  0  0  0  0  0  0  0  0
   11.3816  -17.5878   27.2782 C   0  0  0  0  0  0  0  0  0  0  0  0
   10.6989  -17.5081   28.4200 N   0  0  0  0  0  0  0  0  0  0  0  0
   10.3956  -16.2309   28.6023 C   0  0  0  0  0  0  0  0  0  0  0  0
    9.7083  -15.6206   29.6567 C   0  0  0  0  0  0  0  0  0  0  0  0
    9.5191  -14.2579   29.6689 C   0  0  0  0  0  0  0  0  0  0  0  0
   10.0214  -13.5171   28.6221 C   0  0  0  0  0  0  0  0  0  0  0  0
   10.6981  -14.1127   27.5808 C   0  0  0  0  0  0  0  0  0  0  0  0
   10.8873  -15.4740   27.5662 C   0  0  0  0  0  0  0  0  0  0  0  0
   12.0374  -18.3439   24.6181 C   0  0  0  0  0  0  0  0  0  0  0  0
   10.9898  -19.2444   24.5047 O   0  0  0  0  0  0  0  0  0  0  0  0
   13.1348  -18.8404   24.9605 O   0  0  0  0  0  0  0  0  0  0  0  0
  2  1  1  0
  3  2  2  0
  4  2  1  0
  5  6  1  1
  5  4  1  0
  7  5  1  0
  8  7  2  0
 10  9  1  0
 11 10  1  0
 12 11  1  0
 13 12  1  1
 13 14  1  0
 14  7  1  0
 15 13  1  0
 15 16  2  0
 17 15  1  0
 18 17  1  0
 18 19  1  1
 20 19  1  0
 20 21  2  0
 22 21  1  0
 23 22  1  0
 24 23  2  0
 25 24  1  0
 26 25  2  0
 26 27  1  0
 27 28  2  0
 28 23  1  0
 28 20  1  0
 29 18  1  0
 30 29  1  0
 31 29  2  0
M  END
$$$$
