NSA.pdb
     RDKit          3D

 20 19  0  0  1  0  0  0  0  0999 V2000
   11.4663  -11.6591  -11.1172 N   0  0  0  0  0  0  0  0  0  0  0  0
   11.4602  -10.5695  -10.2110 C   0  0  0  0  0  0  0  0  0  0  0  0
   10.3665  -10.1931   -9.7210 O   0  0  0  0  0  0  0  0  0  0  0  0
   12.7268   -9.8933   -9.8567 C   0  0  0  0  0  0  0  0  0  0  0  0
   13.8466  -10.5723  -10.6138 C   0  0  2  0  0  0  0  0  0  0  0  0
   14.0800  -11.9231  -10.0789 N   0  0  0  0  0  0  0  0  0  0  0  0
   15.0798   -9.7981  -10.4072 C   0  0  0  0  0  0  0  0  0  0  0  0
   15.7722   -9.9000   -9.3847 O   0  0  0  0  0  0  0  0  0  0  0  0
   18.5513   -7.4834  -12.7041 O   0  0  0  0  0  0  0  0  0  0  0  0
   17.4316   -8.2782  -12.6215 C   0  0  0  0  0  0  0  0  0  0  0  0
   16.6809   -8.1035  -11.3180 C   0  0  2  0  0  0  0  0  0  0  0  0
   15.4859   -8.8979  -11.4335 N   0  0  0  0  0  0  0  0  0  0  0  0
   16.3102   -6.6879  -11.0818 C   0  0  0  0  0  0  0  0  0  0  0  0
   15.4881   -6.1111  -11.8407 O   0  0  0  0  0  0  0  0  0  0  0  0
   16.7247   -4.1686   -8.3425 C   0  0  0  0  0  0  0  0  0  0  0  0
   16.5660   -4.5425   -9.8156 C   0  0  2  0  0  0  0  0  0  0  0  0
   16.8632   -5.9374  -10.0060 N   0  0  0  0  0  0  0  0  0  0  0  0
   17.3164   -3.6546  -10.7071 C   0  0  0  0  0  0  0  0  0  0  0  0
   17.0221   -2.4320  -10.7570 O   0  0  0  0  0  0  0  0  0  0  0  0
   18.3476   -4.1044  -11.5039 O   0  0  0  0  0  0  0  0  0  0  0  0
  2  3  2  0
  2  1  1  0
  4  2  1  0
  5  4  1  0
  5  6  1  1
  7  8  2  0
  7  5  1  0
  9 10  1  0
 11 10  1  6
 11 12  1  0
 12  7  1  0
 13 11  1  0
 13 17  1  0
 14 13  2  0
 16 15  1  1
 16 17  1  0
 16 18  1  0
 18 20  1  0
 19 18  2  0
M  END
$$$$
