NSA.pdb
     RDKit          3D

 20 19  0  0  1  0  0  0  0  0999 V2000
   24.6506   -3.8038  -17.5702 N   0  0  0  0  0  0  0  0  0  0  0  0
   23.4426   -4.1605  -16.9206 C   0  0  0  0  0  0  0  0  0  0  0  0
   22.3581   -3.7067  -17.3631 O   0  0  0  0  0  0  0  0  0  0  0  0
   23.4710   -5.0520  -15.7410 C   0  0  0  0  0  0  0  0  0  0  0  0
   22.1736   -4.8684  -14.9852 C   0  0  2  0  0  0  0  0  0  0  0  0
   22.3553   -3.9110  -13.8826 N   0  0  0  0  0  0  0  0  0  0  0  0
   21.7992   -6.1598  -14.3894 C   0  0  0  0  0  0  0  0  0  0  0  0
   22.3743   -6.6336  -13.3996 O   0  0  0  0  0  0  0  0  0  0  0  0
   18.3553   -6.8663  -13.4971 O   0  0  0  0  0  0  0  0  0  0  0  0
   19.4191   -7.6802  -13.1837 C   0  0  0  0  0  0  0  0  0  0  0  0
   20.2175   -8.0996  -14.4002 C   0  0  2  0  0  0  0  0  0  0  0  0
   20.7276   -6.8862  -14.9832 N   0  0  0  0  0  0  0  0  0  0  0  0
   19.3756   -8.8073  -15.3939 C   0  0  0  0  0  0  0  0  0  0  0  0
   18.5970   -8.1611  -16.1425 O   0  0  0  0  0  0  0  0  0  0  0  0
   19.1741  -12.2627  -16.8390 C   0  0  0  0  0  0  0  0  0  0  0  0
   18.5509  -10.9224  -16.4512 C   0  0  2  0  0  0  0  0  0  0  0  0
   19.4129  -10.2233  -15.5355 N   0  0  0  0  0  0  0  0  0  0  0  0
   17.1726  -11.0580  -15.9738 C   0  0  0  0  0  0  0  0  0  0  0  0
   16.2800  -11.4649  -16.7622 O   0  0  0  0  0  0  0  0  0  0  0  0
   16.8042  -10.7578  -14.6797 O   0  0  0  0  0  0  0  0  0  0  0  0
  2  3  2  0
  2  1  1  0
  4  2  1  0
  5  4  1  0
  5  6  1  1
  7  8  2  0
  7  5  1  0
  9 10  1  0
 11 10  1  1
 11 12  1  0
 12  7  1  0
 13 11  1  0
 13 17  1  0
 14 13  2  0
 16 15  1  1
 16 17  1  0
 16 18  1  0
 18 20  1  0
 19 18  2  0
M  END
$$$$
