NSA.pdb
     RDKit          3D

 20 19  0  0  1  0  0  0  0  0999 V2000
   21.9359  -14.6073  -18.1700 N   0  0  0  0  0  0  0  0  0  0  0  0
   21.2138  -13.7248  -17.3284 C   0  0  0  0  0  0  0  0  0  0  0  0
   20.6582  -14.1848  -16.2999 O   0  0  0  0  0  0  0  0  0  0  0  0
   21.1215  -12.2880  -17.6664 C   0  0  0  0  0  0  0  0  0  0  0  0
   19.7149  -11.8249  -17.3583 C   0  0  2  0  0  0  0  0  0  0  0  0
   18.7632  -12.4066  -18.3182 N   0  0  0  0  0  0  0  0  0  0  0  0
   19.6638  -10.3639  -17.5186 C   0  0  0  0  0  0  0  0  0  0  0  0
   19.5807   -9.8132  -18.6254 O   0  0  0  0  0  0  0  0  0  0  0  0
   18.0910   -8.2726  -14.5371 O   0  0  0  0  0  0  0  0  0  0  0  0
   18.2604   -7.7734  -15.8077 C   0  0  0  0  0  0  0  0  0  0  0  0
   19.6079   -8.1241  -16.4028 C   0  0  2  0  0  0  0  0  0  0  0  0
   19.7112   -9.5588  -16.3446 N   0  0  0  0  0  0  0  0  0  0  0  0
   20.7226   -7.5188  -15.6360 C   0  0  0  0  0  0  0  0  0  0  0  0
   21.2128   -8.1204  -14.6450 O   0  0  0  0  0  0  0  0  0  0  0  0
   22.8645   -4.4146  -15.9612 C   0  0  0  0  0  0  0  0  0  0  0  0
   22.3360   -5.6472  -15.2286 C   0  0  2  0  0  0  0  0  0  0  0  0
   21.2712   -6.2521  -15.9840 N   0  0  0  0  0  0  0  0  0  0  0  0
   21.9824   -5.3668  -13.8349 C   0  0  0  0  0  0  0  0  0  0  0  0
   20.7835   -5.1295  -13.5345 O   0  0  0  0  0  0  0  0  0  0  0  0
   22.9175   -5.3534  -12.8220 O   0  0  0  0  0  0  0  0  0  0  0  0
  2  3  2  0
  2  1  1  0
  4  2  1  0
  5  4  1  0
  5  6  1  6
  7  8  2  0
  7  5  1  0
  9 10  1  0
 11 10  1  1
 11 12  1  0
 12  7  1  0
 13 11  1  0
 13 17  1  0
 14 13  2  0
 16 15  1  6
 16 17  1  0
 16 18  1  0
 18 20  1  0
 19 18  2  0
M  END
$$$$
