NSA.pdb
     RDKit          3D

 20 19  0  0  1  0  0  0  0  0999 V2000
   25.1186  -13.7154  -17.7119 N   0  0  0  0  0  0  0  0  0  0  0  0
   25.2451  -12.3221  -17.4855 C   0  0  0  0  0  0  0  0  0  0  0  0
   26.3926  -11.8319  -17.3413 O   0  0  0  0  0  0  0  0  0  0  0  0
   24.0386  -11.4695  -17.4206 C   0  0  0  0  0  0  0  0  0  0  0  0
   24.2014  -10.5173  -16.2566 C   0  0  2  0  0  0  0  0  0  0  0  0
   24.3378  -11.2670  -14.9978 N   0  0  0  0  0  0  0  0  0  0  0  0
   22.9820   -9.7015  -16.1529 C   0  0  0  0  0  0  0  0  0  0  0  0
   21.8447  -10.1759  -16.2824 O   0  0  0  0  0  0  0  0  0  0  0  0
   20.4046   -6.9846  -13.9376 O   0  0  0  0  0  0  0  0  0  0  0  0
   21.3875   -7.8493  -14.3604 C   0  0  0  0  0  0  0  0  0  0  0  0
   21.9891   -7.4507  -15.6916 C   0  0  2  0  0  0  0  0  0  0  0  0
   23.1275   -8.3091  -15.8906 N   0  0  0  0  0  0  0  0  0  0  0  0
   22.4326   -6.0364  -15.6938 C   0  0  0  0  0  0  0  0  0  0  0  0
   23.4224   -5.6796  -15.0029 O   0  0  0  0  0  0  0  0  0  0  0  0
   21.4609   -2.9155  -17.6034 C   0  0  0  0  0  0  0  0  0  0  0  0
   22.2436   -3.6878  -16.5422 C   0  0  2  0  0  0  0  0  0  0  0  0
   21.7648   -5.0423  -16.4634 N   0  0  0  0  0  0  0  0  0  0  0  0
   22.2731   -2.9985  -15.2499 C   0  0  0  0  0  0  0  0  0  0  0  0
   21.4594   -3.3325  -14.3497 O   0  0  0  0  0  0  0  0  0  0  0  0
   23.1671   -1.9870  -14.9704 O   0  0  0  0  0  0  0  0  0  0  0  0
  2  3  2  0
  2  1  1  0
  4  2  1  0
  5  4  1  0
  5  6  1  1
  7  8  2  0
  7  5  1  0
  9 10  1  0
 11 10  1  1
 11 12  1  0
 12  7  1  0
 13 11  1  0
 13 17  1  0
 14 13  2  0
 16 15  1  6
 16 17  1  0
 16 18  1  0
 18 20  1  0
 19 18  2  0
M  END
$$$$
