NSA.pdb
     RDKit          3D

 20 19  0  0  1  0  0  0  0  0999 V2000
   13.5980   -8.9394  -16.6769 N   0  0  0  0  0  0  0  0  0  0  0  0
   14.0277   -8.3100  -15.4820 C   0  0  0  0  0  0  0  0  0  0  0  0
   13.1798   -7.7190  -14.7679 O   0  0  0  0  0  0  0  0  0  0  0  0
   15.4538   -8.3536  -15.0931 C   0  0  0  0  0  0  0  0  0  0  0  0
   16.2165   -9.0595  -16.1922 C   0  0  2  0  0  0  0  0  0  0  0  0
   15.9297  -10.5026  -16.1682 N   0  0  0  0  0  0  0  0  0  0  0  0
   17.6552   -8.8925  -15.9371 C   0  0  0  0  0  0  0  0  0  0  0  0
   18.3156   -9.6993  -15.2676 O   0  0  0  0  0  0  0  0  0  0  0  0
   19.7103   -6.0572  -18.2168 O   0  0  0  0  0  0  0  0  0  0  0  0
   20.2751   -7.1831  -17.6639 C   0  0  0  0  0  0  0  0  0  0  0  0
   19.7125   -7.5131  -16.2972 C   0  0  2  0  0  0  0  0  0  0  0  0
   18.3059   -7.7522  -16.4894 N   0  0  0  0  0  0  0  0  0  0  0  0
   19.8957   -6.3947  -15.3419 C   0  0  0  0  0  0  0  0  0  0  0  0
   19.0404   -5.4741  -15.2694 O   0  0  0  0  0  0  0  0  0  0  0  0
   22.0357   -5.6928  -12.3609 C   0  0  0  0  0  0  0  0  0  0  0  0
   21.2228   -5.2269  -13.5681 C   0  0  2  0  0  0  0  0  0  0  0  0
   21.0299   -6.3188  -14.4850 N   0  0  0  0  0  0  0  0  0  0  0  0
   21.7802   -4.0253  -14.1939 C   0  0  0  0  0  0  0  0  0  0  0  0
   22.3422   -4.1140  -15.3165 O   0  0  0  0  0  0  0  0  0  0  0  0
   21.7136   -2.7826  -13.6006 O   0  0  0  0  0  0  0  0  0  0  0  0
  2  3  2  0
  2  1  1  0
  4  2  1  0
  5  4  1  0
  5  6  1  1
  7  8  2  0
  7  5  1  0
  9 10  1  0
 11 10  1  6
 11 12  1  0
 12  7  1  0
 13 11  1  0
 13 17  1  0
 14 13  2  0
 16 15  1  1
 16 17  1  0
 16 18  1  0
 18 20  1  0
 19 18  2  0
M  END
$$$$
