NSA.pdb
     RDKit          3D

 20 19  0  0  1  0  0  0  0  0999 V2000
   17.0866  -11.7888  -12.3528 N   0  0  0  0  0  0  0  0  0  0  0  0
   16.5854  -11.0171  -13.4306 C   0  0  0  0  0  0  0  0  0  0  0  0
   15.9378  -11.5926  -14.3402 O   0  0  0  0  0  0  0  0  0  0  0  0
   16.8282   -9.5590  -13.4738 C   0  0  0  0  0  0  0  0  0  0  0  0
   17.6431   -9.1847  -12.2556 C   0  0  2  0  0  0  0  0  0  0  0  0
   16.7803   -9.1120  -11.0658 N   0  0  0  0  0  0  0  0  0  0  0  0
   18.2082   -7.8442  -12.4718 C   0  0  0  0  0  0  0  0  0  0  0  0
   17.5444   -6.8068  -12.3368 O   0  0  0  0  0  0  0  0  0  0  0  0
   22.3750   -5.4895  -12.5469 O   0  0  0  0  0  0  0  0  0  0  0  0
   21.5878   -6.6033  -12.3680 C   0  0  0  0  0  0  0  0  0  0  0  0
   20.2295   -6.4757  -13.0253 C   0  0  2  0  0  0  0  0  0  0  0  0
   19.5779   -7.7474  -12.8502 N   0  0  0  0  0  0  0  0  0  0  0  0
   20.3444   -6.1764  -14.4724 C   0  0  0  0  0  0  0  0  0  0  0  0
   20.6827   -7.0779  -15.2830 O   0  0  0  0  0  0  0  0  0  0  0  0
   19.3944   -3.3084  -16.7186 C   0  0  0  0  0  0  0  0  0  0  0  0
   20.1699   -4.5857  -16.3988 C   0  0  2  0  0  0  0  0  0  0  0  0
   20.0830   -4.8772  -14.9925 N   0  0  0  0  0  0  0  0  0  0  0  0
   21.5427   -4.5551  -16.9091 C   0  0  0  0  0  0  0  0  0  0  0  0
   22.4955   -4.3426  -16.1147 O   0  0  0  0  0  0  0  0  0  0  0  0
   21.8427   -4.7538  -18.2399 O   0  0  0  0  0  0  0  0  0  0  0  0
  2  3  2  0
  2  1  1  0
  4  2  1  0
  5  4  1  0
  5  6  1  1
  7  8  2  0
  7  5  1  0
  9 10  1  0
 11 10  1  6
 11 12  1  0
 12  7  1  0
 13 11  1  0
 13 17  1  0
 14 13  2  0
 16 15  1  1
 16 17  1  0
 16 18  1  0
 18 20  1  0
 19 18  2  0
M  END
$$$$
