NSA.pdb
     RDKit          3D

 20 19  0  0  1  0  0  0  0  0999 V2000
   16.5325  -13.5899  -15.7613 N   0  0  0  0  0  0  0  0  0  0  0  0
   16.9394  -12.7835  -14.6693 C   0  0  0  0  0  0  0  0  0  0  0  0
   16.3521  -12.9130  -13.5665 O   0  0  0  0  0  0  0  0  0  0  0  0
   18.0380  -11.8079  -14.8375 C   0  0  0  0  0  0  0  0  0  0  0  0
   18.4719  -11.8380  -16.2862 C   0  0  2  0  0  0  0  0  0  0  0  0
   19.2954  -13.0289  -16.5487 N   0  0  0  0  0  0  0  0  0  0  0  0
   19.3112  -10.6577  -16.5419 C   0  0  0  0  0  0  0  0  0  0  0  0
   20.5290  -10.6388  -16.3143 O   0  0  0  0  0  0  0  0  0  0  0  0
   17.3988   -7.2380  -18.1044 O   0  0  0  0  0  0  0  0  0  0  0  0
   18.6644   -7.6074  -18.4968 C   0  0  0  0  0  0  0  0  0  0  0  0
   19.4384   -8.3104  -17.4013 C   0  0  2  0  0  0  0  0  0  0  0  0
   18.6866   -9.4940  -17.0751 N   0  0  0  0  0  0  0  0  0  0  0  0
   19.5728   -7.4637  -16.1921 C   0  0  0  0  0  0  0  0  0  0  0  0
   18.6833   -7.4812  -15.3019 O   0  0  0  0  0  0  0  0  0  0  0  0
   22.3680   -5.5624  -14.5752 C   0  0  0  0  0  0  0  0  0  0  0  0
   20.8842   -5.8651  -14.7793 C   0  0  2  0  0  0  0  0  0  0  0  0
   20.6946   -6.6096  -15.9958 N   0  0  0  0  0  0  0  0  0  0  0  0
   20.0460   -4.6672  -14.6864 C   0  0  0  0  0  0  0  0  0  0  0  0
   19.6537   -4.1011  -15.7398 O   0  0  0  0  0  0  0  0  0  0  0  0
   19.6598   -4.1255  -13.4790 O   0  0  0  0  0  0  0  0  0  0  0  0
  2  3  2  0
  2  1  1  0
  4  2  1  0
  5  4  1  0
  5  6  1  1
  7  8  2  0
  7  5  1  0
  9 10  1  0
 11 10  1  6
 11 12  1  0
 12  7  1  0
 13 11  1  0
 13 17  1  0
 14 13  2  0
 16 15  1  6
 16 17  1  0
 16 18  1  0
 18 20  1  0
 19 18  2  0
M  END
$$$$
