NSA.pdb
     RDKit          3D

 20 19  0  0  1  0  0  0  0  0999 V2000
   28.9003  -22.4261  -16.1805 N   0  0  0  0  0  0  0  0  0  0  0  0
   27.5035  -22.1908  -16.1350 C   0  0  0  0  0  0  0  0  0  0  0  0
   26.7195  -23.1678  -16.2295 O   0  0  0  0  0  0  0  0  0  0  0  0
   26.9889  -20.8131  -15.9800 C   0  0  0  0  0  0  0  0  0  0  0  0
   25.4873  -20.8523  -16.1585 C   0  0  2  0  0  0  0  0  0  0  0  0
   25.1455  -21.2975  -17.5187 N   0  0  0  0  0  0  0  0  0  0  0  0
   24.9671  -19.4859  -15.9991 C   0  0  0  0  0  0  0  0  0  0  0  0
   25.6963  -18.4843  -16.0178 O   0  0  0  0  0  0  0  0  0  0  0  0
   22.4671  -16.2267  -17.3142 O   0  0  0  0  0  0  0  0  0  0  0  0
   23.1146  -17.4311  -17.1639 C   0  0  0  0  0  0  0  0  0  0  0  0
   22.9526  -18.0172  -15.7771 C   0  0  2  0  0  0  0  0  0  0  0  0
   23.5642  -19.3198  -15.8179 N   0  0  0  0  0  0  0  0  0  0  0  0
   21.5255  -18.1549  -15.4011 C   0  0  0  0  0  0  0  0  0  0  0  0
   20.8275  -19.0840  -15.8849 O   0  0  0  0  0  0  0  0  0  0  0  0
   19.4176  -17.3506  -12.5676 C   0  0  0  0  0  0  0  0  0  0  0  0
   19.5262  -17.4082  -14.0908 C   0  0  2  0  0  0  0  0  0  0  0  0
   20.8986  -17.2541  -14.4944 N   0  0  0  0  0  0  0  0  0  0  0  0
   18.6096  -16.4799  -14.7573 C   0  0  0  0  0  0  0  0  0  0  0  0
   19.0680  -15.4511  -15.3188 O   0  0  0  0  0  0  0  0  0  0  0  0
   17.2473  -16.6869  -14.7996 O   0  0  0  0  0  0  0  0  0  0  0  0
  2  3  2  0
  2  1  1  0
  4  2  1  0
  5  4  1  0
  5  6  1  6
  7  8  2  0
  7  5  1  0
  9 10  1  0
 11 10  1  6
 11 12  1  0
 12  7  1  0
 13 11  1  0
 13 17  1  0
 14 13  2  0
 16 15  1  1
 16 17  1  0
 16 18  1  0
 18 20  1  0
 19 18  2  0
M  END
$$$$
