NSA.pdb
     RDKit          3D

 20 19  0  0  1  0  0  0  0  0999 V2000
   20.0688  -12.1961  -20.6752 N   0  0  0  0  0  0  0  0  0  0  0  0
   18.9995  -12.4254  -19.7738 C   0  0  0  0  0  0  0  0  0  0  0  0
   18.5700  -13.5966  -19.6262 O   0  0  0  0  0  0  0  0  0  0  0  0
   18.4059  -11.2962  -19.0257 C   0  0  0  0  0  0  0  0  0  0  0  0
   19.1401  -11.1705  -17.7092 C   0  0  2  0  0  0  0  0  0  0  0  0
   18.8809  -12.3474  -16.8647 N   0  0  0  0  0  0  0  0  0  0  0  0
   18.6158   -9.9948  -16.9981 C   0  0  0  0  0  0  0  0  0  0  0  0
   17.4084   -9.8295  -16.7744 O   0  0  0  0  0  0  0  0  0  0  0  0
   19.3555   -9.0647  -13.7042 O   0  0  0  0  0  0  0  0  0  0  0  0
   18.4714   -8.4145  -14.5337 C   0  0  0  0  0  0  0  0  0  0  0  0
   19.1300   -7.8678  -15.7829 C   0  0  2  0  0  0  0  0  0  0  0  0
   19.5452   -9.0122  -16.5513 N   0  0  0  0  0  0  0  0  0  0  0  0
   20.3132   -7.0348  -15.4618 C   0  0  0  0  0  0  0  0  0  0  0  0
   21.4638   -7.5450  -15.4444 O   0  0  0  0  0  0  0  0  0  0  0  0
   20.9762   -3.3458  -15.0965 C   0  0  0  0  0  0  0  0  0  0  0  0
   21.3453   -4.8182  -14.9207 C   0  0  2  0  0  0  0  0  0  0  0  0
   20.1951   -5.6481  -15.1627 N   0  0  0  0  0  0  0  0  0  0  0  0
   22.0041   -5.0857  -13.6399 C   0  0  0  0  0  0  0  0  0  0  0  0
   21.3258   -5.5157  -12.6709 O   0  0  0  0  0  0  0  0  0  0  0  0
   23.3545   -4.8868  -13.4460 O   0  0  0  0  0  0  0  0  0  0  0  0
  2  3  2  0
  2  1  1  0
  4  2  1  0
  5  4  1  0
  5  6  1  1
  7  8  2  0
  7  5  1  0
  9 10  1  0
 11 10  1  1
 11 12  1  0
 12  7  1  0
 13 11  1  0
 13 17  1  0
 14 13  2  0
 16 15  1  1
 16 17  1  0
 16 18  1  0
 18 20  1  0
 19 18  2  0
M  END
$$$$
