NSA.pdb
     RDKit          3D

 20 19  0  0  1  0  0  0  0  0999 V2000
   24.2972  -13.5893  -21.0499 N   0  0  0  0  0  0  0  0  0  0  0  0
   23.1986  -13.4315  -20.1685 C   0  0  0  0  0  0  0  0  0  0  0  0
   22.1641  -14.1184  -20.3583 O   0  0  0  0  0  0  0  0  0  0  0  0
   23.2799  -12.4699  -19.0479 C   0  0  0  0  0  0  0  0  0  0  0  0
   24.6072  -11.7508  -19.1446 C   0  0  2  0  0  0  0  0  0  0  0  0
   25.6933  -12.6140  -18.6542 N   0  0  0  0  0  0  0  0  0  0  0  0
   24.5567  -10.5684  -18.2715 C   0  0  0  0  0  0  0  0  0  0  0  0
   24.6282  -10.6429  -17.0368 O   0  0  0  0  0  0  0  0  0  0  0  0
   24.4816   -5.7057  -18.4693 O   0  0  0  0  0  0  0  0  0  0  0  0
   24.6312   -6.9422  -19.0532 C   0  0  0  0  0  0  0  0  0  0  0  0
   24.3234   -8.0819  -18.1048 C   0  0  2  0  0  0  0  0  0  0  0  0
   24.4215   -9.2891  -18.8829 N   0  0  0  0  0  0  0  0  0  0  0  0
   22.9588   -7.9719  -17.5367 C   0  0  0  0  0  0  0  0  0  0  0  0
   21.9530   -8.2512  -18.2401 O   0  0  0  0  0  0  0  0  0  0  0  0
   21.4373   -7.8692  -14.1644 C   0  0  0  0  0  0  0  0  0  0  0  0
   21.4155   -7.4518  -15.6342 C   0  0  2  0  0  0  0  0  0  0  0  0
   22.7368   -7.5500  -16.1954 N   0  0  0  0  0  0  0  0  0  0  0  0
   20.7847   -6.1459  -15.8407 C   0  0  0  0  0  0  0  0  0  0  0  0
   19.5512   -6.0838  -16.0826 O   0  0  0  0  0  0  0  0  0  0  0  0
   21.4917   -4.9640  -15.7787 O   0  0  0  0  0  0  0  0  0  0  0  0
  2  3  2  0
  2  1  1  0
  4  2  1  0
  5  4  1  0
  5  6  1  1
  7  8  2  0
  7  5  1  0
  9 10  1  0
 11 10  1  6
 11 12  1  0
 12  7  1  0
 13 11  1  0
 13 17  1  0
 14 13  2  0
 16 15  1  1
 16 17  1  0
 16 18  1  0
 18 20  1  0
 19 18  2  0
M  END
$$$$
