NSA.pdb
     RDKit          3D

 20 19  0  0  1  0  0  0  0  0999 V2000
   18.5579  -11.3003  -17.5917 N   0  0  0  0  0  0  0  0  0  0  0  0
   17.5059  -11.0281  -16.6819 C   0  0  0  0  0  0  0  0  0  0  0  0
   16.3899  -11.5757  -16.8625 O   0  0  0  0  0  0  0  0  0  0  0  0
   17.7297  -10.1118  -15.5430 C   0  0  0  0  0  0  0  0  0  0  0  0
   19.1736   -9.6626  -15.5813 C   0  0  2  0  0  0  0  0  0  0  0  0
   20.0342  -10.6499  -14.9104 N   0  0  0  0  0  0  0  0  0  0  0  0
   19.2853   -8.4013  -14.8333 C   0  0  0  0  0  0  0  0  0  0  0  0
   18.5319   -8.1098  -13.8938 O   0  0  0  0  0  0  0  0  0  0  0  0
   22.1485   -4.9410  -13.4353 O   0  0  0  0  0  0  0  0  0  0  0  0
   21.8502   -6.1475  -14.0252 C   0  0  0  0  0  0  0  0  0  0  0  0
   20.4443   -6.1967  -14.5856 C   0  0  2  0  0  0  0  0  0  0  0  0
   20.3074   -7.4850  -15.2133 N   0  0  0  0  0  0  0  0  0  0  0  0
   20.2151   -5.1322  -15.5913 C   0  0  0  0  0  0  0  0  0  0  0  0
   20.7376   -5.2139  -16.7335 O   0  0  0  0  0  0  0  0  0  0  0  0
   17.8628   -2.2944  -16.1047 C   0  0  0  0  0  0  0  0  0  0  0  0
   19.2514   -2.9160  -16.2480 C   0  0  2  0  0  0  0  0  0  0  0  0
   19.4099   -3.9932  -15.3073 N   0  0  0  0  0  0  0  0  0  0  0  0
   20.3242   -1.9203  -16.1879 C   0  0  0  0  0  0  0  0  0  0  0  0
   21.1321   -1.9360  -15.2230 O   0  0  0  0  0  0  0  0  0  0  0  0
   20.4926   -0.9539  -17.1565 O   0  0  0  0  0  0  0  0  0  0  0  0
  2  3  2  0
  2  1  1  0
  4  2  1  0
  5  4  1  0
  5  6  1  1
  7  8  2  0
  7  5  1  0
  9 10  1  0
 11 10  1  6
 11 12  1  0
 12  7  1  0
 13 11  1  0
 13 17  1  0
 14 13  2  0
 16 15  1  1
 16 17  1  0
 16 18  1  0
 18 20  1  0
 19 18  2  0
M  END
$$$$
