NSA.pdb
     RDKit          3D

 20 19  0  0  1  0  0  0  0  0999 V2000
   16.3419  -11.8983  -16.1090 N   0  0  0  0  0  0  0  0  0  0  0  0
   17.3461  -12.4979  -16.9093 C   0  0  0  0  0  0  0  0  0  0  0  0
   17.0009  -13.2430  -17.8598 O   0  0  0  0  0  0  0  0  0  0  0  0
   18.7740  -12.2442  -16.6197 C   0  0  0  0  0  0  0  0  0  0  0  0
   18.8529  -11.3733  -15.3854 C   0  0  2  0  0  0  0  0  0  0  0  0
   17.5179  -11.2105  -14.7883 N   0  0  0  0  0  0  0  0  0  0  0  0
   19.3193  -10.0387  -15.7906 C   0  0  0  0  0  0  0  0  0  0  0  0
   20.3576   -9.8605  -16.4429 O   0  0  0  0  0  0  0  0  0  0  0  0
   17.7494   -5.4441  -16.0323 O   0  0  0  0  0  0  0  0  0  0  0  0
   17.5872   -6.7642  -15.6813 C   0  0  0  0  0  0  0  0  0  0  0  0
   18.8485   -7.5816  -15.8664 C   0  0  2  0  0  0  0  0  0  0  0  0
   18.5352   -8.9114  -15.4125 N   0  0  0  0  0  0  0  0  0  0  0  0
   19.9758   -7.0422  -15.0693 C   0  0  0  0  0  0  0  0  0  0  0  0
   20.0641   -7.2969  -13.8398 O   0  0  0  0  0  0  0  0  0  0  0  0
   23.2458   -5.3629  -15.8951 C   0  0  0  0  0  0  0  0  0  0  0  0
   22.1571   -5.8204  -14.9253 C   0  0  2  0  0  0  0  0  0  0  0  0
   20.9846   -6.2258  -15.6542 N   0  0  0  0  0  0  0  0  0  0  0  0
   21.8854   -4.8347  -13.8762 C   0  0  0  0  0  0  0  0  0  0  0  0
   22.6359   -4.7792  -12.8674 O   0  0  0  0  0  0  0  0  0  0  0  0
   20.8303   -3.9502  -13.9465 O   0  0  0  0  0  0  0  0  0  0  0  0
  2  3  2  0
  2  1  1  0
  4  2  1  0
  5  4  1  0
  5  6  1  6
  7  8  2  0
  7  5  1  0
  9 10  1  0
 11 10  1  1
 11 12  1  0
 12  7  1  0
 13 11  1  0
 13 17  1  0
 14 13  2  0
 16 15  1  6
 16 17  1  0
 16 18  1  0
 18 20  1  0
 19 18  2  0
M  END
$$$$
