NSA.pdb
     RDKit          3D

 20 19  0  0  1  0  0  0  0  0999 V2000
   16.0539  -10.3810  -18.4412 N   0  0  0  0  0  0  0  0  0  0  0  0
   15.5753  -10.4649  -17.1099 C   0  0  0  0  0  0  0  0  0  0  0  0
   14.4657  -11.0140  -16.8968 O   0  0  0  0  0  0  0  0  0  0  0  0
   16.3770   -9.9102  -15.9979 C   0  0  0  0  0  0  0  0  0  0  0  0
   17.6706   -9.3787  -16.5743 C   0  0  2  0  0  0  0  0  0  0  0  0
   18.5788  -10.4892  -16.9019 N   0  0  0  0  0  0  0  0  0  0  0  0
   18.3312   -8.5583  -15.5479 C   0  0  0  0  0  0  0  0  0  0  0  0
   17.7099   -7.7861  -14.8043 O   0  0  0  0  0  0  0  0  0  0  0  0
   22.5454   -8.7087  -15.3467 O   0  0  0  0  0  0  0  0  0  0  0  0
   21.7767   -8.6781  -14.2062 C   0  0  0  0  0  0  0  0  0  0  0  0
   20.4675   -7.9418  -14.3986 C   0  0  2  0  0  0  0  0  0  0  0  0
   19.7449   -8.6659  -15.4115 N   0  0  0  0  0  0  0  0  0  0  0  0
   20.6821   -6.5462  -14.8497 C   0  0  0  0  0  0  0  0  0  0  0  0
   20.9680   -6.3034  -16.0512 O   0  0  0  0  0  0  0  0  0  0  0  0
   19.8864   -3.1205  -13.7614 C   0  0  0  0  0  0  0  0  0  0  0  0
   20.8967   -4.1003  -14.3566 C   0  0  2  0  0  0  0  0  0  0  0  0
   20.5775   -5.4444  -13.9544 N   0  0  0  0  0  0  0  0  0  0  0  0
   22.2837   -3.7179  -14.0806 C   0  0  0  0  0  0  0  0  0  0  0  0
   22.7962   -2.7508  -14.7019 O   0  0  0  0  0  0  0  0  0  0  0  0
   23.0636   -4.3780  -13.1552 O   0  0  0  0  0  0  0  0  0  0  0  0
  2  3  2  0
  2  1  1  0
  4  2  1  0
  5  4  1  0
  5  6  1  1
  7  8  2  0
  7  5  1  0
  9 10  1  0
 11 10  1  6
 11 12  1  0
 12  7  1  0
 13 11  1  0
 13 17  1  0
 14 13  2  0
 16 15  1  1
 16 17  1  0
 16 18  1  0
 18 20  1  0
 19 18  2  0
M  END
$$$$
