NSA.pdb
     RDKit          3D

 20 19  0  0  1  0  0  0  0  0999 V2000
   28.2178  -34.0141   -5.9426 N   0  0  0  0  0  0  0  0  0  0  0  0
   28.7579  -33.9801   -4.6328 C   0  0  0  0  0  0  0  0  0  0  0  0
   28.6783  -32.9158   -3.9703 O   0  0  0  0  0  0  0  0  0  0  0  0
   29.4035  -35.1839   -4.0661 C   0  0  0  0  0  0  0  0  0  0  0  0
   30.8969  -34.9444   -4.0394 C   0  0  2  0  0  0  0  0  0  0  0  0
   31.4622  -35.0896   -5.3902 N   0  0  0  0  0  0  0  0  0  0  0  0
   31.5149  -35.9744   -3.1908 C   0  0  0  0  0  0  0  0  0  0  0  0
   31.4534  -37.1841   -3.4519 O   0  0  0  0  0  0  0  0  0  0  0  0
   33.3510  -34.6715    0.3587 O   0  0  0  0  0  0  0  0  0  0  0  0
   33.9029  -35.6927   -0.3794 C   0  0  0  0  0  0  0  0  0  0  0  0
   32.8692  -36.4875   -1.1494 C   0  0  2  0  0  0  0  0  0  0  0  0
   32.2122  -35.5509   -2.0233 N   0  0  0  0  0  0  0  0  0  0  0  0
   31.8678  -37.1063   -0.2487 C   0  0  0  0  0  0  0  0  0  0  0  0
   30.7502  -36.5564   -0.0675 O   0  0  0  0  0  0  0  0  0  0  0  0
   31.6152  -40.3475    1.6884 C   0  0  0  0  0  0  0  0  0  0  0  0
   31.1497  -38.9480    1.2889 C   0  0  2  0  0  0  0  0  0  0  0  0
   32.1287  -38.3259    0.4375 N   0  0  0  0  0  0  0  0  0  0  0  0
   30.7689  -38.1293    2.4426 C   0  0  0  0  0  0  0  0  0  0  0  0
   31.5222  -37.1921    2.8142 O   0  0  0  0  0  0  0  0  0  0  0  0
   29.6039  -38.3411    3.1486 O   0  0  0  0  0  0  0  0  0  0  0  0
  2  3  2  0
  2  1  1  0
  4  2  1  0
  5  4  1  0
  5  6  1  6
  7  8  2  0
  7  5  1  0
  9 10  1  0
 11 10  1  1
 11 12  1  0
 12  7  1  0
 13 11  1  0
 13 17  1  0
 14 13  2  0
 16 15  1  1
 16 17  1  0
 16 18  1  0
 18 20  1  0
 19 18  2  0
M  END
$$$$
