NSA.pdb
     RDKit          3D

 20 19  0  0  1  0  0  0  0  0999 V2000
   27.2967  -15.4142  -18.1148 N   0  0  0  0  0  0  0  0  0  0  0  0
   26.1235  -14.6221  -18.1842 C   0  0  0  0  0  0  0  0  0  0  0  0
   25.0506  -15.1573  -18.5590 O   0  0  0  0  0  0  0  0  0  0  0  0
   26.1740  -13.1897  -17.8202 C   0  0  0  0  0  0  0  0  0  0  0  0
   27.2627  -13.0085  -16.7858 C   0  0  2  0  0  0  0  0  0  0  0  0
   26.7837  -13.4309  -15.4600 N   0  0  0  0  0  0  0  0  0  0  0  0
   27.5858  -11.5762  -16.7009 C   0  0  0  0  0  0  0  0  0  0  0  0
   27.0381  -10.8118  -15.8941 O   0  0  0  0  0  0  0  0  0  0  0  0
   31.1816   -8.5663  -17.6864 O   0  0  0  0  0  0  0  0  0  0  0  0
   30.5588   -9.7908  -17.7590 C   0  0  0  0  0  0  0  0  0  0  0  0
   29.0756   -9.7151  -17.4634 C   0  0  2  0  0  0  0  0  0  0  0  0
   28.5725  -11.0582  -17.5878 N   0  0  0  0  0  0  0  0  0  0  0  0
   28.3677   -8.8334  -18.4217 C   0  0  0  0  0  0  0  0  0  0  0  0
   28.0876   -9.2460  -19.5774 O   0  0  0  0  0  0  0  0  0  0  0  0
   26.6711   -5.4682  -18.2648 C   0  0  0  0  0  0  0  0  0  0  0  0
   27.3110   -6.6400  -19.0082 C   0  0  2  0  0  0  0  0  0  0  0  0
   27.9857   -7.5058  -18.0780 N   0  0  0  0  0  0  0  0  0  0  0  0
   28.1536   -6.2069  -20.1255 C   0  0  0  0  0  0  0  0  0  0  0  0
   29.4062   -6.2439  -20.0089 O   0  0  0  0  0  0  0  0  0  0  0  0
   27.6283   -5.7560  -21.3177 O   0  0  0  0  0  0  0  0  0  0  0  0
  2  3  2  0
  2  1  1  0
  4  2  1  0
  5  4  1  0
  5  6  1  1
  7  8  2  0
  7  5  1  0
  9 10  1  0
 11 10  1  6
 11 12  1  0
 12  7  1  0
 13 11  1  0
 13 17  1  0
 14 13  2  0
 16 15  1  1
 16 17  1  0
 16 18  1  0
 18 20  1  0
 19 18  2  0
M  END
$$$$
