NSA.pdb
     RDKit          3D

 20 19  0  0  1  0  0  0  0  0999 V2000
   17.3195  -13.8085  -14.7789 N   0  0  0  0  0  0  0  0  0  0  0  0
   18.3839  -13.3991  -15.6202 C   0  0  0  0  0  0  0  0  0  0  0  0
   19.2253  -14.2535  -15.9945 O   0  0  0  0  0  0  0  0  0  0  0  0
   18.4929  -11.9862  -16.0431 C   0  0  0  0  0  0  0  0  0  0  0  0
   17.4045  -11.2035  -15.3425 C   0  0  2  0  0  0  0  0  0  0  0  0
   16.0810  -11.6080  -15.8427 N   0  0  0  0  0  0  0  0  0  0  0  0
   17.5797   -9.7791  -15.6637 C   0  0  0  0  0  0  0  0  0  0  0  0
   17.2440   -9.2908  -16.7519 O   0  0  0  0  0  0  0  0  0  0  0  0
   17.3611   -5.4307  -14.4184 O   0  0  0  0  0  0  0  0  0  0  0  0
   17.1885   -6.7954  -14.4293 C   0  0  0  0  0  0  0  0  0  0  0  0
   18.4131   -7.5395  -14.9191 C   0  0  2  0  0  0  0  0  0  0  0  0
   18.1595   -8.9352  -14.6736 N   0  0  0  0  0  0  0  0  0  0  0  0
   19.6362   -7.1259  -14.1911 C   0  0  0  0  0  0  0  0  0  0  0  0
   19.8522   -7.5426  -13.0232 O   0  0  0  0  0  0  0  0  0  0  0  0
   23.0226   -6.1911  -14.9439 C   0  0  0  0  0  0  0  0  0  0  0  0
   21.8002   -5.8701  -14.0848 C   0  0  2  0  0  0  0  0  0  0  0  0
   20.5971   -6.2529  -14.7749 N   0  0  0  0  0  0  0  0  0  0  0  0
   21.7911   -4.4835  -13.6123 C   0  0  0  0  0  0  0  0  0  0  0  0
   21.0155   -3.6501  -14.1489 O   0  0  0  0  0  0  0  0  0  0  0  0
   22.6042   -4.0444  -12.5893 O   0  0  0  0  0  0  0  0  0  0  0  0
  2  3  2  0
  2  1  1  0
  4  2  1  0
  5  4  1  0
  5  6  1  6
  7  8  2  0
  7  5  1  0
  9 10  1  0
 11 10  1  1
 11 12  1  0
 12  7  1  0
 13 11  1  0
 13 17  1  0
 14 13  2  0
 16 15  1  6
 16 17  1  0
 16 18  1  0
 18 20  1  0
 19 18  2  0
M  END
$$$$
