GMC.pdb
     RDKit          3D

 19 18  0  0  1  0  0  0  0  0999 V2000
   16.8813   -7.8472   -9.8500 N   0  0  0  0  0  0  0  0  0  0  0  0
   16.9292   -8.4070  -11.1842 C   0  0  0  0  0  0  0  0  0  0  0  0
   18.2459   -8.1224  -11.8395 C   0  0  0  0  0  0  0  0  0  0  0  0
   19.0606   -7.2924  -11.3150 O   0  0  0  0  0  0  0  0  0  0  0  0
   24.4023  -10.3745  -14.5882 C   0  0  0  0  0  0  0  0  0  0  0  0
   22.6946  -10.5795  -14.0102 S   0  0  0  0  0  0  0  0  0  0  0  0
   21.5575   -9.6404  -15.0979 C   0  0  0  0  0  0  0  0  0  0  0  0
   20.1831   -9.7565  -14.5532 C   0  0  0  0  0  0  0  0  0  0  0  0
   19.8048   -8.5832  -13.7234 C   0  0  2  0  0  0  0  0  0  0  0  0
   18.5290   -8.8113  -13.0470 N   0  0  0  0  0  0  0  0  0  0  0  0
   19.7825   -7.2810  -14.4004 C   0  0  0  0  0  0  0  0  0  0  0  0
   18.7978   -6.8667  -15.0314 O   0  0  0  0  0  0  0  0  0  0  0  0
   20.9093   -6.3829  -14.3812 N   0  0  0  0  0  0  0  0  0  0  0  0
   20.9203   -5.0985  -15.0310 C   0  0  1  0  0  0  0  0  0  0  0  0
   19.9167   -4.2204  -14.2720 C   0  0  0  0  0  0  0  0  0  0  0  0
   20.0794   -2.4825  -14.7130 S   0  0  0  0  0  0  0  0  0  0  0  0
   22.2120   -4.4281  -14.9881 C   0  0  0  0  0  0  0  0  0  0  0  0
   22.6156   -3.6136  -16.0266 O   0  0  0  0  0  0  0  0  0  0  0  0
   22.9768   -4.5777  -14.0125 O   0  0  0  0  0  0  0  0  0  0  0  0
  2  1  1  0
  2  3  1  0
  3  4  2  0
  5  6  1  0
  7  6  1  0
  7  8  1  0
  9  8  1  6
  9 11  1  0
 10  3  1  0
 10  9  1  0
 11 12  2  0
 13 14  1  0
 13 11  1  0
 14 17  1  0
 14 15  1  1
 16 15  1  0
 17 19  2  0
 17 18  1  0
M  END
$$$$
