GMC.pdb
     RDKit          3D

 19 18  0  0  1  0  0  0  0  0999 V2000
   19.5721  -16.9524  -17.0134 N   0  0  0  0  0  0  0  0  0  0  0  0
   20.2086  -15.7817  -17.5790 C   0  0  0  0  0  0  0  0  0  0  0  0
   20.8331  -14.9397  -16.5089 C   0  0  0  0  0  0  0  0  0  0  0  0
   20.2195  -14.7360  -15.4090 O   0  0  0  0  0  0  0  0  0  0  0  0
   27.4030  -12.3546  -15.7443 C   0  0  0  0  0  0  0  0  0  0  0  0
   26.6143  -13.4537  -14.5349 S   0  0  0  0  0  0  0  0  0  0  0  0
   24.8086  -13.1428  -14.5034 C   0  0  0  0  0  0  0  0  0  0  0  0
   24.1982  -13.7980  -15.6853 C   0  0  0  0  0  0  0  0  0  0  0  0
   22.7443  -13.5127  -15.7998 C   0  0  2  0  0  0  0  0  0  0  0  0
   22.1144  -14.3947  -16.7809 N   0  0  0  0  0  0  0  0  0  0  0  0
   22.3687  -12.1198  -16.0703 C   0  0  0  0  0  0  0  0  0  0  0  0
   22.5749  -11.5663  -17.1616 O   0  0  0  0  0  0  0  0  0  0  0  0
   21.7287  -11.2883  -15.0826 N   0  0  0  0  0  0  0  0  0  0  0  0
   21.3532   -9.9177  -15.3120 C   0  0  1  0  0  0  0  0  0  0  0  0
   19.9308   -9.7598  -14.7587 C   0  0  0  0  0  0  0  0  0  0  0  0
   18.7610  -10.8391  -15.5998 S   0  0  0  0  0  0  0  0  0  0  0  0
   22.2013   -8.9525  -14.6273 C   0  0  0  0  0  0  0  0  0  0  0  0
   21.9973   -7.5974  -14.7910 O   0  0  0  0  0  0  0  0  0  0  0  0
   23.1272   -9.3327  -13.8809 O   0  0  0  0  0  0  0  0  0  0  0  0
  2  1  1  0
  2  3  1  0
  3  4  2  0
  5  6  1  0
  7  6  1  0
  7  8  1  0
  9  8  1  6
  9 11  1  0
 10  3  1  0
 10  9  1  0
 11 12  2  0
 13 14  1  0
 13 11  1  0
 14 17  1  0
 14 15  1  1
 16 15  1  0
 17 19  2  0
 17 18  1  0
M  END
$$$$
