GMC.pdb
     RDKit          3D

 19 18  0  0  1  0  0  0  0  0999 V2000
   35.4869   -6.9671  -14.6093 N   0  0  0  0  0  0  0  0  0  0  0  0
   36.7525   -7.1203  -13.9233 C   0  0  0  0  0  0  0  0  0  0  0  0
   36.6933   -6.5295  -12.5480 C   0  0  0  0  0  0  0  0  0  0  0  0
   35.6785   -5.8480  -12.1826 O   0  0  0  0  0  0  0  0  0  0  0  0
   36.4165   -6.0390   -5.7932 C   0  0  0  0  0  0  0  0  0  0  0  0
   36.5823   -6.5773   -7.5180 S   0  0  0  0  0  0  0  0  0  0  0  0
   38.3535   -6.6109   -7.9870 C   0  0  0  0  0  0  0  0  0  0  0  0
   38.4611   -7.1018   -9.3821 C   0  0  0  0  0  0  0  0  0  0  0  0
   37.8159   -6.1819  -10.3546 C   0  0  2  0  0  0  0  0  0  0  0  0
   37.8025   -6.7647  -11.6954 N   0  0  0  0  0  0  0  0  0  0  0  0
   38.3440   -4.8137  -10.4128 C   0  0  0  0  0  0  0  0  0  0  0  0
   39.4611   -4.5420  -10.8798 O   0  0  0  0  0  0  0  0  0  0  0  0
   37.5992   -3.6788   -9.9292 N   0  0  0  0  0  0  0  0  0  0  0  0
   38.1203   -2.3375   -9.8892 C   0  0  1  0  0  0  0  0  0  0  0  0
   36.9801   -1.4160  -10.3421 C   0  0  0  0  0  0  0  0  0  0  0  0
   36.9167   -1.2597  -12.1344 S   0  0  0  0  0  0  0  0  0  0  0  0
   38.5338   -1.9059   -8.5616 C   0  0  0  0  0  0  0  0  0  0  0  0
   39.1069   -0.6647   -8.3732 O   0  0  0  0  0  0  0  0  0  0  0  0
   38.3776   -2.6499   -7.5710 O   0  0  0  0  0  0  0  0  0  0  0  0
  2  1  1  0
  2  3  1  0
  3  4  2  0
  5  6  1  0
  7  6  1  0
  7  8  1  0
  9  8  1  1
  9 11  1  0
 10  3  1  0
 10  9  1  0
 11 12  2  0
 13 14  1  0
 13 11  1  0
 14 17  1  0
 14 15  1  1
 16 15  1  0
 17 19  2  0
 17 18  1  0
M  END
$$$$
