GMC.pdb
     RDKit          3D

 19 18  0  0  1  0  0  0  0  0999 V2000
   28.7696  -21.7936  -15.8039 N   0  0  0  0  0  0  0  0  0  0  0  0
   28.2288  -20.7295  -14.9847 C   0  0  0  0  0  0  0  0  0  0  0  0
   27.0009  -21.1830  -14.2564 C   0  0  0  0  0  0  0  0  0  0  0  0
   26.2095  -22.0284  -14.7919 O   0  0  0  0  0  0  0  0  0  0  0  0
   25.1565  -20.7509   -7.7268 C   0  0  0  0  0  0  0  0  0  0  0  0
   26.8489  -20.6653   -8.3754 S   0  0  0  0  0  0  0  0  0  0  0  0
   26.8629  -21.1793  -10.1344 C   0  0  0  0  0  0  0  0  0  0  0  0
   25.6740  -20.5980  -10.8033 C   0  0  0  0  0  0  0  0  0  0  0  0
   25.5709  -21.0100  -12.2274 C   0  0  2  0  0  0  0  0  0  0  0  0
   26.7732  -20.6327  -12.9688 N   0  0  0  0  0  0  0  0  0  0  0  0
   24.3775  -20.5620  -12.9549 C   0  0  0  0  0  0  0  0  0  0  0  0
   24.2506  -19.4091  -13.3959 O   0  0  0  0  0  0  0  0  0  0  0  0
   23.2591  -21.4336  -13.2121 N   0  0  0  0  0  0  0  0  0  0  0  0
   22.0745  -21.0275  -13.9221 C   0  0  1  0  0  0  0  0  0  0  0  0
   21.7105  -22.1884  -14.8570 C   0  0  0  0  0  0  0  0  0  0  0  0
   20.1303  -21.9186  -15.6762 S   0  0  0  0  0  0  0  0  0  0  0  0
   20.9274  -20.7803  -13.0602 C   0  0  0  0  0  0  0  0  0  0  0  0
   20.7469  -21.5118  -11.9039 O   0  0  0  0  0  0  0  0  0  0  0  0
   20.0875  -19.9035  -13.3512 O   0  0  0  0  0  0  0  0  0  0  0  0
  2  1  1  0
  2  3  1  0
  3  4  2  0
  5  6  1  0
  7  6  1  0
  7  8  1  0
  9  8  1  1
  9 11  1  0
 10  3  1  0
 10  9  1  0
 11 12  2  0
 13 14  1  0
 13 11  1  0
 14 17  1  0
 14 15  1  6
 16 15  1  0
 17 19  2  0
 17 18  1  0
M  END
$$$$
