GMC.pdb
     RDKit          3D

 19 18  0  0  1  0  0  0  0  0999 V2000
   21.0607  -12.5939  -16.1618 N   0  0  0  0  0  0  0  0  0  0  0  0
   19.7669  -11.9641  -16.0027 C   0  0  0  0  0  0  0  0  0  0  0  0
   19.8089  -10.5321  -16.4401 C   0  0  0  0  0  0  0  0  0  0  0  0
   20.8852  -10.0330  -16.9096 O   0  0  0  0  0  0  0  0  0  0  0  0
   14.4589   -6.5526  -16.4514 C   0  0  0  0  0  0  0  0  0  0  0  0
   15.5412   -5.9626  -17.7829 S   0  0  0  0  0  0  0  0  0  0  0  0
   17.2699   -6.4667  -17.4427 C   0  0  0  0  0  0  0  0  0  0  0  0
   17.2652   -7.8723  -16.9703 C   0  0  0  0  0  0  0  0  0  0  0  0
   18.6251   -8.3498  -16.6083 C   0  0  2  0  0  0  0  0  0  0  0  0
   18.6133   -9.7802  -16.3060 N   0  0  0  0  0  0  0  0  0  0  0  0
   19.3121   -7.6209  -15.5354 C   0  0  0  0  0  0  0  0  0  0  0  0
   19.1234   -7.8577  -14.3321 O   0  0  0  0  0  0  0  0  0  0  0  0
   20.2620   -6.5707  -15.8027 N   0  0  0  0  0  0  0  0  0  0  0  0
   20.9211   -5.8071  -14.7757 C   0  0  1  0  0  0  0  0  0  0  0  0
   22.4240   -5.8860  -15.0743 C   0  0  0  0  0  0  0  0  0  0  0  0
   23.3790   -4.8058  -13.9963 S   0  0  0  0  0  0  0  0  0  0  0  0
   20.5492   -4.3996  -14.7584 C   0  0  0  0  0  0  0  0  0  0  0  0
   20.4889   -3.7035  -13.5681 O   0  0  0  0  0  0  0  0  0  0  0  0
   20.2784   -3.7977  -15.8183 O   0  0  0  0  0  0  0  0  0  0  0  0
  2  1  1  0
  2  3  1  0
  3  4  2  0
  5  6  1  0
  7  6  1  0
  7  8  1  0
  9  8  1  1
  9 11  1  0
 10  3  1  0
 10  9  1  0
 11 12  2  0
 13 14  1  0
 13 11  1  0
 14 17  1  0
 14 15  1  6
 16 15  1  0
 17 19  2  0
 17 18  1  0
M  END
$$$$
