GMC.pdb
     RDKit          3D

 19 18  0  0  1  0  0  0  0  0999 V2000
   28.4465  -19.0985  -17.5780 N   0  0  0  0  0  0  0  0  0  0  0  0
   28.6507  -18.6650  -16.2119 C   0  0  0  0  0  0  0  0  0  0  0  0
   28.3061  -19.7558  -15.2448 C   0  0  0  0  0  0  0  0  0  0  0  0
   27.3924  -20.6009  -15.5254 O   0  0  0  0  0  0  0  0  0  0  0  0
   32.2169  -21.7008  -10.5438 C   0  0  0  0  0  0  0  0  0  0  0  0
   30.6477  -21.9064   -9.6563 S   0  0  0  0  0  0  0  0  0  0  0  0
   29.2492  -21.7504  -10.8302 C   0  0  0  0  0  0  0  0  0  0  0  0
   29.6879  -20.9173  -11.9758 C   0  0  0  0  0  0  0  0  0  0  0  0
   28.5934  -20.6811  -12.9527 C   0  0  2  0  0  0  0  0  0  0  0  0
   29.0355  -19.7953  -14.0285 N   0  0  0  0  0  0  0  0  0  0  0  0
   27.3187  -20.2010  -12.4060 C   0  0  0  0  0  0  0  0  0  0  0  0
   27.1165  -19.0124  -12.1127 O   0  0  0  0  0  0  0  0  0  0  0  0
   26.2018  -21.0802  -12.1688 N   0  0  0  0  0  0  0  0  0  0  0  0
   24.9716  -20.6622  -11.5490 C   0  0  1  0  0  0  0  0  0  0  0  0
   23.8371  -21.2513  -12.3974 C   0  0  0  0  0  0  0  0  0  0  0  0
   22.2270  -20.9950  -11.6340 S   0  0  0  0  0  0  0  0  0  0  0  0
   24.8025  -21.1508  -10.1879 C   0  0  0  0  0  0  0  0  0  0  0  0
   24.1292  -20.3958   -9.2491 O   0  0  0  0  0  0  0  0  0  0  0  0
   25.2629  -22.2599   -9.8460 O   0  0  0  0  0  0  0  0  0  0  0  0
  2  1  1  0
  2  3  1  0
  3  4  2  0
  5  6  1  0
  7  6  1  0
  7  8  1  0
  9  8  1  1
  9 11  1  0
 10  3  1  0
 10  9  1  0
 11 12  2  0
 13 14  1  0
 13 11  1  0
 14 17  1  0
 14 15  1  6
 16 15  1  0
 17 19  2  0
 17 18  1  0
M  END
$$$$
