GMC.pdb
     RDKit          3D

 19 18  0  0  1  0  0  0  0  0999 V2000
   28.3404  -22.0191  -15.8769 N   0  0  0  0  0  0  0  0  0  0  0  0
   28.1992  -21.0247  -14.8343 C   0  0  0  0  0  0  0  0  0  0  0  0
   27.0850  -21.3814  -13.8988 C   0  0  0  0  0  0  0  0  0  0  0  0
   26.1611  -22.1785  -14.2713 O   0  0  0  0  0  0  0  0  0  0  0  0
   27.1438  -19.3305   -7.7023 C   0  0  0  0  0  0  0  0  0  0  0  0
   25.9343  -20.6811   -7.6280 S   0  0  0  0  0  0  0  0  0  0  0  0
   25.3270  -21.0598   -9.3151 C   0  0  0  0  0  0  0  0  0  0  0  0
   26.4069  -20.7515  -10.2835 C   0  0  0  0  0  0  0  0  0  0  0  0
   26.0023  -21.0294  -11.6861 C   0  0  2  0  0  0  0  0  0  0  0  0
   27.1143  -20.7969  -12.6064 N   0  0  0  0  0  0  0  0  0  0  0  0
   24.8024  -20.3377  -12.1718 C   0  0  0  0  0  0  0  0  0  0  0  0
   24.8471  -19.2542  -12.7748 O   0  0  0  0  0  0  0  0  0  0  0  0
   23.4765  -20.8697  -11.9830 N   0  0  0  0  0  0  0  0  0  0  0  0
   22.3262  -20.4372  -12.7328 C   0  0  1  0  0  0  0  0  0  0  0  0
   22.5714  -20.8628  -14.1863 C   0  0  0  0  0  0  0  0  0  0  0  0
   21.1304  -20.5655  -15.2237 S   0  0  0  0  0  0  0  0  0  0  0  0
   21.0777  -21.0484  -12.3000 C   0  0  0  0  0  0  0  0  0  0  0  0
   19.9117  -20.3110  -12.2592 O   0  0  0  0  0  0  0  0  0  0  0  0
   21.0392  -22.2487  -11.9584 O   0  0  0  0  0  0  0  0  0  0  0  0
  2  1  1  0
  2  3  1  0
  3  4  2  0
  5  6  1  0
  7  6  1  0
  7  8  1  0
  9  8  1  1
  9 11  1  0
 10  3  1  0
 10  9  1  0
 11 12  2  0
 13 14  1  0
 13 11  1  0
 14 17  1  0
 14 15  1  6
 16 15  1  0
 17 19  2  0
 17 18  1  0
M  END
$$$$
