GMC.pdb
     RDKit          3D

 19 18  0  0  1  0  0  0  0  0999 V2000
   30.8884  -22.3134  -11.1480 N   0  0  0  0  0  0  0  0  0  0  0  0
   30.4038  -21.1060  -10.5131 C   0  0  0  0  0  0  0  0  0  0  0  0
   28.9957  -21.2796  -10.0324 C   0  0  0  0  0  0  0  0  0  0  0  0
   28.2457  -22.1754  -10.5451 O   0  0  0  0  0  0  0  0  0  0  0  0
   28.5319  -18.2258   -4.6384 C   0  0  0  0  0  0  0  0  0  0  0  0
   27.6726  -19.8219   -4.5562 S   0  0  0  0  0  0  0  0  0  0  0  0
   27.8103  -20.6812   -6.1690 C   0  0  0  0  0  0  0  0  0  0  0  0
   27.0291  -19.9213   -7.1746 C   0  0  0  0  0  0  0  0  0  0  0  0
   27.1676  -20.4878   -8.5414 C   0  0  2  0  0  0  0  0  0  0  0  0
   28.5538  -20.4127   -9.0000 N   0  0  0  0  0  0  0  0  0  0  0  0
   26.2736  -19.9438   -9.5704 C   0  0  0  0  0  0  0  0  0  0  0  0
   26.6134  -19.0383  -10.3478 O   0  0  0  0  0  0  0  0  0  0  0  0
   24.9277  -20.4248   -9.7548 N   0  0  0  0  0  0  0  0  0  0  0  0
   24.2132  -20.3457  -11.0019 C   0  0  1  0  0  0  0  0  0  0  0  0
   24.9622  -21.2511  -11.9885 C   0  0  0  0  0  0  0  0  0  0  0  0
   24.1028  -21.3794  -13.5652 S   0  0  0  0  0  0  0  0  0  0  0  0
   22.8393  -20.8212  -10.9243 C   0  0  0  0  0  0  0  0  0  0  0  0
   21.8631  -20.2845  -11.7391 O   0  0  0  0  0  0  0  0  0  0  0  0
   22.5198  -21.7217  -10.1206 O   0  0  0  0  0  0  0  0  0  0  0  0
  2  1  1  0
  2  3  1  0
  3  4  2  0
  5  6  1  0
  7  6  1  0
  7  8  1  0
  9  8  1  1
  9 11  1  0
 10  3  1  0
 10  9  1  0
 11 12  2  0
 13 14  1  0
 13 11  1  0
 14 17  1  0
 14 15  1  6
 16 15  1  0
 17 19  2  0
 17 18  1  0
M  END
$$$$
