GMC.pdb
     RDKit          3D

 19 18  0  0  1  0  0  0  0  0999 V2000
   21.0314  -21.7222   -7.5369 N   0  0  0  0  0  0  0  0  0  0  0  0
   22.4309  -22.0704   -7.4102 C   0  0  0  0  0  0  0  0  0  0  0  0
   23.2877  -21.1615   -8.2371 C   0  0  0  0  0  0  0  0  0  0  0  0
   22.7556  -20.3621   -9.0770 O   0  0  0  0  0  0  0  0  0  0  0  0
   29.7786  -19.8671   -7.5161 C   0  0  0  0  0  0  0  0  0  0  0  0
   28.5137  -19.1870   -6.4070 S   0  0  0  0  0  0  0  0  0  0  0  0
   26.8783  -19.2348   -7.2324 C   0  0  0  0  0  0  0  0  0  0  0  0
   26.9108  -20.2843   -8.2795 C   0  0  0  0  0  0  0  0  0  0  0  0
   25.5838  -20.4854   -8.9173 C   0  0  2  0  0  0  0  0  0  0  0  0
   24.6903  -21.2381   -8.0384 N   0  0  0  0  0  0  0  0  0  0  0  0
   25.5842  -21.0850  -10.2570 C   0  0  0  0  0  0  0  0  0  0  0  0
   25.8495  -22.2800  -10.4600 O   0  0  0  0  0  0  0  0  0  0  0  0
   25.2743  -20.3253  -11.4416 N   0  0  0  0  0  0  0  0  0  0  0  0
   25.3191  -20.8672  -12.7745 C   0  0  1  0  0  0  0  0  0  0  0  0
   24.5530  -19.8830  -13.6682 C   0  0  0  0  0  0  0  0  0  0  0  0
   23.8994  -20.6850  -15.1415 S   0  0  0  0  0  0  0  0  0  0  0  0
   26.6657  -20.9943  -13.3134 C   0  0  0  0  0  0  0  0  0  0  0  0
   26.9607  -21.9698  -14.2440 O   0  0  0  0  0  0  0  0  0  0  0  0
   27.5765  -20.2243  -12.9439 O   0  0  0  0  0  0  0  0  0  0  0  0
  2  1  1  0
  2  3  1  0
  3  4  2  0
  5  6  1  0
  7  6  1  0
  7  8  1  0
  9  8  1  1
  9 11  1  0
 10  3  1  0
 10  9  1  0
 11 12  2  0
 13 14  1  0
 13 11  1  0
 14 17  1  0
 14 15  1  6
 16 15  1  0
 17 19  2  0
 17 18  1  0
M  END
$$$$
