GMC.pdb
     RDKit          3D

 19 18  0  0  1  0  0  0  0  0999 V2000
   28.8471  -22.0858  -15.0110 N   0  0  0  0  0  0  0  0  0  0  0  0
   28.1135  -20.8978  -14.6284 C   0  0  0  0  0  0  0  0  0  0  0  0
   26.9876  -21.2371  -13.7004 C   0  0  0  0  0  0  0  0  0  0  0  0
   26.3060  -22.3012  -13.8763 O   0  0  0  0  0  0  0  0  0  0  0  0
   28.0341  -20.8435   -7.0220 C   0  0  0  0  0  0  0  0  0  0  0  0
   26.5319  -20.5043   -7.9816 S   0  0  0  0  0  0  0  0  0  0  0  0
   26.9684  -20.2523   -9.7435 C   0  0  0  0  0  0  0  0  0  0  0  0
   25.7481  -19.8335  -10.4747 C   0  0  0  0  0  0  0  0  0  0  0  0
   25.5840  -20.5607  -11.7602 C   0  0  2  0  0  0  0  0  0  0  0  0
   26.7283  -20.3304  -12.6405 N   0  0  0  0  0  0  0  0  0  0  0  0
   24.3360  -20.3209  -12.4946 C   0  0  0  0  0  0  0  0  0  0  0  0
   24.1071  -19.2667  -13.1077 O   0  0  0  0  0  0  0  0  0  0  0  0
   23.2790  -21.2983  -12.5581 N   0  0  0  0  0  0  0  0  0  0  0  0
   22.0394  -21.0923  -13.2603 C   0  0  1  0  0  0  0  0  0  0  0  0
   21.8318  -22.3288  -14.1447 C   0  0  0  0  0  0  0  0  0  0  0  0
   23.1616  -22.5272  -15.3419 S   0  0  0  0  0  0  0  0  0  0  0  0
   20.8803  -20.9764  -12.3869 C   0  0  0  0  0  0  0  0  0  0  0  0
   19.6229  -20.7602  -12.9132 O   0  0  0  0  0  0  0  0  0  0  0  0
   21.0027  -21.0704  -11.1479 O   0  0  0  0  0  0  0  0  0  0  0  0
  2  1  1  0
  2  3  1  0
  3  4  2  0
  5  6  1  0
  7  6  1  0
  7  8  1  0
  9  8  1  1
  9 11  1  0
 10  3  1  0
 10  9  1  0
 11 12  2  0
 13 14  1  0
 13 11  1  0
 14 17  1  0
 14 15  1  6
 16 15  1  0
 17 19  2  0
 17 18  1  0
M  END
$$$$
