GMC.pdb
     RDKit          3D

 19 18  0  0  1  0  0  0  0  0999 V2000
   15.2588  -12.7783  -11.8039 N   0  0  0  0  0  0  0  0  0  0  0  0
   15.7958  -12.0232  -10.6916 C   0  0  0  0  0  0  0  0  0  0  0  0
   15.9648  -10.5795  -11.0539 C   0  0  0  0  0  0  0  0  0  0  0  0
   15.6861  -10.1737  -12.2309 O   0  0  0  0  0  0  0  0  0  0  0  0
   13.7204   -5.7070   -7.7496 C   0  0  0  0  0  0  0  0  0  0  0  0
   15.4273   -5.1363   -7.9806 S   0  0  0  0  0  0  0  0  0  0  0  0
   16.1874   -6.0188   -9.3954 C   0  0  0  0  0  0  0  0  0  0  0  0
   16.0720   -7.4777   -9.1561 C   0  0  0  0  0  0  0  0  0  0  0  0
   16.5527   -8.2782  -10.3121 C   0  0  2  0  0  0  0  0  0  0  0  0
   16.4406   -9.7101  -10.0389 N   0  0  0  0  0  0  0  0  0  0  0  0
   17.8996   -7.9709  -10.8079 C   0  0  0  0  0  0  0  0  0  0  0  0
   18.9162   -8.0734  -10.1038 O   0  0  0  0  0  0  0  0  0  0  0  0
   18.1414   -7.5253  -12.1568 N   0  0  0  0  0  0  0  0  0  0  0  0
   19.4425   -7.1740  -12.6626 C   0  0  1  0  0  0  0  0  0  0  0  0
   19.5977   -7.9037  -14.0034 C   0  0  0  0  0  0  0  0  0  0  0  0
   19.5107   -9.6911  -13.8074 S   0  0  0  0  0  0  0  0  0  0  0  0
   19.6113   -5.7499  -12.9146 C   0  0  0  0  0  0  0  0  0  0  0  0
   20.8667   -5.2186  -13.1300 O   0  0  0  0  0  0  0  0  0  0  0  0
   18.6249   -4.9849  -12.9402 O   0  0  0  0  0  0  0  0  0  0  0  0
  2  1  1  0
  2  3  1  0
  3  4  2  0
  5  6  1  0
  7  6  1  0
  7  8  1  0
  9  8  1  1
  9 11  1  0
 10  3  1  0
 10  9  1  0
 11 12  2  0
 13 14  1  0
 13 11  1  0
 14 17  1  0
 14 15  1  6
 16 15  1  0
 17 19  2  0
 17 18  1  0
M  END
$$$$
