GMC.pdb
     RDKit          3D

 19 18  0  0  1  0  0  0  0  0999 V2000
   22.4098  -14.7593  -20.0853 N   0  0  0  0  0  0  0  0  0  0  0  0
   22.9524  -13.4196  -20.0049 C   0  0  0  0  0  0  0  0  0  0  0  0
   22.8366  -12.8754  -18.6141 C   0  0  0  0  0  0  0  0  0  0  0  0
   21.7315  -12.9540  -17.9814 O   0  0  0  0  0  0  0  0  0  0  0  0
   27.9189  -12.4975  -14.8086 C   0  0  0  0  0  0  0  0  0  0  0  0
   26.7665  -13.8971  -14.7356 S   0  0  0  0  0  0  0  0  0  0  0  0
   25.3190  -13.5618  -15.8082 C   0  0  0  0  0  0  0  0  0  0  0  0
   25.1506  -12.0931  -15.9248 C   0  0  0  0  0  0  0  0  0  0  0  0
   23.9396  -11.7247  -16.7033 C   0  0  2  0  0  0  0  0  0  0  0  0
   23.9970  -12.2821  -18.0537 N   0  0  0  0  0  0  0  0  0  0  0  0
   23.6121  -10.2955  -16.7692 C   0  0  0  0  0  0  0  0  0  0  0  0
   24.1201   -9.5256  -17.5992 O   0  0  0  0  0  0  0  0  0  0  0  0
   22.6707   -9.6781  -15.8697 N   0  0  0  0  0  0  0  0  0  0  0  0
   22.2887   -8.2919  -15.9385 C   0  0  1  0  0  0  0  0  0  0  0  0
   21.0933   -8.2191  -16.8975 C   0  0  0  0  0  0  0  0  0  0  0  0
   21.6098   -8.3063  -18.6199 S   0  0  0  0  0  0  0  0  0  0  0  0
   21.8637   -7.7344  -14.6624 C   0  0  0  0  0  0  0  0  0  0  0  0
   21.5599   -6.3930  -14.5482 O   0  0  0  0  0  0  0  0  0  0  0  0
   21.7666   -8.4587  -13.6500 O   0  0  0  0  0  0  0  0  0  0  0  0
  2  1  1  0
  2  3  1  0
  3  4  2  0
  5  6  1  0
  7  6  1  0
  7  8  1  0
  9  8  1  6
  9 11  1  0
 10  3  1  0
 10  9  1  0
 11 12  2  0
 13 14  1  0
 13 11  1  0
 14 17  1  0
 14 15  1  6
 16 15  1  0
 17 19  2  0
 17 18  1  0
M  END
$$$$
