YIL.pdb
     RDKit          3D

 29 29  0  0  1  0  0  0  0  0999 V2000
    9.0116  -12.5719   17.5043 O   0  0  0  0  0  0  0  0  0  0  0  0
    8.4391  -13.0938   18.6649 C   0  0  0  0  0  0  0  0  0  0  0  0
    9.2741  -13.3659   19.7271 C   0  0  0  0  0  0  0  0  0  0  0  0
    8.7310  -13.8836   20.8891 C   0  0  0  0  0  0  0  0  0  0  0  0
    7.3871  -14.1365   21.0220 C   0  0  0  0  0  0  0  0  0  0  0  0
    6.8784  -14.7068   22.2751 C   0  0  0  0  0  0  0  0  0  0  0  0
    7.0691  -16.2041   22.3059 C   0  0  2  0  0  0  0  0  0  0  0  0
    6.3244  -16.8048   21.1940 N   0  0  0  0  0  0  0  0  0  0  0  0
    6.6280  -16.7994   23.6212 C   0  0  0  0  0  0  0  0  0  0  0  0
    5.4315  -17.0952   23.7143 O   0  0  0  0  0  0  0  0  0  0  0  0
    6.5666  -13.8601   19.9541 C   0  0  0  0  0  0  0  0  0  0  0  0
    7.0941  -13.3347   18.7652 C   0  0  0  0  0  0  0  0  0  0  0  0
    6.4137  -21.2758   26.8000 C   0  0  0  0  0  0  0  0  0  0  0  0
    6.8677  -19.8459   27.0230 C   0  0  0  0  0  0  0  0  0  0  0  0
    7.0247  -19.0843   25.7194 C   0  0  2  0  0  0  0  0  0  0  0  0
    7.9950  -19.8919   24.8702 C   0  0  0  0  0  0  0  0  0  0  0  0
    7.4214  -17.6688   25.8952 C   0  0  2  0  0  0  0  0  0  0  0  0
    7.5972  -16.9646   24.6137 N   0  0  0  0  0  0  0  0  0  0  0  0
    8.6014  -17.3884   26.7219 C   0  0  0  0  0  0  0  0  0  0  0  0
    8.6460  -17.8320   27.9471 O   0  0  0  0  0  0  0  0  0  0  0  0
   10.1547  -13.6660   26.8847 C   0  0  0  0  0  0  0  0  0  0  0  0
    9.4316  -14.4612   27.9837 C   0  0  2  0  0  0  0  0  0  0  0  0
    9.1078  -13.4554   29.0589 C   0  0  0  0  0  0  0  0  0  0  0  0
   10.3732  -15.5230   28.4175 C   0  0  0  0  0  0  0  0  0  0  0  0
   10.8527  -16.4434   27.3196 C   0  0  2  0  0  0  0  0  0  0  0  0
    9.7622  -16.6679   26.3464 N   0  0  0  0  0  0  0  0  0  0  0  0
   11.2968  -17.7547   27.7972 C   0  0  0  0  0  0  0  0  0  0  0  0
   12.3117  -17.8359   28.5216 O   0  0  0  0  0  0  0  0  0  0  0  0
   10.6175  -18.9005   27.4638 O   0  0  0  0  0  0  0  0  0  0  0  0
  2  1  1  0
  3  2  2  0
  4  3  1  0
  5 11  1  0
  5  4  2  0
  6  5  1  0
  7  9  1  0
  7  6  1  0
  7  8  1  6
  9 10  2  0
 11 12  2  0
 12  2  1  0
 13 14  1  0
 15 14  1  0
 15 16  1  6
 15 17  1  0
 17 18  1  6
 18  9  1  0
 19 20  2  0
 19 17  1  0
 22 21  1  6
 22 24  1  0
 23 22  1  0
 25 24  1  1
 25 26  1  0
 25 27  1  0
 26 19  1  0
 27 29  1  0
 28 27  2  0
M  END
$$$$
