YIL.pdb
     RDKit          3D

 29 29  0  0  1  0  0  0  0  0999 V2000
    5.5897  -24.2848   26.1023 O   0  0  0  0  0  0  0  0  0  0  0  0
    5.9755  -22.9743   25.8179 C   0  0  0  0  0  0  0  0  0  0  0  0
    7.3195  -22.6738   25.8725 C   0  0  0  0  0  0  0  0  0  0  0  0
    7.7276  -21.3817   25.5946 C   0  0  0  0  0  0  0  0  0  0  0  0
    6.8397  -20.3863   25.2656 C   0  0  0  0  0  0  0  0  0  0  0  0
    7.3371  -19.0305   25.0032 C   0  0  0  0  0  0  0  0  0  0  0  0
    6.7273  -18.4638   23.7437 C   0  0  2  0  0  0  0  0  0  0  0  0
    7.0146  -19.3669   22.6241 N   0  0  0  0  0  0  0  0  0  0  0  0
    7.2388  -17.0746   23.4480 C   0  0  0  0  0  0  0  0  0  0  0  0
    7.9704  -16.9598   22.4583 O   0  0  0  0  0  0  0  0  0  0  0  0
    5.5025  -20.7008   25.2151 C   0  0  0  0  0  0  0  0  0  0  0  0
    5.0642  -22.0042   25.4929 C   0  0  0  0  0  0  0  0  0  0  0  0
    6.3485  -11.3625   25.9090 C   0  0  0  0  0  0  0  0  0  0  0  0
    7.0862  -12.2873   24.9597 C   0  0  0  0  0  0  0  0  0  0  0  0
    6.5618  -13.7104   25.0227 C   0  0  2  0  0  0  0  0  0  0  0  0
    6.2549  -13.9853   26.4873 C   0  0  0  0  0  0  0  0  0  0  0  0
    7.4621  -14.7098   24.4041 C   0  0  2  0  0  0  0  0  0  0  0  0
    6.8481  -16.0450   24.3076 N   0  0  0  0  0  0  0  0  0  0  0  0
    8.7991  -14.8766   24.9864 C   0  0  0  0  0  0  0  0  0  0  0  0
    9.7230  -13.9916   24.7352 O   0  0  0  0  0  0  0  0  0  0  0  0
   10.1471  -13.6893   28.4813 C   0  0  0  0  0  0  0  0  0  0  0  0
    9.5287  -15.0919   28.5960 C   0  0  2  0  0  0  0  0  0  0  0  0
    9.3583  -15.3351   30.0739 C   0  0  0  0  0  0  0  0  0  0  0  0
   10.4806  -16.0218   27.9393 C   0  0  0  0  0  0  0  0  0  0  0  0
   10.5911  -15.8741   26.4399 C   0  0  2  0  0  0  0  0  0  0  0  0
    9.2430  -15.9215   25.8342 N   0  0  0  0  0  0  0  0  0  0  0  0
   11.4007  -16.9133   25.7999 C   0  0  0  0  0  0  0  0  0  0  0  0
   12.6010  -17.0453   26.1214 O   0  0  0  0  0  0  0  0  0  0  0  0
   10.8650  -17.7485   24.8508 O   0  0  0  0  0  0  0  0  0  0  0  0
  2  1  1  0
  3  2  2  0
  4  3  1  0
  5 11  1  0
  5  4  2  0
  6  5  1  0
  7  9  1  0
  7  6  1  0
  7  8  1  6
  9 10  2  0
 11 12  2  0
 12  2  1  0
 13 14  1  0
 15 14  1  0
 15 16  1  1
 15 17  1  0
 17 18  1  1
 18  9  1  0
 19 20  2  0
 19 17  1  0
 22 21  1  1
 22 24  1  0
 23 22  1  0
 25 24  1  1
 25 26  1  0
 25 27  1  0
 26 19  1  0
 27 29  1  0
 28 27  2  0
M  END
$$$$
