YIL.pdb
     RDKit          3D

 29 29  0  0  1  0  0  0  0  0999 V2000
   12.7815  -23.6728   18.7737 O   0  0  0  0  0  0  0  0  0  0  0  0
   12.6649  -22.5213   19.5531 C   0  0  0  0  0  0  0  0  0  0  0  0
   11.4023  -22.0065   19.7541 C   0  0  0  0  0  0  0  0  0  0  0  0
   11.2599  -20.8657   20.5233 C   0  0  0  0  0  0  0  0  0  0  0  0
   12.3337  -20.2270   21.0946 C   0  0  0  0  0  0  0  0  0  0  0  0
   12.1155  -19.0076   21.8820 C   0  0  0  0  0  0  0  0  0  0  0  0
   11.7743  -17.8393   20.9886 C   0  0  2  0  0  0  0  0  0  0  0  0
   12.9583  -17.4756   20.2027 N   0  0  0  0  0  0  0  0  0  0  0  0
   11.2793  -16.6530   21.7801 C   0  0  0  0  0  0  0  0  0  0  0  0
   12.1459  -15.8952   22.2302 O   0  0  0  0  0  0  0  0  0  0  0  0
   13.5869  -20.7519   20.8854 C   0  0  0  0  0  0  0  0  0  0  0  0
   13.7566  -21.9079   20.1090 C   0  0  0  0  0  0  0  0  0  0  0  0
    7.2184  -13.7593   19.8555 C   0  0  0  0  0  0  0  0  0  0  0  0
    8.4360  -14.2104   20.6394 C   0  0  0  0  0  0  0  0  0  0  0  0
    8.0593  -14.8798   21.9485 C   0  0  2  0  0  0  0  0  0  0  0  0
    7.2702  -13.8483   22.7412 C   0  0  0  0  0  0  0  0  0  0  0  0
    9.2113  -15.4456   22.6867 C   0  0  2  0  0  0  0  0  0  0  0  0
    9.8984  -16.5111   21.9373 N   0  0  0  0  0  0  0  0  0  0  0  0
    8.9727  -15.9421   24.0472 C   0  0  0  0  0  0  0  0  0  0  0  0
    8.7548  -17.2135   24.2368 O   0  0  0  0  0  0  0  0  0  0  0  0
   10.9097  -14.3931   28.4156 C   0  0  0  0  0  0  0  0  0  0  0  0
    9.7388  -13.7994   27.6160 C   0  0  2  0  0  0  0  0  0  0  0  0
    9.3859  -12.5128   28.3178 C   0  0  0  0  0  0  0  0  0  0  0  0
    8.6577  -14.8156   27.6438 C   0  0  0  0  0  0  0  0  0  0  0  0
    8.7231  -15.8524   26.5469 C   0  0  2  0  0  0  0  0  0  0  0  0
    8.9520  -15.1873   25.2462 N   0  0  0  0  0  0  0  0  0  0  0  0
    7.5086  -16.6614   26.4228 C   0  0  0  0  0  0  0  0  0  0  0  0
    6.5845  -16.2759   25.6753 O   0  0  0  0  0  0  0  0  0  0  0  0
    7.3651  -17.8394   27.1136 O   0  0  0  0  0  0  0  0  0  0  0  0
  2  1  1  0
  3  2  2  0
  4  3  1  0
  5 11  1  0
  5  4  2  0
  6  5  1  0
  7  9  1  0
  7  6  1  0
  7  8  1  1
  9 10  2  0
 11 12  2  0
 12  2  1  0
 13 14  1  0
 15 14  1  0
 15 16  1  1
 15 17  1  0
 17 18  1  6
 18  9  1  0
 19 20  2  0
 19 17  1  0
 22 21  1  1
 22 24  1  0
 23 22  1  0
 25 24  1  1
 25 26  1  0
 25 27  1  0
 26 19  1  0
 27 29  1  0
 28 27  2  0
M  END
$$$$
