YIL.pdb
     RDKit          3D

 29 29  0  0  1  0  0  0  0  0999 V2000
    9.6831  -19.8759   29.0943 O   0  0  0  0  0  0  0  0  0  0  0  0
    8.6681  -19.4990   28.2140 C   0  0  0  0  0  0  0  0  0  0  0  0
    8.9284  -18.4689   27.3362 C   0  0  0  0  0  0  0  0  0  0  0  0
    7.9386  -18.0765   26.4532 C   0  0  0  0  0  0  0  0  0  0  0  0
    6.7039  -18.6780   26.4202 C   0  0  0  0  0  0  0  0  0  0  0  0
    5.6905  -18.1989   25.4728 C   0  0  0  0  0  0  0  0  0  0  0  0
    6.0236  -18.6224   24.0624 C   0  0  2  0  0  0  0  0  0  0  0  0
    6.3602  -20.0501   24.0580 N   0  0  0  0  0  0  0  0  0  0  0  0
    7.1569  -17.8095   23.4849 C   0  0  0  0  0  0  0  0  0  0  0  0
    8.1944  -18.4273   23.2206 O   0  0  0  0  0  0  0  0  0  0  0  0
    6.4587  -19.7040   27.3017 C   0  0  0  0  0  0  0  0  0  0  0  0
    7.4467  -20.1198   28.2067 C   0  0  0  0  0  0  0  0  0  0  0  0
    5.8225  -13.6214   20.1634 C   0  0  0  0  0  0  0  0  0  0  0  0
    6.5337  -14.7812   20.8340 C   0  0  0  0  0  0  0  0  0  0  0  0
    7.3046  -14.3454   22.0668 C   0  0  2  0  0  0  0  0  0  0  0  0
    8.2967  -13.2920   21.5967 C   0  0  0  0  0  0  0  0  0  0  0  0
    7.9289  -15.4631   22.8106 C   0  0  2  0  0  0  0  0  0  0  0  0
    6.9426  -16.4416   23.2992 N   0  0  0  0  0  0  0  0  0  0  0  0
    8.8140  -15.1263   23.9320 C   0  0  0  0  0  0  0  0  0  0  0  0
    8.5650  -14.0666   24.6496 O   0  0  0  0  0  0  0  0  0  0  0  0
    9.2942  -15.1919   29.1176 C   0  0  0  0  0  0  0  0  0  0  0  0
   10.3793  -14.9921   28.0473 C   0  0  2  0  0  0  0  0  0  0  0  0
   10.8043  -13.5511   28.1718 C   0  0  0  0  0  0  0  0  0  0  0  0
    9.7468  -15.3221   26.7461 C   0  0  0  0  0  0  0  0  0  0  0  0
   10.6963  -15.4075   25.5741 C   0  0  2  0  0  0  0  0  0  0  0  0
    9.9594  -15.8382   24.3666 N   0  0  0  0  0  0  0  0  0  0  0  0
   11.8033  -16.3451   25.7752 C   0  0  0  0  0  0  0  0  0  0  0  0
   12.9158  -15.9151   26.1476 O   0  0  0  0  0  0  0  0  0  0  0  0
   11.6420  -17.6919   25.5622 O   0  0  0  0  0  0  0  0  0  0  0  0
  2  1  1  0
  3  2  2  0
  4  3  1  0
  5 11  1  0
  5  4  2  0
  6  5  1  0
  7  9  1  0
  7  6  1  0
  7  8  1  1
  9 10  2  0
 11 12  2  0
 12  2  1  0
 13 14  1  0
 15 14  1  0
 15 16  1  6
 15 17  1  0
 17 18  1  1
 18  9  1  0
 19 20  2  0
 19 17  1  0
 22 21  1  1
 22 24  1  0
 23 22  1  0
 25 24  1  1
 25 26  1  0
 25 27  1  0
 26 19  1  0
 27 29  1  0
 28 27  2  0
M  END
$$$$
