YIL.pdb
     RDKit          3D

 29 29  0  0  1  0  0  0  0  0999 V2000
    6.8783  -21.3250   28.2836 O   0  0  0  0  0  0  0  0  0  0  0  0
    6.5411  -20.6109   27.1332 C   0  0  0  0  0  0  0  0  0  0  0  0
    6.7570  -19.2497   27.1354 C   0  0  0  0  0  0  0  0  0  0  0  0
    6.4311  -18.5191   26.0070 C   0  0  0  0  0  0  0  0  0  0  0  0
    5.8994  -19.1030   24.8828 C   0  0  0  0  0  0  0  0  0  0  0  0
    5.5556  -18.2668   23.7266 C   0  0  0  0  0  0  0  0  0  0  0  0
    6.3463  -18.6762   22.5073 C   0  0  2  0  0  0  0  0  0  0  0  0
    6.8892  -20.0225   22.7184 N   0  0  0  0  0  0  0  0  0  0  0  0
    7.4564  -17.6993   22.2038 C   0  0  0  0  0  0  0  0  0  0  0  0
    8.5491  -18.1900   21.8987 O   0  0  0  0  0  0  0  0  0  0  0  0
    5.6895  -20.4615   24.8953 C   0  0  0  0  0  0  0  0  0  0  0  0
    6.0120  -21.2238   26.0279 C   0  0  0  0  0  0  0  0  0  0  0  0
    6.5169  -13.1522   19.3142 C   0  0  0  0  0  0  0  0  0  0  0  0
    7.2156  -14.3276   19.9705 C   0  0  0  0  0  0  0  0  0  0  0  0
    7.5312  -14.0639   21.4316 C   0  0  2  0  0  0  0  0  0  0  0  0
    8.4119  -12.8235   21.4586 C   0  0  0  0  0  0  0  0  0  0  0  0
    8.1158  -15.2260   22.1387 C   0  0  2  0  0  0  0  0  0  0  0  0
    7.1610  -16.3368   22.2923 N   0  0  0  0  0  0  0  0  0  0  0  0
    8.7344  -14.9874   23.4482 C   0  0  0  0  0  0  0  0  0  0  0  0
    9.8808  -14.3697   23.5128 O   0  0  0  0  0  0  0  0  0  0  0  0
    7.7711  -11.8823   26.1784 C   0  0  0  0  0  0  0  0  0  0  0  0
    6.9398  -13.1753   26.1784 C   0  0  2  0  0  0  0  0  0  0  0  0
    5.6796  -12.8415   26.9353 C   0  0  0  0  0  0  0  0  0  0  0  0
    7.7784  -14.2097   26.8332 C   0  0  0  0  0  0  0  0  0  0  0  0
    8.8425  -14.8243   25.9543 C   0  0  2  0  0  0  0  0  0  0  0  0
    8.2242  -15.3517   24.7189 N   0  0  0  0  0  0  0  0  0  0  0  0
    9.5725  -15.9242   26.5883 C   0  0  0  0  0  0  0  0  0  0  0  0
    9.5704  -17.0542   26.0550 O   0  0  0  0  0  0  0  0  0  0  0  0
   10.2620  -15.7376   27.7610 O   0  0  0  0  0  0  0  0  0  0  0  0
  2  1  1  0
  3  2  2  0
  4  3  1  0
  5 11  1  0
  5  4  2  0
  6  5  1  0
  7  9  1  0
  7  6  1  0
  7  8  1  1
  9 10  2  0
 11 12  2  0
 12  2  1  0
 13 14  1  0
 15 14  1  0
 15 16  1  6
 15 17  1  0
 17 18  1  1
 18  9  1  0
 19 20  2  0
 19 17  1  0
 22 21  1  1
 22 24  1  0
 23 22  1  0
 25 24  1  1
 25 26  1  0
 25 27  1  0
 26 19  1  0
 27 29  1  0
 28 27  2  0
M  END
$$$$
