YIL.pdb
     RDKit          3D

 29 29  0  0  1  0  0  0  0  0999 V2000
    8.7923  -22.2492   17.3607 O   0  0  0  0  0  0  0  0  0  0  0  0
    9.2093  -21.3209   18.3153 C   0  0  0  0  0  0  0  0  0  0  0  0
    8.2573  -20.8031   19.1669 C   0  0  0  0  0  0  0  0  0  0  0  0
    8.6452  -19.8811   20.1223 C   0  0  0  0  0  0  0  0  0  0  0  0
    9.9473  -19.4628   20.2525 C   0  0  0  0  0  0  0  0  0  0  0  0
   10.2883  -18.4652   21.2737 C   0  0  0  0  0  0  0  0  0  0  0  0
    9.8053  -17.0921   20.8726 C   0  0  2  0  0  0  0  0  0  0  0  0
   10.5476  -16.6508   19.6869 N   0  0  0  0  0  0  0  0  0  0  0  0
    9.9575  -16.0935   21.9944 C   0  0  0  0  0  0  0  0  0  0  0  0
   10.9326  -15.3371   21.9254 O   0  0  0  0  0  0  0  0  0  0  0  0
   10.8858  -19.9878   19.3961 C   0  0  0  0  0  0  0  0  0  0  0  0
   10.5166  -20.9243   18.4190 C   0  0  0  0  0  0  0  0  0  0  0  0
    6.1785  -13.0547   25.7373 C   0  0  0  0  0  0  0  0  0  0  0  0
    7.5516  -13.6816   25.5880 C   0  0  0  0  0  0  0  0  0  0  0  0
    7.6019  -14.6879   24.4528 C   0  0  2  0  0  0  0  0  0  0  0  0
    6.5755  -15.7594   24.7895 C   0  0  0  0  0  0  0  0  0  0  0  0
    8.9562  -15.2227   24.1843 C   0  0  2  0  0  0  0  0  0  0  0  0
    8.9949  -16.1066   23.0069 N   0  0  0  0  0  0  0  0  0  0  0  0
    9.6473  -15.9122   25.2804 C   0  0  0  0  0  0  0  0  0  0  0  0
    9.8151  -17.2037   25.2209 O   0  0  0  0  0  0  0  0  0  0  0  0
    9.7716  -13.5149   28.5749 C   0  0  0  0  0  0  0  0  0  0  0  0
   10.2654  -14.7406   29.3602 C   0  0  2  0  0  0  0  0  0  0  0  0
   10.6629  -14.2146   30.7158 C   0  0  0  0  0  0  0  0  0  0  0  0
   11.3937  -15.3077   28.5807 C   0  0  0  0  0  0  0  0  0  0  0  0
   10.9935  -16.1473   27.3902 C   0  0  2  0  0  0  0  0  0  0  0  0
   10.1905  -15.3322   26.4535 N   0  0  0  0  0  0  0  0  0  0  0  0
   10.2027  -17.3300   27.7379 C   0  0  0  0  0  0  0  0  0  0  0  0
   10.7326  -18.2573   28.3865 O   0  0  0  0  0  0  0  0  0  0  0  0
    8.8861  -17.4401   27.3642 O   0  0  0  0  0  0  0  0  0  0  0  0
  2  1  1  0
  3  2  2  0
  4  3  1  0
  5 11  1  0
  5  4  2  0
  6  5  1  0
  7  9  1  0
  7  6  1  0
  7  8  1  6
  9 10  2  0
 11 12  2  0
 12  2  1  0
 13 14  1  0
 15 14  1  0
 15 16  1  1
 15 17  1  0
 17 18  1  6
 18  9  1  0
 19 20  2  0
 19 17  1  0
 22 21  1  6
 22 24  1  0
 23 22  1  0
 25 24  1  1
 25 26  1  0
 25 27  1  0
 26 19  1  0
 27 29  1  0
 28 27  2  0
M  END
$$$$
