YIL.pdb
     RDKit          3D

 29 29  0  0  1  0  0  0  0  0999 V2000
    7.1960  -22.9283   28.6689 O   0  0  0  0  0  0  0  0  0  0  0  0
    7.1954  -21.9059   27.7193 C   0  0  0  0  0  0  0  0  0  0  0  0
    8.2944  -21.0756   27.6681 C   0  0  0  0  0  0  0  0  0  0  0  0
    8.3182  -20.0545   26.7354 C   0  0  0  0  0  0  0  0  0  0  0  0
    7.2840  -19.8383   25.8572 C   0  0  0  0  0  0  0  0  0  0  0  0
    7.3631  -18.7230   24.9064 C   0  0  0  0  0  0  0  0  0  0  0  0
    7.5727  -19.2252   23.4981 C   0  0  2  0  0  0  0  0  0  0  0  0
    8.3758  -20.4519   23.5415 N   0  0  0  0  0  0  0  0  0  0  0  0
    8.2370  -18.1881   22.6251 C   0  0  0  0  0  0  0  0  0  0  0  0
    9.3363  -18.4950   22.1505 O   0  0  0  0  0  0  0  0  0  0  0  0
    6.1945  -20.6743   25.9200 C   0  0  0  0  0  0  0  0  0  0  0  0
    6.1473  -21.7170   26.8573 C   0  0  0  0  0  0  0  0  0  0  0  0
    7.7032  -12.6477   19.9930 C   0  0  0  0  0  0  0  0  0  0  0  0
    8.3403  -13.4925   21.0797 C   0  0  0  0  0  0  0  0  0  0  0  0
    7.5883  -14.7905   21.3117 C   0  0  2  0  0  0  0  0  0  0  0  0
    6.1390  -14.4021   21.5645 C   0  0  0  0  0  0  0  0  0  0  0  0
    8.1719  -15.6408   22.3740 C   0  0  2  0  0  0  0  0  0  0  0  0
    7.5627  -16.9805   22.4282 N   0  0  0  0  0  0  0  0  0  0  0  0
    8.1931  -15.1066   23.7410 C   0  0  0  0  0  0  0  0  0  0  0  0
    7.1591  -15.2844   24.5150 O   0  0  0  0  0  0  0  0  0  0  0  0
    8.4222  -11.2544   26.0824 C   0  0  0  0  0  0  0  0  0  0  0  0
    7.4399  -12.3130   25.5559 C   0  0  2  0  0  0  0  0  0  0  0  0
    6.0710  -11.8222   25.9532 C   0  0  0  0  0  0  0  0  0  0  0  0
    7.8277  -13.5952   26.1944 C   0  0  0  0  0  0  0  0  0  0  0  0
    9.1973  -14.1108   25.8191 C   0  0  2  0  0  0  0  0  0  0  0  0
    9.2432  -14.3913   24.3680 N   0  0  0  0  0  0  0  0  0  0  0  0
    9.5811  -15.3383   26.5197 C   0  0  0  0  0  0  0  0  0  0  0  0
    9.7683  -16.3876   25.8677 O   0  0  0  0  0  0  0  0  0  0  0  0
    9.7403  -15.3587   27.8833 O   0  0  0  0  0  0  0  0  0  0  0  0
  2  1  1  0
  3  2  2  0
  4  3  1  0
  5 11  1  0
  5  4  2  0
  6  5  1  0
  7  9  1  0
  7  6  1  0
  7  8  1  1
  9 10  2  0
 11 12  2  0
 12  2  1  0
 13 14  1  0
 15 14  1  0
 15 16  1  1
 15 17  1  0
 17 18  1  1
 18  9  1  0
 19 20  2  0
 19 17  1  0
 22 21  1  1
 22 24  1  0
 23 22  1  0
 25 24  1  1
 25 26  1  0
 25 27  1  0
 26 19  1  0
 27 29  1  0
 28 27  2  0
M  END
$$$$
