YIL.pdb
     RDKit          3D

 29 29  0  0  1  0  0  0  0  0999 V2000
   15.3092  -20.3340   15.7006 O   0  0  0  0  0  0  0  0  0  0  0  0
   14.6474  -19.4359   16.5387 C   0  0  0  0  0  0  0  0  0  0  0  0
   13.5193  -18.8127   16.0502 C   0  0  0  0  0  0  0  0  0  0  0  0
   12.8451  -17.9181   16.8615 C   0  0  0  0  0  0  0  0  0  0  0  0
   13.2606  -17.6284   18.1386 C   0  0  0  0  0  0  0  0  0  0  0  0
   12.5117  -16.6527   18.9395 C   0  0  0  0  0  0  0  0  0  0  0  0
   12.1167  -17.2365   20.2746 C   0  0  2  0  0  0  0  0  0  0  0  0
   11.1756  -18.3401   20.0553 N   0  0  0  0  0  0  0  0  0  0  0  0
   11.5098  -16.1963   21.1849 C   0  0  0  0  0  0  0  0  0  0  0  0
   12.2522  -15.2699   21.5290 O   0  0  0  0  0  0  0  0  0  0  0  0
   14.3874  -18.2574   18.6123 C   0  0  0  0  0  0  0  0  0  0  0  0
   15.0881  -19.1687   17.8082 C   0  0  0  0  0  0  0  0  0  0  0  0
    6.2451  -14.8421   20.2935 C   0  0  0  0  0  0  0  0  0  0  0  0
    7.6987  -14.7370   20.7137 C   0  0  0  0  0  0  0  0  0  0  0  0
    7.9605  -15.4140   22.0468 C   0  0  2  0  0  0  0  0  0  0  0  0
    7.0837  -14.7001   23.0649 C   0  0  0  0  0  0  0  0  0  0  0  0
    9.3914  -15.4650   22.4235 C   0  0  2  0  0  0  0  0  0  0  0  0
   10.1746  -16.3648   21.5598 N   0  0  0  0  0  0  0  0  0  0  0  0
    9.7191  -15.7899   23.8168 C   0  0  0  0  0  0  0  0  0  0  0  0
    9.7586  -17.0379   24.1920 O   0  0  0  0  0  0  0  0  0  0  0  0
    9.0563  -13.6070   29.3830 C   0  0  0  0  0  0  0  0  0  0  0  0
    9.9395  -14.6312   28.6523 C   0  0  2  0  0  0  0  0  0  0  0  0
   11.2951  -14.5284   29.3037 C   0  0  0  0  0  0  0  0  0  0  0  0
    9.9297  -14.2431   27.2200 C   0  0  0  0  0  0  0  0  0  0  0  0
   10.1979  -15.3683   26.2483 C   0  0  2  0  0  0  0  0  0  0  0  0
   10.0199  -14.8828   24.8629 N   0  0  0  0  0  0  0  0  0  0  0  0
    9.3210  -16.5277   26.4271 C   0  0  0  0  0  0  0  0  0  0  0  0
    9.7913  -17.5922   26.8821 O   0  0  0  0  0  0  0  0  0  0  0  0
    7.9879  -16.4676   26.1040 O   0  0  0  0  0  0  0  0  0  0  0  0
  2  1  1  0
  3  2  2  0
  4  3  1  0
  5 11  1  0
  5  4  2  0
  6  5  1  0
  7  9  1  0
  7  6  1  0
  7  8  1  6
  9 10  2  0
 11 12  2  0
 12  2  1  0
 13 14  1  0
 15 14  1  0
 15 16  1  1
 15 17  1  0
 17 18  1  6
 18  9  1  0
 19 20  2  0
 19 17  1  0
 22 21  1  1
 22 24  1  0
 23 22  1  0
 25 24  1  1
 25 26  1  0
 25 27  1  0
 26 19  1  0
 27 29  1  0
 28 27  2  0
M  END
$$$$
