YIL.pdb
     RDKit          3D

 29 29  0  0  1  0  0  0  0  0999 V2000
   18.6152  -18.3457   18.8255 O   0  0  0  0  0  0  0  0  0  0  0  0
   17.5273  -17.7872   19.4976 C   0  0  0  0  0  0  0  0  0  0  0  0
   16.9296  -18.5371   20.4876 C   0  0  0  0  0  0  0  0  0  0  0  0
   15.8494  -18.0058   21.1689 C   0  0  0  0  0  0  0  0  0  0  0  0
   15.3506  -16.7557   20.8933 C   0  0  0  0  0  0  0  0  0  0  0  0
   14.1877  -16.2599   21.6391 C   0  0  0  0  0  0  0  0  0  0  0  0
   12.9080  -16.8624   21.1110 C   0  0  2  0  0  0  0  0  0  0  0  0
   12.6782  -16.3778   19.7457 N   0  0  0  0  0  0  0  0  0  0  0  0
   11.7278  -16.5368   21.9941 C   0  0  0  0  0  0  0  0  0  0  0  0
   11.1608  -15.4605   21.7751 O   0  0  0  0  0  0  0  0  0  0  0  0
   15.9568  -16.0194   19.9033 C   0  0  0  0  0  0  0  0  0  0  0  0
   17.0539  -16.5368   19.1984 C   0  0  0  0  0  0  0  0  0  0  0  0
    7.9002  -19.7155   21.5237 C   0  0  0  0  0  0  0  0  0  0  0  0
    8.7970  -18.5500   21.8951 C   0  0  0  0  0  0  0  0  0  0  0  0
    9.2276  -18.5989   23.3499 C   0  0  2  0  0  0  0  0  0  0  0  0
    7.9477  -18.6765   24.1690 C   0  0  0  0  0  0  0  0  0  0  0  0
   10.1244  -17.4902   23.7481 C   0  0  2  0  0  0  0  0  0  0  0  0
   11.3778  -17.4677   22.9752 N   0  0  0  0  0  0  0  0  0  0  0  0
   10.4758  -17.3733   25.1683 C   0  0  0  0  0  0  0  0  0  0  0  0
   11.5193  -18.0078   25.6250 O   0  0  0  0  0  0  0  0  0  0  0  0
   10.9637  -13.4918   28.0258 C   0  0  0  0  0  0  0  0  0  0  0  0
    9.6364  -14.1652   27.6416 C   0  0  2  0  0  0  0  0  0  0  0  0
    8.5579  -13.2265   28.1192 C   0  0  0  0  0  0  0  0  0  0  0  0
    9.6277  -15.4855   28.3191 C   0  0  0  0  0  0  0  0  0  0  0  0
   10.2969  -16.6036   27.5546 C   0  0  2  0  0  0  0  0  0  0  0  0
    9.8022  -16.6197   26.1612 N   0  0  0  0  0  0  0  0  0  0  0  0
   10.0631  -17.9330   28.1228 C   0  0  0  0  0  0  0  0  0  0  0  0
   10.6755  -18.2787   29.1557 O   0  0  0  0  0  0  0  0  0  0  0  0
    9.1808  -18.8099   27.5413 O   0  0  0  0  0  0  0  0  0  0  0  0
  2  1  1  0
  3  2  2  0
  4  3  1  0
  5 11  1  0
  5  4  2  0
  6  5  1  0
  7  9  1  0
  7  6  1  0
  7  8  1  6
  9 10  2  0
 11 12  2  0
 12  2  1  0
 13 14  1  0
 15 14  1  0
 15 16  1  1
 15 17  1  0
 17 18  1  6
 18  9  1  0
 19 20  2  0
 19 17  1  0
 22 21  1  1
 22 24  1  0
 23 22  1  0
 25 24  1  1
 25 26  1  0
 25 27  1  0
 26 19  1  0
 27 29  1  0
 28 27  2  0
M  END
$$$$
