YIL.pdb
     RDKit          3D

 29 29  0  0  1  0  0  0  0  0999 V2000
    8.2661  -13.1076   15.4687 O   0  0  0  0  0  0  0  0  0  0  0  0
    8.0811  -13.4784   16.8011 C   0  0  0  0  0  0  0  0  0  0  0  0
    9.0280  -14.2973   17.3777 C   0  0  0  0  0  0  0  0  0  0  0  0
    8.8677  -14.6790   18.6975 C   0  0  0  0  0  0  0  0  0  0  0  0
    7.7967  -14.2703   19.4548 C   0  0  0  0  0  0  0  0  0  0  0  0
    7.6751  -14.7295   20.8435 C   0  0  0  0  0  0  0  0  0  0  0  0
    7.9028  -16.2186   20.9441 C   0  0  2  0  0  0  0  0  0  0  0  0
    6.8483  -16.9156   20.1999 N   0  0  0  0  0  0  0  0  0  0  0  0
    7.9355  -16.6861   22.3791 C   0  0  0  0  0  0  0  0  0  0  0  0
    6.8581  -17.0554   22.8591 O   0  0  0  0  0  0  0  0  0  0  0  0
    6.8603  -13.4539   18.8663 C   0  0  0  0  0  0  0  0  0  0  0  0
    7.0012  -13.0533   17.5292 C   0  0  0  0  0  0  0  0  0  0  0  0
   11.5793  -20.0530   25.7680 C   0  0  0  0  0  0  0  0  0  0  0  0
   10.7177  -18.8052   25.8010 C   0  0  0  0  0  0  0  0  0  0  0  0
   10.3228  -18.3443   24.4097 C   0  0  2  0  0  0  0  0  0  0  0  0
   11.6223  -18.1447   23.6439 C   0  0  0  0  0  0  0  0  0  0  0  0
    9.4361  -17.1586   24.3993 C   0  0  2  0  0  0  0  0  0  0  0  0
    9.1667  -16.6626   23.0389 N   0  0  0  0  0  0  0  0  0  0  0  0
    9.8259  -16.0078   25.2228 C   0  0  0  0  0  0  0  0  0  0  0  0
   10.8687  -15.3017   24.8854 O   0  0  0  0  0  0  0  0  0  0  0  0
    7.7760  -13.1774   24.9234 C   0  0  0  0  0  0  0  0  0  0  0  0
    7.6267  -13.3695   26.4412 C   0  0  2  0  0  0  0  0  0  0  0  0
    6.6231  -12.3335   26.8794 C   0  0  0  0  0  0  0  0  0  0  0  0
    8.9796  -13.1787   27.0204 C   0  0  0  0  0  0  0  0  0  0  0  0
    9.7895  -14.4428   27.1895 C   0  0  2  0  0  0  0  0  0  0  0  0
    9.1845  -15.5320   26.3931 N   0  0  0  0  0  0  0  0  0  0  0  0
    9.8820  -14.9065   28.5756 C   0  0  0  0  0  0  0  0  0  0  0  0
   10.3446  -14.1446   29.4513 O   0  0  0  0  0  0  0  0  0  0  0  0
    9.4685  -16.1661   28.9332 O   0  0  0  0  0  0  0  0  0  0  0  0
  2  1  1  0
  3  2  2  0
  4  3  1  0
  5 11  1  0
  5  4  2  0
  6  5  1  0
  7  9  1  0
  7  6  1  0
  7  8  1  6
  9 10  2  0
 11 12  2  0
 12  2  1  0
 13 14  1  0
 15 14  1  0
 15 16  1  6
 15 17  1  0
 17 18  1  6
 18  9  1  0
 19 20  2  0
 19 17  1  0
 22 21  1  6
 22 24  1  0
 23 22  1  0
 25 24  1  1
 25 26  1  0
 25 27  1  0
 26 19  1  0
 27 29  1  0
 28 27  2  0
M  END
$$$$
