YIL.pdb
     RDKit          3D

 29 29  0  0  1  0  0  0  0  0999 V2000
   16.3264  -19.2125   16.0612 O   0  0  0  0  0  0  0  0  0  0  0  0
   15.5991  -18.5493   17.0502 C   0  0  0  0  0  0  0  0  0  0  0  0
   16.2485  -17.5810   17.7852 C   0  0  0  0  0  0  0  0  0  0  0  0
   15.5495  -16.9088   18.7714 C   0  0  0  0  0  0  0  0  0  0  0  0
   14.2291  -17.1726   19.0446 C   0  0  0  0  0  0  0  0  0  0  0  0
   13.5517  -16.4378   20.1196 C   0  0  0  0  0  0  0  0  0  0  0  0
   12.6740  -15.3446   19.5594 C   0  0  2  0  0  0  0  0  0  0  0  0
   13.5199  -14.3341   18.9151 N   0  0  0  0  0  0  0  0  0  0  0  0
   11.8140  -14.7125   20.6269 C   0  0  0  0  0  0  0  0  0  0  0  0
   12.3892  -13.9538   21.4152 O   0  0  0  0  0  0  0  0  0  0  0  0
   13.5945  -18.1410   18.3035 C   0  0  0  0  0  0  0  0  0  0  0  0
   14.2824  -18.8362   17.2979 C   0  0  0  0  0  0  0  0  0  0  0  0
    7.5105  -12.6005   18.7861 C   0  0  0  0  0  0  0  0  0  0  0  0
    8.6327  -12.8544   19.7744 C   0  0  0  0  0  0  0  0  0  0  0  0
    8.2691  -13.9187   20.7937 C   0  0  2  0  0  0  0  0  0  0  0  0
    7.2088  -13.3006   21.6931 C   0  0  0  0  0  0  0  0  0  0  0  0
    9.4308  -14.4663   21.5304 C   0  0  2  0  0  0  0  0  0  0  0  0
   10.4544  -15.0337   20.6364 N   0  0  0  0  0  0  0  0  0  0  0  0
    9.1668  -15.4517   22.5857 C   0  0  0  0  0  0  0  0  0  0  0  0
    9.8364  -16.5703   22.6006 O   0  0  0  0  0  0  0  0  0  0  0  0
    8.2622  -12.8639   27.7403 C   0  0  0  0  0  0  0  0  0  0  0  0
    9.0150  -14.0631   27.1420 C   0  0  2  0  0  0  0  0  0  0  0  0
   10.4718  -13.8075   27.4332 C   0  0  0  0  0  0  0  0  0  0  0  0
    8.6853  -14.0821   25.6952 C   0  0  0  0  0  0  0  0  0  0  0  0
    8.6900  -15.4500   25.0538 C   0  0  2  0  0  0  0  0  0  0  0  0
    8.2378  -15.3431   23.6500 N   0  0  0  0  0  0  0  0  0  0  0  0
    7.8246  -16.4224   25.7249 C   0  0  0  0  0  0  0  0  0  0  0  0
    8.2289  -16.9986   26.7572 O   0  0  0  0  0  0  0  0  0  0  0  0
    6.5732  -16.7140   25.2407 O   0  0  0  0  0  0  0  0  0  0  0  0
  2  1  1  0
  3  2  2  0
  4  3  1  0
  5 11  1  0
  5  4  2  0
  6  5  1  0
  7  9  1  0
  7  6  1  0
  7  8  1  1
  9 10  2  0
 11 12  2  0
 12  2  1  0
 13 14  1  0
 15 14  1  0
 15 16  1  1
 15 17  1  0
 17 18  1  6
 18  9  1  0
 19 20  2  0
 19 17  1  0
 22 21  1  1
 22 24  1  0
 23 22  1  0
 25 24  1  1
 25 26  1  0
 25 27  1  0
 26 19  1  0
 27 29  1  0
 28 27  2  0
M  END
$$$$
