YIL.pdb
     RDKit          3D

 29 29  0  0  1  0  0  0  0  0999 V2000
    6.8904  -23.4155   29.0307 O   0  0  0  0  0  0  0  0  0  0  0  0
    7.0560  -22.2418   28.2944 C   0  0  0  0  0  0  0  0  0  0  0  0
    8.2062  -22.1092   27.5466 C   0  0  0  0  0  0  0  0  0  0  0  0
    8.3940  -20.9552   26.8076 C   0  0  0  0  0  0  0  0  0  0  0  0
    7.4737  -19.9352   26.7927 C   0  0  0  0  0  0  0  0  0  0  0  0
    7.7445  -18.7275   26.0038 C   0  0  0  0  0  0  0  0  0  0  0  0
    6.6927  -18.5282   24.9393 C   0  0  2  0  0  0  0  0  0  0  0  0
    6.6819  -19.6963   24.0520 N   0  0  0  0  0  0  0  0  0  0  0  0
    6.9271  -17.2644   24.1477 C   0  0  0  0  0  0  0  0  0  0  0  0
    7.3684  -17.4098   23.0024 O   0  0  0  0  0  0  0  0  0  0  0  0
    6.3314  -20.0815   27.5434 C   0  0  0  0  0  0  0  0  0  0  0  0
    6.1184  -21.2428   28.3010 C   0  0  0  0  0  0  0  0  0  0  0  0
    6.3709  -11.1185   25.3420 C   0  0  0  0  0  0  0  0  0  0  0  0
    6.9421  -12.2474   24.5053 C   0  0  0  0  0  0  0  0  0  0  0  0
    6.4237  -13.6050   24.9439 C   0  0  2  0  0  0  0  0  0  0  0  0
    6.2917  -13.5400   26.4583 C   0  0  0  0  0  0  0  0  0  0  0  0
    7.2407  -14.7429   24.4646 C   0  0  2  0  0  0  0  0  0  0  0  0
    6.6300  -16.0483   24.7680 N   0  0  0  0  0  0  0  0  0  0  0  0
    8.6451  -14.8004   24.8872 C   0  0  0  0  0  0  0  0  0  0  0  0
    9.4678  -13.8627   24.5078 O   0  0  0  0  0  0  0  0  0  0  0  0
    9.9015  -13.7626   28.4555 C   0  0  0  0  0  0  0  0  0  0  0  0
    9.6424  -15.2777   28.4660 C   0  0  2  0  0  0  0  0  0  0  0  0
    9.6683  -15.6786   29.9189 C   0  0  0  0  0  0  0  0  0  0  0  0
   10.7225  -15.8907   27.6538 C   0  0  0  0  0  0  0  0  0  0  0  0
   10.6489  -15.6098   26.1711 C   0  0  2  0  0  0  0  0  0  0  0  0
    9.2586  -15.7860   25.6995 N   0  0  0  0  0  0  0  0  0  0  0  0
   11.5050  -16.4781   25.3601 C   0  0  0  0  0  0  0  0  0  0  0  0
   12.7457  -16.4238   25.4979 O   0  0  0  0  0  0  0  0  0  0  0  0
   10.9694  -17.3541   24.4484 O   0  0  0  0  0  0  0  0  0  0  0  0
  2  1  1  0
  3  2  2  0
  4  3  1  0
  5 11  1  0
  5  4  2  0
  6  5  1  0
  7  9  1  0
  7  6  1  0
  7  8  1  6
  9 10  2  0
 11 12  2  0
 12  2  1  0
 13 14  1  0
 15 14  1  0
 15 16  1  1
 15 17  1  0
 17 18  1  1
 18  9  1  0
 19 20  2  0
 19 17  1  0
 22 21  1  1
 22 24  1  0
 23 22  1  0
 25 24  1  1
 25 26  1  0
 25 27  1  0
 26 19  1  0
 27 29  1  0
 28 27  2  0
M  END
$$$$
