YIL.pdb
     RDKit          3D

 29 29  0  0  1  0  0  0  0  0999 V2000
    4.8673  -23.1918   27.3438 O   0  0  0  0  0  0  0  0  0  0  0  0
    5.3124  -22.0830   26.6229 C   0  0  0  0  0  0  0  0  0  0  0  0
    6.4152  -21.4073   27.0992 C   0  0  0  0  0  0  0  0  0  0  0  0
    6.8764  -20.3049   26.4026 C   0  0  0  0  0  0  0  0  0  0  0  0
    6.2734  -19.8592   25.2515 C   0  0  0  0  0  0  0  0  0  0  0  0
    6.8003  -18.6695   24.5723 C   0  0  0  0  0  0  0  0  0  0  0  0
    7.0327  -18.9410   23.1055 C   0  0  2  0  0  0  0  0  0  0  0  0
    7.6152  -20.2785   22.9524 N   0  0  0  0  0  0  0  0  0  0  0  0
    7.9260  -17.8994   22.4762 C   0  0  0  0  0  0  0  0  0  0  0  0
    9.0298  -18.2912   22.0815 O   0  0  0  0  0  0  0  0  0  0  0  0
    5.1744  -20.5431   24.7884 C   0  0  0  0  0  0  0  0  0  0  0  0
    4.6881  -21.6640   25.4776 C   0  0  0  0  0  0  0  0  0  0  0  0
    6.1454  -13.6121   19.5215 C   0  0  0  0  0  0  0  0  0  0  0  0
    7.0842  -14.6446   20.1156 C   0  0  0  0  0  0  0  0  0  0  0  0
    7.5025  -14.2918   21.5314 C   0  0  2  0  0  0  0  0  0  0  0  0
    8.2754  -12.9850   21.4325 C   0  0  0  0  0  0  0  0  0  0  0  0
    8.2415  -15.3708   22.2255 C   0  0  2  0  0  0  0  0  0  0  0  0
    7.4374  -16.5932   22.3932 N   0  0  0  0  0  0  0  0  0  0  0  0
    8.8478  -15.0561   23.5247 C   0  0  0  0  0  0  0  0  0  0  0  0
    9.9654  -14.3858   23.5652 O   0  0  0  0  0  0  0  0  0  0  0  0
    8.1824  -11.7384   25.9918 C   0  0  0  0  0  0  0  0  0  0  0  0
    7.2345  -12.9484   25.9824 C   0  0  2  0  0  0  0  0  0  0  0  0
    5.9480  -12.4545   26.5934 C   0  0  0  0  0  0  0  0  0  0  0  0
    7.9065  -14.0101   26.7721 C   0  0  0  0  0  0  0  0  0  0  0  0
    8.9528  -14.8020   26.0233 C   0  0  2  0  0  0  0  0  0  0  0  0
    8.3535  -15.3950   24.8085 N   0  0  0  0  0  0  0  0  0  0  0  0
    9.5420  -15.8922   26.8037 C   0  0  0  0  0  0  0  0  0  0  0  0
    9.4071  -17.0720   26.4148 O   0  0  0  0  0  0  0  0  0  0  0  0
   10.2425  -15.6427   27.9580 O   0  0  0  0  0  0  0  0  0  0  0  0
  2  1  1  0
  3  2  2  0
  4  3  1  0
  5 11  1  0
  5  4  2  0
  6  5  1  0
  7  9  1  0
  7  6  1  0
  7  8  1  1
  9 10  2  0
 11 12  2  0
 12  2  1  0
 13 14  1  0
 15 14  1  0
 15 16  1  6
 15 17  1  0
 17 18  1  1
 18  9  1  0
 19 20  2  0
 19 17  1  0
 22 21  1  1
 22 24  1  0
 23 22  1  0
 25 24  1  1
 25 26  1  0
 25 27  1  0
 26 19  1  0
 27 29  1  0
 28 27  2  0
M  END
$$$$
