YIL.pdb
     RDKit          3D

 29 29  0  0  1  0  0  0  0  0999 V2000
   15.8828  -20.4332   16.4108 O   0  0  0  0  0  0  0  0  0  0  0  0
   15.2954  -19.5837   17.3492 C   0  0  0  0  0  0  0  0  0  0  0  0
   14.6945  -18.4328   16.8869 C   0  0  0  0  0  0  0  0  0  0  0  0
   14.1049  -17.5742   17.7971 C   0  0  0  0  0  0  0  0  0  0  0  0
   14.0972  -17.8284   19.1472 C   0  0  0  0  0  0  0  0  0  0  0  0
   13.4728  -16.8647   20.0615 C   0  0  0  0  0  0  0  0  0  0  0  0
   12.4062  -17.5263   20.9006 C   0  0  2  0  0  0  0  0  0  0  0  0
   11.3589  -18.0507   20.0175 N   0  0  0  0  0  0  0  0  0  0  0  0
   11.8173  -16.5741   21.9131 C   0  0  0  0  0  0  0  0  0  0  0  0
   12.5966  -15.7543   22.4116 O   0  0  0  0  0  0  0  0  0  0  0  0
   14.7004  -18.9801   19.5937 C   0  0  0  0  0  0  0  0  0  0  0  0
   15.3050  -19.8664   18.6898 C   0  0  0  0  0  0  0  0  0  0  0  0
    6.6945  -14.8753   20.9408 C   0  0  0  0  0  0  0  0  0  0  0  0
    8.1319  -14.9088   21.4237 C   0  0  0  0  0  0  0  0  0  0  0  0
    8.2817  -15.6757   22.7250 C   0  0  2  0  0  0  0  0  0  0  0  0
    7.4296  -14.9425   23.7504 C   0  0  0  0  0  0  0  0  0  0  0  0
    9.6870  -15.8717   23.1480 C   0  0  2  0  0  0  0  0  0  0  0  0
   10.4556  -16.6967   22.2005 N   0  0  0  0  0  0  0  0  0  0  0  0
    9.9264  -16.4026   24.4953 C   0  0  0  0  0  0  0  0  0  0  0  0
   10.0744  -17.6873   24.6613 O   0  0  0  0  0  0  0  0  0  0  0  0
    8.9054  -13.9396   27.5051 C   0  0  0  0  0  0  0  0  0  0  0  0
    9.7181  -14.6074   28.6260 C   0  0  2  0  0  0  0  0  0  0  0  0
   10.1160  -13.4881   29.5540 C   0  0  0  0  0  0  0  0  0  0  0  0
   10.8657  -15.2777   27.9657 C   0  0  0  0  0  0  0  0  0  0  0  0
   10.4949  -16.3257   26.9427 C   0  0  2  0  0  0  0  0  0  0  0  0
   10.0297  -15.6682   25.7026 N   0  0  0  0  0  0  0  0  0  0  0  0
    9.4369  -17.2371   27.3842 C   0  0  0  0  0  0  0  0  0  0  0  0
    8.2913  -17.1346   26.8962 O   0  0  0  0  0  0  0  0  0  0  0  0
    9.6800  -18.2054   28.3269 O   0  0  0  0  0  0  0  0  0  0  0  0
  2  1  1  0
  3  2  2  0
  4  3  1  0
  5 11  1  0
  5  4  2  0
  6  5  1  0
  7  9  1  0
  7  6  1  0
  7  8  1  6
  9 10  2  0
 11 12  2  0
 12  2  1  0
 13 14  1  0
 15 14  1  0
 15 16  1  1
 15 17  1  0
 17 18  1  6
 18  9  1  0
 19 20  2  0
 19 17  1  0
 22 21  1  6
 22 24  1  0
 23 22  1  0
 25 24  1  1
 25 26  1  0
 25 27  1  0
 26 19  1  0
 27 29  1  0
 28 27  2  0
M  END
$$$$
