PMM.pdb
     RDKit          3D

 24 24  0  0  1  0  0  0  0  0999 V2000
    8.0047  -16.5114   19.4512 N   0  0  0  0  0  0  0  0  0  0  0  0
    7.9871  -16.6658   18.0077 C   0  0  0  0  0  0  0  0  0  0  0  0
    8.0155  -15.2774   17.4051 C   0  0  0  0  0  0  0  0  0  0  0  0
    8.0005  -14.3659   18.6428 C   0  0  0  0  0  0  0  0  0  0  0  0
    8.6856  -15.2778   19.6288 C   0  0  1  0  0  0  0  0  0  0  0  0
    8.7413  -14.7710   20.9890 C   0  0  0  0  0  0  0  0  0  0  0  0
    8.4772  -13.5360   21.1755 O   0  0  0  0  0  0  0  0  0  0  0  0
    6.3459  -12.3478   26.8852 C   0  0  0  0  0  0  0  0  0  0  0  0
    7.0488  -12.8303   25.2861 S   0  0  0  0  0  0  0  0  0  0  0  0
    6.6751  -14.5153   24.8515 C   0  0  0  0  0  0  0  0  0  0  0  0
    7.3173  -14.9704   23.6150 C   0  0  0  0  0  0  0  0  0  0  0  0
    8.8042  -15.0707   23.5181 C   0  0  2  0  0  0  0  0  0  0  0  0
    9.0634  -15.5211   22.1422 N   0  0  0  0  0  0  0  0  0  0  0  0
    9.3701  -15.9769   24.4991 C   0  0  0  0  0  0  0  0  0  0  0  0
    9.2603  -17.2175   24.3361 O   0  0  0  0  0  0  0  0  0  0  0  0
    9.3486  -13.1777   28.4411 C   0  0  0  0  0  0  0  0  0  0  0  0
   10.9984  -13.5848   29.0505 S   0  0  0  0  0  0  0  0  0  0  0  0
   11.7654  -14.8775   28.0251 C   0  0  0  0  0  0  0  0  0  0  0  0
   10.8158  -16.0537   27.9455 C   0  0  0  0  0  0  0  0  0  0  0  0
   10.6823  -16.5512   26.5134 C   0  0  2  0  0  0  0  0  0  0  0  0
   10.0630  -15.5637   25.6702 N   0  0  0  0  0  0  0  0  0  0  0  0
    9.7904  -17.7569   26.6072 C   0  0  0  0  0  0  0  0  0  0  0  0
   10.2953  -19.0308   26.7782 O   0  0  0  0  0  0  0  0  0  0  0  0
    8.5449  -17.6112   26.5286 O   0  0  0  0  0  0  0  0  0  0  0  0
  1  2  1  0
  2  3  1  0
  4  3  1  0
  5  1  1  0
  5  4  1  0
  6  7  2  0
  5  6  1  1
  8  9  1  0
 10  9  1  0
 10 11  1  0
 12 11  1  1
 12 13  1  0
 12 14  1  0
 13  6  1  0
 14 15  2  0
 14 21  1  0
 16 17  1  0
 17 18  1  0
 19 18  1  0
 20 19  1  1
 20 22  1  0
 21 20  1  0
 22 24  2  0
 22 23  1  0
M  END
$$$$
