PMM.pdb
     RDKit          3D

 24 24  0  0  1  0  0  0  0  0999 V2000
    7.8216  -15.1461   19.9109 N   0  0  0  0  0  0  0  0  0  0  0  0
    7.6589  -14.7405   18.5263 C   0  0  0  0  0  0  0  0  0  0  0  0
    7.8304  -13.2374   18.4733 C   0  0  0  0  0  0  0  0  0  0  0  0
    8.0496  -12.8649   19.9485 C   0  0  0  0  0  0  0  0  0  0  0  0
    8.6818  -14.1445   20.4345 C   0  0  1  0  0  0  0  0  0  0  0  0
    8.9245  -14.1978   21.8657 C   0  0  0  0  0  0  0  0  0  0  0  0
    9.8651  -13.4751   22.3374 O   0  0  0  0  0  0  0  0  0  0  0  0
    6.4075  -11.4949   26.3982 C   0  0  0  0  0  0  0  0  0  0  0  0
    5.6059  -13.1021   26.1570 S   0  0  0  0  0  0  0  0  0  0  0  0
    6.1170  -13.9063   24.6536 C   0  0  0  0  0  0  0  0  0  0  0  0
    7.0723  -14.9994   24.8553 C   0  0  0  0  0  0  0  0  0  0  0  0
    8.4377  -14.9422   24.2530 C   0  0  2  0  0  0  0  0  0  0  0  0
    8.2116  -14.9819   22.8002 N   0  0  0  0  0  0  0  0  0  0  0  0
    9.2923  -16.0268   24.6968 C   0  0  0  0  0  0  0  0  0  0  0  0
    9.3876  -17.0682   24.0009 O   0  0  0  0  0  0  0  0  0  0  0  0
   11.3170  -12.7638   28.5852 C   0  0  0  0  0  0  0  0  0  0  0  0
   10.9092  -14.5204   28.4998 S   0  0  0  0  0  0  0  0  0  0  0  0
   12.1259  -15.4180   27.4876 C   0  0  0  0  0  0  0  0  0  0  0  0
   11.7339  -16.8796   27.4495 C   0  0  0  0  0  0  0  0  0  0  0  0
   10.8229  -17.1696   26.2654 C   0  0  2  0  0  0  0  0  0  0  0  0
   10.0578  -16.0089   25.8952 N   0  0  0  0  0  0  0  0  0  0  0  0
    9.8933  -18.2459   26.7503 C   0  0  0  0  0  0  0  0  0  0  0  0
   10.3414  -19.5123   27.0703 O   0  0  0  0  0  0  0  0  0  0  0  0
    8.6682  -17.9950   26.8717 O   0  0  0  0  0  0  0  0  0  0  0  0
  1  2  1  0
  2  3  1  0
  4  3  1  0
  5  1  1  0
  5  4  1  0
  6  7  2  0
  5  6  1  1
  8  9  1  0
 10  9  1  0
 10 11  1  0
 12 11  1  1
 12 13  1  0
 12 14  1  0
 13  6  1  0
 14 15  2  0
 14 21  1  0
 16 17  1  0
 17 18  1  0
 19 18  1  0
 20 19  1  1
 20 22  1  0
 21 20  1  0
 22 24  2  0
 22 23  1  0
M  END
$$$$
