PMM.pdb
     RDKit          3D

 24 24  0  0  1  0  0  0  0  0999 V2000
    7.4856  -15.3271   19.6208 N   0  0  0  0  0  0  0  0  0  0  0  0
    7.3462  -15.0257   18.2074 C   0  0  0  0  0  0  0  0  0  0  0  0
    7.7135  -13.5694   18.0182 C   0  0  0  0  0  0  0  0  0  0  0  0
    8.0138  -13.1024   19.4516 C   0  0  0  0  0  0  0  0  0  0  0  0
    8.4824  -14.4077   20.0430 C   0  0  1  0  0  0  0  0  0  0  0  0
    8.7486  -14.3680   21.4705 C   0  0  0  0  0  0  0  0  0  0  0  0
    9.7864  -13.7381   21.8653 O   0  0  0  0  0  0  0  0  0  0  0  0
    6.3880  -11.3097   25.9283 C   0  0  0  0  0  0  0  0  0  0  0  0
    5.4972  -12.8679   26.1792 S   0  0  0  0  0  0  0  0  0  0  0  0
    6.5127  -14.2970   25.8722 C   0  0  0  0  0  0  0  0  0  0  0  0
    6.7457  -14.5709   24.4512 C   0  0  0  0  0  0  0  0  0  0  0  0
    8.1332  -14.7154   23.9181 C   0  0  2  0  0  0  0  0  0  0  0  0
    7.9607  -14.9663   22.4792 N   0  0  0  0  0  0  0  0  0  0  0  0
    8.8753  -15.7792   24.5671 C   0  0  0  0  0  0  0  0  0  0  0  0
    8.8024  -16.9508   24.1200 O   0  0  0  0  0  0  0  0  0  0  0  0
   10.7311  -14.5720   29.9179 C   0  0  0  0  0  0  0  0  0  0  0  0
   11.0672  -13.7725   28.3346 S   0  0  0  0  0  0  0  0  0  0  0  0
   11.9166  -14.9147   27.2012 C   0  0  0  0  0  0  0  0  0  0  0  0
   11.3365  -16.2999   27.3917 C   0  0  0  0  0  0  0  0  0  0  0  0
   10.4881  -16.7054   26.1951 C   0  0  2  0  0  0  0  0  0  0  0  0
    9.7073  -15.6003   25.7065 N   0  0  0  0  0  0  0  0  0  0  0  0
    9.5688  -17.7720   26.7197 C   0  0  0  0  0  0  0  0  0  0  0  0
   10.0206  -19.0375   27.0386 O   0  0  0  0  0  0  0  0  0  0  0  0
    8.3493  -17.5138   26.8765 O   0  0  0  0  0  0  0  0  0  0  0  0
  1  2  1  0
  2  3  1  0
  4  3  1  0
  5  1  1  0
  5  4  1  0
  6  7  2  0
  5  6  1  1
  8  9  1  0
 10  9  1  0
 10 11  1  0
 12 11  1  1
 12 13  1  0
 12 14  1  0
 13  6  1  0
 14 15  2  0
 14 21  1  0
 16 17  1  0
 17 18  1  0
 19 18  1  0
 20 19  1  1
 20 22  1  0
 21 20  1  0
 22 24  2  0
 22 23  1  0
M  END
$$$$
