PMM.pdb
     RDKit          3D

 24 24  0  0  1  0  0  0  0  0999 V2000
    7.9409  -15.4774   19.3893 N   0  0  0  0  0  0  0  0  0  0  0  0
    7.8317  -15.1025   17.9909 C   0  0  0  0  0  0  0  0  0  0  0  0
    8.0887  -13.6134   17.9016 C   0  0  0  0  0  0  0  0  0  0  0  0
    8.2961  -13.2123   19.3710 C   0  0  0  0  0  0  0  0  0  0  0  0
    8.8445  -14.5109   19.9058 C   0  0  1  0  0  0  0  0  0  0  0  0
    9.0522  -14.5374   21.3432 C   0  0  0  0  0  0  0  0  0  0  0  0
   10.0760  -13.9329   21.8080 O   0  0  0  0  0  0  0  0  0  0  0  0
    6.1786  -12.0625   27.4600 C   0  0  0  0  0  0  0  0  0  0  0  0
    6.6097  -12.4748   25.7487 S   0  0  0  0  0  0  0  0  0  0  0  0
    6.3012  -14.1829   25.3548 C   0  0  0  0  0  0  0  0  0  0  0  0
    6.7373  -14.5748   24.0114 C   0  0  0  0  0  0  0  0  0  0  0  0
    8.1800  -14.8270   23.7193 C   0  0  2  0  0  0  0  0  0  0  0  0
    8.2208  -15.1753   22.2909 N   0  0  0  0  0  0  0  0  0  0  0  0
    8.7450  -15.8751   24.5476 C   0  0  0  0  0  0  0  0  0  0  0  0
    8.5731  -17.0785   24.2312 O   0  0  0  0  0  0  0  0  0  0  0  0
    9.9550  -13.2801   28.8409 C   0  0  0  0  0  0  0  0  0  0  0  0
   11.5794  -14.0645   28.9116 S   0  0  0  0  0  0  0  0  0  0  0  0
   11.7322  -15.3506   27.6336 C   0  0  0  0  0  0  0  0  0  0  0  0
   10.5959  -16.3358   27.8056 C   0  0  0  0  0  0  0  0  0  0  0  0
   10.0376  -16.7658   26.4566 C   0  0  2  0  0  0  0  0  0  0  0  0
    9.5035  -15.6460   25.7284 N   0  0  0  0  0  0  0  0  0  0  0  0
    8.9261  -17.7213   26.7878 C   0  0  0  0  0  0  0  0  0  0  0  0
    9.1698  -19.0275   27.1639 O   0  0  0  0  0  0  0  0  0  0  0  0
    7.7345  -17.3284   26.7232 O   0  0  0  0  0  0  0  0  0  0  0  0
  1  2  1  0
  2  3  1  0
  4  3  1  0
  5  1  1  0
  5  4  1  0
  6  7  2  0
  5  6  1  1
  8  9  1  0
 10  9  1  0
 10 11  1  0
 12 11  1  1
 12 13  1  0
 12 14  1  0
 13  6  1  0
 14 15  2  0
 14 21  1  0
 16 17  1  0
 17 18  1  0
 19 18  1  0
 20 19  1  1
 20 22  1  0
 21 20  1  0
 22 24  2  0
 22 23  1  0
M  END
$$$$
