PMM.pdb
     RDKit          3D

 24 24  0  0  1  0  0  0  0  0999 V2000
    8.0574  -16.9506   19.6230 N   0  0  0  0  0  0  0  0  0  0  0  0
    7.9122  -17.0243   18.1802 C   0  0  0  0  0  0  0  0  0  0  0  0
    7.8823  -15.6043   17.6567 C   0  0  0  0  0  0  0  0  0  0  0  0
    7.9740  -14.7634   18.9402 C   0  0  0  0  0  0  0  0  0  0  0  0
    8.7471  -15.7230   19.8088 C   0  0  1  0  0  0  0  0  0  0  0  0
    8.9215  -15.2925   21.1851 C   0  0  0  0  0  0  0  0  0  0  0  0
    9.8850  -14.4954   21.4420 O   0  0  0  0  0  0  0  0  0  0  0  0
    7.4134  -12.1739   26.5914 C   0  0  0  0  0  0  0  0  0  0  0  0
    5.9556  -12.8032   25.7177 S   0  0  0  0  0  0  0  0  0  0  0  0
    6.3209  -13.3179   24.0536 C   0  0  0  0  0  0  0  0  0  0  0  0
    6.7607  -14.7116   23.9418 C   0  0  0  0  0  0  0  0  0  0  0  0
    8.1788  -15.0413   23.6091 C   0  0  2  0  0  0  0  0  0  0  0  0
    8.1182  -15.6744   22.2829 N   0  0  0  0  0  0  0  0  0  0  0  0
    8.7991  -15.9072   24.5936 C   0  0  0  0  0  0  0  0  0  0  0  0
    9.1680  -17.0613   24.2624 O   0  0  0  0  0  0  0  0  0  0  0  0
   10.9811  -13.4118   30.1245 C   0  0  0  0  0  0  0  0  0  0  0  0
   11.9511  -14.9341   30.1518 S   0  0  0  0  0  0  0  0  0  0  0  0
   11.6363  -15.9279   28.6605 C   0  0  0  0  0  0  0  0  0  0  0  0
   10.4958  -15.2940   27.8931 C   0  0  0  0  0  0  0  0  0  0  0  0
   10.1624  -16.1003   26.6462 C   0  0  2  0  0  0  0  0  0  0  0  0
    9.0326  -15.5460   25.9491 N   0  0  0  0  0  0  0  0  0  0  0  0
    9.8108  -17.4692   27.1565 C   0  0  0  0  0  0  0  0  0  0  0  0
   10.7757  -18.4134   27.4474 O   0  0  0  0  0  0  0  0  0  0  0  0
    8.6038  -17.7734   27.3270 O   0  0  0  0  0  0  0  0  0  0  0  0
  1  2  1  0
  2  3  1  0
  4  3  1  0
  5  1  1  0
  5  4  1  0
  6  7  2  0
  5  6  1  1
  8  9  1  0
 10  9  1  0
 10 11  1  0
 12 11  1  1
 12 13  1  0
 12 14  1  0
 13  6  1  0
 14 15  2  0
 14 21  1  0
 16 17  1  0
 17 18  1  0
 19 18  1  0
 20 19  1  1
 20 22  1  0
 21 20  1  0
 22 24  2  0
 22 23  1  0
M  END
$$$$
