PMM.pdb
     RDKit          3D

 24 24  0  0  1  0  0  0  0  0999 V2000
    7.4883  -16.5065   20.0292 N   0  0  0  0  0  0  0  0  0  0  0  0
    7.2891  -16.4999   18.5911 C   0  0  0  0  0  0  0  0  0  0  0  0
    7.7428  -15.1496   18.0790 C   0  0  0  0  0  0  0  0  0  0  0  0
    8.1554  -14.4159   19.3652 C   0  0  0  0  0  0  0  0  0  0  0  0
    8.5676  -15.5998   20.2029 C   0  0  1  0  0  0  0  0  0  0  0  0
    8.9170  -15.2810   21.5763 C   0  0  0  0  0  0  0  0  0  0  0  0
   10.0583  -14.7514   21.7927 O   0  0  0  0  0  0  0  0  0  0  0  0
    6.6059  -10.9884   26.2588 C   0  0  0  0  0  0  0  0  0  0  0  0
    5.8414  -12.6279   26.1492 S   0  0  0  0  0  0  0  0  0  0  0  0
    7.0362  -13.9306   25.9414 C   0  0  0  0  0  0  0  0  0  0  0  0
    7.1415  -14.4318   24.5681 C   0  0  0  0  0  0  0  0  0  0  0  0
    8.4229  -15.0069   24.0605 C   0  0  2  0  0  0  0  0  0  0  0  0
    8.1066  -15.5025   22.7123 N   0  0  0  0  0  0  0  0  0  0  0  0
    8.9431  -16.0577   24.9143 C   0  0  0  0  0  0  0  0  0  0  0  0
    8.3088  -17.1357   25.0307 O   0  0  0  0  0  0  0  0  0  0  0  0
    9.6668  -13.7791   29.1100 C   0  0  0  0  0  0  0  0  0  0  0  0
   11.4020  -14.2764   29.1403 S   0  0  0  0  0  0  0  0  0  0  0  0
   11.5843  -16.0167   28.6413 C   0  0  0  0  0  0  0  0  0  0  0  0
   10.2746  -16.4845   28.0435 C   0  0  0  0  0  0  0  0  0  0  0  0
   10.4726  -16.9851   26.6200 C   0  0  2  0  0  0  0  0  0  0  0  0
   10.1530  -15.9663   25.6560 N   0  0  0  0  0  0  0  0  0  0  0  0
    9.5070  -18.1276   26.4769 C   0  0  0  0  0  0  0  0  0  0  0  0
    9.9043  -19.4438   26.6059 O   0  0  0  0  0  0  0  0  0  0  0  0
    8.2983  -17.8874   26.2320 O   0  0  0  0  0  0  0  0  0  0  0  0
  1  2  1  0
  2  3  1  0
  4  3  1  0
  5  1  1  0
  5  4  1  0
  6  7  2  0
  5  6  1  1
  8  9  1  0
 10  9  1  0
 10 11  1  0
 12 11  1  1
 12 13  1  0
 12 14  1  0
 13  6  1  0
 14 15  2  0
 14 21  1  0
 16 17  1  0
 17 18  1  0
 19 18  1  0
 20 19  1  1
 20 22  1  0
 21 20  1  0
 22 24  2  0
 22 23  1  0
M  END
$$$$
