PMM.pdb
     RDKit          3D

 24 24  0  0  1  0  0  0  0  0999 V2000
    9.3338  -15.7467   19.5365 N   0  0  0  0  0  0  0  0  0  0  0  0
    8.9859  -16.5853   18.4034 C   0  0  0  0  0  0  0  0  0  0  0  0
    8.6530  -17.9593   18.9445 C   0  0  0  0  0  0  0  0  0  0  0  0
    8.8978  -17.8022   20.4539 C   0  0  0  0  0  0  0  0  0  0  0  0
    8.5975  -16.3320   20.6006 C   0  0  1  0  0  0  0  0  0  0  0  0
    8.8496  -15.7887   21.9240 C   0  0  0  0  0  0  0  0  0  0  0  0
   10.0082  -15.3071   22.1590 O   0  0  0  0  0  0  0  0  0  0  0  0
    7.0512  -11.2346   26.1074 C   0  0  0  0  0  0  0  0  0  0  0  0
    5.8918  -12.6225   25.9897 S   0  0  0  0  0  0  0  0  0  0  0  0
    6.2322  -13.6867   24.6042 C   0  0  0  0  0  0  0  0  0  0  0  0
    6.9326  -14.9244   24.9590 C   0  0  0  0  0  0  0  0  0  0  0  0
    8.2511  -15.2599   24.3432 C   0  0  2  0  0  0  0  0  0  0  0  0
    7.9255  -15.7401   22.9917 N   0  0  0  0  0  0  0  0  0  0  0  0
    8.9903  -16.2486   25.1046 C   0  0  0  0  0  0  0  0  0  0  0  0
    8.8178  -17.4705   24.8701 O   0  0  0  0  0  0  0  0  0  0  0  0
    9.5174  -14.0505   28.9307 C   0  0  0  0  0  0  0  0  0  0  0  0
   11.3190  -14.1634   28.9532 S   0  0  0  0  0  0  0  0  0  0  0  0
   11.9408  -14.8830   27.4019 C   0  0  0  0  0  0  0  0  0  0  0  0
   11.8890  -16.3915   27.5178 C   0  0  0  0  0  0  0  0  0  0  0  0
   10.7971  -16.9697   26.6292 C   0  0  2  0  0  0  0  0  0  0  0  0
    9.9263  -15.9394   26.1296 N   0  0  0  0  0  0  0  0  0  0  0  0
   10.0181  -17.8891   27.5268 C   0  0  0  0  0  0  0  0  0  0  0  0
   10.5854  -19.0118   28.0967 O   0  0  0  0  0  0  0  0  0  0  0  0
    8.8121  -17.6366   27.7724 O   0  0  0  0  0  0  0  0  0  0  0  0
  1  2  1  0
  2  3  1  0
  4  3  1  0
  5  1  1  0
  5  4  1  0
  6  7  2  0
  5  6  1  1
  8  9  1  0
 10  9  1  0
 10 11  1  0
 12 11  1  1
 12 13  1  0
 12 14  1  0
 13  6  1  0
 14 15  2  0
 14 21  1  0
 16 17  1  0
 17 18  1  0
 19 18  1  0
 20 19  1  1
 20 22  1  0
 21 20  1  0
 22 24  2  0
 22 23  1  0
M  END
$$$$
