PMM.pdb
     RDKit          3D

 24 24  0  0  1  0  0  0  0  0999 V2000
    7.3955  -15.2590   19.5459 N   0  0  0  0  0  0  0  0  0  0  0  0
    7.2175  -14.9678   18.1347 C   0  0  0  0  0  0  0  0  0  0  0  0
    7.6490  -13.5341   17.9120 C   0  0  0  0  0  0  0  0  0  0  0  0
    8.0263  -13.0657   19.3266 C   0  0  0  0  0  0  0  0  0  0  0  0
    8.4519  -14.3857   19.9179 C   0  0  1  0  0  0  0  0  0  0  0  0
    8.7739  -14.3424   21.3337 C   0  0  0  0  0  0  0  0  0  0  0  0
    9.8774  -13.8002   21.6770 O   0  0  0  0  0  0  0  0  0  0  0  0
    6.7735  -11.0164   25.7122 C   0  0  0  0  0  0  0  0  0  0  0  0
    5.6262  -12.3991   25.9490 S   0  0  0  0  0  0  0  0  0  0  0  0
    6.3894  -13.9816   25.6646 C   0  0  0  0  0  0  0  0  0  0  0  0
    6.6831  -14.2592   24.2557 C   0  0  0  0  0  0  0  0  0  0  0  0
    8.0912  -14.4251   23.7868 C   0  0  2  0  0  0  0  0  0  0  0  0
    7.9744  -14.8484   22.3831 N   0  0  0  0  0  0  0  0  0  0  0  0
    8.8372  -15.3834   24.5800 C   0  0  0  0  0  0  0  0  0  0  0  0
    8.6753  -16.6134   24.3837 O   0  0  0  0  0  0  0  0  0  0  0  0
   10.9900  -14.4917   30.5564 C   0  0  0  0  0  0  0  0  0  0  0  0
   11.9814  -15.9469   30.1580 S   0  0  0  0  0  0  0  0  0  0  0  0
   11.4915  -16.6422   28.5495 C   0  0  0  0  0  0  0  0  0  0  0  0
   10.7614  -15.5720   27.7662 C   0  0  0  0  0  0  0  0  0  0  0  0
   10.3867  -16.0716   26.3784 C   0  0  2  0  0  0  0  0  0  0  0  0
    9.7688  -15.0344   25.5962 N   0  0  0  0  0  0  0  0  0  0  0  0
    9.3927  -17.1720   26.6216 C   0  0  0  0  0  0  0  0  0  0  0  0
    9.7711  -18.4978   26.6995 O   0  0  0  0  0  0  0  0  0  0  0  0
    8.1770  -16.8864   26.7596 O   0  0  0  0  0  0  0  0  0  0  0  0
  1  2  1  0
  2  3  1  0
  4  3  1  0
  5  1  1  0
  5  4  1  0
  6  7  2  0
  5  6  1  1
  8  9  1  0
 10  9  1  0
 10 11  1  0
 12 11  1  1
 12 13  1  0
 12 14  1  0
 13  6  1  0
 14 15  2  0
 14 21  1  0
 16 17  1  0
 17 18  1  0
 19 18  1  0
 20 19  1  1
 20 22  1  0
 21 20  1  0
 22 24  2  0
 22 23  1  0
M  END
$$$$
