PMM.pdb
     RDKit          3D

 24 24  0  0  1  0  0  0  0  0999 V2000
    6.1511  -19.5075   22.8371 N   0  0  0  0  0  0  0  0  0  0  0  0
    4.9574  -20.3300   22.7555 C   0  0  0  0  0  0  0  0  0  0  0  0
    3.9418  -19.5705   21.9289 C   0  0  0  0  0  0  0  0  0  0  0  0
    4.6704  -18.2538   21.6153 C   0  0  0  0  0  0  0  0  0  0  0  0
    6.0944  -18.7486   21.6379 C   0  0  1  0  0  0  0  0  0  0  0  0
    7.1011  -17.7116   21.4923 C   0  0  0  0  0  0  0  0  0  0  0  0
    7.9380  -17.8245   20.5350 O   0  0  0  0  0  0  0  0  0  0  0  0
    8.6506  -11.8441   19.6121 C   0  0  0  0  0  0  0  0  0  0  0  0
    7.1217  -12.7857   19.3669 S   0  0  0  0  0  0  0  0  0  0  0  0
    7.1790  -14.3975   20.1197 C   0  0  0  0  0  0  0  0  0  0  0  0
    7.5765  -14.3846   21.5304 C   0  0  0  0  0  0  0  0  0  0  0  0
    8.2874  -15.5506   22.1349 C   0  0  2  0  0  0  0  0  0  0  0  0
    7.2470  -16.5740   22.3175 N   0  0  0  0  0  0  0  0  0  0  0  0
    8.9454  -15.2198   23.3845 C   0  0  0  0  0  0  0  0  0  0  0  0
    8.5309  -14.2510   24.0683 O   0  0  0  0  0  0  0  0  0  0  0  0
   10.4288  -13.2682   28.8089 C   0  0  0  0  0  0  0  0  0  0  0  0
    9.0841  -14.2198   28.0703 S   0  0  0  0  0  0  0  0  0  0  0  0
    9.6306  -15.9090   27.6719 C   0  0  0  0  0  0  0  0  0  0  0  0
    9.2901  -16.1950   26.2249 C   0  0  0  0  0  0  0  0  0  0  0  0
   10.4139  -15.7477   25.3012 C   0  0  2  0  0  0  0  0  0  0  0  0
   10.0588  -15.9251   23.9185 N   0  0  0  0  0  0  0  0  0  0  0  0
   11.5695  -16.6469   25.6387 C   0  0  0  0  0  0  0  0  0  0  0  0
   12.3319  -16.4655   26.7757 O   0  0  0  0  0  0  0  0  0  0  0  0
   11.8587  -17.5962   24.8682 O   0  0  0  0  0  0  0  0  0  0  0  0
  1  2  1  0
  2  3  1  0
  4  3  1  0
  5  1  1  0
  5  4  1  0
  6  7  2  0
  5  6  1  1
  8  9  1  0
 10  9  1  0
 10 11  1  0
 12 11  1  1
 12 13  1  0
 12 14  1  0
 13  6  1  0
 14 15  2  0
 14 21  1  0
 16 17  1  0
 17 18  1  0
 19 18  1  0
 20 19  1  1
 20 22  1  0
 21 20  1  0
 22 24  2  0
 22 23  1  0
M  END
$$$$
