PMM.pdb
     RDKit          3D

 24 24  0  0  1  0  0  0  0  0999 V2000
    7.6921  -15.2837   19.8423 N   0  0  0  0  0  0  0  0  0  0  0  0
    7.5446  -14.8993   18.4500 C   0  0  0  0  0  0  0  0  0  0  0  0
    7.8322  -13.4159   18.3587 C   0  0  0  0  0  0  0  0  0  0  0  0
    8.0979  -13.0272   19.8220 C   0  0  0  0  0  0  0  0  0  0  0  0
    8.6342  -14.3406   20.3324 C   0  0  1  0  0  0  0  0  0  0  0  0
    8.8894  -14.3792   21.7619 C   0  0  0  0  0  0  0  0  0  0  0  0
    9.7866  -13.5997   22.2277 O   0  0  0  0  0  0  0  0  0  0  0  0
    5.8296  -11.1852   26.0968 C   0  0  0  0  0  0  0  0  0  0  0  0
    6.7918  -12.7181   26.0030 S   0  0  0  0  0  0  0  0  0  0  0  0
    6.1559  -13.8554   24.7906 C   0  0  0  0  0  0  0  0  0  0  0  0
    6.9385  -15.0876   24.6582 C   0  0  0  0  0  0  0  0  0  0  0  0
    8.3455  -15.0495   24.1588 C   0  0  2  0  0  0  0  0  0  0  0  0
    8.2330  -15.2062   22.7007 N   0  0  0  0  0  0  0  0  0  0  0  0
    9.1786  -16.0789   24.7503 C   0  0  0  0  0  0  0  0  0  0  0  0
    9.3449  -17.1677   24.1464 O   0  0  0  0  0  0  0  0  0  0  0  0
    9.4449  -13.8352   29.0928 C   0  0  0  0  0  0  0  0  0  0  0  0
   11.0923  -14.5073   29.3982 S   0  0  0  0  0  0  0  0  0  0  0  0
   11.7687  -15.2703   27.8912 C   0  0  0  0  0  0  0  0  0  0  0  0
   11.2919  -16.7055   27.8242 C   0  0  0  0  0  0  0  0  0  0  0  0
   10.6965  -17.0194   26.4592 C   0  0  2  0  0  0  0  0  0  0  0  0
    9.8459  -15.9540   25.9999 N   0  0  0  0  0  0  0  0  0  0  0  0
    9.8727  -18.2574   26.6750 C   0  0  0  0  0  0  0  0  0  0  0  0
   10.4449  -19.5100   26.7787 O   0  0  0  0  0  0  0  0  0  0  0  0
    8.6233  -18.1598   26.7651 O   0  0  0  0  0  0  0  0  0  0  0  0
  1  2  1  0
  2  3  1  0
  4  3  1  0
  5  1  1  0
  5  4  1  0
  6  7  2  0
  5  6  1  1
  8  9  1  0
 10  9  1  0
 10 11  1  0
 12 11  1  1
 12 13  1  0
 12 14  1  0
 13  6  1  0
 14 15  2  0
 14 21  1  0
 16 17  1  0
 17 18  1  0
 19 18  1  0
 20 19  1  1
 20 22  1  0
 21 20  1  0
 22 24  2  0
 22 23  1  0
M  END
$$$$
