PMM.pdb
     RDKit          3D

 24 24  0  0  1  0  0  0  0  0999 V2000
    8.0685  -18.4505   21.0151 N   0  0  0  0  0  0  0  0  0  0  0  0
    7.6624  -19.2398   19.8662 C   0  0  0  0  0  0  0  0  0  0  0  0
    7.3692  -18.2752   18.7371 C   0  0  0  0  0  0  0  0  0  0  0  0
    7.6039  -16.9028   19.3886 C   0  0  0  0  0  0  0  0  0  0  0  0
    8.6336  -17.2920   20.4188 C   0  0  1  0  0  0  0  0  0  0  0  0
    9.0142  -16.2274   21.3308 C   0  0  0  0  0  0  0  0  0  0  0  0
    9.9798  -15.4662   20.9875 O   0  0  0  0  0  0  0  0  0  0  0  0
    5.6872  -12.6929   26.6033 C   0  0  0  0  0  0  0  0  0  0  0  0
    7.0768  -12.1822   25.5581 S   0  0  0  0  0  0  0  0  0  0  0  0
    6.9906  -12.8668   23.9174 C   0  0  0  0  0  0  0  0  0  0  0  0
    7.3298  -14.2908   23.8452 C   0  0  0  0  0  0  0  0  0  0  0  0
    8.6732  -14.7332   23.3659 C   0  0  2  0  0  0  0  0  0  0  0  0
    8.4122  -15.9474   22.5780 N   0  0  0  0  0  0  0  0  0  0  0  0
    9.6018  -14.9828   24.4518 C   0  0  0  0  0  0  0  0  0  0  0  0
    9.4176  -14.4336   25.5664 O   0  0  0  0  0  0  0  0  0  0  0  0
   10.7016  -13.4814   28.3738 C   0  0  0  0  0  0  0  0  0  0  0  0
   10.2032  -15.0922   29.0189 S   0  0  0  0  0  0  0  0  0  0  0  0
   10.9110  -16.4365   28.0177 C   0  0  0  0  0  0  0  0  0  0  0  0
   10.2265  -16.4411   26.6675 C   0  0  0  0  0  0  0  0  0  0  0  0
   11.2467  -16.4735   25.5386 C   0  0  2  0  0  0  0  0  0  0  0  0
   10.7425  -15.8267   24.3567 N   0  0  0  0  0  0  0  0  0  0  0  0
   11.4600  -17.9337   25.2554 C   0  0  0  0  0  0  0  0  0  0  0  0
   12.2269  -18.7356   26.0776 O   0  0  0  0  0  0  0  0  0  0  0  0
   10.9280  -18.4501   24.2411 O   0  0  0  0  0  0  0  0  0  0  0  0
  1  2  1  0
  2  3  1  0
  4  3  1  0
  5  1  1  0
  5  4  1  0
  6  7  2  0
  5  6  1  1
  8  9  1  0
 10  9  1  0
 10 11  1  0
 12 11  1  1
 12 13  1  0
 12 14  1  0
 13  6  1  0
 14 15  2  0
 14 21  1  0
 16 17  1  0
 17 18  1  0
 19 18  1  0
 20 19  1  1
 20 22  1  0
 21 20  1  0
 22 24  2  0
 22 23  1  0
M  END
$$$$
