PMM.pdb
     RDKit          3D

 24 24  0  0  1  0  0  0  0  0999 V2000
    7.5385  -15.2370   19.5416 N   0  0  0  0  0  0  0  0  0  0  0  0
    7.3616  -14.9096   18.1382 C   0  0  0  0  0  0  0  0  0  0  0  0
    7.6619  -13.4347   17.9777 C   0  0  0  0  0  0  0  0  0  0  0  0
    7.9666  -12.9880   19.4166 C   0  0  0  0  0  0  0  0  0  0  0  0
    8.5016  -14.2847   19.9692 C   0  0  1  0  0  0  0  0  0  0  0  0
    8.7907  -14.2662   21.3926 C   0  0  0  0  0  0  0  0  0  0  0  0
    9.8838  -13.7263   21.7711 O   0  0  0  0  0  0  0  0  0  0  0  0
    6.3553  -11.6100   25.3244 C   0  0  0  0  0  0  0  0  0  0  0  0
    6.1599  -12.9431   26.5364 S   0  0  0  0  0  0  0  0  0  0  0  0
    6.5487  -14.5449   25.8648 C   0  0  0  0  0  0  0  0  0  0  0  0
    6.7619  -14.5495   24.4147 C   0  0  0  0  0  0  0  0  0  0  0  0
    8.1415  -14.5016   23.8448 C   0  0  2  0  0  0  0  0  0  0  0  0
    7.9693  -14.7943   22.4137 N   0  0  0  0  0  0  0  0  0  0  0  0
    9.0449  -15.4395   24.4834 C   0  0  0  0  0  0  0  0  0  0  0  0
    9.0471  -16.6433   24.1249 O   0  0  0  0  0  0  0  0  0  0  0  0
   11.3600  -15.7115   30.9792 C   0  0  0  0  0  0  0  0  0  0  0  0
   11.1615  -14.3563   29.8032 S   0  0  0  0  0  0  0  0  0  0  0  0
   10.3483  -14.9348   28.2817 C   0  0  0  0  0  0  0  0  0  0  0  0
   11.3740  -15.6560   27.4335 C   0  0  0  0  0  0  0  0  0  0  0  0
   10.7631  -16.1271   26.1217 C   0  0  2  0  0  0  0  0  0  0  0  0
    9.9599  -15.0981   25.5171 N   0  0  0  0  0  0  0  0  0  0  0  0
    9.8855  -17.2864   26.5010 C   0  0  0  0  0  0  0  0  0  0  0  0
   10.4011  -18.5389   26.7705 O   0  0  0  0  0  0  0  0  0  0  0  0
    8.6425  -17.1206   26.5778 O   0  0  0  0  0  0  0  0  0  0  0  0
  1  2  1  0
  2  3  1  0
  4  3  1  0
  5  1  1  0
  5  4  1  0
  6  7  2  0
  5  6  1  1
  8  9  1  0
 10  9  1  0
 10 11  1  0
 12 11  1  1
 12 13  1  0
 12 14  1  0
 13  6  1  0
 14 15  2  0
 14 21  1  0
 16 17  1  0
 17 18  1  0
 19 18  1  0
 20 19  1  1
 20 22  1  0
 21 20  1  0
 22 24  2  0
 22 23  1  0
M  END
$$$$
