PMM.pdb
     RDKit          3D

 24 24  0  0  1  0  0  0  0  0999 V2000
    6.6695  -19.2861   21.5127 N   0  0  0  0  0  0  0  0  0  0  0  0
    5.7973  -20.2258   20.8313 C   0  0  0  0  0  0  0  0  0  0  0  0
    5.8404  -19.8926   19.3553 C   0  0  0  0  0  0  0  0  0  0  0  0
    6.7680  -18.6678   19.3070 C   0  0  0  0  0  0  0  0  0  0  0  0
    7.6243  -18.9594   20.5132 C   0  0  1  0  0  0  0  0  0  0  0  0
    8.5709  -17.9120   20.8549 C   0  0  0  0  0  0  0  0  0  0  0  0
    9.8085  -18.1324   20.6325 O   0  0  0  0  0  0  0  0  0  0  0  0
    8.2325  -11.5550   19.8260 C   0  0  0  0  0  0  0  0  0  0  0  0
    7.2441  -12.9456   19.2147 S   0  0  0  0  0  0  0  0  0  0  0  0
    7.7475  -14.5047   19.9101 C   0  0  0  0  0  0  0  0  0  0  0  0
    8.7072  -14.3860   21.0116 C   0  0  0  0  0  0  0  0  0  0  0  0
    9.2400  -15.6020   21.6955 C   0  0  2  0  0  0  0  0  0  0  0  0
    8.2522  -16.6555   21.4169 N   0  0  0  0  0  0  0  0  0  0  0  0
    9.4332  -15.4052   23.1195 C   0  0  0  0  0  0  0  0  0  0  0  0
   10.3448  -14.6415   23.5238 O   0  0  0  0  0  0  0  0  0  0  0  0
    6.0457  -11.4210   26.2811 C   0  0  0  0  0  0  0  0  0  0  0  0
    6.8433  -12.8999   26.9411 S   0  0  0  0  0  0  0  0  0  0  0  0
    6.9578  -14.1952   25.6683 C   0  0  0  0  0  0  0  0  0  0  0  0
    7.6444  -15.4019   26.2717 C   0  0  0  0  0  0  0  0  0  0  0  0
    8.9205  -15.7391   25.5142 C   0  0  2  0  0  0  0  0  0  0  0  0
    8.6496  -16.0261   24.1308 N   0  0  0  0  0  0  0  0  0  0  0  0
    9.4505  -16.9746   26.1853 C   0  0  0  0  0  0  0  0  0  0  0  0
    9.6089  -18.1669   25.5067 O   0  0  0  0  0  0  0  0  0  0  0  0
    9.7620  -16.9313   27.4017 O   0  0  0  0  0  0  0  0  0  0  0  0
  1  2  1  0
  2  3  1  0
  4  3  1  0
  5  1  1  0
  5  4  1  0
  6  7  2  0
  5  6  1  1
  8  9  1  0
 10  9  1  0
 10 11  1  0
 12 11  1  1
 12 13  1  0
 12 14  1  0
 13  6  1  0
 14 15  2  0
 14 21  1  0
 16 17  1  0
 17 18  1  0
 19 18  1  0
 20 19  1  1
 20 22  1  0
 21 20  1  0
 22 24  2  0
 22 23  1  0
M  END
$$$$
