PMM.pdb
     RDKit          3D

 24 24  0  0  1  0  0  0  0  0999 V2000
    6.8925  -19.8462   22.0362 N   0  0  0  0  0  0  0  0  0  0  0  0
    5.7495  -20.6163   21.5798 C   0  0  0  0  0  0  0  0  0  0  0  0
    5.2503  -19.9706   20.3050 C   0  0  0  0  0  0  0  0  0  0  0  0
    6.1881  -18.7635   20.1418 C   0  0  0  0  0  0  0  0  0  0  0  0
    7.4141  -19.3093   20.8291 C   0  0  1  0  0  0  0  0  0  0  0  0
    8.5041  -18.3600   20.9729 C   0  0  0  0  0  0  0  0  0  0  0  0
    9.3895  -18.3265   20.0538 O   0  0  0  0  0  0  0  0  0  0  0  0
    6.6591  -11.8984   20.7143 C   0  0  0  0  0  0  0  0  0  0  0  0
    8.0200  -13.0129   20.2780 S   0  0  0  0  0  0  0  0  0  0  0  0
    7.9329  -14.5713   21.1333 C   0  0  0  0  0  0  0  0  0  0  0  0
    9.0968  -15.4363   20.9198 C   0  0  0  0  0  0  0  0  0  0  0  0
    9.6080  -16.3139   22.0147 C   0  0  2  0  0  0  0  0  0  0  0  0
    8.6834  -17.4573   22.0450 N   0  0  0  0  0  0  0  0  0  0  0  0
    9.6700  -15.6350   23.2949 C   0  0  0  0  0  0  0  0  0  0  0  0
   10.5271  -14.7358   23.4812 O   0  0  0  0  0  0  0  0  0  0  0  0
    6.4639  -11.0252   25.9481 C   0  0  0  0  0  0  0  0  0  0  0  0
    7.2508  -12.3885   26.8319 S   0  0  0  0  0  0  0  0  0  0  0  0
    7.4703  -13.8264   25.7386 C   0  0  0  0  0  0  0  0  0  0  0  0
    8.1283  -14.9359   26.5308 C   0  0  0  0  0  0  0  0  0  0  0  0
    9.2433  -15.5916   25.7290 C   0  0  2  0  0  0  0  0  0  0  0  0
    8.8118  -15.9118   24.3945 N   0  0  0  0  0  0  0  0  0  0  0  0
    9.5543  -16.8610   26.4706 C   0  0  0  0  0  0  0  0  0  0  0  0
   10.0926  -16.8540   27.7423 O   0  0  0  0  0  0  0  0  0  0  0  0
    9.3208  -17.9681   25.9245 O   0  0  0  0  0  0  0  0  0  0  0  0
  1  2  1  0
  2  3  1  0
  4  3  1  0
  5  1  1  0
  5  4  1  0
  6  7  2  0
  5  6  1  1
  8  9  1  0
 10  9  1  0
 10 11  1  0
 12 11  1  6
 12 13  1  0
 12 14  1  0
 13  6  1  0
 14 15  2  0
 14 21  1  0
 16 17  1  0
 17 18  1  0
 19 18  1  0
 20 19  1  1
 20 22  1  0
 21 20  1  0
 22 24  2  0
 22 23  1  0
M  END
$$$$
