FQE.pdb
     RDKit          3D

 30 30  0  0  1  0  0  0  0  0999 V2000
    5.8085  -18.0465   25.2480 N   0  0  0  0  0  0  0  0  0  0  0  0
    6.1448  -16.6384   25.1779 C   0  0  1  0  0  0  0  0  0  0  0  0
    6.5025  -16.1674   26.5877 C   0  0  0  0  0  0  0  0  0  0  0  0
    6.7236  -14.7076   26.5675 C   0  0  0  0  0  0  0  0  0  0  0  0
    7.9910  -14.2001   26.6219 C   0  0  0  0  0  0  0  0  0  0  0  0
    8.1741  -12.8433   26.6021 C   0  0  0  0  0  0  0  0  0  0  0  0
    7.1121  -11.9650   26.5284 C   0  0  0  0  0  0  0  0  0  0  0  0
    5.8448  -12.4966   26.4745 C   0  0  0  0  0  0  0  0  0  0  0  0
    5.6453  -13.8674   26.4938 C   0  0  0  0  0  0  0  0  0  0  0  0
    7.3440  -16.4562   24.3429 C   0  0  0  0  0  0  0  0  0  0  0  0
    8.3047  -17.2638   24.4368 O   0  0  0  0  0  0  0  0  0  0  0  0
    8.6644  -15.9218   19.4242 N   0  0  0  0  0  0  0  0  0  0  0  0
    7.3748  -15.3453   19.5959 C   0  0  0  0  0  0  0  0  0  0  0  0
    6.4530  -15.7237   18.8280 O   0  0  0  0  0  0  0  0  0  0  0  0
    7.1521  -14.3172   20.6720 C   0  0  0  0  0  0  0  0  0  0  0  0
    8.4167  -14.2127   21.4480 C   0  0  0  0  0  0  0  0  0  0  0  0
    8.5955  -15.2353   22.5176 C   0  0  2  0  0  0  0  0  0  0  0  0
    7.4761  -15.3784   23.4049 N   0  0  0  0  0  0  0  0  0  0  0  0
    9.8834  -15.0834   23.2724 C   0  0  0  0  0  0  0  0  0  0  0  0
    9.9180  -14.4780   24.3788 O   0  0  0  0  0  0  0  0  0  0  0  0
   11.0496  -15.6453   22.6914 N   0  0  0  0  0  0  0  0  0  0  0  0
   12.1730  -16.1293   23.5181 C   0  0  1  0  0  0  0  0  0  0  0  0
   11.6483  -17.1665   24.4484 C   0  0  0  0  0  0  0  0  0  0  0  0
   11.7707  -16.8375   25.9079 C   0  0  0  0  0  0  0  0  0  0  0  0
   10.9820  -17.8488   26.6701 C   0  0  0  0  0  0  0  0  0  0  0  0
   10.3213  -18.7198   26.0788 O   0  0  0  0  0  0  0  0  0  0  0  0
   13.2326  -16.6425   22.6410 C   0  0  0  0  0  0  0  0  0  0  0  0
   13.0209  -17.6744   21.7653 O   0  0  0  0  0  0  0  0  0  0  0  0
   10.9860  -17.8169   28.0533 O   0  0  0  0  0  0  0  0  0  0  0  0
   14.4131  -16.1473   22.6555 O   0  0  0  0  0  0  0  0  0  0  0  0
  2  1  1  1
  2 10  1  0
  3  2  1  0
  3  4  1  0
  4  5  2  0
  4  9  1  0
  5  6  1  0
  6  7  2  0
  8  7  1  0
  9  8  2  0
 10 11  2  0
 13 14  2  0
 13 12  1  0
 15 13  1  0
 17 16  1  1
 16 15  1  0
 17 19  1  0
 18 10  1  0
 18 17  1  0
 19 20  2  0
 21 19  1  0
 21 22  1  0
 22 27  1  0
 23 24  1  0
 22 23  1  1
 24 25  1  0
 25 29  1  0
 25 26  2  0
 27 28  1  0
 30 27  2  0
M  END
$$$$
