FQE.pdb
     RDKit          3D

 30 30  0  0  1  0  0  0  0  0999 V2000
    8.8346  -14.2724   24.8848 N   0  0  0  0  0  0  0  0  0  0  0  0
    7.8588  -15.3196   24.6570 C   0  0  1  0  0  0  0  0  0  0  0  0
    6.4738  -14.7494   24.9635 C   0  0  0  0  0  0  0  0  0  0  0  0
    6.6142  -13.6182   25.9022 C   0  0  0  0  0  0  0  0  0  0  0  0
    7.0191  -12.3933   25.4521 C   0  0  0  0  0  0  0  0  0  0  0  0
    7.1429  -11.3576   26.3391 C   0  0  0  0  0  0  0  0  0  0  0  0
    6.8700  -11.5117   27.6831 C   0  0  0  0  0  0  0  0  0  0  0  0
    6.4639  -12.7527   28.1153 C   0  0  0  0  0  0  0  0  0  0  0  0
    6.3345  -13.8092   27.2286 C   0  0  0  0  0  0  0  0  0  0  0  0
    7.8649  -15.7019   23.2350 C   0  0  0  0  0  0  0  0  0  0  0  0
    7.3080  -16.7693   22.8680 O   0  0  0  0  0  0  0  0  0  0  0  0
    8.1054  -12.7117   17.8838 N   0  0  0  0  0  0  0  0  0  0  0  0
    8.5420  -13.9914   17.4401 C   0  0  0  0  0  0  0  0  0  0  0  0
    8.6076  -14.1946   16.2004 O   0  0  0  0  0  0  0  0  0  0  0  0
    8.9069  -15.0481   18.4474 C   0  0  0  0  0  0  0  0  0  0  0  0
    8.6137  -14.4904   19.7948 C   0  0  0  0  0  0  0  0  0  0  0  0
    8.8776  -15.4104   20.9375 C   0  0  2  0  0  0  0  0  0  0  0  0
    8.4886  -14.8999   22.2216 N   0  0  0  0  0  0  0  0  0  0  0  0
   10.2799  -15.9439   20.9563 C   0  0  0  0  0  0  0  0  0  0  0  0
   11.2702  -15.1639   20.9060 O   0  0  0  0  0  0  0  0  0  0  0  0
   10.4407  -17.3516   21.0318 N   0  0  0  0  0  0  0  0  0  0  0  0
   11.7232  -17.9666   21.4277 C   0  0  1  0  0  0  0  0  0  0  0  0
   11.4439  -18.9764   22.4854 C   0  0  0  0  0  0  0  0  0  0  0  0
   11.8581  -18.5807   23.8729 C   0  0  0  0  0  0  0  0  0  0  0  0
   11.4683  -19.6853   24.7968 C   0  0  0  0  0  0  0  0  0  0  0  0
   10.3799  -19.6608   25.3965 O   0  0  0  0  0  0  0  0  0  0  0  0
   12.3643  -18.5524   20.2440 C   0  0  0  0  0  0  0  0  0  0  0  0
   11.6943  -18.7304   19.0625 O   0  0  0  0  0  0  0  0  0  0  0  0
   12.3294  -20.7511   24.9887 O   0  0  0  0  0  0  0  0  0  0  0  0
   13.5878  -18.9288   20.2617 O   0  0  0  0  0  0  0  0  0  0  0  0
  2  1  1  6
  2 10  1  0
  3  2  1  0
  3  4  1  0
  4  5  2  0
  4  9  1  0
  5  6  1  0
  6  7  2  0
  8  7  1  0
  9  8  2  0
 10 11  2  0
 13 14  2  0
 13 12  1  0
 15 13  1  0
 17 16  1  6
 16 15  1  0
 17 19  1  0
 18 10  1  0
 18 17  1  0
 19 20  2  0
 21 19  1  0
 21 22  1  0
 22 27  1  0
 23 24  1  0
 22 23  1  1
 24 25  1  0
 25 29  1  0
 25 26  2  0
 27 28  1  0
 30 27  2  0
M  END
$$$$
