FQE.pdb
     RDKit          3D

 30 30  0  0  1  0  0  0  0  0999 V2000
    6.3241  -15.8992   25.5558 N   0  0  0  0  0  0  0  0  0  0  0  0
    7.0816  -15.0384   24.6692 C   0  0  1  0  0  0  0  0  0  0  0  0
    7.9999  -14.1677   25.5268 C   0  0  0  0  0  0  0  0  0  0  0  0
    7.2061  -13.0808   26.1342 C   0  0  0  0  0  0  0  0  0  0  0  0
    6.8184  -12.0065   25.3842 C   0  0  0  0  0  0  0  0  0  0  0  0
    6.0827  -11.0094   25.9667 C   0  0  0  0  0  0  0  0  0  0  0  0
    5.7171  -11.0545   27.2968 C   0  0  0  0  0  0  0  0  0  0  0  0
    6.1176  -12.1445   28.0337 C   0  0  0  0  0  0  0  0  0  0  0  0
    6.8623  -13.1603   27.4569 C   0  0  0  0  0  0  0  0  0  0  0  0
    7.9459  -15.8570   23.8025 C   0  0  0  0  0  0  0  0  0  0  0  0
    8.4189  -16.9422   24.2301 O   0  0  0  0  0  0  0  0  0  0  0  0
    9.6387  -13.4213   19.0028 N   0  0  0  0  0  0  0  0  0  0  0  0
    8.3088  -13.9275   19.0111 C   0  0  0  0  0  0  0  0  0  0  0  0
    7.4166  -13.2499   18.4390 O   0  0  0  0  0  0  0  0  0  0  0  0
    8.0105  -15.2361   19.6917 C   0  0  0  0  0  0  0  0  0  0  0  0
    9.2961  -15.7525   20.2331 C   0  0  0  0  0  0  0  0  0  0  0  0
    9.2699  -16.1499   21.6695 C   0  0  2  0  0  0  0  0  0  0  0  0
    8.2845  -15.4711   22.4625 N   0  0  0  0  0  0  0  0  0  0  0  0
   10.6224  -16.1138   22.3183 C   0  0  0  0  0  0  0  0  0  0  0  0
   11.1750  -15.0158   22.6027 O   0  0  0  0  0  0  0  0  0  0  0  0
   11.2462  -17.3578   22.5945 N   0  0  0  0  0  0  0  0  0  0  0  0
   12.5579  -17.4363   23.2677 C   0  0  1  0  0  0  0  0  0  0  0  0
   12.4801  -18.4986   24.3079 C   0  0  0  0  0  0  0  0  0  0  0  0
   11.4614  -18.2652   25.3855 C   0  0  0  0  0  0  0  0  0  0  0  0
   11.4816  -19.4479   26.2947 C   0  0  0  0  0  0  0  0  0  0  0  0
   10.4522  -20.1147   26.4964 O   0  0  0  0  0  0  0  0  0  0  0  0
   13.5995  -17.7015   22.2677 C   0  0  0  0  0  0  0  0  0  0  0  0
   14.9345  -17.6131   22.5616 O   0  0  0  0  0  0  0  0  0  0  0  0
   12.6614  -19.8072   26.9217 O   0  0  0  0  0  0  0  0  0  0  0  0
   13.3064  -18.0281   21.0651 O   0  0  0  0  0  0  0  0  0  0  0  0
  2  1  1  1
  2 10  1  0
  3  2  1  0
  3  4  1  0
  4  5  2  0
  4  9  1  0
  5  6  1  0
  6  7  2  0
  8  7  1  0
  9  8  2  0
 10 11  2  0
 13 14  2  0
 13 12  1  0
 15 13  1  0
 17 16  1  6
 16 15  1  0
 17 19  1  0
 18 10  1  0
 18 17  1  0
 19 20  2  0
 21 19  1  0
 21 22  1  0
 22 27  1  0
 23 24  1  0
 22 23  1  1
 24 25  1  0
 25 29  1  0
 25 26  2  0
 27 28  1  0
 30 27  2  0
M  END
$$$$
