FQE.pdb
     RDKit          3D

 30 30  0  0  1  0  0  0  0  0999 V2000
    6.2870  -16.4641   26.1119 N   0  0  0  0  0  0  0  0  0  0  0  0
    7.0322  -15.7909   25.0669 C   0  0  1  0  0  0  0  0  0  0  0  0
    8.0735  -14.8918   25.7335 C   0  0  0  0  0  0  0  0  0  0  0  0
    7.4039  -13.6856   26.2601 C   0  0  0  0  0  0  0  0  0  0  0  0
    8.0459  -12.8726   27.1509 C   0  0  0  0  0  0  0  0  0  0  0  0
    7.4072  -11.7589   27.6270 C   0  0  0  0  0  0  0  0  0  0  0  0
    6.1263  -11.4285   27.2334 C   0  0  0  0  0  0  0  0  0  0  0  0
    5.4982  -12.2603   26.3361 C   0  0  0  0  0  0  0  0  0  0  0  0
    6.1329  -13.3901   25.8465 C   0  0  0  0  0  0  0  0  0  0  0  0
    7.7666  -16.7830   24.2640 C   0  0  0  0  0  0  0  0  0  0  0  0
    7.9604  -17.9408   24.7180 O   0  0  0  0  0  0  0  0  0  0  0  0
    8.4028  -18.2003   18.1373 N   0  0  0  0  0  0  0  0  0  0  0  0
    9.1101  -16.9958   18.4092 C   0  0  0  0  0  0  0  0  0  0  0  0
    9.6756  -16.4145   17.4477 O   0  0  0  0  0  0  0  0  0  0  0  0
    9.1618  -16.4594   19.8143 C   0  0  0  0  0  0  0  0  0  0  0  0
    8.4022  -17.4062   20.6740 C   0  0  0  0  0  0  0  0  0  0  0  0
    8.8540  -17.4833   22.0924 C   0  0  2  0  0  0  0  0  0  0  0  0
    8.2853  -16.4898   22.9586 N   0  0  0  0  0  0  0  0  0  0  0  0
   10.3460  -17.5529   22.2354 C   0  0  0  0  0  0  0  0  0  0  0  0
   11.0632  -18.0315   21.3144 O   0  0  0  0  0  0  0  0  0  0  0  0
   10.9087  -17.0614   23.4416 N   0  0  0  0  0  0  0  0  0  0  0  0
   12.1331  -17.6474   24.0226 C   0  0  1  0  0  0  0  0  0  0  0  0
   13.2377  -16.6623   23.8613 C   0  0  0  0  0  0  0  0  0  0  0  0
   13.3983  -16.1023   22.4778 C   0  0  0  0  0  0  0  0  0  0  0  0
   14.8042  -15.6221   22.3415 C   0  0  0  0  0  0  0  0  0  0  0  0
   15.5782  -15.6313   23.3140 O   0  0  0  0  0  0  0  0  0  0  0  0
   11.8847  -17.9909   25.4282 C   0  0  0  0  0  0  0  0  0  0  0  0
   10.7138  -17.6712   26.0631 O   0  0  0  0  0  0  0  0  0  0  0  0
   15.2526  -15.1605   21.1168 O   0  0  0  0  0  0  0  0  0  0  0  0
   12.7583  -18.6082   26.1317 O   0  0  0  0  0  0  0  0  0  0  0  0
  2  1  1  1
  2 10  1  0
  3  2  1  0
  3  4  1  0
  4  5  2  0
  4  9  1  0
  5  6  1  0
  6  7  2  0
  8  7  1  0
  9  8  2  0
 10 11  2  0
 13 14  2  0
 13 12  1  0
 15 13  1  0
 17 16  1  6
 16 15  1  0
 17 19  1  0
 18 10  1  0
 18 17  1  0
 19 20  2  0
 21 19  1  0
 21 22  1  0
 22 27  1  0
 23 24  1  0
 22 23  1  1
 24 25  1  0
 25 29  1  0
 25 26  2  0
 27 28  1  0
 30 27  2  0
M  END
$$$$
