FQE.pdb
     RDKit          3D

 30 30  0  0  1  0  0  0  0  0999 V2000
    5.8916  -16.8420   25.4691 N   0  0  0  0  0  0  0  0  0  0  0  0
    6.8318  -16.0883   24.6637 C   0  0  1  0  0  0  0  0  0  0  0  0
    7.7634  -15.3308   25.6100 C   0  0  0  0  0  0  0  0  0  0  0  0
    7.2459  -13.9614   25.8034 C   0  0  0  0  0  0  0  0  0  0  0  0
    6.2913  -13.7108   26.7483 C   0  0  0  0  0  0  0  0  0  0  0  0
    5.8249  -12.4339   26.9116 C   0  0  0  0  0  0  0  0  0  0  0  0
    6.2911  -11.3837   26.1470 C   0  0  0  0  0  0  0  0  0  0  0  0
    7.2518  -11.6576   25.2017 C   0  0  0  0  0  0  0  0  0  0  0  0
    7.7324  -12.9450   25.0261 C   0  0  0  0  0  0  0  0  0  0  0  0
    7.6681  -17.0142   23.8816 C   0  0  0  0  0  0  0  0  0  0  0  0
    8.0057  -18.1235   24.3711 O   0  0  0  0  0  0  0  0  0  0  0  0
    9.2093  -16.8790   17.8140 N   0  0  0  0  0  0  0  0  0  0  0  0
   10.2713  -17.6926   18.2990 C   0  0  0  0  0  0  0  0  0  0  0  0
   11.0616  -18.1932   17.4580 O   0  0  0  0  0  0  0  0  0  0  0  0
   10.4180  -17.9280   19.7780 C   0  0  0  0  0  0  0  0  0  0  0  0
    9.3103  -17.1982   20.4509 C   0  0  0  0  0  0  0  0  0  0  0  0
    9.2283  -17.3835   21.9276 C   0  0  2  0  0  0  0  0  0  0  0  0
    8.1289  -16.7086   22.5574 N   0  0  0  0  0  0  0  0  0  0  0  0
   10.5240  -17.1060   22.6319 C   0  0  0  0  0  0  0  0  0  0  0  0
   10.8562  -15.9275   22.9359 O   0  0  0  0  0  0  0  0  0  0  0  0
   11.3510  -18.2178   22.9370 N   0  0  0  0  0  0  0  0  0  0  0  0
   12.6040  -18.0665   23.7031 C   0  0  1  0  0  0  0  0  0  0  0  0
   12.2672  -18.1119   25.1526 C   0  0  0  0  0  0  0  0  0  0  0  0
   11.4912  -19.3196   25.5914 C   0  0  0  0  0  0  0  0  0  0  0  0
   11.3746  -19.2702   27.0780 C   0  0  0  0  0  0  0  0  0  0  0  0
   10.7286  -20.1338   27.6959 O   0  0  0  0  0  0  0  0  0  0  0  0
   13.5425  -19.1245   23.3088 C   0  0  0  0  0  0  0  0  0  0  0  0
   14.8505  -19.1300   23.7152 O   0  0  0  0  0  0  0  0  0  0  0  0
   11.9935  -18.2499   27.7781 O   0  0  0  0  0  0  0  0  0  0  0  0
   13.1797  -20.0971   22.5596 O   0  0  0  0  0  0  0  0  0  0  0  0
  2  1  1  1
  2 10  1  0
  3  2  1  0
  3  4  1  0
  4  5  2  0
  4  9  1  0
  5  6  1  0
  6  7  2  0
  8  7  1  0
  9  8  2  0
 10 11  2  0
 13 14  2  0
 13 12  1  0
 15 13  1  0
 17 16  1  6
 16 15  1  0
 17 19  1  0
 18 10  1  0
 18 17  1  0
 19 20  2  0
 21 19  1  0
 21 22  1  0
 22 27  1  0
 23 24  1  0
 22 23  1  1
 24 25  1  0
 25 29  1  0
 25 26  2  0
 27 28  1  0
 30 27  2  0
M  END
$$$$
