FQE.pdb
     RDKit          3D

 30 30  0  0  1  0  0  0  0  0999 V2000
    5.8953  -17.6975   25.4773 N   0  0  0  0  0  0  0  0  0  0  0  0
    6.2650  -16.3422   25.1208 C   0  0  1  0  0  0  0  0  0  0  0  0
    6.9355  -15.7004   26.3356 C   0  0  0  0  0  0  0  0  0  0  0  0
    6.6472  -14.2522   26.3374 C   0  0  0  0  0  0  0  0  0  0  0  0
    5.4935  -13.7784   26.8952 C   0  0  0  0  0  0  0  0  0  0  0  0
    5.2452  -12.4319   26.8864 C   0  0  0  0  0  0  0  0  0  0  0  0
    6.1291  -11.5308   26.3283 C   0  0  0  0  0  0  0  0  0  0  0  0
    7.2844  -12.0287   25.7722 C   0  0  0  0  0  0  0  0  0  0  0  0
    7.5479  -13.3888   25.7743 C   0  0  0  0  0  0  0  0  0  0  0  0
    7.2633  -16.3691   24.0387 C   0  0  0  0  0  0  0  0  0  0  0  0
    8.1739  -17.2380   24.0441 O   0  0  0  0  0  0  0  0  0  0  0  0
    8.8114  -13.8851   17.1689 N   0  0  0  0  0  0  0  0  0  0  0  0
    8.2707  -13.7944   18.4820 C   0  0  0  0  0  0  0  0  0  0  0  0
    7.3298  -12.9825   18.6773 O   0  0  0  0  0  0  0  0  0  0  0  0
    8.8287  -14.6564   19.5821 C   0  0  0  0  0  0  0  0  0  0  0  0
    7.8605  -14.6099   20.7103 C   0  0  0  0  0  0  0  0  0  0  0  0
    8.2293  -15.4262   21.9017 C   0  0  2  0  0  0  0  0  0  0  0  0
    7.2506  -15.4321   22.9519 N   0  0  0  0  0  0  0  0  0  0  0  0
    9.6016  -15.1213   22.4265 C   0  0  0  0  0  0  0  0  0  0  0  0
    9.7605  -14.3596   23.4197 O   0  0  0  0  0  0  0  0  0  0  0  0
   10.7018  -15.7217   21.7617 N   0  0  0  0  0  0  0  0  0  0  0  0
   12.0626  -15.6967   22.3340 C   0  0  1  0  0  0  0  0  0  0  0  0
   12.0134  -16.3508   23.6705 C   0  0  0  0  0  0  0  0  0  0  0  0
   11.8189  -17.8391   23.6474 C   0  0  0  0  0  0  0  0  0  0  0  0
   11.9735  -18.3401   25.0441 C   0  0  0  0  0  0  0  0  0  0  0  0
   12.3773  -17.5902   25.9494 O   0  0  0  0  0  0  0  0  0  0  0  0
   12.9874  -16.3672   21.4117 C   0  0  0  0  0  0  0  0  0  0  0  0
   12.5527  -17.0346   20.2973 O   0  0  0  0  0  0  0  0  0  0  0  0
   11.6633  -19.6565   25.3358 O   0  0  0  0  0  0  0  0  0  0  0  0
   14.2523  -16.3610   21.6087 O   0  0  0  0  0  0  0  0  0  0  0  0
  2  1  1  1
  2 10  1  0
  3  2  1  0
  3  4  1  0
  4  5  2  0
  4  9  1  0
  5  6  1  0
  6  7  2  0
  8  7  1  0
  9  8  2  0
 10 11  2  0
 13 14  2  0
 13 12  1  0
 15 13  1  0
 17 16  1  6
 16 15  1  0
 17 19  1  0
 18 10  1  0
 18 17  1  0
 19 20  2  0
 21 19  1  0
 21 22  1  0
 22 27  1  0
 23 24  1  0
 22 23  1  1
 24 25  1  0
 25 29  1  0
 25 26  2  0
 27 28  1  0
 30 27  2  0
M  END
$$$$
