FQE.pdb
     RDKit          3D

 30 30  0  0  1  0  0  0  0  0999 V2000
    5.7094  -17.9549   24.8777 N   0  0  0  0  0  0  0  0  0  0  0  0
    6.1960  -16.5896   24.8748 C   0  0  1  0  0  0  0  0  0  0  0  0
    6.4631  -16.1803   26.3233 C   0  0  0  0  0  0  0  0  0  0  0  0
    6.8798  -14.7640   26.3559 C   0  0  0  0  0  0  0  0  0  0  0  0
    8.2025  -14.4351   26.4502 C   0  0  0  0  0  0  0  0  0  0  0  0
    8.5676  -13.1158   26.4789 C   0  0  0  0  0  0  0  0  0  0  0  0
    7.6360  -12.0996   26.4153 C   0  0  0  0  0  0  0  0  0  0  0  0
    6.3099  -12.4524   26.3207 C   0  0  0  0  0  0  0  0  0  0  0  0
    5.9268  -13.7834   26.2907 C   0  0  0  0  0  0  0  0  0  0  0  0
    7.4826  -16.5236   24.1616 C   0  0  0  0  0  0  0  0  0  0  0  0
    8.3918  -17.3528   24.4258 O   0  0  0  0  0  0  0  0  0  0  0  0
    6.1675  -13.7851   20.6015 N   0  0  0  0  0  0  0  0  0  0  0  0
    6.9795  -14.9278   20.3572 C   0  0  0  0  0  0  0  0  0  0  0  0
    6.4230  -16.0560   20.3511 O   0  0  0  0  0  0  0  0  0  0  0  0
    8.4555  -14.7594   20.1170 C   0  0  0  0  0  0  0  0  0  0  0  0
    9.0723  -14.3856   21.4180 C   0  0  0  0  0  0  0  0  0  0  0  0
    9.0186  -15.4355   22.4747 C   0  0  2  0  0  0  0  0  0  0  0  0
    7.7592  -15.5378   23.1562 N   0  0  0  0  0  0  0  0  0  0  0  0
   10.1652  -15.3629   23.4399 C   0  0  0  0  0  0  0  0  0  0  0  0
   10.1183  -14.6018   24.4450 O   0  0  0  0  0  0  0  0  0  0  0  0
   11.2938  -16.1805   23.1738 N   0  0  0  0  0  0  0  0  0  0  0  0
   12.3158  -16.4527   24.2039 C   0  0  1  0  0  0  0  0  0  0  0  0
   11.6621  -17.1920   25.3187 C   0  0  0  0  0  0  0  0  0  0  0  0
   12.5758  -17.6018   26.4370 C   0  0  0  0  0  0  0  0  0  0  0  0
   11.7672  -18.3716   27.4265 C   0  0  0  0  0  0  0  0  0  0  0  0
   12.2902  -18.8357   28.4541 O   0  0  0  0  0  0  0  0  0  0  0  0
   13.4223  -17.2055   23.6003 C   0  0  0  0  0  0  0  0  0  0  0  0
   14.6694  -17.2511   24.1652 O   0  0  0  0  0  0  0  0  0  0  0  0
   10.4175  -18.5718   27.1976 O   0  0  0  0  0  0  0  0  0  0  0  0
   13.2725  -17.8575   22.5088 O   0  0  0  0  0  0  0  0  0  0  0  0
  2  1  1  1
  2 10  1  0
  3  2  1  0
  3  4  1  0
  4  5  2  0
  4  9  1  0
  5  6  1  0
  6  7  2  0
  8  7  1  0
  9  8  2  0
 10 11  2  0
 13 14  2  0
 13 12  1  0
 15 13  1  0
 17 16  1  1
 16 15  1  0
 17 19  1  0
 18 10  1  0
 18 17  1  0
 19 20  2  0
 21 19  1  0
 21 22  1  0
 22 27  1  0
 23 24  1  0
 22 23  1  1
 24 25  1  0
 25 29  1  0
 25 26  2  0
 27 28  1  0
 30 27  2  0
M  END
$$$$
