FQE.pdb
     RDKit          3D

 30 30  0  0  1  0  0  0  0  0999 V2000
    6.3240  -16.1805   25.4906 N   0  0  0  0  0  0  0  0  0  0  0  0
    6.9482  -15.1369   24.7019 C   0  0  1  0  0  0  0  0  0  0  0  0
    7.9406  -14.3967   25.5988 C   0  0  0  0  0  0  0  0  0  0  0  0
    7.2568  -13.2525   26.2341 C   0  0  0  0  0  0  0  0  0  0  0  0
    7.0030  -13.2582   27.5766 C   0  0  0  0  0  0  0  0  0  0  0  0
    6.3678  -12.1873   28.1461 C   0  0  0  0  0  0  0  0  0  0  0  0
    5.9726  -11.0938   27.4026 C   0  0  0  0  0  0  0  0  0  0  0  0
    6.2377  -11.1082   26.0530 C   0  0  0  0  0  0  0  0  0  0  0  0
    6.8797  -12.1853   25.4641 C   0  0  0  0  0  0  0  0  0  0  0  0
    7.7227  -15.7410   23.6049 C   0  0  0  0  0  0  0  0  0  0  0  0
    8.2018  -16.8975   23.7353 O   0  0  0  0  0  0  0  0  0  0  0  0
    9.0360  -13.2851   17.8976 N   0  0  0  0  0  0  0  0  0  0  0  0
    7.8755  -14.0935   18.0548 C   0  0  0  0  0  0  0  0  0  0  0  0
    7.0041  -14.0564   17.1484 O   0  0  0  0  0  0  0  0  0  0  0  0
    7.7245  -14.9557   19.2789 C   0  0  0  0  0  0  0  0  0  0  0  0
    8.9315  -14.7385   20.1207 C   0  0  0  0  0  0  0  0  0  0  0  0
    8.9520  -15.4837   21.4114 C   0  0  2  0  0  0  0  0  0  0  0  0
    7.9650  -15.0614   22.3644 N   0  0  0  0  0  0  0  0  0  0  0  0
   10.3178  -15.5623   22.0278 C   0  0  0  0  0  0  0  0  0  0  0  0
   10.8382  -14.5540   22.5794 O   0  0  0  0  0  0  0  0  0  0  0  0
   10.9914  -16.8093   21.9628 N   0  0  0  0  0  0  0  0  0  0  0  0
   12.3677  -16.9758   22.4705 C   0  0  1  0  0  0  0  0  0  0  0  0
   12.3246  -17.9212   23.6199 C   0  0  0  0  0  0  0  0  0  0  0  0
   11.8016  -19.2918   23.3014 C   0  0  0  0  0  0  0  0  0  0  0  0
   11.9542  -20.1326   24.5243 C   0  0  0  0  0  0  0  0  0  0  0  0
   12.8828  -20.9530   24.6222 O   0  0  0  0  0  0  0  0  0  0  0  0
   13.2306  -17.4508   21.3818 C   0  0  0  0  0  0  0  0  0  0  0  0
   14.5906  -17.5451   21.5150 O   0  0  0  0  0  0  0  0  0  0  0  0
   11.0503  -19.9977   25.5630 O   0  0  0  0  0  0  0  0  0  0  0  0
   12.7486  -17.7996   20.2482 O   0  0  0  0  0  0  0  0  0  0  0  0
  2  1  1  1
  2 10  1  0
  3  2  1  0
  3  4  1  0
  4  5  2  0
  4  9  1  0
  5  6  1  0
  6  7  2  0
  8  7  1  0
  9  8  2  0
 10 11  2  0
 13 14  2  0
 13 12  1  0
 15 13  1  0
 17 16  1  6
 16 15  1  0
 17 19  1  0
 18 10  1  0
 18 17  1  0
 19 20  2  0
 21 19  1  0
 21 22  1  0
 22 27  1  0
 23 24  1  0
 22 23  1  1
 24 25  1  0
 25 29  1  0
 25 26  2  0
 27 28  1  0
 30 27  2  0
M  END
$$$$
