FQE.pdb
     RDKit          3D

 30 30  0  0  1  0  0  0  0  0999 V2000
    5.9777  -17.2079   25.3159 N   0  0  0  0  0  0  0  0  0  0  0  0
    6.8353  -16.0853   24.9922 C   0  0  1  0  0  0  0  0  0  0  0  0
    7.3972  -15.5277   26.3001 C   0  0  0  0  0  0  0  0  0  0  0  0
    7.0973  -14.0839   26.3778 C   0  0  0  0  0  0  0  0  0  0  0  0
    5.9013  -13.6528   26.8781 C   0  0  0  0  0  0  0  0  0  0  0  0
    5.6431  -12.3096   26.9414 C   0  0  0  0  0  0  0  0  0  0  0  0
    6.5586  -11.3699   26.5132 C   0  0  0  0  0  0  0  0  0  0  0  0
    7.7563  -11.8251   26.0132 C   0  0  0  0  0  0  0  0  0  0  0  0
    8.0304  -13.1812   25.9434 C   0  0  0  0  0  0  0  0  0  0  0  0
    7.9806  -16.5509   24.1923 C   0  0  0  0  0  0  0  0  0  0  0  0
    8.7240  -17.4666   24.6315 O   0  0  0  0  0  0  0  0  0  0  0  0
    7.5793  -16.1917   18.8548 N   0  0  0  0  0  0  0  0  0  0  0  0
    7.7069  -14.8870   19.4085 C   0  0  0  0  0  0  0  0  0  0  0  0
    6.9667  -13.9780   18.9522 O   0  0  0  0  0  0  0  0  0  0  0  0
    8.7059  -14.6342   20.5052 C   0  0  0  0  0  0  0  0  0  0  0  0
    9.4460  -15.9053   20.7267 C   0  0  0  0  0  0  0  0  0  0  0  0
    9.4310  -16.4170   22.1266 C   0  0  2  0  0  0  0  0  0  0  0  0
    8.2999  -16.0002   22.9062 N   0  0  0  0  0  0  0  0  0  0  0  0
   10.7214  -16.1836   22.8559 C   0  0  0  0  0  0  0  0  0  0  0  0
   11.2063  -15.0234   22.9590 O   0  0  0  0  0  0  0  0  0  0  0  0
   11.3659  -17.3154   23.4187 N   0  0  0  0  0  0  0  0  0  0  0  0
   12.6060  -17.1893   24.2099 C   0  0  1  0  0  0  0  0  0  0  0  0
   12.7519  -18.4178   25.0383 C   0  0  0  0  0  0  0  0  0  0  0  0
   14.0570  -18.5452   25.7690 C   0  0  0  0  0  0  0  0  0  0  0  0
   13.9939  -19.7818   26.6012 C   0  0  0  0  0  0  0  0  0  0  0  0
   13.9044  -19.7135   27.8390 O   0  0  0  0  0  0  0  0  0  0  0  0
   13.7406  -16.9839   23.3012 C   0  0  0  0  0  0  0  0  0  0  0  0
   13.8592  -17.6595   22.1155 O   0  0  0  0  0  0  0  0  0  0  0  0
   14.0354  -21.0210   25.9872 O   0  0  0  0  0  0  0  0  0  0  0  0
   14.6799  -16.1592   23.5777 O   0  0  0  0  0  0  0  0  0  0  0  0
  2  1  1  1
  2 10  1  0
  3  2  1  0
  3  4  1  0
  4  5  2  0
  4  9  1  0
  5  6  1  0
  6  7  2  0
  8  7  1  0
  9  8  2  0
 10 11  2  0
 13 14  2  0
 13 12  1  0
 15 13  1  0
 17 16  1  6
 16 15  1  0
 17 19  1  0
 18 10  1  0
 18 17  1  0
 19 20  2  0
 21 19  1  0
 21 22  1  0
 22 27  1  0
 23 24  1  0
 22 23  1  6
 24 25  1  0
 25 29  1  0
 25 26  2  0
 27 28  1  0
 30 27  2  0
M  END
$$$$
