FQE.pdb
     RDKit          3D

 30 30  0  0  1  0  0  0  0  0999 V2000
    6.3787  -17.5165   25.9644 N   0  0  0  0  0  0  0  0  0  0  0  0
    6.6502  -16.1862   25.4573 C   0  0  1  0  0  0  0  0  0  0  0  0
    7.7237  -15.5531   26.3428 C   0  0  0  0  0  0  0  0  0  0  0  0
    7.4375  -14.1124   26.4935 C   0  0  0  0  0  0  0  0  0  0  0  0
    7.8064  -13.4501   27.6302 C   0  0  0  0  0  0  0  0  0  0  0  0
    7.5316  -12.1141   27.7500 C   0  0  0  0  0  0  0  0  0  0  0  0
    6.8892  -11.4093   26.7523 C   0  0  0  0  0  0  0  0  0  0  0  0
    6.5265  -12.0948   25.6165 C   0  0  0  0  0  0  0  0  0  0  0  0
    6.7985  -13.4466   25.4823 C   0  0  0  0  0  0  0  0  0  0  0  0
    7.2087  -16.2783   24.0980 C   0  0  0  0  0  0  0  0  0  0  0  0
    8.0140  -17.2017   23.8098 O   0  0  0  0  0  0  0  0  0  0  0  0
    8.5134  -12.3235   19.3380 N   0  0  0  0  0  0  0  0  0  0  0  0
    8.5984  -13.7385   19.2137 C   0  0  0  0  0  0  0  0  0  0  0  0
    9.7243  -14.2419   18.9658 O   0  0  0  0  0  0  0  0  0  0  0  0
    7.3617  -14.5798   19.3792 C   0  0  0  0  0  0  0  0  0  0  0  0
    6.8973  -14.4067   20.7817 C   0  0  0  0  0  0  0  0  0  0  0  0
    7.5191  -15.3248   21.7778 C   0  0  2  0  0  0  0  0  0  0  0  0
    6.8734  -15.3462   23.0598 N   0  0  0  0  0  0  0  0  0  0  0  0
    9.0023  -15.1391   21.9087 C   0  0  0  0  0  0  0  0  0  0  0  0
    9.4787  -14.2273   22.6391 O   0  0  0  0  0  0  0  0  0  0  0  0
    9.8369  -16.0262   21.1810 N   0  0  0  0  0  0  0  0  0  0  0  0
   11.2478  -16.2477   21.5552 C   0  0  1  0  0  0  0  0  0  0  0  0
   11.2774  -16.8041   22.9357 C   0  0  0  0  0  0  0  0  0  0  0  0
   12.6315  -17.2283   23.4255 C   0  0  0  0  0  0  0  0  0  0  0  0
   12.4692  -17.7571   24.8111 C   0  0  0  0  0  0  0  0  0  0  0  0
   12.1817  -16.9991   25.7532 O   0  0  0  0  0  0  0  0  0  0  0  0
   11.8738  -17.1418   20.5733 C   0  0  0  0  0  0  0  0  0  0  0  0
   13.1878  -17.0192   20.2062 O   0  0  0  0  0  0  0  0  0  0  0  0
   12.6409  -19.1089   25.0507 O   0  0  0  0  0  0  0  0  0  0  0  0
   11.2152  -18.0834   20.0088 O   0  0  0  0  0  0  0  0  0  0  0  0
  2  1  1  1
  2 10  1  0
  3  2  1  0
  3  4  1  0
  4  5  2  0
  4  9  1  0
  5  6  1  0
  6  7  2  0
  8  7  1  0
  9  8  2  0
 10 11  2  0
 13 14  2  0
 13 12  1  0
 15 13  1  0
 17 16  1  6
 16 15  1  0
 17 19  1  0
 18 10  1  0
 18 17  1  0
 19 20  2  0
 21 19  1  0
 21 22  1  0
 22 27  1  0
 23 24  1  0
 22 23  1  1
 24 25  1  0
 25 29  1  0
 25 26  2  0
 27 28  1  0
 30 27  2  0
M  END
$$$$
