FQE.pdb
     RDKit          3D

 30 30  0  0  1  0  0  0  0  0999 V2000
    6.4378  -16.2308   25.4106 N   0  0  0  0  0  0  0  0  0  0  0  0
    6.8672  -15.2157   24.4694 C   0  0  1  0  0  0  0  0  0  0  0  0
    7.8014  -14.2546   25.2047 C   0  0  0  0  0  0  0  0  0  0  0  0
    7.0100  -13.4383   26.1471 C   0  0  0  0  0  0  0  0  0  0  0  0
    7.1779  -13.5825   27.4953 C   0  0  0  0  0  0  0  0  0  0  0  0
    6.4341  -12.8159   28.3519 C   0  0  0  0  0  0  0  0  0  0  0  0
    5.5133  -11.8952   27.8944 C   0  0  0  0  0  0  0  0  0  0  0  0
    5.3600  -11.7658   26.5337 C   0  0  0  0  0  0  0  0  0  0  0  0
    6.1060  -12.5352   25.6559 C   0  0  0  0  0  0  0  0  0  0  0  0
    7.6504  -15.8402   23.3900 C   0  0  0  0  0  0  0  0  0  0  0  0
    8.4879  -16.7401   23.6599 O   0  0  0  0  0  0  0  0  0  0  0  0
    8.4267  -12.5894   17.6546 N   0  0  0  0  0  0  0  0  0  0  0  0
    7.6962  -13.7299   18.0915 C   0  0  0  0  0  0  0  0  0  0  0  0
    7.4580  -14.6348   17.2509 O   0  0  0  0  0  0  0  0  0  0  0  0
    7.2367  -13.8212   19.5216 C   0  0  0  0  0  0  0  0  0  0  0  0
    8.4557  -13.8937   20.3708 C   0  0  0  0  0  0  0  0  0  0  0  0
    8.6122  -15.1506   21.1566 C   0  0  2  0  0  0  0  0  0  0  0  0
    7.5037  -15.4657   22.0125 N   0  0  0  0  0  0  0  0  0  0  0  0
    9.9182  -15.2306   21.8912 C   0  0  0  0  0  0  0  0  0  0  0  0
   10.1956  -14.4115   22.8098 O   0  0  0  0  0  0  0  0  0  0  0  0
   10.8186  -16.2586   21.5098 N   0  0  0  0  0  0  0  0  0  0  0  0
   12.1385  -16.4130   22.1530 C   0  0  1  0  0  0  0  0  0  0  0  0
   11.9227  -16.5698   23.6177 C   0  0  0  0  0  0  0  0  0  0  0  0
   11.1773  -17.8074   24.0255 C   0  0  0  0  0  0  0  0  0  0  0  0
   11.1996  -17.8819   25.5154 C   0  0  0  0  0  0  0  0  0  0  0  0
   10.2205  -18.3150   26.1468 O   0  0  0  0  0  0  0  0  0  0  0  0
   12.8344  -17.5614   21.5594 C   0  0  0  0  0  0  0  0  0  0  0  0
   12.2205  -18.4131   20.6796 O   0  0  0  0  0  0  0  0  0  0  0  0
   12.3247  -17.4637   26.2034 O   0  0  0  0  0  0  0  0  0  0  0  0
   14.0557  -17.8232   21.8401 O   0  0  0  0  0  0  0  0  0  0  0  0
  2  1  1  1
  2 10  1  0
  3  2  1  0
  3  4  1  0
  4  5  2  0
  4  9  1  0
  5  6  1  0
  6  7  2  0
  8  7  1  0
  9  8  2  0
 10 11  2  0
 13 14  2  0
 13 12  1  0
 15 13  1  0
 17 16  1  1
 16 15  1  0
 17 19  1  0
 18 10  1  0
 18 17  1  0
 19 20  2  0
 21 19  1  0
 21 22  1  0
 22 27  1  0
 23 24  1  0
 22 23  1  1
 24 25  1  0
 25 29  1  0
 25 26  2  0
 27 28  1  0
 30 27  2  0
M  END
$$$$
