FQE.pdb
     RDKit          3D

 30 30  0  0  1  0  0  0  0  0999 V2000
    5.9017  -17.9603   25.3574 N   0  0  0  0  0  0  0  0  0  0  0  0
    6.1687  -16.5399   25.2481 C   0  0  1  0  0  0  0  0  0  0  0  0
    6.6994  -16.0539   26.5970 C   0  0  0  0  0  0  0  0  0  0  0  0
    6.6815  -14.5775   26.6194 C   0  0  0  0  0  0  0  0  0  0  0  0
    5.7921  -13.8857   25.8466 C   0  0  0  0  0  0  0  0  0  0  0  0
    5.7920  -12.5170   25.8821 C   0  0  0  0  0  0  0  0  0  0  0  0
    6.6677  -11.8079   26.6791 C   0  0  0  0  0  0  0  0  0  0  0  0
    7.5547  -12.5236   27.4490 C   0  0  0  0  0  0  0  0  0  0  0  0
    7.5655  -13.9086   27.4226 C   0  0  0  0  0  0  0  0  0  0  0  0
    7.2323  -16.3104   24.2559 C   0  0  0  0  0  0  0  0  0  0  0  0
    8.2238  -17.0841   24.2058 O   0  0  0  0  0  0  0  0  0  0  0  0
    6.7950  -13.4776   18.9636 N   0  0  0  0  0  0  0  0  0  0  0  0
    8.2174  -13.4780   19.0056 C   0  0  0  0  0  0  0  0  0  0  0  0
    8.8390  -13.3248   17.9227 O   0  0  0  0  0  0  0  0  0  0  0  0
    8.9271  -13.6581   20.3203 C   0  0  0  0  0  0  0  0  0  0  0  0
    7.8850  -13.9127   21.3506 C   0  0  0  0  0  0  0  0  0  0  0  0
    8.1775  -15.0311   22.2915 C   0  0  2  0  0  0  0  0  0  0  0  0
    7.1949  -15.2229   23.3204 N   0  0  0  0  0  0  0  0  0  0  0  0
    9.5669  -14.9814   22.8562 C   0  0  0  0  0  0  0  0  0  0  0  0
   10.0877  -13.8846   23.1989 O   0  0  0  0  0  0  0  0  0  0  0  0
   10.2620  -16.2115   22.9858 N   0  0  0  0  0  0  0  0  0  0  0  0
   11.6763  -16.2636   23.4064 C   0  0  1  0  0  0  0  0  0  0  0  0
   11.8449  -17.4305   24.3155 C   0  0  0  0  0  0  0  0  0  0  0  0
   11.1287  -17.3254   25.6306 C   0  0  0  0  0  0  0  0  0  0  0  0
   11.3765  -18.5878   26.3860 C   0  0  0  0  0  0  0  0  0  0  0  0
   12.0010  -19.5290   25.8674 O   0  0  0  0  0  0  0  0  0  0  0  0
   12.5318  -16.3479   22.2162 C   0  0  0  0  0  0  0  0  0  0  0  0
   12.0203  -16.5417   20.9604 O   0  0  0  0  0  0  0  0  0  0  0  0
   10.9051  -18.7127   27.6808 O   0  0  0  0  0  0  0  0  0  0  0  0
   13.8053  -16.2454   22.2977 O   0  0  0  0  0  0  0  0  0  0  0  0
  2  1  1  1
  2 10  1  0
  3  2  1  0
  3  4  1  0
  4  5  2  0
  4  9  1  0
  5  6  1  0
  6  7  2  0
  8  7  1  0
  9  8  2  0
 10 11  2  0
 13 14  2  0
 13 12  1  0
 15 13  1  0
 17 16  1  1
 16 15  1  0
 17 19  1  0
 18 10  1  0
 18 17  1  0
 19 20  2  0
 21 19  1  0
 21 22  1  0
 22 27  1  0
 23 24  1  0
 22 23  1  1
 24 25  1  0
 25 29  1  0
 25 26  2  0
 27 28  1  0
 30 27  2  0
M  END
$$$$
