FQE.pdb
     RDKit          3D

 30 30  0  0  1  0  0  0  0  0999 V2000
    5.8911  -18.0072   25.6775 N   0  0  0  0  0  0  0  0  0  0  0  0
    6.1541  -16.5946   25.4871 C   0  0  1  0  0  0  0  0  0  0  0  0
    6.6803  -16.0300   26.8068 C   0  0  0  0  0  0  0  0  0  0  0  0
    6.8020  -14.5631   26.6901 C   0  0  0  0  0  0  0  0  0  0  0  0
    5.6924  -13.7696   26.7668 C   0  0  0  0  0  0  0  0  0  0  0  0
    5.8272  -12.4115   26.6561 C   0  0  0  0  0  0  0  0  0  0  0  0
    7.0567  -11.8135   26.4681 C   0  0  0  0  0  0  0  0  0  0  0  0
    8.1608  -12.6303   26.3937 C   0  0  0  0  0  0  0  0  0  0  0  0
    8.0386  -14.0058   26.5041 C   0  0  0  0  0  0  0  0  0  0  0  0
    7.2192  -16.4193   24.4855 C   0  0  0  0  0  0  0  0  0  0  0  0
    8.2475  -17.1437   24.5271 O   0  0  0  0  0  0  0  0  0  0  0  0
    6.7979  -12.9513   19.2846 N   0  0  0  0  0  0  0  0  0  0  0  0
    8.1030  -13.4864   19.0965 C   0  0  0  0  0  0  0  0  0  0  0  0
    8.6746  -13.2728   17.9964 O   0  0  0  0  0  0  0  0  0  0  0  0
    8.7526  -14.2790   20.1984 C   0  0  0  0  0  0  0  0  0  0  0  0
    7.7748  -14.3600   21.3163 C   0  0  0  0  0  0  0  0  0  0  0  0
    8.1411  -15.2947   22.4181 C   0  0  2  0  0  0  0  0  0  0  0  0
    7.1423  -15.4406   23.4389 N   0  0  0  0  0  0  0  0  0  0  0  0
    9.4944  -15.0176   23.0042 C   0  0  0  0  0  0  0  0  0  0  0  0
    9.6972  -13.9900   23.7075 O   0  0  0  0  0  0  0  0  0  0  0  0
   10.5257  -15.9537   22.7341 N   0  0  0  0  0  0  0  0  0  0  0  0
   11.8792  -15.8041   23.3047 C   0  0  1  0  0  0  0  0  0  0  0  0
   11.8988  -16.4819   24.6301 C   0  0  0  0  0  0  0  0  0  0  0  0
   11.5676  -17.9458   24.6049 C   0  0  0  0  0  0  0  0  0  0  0  0
   11.8069  -18.4903   25.9731 C   0  0  0  0  0  0  0  0  0  0  0  0
   12.3272  -17.7879   26.8568 O   0  0  0  0  0  0  0  0  0  0  0  0
   12.8627  -16.3648   22.3700 C   0  0  0  0  0  0  0  0  0  0  0  0
   12.4924  -17.0443   21.2397 O   0  0  0  0  0  0  0  0  0  0  0  0
   11.4452  -19.7940   26.2623 O   0  0  0  0  0  0  0  0  0  0  0  0
   14.1215  -16.2457   22.5704 O   0  0  0  0  0  0  0  0  0  0  0  0
  2  1  1  1
  2 10  1  0
  3  2  1  0
  3  4  1  0
  4  5  2  0
  4  9  1  0
  5  6  1  0
  6  7  2  0
  8  7  1  0
  9  8  2  0
 10 11  2  0
 13 14  2  0
 13 12  1  0
 15 13  1  0
 17 16  1  6
 16 15  1  0
 17 19  1  0
 18 10  1  0
 18 17  1  0
 19 20  2  0
 21 19  1  0
 21 22  1  0
 22 27  1  0
 23 24  1  0
 22 23  1  1
 24 25  1  0
 25 29  1  0
 25 26  2  0
 27 28  1  0
 30 27  2  0
M  END
$$$$
