FQE.pdb
     RDKit          3D

 30 30  0  0  1  0  0  0  0  0999 V2000
    6.2996  -15.3398   21.5383 N   0  0  0  0  0  0  0  0  0  0  0  0
    7.1010  -14.7912   22.6142 C   0  0  1  0  0  0  0  0  0  0  0  0
    6.1849  -14.5630   23.8166 C   0  0  0  0  0  0  0  0  0  0  0  0
    6.9620  -13.9341   24.9033 C   0  0  0  0  0  0  0  0  0  0  0  0
    7.1280  -12.5784   24.9385 C   0  0  0  0  0  0  0  0  0  0  0  0
    7.8522  -12.0152   25.9549 C   0  0  0  0  0  0  0  0  0  0  0  0
    8.4243  -12.7781   26.9526 C   0  0  0  0  0  0  0  0  0  0  0  0
    8.2451  -14.1407   26.8984 C   0  0  0  0  0  0  0  0  0  0  0  0
    7.5147  -14.7235   25.8756 C   0  0  0  0  0  0  0  0  0  0  0  0
    8.1184  -15.7734   23.0249 C   0  0  0  0  0  0  0  0  0  0  0  0
    7.7720  -16.9374   23.3555 O   0  0  0  0  0  0  0  0  0  0  0  0
   13.2615  -18.2108   21.1340 N   0  0  0  0  0  0  0  0  0  0  0  0
   12.1673  -17.7882   20.3282 C   0  0  0  0  0  0  0  0  0  0  0  0
   12.0378  -18.3086   19.1903 O   0  0  0  0  0  0  0  0  0  0  0  0
   11.2119  -16.7490   20.8494 C   0  0  0  0  0  0  0  0  0  0  0  0
   11.6308  -16.4250   22.2394 C   0  0  0  0  0  0  0  0  0  0  0  0
   10.5420  -16.4524   23.2569 C   0  0  2  0  0  0  0  0  0  0  0  0
    9.5188  -15.4633   23.0684 N   0  0  0  0  0  0  0  0  0  0  0  0
   11.0510  -16.4592   24.6685 C   0  0  0  0  0  0  0  0  0  0  0  0
   11.5162  -15.4109   25.1941 O   0  0  0  0  0  0  0  0  0  0  0  0
   10.9869  -17.6860   25.3785 N   0  0  0  0  0  0  0  0  0  0  0  0
   11.5647  -17.8326   26.7292 C   0  0  1  0  0  0  0  0  0  0  0  0
   10.7007  -18.7668   27.5020 C   0  0  0  0  0  0  0  0  0  0  0  0
   11.2074  -19.1237   28.8692 C   0  0  0  0  0  0  0  0  0  0  0  0
   10.2666  -20.1210   29.4573 C   0  0  0  0  0  0  0  0  0  0  0  0
   10.3588  -20.4585   30.6500 O   0  0  0  0  0  0  0  0  0  0  0  0
   12.9486  -18.3091   26.6140 C   0  0  0  0  0  0  0  0  0  0  0  0
   13.2920  -19.3727   25.8220 O   0  0  0  0  0  0  0  0  0  0  0  0
    9.2784  -20.6777   28.6649 O   0  0  0  0  0  0  0  0  0  0  0  0
   13.9055  -17.7498   27.2546 O   0  0  0  0  0  0  0  0  0  0  0  0
  2  1  1  6
  2 10  1  0
  3  2  1  0
  3  4  1  0
  4  5  2  0
  4  9  1  0
  5  6  1  0
  6  7  2  0
  8  7  1  0
  9  8  2  0
 10 11  2  0
 13 14  2  0
 13 12  1  0
 15 13  1  0
 17 16  1  6
 16 15  1  0
 17 19  1  0
 18 10  1  0
 18 17  1  0
 19 20  2  0
 21 19  1  0
 21 22  1  0
 22 27  1  0
 23 24  1  0
 22 23  1  1
 24 25  1  0
 25 29  1  0
 25 26  2  0
 27 28  1  0
 30 27  2  0
M  END
$$$$
