FQE.pdb
     RDKit          3D

 30 30  0  0  1  0  0  0  0  0999 V2000
    5.5135  -17.8512   25.1528 N   0  0  0  0  0  0  0  0  0  0  0  0
    6.0345  -16.5013   25.0697 C   0  0  1  0  0  0  0  0  0  0  0  0
    6.5677  -16.1149   26.4494 C   0  0  0  0  0  0  0  0  0  0  0  0
    6.7529  -14.6509   26.5029 C   0  0  0  0  0  0  0  0  0  0  0  0
    5.6829  -13.8263   26.7080 C   0  0  0  0  0  0  0  0  0  0  0  0
    5.8763  -12.4716   26.7542 C   0  0  0  0  0  0  0  0  0  0  0  0
    7.1263  -11.9076   26.5992 C   0  0  0  0  0  0  0  0  0  0  0  0
    8.1897  -12.7554   26.3939 C   0  0  0  0  0  0  0  0  0  0  0  0
    8.0081  -14.1278   26.3449 C   0  0  0  0  0  0  0  0  0  0  0  0
    7.1753  -16.4667   24.1391 C   0  0  0  0  0  0  0  0  0  0  0  0
    7.9971  -17.4197   24.1154 O   0  0  0  0  0  0  0  0  0  0  0  0
    7.3576  -13.2232   18.6033 N   0  0  0  0  0  0  0  0  0  0  0  0
    8.7150  -13.3770   19.0019 C   0  0  0  0  0  0  0  0  0  0  0  0
    9.5617  -12.5734   18.5330 O   0  0  0  0  0  0  0  0  0  0  0  0
    9.0945  -14.4768   19.9563 C   0  0  0  0  0  0  0  0  0  0  0  0
    8.2136  -14.3476   21.1478 C   0  0  0  0  0  0  0  0  0  0  0  0
    8.3715  -15.4143   22.1769 C   0  0  2  0  0  0  0  0  0  0  0  0
    7.4031  -15.3751   23.2360 N   0  0  0  0  0  0  0  0  0  0  0  0
    9.7701  -15.5200   22.7102 C   0  0  0  0  0  0  0  0  0  0  0  0
   10.2194  -14.6660   23.5230 O   0  0  0  0  0  0  0  0  0  0  0  0
   10.5572  -16.6126   22.2632 N   0  0  0  0  0  0  0  0  0  0  0  0
   11.9507  -16.8010   22.7129 C   0  0  1  0  0  0  0  0  0  0  0  0
   12.4115  -18.1358   22.2413 C   0  0  0  0  0  0  0  0  0  0  0  0
   13.7837  -18.5373   22.6989 C   0  0  0  0  0  0  0  0  0  0  0  0
   14.0559  -19.9071   22.1742 C   0  0  0  0  0  0  0  0  0  0  0  0
   13.4320  -20.8912   22.6069 O   0  0  0  0  0  0  0  0  0  0  0  0
   12.7781  -15.7039   22.1960 C   0  0  0  0  0  0  0  0  0  0  0  0
   13.8088  -15.1627   22.9179 O   0  0  0  0  0  0  0  0  0  0  0  0
   15.0151  -20.0845   21.1931 O   0  0  0  0  0  0  0  0  0  0  0  0
   12.5719  -15.1968   21.0387 O   0  0  0  0  0  0  0  0  0  0  0  0
  2  1  1  1
  2 10  1  0
  3  2  1  0
  3  4  1  0
  4  5  2  0
  4  9  1  0
  5  6  1  0
  6  7  2  0
  8  7  1  0
  9  8  2  0
 10 11  2  0
 13 14  2  0
 13 12  1  0
 15 13  1  0
 17 16  1  1
 16 15  1  0
 17 19  1  0
 18 10  1  0
 18 17  1  0
 19 20  2  0
 21 19  1  0
 21 22  1  0
 22 27  1  0
 23 24  1  0
 22 23  1  6
 24 25  1  0
 25 29  1  0
 25 26  2  0
 27 28  1  0
 30 27  2  0
M  END
$$$$
