FQE.pdb
     RDKit          3D

 30 30  0  0  1  0  0  0  0  0999 V2000
    8.2244  -15.4008   25.6856 N   0  0  0  0  0  0  0  0  0  0  0  0
    7.1821  -15.7007   24.7242 C   0  0  1  0  0  0  0  0  0  0  0  0
    6.4343  -14.4029   24.4179 C   0  0  0  0  0  0  0  0  0  0  0  0
    6.6420  -13.4523   25.5286 C   0  0  0  0  0  0  0  0  0  0  0  0
    7.7734  -12.6883   25.5814 C   0  0  0  0  0  0  0  0  0  0  0  0
    7.9466  -11.8129   26.6199 C   0  0  0  0  0  0  0  0  0  0  0  0
    7.0082  -11.6762   27.6227 C   0  0  0  0  0  0  0  0  0  0  0  0
    5.8766  -12.4546   27.5505 C   0  0  0  0  0  0  0  0  0  0  0  0
    5.6889  -13.3442   26.5053 C   0  0  0  0  0  0  0  0  0  0  0  0
    7.7881  -16.1596   23.4630 C   0  0  0  0  0  0  0  0  0  0  0  0
    7.5625  -17.3247   23.0438 O   0  0  0  0  0  0  0  0  0  0  0  0
    9.0742  -12.8721   18.8000 N   0  0  0  0  0  0  0  0  0  0  0  0
    8.1558  -13.8871   19.1889 C   0  0  0  0  0  0  0  0  0  0  0  0
    6.9340  -13.5913   19.2323 O   0  0  0  0  0  0  0  0  0  0  0  0
    8.6616  -15.2623   19.5318 C   0  0  0  0  0  0  0  0  0  0  0  0
    9.7818  -15.0907   20.4952 C   0  0  0  0  0  0  0  0  0  0  0  0
    9.6428  -15.8410   21.7757 C   0  0  2  0  0  0  0  0  0  0  0  0
    8.6437  -15.3255   22.6683 N   0  0  0  0  0  0  0  0  0  0  0  0
   10.9507  -16.0612   22.4775 C   0  0  0  0  0  0  0  0  0  0  0  0
   11.6286  -15.0866   22.9045 O   0  0  0  0  0  0  0  0  0  0  0  0
   11.3868  -17.4019   22.6376 N   0  0  0  0  0  0  0  0  0  0  0  0
   12.6099  -17.7355   23.3942 C   0  0  1  0  0  0  0  0  0  0  0  0
   12.2761  -18.8225   24.3552 C   0  0  0  0  0  0  0  0  0  0  0  0
   11.3827  -18.4191   25.4921 C   0  0  0  0  0  0  0  0  0  0  0  0
   11.1950  -19.6117   26.3687 C   0  0  0  0  0  0  0  0  0  0  0  0
   11.7124  -19.6608   27.4977 O   0  0  0  0  0  0  0  0  0  0  0  0
   13.6701  -18.1197   22.4542 C   0  0  0  0  0  0  0  0  0  0  0  0
   14.9939  -18.1214   22.8063 O   0  0  0  0  0  0  0  0  0  0  0  0
   10.4351  -20.6769   25.9191 O   0  0  0  0  0  0  0  0  0  0  0  0
   13.4050  -18.4718   21.2522 O   0  0  0  0  0  0  0  0  0  0  0  0
  2  1  1  1
  2 10  1  0
  3  2  1  0
  3  4  1  0
  4  5  2  0
  4  9  1  0
  5  6  1  0
  6  7  2  0
  8  7  1  0
  9  8  2  0
 10 11  2  0
 13 14  2  0
 13 12  1  0
 15 13  1  0
 17 16  1  6
 16 15  1  0
 17 19  1  0
 18 10  1  0
 18 17  1  0
 19 20  2  0
 21 19  1  0
 21 22  1  0
 22 27  1  0
 23 24  1  0
 22 23  1  1
 24 25  1  0
 25 29  1  0
 25 26  2  0
 27 28  1  0
 30 27  2  0
M  END
$$$$
