TCE.pdb
     RDKit          3D

 23 22  0  0  1  0  0  0  0  0999 V2000
   18.7765  -10.2681  -18.4339 C   0  0  0  0  0  0  0  0  0  0  0  0
   18.4355  -11.4160  -17.5206 C   0  0  1  0  0  0  0  0  0  0  0  0
   17.6970  -12.3463  -18.2824 O   0  0  0  0  0  0  0  0  0  0  0  0
   19.6820  -12.1310  -16.9825 C   0  0  2  0  0  0  0  0  0  0  0  0
   19.1513  -13.1838  -16.1022 N   0  0  0  0  0  0  0  0  0  0  0  0
   20.5038  -11.2289  -16.1255 C   0  0  0  0  0  0  0  0  0  0  0  0
   20.0154  -10.7951  -15.0333 O   0  0  0  0  0  0  0  0  0  0  0  0
   21.8134  -10.8587  -16.5185 N   0  0  0  0  0  0  0  0  0  0  0  0
   22.6267   -9.9620  -15.7076 C   0  0  1  0  0  0  0  0  0  0  0  0
   24.0864  -10.1291  -16.0650 C   0  0  0  0  0  0  0  0  0  0  0  0
   24.8809  -11.5193  -15.2540 S   0  0  0  0  0  0  0  0  0  0  0  0
   22.2434   -8.5505  -15.9446 C   0  0  0  0  0  0  0  0  0  0  0  0
   21.9140   -8.1623  -17.1246 O   0  0  0  0  0  0  0  0  0  0  0  0
   22.1915   -7.5260  -14.9727 N   0  0  0  0  0  0  0  0  0  0  0  0
   21.7164   -6.1852  -15.2516 C   0  0  1  0  0  0  0  0  0  0  0  0
   20.2011   -6.1357  -15.3185 C   0  0  0  0  0  0  0  0  0  0  0  0
   19.7225   -4.7410  -15.6285 C   0  0  0  0  0  0  0  0  0  0  0  0
   18.2652   -4.6629  -15.7775 C   0  0  0  0  0  0  0  0  0  0  0  0
   17.6570   -5.5269  -16.4595 O   0  0  0  0  0  0  0  0  0  0  0  0
   22.2521   -5.2752  -14.2226 C   0  0  0  0  0  0  0  0  0  0  0  0
   22.3371   -3.9204  -14.4729 O   0  0  0  0  0  0  0  0  0  0  0  0
   17.5265   -3.6558  -15.1842 O   0  0  0  0  0  0  0  0  0  0  0  0
   22.6437   -5.6886  -13.1018 O   0  0  0  0  0  0  0  0  0  0  0  0
  2  1  1  6
  3  2  1  0
  4  2  1  0
  4  5  1  1
  6  8  1  0
  6  4  1  0
  7  6  2  0
  9 12  1  0
  9  8  1  0
  9 10  1  6
 11 10  1  0
 12 14  1  0
 13 12  2  0
 14 15  1  0
 15 20  1  0
 15 16  1  1
 16 17  1  0
 18 22  1  0
 18 17  1  0
 19 18  2  0
 20 21  1  0
 23 20  2  0
M  END
$$$$
