TCE.pdb
     RDKit          3D

 23 22  0  0  1  0  0  0  0  0999 V2000
   18.5505   -8.2907  -19.5804 C   0  0  0  0  0  0  0  0  0  0  0  0
   17.7667   -9.5314  -19.2420 C   0  0  1  0  0  0  0  0  0  0  0  0
   17.0856   -9.9236  -20.4140 O   0  0  0  0  0  0  0  0  0  0  0  0
   18.6662  -10.6960  -18.8073 C   0  0  2  0  0  0  0  0  0  0  0  0
   17.7312  -11.7938  -18.5144 N   0  0  0  0  0  0  0  0  0  0  0  0
   19.3814  -10.3904  -17.5350 C   0  0  0  0  0  0  0  0  0  0  0  0
   18.7159  -10.3061  -16.4534 O   0  0  0  0  0  0  0  0  0  0  0  0
   20.7847  -10.1974  -17.5265 N   0  0  0  0  0  0  0  0  0  0  0  0
   21.4924   -9.8095  -16.3134 C   0  0  1  0  0  0  0  0  0  0  0  0
   22.8400  -10.4936  -16.2647 C   0  0  0  0  0  0  0  0  0  0  0  0
   23.8735   -9.9712  -14.8934 S   0  0  0  0  0  0  0  0  0  0  0  0
   21.7078   -8.3440  -16.2796 C   0  0  0  0  0  0  0  0  0  0  0  0
   21.7924   -7.6803  -17.3768 O   0  0  0  0  0  0  0  0  0  0  0  0
   21.8348   -7.5462  -15.1202 N   0  0  0  0  0  0  0  0  0  0  0  0
   21.9424   -6.1011  -15.1541 C   0  0  1  0  0  0  0  0  0  0  0  0
   20.7566   -5.4723  -15.8621 C   0  0  0  0  0  0  0  0  0  0  0  0
   20.8350   -3.9686  -15.8094 C   0  0  0  0  0  0  0  0  0  0  0  0
   19.6725   -3.3193  -16.4251 C   0  0  0  0  0  0  0  0  0  0  0  0
   18.6782   -4.0083  -16.7689 O   0  0  0  0  0  0  0  0  0  0  0  0
   22.0819   -5.6094  -13.7710 C   0  0  0  0  0  0  0  0  0  0  0  0
   22.6162   -4.3594  -13.5311 O   0  0  0  0  0  0  0  0  0  0  0  0
   19.6326   -1.9546  -16.6433 O   0  0  0  0  0  0  0  0  0  0  0  0
   21.7274   -6.2944  -12.7782 O   0  0  0  0  0  0  0  0  0  0  0  0
  2  1  1  6
  3  2  1  0
  4  2  1  0
  4  5  1  1
  6  8  1  0
  6  4  1  0
  7  6  2  0
  9 12  1  0
  9  8  1  0
  9 10  1  6
 11 10  1  0
 12 14  1  0
 13 12  2  0
 14 15  1  0
 15 20  1  0
 15 16  1  1
 16 17  1  0
 18 22  1  0
 18 17  1  0
 19 18  2  0
 20 21  1  0
 23 20  2  0
M  END
$$$$
