TCE.pdb
     RDKit          3D

 23 22  0  0  1  0  0  0  0  0999 V2000
   16.9067   -8.1700  -17.9869 C   0  0  0  0  0  0  0  0  0  0  0  0
   16.3211   -9.3774  -17.3033 C   0  0  1  0  0  0  0  0  0  0  0  0
   15.2567   -9.8341  -18.1094 O   0  0  0  0  0  0  0  0  0  0  0  0
   17.3320  -10.5233  -17.1635 C   0  0  2  0  0  0  0  0  0  0  0  0
   16.6018  -11.5714  -16.4332 N   0  0  0  0  0  0  0  0  0  0  0  0
   18.4894  -10.1314  -16.3088 C   0  0  0  0  0  0  0  0  0  0  0  0
   18.3113   -9.9681  -15.0592 O   0  0  0  0  0  0  0  0  0  0  0  0
   19.7732   -9.9441  -16.8772 N   0  0  0  0  0  0  0  0  0  0  0  0
   20.8849   -9.4243  -16.0919 C   0  0  1  0  0  0  0  0  0  0  0  0
   22.1620  -10.1371  -16.4759 C   0  0  0  0  0  0  0  0  0  0  0  0
   23.6367   -9.4491  -15.7187 S   0  0  0  0  0  0  0  0  0  0  0  0
   21.0645   -7.9739  -16.3361 C   0  0  0  0  0  0  0  0  0  0  0  0
   21.1076   -7.5243  -17.5393 O   0  0  0  0  0  0  0  0  0  0  0  0
   21.1981   -6.9721  -15.3485 N   0  0  0  0  0  0  0  0  0  0  0  0
   21.3389   -5.5626  -15.6560 C   0  0  1  0  0  0  0  0  0  0  0  0
   20.1475   -4.7642  -15.1601 C   0  0  0  0  0  0  0  0  0  0  0  0
   20.3363   -3.2938  -15.4298 C   0  0  0  0  0  0  0  0  0  0  0  0
   19.1970   -2.4855  -14.9821 C   0  0  0  0  0  0  0  0  0  0  0  0
   18.1659   -3.0487  -14.5335 O   0  0  0  0  0  0  0  0  0  0  0  0
   22.6051   -5.0808  -15.0742 C   0  0  0  0  0  0  0  0  0  0  0  0
   23.0541   -3.8054  -15.3526 O   0  0  0  0  0  0  0  0  0  0  0  0
   19.2190   -1.1041  -15.0377 O   0  0  0  0  0  0  0  0  0  0  0  0
   23.3099   -5.7969  -14.3185 O   0  0  0  0  0  0  0  0  0  0  0  0
  2  1  1  6
  3  2  1  0
  4  2  1  0
  4  5  1  1
  6  8  1  0
  6  4  1  0
  7  6  2  0
  9 12  1  0
  9  8  1  0
  9 10  1  6
 11 10  1  0
 12 14  1  0
 13 12  2  0
 14 15  1  0
 15 20  1  0
 15 16  1  1
 16 17  1  0
 18 22  1  0
 18 17  1  0
 19 18  2  0
 20 21  1  0
 23 20  2  0
M  END
$$$$
