TCE.pdb
     RDKit          3D

 23 22  0  0  1  0  0  0  0  0999 V2000
   18.3636   -9.0894  -18.6620 C   0  0  0  0  0  0  0  0  0  0  0  0
   17.7400  -10.3883  -18.2235 C   0  0  1  0  0  0  0  0  0  0  0  0
   17.1290  -10.9589  -19.3603 O   0  0  0  0  0  0  0  0  0  0  0  0
   18.7750  -11.3888  -17.6922 C   0  0  2  0  0  0  0  0  0  0  0  0
   17.9785  -12.5489  -17.2623 N   0  0  0  0  0  0  0  0  0  0  0  0
   19.4662  -10.8687  -16.4775 C   0  0  0  0  0  0  0  0  0  0  0  0
   18.8147  -10.7645  -15.3891 O   0  0  0  0  0  0  0  0  0  0  0  0
   20.8318  -10.4960  -16.5305 N   0  0  0  0  0  0  0  0  0  0  0  0
   21.4868   -9.8433  -15.4045 C   0  0  1  0  0  0  0  0  0  0  0  0
   22.8455  -10.4646  -15.1709 C   0  0  0  0  0  0  0  0  0  0  0  0
   23.8176   -9.6381  -13.9086 S   0  0  0  0  0  0  0  0  0  0  0  0
   21.6709   -8.3978  -15.6729 C   0  0  0  0  0  0  0  0  0  0  0  0
   21.8493   -7.9842  -16.8765 O   0  0  0  0  0  0  0  0  0  0  0  0
   21.6701   -7.3640  -14.7096 N   0  0  0  0  0  0  0  0  0  0  0  0
   21.7236   -5.9561  -15.0504 C   0  0  1  0  0  0  0  0  0  0  0  0
   20.4399   -5.4967  -15.7167 C   0  0  0  0  0  0  0  0  0  0  0  0
   20.4866   -4.0200  -16.0120 C   0  0  0  0  0  0  0  0  0  0  0  0
   19.2690   -3.5360  -16.6718 C   0  0  0  0  0  0  0  0  0  0  0  0
   18.3458   -4.3420  -16.9542 O   0  0  0  0  0  0  0  0  0  0  0  0
   22.0131   -5.1885  -13.8252 C   0  0  0  0  0  0  0  0  0  0  0  0
   21.9087   -5.7930  -12.5885 O   0  0  0  0  0  0  0  0  0  0  0  0
   19.0998   -2.2032  -16.9987 O   0  0  0  0  0  0  0  0  0  0  0  0
   22.3588   -3.9802  -13.8582 O   0  0  0  0  0  0  0  0  0  0  0  0
  2  1  1  6
  3  2  1  0
  4  2  1  0
  4  5  1  1
  6  8  1  0
  6  4  1  0
  7  6  2  0
  9 12  1  0
  9  8  1  0
  9 10  1  6
 11 10  1  0
 12 14  1  0
 13 12  2  0
 14 15  1  0
 15 20  1  0
 15 16  1  1
 16 17  1  0
 18 22  1  0
 18 17  1  0
 19 18  2  0
 20 21  1  0
 23 20  2  0
M  END
$$$$
