TCE.pdb
     RDKit          3D

 23 22  0  0  1  0  0  0  0  0999 V2000
   16.6022   -8.0790  -17.7909 C   0  0  0  0  0  0  0  0  0  0  0  0
   16.0996   -9.4221  -17.3308 C   0  0  1  0  0  0  0  0  0  0  0  0
   15.3081   -9.9477  -18.3741 O   0  0  0  0  0  0  0  0  0  0  0  0
   17.2374  -10.4143  -17.0563 C   0  0  2  0  0  0  0  0  0  0  0  0
   16.5624  -11.6137  -16.5359 N   0  0  0  0  0  0  0  0  0  0  0  0
   18.1404   -9.9266  -15.9744 C   0  0  0  0  0  0  0  0  0  0  0  0
   17.7461   -9.9797  -14.7655 O   0  0  0  0  0  0  0  0  0  0  0  0
   19.4229   -9.4114  -16.2849 N   0  0  0  0  0  0  0  0  0  0  0  0
   20.3232   -8.9326  -15.2442 C   0  0  1  0  0  0  0  0  0  0  0  0
   21.6167   -9.7147  -15.2852 C   0  0  0  0  0  0  0  0  0  0  0  0
   22.8673   -9.1153  -14.1458 S   0  0  0  0  0  0  0  0  0  0  0  0
   20.6352   -7.4977  -15.4422 C   0  0  0  0  0  0  0  0  0  0  0  0
   21.0932   -7.0883  -16.5710 O   0  0  0  0  0  0  0  0  0  0  0  0
   20.4769   -6.4701  -14.4852 N   0  0  0  0  0  0  0  0  0  0  0  0
   20.8465   -5.0897  -14.7284 C   0  0  1  0  0  0  0  0  0  0  0  0
   19.7357   -4.1379  -14.3247 C   0  0  0  0  0  0  0  0  0  0  0  0
   18.5681   -4.2427  -15.2712 C   0  0  0  0  0  0  0  0  0  0  0  0
   17.4842   -3.3120  -14.9381 C   0  0  0  0  0  0  0  0  0  0  0  0
   17.3850   -2.8568  -13.7700 O   0  0  0  0  0  0  0  0  0  0  0  0
   22.1020   -4.8075  -14.0086 C   0  0  0  0  0  0  0  0  0  0  0  0
   22.7890   -3.6345  -14.2485 O   0  0  0  0  0  0  0  0  0  0  0  0
   16.5540   -2.9122  -15.8797 O   0  0  0  0  0  0  0  0  0  0  0  0
   22.5852   -5.6066  -13.1669 O   0  0  0  0  0  0  0  0  0  0  0  0
  2  1  1  6
  3  2  1  0
  4  2  1  0
  4  5  1  1
  6  8  1  0
  6  4  1  0
  7  6  2  0
  9 12  1  0
  9  8  1  0
  9 10  1  6
 11 10  1  0
 12 14  1  0
 13 12  2  0
 14 15  1  0
 15 20  1  0
 15 16  1  1
 16 17  1  0
 18 22  1  0
 18 17  1  0
 19 18  2  0
 20 21  1  0
 23 20  2  0
M  END
$$$$
