TCE.pdb
     RDKit          3D

 23 22  0  0  1  0  0  0  0  0999 V2000
   18.3636  -13.0508  -17.3127 C   0  0  0  0  0  0  0  0  0  0  0  0
   18.3701  -14.3863  -16.6166 C   0  0  1  0  0  0  0  0  0  0  0  0
   17.5392  -15.2473  -17.3646 O   0  0  0  0  0  0  0  0  0  0  0  0
   19.7692  -15.0137  -16.5590 C   0  0  2  0  0  0  0  0  0  0  0  0
   19.5900  -16.2409  -15.7672 N   0  0  0  0  0  0  0  0  0  0  0  0
   20.7252  -14.1524  -15.8054 C   0  0  0  0  0  0  0  0  0  0  0  0
   20.5066  -13.9113  -14.5750 O   0  0  0  0  0  0  0  0  0  0  0  0
   21.8647  -13.6090  -16.4478 N   0  0  0  0  0  0  0  0  0  0  0  0
   22.7427  -12.6644  -15.7696 C   0  0  1  0  0  0  0  0  0  0  0  0
   24.1764  -12.9080  -16.1841 C   0  0  0  0  0  0  0  0  0  0  0  0
   25.0698  -14.0229  -15.0978 S   0  0  0  0  0  0  0  0  0  0  0  0
   22.3823  -11.2708  -16.1207 C   0  0  0  0  0  0  0  0  0  0  0  0
   22.0053  -10.9849  -17.3155 O   0  0  0  0  0  0  0  0  0  0  0  0
   22.4022  -10.1592  -15.2484 N   0  0  0  0  0  0  0  0  0  0  0  0
   22.0390   -8.8170  -15.6582 C   0  0  1  0  0  0  0  0  0  0  0  0
   22.1551   -7.8345  -14.5075 C   0  0  0  0  0  0  0  0  0  0  0  0
   21.7328   -6.4531  -14.9361 C   0  0  0  0  0  0  0  0  0  0  0  0
   21.9279   -5.4498  -13.8838 C   0  0  0  0  0  0  0  0  0  0  0  0
   22.4485   -5.7825  -12.7884 O   0  0  0  0  0  0  0  0  0  0  0  0
   22.8879   -8.4304  -16.8001 C   0  0  0  0  0  0  0  0  0  0  0  0
   22.3337   -7.7867  -17.8882 O   0  0  0  0  0  0  0  0  0  0  0  0
   21.5528   -4.1305  -14.0585 O   0  0  0  0  0  0  0  0  0  0  0  0
   24.1224   -8.6667  -16.8267 O   0  0  0  0  0  0  0  0  0  0  0  0
  2  1  1  6
  3  2  1  0
  4  2  1  0
  4  5  1  1
  6  8  1  0
  6  4  1  0
  7  6  2  0
  9 12  1  0
  9  8  1  0
  9 10  1  6
 11 10  1  0
 12 14  1  0
 13 12  2  0
 14 15  1  0
 15 20  1  0
 15 16  1  1
 16 17  1  0
 18 22  1  0
 18 17  1  0
 19 18  2  0
 20 21  1  0
 23 20  2  0
M  END
$$$$
