TCE.pdb
     RDKit          3D

 23 22  0  0  1  0  0  0  0  0999 V2000
   14.4515  -11.8752  -10.6068 C   0  0  0  0  0  0  0  0  0  0  0  0
   14.8331  -10.4555  -10.9340 C   0  0  1  0  0  0  0  0  0  0  0  0
   14.0495  -10.0602  -12.0389 O   0  0  0  0  0  0  0  0  0  0  0  0
   14.5436   -9.4868   -9.7797 C   0  0  2  0  0  0  0  0  0  0  0  0
   13.0751   -9.4158   -9.7184 N   0  0  0  0  0  0  0  0  0  0  0  0
   15.0275   -8.1099  -10.0857 C   0  0  0  0  0  0  0  0  0  0  0  0
   14.3455   -7.3712  -10.8661 O   0  0  0  0  0  0  0  0  0  0  0  0
   16.2304   -7.6263   -9.5151 N   0  0  0  0  0  0  0  0  0  0  0  0
   16.7685   -6.3191   -9.8678 C   0  0  1  0  0  0  0  0  0  0  0  0
   16.6972   -5.3954   -8.6727 C   0  0  0  0  0  0  0  0  0  0  0  0
   15.0330   -5.1299   -8.0550 S   0  0  0  0  0  0  0  0  0  0  0  0
   18.1842   -6.4329  -10.2900 C   0  0  0  0  0  0  0  0  0  0  0  0
   18.9101   -7.3997   -9.8542 O   0  0  0  0  0  0  0  0  0  0  0  0
   18.8664   -5.5581  -11.1653 N   0  0  0  0  0  0  0  0  0  0  0  0
   20.0794   -5.9215  -11.8709 C   0  0  1  0  0  0  0  0  0  0  0  0
   19.9044   -7.2136  -12.6474 C   0  0  0  0  0  0  0  0  0  0  0  0
   21.1278   -7.5132  -13.4743 C   0  0  0  0  0  0  0  0  0  0  0  0
   21.0375   -8.8002  -14.1725 C   0  0  0  0  0  0  0  0  0  0  0  0
   20.7288   -9.8395  -13.5350 O   0  0  0  0  0  0  0  0  0  0  0  0
   20.4648   -4.8003  -12.7475 C   0  0  0  0  0  0  0  0  0  0  0  0
   19.5005   -3.9457  -13.2430 O   0  0  0  0  0  0  0  0  0  0  0  0
   21.2842   -8.9108  -15.5285 O   0  0  0  0  0  0  0  0  0  0  0  0
   21.6602   -4.5836  -13.0708 O   0  0  0  0  0  0  0  0  0  0  0  0
  2  1  1  1
  3  2  1  0
  4  2  1  0
  4  5  1  6
  6  8  1  0
  6  4  1  0
  7  6  2  0
  9 12  1  0
  9  8  1  0
  9 10  1  1
 11 10  1  0
 12 14  1  0
 13 12  2  0
 14 15  1  0
 15 20  1  0
 15 16  1  6
 16 17  1  0
 18 22  1  0
 18 17  1  0
 19 18  2  0
 20 21  1  0
 23 20  2  0
M  END
$$$$
