TCE.pdb
     RDKit          3D

 23 22  0  0  1  0  0  0  0  0999 V2000
   26.2751  -32.4622   -5.1193 C   0  0  0  0  0  0  0  0  0  0  0  0
   25.8593  -33.4289   -6.1968 C   0  0  1  0  0  0  0  0  0  0  0  0
   24.9822  -32.7364   -7.0585 O   0  0  0  0  0  0  0  0  0  0  0  0
   27.0463  -33.9260   -7.0323 C   0  0  2  0  0  0  0  0  0  0  0  0
   26.4528  -34.8763   -7.9861 N   0  0  0  0  0  0  0  0  0  0  0  0
   28.0146  -34.6991   -6.2025 C   0  0  0  0  0  0  0  0  0  0  0  0
   27.6667  -35.8303   -5.7345 O   0  0  0  0  0  0  0  0  0  0  0  0
   29.3075  -34.1842   -5.9379 N   0  0  0  0  0  0  0  0  0  0  0  0
   30.2624  -34.9121   -5.1126 C   0  0  1  0  0  0  0  0  0  0  0  0
   31.6301  -34.2779   -5.2299 C   0  0  0  0  0  0  0  0  0  0  0  0
   32.9096  -35.1274   -4.3011 S   0  0  0  0  0  0  0  0  0  0  0  0
   29.8517  -34.8838   -3.6893 C   0  0  0  0  0  0  0  0  0  0  0  0
   29.4636  -33.7822   -3.1531 O   0  0  0  0  0  0  0  0  0  0  0  0
   29.8323  -35.9856   -2.8047 N   0  0  0  0  0  0  0  0  0  0  0  0
   29.3565  -35.9030   -1.4380 C   0  0  1  0  0  0  0  0  0  0  0  0
   28.3878  -37.0266   -1.1183 C   0  0  0  0  0  0  0  0  0  0  0  0
   29.1001  -38.3536   -1.0742 C   0  0  0  0  0  0  0  0  0  0  0  0
   28.2136  -39.4595   -0.6959 C   0  0  0  0  0  0  0  0  0  0  0  0
   26.9944  -39.2400   -0.4787 O   0  0  0  0  0  0  0  0  0  0  0  0
   30.5223  -35.9077   -0.5353 C   0  0  0  0  0  0  0  0  0  0  0  0
   31.7721  -36.2370   -1.0203 O   0  0  0  0  0  0  0  0  0  0  0  0
   28.6804  -40.7546   -0.5680 O   0  0  0  0  0  0  0  0  0  0  0  0
   30.4258  -35.6184    0.6843 O   0  0  0  0  0  0  0  0  0  0  0  0
  2  1  1  1
  3  2  1  0
  4  2  1  0
  4  5  1  6
  6  8  1  0
  6  4  1  0
  7  6  2  0
  9 12  1  0
  9  8  1  0
  9 10  1  1
 11 10  1  0
 12 14  1  0
 13 12  2  0
 14 15  1  0
 15 20  1  0
 15 16  1  1
 16 17  1  0
 18 22  1  0
 18 17  1  0
 19 18  2  0
 20 21  1  0
 23 20  2  0
M  END
$$$$
