TCE.pdb
     RDKit          3D

 23 22  0  0  1  0  0  0  0  0999 V2000
   23.4529   -9.3638  -19.2180 C   0  0  0  0  0  0  0  0  0  0  0  0
   22.3615  -10.3818  -19.4195 C   0  0  1  0  0  0  0  0  0  0  0  0
   22.8996  -11.4135  -20.2179 O   0  0  0  0  0  0  0  0  0  0  0  0
   21.8866  -11.0053  -18.1004 C   0  0  2  0  0  0  0  0  0  0  0  0
   20.9264  -12.0429  -18.5083 N   0  0  0  0  0  0  0  0  0  0  0  0
   21.1308  -10.0232  -17.2711 C   0  0  0  0  0  0  0  0  0  0  0  0
   20.1299   -9.4225  -17.7782 O   0  0  0  0  0  0  0  0  0  0  0  0
   21.5184   -9.7609  -15.9341 N   0  0  0  0  0  0  0  0  0  0  0  0
   20.7963   -8.8040  -15.1060 C   0  0  1  0  0  0  0  0  0  0  0  0
   20.5693   -9.3858  -13.7289 C   0  0  0  0  0  0  0  0  0  0  0  0
   19.1742  -10.5110  -13.6338 S   0  0  0  0  0  0  0  0  0  0  0  0
   21.5689   -7.5477  -14.9639 C   0  0  0  0  0  0  0  0  0  0  0  0
   22.8498   -7.5872  -14.8675 O   0  0  0  0  0  0  0  0  0  0  0  0
   21.0346   -6.2401  -14.9230 N   0  0  0  0  0  0  0  0  0  0  0  0
   21.8512   -5.0432  -14.9634 C   0  0  1  0  0  0  0  0  0  0  0  0
   21.3617   -4.0724  -16.0221 C   0  0  0  0  0  0  0  0  0  0  0  0
   22.1442   -2.7857  -15.9741 C   0  0  0  0  0  0  0  0  0  0  0  0
   21.6784   -1.8029  -16.9585 C   0  0  0  0  0  0  0  0  0  0  0  0
   20.7701   -2.1117  -17.7717 O   0  0  0  0  0  0  0  0  0  0  0  0
   21.8578   -4.4354  -13.6200 C   0  0  0  0  0  0  0  0  0  0  0  0
   22.8960   -3.6092  -13.2389 O   0  0  0  0  0  0  0  0  0  0  0  0
   22.2125   -0.5292  -17.0234 O   0  0  0  0  0  0  0  0  0  0  0  0
   20.9384   -4.6413  -12.7876 O   0  0  0  0  0  0  0  0  0  0  0  0
  2  1  1  1
  3  2  1  0
  4  2  1  0
  4  5  1  6
  6  8  1  0
  6  4  1  0
  7  6  2  0
  9 12  1  0
  9  8  1  0
  9 10  1  1
 11 10  1  0
 12 14  1  0
 13 12  2  0
 14 15  1  0
 15 20  1  0
 15 16  1  6
 16 17  1  0
 18 22  1  0
 18 17  1  0
 19 18  2  0
 20 21  1  0
 23 20  2  0
M  END
$$$$
