TCE.pdb
     RDKit          3D

 23 22  0  0  1  0  0  0  0  0999 V2000
   18.6393  -10.9415  -18.2077 C   0  0  0  0  0  0  0  0  0  0  0  0
   18.6859  -12.3160  -17.5940 C   0  0  1  0  0  0  0  0  0  0  0  0
   18.0123  -13.1868  -18.4768 O   0  0  0  0  0  0  0  0  0  0  0  0
   20.1192  -12.8357  -17.4212 C   0  0  2  0  0  0  0  0  0  0  0  0
   19.9571  -14.1731  -16.8295 N   0  0  0  0  0  0  0  0  0  0  0  0
   20.8826  -12.0193  -16.4340 C   0  0  0  0  0  0  0  0  0  0  0  0
   20.5128  -12.0119  -15.2162 O   0  0  0  0  0  0  0  0  0  0  0  0
   22.0072  -11.2614  -16.8431 N   0  0  0  0  0  0  0  0  0  0  0  0
   22.7222  -10.3976  -15.9128 C   0  0  1  0  0  0  0  0  0  0  0  0
   24.2007  -10.4151  -16.2293 C   0  0  0  0  0  0  0  0  0  0  0  0
   25.1540   -9.1913  -15.3264 S   0  0  0  0  0  0  0  0  0  0  0  0
   22.2360   -9.0017  -16.0164 C   0  0  0  0  0  0  0  0  0  0  0  0
   22.0178   -8.4801  -17.1704 O   0  0  0  0  0  0  0  0  0  0  0  0
   21.9661   -8.1303  -14.9372 N   0  0  0  0  0  0  0  0  0  0  0  0
   21.5329   -6.7578  -15.1093 C   0  0  1  0  0  0  0  0  0  0  0  0
   20.0196   -6.6551  -15.1589 C   0  0  0  0  0  0  0  0  0  0  0  0
   19.5851   -5.2304  -15.3860 C   0  0  0  0  0  0  0  0  0  0  0  0
   18.1276   -5.0911  -15.4777 C   0  0  0  0  0  0  0  0  0  0  0  0
   17.6169   -3.9594  -15.6775 O   0  0  0  0  0  0  0  0  0  0  0  0
   22.1043   -5.9463  -14.0189 C   0  0  0  0  0  0  0  0  0  0  0  0
   22.0903   -4.5684  -14.1007 O   0  0  0  0  0  0  0  0  0  0  0  0
   17.2837   -6.1789  -15.3499 O   0  0  0  0  0  0  0  0  0  0  0  0
   22.6153   -6.4662  -12.9946 O   0  0  0  0  0  0  0  0  0  0  0  0
  2  1  1  6
  3  2  1  0
  4  2  1  0
  4  5  1  1
  6  8  1  0
  6  4  1  0
  7  6  2  0
  9 12  1  0
  9  8  1  0
  9 10  1  6
 11 10  1  0
 12 14  1  0
 13 12  2  0
 14 15  1  0
 15 20  1  0
 15 16  1  1
 16 17  1  0
 18 22  1  0
 18 17  1  0
 19 18  2  0
 20 21  1  0
 23 20  2  0
M  END
$$$$
