TCE.pdb
     RDKit          3D

 23 22  0  0  1  0  0  0  0  0999 V2000
   21.2463   -7.9777  -19.3845 C   0  0  0  0  0  0  0  0  0  0  0  0
   20.3730   -9.1951  -19.2314 C   0  0  1  0  0  0  0  0  0  0  0  0
   20.7206  -10.0873  -20.2679 O   0  0  0  0  0  0  0  0  0  0  0  0
   20.5954   -9.9153  -17.8949 C   0  0  2  0  0  0  0  0  0  0  0  0
   19.6870  -11.0717  -17.9442 N   0  0  0  0  0  0  0  0  0  0  0  0
   20.1600   -9.0764  -16.7415 C   0  0  0  0  0  0  0  0  0  0  0  0
   18.9274   -8.7855  -16.6155 O   0  0  0  0  0  0  0  0  0  0  0  0
   21.1041   -8.6087  -15.7946 N   0  0  0  0  0  0  0  0  0  0  0  0
   20.7233   -7.6894  -14.7303 C   0  0  1  0  0  0  0  0  0  0  0  0
   21.1820   -8.2318  -13.3954 C   0  0  0  0  0  0  0  0  0  0  0  0
   20.2675   -7.5852  -11.9928 S   0  0  0  0  0  0  0  0  0  0  0  0
   21.3478   -6.3618  -14.9377 C   0  0  0  0  0  0  0  0  0  0  0  0
   22.6061   -6.2737  -15.1834 O   0  0  0  0  0  0  0  0  0  0  0  0
   20.6863   -5.1137  -14.8984 N   0  0  0  0  0  0  0  0  0  0  0  0
   21.3333   -3.8575  -15.2216 C   0  0  1  0  0  0  0  0  0  0  0  0
   21.5569   -3.7163  -16.7159 C   0  0  0  0  0  0  0  0  0  0  0  0
   22.1831   -2.3851  -17.0419 C   0  0  0  0  0  0  0  0  0  0  0  0
   22.4382   -2.2159  -18.4766 C   0  0  0  0  0  0  0  0  0  0  0  0
   22.8279   -3.1942  -19.1641 O   0  0  0  0  0  0  0  0  0  0  0  0
   20.5148   -2.7567  -14.6810 C   0  0  0  0  0  0  0  0  0  0  0  0
   21.1158   -1.5831  -14.2724 O   0  0  0  0  0  0  0  0  0  0  0  0
   22.2619   -0.9985  -19.1079 O   0  0  0  0  0  0  0  0  0  0  0  0
   19.2652   -2.8421  -14.5734 O   0  0  0  0  0  0  0  0  0  0  0  0
  2  1  1  1
  3  2  1  0
  4  2  1  0
  4  5  1  6
  6  8  1  0
  6  4  1  0
  7  6  2  0
  9 12  1  0
  9  8  1  0
  9 10  1  1
 11 10  1  0
 12 14  1  0
 13 12  2  0
 14 15  1  0
 15 20  1  0
 15 16  1  6
 16 17  1  0
 18 22  1  0
 18 17  1  0
 19 18  2  0
 20 21  1  0
 23 20  2  0
M  END
$$$$
