WGA.pdb
     RDKit          3D

 24 25  0  0  1  0  0  0  0  0999 V2000
    7.2161  -17.5088   22.8192 N   0  0  0  0  0  0  0  0  0  0  0  0
    7.7865  -16.2219   22.5113 C   0  0  1  0  0  0  0  0  0  0  0  0
    8.4812  -15.5785   23.6766 C   0  0  0  0  0  0  0  0  0  0  0  0
    7.5765  -15.0178   24.6946 C   0  0  0  0  0  0  0  0  0  0  0  0
    6.5921  -15.6914   25.4114 C   0  0  0  0  0  0  0  0  0  0  0  0
    5.9767  -14.8682   26.2704 N   0  0  0  0  0  0  0  0  0  0  0  0
    6.5220  -13.6518   26.1514 C   0  0  0  0  0  0  0  0  0  0  0  0
    6.2384  -12.4766   26.8051 C   0  0  0  0  0  0  0  0  0  0  0  0
    6.9184  -11.3316   26.5274 C   0  0  0  0  0  0  0  0  0  0  0  0
    7.9018  -11.3891   25.5678 C   0  0  0  0  0  0  0  0  0  0  0  0
    8.1999  -12.5655   24.9003 C   0  0  0  0  0  0  0  0  0  0  0  0
    7.5181  -13.7258   25.1759 C   0  0  0  0  0  0  0  0  0  0  0  0
    8.6053  -16.2190   21.2849 C   0  0  0  0  0  0  0  0  0  0  0  0
    8.5086  -15.2691   20.4817 O   0  0  0  0  0  0  0  0  0  0  0  0
    9.5124  -17.2661   20.9740 N   0  0  0  0  0  0  0  0  0  0  0  0
   10.8788  -16.9825   20.5881 C   0  0  0  0  0  0  0  0  0  0  0  0
   11.7989  -17.4801   21.6336 C   0  0  0  0  0  0  0  0  0  0  0  0
   11.9016  -18.7070   21.8689 O   0  0  0  0  0  0  0  0  0  0  0  0
   14.5739  -16.0830   23.6994 C   0  0  0  0  0  0  0  0  0  0  0  0
   13.5097  -17.1141   23.3727 C   0  0  2  0  0  0  0  0  0  0  0  0
   12.5920  -16.5848   22.4008 N   0  0  0  0  0  0  0  0  0  0  0  0
   12.7539  -17.4699   24.5944 C   0  0  0  0  0  0  0  0  0  0  0  0
   11.5573  -17.1289   24.7105 O   0  0  0  0  0  0  0  0  0  0  0  0
   13.3742  -18.1862   25.6190 O   0  0  0  0  0  0  0  0  0  0  0  0
  2  1  1  1
  2  3  1  0
  4  5  2  0
  4  3  1  0
  6  5  1  0
  7 12  2  0
  7  6  1  0
  8  7  1  0
  9 10  1  0
  9  8  2  0
 10 11  2  0
 11 12  1  0
 12  4  1  0
 13  2  1  0
 13 15  1  0
 14 13  2  0
 16 15  1  0
 17 16  1  0
 18 17  2  0
 20 19  1  1
 20 21  1  0
 20 22  1  0
 21 17  1  0
 22 24  1  0
 23 22  2  0
M  END
$$$$
