WGA.pdb
     RDKit          3D

 24 25  0  0  1  0  0  0  0  0999 V2000
    7.0120  -17.9382   24.2280 N   0  0  0  0  0  0  0  0  0  0  0  0
    7.6850  -16.8968   23.4940 C   0  0  1  0  0  0  0  0  0  0  0  0
    8.2630  -15.8224   24.3694 C   0  0  0  0  0  0  0  0  0  0  0  0
    7.2674  -15.0654   25.1470 C   0  0  0  0  0  0  0  0  0  0  0  0
    6.2204  -15.5802   25.9056 C   0  0  0  0  0  0  0  0  0  0  0  0
    5.5277  -14.5975   26.4958 N   0  0  0  0  0  0  0  0  0  0  0  0
    6.0817  -13.4281   26.1538 C   0  0  0  0  0  0  0  0  0  0  0  0
    5.7384  -12.1419   26.4952 C   0  0  0  0  0  0  0  0  0  0  0  0
    6.4413  -11.0751   26.0278 C   0  0  0  0  0  0  0  0  0  0  0  0
    7.5099  -11.3272   25.1996 C   0  0  0  0  0  0  0  0  0  0  0  0
    7.8689  -12.6174   24.8464 C   0  0  0  0  0  0  0  0  0  0  0  0
    7.1644  -13.6996   25.3152 C   0  0  0  0  0  0  0  0  0  0  0  0
    8.6491  -17.4052   22.5007 C   0  0  0  0  0  0  0  0  0  0  0  0
    9.0537  -18.5828   22.5812 O   0  0  0  0  0  0  0  0  0  0  0  0
    9.1442  -16.6006   21.4408 N   0  0  0  0  0  0  0  0  0  0  0  0
   10.0573  -17.1401   20.4553 C   0  0  0  0  0  0  0  0  0  0  0  0
   11.4225  -17.1863   21.0223 C   0  0  0  0  0  0  0  0  0  0  0  0
   12.4144  -17.4192   20.2924 O   0  0  0  0  0  0  0  0  0  0  0  0
   13.3616  -15.7494   23.6123 C   0  0  0  0  0  0  0  0  0  0  0  0
   12.9903  -17.0487   22.9218 C   0  0  2  0  0  0  0  0  0  0  0  0
   11.6500  -16.9686   22.4080 N   0  0  0  0  0  0  0  0  0  0  0  0
   13.0645  -18.1736   23.8805 C   0  0  0  0  0  0  0  0  0  0  0  0
   12.0302  -18.8068   24.1823 O   0  0  0  0  0  0  0  0  0  0  0  0
   14.2877  -18.5304   24.4498 O   0  0  0  0  0  0  0  0  0  0  0  0
  2  1  1  1
  2  3  1  0
  4  5  2  0
  4  3  1  0
  6  5  1  0
  7 12  2  0
  7  6  1  0
  8  7  1  0
  9 10  1  0
  9  8  2  0
 10 11  2  0
 11 12  1  0
 12  4  1  0
 13  2  1  0
 13 15  1  0
 14 13  2  0
 16 15  1  0
 17 16  1  0
 18 17  2  0
 20 19  1  1
 20 21  1  0
 20 22  1  0
 21 17  1  0
 22 24  1  0
 23 22  2  0
M  END
$$$$
