WGA.pdb
     RDKit          3D

 24 25  0  0  1  0  0  0  0  0999 V2000
    5.8837  -16.9046   22.7786 N   0  0  0  0  0  0  0  0  0  0  0  0
    7.2417  -16.4913   22.5316 C   0  0  1  0  0  0  0  0  0  0  0  0
    8.0067  -16.1641   23.7815 C   0  0  0  0  0  0  0  0  0  0  0  0
    7.2797  -15.3128   24.7385 C   0  0  0  0  0  0  0  0  0  0  0  0
    6.2858  -15.7045   25.6304 C   0  0  0  0  0  0  0  0  0  0  0  0
    5.8640  -14.6664   26.3642 N   0  0  0  0  0  0  0  0  0  0  0  0
    6.5495  -13.5798   25.9891 C   0  0  0  0  0  0  0  0  0  0  0  0
    6.4821  -12.2816   26.4350 C   0  0  0  0  0  0  0  0  0  0  0  0
    7.2768  -11.3113   25.9083 C   0  0  0  0  0  0  0  0  0  0  0  0
    8.1523  -11.6735   24.9116 C   0  0  0  0  0  0  0  0  0  0  0  0
    8.2326  -12.9773   24.4513 C   0  0  0  0  0  0  0  0  0  0  0  0
    7.4340  -13.9627   24.9789 C   0  0  0  0  0  0  0  0  0  0  0  0
    7.9784  -17.3973   21.6311 C   0  0  0  0  0  0  0  0  0  0  0  0
    7.4000  -17.8841   20.6385 O   0  0  0  0  0  0  0  0  0  0  0  0
    9.3379  -17.7449   21.8481 N   0  0  0  0  0  0  0  0  0  0  0  0
   10.4100  -16.9970   21.2256 C   0  0  0  0  0  0  0  0  0  0  0  0
   11.3525  -16.5300   22.2653 C   0  0  0  0  0  0  0  0  0  0  0  0
   12.4790  -16.0765   21.9550 O   0  0  0  0  0  0  0  0  0  0  0  0
   11.3290  -15.7222   25.8855 C   0  0  0  0  0  0  0  0  0  0  0  0
   12.0013  -16.2402   24.6276 C   0  0  2  0  0  0  0  0  0  0  0  0
   11.0102  -16.5813   23.6434 N   0  0  0  0  0  0  0  0  0  0  0  0
   12.7980  -17.4484   24.9371 C   0  0  0  0  0  0  0  0  0  0  0  0
   12.5382  -18.5307   24.3690 O   0  0  0  0  0  0  0  0  0  0  0  0
   13.8402  -17.3830   25.8629 O   0  0  0  0  0  0  0  0  0  0  0  0
  2  1  1  1
  2  3  1  0
  4  5  2  0
  4  3  1  0
  6  5  1  0
  7 12  2  0
  7  6  1  0
  8  7  1  0
  9 10  1  0
  9  8  2  0
 10 11  2  0
 11 12  1  0
 12  4  1  0
 13  2  1  0
 13 15  1  0
 14 13  2  0
 16 15  1  0
 17 16  1  0
 18 17  2  0
 20 19  1  1
 20 21  1  0
 20 22  1  0
 21 17  1  0
 22 24  1  0
 23 22  2  0
M  END
$$$$
