WGA.pdb
     RDKit          3D

 24 25  0  0  1  0  0  0  0  0999 V2000
    8.1016  -16.0078   22.8040 N   0  0  0  0  0  0  0  0  0  0  0  0
    9.2446  -15.5037   23.5220 C   0  0  1  0  0  0  0  0  0  0  0  0
    9.1157  -15.6195   25.0135 C   0  0  0  0  0  0  0  0  0  0  0  0
    7.9156  -14.9770   25.5756 C   0  0  0  0  0  0  0  0  0  0  0  0
    6.7270  -15.5941   25.9540 C   0  0  0  0  0  0  0  0  0  0  0  0
    5.8588  -14.7008   26.4463 N   0  0  0  0  0  0  0  0  0  0  0  0
    6.4324  -13.4922   26.4097 C   0  0  0  0  0  0  0  0  0  0  0  0
    5.9539  -12.2630   26.7955 C   0  0  0  0  0  0  0  0  0  0  0  0
    6.7089  -11.1387   26.6674 C   0  0  0  0  0  0  0  0  0  0  0  0
    7.9706  -11.2732   26.1371 C   0  0  0  0  0  0  0  0  0  0  0  0
    8.4676  -12.5048   25.7437 C   0  0  0  0  0  0  0  0  0  0  0  0
    7.7114  -13.6446   25.8709 C   0  0  0  0  0  0  0  0  0  0  0  0
   10.5309  -16.0188   23.0176 C   0  0  0  0  0  0  0  0  0  0  0  0
   10.6626  -16.2627   21.8010 O   0  0  0  0  0  0  0  0  0  0  0  0
   11.6427  -16.2527   23.8692 N   0  0  0  0  0  0  0  0  0  0  0  0
   12.8345  -15.4347   23.7857 C   0  0  0  0  0  0  0  0  0  0  0  0
   13.7553  -16.0077   22.7801 C   0  0  0  0  0  0  0  0  0  0  0  0
   14.1389  -17.1980   22.8640 O   0  0  0  0  0  0  0  0  0  0  0  0
   15.1872  -15.0284   19.4752 C   0  0  0  0  0  0  0  0  0  0  0  0
   15.1868  -15.7996   20.7820 C   0  0  2  0  0  0  0  0  0  0  0  0
   14.2315  -15.2281   21.6917 N   0  0  0  0  0  0  0  0  0  0  0  0
   16.5277  -15.7445   21.4057 C   0  0  0  0  0  0  0  0  0  0  0  0
   16.6651  -15.2626   22.5505 O   0  0  0  0  0  0  0  0  0  0  0  0
   17.6414  -16.2296   20.7185 O   0  0  0  0  0  0  0  0  0  0  0  0
  2  1  1  6
  2  3  1  0
  4  5  2  0
  4  3  1  0
  6  5  1  0
  7 12  2  0
  7  6  1  0
  8  7  1  0
  9 10  1  0
  9  8  2  0
 10 11  2  0
 11 12  1  0
 12  4  1  0
 13  2  1  0
 13 15  1  0
 14 13  2  0
 16 15  1  0
 17 16  1  0
 18 17  2  0
 20 19  1  6
 20 21  1  0
 20 22  1  0
 21 17  1  0
 22 24  1  0
 23 22  2  0
M  END
$$$$
