WGA.pdb
     RDKit          3D

 24 25  0  0  1  0  0  0  0  0999 V2000
    7.6460  -17.3954   23.4367 N   0  0  0  0  0  0  0  0  0  0  0  0
    8.2758  -16.3163   22.7190 C   0  0  1  0  0  0  0  0  0  0  0  0
    7.5428  -15.0108   22.8331 C   0  0  0  0  0  0  0  0  0  0  0  0
    6.9080  -14.7779   24.1416 C   0  0  0  0  0  0  0  0  0  0  0  0
    6.2462  -15.7094   24.9360 C   0  0  0  0  0  0  0  0  0  0  0  0
    5.8136  -15.1486   26.0728 N   0  0  0  0  0  0  0  0  0  0  0  0
    6.1671  -13.8577   26.0663 C   0  0  0  0  0  0  0  0  0  0  0  0
    5.9541  -12.8673   26.9950 C   0  0  0  0  0  0  0  0  0  0  0  0
    6.3988  -11.5982   26.7894 C   0  0  0  0  0  0  0  0  0  0  0  0
    7.0704  -11.3384   25.6178 C   0  0  0  0  0  0  0  0  0  0  0  0
    7.2934  -12.3254   24.6720 C   0  0  0  0  0  0  0  0  0  0  0  0
    6.8481  -13.6093   24.8730 C   0  0  0  0  0  0  0  0  0  0  0  0
    9.7185  -16.1880   22.9957 C   0  0  0  0  0  0  0  0  0  0  0  0
   10.3582  -15.2366   22.5033 O   0  0  0  0  0  0  0  0  0  0  0  0
   10.4216  -17.1141   23.8105 N   0  0  0  0  0  0  0  0  0  0  0  0
   11.8554  -17.0172   23.9874 C   0  0  0  0  0  0  0  0  0  0  0  0
   12.1489  -16.4060   25.3018 C   0  0  0  0  0  0  0  0  0  0  0  0
   13.3136  -16.4055   25.7649 O   0  0  0  0  0  0  0  0  0  0  0  0
   10.7120  -13.9646   27.5999 C   0  0  0  0  0  0  0  0  0  0  0  0
   11.4389  -15.2779   27.3775 C   0  0  2  0  0  0  0  0  0  0  0  0
   11.1221  -15.8028   26.0770 N   0  0  0  0  0  0  0  0  0  0  0  0
   11.0294  -16.2658   28.4005 C   0  0  0  0  0  0  0  0  0  0  0  0
   11.1921  -16.0133   29.6135 O   0  0  0  0  0  0  0  0  0  0  0  0
   10.4613  -17.4807   28.0144 O   0  0  0  0  0  0  0  0  0  0  0  0
  2  1  1  1
  2  3  1  0
  4  5  2  0
  4  3  1  0
  6  5  1  0
  7 12  2  0
  7  6  1  0
  8  7  1  0
  9 10  1  0
  9  8  2  0
 10 11  2  0
 11 12  1  0
 12  4  1  0
 13  2  1  0
 13 15  1  0
 14 13  2  0
 16 15  1  0
 17 16  1  0
 18 17  2  0
 20 19  1  1
 20 21  1  0
 20 22  1  0
 21 17  1  0
 22 24  1  0
 23 22  2  0
M  END
$$$$
