WGA.pdb
     RDKit          3D

 24 25  0  0  1  0  0  0  0  0999 V2000
    7.4968  -17.6524   25.4453 N   0  0  0  0  0  0  0  0  0  0  0  0
    7.3857  -17.2130   24.0776 C   0  0  1  0  0  0  0  0  0  0  0  0
    7.5325  -15.7281   23.9101 C   0  0  0  0  0  0  0  0  0  0  0  0
    6.8582  -14.9261   24.9451 C   0  0  0  0  0  0  0  0  0  0  0  0
    5.8613  -15.3452   25.8210 C   0  0  0  0  0  0  0  0  0  0  0  0
    5.4968  -14.3524   26.6429 N   0  0  0  0  0  0  0  0  0  0  0  0
    6.2243  -13.2697   26.3432 C   0  0  0  0  0  0  0  0  0  0  0  0
    6.2211  -12.0099   26.8925 C   0  0  0  0  0  0  0  0  0  0  0  0
    7.0502  -11.0354   26.4304 C   0  0  0  0  0  0  0  0  0  0  0  0
    7.8939  -11.3535   25.3921 C   0  0  0  0  0  0  0  0  0  0  0  0
    7.9094  -12.6183   24.8278 C   0  0  0  0  0  0  0  0  0  0  0  0
    7.0758  -13.6077   25.2896 C   0  0  0  0  0  0  0  0  0  0  0  0
    8.2292  -17.9800   23.1424 C   0  0  0  0  0  0  0  0  0  0  0  0
    8.9180  -18.9285   23.5698 O   0  0  0  0  0  0  0  0  0  0  0  0
    8.2924  -17.6813   21.7557 N   0  0  0  0  0  0  0  0  0  0  0  0
    9.1175  -18.4629   20.8587 C   0  0  0  0  0  0  0  0  0  0  0  0
   10.5439  -18.1951   21.1429 C   0  0  0  0  0  0  0  0  0  0  0  0
   11.4480  -18.8195   20.5398 O   0  0  0  0  0  0  0  0  0  0  0  0
   12.5521  -15.5010   22.6244 C   0  0  0  0  0  0  0  0  0  0  0  0
   12.3294  -16.9722   22.3270 C   0  0  2  0  0  0  0  0  0  0  0  0
   10.9314  -17.2245   22.1057 N   0  0  0  0  0  0  0  0  0  0  0  0
   12.7855  -17.7968   23.4681 C   0  0  0  0  0  0  0  0  0  0  0  0
   11.9652  -18.4940   24.1027 O   0  0  0  0  0  0  0  0  0  0  0  0
   14.1310  -17.7984   23.8386 O   0  0  0  0  0  0  0  0  0  0  0  0
  2  1  1  1
  2  3  1  0
  4  5  2  0
  4  3  1  0
  6  5  1  0
  7 12  2  0
  7  6  1  0
  8  7  1  0
  9 10  1  0
  9  8  2  0
 10 11  2  0
 11 12  1  0
 12  4  1  0
 13  2  1  0
 13 15  1  0
 14 13  2  0
 16 15  1  0
 17 16  1  0
 18 17  2  0
 20 19  1  1
 20 21  1  0
 20 22  1  0
 21 17  1  0
 22 24  1  0
 23 22  2  0
M  END
$$$$
