WGA.pdb
     RDKit          3D

 24 25  0  0  1  0  0  0  0  0999 V2000
    7.0597  -16.4757   22.5776 N   0  0  0  0  0  0  0  0  0  0  0  0
    8.2081  -15.9162   23.2442 C   0  0  1  0  0  0  0  0  0  0  0  0
    8.0244  -15.7584   24.7261 C   0  0  0  0  0  0  0  0  0  0  0  0
    6.9158  -14.8698   25.1140 C   0  0  0  0  0  0  0  0  0  0  0  0
    5.6033  -15.2338   25.3998 C   0  0  0  0  0  0  0  0  0  0  0  0
    4.8721  -14.1639   25.7386 N   0  0  0  0  0  0  0  0  0  0  0  0
    5.6598  -13.0830   25.6883 C   0  0  0  0  0  0  0  0  0  0  0  0
    5.3819  -11.7612   25.9423 C   0  0  0  0  0  0  0  0  0  0  0  0
    6.3401  -10.8026   25.8260 C   0  0  0  0  0  0  0  0  0  0  0  0
    7.5998  -11.2012   25.4445 C   0  0  0  0  0  0  0  0  0  0  0  0
    7.8960  -12.5291   25.1852 C   0  0  0  0  0  0  0  0  0  0  0  0
    6.9339  -13.5028   25.3012 C   0  0  0  0  0  0  0  0  0  0  0  0
    9.4756  -16.5828   22.8930 C   0  0  0  0  0  0  0  0  0  0  0  0
    9.6599  -16.9800   21.7246 O   0  0  0  0  0  0  0  0  0  0  0  0
   10.5109  -16.7955   23.8411 N   0  0  0  0  0  0  0  0  0  0  0  0
   11.9001  -16.5841   23.4923 C   0  0  0  0  0  0  0  0  0  0  0  0
   12.7380  -16.7211   24.7032 C   0  0  0  0  0  0  0  0  0  0  0  0
   13.9874  -16.6505   24.6320 O   0  0  0  0  0  0  0  0  0  0  0  0
   12.3118  -15.8508   28.1396 C   0  0  0  0  0  0  0  0  0  0  0  0
   12.9676  -16.8043   27.1580 C   0  0  2  0  0  0  0  0  0  0  0  0
   12.1535  -16.9366   25.9804 N   0  0  0  0  0  0  0  0  0  0  0  0
   13.1288  -18.1393   27.7758 C   0  0  0  0  0  0  0  0  0  0  0  0
   12.6548  -19.1496   27.2133 O   0  0  0  0  0  0  0  0  0  0  0  0
   13.8096  -18.2742   28.9866 O   0  0  0  0  0  0  0  0  0  0  0  0
  2  1  1  1
  2  3  1  0
  4  5  2  0
  4  3  1  0
  6  5  1  0
  7 12  2  0
  7  6  1  0
  8  7  1  0
  9 10  1  0
  9  8  2  0
 10 11  2  0
 11 12  1  0
 12  4  1  0
 13  2  1  0
 13 15  1  0
 14 13  2  0
 16 15  1  0
 17 16  1  0
 18 17  2  0
 20 19  1  1
 20 21  1  0
 20 22  1  0
 21 17  1  0
 22 24  1  0
 23 22  2  0
M  END
$$$$
