WGA.pdb
     RDKit          3D

 24 25  0  0  1  0  0  0  0  0999 V2000
    6.5264  -17.6599   23.5744 N   0  0  0  0  0  0  0  0  0  0  0  0
    7.3666  -16.5457   23.2158 C   0  0  1  0  0  0  0  0  0  0  0  0
    8.0720  -15.9242   24.3867 C   0  0  0  0  0  0  0  0  0  0  0  0
    7.2161  -15.0827   25.2402 C   0  0  0  0  0  0  0  0  0  0  0  0
    6.2481  -15.5082   26.1450 C   0  0  0  0  0  0  0  0  0  0  0  0
    5.6798  -14.4655   26.7646 N   0  0  0  0  0  0  0  0  0  0  0  0
    6.2408  -13.3429   26.2995 C   0  0  0  0  0  0  0  0  0  0  0  0
    6.0021  -12.0267   26.6148 C   0  0  0  0  0  0  0  0  0  0  0  0
    6.6904  -11.0197   26.0125 C   0  0  0  0  0  0  0  0  0  0  0  0
    7.6358  -11.3635   25.0748 C   0  0  0  0  0  0  0  0  0  0  0  0
    7.8883  -12.6850   24.7461 C   0  0  0  0  0  0  0  0  0  0  0  0
    7.1979  -13.7073   25.3506 C   0  0  0  0  0  0  0  0  0  0  0  0
    8.2728  -16.8306   22.0880 C   0  0  0  0  0  0  0  0  0  0  0  0
    8.5587  -18.0130   21.8106 O   0  0  0  0  0  0  0  0  0  0  0  0
    8.8425  -15.8021   21.2920 N   0  0  0  0  0  0  0  0  0  0  0  0
    9.8314  -16.1016   20.2778 C   0  0  0  0  0  0  0  0  0  0  0  0
   11.1503  -16.2956   20.9184 C   0  0  0  0  0  0  0  0  0  0  0  0
   12.1907  -16.4045   20.2280 O   0  0  0  0  0  0  0  0  0  0  0  0
   12.6119  -16.0019   24.3204 C   0  0  0  0  0  0  0  0  0  0  0  0
   12.5768  -16.5670   22.9126 C   0  0  2  0  0  0  0  0  0  0  0  0
   11.2772  -16.3641   22.3320 N   0  0  0  0  0  0  0  0  0  0  0  0
   12.8628  -18.0188   22.9397 C   0  0  0  0  0  0  0  0  0  0  0  0
   13.9919  -18.4269   23.2865 O   0  0  0  0  0  0  0  0  0  0  0  0
   11.8742  -18.9353   22.5786 O   0  0  0  0  0  0  0  0  0  0  0  0
  2  1  1  1
  2  3  1  0
  4  5  2  0
  4  3  1  0
  6  5  1  0
  7 12  2  0
  7  6  1  0
  8  7  1  0
  9 10  1  0
  9  8  2  0
 10 11  2  0
 11 12  1  0
 12  4  1  0
 13  2  1  0
 13 15  1  0
 14 13  2  0
 16 15  1  0
 17 16  1  0
 18 17  2  0
 20 19  1  1
 20 21  1  0
 20 22  1  0
 21 17  1  0
 22 24  1  0
 23 22  2  0
M  END
$$$$
