WGA.pdb
     RDKit          3D

 24 25  0  0  1  0  0  0  0  0999 V2000
    7.7881  -17.2699   23.7163 N   0  0  0  0  0  0  0  0  0  0  0  0
    7.5801  -16.4835   22.5270 C   0  0  1  0  0  0  0  0  0  0  0  0
    7.4252  -15.0147   22.7978 C   0  0  0  0  0  0  0  0  0  0  0  0
    6.9672  -14.6885   24.1590 C   0  0  0  0  0  0  0  0  0  0  0  0
    6.3388  -15.5386   25.0641 C   0  0  0  0  0  0  0  0  0  0  0  0
    6.0842  -14.9070   26.2175 N   0  0  0  0  0  0  0  0  0  0  0  0
    6.5256  -13.6478   26.1140 C   0  0  0  0  0  0  0  0  0  0  0  0
    6.4945  -12.6121   27.0168 C   0  0  0  0  0  0  0  0  0  0  0  0
    7.0013  -11.3884   26.7062 C   0  0  0  0  0  0  0  0  0  0  0  0
    7.5470  -11.2216   25.4550 C   0  0  0  0  0  0  0  0  0  0  0  0
    7.5861  -12.2552   24.5340 C   0  0  0  0  0  0  0  0  0  0  0  0
    7.0772  -13.4938   24.8407 C   0  0  0  0  0  0  0  0  0  0  0  0
    8.5524  -16.7679   21.4555 C   0  0  0  0  0  0  0  0  0  0  0  0
    8.6029  -16.0232   20.4556 O   0  0  0  0  0  0  0  0  0  0  0  0
    9.4470  -17.8689   21.5132 N   0  0  0  0  0  0  0  0  0  0  0  0
   10.7468  -17.8111   20.8781 C   0  0  0  0  0  0  0  0  0  0  0  0
   11.7588  -17.3793   21.8664 C   0  0  0  0  0  0  0  0  0  0  0  0
   12.9634  -17.2580   21.5421 O   0  0  0  0  0  0  0  0  0  0  0  0
   11.9538  -15.7480   25.1476 C   0  0  0  0  0  0  0  0  0  0  0  0
   12.4281  -16.8082   24.1710 C   0  0  2  0  0  0  0  0  0  0  0  0
   11.3968  -17.0899   23.2097 N   0  0  0  0  0  0  0  0  0  0  0  0
   12.7559  -18.0567   24.8948 C   0  0  0  0  0  0  0  0  0  0  0  0
   12.1036  -19.0987   24.6705 O   0  0  0  0  0  0  0  0  0  0  0  0
   13.7928  -18.0743   25.8288 O   0  0  0  0  0  0  0  0  0  0  0  0
  2  1  1  1
  2  3  1  0
  4  5  2  0
  4  3  1  0
  6  5  1  0
  7 12  2  0
  7  6  1  0
  8  7  1  0
  9 10  1  0
  9  8  2  0
 10 11  2  0
 11 12  1  0
 12  4  1  0
 13  2  1  0
 13 15  1  0
 14 13  2  0
 16 15  1  0
 17 16  1  0
 18 17  2  0
 20 19  1  1
 20 21  1  0
 20 22  1  0
 21 17  1  0
 22 24  1  0
 23 22  2  0
M  END
$$$$
