WGA.pdb
     RDKit          3D

 24 25  0  0  1  0  0  0  0  0999 V2000
    7.9157  -18.3229   25.0962 N   0  0  0  0  0  0  0  0  0  0  0  0
    6.7398  -17.7012   24.5423 C   0  0  1  0  0  0  0  0  0  0  0  0
    6.0738  -16.7347   25.4787 C   0  0  0  0  0  0  0  0  0  0  0  0
    6.9920  -15.7917   26.1395 C   0  0  0  0  0  0  0  0  0  0  0  0
    8.1443  -16.0988   26.8569 C   0  0  0  0  0  0  0  0  0  0  0  0
    8.7446  -14.9859   27.2988 N   0  0  0  0  0  0  0  0  0  0  0  0
    8.0246  -13.9316   26.8973 C   0  0  0  0  0  0  0  0  0  0  0  0
    8.2200  -12.5862   27.0982 C   0  0  0  0  0  0  0  0  0  0  0  0
    7.3523  -11.6640   26.6010 C   0  0  0  0  0  0  0  0  0  0  0  0
    6.2696  -12.1241   25.8887 C   0  0  0  0  0  0  0  0  0  0  0  0
    6.0586  -13.4766   25.6773 C   0  0  0  0  0  0  0  0  0  0  0  0
    6.9309  -14.4136   26.1755 C   0  0  0  0  0  0  0  0  0  0  0  0
    6.9498  -17.1395   23.1952 C   0  0  0  0  0  0  0  0  0  0  0  0
    6.1597  -16.2792   22.7562 O   0  0  0  0  0  0  0  0  0  0  0  0
    8.0283  -17.5411   22.3636 N   0  0  0  0  0  0  0  0  0  0  0  0
    8.5522  -16.6610   21.3403 C   0  0  0  0  0  0  0  0  0  0  0  0
    9.9070  -16.2099   21.7254 C   0  0  0  0  0  0  0  0  0  0  0  0
   10.6023  -15.5215   20.9422 O   0  0  0  0  0  0  0  0  0  0  0  0
   11.8722  -15.1595   24.3908 C   0  0  0  0  0  0  0  0  0  0  0  0
   11.8236  -16.1903   23.2783 C   0  0  2  0  0  0  0  0  0  0  0  0
   10.4596  -16.5427   22.9916 N   0  0  0  0  0  0  0  0  0  0  0  0
   12.5540  -17.4118   23.6841 C   0  0  0  0  0  0  0  0  0  0  0  0
   11.9482  -18.5011   23.7744 O   0  0  0  0  0  0  0  0  0  0  0  0
   13.9193  -17.3512   23.9668 O   0  0  0  0  0  0  0  0  0  0  0  0
  2  1  1  1
  2  3  1  0
  4  5  2  0
  4  3  1  0
  6  5  1  0
  7 12  2  0
  7  6  1  0
  8  7  1  0
  9 10  1  0
  9  8  2  0
 10 11  2  0
 11 12  1  0
 12  4  1  0
 13  2  1  0
 13 15  1  0
 14 13  2  0
 16 15  1  0
 17 16  1  0
 18 17  2  0
 20 19  1  1
 20 21  1  0
 20 22  1  0
 21 17  1  0
 22 24  1  0
 23 22  2  0
M  END
$$$$
