WGA.pdb
     RDKit          3D

 24 25  0  0  1  0  0  0  0  0999 V2000
    6.9519  -17.1582   22.7585 N   0  0  0  0  0  0  0  0  0  0  0  0
    7.1599  -16.0146   21.9071 C   0  0  1  0  0  0  0  0  0  0  0  0
    6.6846  -14.7236   22.5087 C   0  0  0  0  0  0  0  0  0  0  0  0
    6.6795  -14.7002   23.9813 C   0  0  0  0  0  0  0  0  0  0  0  0
    6.4291  -15.7655   24.8412 C   0  0  0  0  0  0  0  0  0  0  0  0
    6.5312  -15.3829   26.1207 N   0  0  0  0  0  0  0  0  0  0  0  0
    6.8448  -14.0820   26.1471 C   0  0  0  0  0  0  0  0  0  0  0  0
    7.0538  -13.2338   27.2081 C   0  0  0  0  0  0  0  0  0  0  0  0
    7.3634  -11.9233   27.0147 C   0  0  0  0  0  0  0  0  0  0  0  0
    7.4602  -11.4740   25.7185 C   0  0  0  0  0  0  0  0  0  0  0  0
    7.2527  -12.3161   24.6386 C   0  0  0  0  0  0  0  0  0  0  0  0
    6.9407  -13.6408   24.8260 C   0  0  0  0  0  0  0  0  0  0  0  0
    8.5289  -15.9238   21.3668 C   0  0  0  0  0  0  0  0  0  0  0  0
    8.9075  -14.8673   20.8216 O   0  0  0  0  0  0  0  0  0  0  0  0
    9.4487  -17.0028   21.4414 N   0  0  0  0  0  0  0  0  0  0  0  0
   10.8191  -16.8499   21.0000 C   0  0  0  0  0  0  0  0  0  0  0  0
   11.7038  -16.7178   22.1778 C   0  0  0  0  0  0  0  0  0  0  0  0
   12.9399  -16.5632   22.0394 O   0  0  0  0  0  0  0  0  0  0  0  0
   11.4031  -16.0763   25.8104 C   0  0  0  0  0  0  0  0  0  0  0  0
   12.0845  -16.7162   24.6151 C   0  0  2  0  0  0  0  0  0  0  0  0
   11.1805  -16.7621   23.4981 N   0  0  0  0  0  0  0  0  0  0  0  0
   12.5006  -18.0974   24.9457 C   0  0  0  0  0  0  0  0  0  0  0  0
   13.3318  -18.2985   25.8569 O   0  0  0  0  0  0  0  0  0  0  0  0
   11.9669  -19.1781   24.2421 O   0  0  0  0  0  0  0  0  0  0  0  0
  2  1  1  1
  2  3  1  0
  4  5  2  0
  4  3  1  0
  6  5  1  0
  7 12  2  0
  7  6  1  0
  8  7  1  0
  9 10  1  0
  9  8  2  0
 10 11  2  0
 11 12  1  0
 12  4  1  0
 13  2  1  0
 13 15  1  0
 14 13  2  0
 16 15  1  0
 17 16  1  0
 18 17  2  0
 20 19  1  1
 20 21  1  0
 20 22  1  0
 21 17  1  0
 22 24  1  0
 23 22  2  0
M  END
$$$$
