WGA.pdb
     RDKit          3D

 24 25  0  0  1  0  0  0  0  0999 V2000
    7.9343  -17.8211   24.2609 N   0  0  0  0  0  0  0  0  0  0  0  0
    7.4799  -16.9979   23.1691 C   0  0  1  0  0  0  0  0  0  0  0  0
    7.7483  -15.5340   23.3686 C   0  0  0  0  0  0  0  0  0  0  0  0
    7.1375  -14.9595   24.5793 C   0  0  0  0  0  0  0  0  0  0  0  0
    6.2803  -15.5932   25.4739 C   0  0  0  0  0  0  0  0  0  0  0  0
    5.9380  -14.7709   26.4743 N   0  0  0  0  0  0  0  0  0  0  0  0
    6.5439  -13.5939   26.2773 C   0  0  0  0  0  0  0  0  0  0  0  0
    6.5089  -12.4352   27.0156 C   0  0  0  0  0  0  0  0  0  0  0  0
    7.2052  -11.3314   26.6318 C   0  0  0  0  0  0  0  0  0  0  0  0
    7.9473  -11.4135   25.4770 C   0  0  0  0  0  0  0  0  0  0  0  0
    7.9933  -12.5737   24.7220 C   0  0  0  0  0  0  0  0  0  0  0  0
    7.2936  -13.6926   25.1036 C   0  0  0  0  0  0  0  0  0  0  0  0
    7.9128  -17.4834   21.8458 C   0  0  0  0  0  0  0  0  0  0  0  0
    7.1492  -17.3653   20.8660 O   0  0  0  0  0  0  0  0  0  0  0  0
    9.1799  -18.0884   21.6351 N   0  0  0  0  0  0  0  0  0  0  0  0
   10.2057  -17.4256   20.8575 C   0  0  0  0  0  0  0  0  0  0  0  0
   11.2198  -16.8515   21.7682 C   0  0  0  0  0  0  0  0  0  0  0  0
   12.2660  -16.3285   21.3177 O   0  0  0  0  0  0  0  0  0  0  0  0
   11.5286  -15.6301   25.1961 C   0  0  0  0  0  0  0  0  0  0  0  0
   12.1008  -16.4156   24.0307 C   0  0  2  0  0  0  0  0  0  0  0  0
   11.0391  -16.8757   23.1774 N   0  0  0  0  0  0  0  0  0  0  0  0
   12.8521  -17.5895   24.5283 C   0  0  0  0  0  0  0  0  0  0  0  0
   13.8795  -17.4263   25.2208 O   0  0  0  0  0  0  0  0  0  0  0  0
   12.4165  -18.8805   24.2262 O   0  0  0  0  0  0  0  0  0  0  0  0
  2  1  1  1
  2  3  1  0
  4  5  2  0
  4  3  1  0
  6  5  1  0
  7 12  2  0
  7  6  1  0
  8  7  1  0
  9 10  1  0
  9  8  2  0
 10 11  2  0
 11 12  1  0
 12  4  1  0
 13  2  1  0
 13 15  1  0
 14 13  2  0
 16 15  1  0
 17 16  1  0
 18 17  2  0
 20 19  1  1
 20 21  1  0
 20 22  1  0
 21 17  1  0
 22 24  1  0
 23 22  2  0
M  END
$$$$
