WGA.pdb
     RDKit          3D

 24 25  0  0  1  0  0  0  0  0999 V2000
    6.5863  -17.7943   23.9956 N   0  0  0  0  0  0  0  0  0  0  0  0
    7.5658  -16.7417   23.9020 C   0  0  1  0  0  0  0  0  0  0  0  0
    7.9243  -16.1352   25.2279 C   0  0  0  0  0  0  0  0  0  0  0  0
    6.9745  -15.1194   25.7128 C   0  0  0  0  0  0  0  0  0  0  0  0
    5.7489  -15.3388   26.3347 C   0  0  0  0  0  0  0  0  0  0  0  0
    5.1626  -14.1796   26.6609 N   0  0  0  0  0  0  0  0  0  0  0  0
    5.9632  -13.1795   26.2737 C   0  0  0  0  0  0  0  0  0  0  0  0
    5.8088  -11.8180   26.3796 C   0  0  0  0  0  0  0  0  0  0  0  0
    6.7549  -10.9608   25.9095 C   0  0  0  0  0  0  0  0  0  0  0  0
    7.8741  -11.5035   25.3229 C   0  0  0  0  0  0  0  0  0  0  0  0
    8.0447  -12.8733   25.2088 C   0  0  0  0  0  0  0  0  0  0  0  0
    7.0943  -13.7450   25.6818 C   0  0  0  0  0  0  0  0  0  0  0  0
    8.7493  -17.1081   23.1022 C   0  0  0  0  0  0  0  0  0  0  0  0
    9.0165  -18.3121   22.9129 O   0  0  0  0  0  0  0  0  0  0  0  0
    9.6107  -16.1355   22.5297 N   0  0  0  0  0  0  0  0  0  0  0  0
   10.9484  -16.4821   22.0975 C   0  0  0  0  0  0  0  0  0  0  0  0
   11.8325  -16.5973   23.2774 C   0  0  0  0  0  0  0  0  0  0  0  0
   13.0688  -16.7523   23.1418 O   0  0  0  0  0  0  0  0  0  0  0  0
   11.7668  -15.7404   26.8380 C   0  0  0  0  0  0  0  0  0  0  0  0
   12.2022  -16.6640   25.7155 C   0  0  2  0  0  0  0  0  0  0  0  0
   11.3083  -16.5360   24.5968 N   0  0  0  0  0  0  0  0  0  0  0  0
   12.1856  -18.0697   26.1778 C   0  0  0  0  0  0  0  0  0  0  0  0
   12.9292  -18.4279   27.1161 O   0  0  0  0  0  0  0  0  0  0  0  0
   11.3408  -18.9985   25.5682 O   0  0  0  0  0  0  0  0  0  0  0  0
  2  1  1  1
  2  3  1  0
  4  5  2  0
  4  3  1  0
  6  5  1  0
  7 12  2  0
  7  6  1  0
  8  7  1  0
  9 10  1  0
  9  8  2  0
 10 11  2  0
 11 12  1  0
 12  4  1  0
 13  2  1  0
 13 15  1  0
 14 13  2  0
 16 15  1  0
 17 16  1  0
 18 17  2  0
 20 19  1  1
 20 21  1  0
 20 22  1  0
 21 17  1  0
 22 24  1  0
 23 22  2  0
M  END
$$$$
