WGA.pdb
     RDKit          3D

 24 25  0  0  1  0  0  0  0  0999 V2000
    7.4617  -15.8187   22.4476 N   0  0  0  0  0  0  0  0  0  0  0  0
    8.6817  -15.8969   23.2102 C   0  0  1  0  0  0  0  0  0  0  0  0
    8.4598  -16.1453   24.6744 C   0  0  0  0  0  0  0  0  0  0  0  0
    7.4260  -15.2955   25.2893 C   0  0  0  0  0  0  0  0  0  0  0  0
    6.1948  -15.6987   25.7976 C   0  0  0  0  0  0  0  0  0  0  0  0
    5.5199  -14.6573   26.3015 N   0  0  0  0  0  0  0  0  0  0  0  0
    6.2662  -13.5572   26.1458 C   0  0  0  0  0  0  0  0  0  0  0  0
    6.0170  -12.2509   26.4924 C   0  0  0  0  0  0  0  0  0  0  0  0
    6.9209  -11.2670   26.2364 C   0  0  0  0  0  0  0  0  0  0  0  0
    8.0958  -11.6240   25.6172 C   0  0  0  0  0  0  0  0  0  0  0  0
    8.3622  -12.9359   25.2618 C   0  0  0  0  0  0  0  0  0  0  0  0
    7.4546  -13.9349   25.5178 C   0  0  0  0  0  0  0  0  0  0  0  0
    9.6865  -16.8021   22.6226 C   0  0  0  0  0  0  0  0  0  0  0  0
   10.2183  -17.6779   23.3347 O   0  0  0  0  0  0  0  0  0  0  0  0
   10.0808  -16.7191   21.2611 N   0  0  0  0  0  0  0  0  0  0  0  0
   11.1485  -17.5462   20.7394 C   0  0  0  0  0  0  0  0  0  0  0  0
   12.4114  -17.2159   21.4345 C   0  0  0  0  0  0  0  0  0  0  0  0
   13.5152  -17.3314   20.8520 O   0  0  0  0  0  0  0  0  0  0  0  0
   13.4602  -15.5310   24.5852 C   0  0  0  0  0  0  0  0  0  0  0  0
   13.6649  -16.4987   23.4344 C   0  0  2  0  0  0  0  0  0  0  0  0
   12.4115  -16.7589   22.7800 N   0  0  0  0  0  0  0  0  0  0  0  0
   14.2125  -17.7784   23.9369 C   0  0  0  0  0  0  0  0  0  0  0  0
   15.3452  -17.8095   24.4639 O   0  0  0  0  0  0  0  0  0  0  0  0
   13.4669  -18.9528   23.8241 O   0  0  0  0  0  0  0  0  0  0  0  0
  2  1  1  6
  2  3  1  0
  4  5  2  0
  4  3  1  0
  6  5  1  0
  7 12  2  0
  7  6  1  0
  8  7  1  0
  9 10  1  0
  9  8  2  0
 10 11  2  0
 11 12  1  0
 12  4  1  0
 13  2  1  0
 13 15  1  0
 14 13  2  0
 16 15  1  0
 17 16  1  0
 18 17  2  0
 20 19  1  1
 20 21  1  0
 20 22  1  0
 21 17  1  0
 22 24  1  0
 23 22  2  0
M  END
$$$$
