WGA.pdb
     RDKit          3D

 24 25  0  0  1  0  0  0  0  0999 V2000
    5.7963  -16.8933   22.8143 N   0  0  0  0  0  0  0  0  0  0  0  0
    7.0073  -16.2905   22.3180 C   0  0  1  0  0  0  0  0  0  0  0  0
    7.9676  -15.8923   23.4013 C   0  0  0  0  0  0  0  0  0  0  0  0
    7.3416  -15.2423   24.5653 C   0  0  0  0  0  0  0  0  0  0  0  0
    6.4848  -15.8224   25.4959 C   0  0  0  0  0  0  0  0  0  0  0  0
    6.1262  -14.9367   26.4346 N   0  0  0  0  0  0  0  0  0  0  0  0
    6.7205  -13.7693   26.1604 C   0  0  0  0  0  0  0  0  0  0  0  0
    6.6672  -12.5627   26.8164 C   0  0  0  0  0  0  0  0  0  0  0  0
    7.3542  -11.4802   26.3616 C   0  0  0  0  0  0  0  0  0  0  0  0
    8.1057  -11.6336   25.2202 C   0  0  0  0  0  0  0  0  0  0  0  0
    8.1701  -12.8427   24.5477 C   0  0  0  0  0  0  0  0  0  0  0  0
    7.4799  -13.9404   25.0014 C   0  0  0  0  0  0  0  0  0  0  0  0
    7.6505  -17.0634   21.2394 C   0  0  0  0  0  0  0  0  0  0  0  0
    6.9753  -17.4286   20.2558 O   0  0  0  0  0  0  0  0  0  0  0  0
    9.0257  -17.4153   21.2724 N   0  0  0  0  0  0  0  0  0  0  0  0
   10.0222  -16.6029   20.6066 C   0  0  0  0  0  0  0  0  0  0  0  0
   11.0529  -16.1895   21.5833 C   0  0  0  0  0  0  0  0  0  0  0  0
   12.1303  -15.6748   21.2021 O   0  0  0  0  0  0  0  0  0  0  0  0
   11.3450  -15.7555   25.2719 C   0  0  0  0  0  0  0  0  0  0  0  0
   11.9121  -16.0194   23.8894 C   0  0  2  0  0  0  0  0  0  0  0  0
   10.8534  -16.3630   22.9794 N   0  0  0  0  0  0  0  0  0  0  0  0
   12.8764  -17.1409   23.9405 C   0  0  0  0  0  0  0  0  0  0  0  0
   13.9176  -17.0391   24.6240 O   0  0  0  0  0  0  0  0  0  0  0  0
   12.6265  -18.3138   23.2267 O   0  0  0  0  0  0  0  0  0  0  0  0
  2  1  1  1
  2  3  1  0
  4  5  2  0
  4  3  1  0
  6  5  1  0
  7 12  2  0
  7  6  1  0
  8  7  1  0
  9 10  1  0
  9  8  2  0
 10 11  2  0
 11 12  1  0
 12  4  1  0
 13  2  1  0
 13 15  1  0
 14 13  2  0
 16 15  1  0
 17 16  1  0
 18 17  2  0
 20 19  1  1
 20 21  1  0
 20 22  1  0
 21 17  1  0
 22 24  1  0
 23 22  2  0
M  END
$$$$
