WGA.pdb
     RDKit          3D

 24 25  0  0  1  0  0  0  0  0999 V2000
    6.3352  -18.4222   22.3350 N   0  0  0  0  0  0  0  0  0  0  0  0
    6.9720  -17.3344   23.0332 C   0  0  1  0  0  0  0  0  0  0  0  0
    6.2946  -16.0103   22.8274 C   0  0  0  0  0  0  0  0  0  0  0  0
    7.0699  -14.8476   23.2924 C   0  0  0  0  0  0  0  0  0  0  0  0
    8.2287  -14.3250   22.7260 C   0  0  0  0  0  0  0  0  0  0  0  0
    8.6492  -13.2480   23.4023 N   0  0  0  0  0  0  0  0  0  0  0  0
    7.8014  -13.0293   24.4145 C   0  0  0  0  0  0  0  0  0  0  0  0
    7.8006  -12.0579   25.3866 C   0  0  0  0  0  0  0  0  0  0  0  0
    6.8339  -12.0156   26.3428 C   0  0  0  0  0  0  0  0  0  0  0  0
    5.8546  -12.9803   26.3044 C   0  0  0  0  0  0  0  0  0  0  0  0
    5.8411  -13.9659   25.3314 C   0  0  0  0  0  0  0  0  0  0  0  0
    6.8133  -14.0144   24.3621 C   0  0  0  0  0  0  0  0  0  0  0  0
    7.2415  -17.6240   24.4537 C   0  0  0  0  0  0  0  0  0  0  0  0
    6.3416  -18.1170   25.1637 O   0  0  0  0  0  0  0  0  0  0  0  0
    8.4996  -17.3622   25.0576 N   0  0  0  0  0  0  0  0  0  0  0  0
    8.7791  -17.7789   26.4157 C   0  0  0  0  0  0  0  0  0  0  0  0
    9.8988  -16.9778   26.9558 C   0  0  0  0  0  0  0  0  0  0  0  0
   11.0693  -17.1467   26.5405 O   0  0  0  0  0  0  0  0  0  0  0  0
   10.3887  -14.1778   29.3958 C   0  0  0  0  0  0  0  0  0  0  0  0
   10.8120  -15.4235   28.6397 C   0  0  2  0  0  0  0  0  0  0  0  0
    9.6820  -15.9954   27.9593 N   0  0  0  0  0  0  0  0  0  0  0  0
   11.3582  -16.4281   29.5793 C   0  0  0  0  0  0  0  0  0  0  0  0
   10.7109  -17.4676   29.8285 O   0  0  0  0  0  0  0  0  0  0  0  0
   12.5958  -16.2180   30.1891 O   0  0  0  0  0  0  0  0  0  0  0  0
  2  1  1  1
  2  3  1  0
  4  5  2  0
  4  3  1  0
  6  5  1  0
  7 12  2  0
  7  6  1  0
  8  7  1  0
  9 10  1  0
  9  8  2  0
 10 11  2  0
 11 12  1  0
 12  4  1  0
 13  2  1  0
 13 15  1  0
 14 13  2  0
 16 15  1  0
 17 16  1  0
 18 17  2  0
 20 19  1  1
 20 21  1  0
 20 22  1  0
 21 17  1  0
 22 24  1  0
 23 22  2  0
M  END
$$$$
