NSK.pdb
     RDKit          3D

 24 23  0  0  1  0  0  0  0  0999 V2000
   20.7334   -6.9829  -17.6876 N   0  0  0  0  0  0  0  0  0  0  0  0
   20.5484   -8.1821  -16.9400 C   0  0  0  0  0  0  0  0  0  0  0  0
   21.4395   -9.0638  -17.0075 O   0  0  0  0  0  0  0  0  0  0  0  0
   19.3390   -8.3500  -16.1198 C   0  0  0  0  0  0  0  0  0  0  0  0
   19.5395   -8.0525  -14.6653 C   0  0  2  0  0  0  0  0  0  0  0  0
   20.4835   -8.9321  -14.0303 N   0  0  0  0  0  0  0  0  0  0  0  0
   18.2436   -8.0910  -13.9513 C   0  0  0  0  0  0  0  0  0  0  0  0
   17.3235   -7.3457  -14.4018 O   0  0  0  0  0  0  0  0  0  0  0  0
   15.3481  -10.4908  -10.9768 O   0  0  0  0  0  0  0  0  0  0  0  0
   16.5498  -10.3741  -11.6714 C   0  0  0  0  0  0  0  0  0  0  0  0
   16.7764   -8.9695  -12.1744 C   0  0  2  0  0  0  0  0  0  0  0  0
   18.0721   -8.9270  -12.8246 N   0  0  0  0  0  0  0  0  0  0  0  0
   16.8026   -7.9746  -11.0699 C   0  0  0  0  0  0  0  0  0  0  0  0
   17.8432   -7.8072  -10.3868 O   0  0  0  0  0  0  0  0  0  0  0  0
   15.6647   -7.1914  -10.7581 N   0  0  0  0  0  0  0  0  0  0  0  0
   15.5802   -6.2289   -9.6880 C   0  0  1  0  0  0  0  0  0  0  0  0
   14.3610   -5.3833   -9.8385 C   0  0  0  0  0  0  0  0  0  0  0  0
   14.2625   -4.2885   -8.8148 C   0  0  0  0  0  0  0  0  0  0  0  0
   13.0057   -3.4739   -9.0169 C   0  0  0  0  0  0  0  0  0  0  0  0
   12.9566   -2.2941   -8.0676 C   0  0  0  0  0  0  0  0  0  0  0  0
   11.7887   -1.4618   -8.2604 N   0  0  0  0  0  0  0  0  0  0  0  0
   15.5451   -6.9398   -8.3548 C   0  0  0  0  0  0  0  0  0  0  0  0
   16.1971   -6.3944   -7.2559 O   0  0  0  0  0  0  0  0  0  0  0  0
   14.9430   -8.0175   -8.1998 O   0  0  0  0  0  0  0  0  0  0  0  0
  1  2  1  0
  2  3  2  0
  4  2  1  0
  4  5  1  0
  5  6  1  1
  7  5  1  0
  7  8  2  0
  9 10  1  0
 11 10  1  1
 11 12  1  0
 12  7  1  0
 13 11  1  0
 14 13  2  0
 15 13  1  0
 16 15  1  0
 16 22  1  0
 16 17  1  6
 18 17  1  0
 19 18  1  0
 20 19  1  0
 21 20  1  0
 22 23  1  0
 24 22  2  0
M  END
$$$$
