NSK.pdb
     RDKit          3D

 24 23  0  0  1  0  0  0  0  0999 V2000
   19.0578  -15.5925  -18.5789 N   0  0  0  0  0  0  0  0  0  0  0  0
   18.7867  -15.1258  -17.2599 C   0  0  0  0  0  0  0  0  0  0  0  0
   17.8758  -15.6929  -16.6081 O   0  0  0  0  0  0  0  0  0  0  0  0
   19.5715  -14.0122  -16.7055 C   0  0  0  0  0  0  0  0  0  0  0  0
   20.5382  -13.4026  -17.6739 C   0  0  2  0  0  0  0  0  0  0  0  0
   21.6310  -14.2745  -18.0110 N   0  0  0  0  0  0  0  0  0  0  0  0
   21.0518  -12.1190  -17.1455 C   0  0  0  0  0  0  0  0  0  0  0  0
   22.0675  -12.1800  -16.3907 O   0  0  0  0  0  0  0  0  0  0  0  0
   20.3515   -8.4996  -18.9564 O   0  0  0  0  0  0  0  0  0  0  0  0
   21.3954   -8.7980  -18.0838 C   0  0  0  0  0  0  0  0  0  0  0  0
   20.9401   -9.6643  -16.9351 C   0  0  2  0  0  0  0  0  0  0  0  0
   20.4180  -10.9015  -17.4830 N   0  0  0  0  0  0  0  0  0  0  0  0
   19.8465   -9.0306  -16.1524 C   0  0  0  0  0  0  0  0  0  0  0  0
   18.6444   -9.2505  -16.4423 O   0  0  0  0  0  0  0  0  0  0  0  0
   20.1251   -8.1676  -15.0646 N   0  0  0  0  0  0  0  0  0  0  0  0
   19.1449   -7.4122  -14.3248 C   0  0  1  0  0  0  0  0  0  0  0  0
   18.6979   -8.1707  -13.1210 C   0  0  0  0  0  0  0  0  0  0  0  0
   17.5859   -7.4971  -12.3688 C   0  0  0  0  0  0  0  0  0  0  0  0
   17.1138   -8.3585  -11.2203 C   0  0  0  0  0  0  0  0  0  0  0  0
   15.8715   -7.7804  -10.5738 C   0  0  0  0  0  0  0  0  0  0  0  0
   15.2257   -8.7029   -9.6650 N   0  0  0  0  0  0  0  0  0  0  0  0
   19.7277   -6.0836  -13.9016 C   0  0  0  0  0  0  0  0  0  0  0  0
   18.8890   -5.0405  -13.5295 O   0  0  0  0  0  0  0  0  0  0  0  0
   20.9553   -5.8829  -13.8736 O   0  0  0  0  0  0  0  0  0  0  0  0
  1  2  1  0
  2  3  2  0
  4  2  1  0
  4  5  1  0
  5  6  1  1
  7  5  1  0
  7  8  2  0
  9 10  1  0
 11 10  1  6
 11 12  1  0
 12  7  1  0
 13 11  1  0
 14 13  2  0
 15 13  1  0
 16 15  1  0
 16 22  1  0
 16 17  1  1
 18 17  1  0
 19 18  1  0
 20 19  1  0
 21 20  1  0
 22 23  1  0
 24 22  2  0
M  END
$$$$
