NSK.pdb
     RDKit          3D

 24 23  0  0  1  0  0  0  0  0999 V2000
   17.4222  -13.4979  -17.3458 N   0  0  0  0  0  0  0  0  0  0  0  0
   16.6742  -13.1554  -16.1821 C   0  0  0  0  0  0  0  0  0  0  0  0
   15.6825  -13.8664  -15.8867 O   0  0  0  0  0  0  0  0  0  0  0  0
   17.0800  -11.9984  -15.3696 C   0  0  0  0  0  0  0  0  0  0  0  0
   18.3115  -11.3040  -15.8650 C   0  0  2  0  0  0  0  0  0  0  0  0
   19.5110  -12.0767  -15.6847 N   0  0  0  0  0  0  0  0  0  0  0  0
   18.4513   -9.9823  -15.2138 C   0  0  0  0  0  0  0  0  0  0  0  0
   17.6993   -9.7554  -14.2198 O   0  0  0  0  0  0  0  0  0  0  0  0
   21.8436   -7.9051  -15.3766 O   0  0  0  0  0  0  0  0  0  0  0  0
   20.8392   -7.5919  -14.4636 C   0  0  0  0  0  0  0  0  0  0  0  0
   19.4636   -7.7383  -15.0663 C   0  0  2  0  0  0  0  0  0  0  0  0
   19.3856   -9.0401  -15.7009 N   0  0  0  0  0  0  0  0  0  0  0  0
   19.1980   -6.7182  -16.1148 C   0  0  0  0  0  0  0  0  0  0  0  0
   19.6417   -6.8706  -17.2799 O   0  0  0  0  0  0  0  0  0  0  0  0
   18.4422   -5.5540  -15.8338 N   0  0  0  0  0  0  0  0  0  0  0  0
   18.1983   -4.4730  -16.7562 C   0  0  1  0  0  0  0  0  0  0  0  0
   16.7579   -4.4263  -17.1400 C   0  0  0  0  0  0  0  0  0  0  0  0
   16.3534   -5.5266  -18.0792 C   0  0  0  0  0  0  0  0  0  0  0  0
   14.9440   -5.9896  -17.7908 C   0  0  0  0  0  0  0  0  0  0  0  0
   14.5337   -7.1139  -18.7198 C   0  0  0  0  0  0  0  0  0  0  0  0
   13.2523   -7.6918  -18.3762 N   0  0  0  0  0  0  0  0  0  0  0  0
   18.6009   -3.1580  -16.1297 C   0  0  0  0  0  0  0  0  0  0  0  0
   18.5894   -1.9925  -16.8857 O   0  0  0  0  0  0  0  0  0  0  0  0
   18.9503   -3.0767  -14.9384 O   0  0  0  0  0  0  0  0  0  0  0  0
  1  2  1  0
  2  3  2  0
  4  2  1  0
  4  5  1  0
  5  6  1  1
  7  5  1  0
  7  8  2  0
  9 10  1  0
 11 10  1  6
 11 12  1  0
 12  7  1  0
 13 11  1  0
 14 13  2  0
 15 13  1  0
 16 15  1  0
 16 22  1  0
 16 17  1  1
 18 17  1  0
 19 18  1  0
 20 19  1  0
 21 20  1  0
 22 23  1  0
 24 22  2  0
M  END
$$$$
