NSK.pdb
     RDKit          3D

 24 23  0  0  1  0  0  0  0  0999 V2000
   16.5581  -17.1045  -16.3246 N   0  0  0  0  0  0  0  0  0  0  0  0
   17.6957  -16.4665  -16.8990 C   0  0  0  0  0  0  0  0  0  0  0  0
   17.5223  -15.3769  -17.4982 O   0  0  0  0  0  0  0  0  0  0  0  0
   19.0218  -17.0902  -16.7730 C   0  0  0  0  0  0  0  0  0  0  0  0
   19.0285  -18.3590  -15.9767 C   0  0  2  0  0  0  0  0  0  0  0  0
   17.9973  -18.4071  -14.9755 N   0  0  0  0  0  0  0  0  0  0  0  0
   20.3556  -18.5666  -15.3551 C   0  0  0  0  0  0  0  0  0  0  0  0
   21.2689  -17.7499  -15.6774 O   0  0  0  0  0  0  0  0  0  0  0  0
   20.8960  -21.3766  -12.3409 O   0  0  0  0  0  0  0  0  0  0  0  0
   21.7377  -20.2735  -12.4633 C   0  0  0  0  0  0  0  0  0  0  0  0
   21.8891  -19.8362  -13.8996 C   0  0  2  0  0  0  0  0  0  0  0  0
   20.5632  -19.6333  -14.4512 N   0  0  0  0  0  0  0  0  0  0  0  0
   22.5622  -20.8672  -14.7329 C   0  0  0  0  0  0  0  0  0  0  0  0
   21.8872  -21.7225  -15.3578 O   0  0  0  0  0  0  0  0  0  0  0  0
   23.9729  -20.9149  -14.8470 N   0  0  0  0  0  0  0  0  0  0  0  0
   24.7178  -21.8912  -15.6025 C   0  0  1  0  0  0  0  0  0  0  0  0
   26.1650  -21.5331  -15.6388 C   0  0  0  0  0  0  0  0  0  0  0  0
   26.9849  -22.4441  -16.5071 C   0  0  0  0  0  0  0  0  0  0  0  0
   28.3062  -21.8031  -16.8635 C   0  0  0  0  0  0  0  0  0  0  0  0
   29.1408  -22.7144  -17.7400 C   0  0  0  0  0  0  0  0  0  0  0  0
   30.4082  -22.1283  -18.1197 N   0  0  0  0  0  0  0  0  0  0  0  0
   24.5478  -23.2609  -14.9868 C   0  0  0  0  0  0  0  0  0  0  0  0
   24.0912  -23.3871  -13.6809 O   0  0  0  0  0  0  0  0  0  0  0  0
   24.8070  -24.3019  -15.6170 O   0  0  0  0  0  0  0  0  0  0  0  0
  1  2  1  0
  2  3  2  0
  4  2  1  0
  4  5  1  0
  5  6  1  1
  7  5  1  0
  7  8  2  0
  9 10  1  0
 11 10  1  1
 11 12  1  0
 12  7  1  0
 13 11  1  0
 14 13  2  0
 15 13  1  0
 16 15  1  0
 16 22  1  0
 16 17  1  1
 18 17  1  0
 19 18  1  0
 20 19  1  0
 21 20  1  0
 22 23  1  0
 24 22  2  0
M  END
$$$$
