NSK.pdb
     RDKit          3D

 24 23  0  0  1  0  0  0  0  0999 V2000
   14.4154  -25.1087   -2.1135 N   0  0  0  0  0  0  0  0  0  0  0  0
   14.6188  -25.4710   -3.4767 C   0  0  0  0  0  0  0  0  0  0  0  0
   13.9477  -26.4251   -3.9409 O   0  0  0  0  0  0  0  0  0  0  0  0
   15.5916  -24.7267   -4.2910 C   0  0  0  0  0  0  0  0  0  0  0  0
   16.5249  -25.5960   -5.0767 C   0  0  2  0  0  0  0  0  0  0  0  0
   17.4643  -26.3099   -4.2545 N   0  0  0  0  0  0  0  0  0  0  0  0
   17.2411  -24.7919   -6.0921 C   0  0  0  0  0  0  0  0  0  0  0  0
   18.2183  -24.0974   -5.6824 O   0  0  0  0  0  0  0  0  0  0  0  0
   19.3235  -25.4741   -9.5870 O   0  0  0  0  0  0  0  0  0  0  0  0
   19.0271  -24.8052   -8.4017 C   0  0  0  0  0  0  0  0  0  0  0  0
   17.6601  -24.1672   -8.4408 C   0  0  2  0  0  0  0  0  0  0  0  0
   16.8306  -24.8172   -7.4444 N   0  0  0  0  0  0  0  0  0  0  0  0
   16.9935  -24.3472   -9.7575 C   0  0  0  0  0  0  0  0  0  0  0  0
   16.3960  -25.4181  -10.0288 O   0  0  0  0  0  0  0  0  0  0  0  0
   17.0111  -23.3244  -10.7369 N   0  0  0  0  0  0  0  0  0  0  0  0
   16.3995  -23.4046  -12.0400 C   0  0  1  0  0  0  0  0  0  0  0  0
   16.3879  -22.0657  -12.6969 C   0  0  0  0  0  0  0  0  0  0  0  0
   15.7036  -22.0616  -14.0340 C   0  0  0  0  0  0  0  0  0  0  0  0
   15.8103  -20.7040  -14.6893 C   0  0  0  0  0  0  0  0  0  0  0  0
   15.1064  -20.6841  -16.0307 C   0  0  0  0  0  0  0  0  0  0  0  0
   15.3225  -19.4556  -16.7643 N   0  0  0  0  0  0  0  0  0  0  0  0
   17.1524  -24.3892  -12.9048 C   0  0  0  0  0  0  0  0  0  0  0  0
   16.4583  -25.2944  -13.6978 O   0  0  0  0  0  0  0  0  0  0  0  0
   18.3958  -24.4218  -12.9344 O   0  0  0  0  0  0  0  0  0  0  0  0
  1  2  1  0
  2  3  2  0
  4  2  1  0
  4  5  1  0
  5  6  1  1
  7  5  1  0
  7  8  2  0
  9 10  1  0
 11 10  1  6
 11 12  1  0
 12  7  1  0
 13 11  1  0
 14 13  2  0
 15 13  1  0
 16 15  1  0
 16 22  1  0
 16 17  1  6
 18 17  1  0
 19 18  1  0
 20 19  1  0
 21 20  1  0
 22 23  1  0
 24 22  2  0
M  END
$$$$
