NSK.pdb
     RDKit          3D

 24 23  0  0  1  0  0  0  0  0999 V2000
   17.9400  -14.0056  -16.7105 N   0  0  0  0  0  0  0  0  0  0  0  0
   19.2108  -13.3648  -16.6359 C   0  0  0  0  0  0  0  0  0  0  0  0
   20.2383  -14.0722  -16.7772 O   0  0  0  0  0  0  0  0  0  0  0  0
   19.2828  -11.9144  -16.4026 C   0  0  0  0  0  0  0  0  0  0  0  0
   17.9561  -11.2697  -16.1406 C   0  0  2  0  0  0  0  0  0  0  0  0
   17.0724  -11.3072  -17.2745 N   0  0  0  0  0  0  0  0  0  0  0  0
   18.1458   -9.8743  -15.6852 C   0  0  0  0  0  0  0  0  0  0  0  0
   18.2094   -8.9856  -16.5858 O   0  0  0  0  0  0  0  0  0  0  0  0
   19.0983   -8.8826  -11.7078 O   0  0  0  0  0  0  0  0  0  0  0  0
   18.1520   -8.1309  -12.4005 C   0  0  0  0  0  0  0  0  0  0  0  0
   18.3642   -8.1941  -13.8932 C   0  0  2  0  0  0  0  0  0  0  0  0
   18.2489   -9.5795  -14.3067 N   0  0  0  0  0  0  0  0  0  0  0  0
   19.7186   -7.7255  -14.2885 C   0  0  0  0  0  0  0  0  0  0  0  0
   20.4915   -8.4783  -14.9316 O   0  0  0  0  0  0  0  0  0  0  0  0
   20.1739   -6.4265  -13.9555 N   0  0  0  0  0  0  0  0  0  0  0  0
   21.4144   -5.8375  -14.3949 C   0  0  1  0  0  0  0  0  0  0  0  0
   21.5195   -5.8850  -15.8818 C   0  0  0  0  0  0  0  0  0  0  0  0
   22.8003   -5.3042  -16.4095 C   0  0  0  0  0  0  0  0  0  0  0  0
   22.8662   -5.4247  -17.9145 C   0  0  0  0  0  0  0  0  0  0  0  0
   24.1358   -4.8040  -18.4607 C   0  0  0  0  0  0  0  0  0  0  0  0
   24.2635   -4.9476  -19.8950 N   0  0  0  0  0  0  0  0  0  0  0  0
   21.5014   -4.4040  -13.9242 C   0  0  0  0  0  0  0  0  0  0  0  0
   22.7271   -3.8638  -13.5557 O   0  0  0  0  0  0  0  0  0  0  0  0
   20.4968   -3.6736  -13.8515 O   0  0  0  0  0  0  0  0  0  0  0  0
  1  2  1  0
  2  3  2  0
  4  2  1  0
  4  5  1  0
  5  6  1  6
  7  5  1  0
  7  8  2  0
  9 10  1  0
 11 10  1  1
 11 12  1  0
 12  7  1  0
 13 11  1  0
 14 13  2  0
 15 13  1  0
 16 15  1  0
 16 22  1  0
 16 17  1  6
 18 17  1  0
 19 18  1  0
 20 19  1  0
 21 20  1  0
 22 23  1  0
 24 22  2  0
M  END
$$$$
