NSK.pdb
     RDKit          3D

 24 23  0  0  1  0  0  0  0  0999 V2000
   17.4586  -10.3155  -18.3080 N   0  0  0  0  0  0  0  0  0  0  0  0
   16.4141   -9.9668  -17.4034 C   0  0  0  0  0  0  0  0  0  0  0  0
   15.2764   -9.7288  -17.8780 O   0  0  0  0  0  0  0  0  0  0  0  0
   16.6921   -9.8996  -15.9606 C   0  0  0  0  0  0  0  0  0  0  0  0
   18.1309  -10.1151  -15.6036 C   0  0  2  0  0  0  0  0  0  0  0  0
   18.5674  -11.4716  -15.7969 N   0  0  0  0  0  0  0  0  0  0  0  0
   18.3815   -9.6906  -14.2080 C   0  0  0  0  0  0  0  0  0  0  0  0
   18.0499  -10.5062  -13.2970 O   0  0  0  0  0  0  0  0  0  0  0  0
   20.5858   -6.5740  -11.2570 O   0  0  0  0  0  0  0  0  0  0  0  0
   20.3673   -7.0924  -12.5313 C   0  0  0  0  0  0  0  0  0  0  0  0
   19.2039   -8.0531  -12.5575 C   0  0  2  0  0  0  0  0  0  0  0  0
   18.9621   -8.4308  -13.9367 N   0  0  0  0  0  0  0  0  0  0  0  0
   17.9536   -7.4358  -12.0419 C   0  0  0  0  0  0  0  0  0  0  0  0
   17.2652   -6.6825  -12.7741 O   0  0  0  0  0  0  0  0  0  0  0  0
   17.5044   -7.6773  -10.7207 N   0  0  0  0  0  0  0  0  0  0  0  0
   16.3566   -7.0616  -10.1026 C   0  0  1  0  0  0  0  0  0  0  0  0
   15.4247   -8.1001   -9.5759 C   0  0  0  0  0  0  0  0  0  0  0  0
   14.1297   -7.5372   -9.0639 C   0  0  0  0  0  0  0  0  0  0  0  0
   13.2207   -8.6395   -8.5716 C   0  0  0  0  0  0  0  0  0  0  0  0
   11.8679   -8.0944   -8.1612 C   0  0  0  0  0  0  0  0  0  0  0  0
   10.9439   -9.1283   -7.7475 N   0  0  0  0  0  0  0  0  0  0  0  0
   16.7992   -6.1567   -8.9760 C   0  0  0  0  0  0  0  0  0  0  0  0
   15.9733   -5.1271   -8.5426 O   0  0  0  0  0  0  0  0  0  0  0  0
   17.8979   -6.3003   -8.4101 O   0  0  0  0  0  0  0  0  0  0  0  0
  1  2  1  0
  2  3  2  0
  4  2  1  0
  4  5  1  0
  5  6  1  1
  7  5  1  0
  7  8  2  0
  9 10  1  0
 11 10  1  6
 11 12  1  0
 12  7  1  0
 13 11  1  0
 14 13  2  0
 15 13  1  0
 16 15  1  0
 16 22  1  0
 16 17  1  1
 18 17  1  0
 19 18  1  0
 20 19  1  0
 21 20  1  0
 22 23  1  0
 24 22  2  0
M  END
$$$$
