NSK.pdb
     RDKit          3D

 24 23  0  0  1  0  0  0  0  0999 V2000
   27.2354  -22.5353  -15.3902 N   0  0  0  0  0  0  0  0  0  0  0  0
   26.4676  -21.3540  -15.6047 C   0  0  0  0  0  0  0  0  0  0  0  0
   26.6780  -20.6947  -16.6522 O   0  0  0  0  0  0  0  0  0  0  0  0
   25.4630  -20.9474  -14.6103 C   0  0  0  0  0  0  0  0  0  0  0  0
   24.0930  -21.4983  -14.8634 C   0  0  2  0  0  0  0  0  0  0  0  0
   23.5296  -21.0675  -16.1145 N   0  0  0  0  0  0  0  0  0  0  0  0
   23.1864  -21.1497  -13.7467 C   0  0  0  0  0  0  0  0  0  0  0  0
   23.5964  -21.4136  -12.5774 O   0  0  0  0  0  0  0  0  0  0  0  0
   19.5046  -19.2875  -14.4522 O   0  0  0  0  0  0  0  0  0  0  0  0
   20.2026  -19.0667  -13.2672 C   0  0  0  0  0  0  0  0  0  0  0  0
   21.0569  -20.2511  -12.8868 C   0  0  2  0  0  0  0  0  0  0  0  0
   21.9307  -20.5541  -14.0039 N   0  0  0  0  0  0  0  0  0  0  0  0
   20.2443  -21.4668  -12.6180 C   0  0  0  0  0  0  0  0  0  0  0  0
   19.9007  -22.2250  -13.5585 O   0  0  0  0  0  0  0  0  0  0  0  0
   19.8375  -21.8041  -11.3041 N   0  0  0  0  0  0  0  0  0  0  0  0
   19.0613  -22.9636  -10.9413 C   0  0  1  0  0  0  0  0  0  0  0  0
   19.1126  -23.1888   -9.4679 C   0  0  0  0  0  0  0  0  0  0  0  0
   18.3382  -24.3954   -9.0201 C   0  0  0  0  0  0  0  0  0  0  0  0
   18.4146  -24.5577   -7.5195 C   0  0  0  0  0  0  0  0  0  0  0  0
   17.6698  -25.7952   -7.0618 C   0  0  0  0  0  0  0  0  0  0  0  0
   17.6013  -25.9130   -5.6212 N   0  0  0  0  0  0  0  0  0  0  0  0
   17.6260  -22.7825  -11.3787 C   0  0  0  0  0  0  0  0  0  0  0  0
   17.0471  -21.5196  -11.3671 O   0  0  0  0  0  0  0  0  0  0  0  0
   16.9277  -23.7405  -11.7560 O   0  0  0  0  0  0  0  0  0  0  0  0
  1  2  1  0
  2  3  2  0
  4  2  1  0
  4  5  1  0
  5  6  1  6
  7  5  1  0
  7  8  2  0
  9 10  1  0
 11 10  1  6
 11 12  1  0
 12  7  1  0
 13 11  1  0
 14 13  2  0
 15 13  1  0
 16 15  1  0
 16 22  1  0
 16 17  1  1
 18 17  1  0
 19 18  1  0
 20 19  1  0
 21 20  1  0
 22 23  1  0
 24 22  2  0
M  END
$$$$
