NSK.pdb
     RDKit          3D

 24 23  0  0  1  0  0  0  0  0999 V2000
   27.8239  -15.6850  -18.5417 N   0  0  0  0  0  0  0  0  0  0  0  0
   26.5832  -15.1054  -18.9364 C   0  0  0  0  0  0  0  0  0  0  0  0
   25.9615  -15.6334  -19.8908 O   0  0  0  0  0  0  0  0  0  0  0  0
   26.0712  -13.9249  -18.2238 C   0  0  0  0  0  0  0  0  0  0  0  0
   26.9692  -13.4323  -17.1306 C   0  0  2  0  0  0  0  0  0  0  0  0
   27.0374  -14.3254  -16.0055 N   0  0  0  0  0  0  0  0  0  0  0  0
   26.5469  -12.0842  -16.6893 C   0  0  0  0  0  0  0  0  0  0  0  0
   25.8373  -12.0249  -15.6414 O   0  0  0  0  0  0  0  0  0  0  0  0
   26.9952   -7.2982  -17.3283 O   0  0  0  0  0  0  0  0  0  0  0  0
   27.3830   -8.5965  -17.6512 C   0  0  0  0  0  0  0  0  0  0  0  0
   26.5585   -9.6291  -16.9223 C   0  0  2  0  0  0  0  0  0  0  0  0
   26.9309  -10.9385  -17.4225 N   0  0  0  0  0  0  0  0  0  0  0  0
   25.1018   -9.4598  -17.1667 C   0  0  0  0  0  0  0  0  0  0  0  0
   24.5696   -9.9323  -18.2016 O   0  0  0  0  0  0  0  0  0  0  0  0
   24.2772   -8.7671  -16.2470 N   0  0  0  0  0  0  0  0  0  0  0  0
   22.8676   -8.5147  -16.4141 C   0  0  1  0  0  0  0  0  0  0  0  0
   22.0981   -9.7917  -16.3755 C   0  0  0  0  0  0  0  0  0  0  0  0
   20.6136   -9.5992  -16.4995 C   0  0  0  0  0  0  0  0  0  0  0  0
   19.8899  -10.9230  -16.4112 C   0  0  0  0  0  0  0  0  0  0  0  0
   18.4127  -10.7628  -16.7073 C   0  0  0  0  0  0  0  0  0  0  0  0
   17.6944  -12.0189  -16.6951 N   0  0  0  0  0  0  0  0  0  0  0  0
   22.3750   -7.5906  -15.3244 C   0  0  0  0  0  0  0  0  0  0  0  0
   23.2221   -7.2212  -14.2871 O   0  0  0  0  0  0  0  0  0  0  0  0
   21.2158   -7.1389  -15.3195 O   0  0  0  0  0  0  0  0  0  0  0  0
  1  2  1  0
  2  3  2  0
  4  2  1  0
  4  5  1  0
  5  6  1  1
  7  5  1  0
  7  8  2  0
  9 10  1  0
 11 10  1  6
 11 12  1  0
 12  7  1  0
 13 11  1  0
 14 13  2  0
 15 13  1  0
 16 15  1  0
 16 22  1  0
 16 17  1  1
 18 17  1  0
 19 18  1  0
 20 19  1  0
 21 20  1  0
 22 23  1  0
 24 22  2  0
M  END
$$$$
