NSK.pdb
     RDKit          3D

 24 23  0  0  1  0  0  0  0  0999 V2000
   27.4603  -24.1732  -19.8221 N   0  0  0  0  0  0  0  0  0  0  0  0
   27.0343  -22.8174  -19.7157 C   0  0  0  0  0  0  0  0  0  0  0  0
   26.8610  -22.1676  -20.7758 O   0  0  0  0  0  0  0  0  0  0  0  0
   26.8093  -22.2265  -18.3876 C   0  0  0  0  0  0  0  0  0  0  0  0
   27.0651  -23.1652  -17.2485 C   0  0  2  0  0  0  0  0  0  0  0  0
   26.9905  -24.5508  -17.6262 N   0  0  0  0  0  0  0  0  0  0  0  0
   26.1299  -22.8869  -16.1356 C   0  0  0  0  0  0  0  0  0  0  0  0
   25.3146  -23.8083  -15.8336 O   0  0  0  0  0  0  0  0  0  0  0  0
   25.9854  -19.1352  -14.3585 O   0  0  0  0  0  0  0  0  0  0  0  0
   25.8232  -20.2528  -13.5431 C   0  0  0  0  0  0  0  0  0  0  0  0
   25.3065  -21.4430  -14.3137 C   0  0  2  0  0  0  0  0  0  0  0  0
   26.1678  -21.6442  -15.4631 N   0  0  0  0  0  0  0  0  0  0  0  0
   23.9281  -21.2251  -14.8263 C   0  0  0  0  0  0  0  0  0  0  0  0
   23.7420  -20.7403  -15.9700 O   0  0  0  0  0  0  0  0  0  0  0  0
   22.7926  -21.5559  -14.0473 N   0  0  0  0  0  0  0  0  0  0  0  0
   21.4212  -21.3321  -14.4318 C   0  0  1  0  0  0  0  0  0  0  0  0
   20.5622  -22.4708  -13.9963 C   0  0  0  0  0  0  0  0  0  0  0  0
   19.1184  -22.3110  -14.3785 C   0  0  0  0  0  0  0  0  0  0  0  0
   18.2857  -23.4427  -13.8222 C   0  0  0  0  0  0  0  0  0  0  0  0
   16.8255  -23.2854  -14.1941 C   0  0  0  0  0  0  0  0  0  0  0  0
   15.9778  -24.2937  -13.5952 N   0  0  0  0  0  0  0  0  0  0  0  0
   20.9146  -20.0481  -13.8164 C   0  0  0  0  0  0  0  0  0  0  0  0
   19.9112  -19.3215  -14.4450 O   0  0  0  0  0  0  0  0  0  0  0  0
   21.3713  -19.6067  -12.7466 O   0  0  0  0  0  0  0  0  0  0  0  0
  1  2  1  0
  2  3  2  0
  4  2  1  0
  4  5  1  0
  5  6  1  6
  7  5  1  0
  7  8  2  0
  9 10  1  0
 11 10  1  6
 11 12  1  0
 12  7  1  0
 13 11  1  0
 14 13  2  0
 15 13  1  0
 16 15  1  0
 16 22  1  0
 16 17  1  1
 18 17  1  0
 19 18  1  0
 20 19  1  0
 21 20  1  0
 22 23  1  0
 24 22  2  0
M  END
$$$$
