NSK.pdb
     RDKit          3D

 24 23  0  0  1  0  0  0  0  0999 V2000
   24.8995  -10.9194  -22.1353 N   0  0  0  0  0  0  0  0  0  0  0  0
   24.3029  -10.4024  -20.9488 C   0  0  0  0  0  0  0  0  0  0  0  0
   23.0785  -10.1257  -20.9755 O   0  0  0  0  0  0  0  0  0  0  0  0
   25.1239  -10.2133  -19.7433 C   0  0  0  0  0  0  0  0  0  0  0  0
   26.5559  -10.6216  -19.9074 C   0  0  2  0  0  0  0  0  0  0  0  0
   26.7322  -12.0447  -20.0160 N   0  0  0  0  0  0  0  0  0  0  0  0
   27.3715  -10.0882  -18.7934 C   0  0  0  0  0  0  0  0  0  0  0  0
   26.7408   -9.5888  -17.8148 O   0  0  0  0  0  0  0  0  0  0  0  0
   31.1909  -11.4426  -17.9913 O   0  0  0  0  0  0  0  0  0  0  0  0
   30.2463  -10.9149  -17.1141 C   0  0  0  0  0  0  0  0  0  0  0  0
   29.5473   -9.7105  -17.6956 C   0  0  2  0  0  0  0  0  0  0  0  0
   28.7827  -10.1461  -18.8485 N   0  0  0  0  0  0  0  0  0  0  0  0
   30.5067   -8.6767  -18.1658 C   0  0  0  0  0  0  0  0  0  0  0  0
   30.8433   -8.6215  -19.3746 O   0  0  0  0  0  0  0  0  0  0  0  0
   31.0645   -7.7301  -17.2723 N   0  0  0  0  0  0  0  0  0  0  0  0
   32.0186   -6.7085  -17.6255 C   0  0  1  0  0  0  0  0  0  0  0  0
   32.1506   -5.7112  -16.5246 C   0  0  0  0  0  0  0  0  0  0  0  0
   33.0954   -4.5883  -16.8450 C   0  0  0  0  0  0  0  0  0  0  0  0
   33.2252   -3.6429  -15.6732 C   0  0  0  0  0  0  0  0  0  0  0  0
   33.9160   -2.3568  -16.0782 C   0  0  0  0  0  0  0  0  0  0  0  0
   34.0640   -1.4249  -14.9811 N   0  0  0  0  0  0  0  0  0  0  0  0
   33.3647   -7.3342  -17.9093 C   0  0  0  0  0  0  0  0  0  0  0  0
   33.6770   -8.5839  -17.3890 O   0  0  0  0  0  0  0  0  0  0  0  0
   34.2227   -6.7614  -18.6048 O   0  0  0  0  0  0  0  0  0  0  0  0
  1  2  1  0
  2  3  2  0
  4  2  1  0
  4  5  1  0
  5  6  1  1
  7  5  1  0
  7  8  2  0
  9 10  1  0
 11 10  1  6
 11 12  1  0
 12  7  1  0
 13 11  1  0
 14 13  2  0
 15 13  1  0
 16 15  1  0
 16 22  1  0
 16 17  1  1
 18 17  1  0
 19 18  1  0
 20 19  1  0
 21 20  1  0
 22 23  1  0
 24 22  2  0
M  END
$$$$
