NSK.pdb
     RDKit          3D

 24 23  0  0  1  0  0  0  0  0999 V2000
   25.4259  -15.8632  -14.9837 N   0  0  0  0  0  0  0  0  0  0  0  0
   26.6269  -16.0835  -15.7186 C   0  0  0  0  0  0  0  0  0  0  0  0
   26.8011  -15.4291  -16.7758 O   0  0  0  0  0  0  0  0  0  0  0  0
   27.6158  -17.0537  -15.2245 C   0  0  0  0  0  0  0  0  0  0  0  0
   27.7474  -18.2806  -16.0740 C   0  0  2  0  0  0  0  0  0  0  0  0
   28.1236  -17.9937  -17.4321 N   0  0  0  0  0  0  0  0  0  0  0  0
   26.4900  -19.0609  -16.0451 C   0  0  0  0  0  0  0  0  0  0  0  0
   25.8198  -19.1000  -17.1195 O   0  0  0  0  0  0  0  0  0  0  0  0
   23.9836  -22.5572  -13.9626 O   0  0  0  0  0  0  0  0  0  0  0  0
   25.1224  -21.7607  -14.0585 C   0  0  0  0  0  0  0  0  0  0  0  0
   24.8772  -20.5235  -14.8869 C   0  0  2  0  0  0  0  0  0  0  0  0
   26.0828  -19.7178  -14.8617 N   0  0  0  0  0  0  0  0  0  0  0  0
   23.7757  -19.6891  -14.3382 C   0  0  0  0  0  0  0  0  0  0  0  0
   23.9487  -19.0095  -13.2962 O   0  0  0  0  0  0  0  0  0  0  0  0
   22.5091  -19.6351  -14.9694 N   0  0  0  0  0  0  0  0  0  0  0  0
   21.3878  -18.8443  -14.5269 C   0  0  1  0  0  0  0  0  0  0  0  0
   20.8462  -18.0275  -15.6511 C   0  0  0  0  0  0  0  0  0  0  0  0
   19.6342  -17.2234  -15.2762 C   0  0  0  0  0  0  0  0  0  0  0  0
   19.1620  -16.3859  -16.4421 C   0  0  0  0  0  0  0  0  0  0  0  0
   17.9014  -15.6206  -16.0946 C   0  0  0  0  0  0  0  0  0  0  0  0
   17.4892  -14.7067  -17.1380 N   0  0  0  0  0  0  0  0  0  0  0  0
   20.3026  -19.7446  -13.9831 C   0  0  0  0  0  0  0  0  0  0  0  0
   20.2458  -21.0788  -14.3661 O   0  0  0  0  0  0  0  0  0  0  0  0
   19.4393  -19.3286  -13.1896 O   0  0  0  0  0  0  0  0  0  0  0  0
  1  2  1  0
  2  3  2  0
  4  2  1  0
  4  5  1  0
  5  6  1  6
  7  5  1  0
  7  8  2  0
  9 10  1  0
 11 10  1  1
 11 12  1  0
 12  7  1  0
 13 11  1  0
 14 13  2  0
 15 13  1  0
 16 15  1  0
 16 22  1  0
 16 17  1  6
 18 17  1  0
 19 18  1  0
 20 19  1  0
 21 20  1  0
 22 23  1  0
 24 22  2  0
M  END
$$$$
