NSK.pdb
     RDKit          3D

 24 23  0  0  1  0  0  0  0  0999 V2000
   19.2668   -9.8090  -18.0280 N   0  0  0  0  0  0  0  0  0  0  0  0
   18.8654  -10.8036  -17.0896 C   0  0  0  0  0  0  0  0  0  0  0  0
   17.9547  -11.5998  -17.4257 O   0  0  0  0  0  0  0  0  0  0  0  0
   19.5212  -10.8716  -15.7747 C   0  0  0  0  0  0  0  0  0  0  0  0
   20.5383   -9.7968  -15.5415 C   0  0  2  0  0  0  0  0  0  0  0  0
   21.8709  -10.1839  -15.9187 N   0  0  0  0  0  0  0  0  0  0  0  0
   20.5120   -9.3652  -14.1260 C   0  0  0  0  0  0  0  0  0  0  0  0
   21.1242  -10.1003  -13.2955 O   0  0  0  0  0  0  0  0  0  0  0  0
   20.8572   -5.6508  -13.2080 O   0  0  0  0  0  0  0  0  0  0  0  0
   21.0623   -6.7083  -12.3249 C   0  0  0  0  0  0  0  0  0  0  0  0
   19.9413   -7.7168  -12.3826 C   0  0  2  0  0  0  0  0  0  0  0  0
   19.8277   -8.1869  -13.7499 N   0  0  0  0  0  0  0  0  0  0  0  0
   18.6309   -7.1224  -12.0087 C   0  0  0  0  0  0  0  0  0  0  0  0
   17.9769   -6.4456  -12.8405 O   0  0  0  0  0  0  0  0  0  0  0  0
   18.0846   -7.3008  -10.7144 N   0  0  0  0  0  0  0  0  0  0  0  0
   16.8539   -6.7191  -10.2392 C   0  0  1  0  0  0  0  0  0  0  0  0
   15.9585   -7.7719   -9.6788 C   0  0  0  0  0  0  0  0  0  0  0  0
   14.5993   -7.2595   -9.2966 C   0  0  0  0  0  0  0  0  0  0  0  0
   13.7073   -8.3898   -8.8374 C   0  0  0  0  0  0  0  0  0  0  0  0
   12.3096   -7.8953   -8.5256 C   0  0  0  0  0  0  0  0  0  0  0  0
   11.4025   -8.9605   -8.1562 N   0  0  0  0  0  0  0  0  0  0  0  0
   17.1473   -5.6833   -9.1785 C   0  0  0  0  0  0  0  0  0  0  0  0
   16.2119   -4.6982   -8.8876 O   0  0  0  0  0  0  0  0  0  0  0  0
   18.2168   -5.6777   -8.5428 O   0  0  0  0  0  0  0  0  0  0  0  0
  1  2  1  0
  2  3  2  0
  4  2  1  0
  4  5  1  0
  5  6  1  1
  7  5  1  0
  7  8  2  0
  9 10  1  0
 11 10  1  6
 11 12  1  0
 12  7  1  0
 13 11  1  0
 14 13  2  0
 15 13  1  0
 16 15  1  0
 16 22  1  0
 16 17  1  1
 18 17  1  0
 19 18  1  0
 20 19  1  0
 21 20  1  0
 22 23  1  0
 24 22  2  0
M  END
$$$$
