NSK.pdb
     RDKit          3D

 24 23  0  0  1  0  0  0  0  0999 V2000
   29.8806  -21.0146  -11.2978 N   0  0  0  0  0  0  0  0  0  0  0  0
   28.7941  -20.2182  -11.7629 C   0  0  0  0  0  0  0  0  0  0  0  0
   28.7471  -19.0158  -11.4047 O   0  0  0  0  0  0  0  0  0  0  0  0
   27.7752  -20.8163  -12.6391 C   0  0  0  0  0  0  0  0  0  0  0  0
   26.3668  -20.6014  -12.1759 C   0  0  2  0  0  0  0  0  0  0  0  0
   26.0921  -21.1983  -10.8967 N   0  0  0  0  0  0  0  0  0  0  0  0
   25.4121  -21.1020  -13.1900 C   0  0  0  0  0  0  0  0  0  0  0  0
   25.1829  -22.3480  -13.1897 O   0  0  0  0  0  0  0  0  0  0  0  0
   23.0327  -18.4921  -15.1864 O   0  0  0  0  0  0  0  0  0  0  0  0
   22.6791  -19.8388  -15.1461 C   0  0  0  0  0  0  0  0  0  0  0  0
   23.8896  -20.7384  -15.0957 C   0  0  2  0  0  0  0  0  0  0  0  0
   24.8033  -20.2095  -14.1014 N   0  0  0  0  0  0  0  0  0  0  0  0
   24.6176  -20.7739  -16.3915 C   0  0  0  0  0  0  0  0  0  0  0  0
   25.5887  -20.0048  -16.5988 O   0  0  0  0  0  0  0  0  0  0  0  0
   24.2417  -21.6694  -17.4222 N   0  0  0  0  0  0  0  0  0  0  0  0
   24.9291  -21.8331  -18.6790 C   0  0  1  0  0  0  0  0  0  0  0  0
   25.8813  -22.9788  -18.6103 C   0  0  0  0  0  0  0  0  0  0  0  0
   27.3211  -22.5563  -18.5422 C   0  0  0  0  0  0  0  0  0  0  0  0
   28.1979  -23.7026  -18.0936 C   0  0  0  0  0  0  0  0  0  0  0  0
   29.6561  -23.2941  -18.0476 C   0  0  0  0  0  0  0  0  0  0  0  0
   30.5127  -24.3185  -17.4901 N   0  0  0  0  0  0  0  0  0  0  0  0
   23.9297  -22.0678  -19.7882 C   0  0  0  0  0  0  0  0  0  0  0  0
   24.3077  -21.9014  -21.1146 O   0  0  0  0  0  0  0  0  0  0  0  0
   22.7567  -22.4107  -19.5548 O   0  0  0  0  0  0  0  0  0  0  0  0
  1  2  1  0
  2  3  2  0
  4  2  1  0
  4  5  1  0
  5  6  1  1
  7  5  1  0
  7  8  2  0
  9 10  1  0
 11 10  1  6
 11 12  1  0
 12  7  1  0
 13 11  1  0
 14 13  2  0
 15 13  1  0
 16 15  1  0
 16 22  1  0
 16 17  1  1
 18 17  1  0
 19 18  1  0
 20 19  1  0
 21 20  1  0
 22 23  1  0
 24 22  2  0
M  END
$$$$
