NSK.pdb
     RDKit          3D

 24 23  0  0  1  0  0  0  0  0999 V2000
   26.5858  -13.2734  -17.8236 N   0  0  0  0  0  0  0  0  0  0  0  0
   25.4547  -14.0208  -17.3842 C   0  0  0  0  0  0  0  0  0  0  0  0
   25.4967  -15.2713  -17.4870 O   0  0  0  0  0  0  0  0  0  0  0  0
   24.2886  -13.3180  -16.8277 C   0  0  0  0  0  0  0  0  0  0  0  0
   24.4295  -11.8269  -16.7971 C   0  0  2  0  0  0  0  0  0  0  0  0
   25.6008  -11.3811  -16.0918 N   0  0  0  0  0  0  0  0  0  0  0  0
   23.2162  -11.2096  -16.2162 C   0  0  0  0  0  0  0  0  0  0  0  0
   22.4142  -11.9858  -15.6168 O   0  0  0  0  0  0  0  0  0  0  0  0
   21.0021   -8.7539  -13.4810 O   0  0  0  0  0  0  0  0  0  0  0  0
   22.0230   -9.3773  -14.1948 C   0  0  0  0  0  0  0  0  0  0  0  0
   21.8367   -9.2354  -15.6856 C   0  0  2  0  0  0  0  0  0  0  0  0
   22.9905   -9.8199  -16.3417 N   0  0  0  0  0  0  0  0  0  0  0  0
   21.7602   -7.8124  -16.1094 C   0  0  0  0  0  0  0  0  0  0  0  0
   22.7957   -7.1026  -16.1504 O   0  0  0  0  0  0  0  0  0  0  0  0
   20.5279   -7.2196  -16.4775 N   0  0  0  0  0  0  0  0  0  0  0  0
   20.3548   -5.8593  -16.9226 C   0  0  1  0  0  0  0  0  0  0  0  0
   19.1030   -5.7246  -17.7221 C   0  0  0  0  0  0  0  0  0  0  0  0
   19.1516   -6.4511  -19.0359 C   0  0  0  0  0  0  0  0  0  0  0  0
   17.8580   -6.2745  -19.7969 C   0  0  0  0  0  0  0  0  0  0  0  0
   17.8806   -7.0390  -21.1048 C   0  0  0  0  0  0  0  0  0  0  0  0
   16.5984   -7.0500  -21.7753 N   0  0  0  0  0  0  0  0  0  0  0  0
   20.3013   -4.9287  -15.7329 C   0  0  0  0  0  0  0  0  0  0  0  0
   20.3272   -5.4434  -14.4428 O   0  0  0  0  0  0  0  0  0  0  0  0
   20.2329   -3.6937  -15.8666 O   0  0  0  0  0  0  0  0  0  0  0  0
  1  2  1  0
  2  3  2  0
  4  2  1  0
  4  5  1  0
  5  6  1  1
  7  5  1  0
  7  8  2  0
  9 10  1  0
 11 10  1  1
 11 12  1  0
 12  7  1  0
 13 11  1  0
 14 13  2  0
 15 13  1  0
 16 15  1  0
 16 22  1  0
 16 17  1  1
 18 17  1  0
 19 18  1  0
 20 19  1  0
 21 20  1  0
 22 23  1  0
 24 22  2  0
M  END
$$$$
