NSK.pdb
     RDKit          3D

 24 23  0  0  1  0  0  0  0  0999 V2000
   27.4407   -8.3819  -18.1604 N   0  0  0  0  0  0  0  0  0  0  0  0
   26.8273   -7.1436  -17.8117 C   0  0  0  0  0  0  0  0  0  0  0  0
   27.5533   -6.1212  -17.7508 O   0  0  0  0  0  0  0  0  0  0  0  0
   25.3825   -7.0973  -17.5402 C   0  0  0  0  0  0  0  0  0  0  0  0
   24.7133   -8.4375  -17.5555 C   0  0  2  0  0  0  0  0  0  0  0  0
   24.7691   -9.0860  -18.8378 N   0  0  0  0  0  0  0  0  0  0  0  0
   23.3089   -8.3138  -17.1051 C   0  0  0  0  0  0  0  0  0  0  0  0
   22.4413   -8.0927  -18.0013 O   0  0  0  0  0  0  0  0  0  0  0  0
   20.1491   -9.0342  -13.5249 O   0  0  0  0  0  0  0  0  0  0  0  0
   21.4743   -8.9532  -13.9464 C   0  0  0  0  0  0  0  0  0  0  0  0
   21.5894   -8.3822  -15.3385 C   0  0  2  0  0  0  0  0  0  0  0  0
   22.9832   -8.4395  -15.7354 N   0  0  0  0  0  0  0  0  0  0  0  0
   21.1706   -6.9569  -15.3976 C   0  0  0  0  0  0  0  0  0  0  0  0
   21.9652   -6.0442  -15.0612 O   0  0  0  0  0  0  0  0  0  0  0  0
   19.8742   -6.5885  -15.8324 N   0  0  0  0  0  0  0  0  0  0  0  0
   19.3875   -5.2372  -15.9583 C   0  0  1  0  0  0  0  0  0  0  0  0
   18.8414   -5.0020  -17.3260 C   0  0  0  0  0  0  0  0  0  0  0  0
   18.4241   -3.5792  -17.5666 C   0  0  0  0  0  0  0  0  0  0  0  0
   17.8716   -3.4090  -18.9629 C   0  0  0  0  0  0  0  0  0  0  0  0
   17.5509   -1.9572  -19.2541 C   0  0  0  0  0  0  0  0  0  0  0  0
   16.8516   -1.7733  -20.5076 N   0  0  0  0  0  0  0  0  0  0  0  0
   18.3117   -4.9773  -14.9291 C   0  0  0  0  0  0  0  0  0  0  0  0
   18.1487   -3.7047  -14.3963 O   0  0  0  0  0  0  0  0  0  0  0  0
   17.5506   -5.8776  -14.5315 O   0  0  0  0  0  0  0  0  0  0  0  0
  1  2  1  0
  2  3  2  0
  4  2  1  0
  4  5  1  0
  5  6  1  6
  7  5  1  0
  7  8  2  0
  9 10  1  0
 11 10  1  1
 11 12  1  0
 12  7  1  0
 13 11  1  0
 14 13  2  0
 15 13  1  0
 16 15  1  0
 16 22  1  0
 16 17  1  6
 18 17  1  0
 19 18  1  0
 20 19  1  0
 21 20  1  0
 22 23  1  0
 24 22  2  0
M  END
$$$$
