WSP.pdb
     RDKit          3D

 28 30  0  0  1  0  0  0  0  0999 V2000
    6.2130  -16.6100   24.8301 N   0  0  0  0  0  0  0  0  0  0  0  0
    6.8649  -15.5028   24.1674 C   0  0  1  0  0  0  0  0  0  0  0  0
    8.2940  -15.3495   24.6975 C   0  0  0  0  0  0  0  0  0  0  0  0
    8.2550  -14.7354   26.0486 C   0  0  0  0  0  0  0  0  0  0  0  0
    8.8324  -15.2020   27.2345 C   0  0  0  0  0  0  0  0  0  0  0  0
    8.5100  -14.2972   28.1688 N   0  0  0  0  0  0  0  0  0  0  0  0
    7.7675  -13.2980   27.6325 C   0  0  0  0  0  0  0  0  0  0  0  0
    7.1958  -12.1471   28.1621 C   0  0  0  0  0  0  0  0  0  0  0  0
    6.4710  -11.2876   27.3484 C   0  0  0  0  0  0  0  0  0  0  0  0
    6.2946  -11.5362   26.0166 C   0  0  0  0  0  0  0  0  0  0  0  0
    6.8663  -12.6814   25.5011 C   0  0  0  0  0  0  0  0  0  0  0  0
    7.5897  -13.5462   26.2962 C   0  0  0  0  0  0  0  0  0  0  0  0
    6.8900  -15.7915   22.7122 C   0  0  0  0  0  0  0  0  0  0  0  0
    6.6988  -16.9821   22.2867 O   0  0  0  0  0  0  0  0  0  0  0  0
    8.4107  -13.3113   19.7012 O   0  0  0  0  0  0  0  0  0  0  0  0
    7.1101  -13.7799   19.6094 C   0  0  0  0  0  0  0  0  0  0  0  0
    7.0812  -15.1483   20.3021 C   0  0  2  0  0  0  0  0  0  0  0  0
    7.1192  -14.8012   21.7317 N   0  0  0  0  0  0  0  0  0  0  0  0
    8.2941  -15.9460   20.0184 C   0  0  0  0  0  0  0  0  0  0  0  0
    9.3439  -15.6289   20.7025 O   0  0  0  0  0  0  0  0  0  0  0  0
    8.3795  -17.0038   19.0759 N   0  0  0  0  0  0  0  0  0  0  0  0
    7.2505  -17.5071   18.3202 C   0  0  0  0  0  0  0  0  0  0  0  0
    7.9299  -18.0054   17.0634 C   0  0  0  0  0  0  0  0  0  0  0  0
    9.0859  -18.7909   17.6983 C   0  0  0  0  0  0  0  0  0  0  0  0
    9.5640  -17.7291   18.7059 C   0  0  1  0  0  0  0  0  0  0  0  0
   10.5147  -16.8785   17.9045 C   0  0  0  0  0  0  0  0  0  0  0  0
   10.2060  -15.7301   17.4840 O   0  0  0  0  0  0  0  0  0  0  0  0
   11.7590  -17.3758   17.6251 O   0  0  0  0  0  0  0  0  0  0  0  0
  2  1  1  1
  2  3  1  0
  3  4  1  0
  4  5  2  0
  5  6  1  0
  7  6  1  0
  8  7  2  0
  9  8  1  0
 10 11  1  0
 10  9  2  0
 11 12  2  0
 12  4  1  0
 12  7  1  0
 13  2  1  0
 13 18  1  0
 14 13  2  0
 15 16  1  0
 17 16  1  6
 17 18  1  0
 19 17  1  0
 20 19  2  0
 21 19  1  0
 21 22  1  0
 23 22  1  0
 24 23  1  0
 24 25  1  0
 25 21  1  0
 25 26  1  6
 27 26  2  0
 28 26  1  0
M  END
$$$$
