WSP.pdb
     RDKit          3D

 28 30  0  0  1  0  0  0  0  0999 V2000
    5.9489  -17.8953   24.4828 N   0  0  0  0  0  0  0  0  0  0  0  0
    6.7218  -16.8595   23.8349 C   0  0  1  0  0  0  0  0  0  0  0  0
    7.7361  -16.2744   24.8228 C   0  0  0  0  0  0  0  0  0  0  0  0
    7.0688  -15.2501   25.6650 C   0  0  0  0  0  0  0  0  0  0  0  0
    6.0405  -15.4243   26.5976 C   0  0  0  0  0  0  0  0  0  0  0  0
    5.7895  -14.2016   27.0850 N   0  0  0  0  0  0  0  0  0  0  0  0
    6.6009  -13.2805   26.5101 C   0  0  0  0  0  0  0  0  0  0  0  0
    6.7391  -11.9058   26.6630 C   0  0  0  0  0  0  0  0  0  0  0  0
    7.6818  -11.2103   25.9190 C   0  0  0  0  0  0  0  0  0  0  0  0
    8.4971  -11.8405   25.0219 C   0  0  0  0  0  0  0  0  0  0  0  0
    8.3516  -13.2051   24.8779 C   0  0  0  0  0  0  0  0  0  0  0  0
    7.4195  -13.9113   25.6097 C   0  0  0  0  0  0  0  0  0  0  0  0
    7.4283  -17.4699   22.6816 C   0  0  0  0  0  0  0  0  0  0  0  0
    7.8823  -18.6627   22.7602 O   0  0  0  0  0  0  0  0  0  0  0  0
    8.4093  -15.1838   19.7229 O   0  0  0  0  0  0  0  0  0  0  0  0
    8.2425  -16.4589   19.2074 C   0  0  0  0  0  0  0  0  0  0  0  0
    8.4049  -17.4363   20.3786 C   0  0  2  0  0  0  0  0  0  0  0  0
    7.6391  -16.7947   21.4592 N   0  0  0  0  0  0  0  0  0  0  0  0
    9.8073  -17.5308   20.8395 C   0  0  0  0  0  0  0  0  0  0  0  0
   10.2487  -16.5101   21.4983 O   0  0  0  0  0  0  0  0  0  0  0  0
   10.6731  -18.6328   20.6152 N   0  0  0  0  0  0  0  0  0  0  0  0
   10.2566  -19.8765   19.9996 C   0  0  0  0  0  0  0  0  0  0  0  0
   11.5458  -20.3384   19.3562 C   0  0  0  0  0  0  0  0  0  0  0  0
   12.5045  -20.1261   20.5361 C   0  0  0  0  0  0  0  0  0  0  0  0
   12.0727  -18.7027   20.9347 C   0  0  1  0  0  0  0  0  0  0  0  0
   12.8971  -17.8153   20.0390 C   0  0  0  0  0  0  0  0  0  0  0  0
   12.4114  -17.2295   19.0331 O   0  0  0  0  0  0  0  0  0  0  0  0
   14.2227  -17.6417   20.3327 O   0  0  0  0  0  0  0  0  0  0  0  0
  2  1  1  1
  2  3  1  0
  3  4  1  0
  4  5  2  0
  5  6  1  0
  7  6  1  0
  8  7  2  0
  9  8  1  0
 10 11  1  0
 10  9  2  0
 11 12  2  0
 12  4  1  0
 12  7  1  0
 13  2  1  0
 13 18  1  0
 14 13  2  0
 15 16  1  0
 17 16  1  6
 17 18  1  0
 19 17  1  0
 20 19  2  0
 21 19  1  0
 21 22  1  0
 23 22  1  0
 24 23  1  0
 24 25  1  0
 25 21  1  0
 25 26  1  6
 27 26  2  0
 28 26  1  0
M  END
$$$$
