WSP.pdb
     RDKit          3D

 28 30  0  0  1  0  0  0  0  0999 V2000
    6.8036  -17.3711   23.9461 N   0  0  0  0  0  0  0  0  0  0  0  0
    7.8637  -16.4102   23.7380 C   0  0  1  0  0  0  0  0  0  0  0  0
    8.3009  -15.8208   25.0827 C   0  0  0  0  0  0  0  0  0  0  0  0
    7.1949  -15.0070   25.6468 C   0  0  0  0  0  0  0  0  0  0  0  0
    5.9753  -15.4427   26.1763 C   0  0  0  0  0  0  0  0  0  0  0  0
    5.3288  -14.3291   26.5472 N   0  0  0  0  0  0  0  0  0  0  0  0
    6.0750  -13.2297   26.2791 C   0  0  0  0  0  0  0  0  0  0  0  0
    5.8662  -11.8684   26.4667 C   0  0  0  0  0  0  0  0  0  0  0  0
    6.8363  -10.9524   26.0844 C   0  0  0  0  0  0  0  0  0  0  0  0
    8.0150  -11.3479   25.5179 C   0  0  0  0  0  0  0  0  0  0  0  0
    8.2120  -12.7014   25.3362 C   0  0  0  0  0  0  0  0  0  0  0  0
    7.2580  -13.6249   25.7106 C   0  0  0  0  0  0  0  0  0  0  0  0
    9.0010  -17.1157   23.0975 C   0  0  0  0  0  0  0  0  0  0  0  0
    9.3244  -18.2943   23.4738 O   0  0  0  0  0  0  0  0  0  0  0  0
   11.3244  -15.2630   20.3745 O   0  0  0  0  0  0  0  0  0  0  0  0
   11.1650  -16.6226   20.1605 C   0  0  0  0  0  0  0  0  0  0  0  0
   10.9500  -17.2665   21.5362 C   0  0  2  0  0  0  0  0  0  0  0  0
    9.7771  -16.5499   22.0621 N   0  0  0  0  0  0  0  0  0  0  0  0
   12.0718  -16.9981   22.4622 C   0  0  0  0  0  0  0  0  0  0  0  0
   12.1544  -15.7859   22.9031 O   0  0  0  0  0  0  0  0  0  0  0  0
   13.0326  -17.9526   22.8868 N   0  0  0  0  0  0  0  0  0  0  0  0
   12.9583  -19.3667   22.5802 C   0  0  0  0  0  0  0  0  0  0  0  0
   14.4222  -19.7492   22.5754 C   0  0  0  0  0  0  0  0  0  0  0  0
   14.8620  -19.0727   23.8813 C   0  0  0  0  0  0  0  0  0  0  0  0
   14.2174  -17.6922   23.6577 C   0  0  1  0  0  0  0  0  0  0  0  0
   15.2510  -16.9402   22.8603 C   0  0  0  0  0  0  0  0  0  0  0  0
   16.2597  -16.4036   23.3944 O   0  0  0  0  0  0  0  0  0  0  0  0
   15.0837  -16.8387   21.5056 O   0  0  0  0  0  0  0  0  0  0  0  0
  2  1  1  1
  2  3  1  0
  3  4  1  0
  4  5  2  0
  5  6  1  0
  7  6  1  0
  8  7  2  0
  9  8  1  0
 10 11  1  0
 10  9  2  0
 11 12  2  0
 12  4  1  0
 12  7  1  0
 13  2  1  0
 13 18  1  0
 14 13  2  0
 15 16  1  0
 17 16  1  6
 17 18  1  0
 19 17  1  0
 20 19  2  0
 21 19  1  0
 21 22  1  0
 23 22  1  0
 24 23  1  0
 24 25  1  0
 25 21  1  0
 25 26  1  6
 27 26  2  0
 28 26  1  0
M  END
$$$$
