WSP.pdb
     RDKit          3D

 28 30  0  0  1  0  0  0  0  0999 V2000
    6.3291  -17.8483   24.7128 N   0  0  0  0  0  0  0  0  0  0  0  0
    6.9320  -16.7893   23.9348 C   0  0  1  0  0  0  0  0  0  0  0  0
    7.8296  -15.9322   24.8329 C   0  0  0  0  0  0  0  0  0  0  0  0
    6.9871  -15.0094   25.6344 C   0  0  0  0  0  0  0  0  0  0  0  0
    5.8989  -15.3171   26.4582 C   0  0  0  0  0  0  0  0  0  0  0  0
    5.4819  -14.1434   26.9524 N   0  0  0  0  0  0  0  0  0  0  0  0
    6.2468  -13.1271   26.4840 C   0  0  0  0  0  0  0  0  0  0  0  0
    6.2314  -11.7522   26.6870 C   0  0  0  0  0  0  0  0  0  0  0  0
    7.1649  -10.9413   26.0568 C   0  0  0  0  0  0  0  0  0  0  0  0
    8.1196  -11.4556   25.2258 C   0  0  0  0  0  0  0  0  0  0  0  0
    8.1259  -12.8217   25.0311 C   0  0  0  0  0  0  0  0  0  0  0  0
    7.2051  -13.6418   25.6499 C   0  0  0  0  0  0  0  0  0  0  0  0
    7.7383  -17.4153   22.8579 C   0  0  0  0  0  0  0  0  0  0  0  0
    8.2618  -18.5691   23.0308 O   0  0  0  0  0  0  0  0  0  0  0  0
    8.7454  -15.3273   19.6650 O   0  0  0  0  0  0  0  0  0  0  0  0
    8.4982  -16.6458   19.3188 C   0  0  0  0  0  0  0  0  0  0  0  0
    8.7555  -17.4902   20.5735 C   0  0  2  0  0  0  0  0  0  0  0  0
    7.9733  -16.7975   21.6099 N   0  0  0  0  0  0  0  0  0  0  0  0
   10.1717  -17.4456   20.9985 C   0  0  0  0  0  0  0  0  0  0  0  0
   10.5803  -16.3102   21.4618 O   0  0  0  0  0  0  0  0  0  0  0  0
   11.0828  -18.5319   20.9349 N   0  0  0  0  0  0  0  0  0  0  0  0
   10.7170  -19.8714   20.5210 C   0  0  0  0  0  0  0  0  0  0  0  0
   12.0217  -20.3720   19.9408 C   0  0  0  0  0  0  0  0  0  0  0  0
   12.9762  -19.9421   21.0636 C   0  0  0  0  0  0  0  0  0  0  0  0
   12.4858  -18.4939   21.2453 C   0  0  1  0  0  0  0  0  0  0  0  0
   13.2669  -17.7201   20.2154 C   0  0  0  0  0  0  0  0  0  0  0  0
   14.4676  -17.3773   20.3930 O   0  0  0  0  0  0  0  0  0  0  0  0
   12.6450  -17.3791   19.0447 O   0  0  0  0  0  0  0  0  0  0  0  0
  2  1  1  1
  2  3  1  0
  3  4  1  0
  4  5  2  0
  5  6  1  0
  7  6  1  0
  8  7  2  0
  9  8  1  0
 10 11  1  0
 10  9  2  0
 11 12  2  0
 12  4  1  0
 12  7  1  0
 13  2  1  0
 13 18  1  0
 14 13  2  0
 15 16  1  0
 17 16  1  6
 17 18  1  0
 19 17  1  0
 20 19  2  0
 21 19  1  0
 21 22  1  0
 23 22  1  0
 24 23  1  0
 24 25  1  0
 25 21  1  0
 25 26  1  6
 27 26  2  0
 28 26  1  0
M  END
$$$$
