WSP.pdb
     RDKit          3D

 28 30  0  0  1  0  0  0  0  0999 V2000
    6.1972  -16.7401   24.9815 N   0  0  0  0  0  0  0  0  0  0  0  0
    6.8608  -15.7020   24.2250 C   0  0  1  0  0  0  0  0  0  0  0  0
    8.2381  -15.4174   24.8324 C   0  0  0  0  0  0  0  0  0  0  0  0
    8.0701  -14.6831   26.1116 C   0  0  0  0  0  0  0  0  0  0  0  0
    8.3043  -15.1374   27.4140 C   0  0  0  0  0  0  0  0  0  0  0  0
    8.0027  -14.1043   28.2123 N   0  0  0  0  0  0  0  0  0  0  0  0
    7.5957  -13.0372   27.4822 C   0  0  0  0  0  0  0  0  0  0  0  0
    7.1817  -11.7542   27.8207 C   0  0  0  0  0  0  0  0  0  0  0  0
    6.8158  -10.8530   26.8306 C   0  0  0  0  0  0  0  0  0  0  0  0
    6.8481  -11.1875   25.5064 C   0  0  0  0  0  0  0  0  0  0  0  0
    7.2605  -12.4636   25.1814 C   0  0  0  0  0  0  0  0  0  0  0  0
    7.6276  -13.3714   26.1532 C   0  0  0  0  0  0  0  0  0  0  0  0
    7.0093  -16.1784   22.8276 C   0  0  0  0  0  0  0  0  0  0  0  0
    6.9600  -17.4285   22.5629 O   0  0  0  0  0  0  0  0  0  0  0  0
    8.2481  -13.6758   20.0452 O   0  0  0  0  0  0  0  0  0  0  0  0
    7.3887  -14.6102   19.4903 C   0  0  0  0  0  0  0  0  0  0  0  0
    7.4470  -15.8543   20.3859 C   0  0  2  0  0  0  0  0  0  0  0  0
    7.2082  -15.3097   21.7321 N   0  0  0  0  0  0  0  0  0  0  0  0
    8.7912  -16.4715   20.4013 C   0  0  0  0  0  0  0  0  0  0  0  0
    9.6803  -15.8564   21.1097 O   0  0  0  0  0  0  0  0  0  0  0  0
    9.1584  -17.6573   19.7131 N   0  0  0  0  0  0  0  0  0  0  0  0
    8.2257  -18.4889   18.9798 C   0  0  0  0  0  0  0  0  0  0  0  0
    9.1267  -19.0885   17.9225 C   0  0  0  0  0  0  0  0  0  0  0  0
   10.3025  -19.5192   18.8105 C   0  0  0  0  0  0  0  0  0  0  0  0
   10.4787  -18.2166   19.6127 C   0  0  1  0  0  0  0  0  0  0  0  0
   11.3775  -17.3789   18.7410 C   0  0  0  0  0  0  0  0  0  0  0  0
   12.6156  -17.5966   18.6380 O   0  0  0  0  0  0  0  0  0  0  0  0
   10.8242  -16.3440   18.0365 O   0  0  0  0  0  0  0  0  0  0  0  0
  2  1  1  1
  2  3  1  0
  3  4  1  0
  4  5  2  0
  5  6  1  0
  7  6  1  0
  8  7  2  0
  9  8  1  0
 10 11  1  0
 10  9  2  0
 11 12  2  0
 12  4  1  0
 12  7  1  0
 13  2  1  0
 13 18  1  0
 14 13  2  0
 15 16  1  0
 17 16  1  6
 17 18  1  0
 19 17  1  0
 20 19  2  0
 21 19  1  0
 21 22  1  0
 23 22  1  0
 24 23  1  0
 24 25  1  0
 25 21  1  0
 25 26  1  6
 27 26  2  0
 28 26  1  0
M  END
$$$$
