WSP.pdb
     RDKit          3D

 28 30  0  0  1  0  0  0  0  0999 V2000
    9.8475  -18.2820   25.8633 N   0  0  0  0  0  0  0  0  0  0  0  0
    8.9687  -17.1931   25.4999 C   0  0  1  0  0  0  0  0  0  0  0  0
    8.7349  -16.2880   26.7136 C   0  0  0  0  0  0  0  0  0  0  0  0
    7.4770  -15.5231   26.5225 C   0  0  0  0  0  0  0  0  0  0  0  0
    6.1858  -16.0123   26.2968 C   0  0  0  0  0  0  0  0  0  0  0  0
    5.4064  -14.9275   26.1897 N   0  0  0  0  0  0  0  0  0  0  0  0
    6.1378  -13.7956   26.3358 C   0  0  0  0  0  0  0  0  0  0  0  0
    5.8150  -12.4438   26.3112 C   0  0  0  0  0  0  0  0  0  0  0  0
    6.8015  -11.4854   26.4967 C   0  0  0  0  0  0  0  0  0  0  0  0
    8.1070  -11.8288   26.7073 C   0  0  0  0  0  0  0  0  0  0  0  0
    8.4165  -13.1733   26.7297 C   0  0  0  0  0  0  0  0  0  0  0  0
    7.4479  -14.1386   26.5471 C   0  0  0  0  0  0  0  0  0  0  0  0
    9.6192  -16.4248   24.4098 C   0  0  0  0  0  0  0  0  0  0  0  0
   10.6557  -15.7153   24.6493 O   0  0  0  0  0  0  0  0  0  0  0  0
   11.0952  -17.0785   21.3827 O   0  0  0  0  0  0  0  0  0  0  0  0
   11.0902  -15.7932   21.9000 C   0  0  0  0  0  0  0  0  0  0  0  0
    9.6217  -15.4100   22.1231 C   0  0  2  0  0  0  0  0  0  0  0  0
    9.1511  -16.4267   23.0773 N   0  0  0  0  0  0  0  0  0  0  0  0
    8.8102  -15.5606   20.8955 C   0  0  0  0  0  0  0  0  0  0  0  0
    8.5139  -16.7751   20.5673 O   0  0  0  0  0  0  0  0  0  0  0  0
    8.3487  -14.4945   20.0801 N   0  0  0  0  0  0  0  0  0  0  0  0
    8.5067  -13.0936   20.4143 C   0  0  0  0  0  0  0  0  0  0  0  0
    8.5585  -12.4622   19.0402 C   0  0  0  0  0  0  0  0  0  0  0  0
    7.3551  -13.1649   18.3963 C   0  0  0  0  0  0  0  0  0  0  0  0
    7.6783  -14.6113   18.8141 C   0  0  1  0  0  0  0  0  0  0  0  0
    8.6062  -15.0972   17.7312 C   0  0  0  0  0  0  0  0  0  0  0  0
    9.8600  -15.1078   17.8681 O   0  0  0  0  0  0  0  0  0  0  0  0
    8.0625  -15.5426   16.5567 O   0  0  0  0  0  0  0  0  0  0  0  0
  2  1  1  1
  2  3  1  0
  3  4  1  0
  4  5  2  0
  5  6  1  0
  7  6  1  0
  8  7  2  0
  9  8  1  0
 10 11  1  0
 10  9  2  0
 11 12  2  0
 12  4  1  0
 12  7  1  0
 13  2  1  0
 13 18  1  0
 14 13  2  0
 15 16  1  0
 17 16  1  6
 17 18  1  0
 19 17  1  0
 20 19  2  0
 21 19  1  0
 21 22  1  0
 23 22  1  0
 24 23  1  0
 24 25  1  0
 25 21  1  0
 25 26  1  6
 27 26  2  0
 28 26  1  0
M  END
$$$$
