WSP.pdb
     RDKit          3D

 28 30  0  0  1  0  0  0  0  0999 V2000
    6.7718  -16.9699   25.3768 N   0  0  0  0  0  0  0  0  0  0  0  0
    7.1453  -15.8150   24.5914 C   0  0  1  0  0  0  0  0  0  0  0  0
    8.5341  -15.3265   25.0152 C   0  0  0  0  0  0  0  0  0  0  0  0
    8.4278  -14.5984   26.3046 C   0  0  0  0  0  0  0  0  0  0  0  0
    9.0399  -14.8973   27.5266 C   0  0  0  0  0  0  0  0  0  0  0  0
    8.6263  -13.9463   28.3753 N   0  0  0  0  0  0  0  0  0  0  0  0
    7.7946  -13.0762   27.7519 C   0  0  0  0  0  0  0  0  0  0  0  0
    7.1117  -11.9422   28.1757 C   0  0  0  0  0  0  0  0  0  0  0  0
    6.3128  -11.2342   27.2887 C   0  0  0  0  0  0  0  0  0  0  0  0
    6.1694  -11.6190   25.9857 C   0  0  0  0  0  0  0  0  0  0  0  0
    6.8517  -12.7461   25.5755 C   0  0  0  0  0  0  0  0  0  0  0  0
    7.6498  -13.4611   26.4443 C   0  0  0  0  0  0  0  0  0  0  0  0
    7.1615  -16.2189   23.1637 C   0  0  0  0  0  0  0  0  0  0  0  0
    7.0870  -17.4540   22.8411 O   0  0  0  0  0  0  0  0  0  0  0  0
    8.3858  -13.8112   20.0686 O   0  0  0  0  0  0  0  0  0  0  0  0
    7.1741  -14.4612   19.8988 C   0  0  0  0  0  0  0  0  0  0  0  0
    7.2520  -15.7638   20.7053 C   0  0  2  0  0  0  0  0  0  0  0  0
    7.2570  -15.2946   22.1002 N   0  0  0  0  0  0  0  0  0  0  0  0
    8.5258  -16.4833   20.4866 C   0  0  0  0  0  0  0  0  0  0  0  0
    9.5427  -16.0312   21.1438 O   0  0  0  0  0  0  0  0  0  0  0  0
    8.7005  -17.6024   19.6313 N   0  0  0  0  0  0  0  0  0  0  0  0
    7.6623  -18.1331   18.7712 C   0  0  0  0  0  0  0  0  0  0  0  0
    8.4807  -18.7259   17.6450 C   0  0  0  0  0  0  0  0  0  0  0  0
    9.5260  -19.4893   18.4702 C   0  0  0  0  0  0  0  0  0  0  0  0
    9.9022  -18.3726   19.4614 C   0  0  1  0  0  0  0  0  0  0  0  0
   10.9687  -17.5947   18.7355 C   0  0  0  0  0  0  0  0  0  0  0  0
   12.1911  -17.8981   18.8008 O   0  0  0  0  0  0  0  0  0  0  0  0
   10.5908  -16.5190   17.9780 O   0  0  0  0  0  0  0  0  0  0  0  0
  2  1  1  1
  2  3  1  0
  3  4  1  0
  4  5  2  0
  5  6  1  0
  7  6  1  0
  8  7  2  0
  9  8  1  0
 10 11  1  0
 10  9  2  0
 11 12  2  0
 12  4  1  0
 12  7  1  0
 13  2  1  0
 13 18  1  0
 14 13  2  0
 15 16  1  0
 17 16  1  6
 17 18  1  0
 19 17  1  0
 20 19  2  0
 21 19  1  0
 21 22  1  0
 23 22  1  0
 24 23  1  0
 24 25  1  0
 25 21  1  0
 25 26  1  6
 27 26  2  0
 28 26  1  0
M  END
$$$$
