WSP.pdb
     RDKit          3D

 28 30  0  0  1  0  0  0  0  0999 V2000
    6.5095  -18.9849   21.4196 N   0  0  0  0  0  0  0  0  0  0  0  0
    6.9751  -17.7092   21.9156 C   0  0  1  0  0  0  0  0  0  0  0  0
    5.8641  -16.6632   21.7805 C   0  0  0  0  0  0  0  0  0  0  0  0
    6.3617  -15.3509   22.2647 C   0  0  0  0  0  0  0  0  0  0  0  0
    6.3032  -14.8206   23.5580 C   0  0  0  0  0  0  0  0  0  0  0  0
    6.8819  -13.6147   23.4760 N   0  0  0  0  0  0  0  0  0  0  0  0
    7.2953  -13.3665   22.2092 C   0  0  0  0  0  0  0  0  0  0  0  0
    7.9370  -12.2883   21.6112 C   0  0  0  0  0  0  0  0  0  0  0  0
    8.2423  -12.3187   20.2577 C   0  0  0  0  0  0  0  0  0  0  0  0
    7.9287  -13.3928   19.4738 C   0  0  0  0  0  0  0  0  0  0  0  0
    7.2918  -14.4577   20.0775 C   0  0  0  0  0  0  0  0  0  0  0  0
    6.9812  -14.4435   21.4215 C   0  0  0  0  0  0  0  0  0  0  0  0
    7.3426  -17.8802   23.3430 C   0  0  0  0  0  0  0  0  0  0  0  0
    6.6586  -18.6532   24.0977 O   0  0  0  0  0  0  0  0  0  0  0  0
    9.7198  -19.1986   26.6234 O   0  0  0  0  0  0  0  0  0  0  0  0
    9.2295  -18.9320   25.3553 C   0  0  0  0  0  0  0  0  0  0  0  0
    8.7706  -17.4681   25.3554 C   0  0  2  0  0  0  0  0  0  0  0  0
    8.4379  -17.2211   23.9432 N   0  0  0  0  0  0  0  0  0  0  0  0
    9.8642  -16.5378   25.7111 C   0  0  0  0  0  0  0  0  0  0  0  0
   11.0035  -16.7736   25.1482 O   0  0  0  0  0  0  0  0  0  0  0  0
    9.7497  -15.4374   26.6002 N   0  0  0  0  0  0  0  0  0  0  0  0
    8.4988  -14.9933   27.1808 C   0  0  0  0  0  0  0  0  0  0  0  0
    8.9719  -14.3898   28.4852 C   0  0  0  0  0  0  0  0  0  0  0  0
   10.1398  -13.5431   27.9602 C   0  0  0  0  0  0  0  0  0  0  0  0
   10.8203  -14.6056   27.0776 C   0  0  1  0  0  0  0  0  0  0  0  0
   11.7190  -15.3435   28.0354 C   0  0  0  0  0  0  0  0  0  0  0  0
   11.4143  -16.4669   28.5212 O   0  0  0  0  0  0  0  0  0  0  0  0
   12.9099  -14.7682   28.3883 O   0  0  0  0  0  0  0  0  0  0  0  0
  2  1  1  1
  2  3  1  0
  3  4  1  0
  4  5  2  0
  5  6  1  0
  7  6  1  0
  8  7  2  0
  9  8  1  0
 10 11  1  0
 10  9  2  0
 11 12  2  0
 12  4  1  0
 12  7  1  0
 13  2  1  0
 13 18  1  0
 14 13  2  0
 15 16  1  0
 17 16  1  6
 17 18  1  0
 19 17  1  0
 20 19  2  0
 21 19  1  0
 21 22  1  0
 23 22  1  0
 24 23  1  0
 24 25  1  0
 25 21  1  0
 25 26  1  1
 27 26  2  0
 28 26  1  0
M  END
$$$$
