WSP.pdb
     RDKit          3D

 28 30  0  0  1  0  0  0  0  0999 V2000
    6.6083  -17.0755   23.2693 N   0  0  0  0  0  0  0  0  0  0  0  0
    7.8670  -16.3737   23.3847 C   0  0  1  0  0  0  0  0  0  0  0  0
    8.1996  -16.1442   24.8623 C   0  0  0  0  0  0  0  0  0  0  0  0
    7.1581  -15.2806   25.4732 C   0  0  0  0  0  0  0  0  0  0  0  0
    5.8761  -15.6359   25.9066 C   0  0  0  0  0  0  0  0  0  0  0  0
    5.3314  -14.5050   26.3756 N   0  0  0  0  0  0  0  0  0  0  0  0
    6.1993  -13.4704   26.2586 C   0  0  0  0  0  0  0  0  0  0  0  0
    6.1239  -12.1224   26.5890 C   0  0  0  0  0  0  0  0  0  0  0  0
    7.2007  -11.2811   26.3463 C   0  0  0  0  0  0  0  0  0  0  0  0
    8.3578  -11.7389   25.7822 C   0  0  0  0  0  0  0  0  0  0  0  0
    8.4221  -13.0786   25.4581 C   0  0  0  0  0  0  0  0  0  0  0  0
    7.3608  -13.9282   25.6928 C   0  0  0  0  0  0  0  0  0  0  0  0
    8.9163  -17.2095   22.7506 C   0  0  0  0  0  0  0  0  0  0  0  0
    8.6021  -18.0836   21.8717 O   0  0  0  0  0  0  0  0  0  0  0  0
   12.2288  -16.5341   20.4273 O   0  0  0  0  0  0  0  0  0  0  0  0
   11.0411  -17.1200   20.8341 C   0  0  0  0  0  0  0  0  0  0  0  0
   11.3013  -17.7402   22.2129 C   0  0  2  0  0  0  0  0  0  0  0  0
   10.2884  -17.0981   23.0659 N   0  0  0  0  0  0  0  0  0  0  0  0
   12.6250  -17.3646   22.7558 C   0  0  0  0  0  0  0  0  0  0  0  0
   12.9210  -16.1083   22.6869 O   0  0  0  0  0  0  0  0  0  0  0  0
   13.5619  -18.2626   23.3305 N   0  0  0  0  0  0  0  0  0  0  0  0
   13.4299  -19.7049   23.2899 C   0  0  0  0  0  0  0  0  0  0  0  0
   14.8787  -20.1392   23.3283 C   0  0  0  0  0  0  0  0  0  0  0  0
   15.3752  -19.2534   24.4796 C   0  0  0  0  0  0  0  0  0  0  0  0
   14.7744  -17.9126   24.0186 C   0  0  1  0  0  0  0  0  0  0  0  0
   15.8133  -17.3602   23.0778 C   0  0  0  0  0  0  0  0  0  0  0  0
   16.8765  -16.8182   23.4858 O   0  0  0  0  0  0  0  0  0  0  0  0
   15.5895  -17.4528   21.7306 O   0  0  0  0  0  0  0  0  0  0  0  0
  2  1  1  1
  2  3  1  0
  3  4  1  0
  4  5  2  0
  5  6  1  0
  7  6  1  0
  8  7  2  0
  9  8  1  0
 10 11  1  0
 10  9  2  0
 11 12  2  0
 12  4  1  0
 12  7  1  0
 13  2  1  0
 13 18  1  0
 14 13  2  0
 15 16  1  0
 17 16  1  6
 17 18  1  0
 19 17  1  0
 20 19  2  0
 21 19  1  0
 21 22  1  0
 23 22  1  0
 24 23  1  0
 24 25  1  0
 25 21  1  0
 25 26  1  6
 27 26  2  0
 28 26  1  0
M  END
$$$$
