WSP.pdb
     RDKit          3D

 28 30  0  0  1  0  0  0  0  0999 V2000
    6.1946  -18.8493   22.0485 N   0  0  0  0  0  0  0  0  0  0  0  0
    6.7462  -17.5724   22.4427 C   0  0  1  0  0  0  0  0  0  0  0  0
    5.9164  -16.4383   21.8327 C   0  0  0  0  0  0  0  0  0  0  0  0
    6.7234  -15.7363   20.8032 C   0  0  0  0  0  0  0  0  0  0  0  0
    7.1102  -16.1934   19.5387 C   0  0  0  0  0  0  0  0  0  0  0  0
    7.8243  -15.1951   19.0011 N   0  0  0  0  0  0  0  0  0  0  0  0
    7.9029  -14.1469   19.8570 C   0  0  0  0  0  0  0  0  0  0  0  0
    8.5124  -12.9000   19.7817 C   0  0  0  0  0  0  0  0  0  0  0  0
    8.4199  -12.0108   20.8432 C   0  0  0  0  0  0  0  0  0  0  0  0
    7.7369  -12.3223   21.9847 C   0  0  0  0  0  0  0  0  0  0  0  0
    7.1357  -13.5626   22.0490 C   0  0  0  0  0  0  0  0  0  0  0  0
    7.2181  -14.4582   21.0028 C   0  0  0  0  0  0  0  0  0  0  0  0
    6.7045  -17.4939   23.9238 C   0  0  0  0  0  0  0  0  0  0  0  0
    5.5955  -17.2967   24.5291 O   0  0  0  0  0  0  0  0  0  0  0  0
    8.5413  -19.4178   26.5250 O   0  0  0  0  0  0  0  0  0  0  0  0
    7.5347  -18.5373   26.8869 C   0  0  0  0  0  0  0  0  0  0  0  0
    7.8111  -17.2201   26.1508 C   0  0  2  0  0  0  0  0  0  0  0  0
    7.8512  -17.6280   24.7374 N   0  0  0  0  0  0  0  0  0  0  0  0
    9.1419  -16.6634   26.4781 C   0  0  0  0  0  0  0  0  0  0  0  0
   10.1458  -17.2429   25.9064 O   0  0  0  0  0  0  0  0  0  0  0  0
    9.3828  -15.5693   27.3495 N   0  0  0  0  0  0  0  0  0  0  0  0
    8.3375  -14.8289   28.0264 C   0  0  0  0  0  0  0  0  0  0  0  0
    9.0595  -14.3621   29.2714 C   0  0  0  0  0  0  0  0  0  0  0  0
   10.3488  -13.8315   28.6290 C   0  0  0  0  0  0  0  0  0  0  0  0
   10.6640  -15.0294   27.7142 C   0  0  1  0  0  0  0  0  0  0  0  0
   11.4342  -15.9675   28.6065 C   0  0  0  0  0  0  0  0  0  0  0  0
   10.9170  -17.0027   29.1081 O   0  0  0  0  0  0  0  0  0  0  0  0
   12.7445  -15.6806   28.8797 O   0  0  0  0  0  0  0  0  0  0  0  0
  2  1  1  1
  2  3  1  0
  3  4  1  0
  4  5  2  0
  5  6  1  0
  7  6  1  0
  8  7  2  0
  9  8  1  0
 10 11  1  0
 10  9  2  0
 11 12  2  0
 12  4  1  0
 12  7  1  0
 13  2  1  0
 13 18  1  0
 14 13  2  0
 15 16  1  0
 17 16  1  1
 17 18  1  0
 19 17  1  0
 20 19  2  0
 21 19  1  0
 21 22  1  0
 23 22  1  0
 24 23  1  0
 24 25  1  0
 25 21  1  0
 25 26  1  1
 27 26  2  0
 28 26  1  0
M  END
$$$$
