WSP.pdb
     RDKit          3D

 28 30  0  0  1  0  0  0  0  0999 V2000
    6.4157  -18.0140   24.9353 N   0  0  0  0  0  0  0  0  0  0  0  0
    6.8418  -16.8163   24.2468 C   0  0  1  0  0  0  0  0  0  0  0  0
    7.7786  -16.0054   25.1477 C   0  0  0  0  0  0  0  0  0  0  0  0
    6.9866  -15.0097   25.9127 C   0  0  0  0  0  0  0  0  0  0  0  0
    5.9252  -15.2341   26.7962 C   0  0  0  0  0  0  0  0  0  0  0  0
    5.5514  -14.0194   27.2212 N   0  0  0  0  0  0  0  0  0  0  0  0
    6.3179  -13.0561   26.6537 C   0  0  0  0  0  0  0  0  0  0  0  0
    6.3380  -11.6703   26.7592 C   0  0  0  0  0  0  0  0  0  0  0  0
    7.2624  -10.9271   26.0387 C   0  0  0  0  0  0  0  0  0  0  0  0
    8.1736  -11.5200   25.2112 C   0  0  0  0  0  0  0  0  0  0  0  0
    8.1448  -12.8962   25.1138 C   0  0  0  0  0  0  0  0  0  0  0  0
    7.2325  -13.6497   25.8231 C   0  0  0  0  0  0  0  0  0  0  0  0
    7.5534  -17.2276   23.0114 C   0  0  0  0  0  0  0  0  0  0  0  0
    8.2479  -18.3012   22.9933 O   0  0  0  0  0  0  0  0  0  0  0  0
    8.6833  -14.9429   19.4968 O   0  0  0  0  0  0  0  0  0  0  0  0
    7.7728  -15.9868   19.5242 C   0  0  0  0  0  0  0  0  0  0  0  0
    8.2381  -16.9533   20.6209 C   0  0  2  0  0  0  0  0  0  0  0  0
    7.5116  -16.4839   21.8116 N   0  0  0  0  0  0  0  0  0  0  0  0
    9.6816  -16.8164   20.9132 C   0  0  0  0  0  0  0  0  0  0  0  0
   10.0401  -15.6938   21.4440 O   0  0  0  0  0  0  0  0  0  0  0  0
   10.6683  -17.8045   20.6591 N   0  0  0  0  0  0  0  0  0  0  0  0
   10.3756  -19.1257   20.1414 C   0  0  0  0  0  0  0  0  0  0  0  0
   11.6560  -19.4480   19.4024 C   0  0  0  0  0  0  0  0  0  0  0  0
   12.6742  -19.0430   20.4774 C   0  0  0  0  0  0  0  0  0  0  0  0
   12.0865  -17.6693   20.8500 C   0  0  1  0  0  0  0  0  0  0  0  0
   12.7009  -16.7326   19.8426 C   0  0  0  0  0  0  0  0  0  0  0  0
   12.0638  -16.2995   18.8440 O   0  0  0  0  0  0  0  0  0  0  0  0
   13.9998  -16.3403   20.0231 O   0  0  0  0  0  0  0  0  0  0  0  0
  2  1  1  1
  2  3  1  0
  3  4  1  0
  4  5  2  0
  5  6  1  0
  7  6  1  0
  8  7  2  0
  9  8  1  0
 10 11  1  0
 10  9  2  0
 11 12  2  0
 12  4  1  0
 12  7  1  0
 13  2  1  0
 13 18  1  0
 14 13  2  0
 15 16  1  0
 17 16  1  6
 17 18  1  0
 19 17  1  0
 20 19  2  0
 21 19  1  0
 21 22  1  0
 23 22  1  0
 24 23  1  0
 24 25  1  0
 25 21  1  0
 25 26  1  6
 27 26  2  0
 28 26  1  0
M  END
$$$$
