WSP.pdb
     RDKit          3D

 28 30  0  0  1  0  0  0  0  0999 V2000
    6.0376  -17.4532   24.1609 N   0  0  0  0  0  0  0  0  0  0  0  0
    6.7748  -16.3302   23.6267 C   0  0  1  0  0  0  0  0  0  0  0  0
    7.7615  -15.8104   24.6770 C   0  0  0  0  0  0  0  0  0  0  0  0
    7.0302  -14.9945   25.6786 C   0  0  0  0  0  0  0  0  0  0  0  0
    6.0695  -15.4103   26.6070 C   0  0  0  0  0  0  0  0  0  0  0  0
    5.7147  -14.3035   27.2739 N   0  0  0  0  0  0  0  0  0  0  0  0
    6.3982  -13.2270   26.8141 C   0  0  0  0  0  0  0  0  0  0  0  0
    6.3989  -11.8808   27.1603 C   0  0  0  0  0  0  0  0  0  0  0  0
    7.2287  -10.9881   26.4965 C   0  0  0  0  0  0  0  0  0  0  0  0
    8.0634  -11.3922   25.4933 C   0  0  0  0  0  0  0  0  0  0  0  0
    8.0548  -12.7306   25.1575 C   0  0  0  0  0  0  0  0  0  0  0  0
    7.2361  -13.6310   25.8073 C   0  0  0  0  0  0  0  0  0  0  0  0
    7.5095  -16.7957   22.4245 C   0  0  0  0  0  0  0  0  0  0  0  0
    8.0449  -17.9568   22.4042 O   0  0  0  0  0  0  0  0  0  0  0  0
    8.7915  -14.3092   19.4814 O   0  0  0  0  0  0  0  0  0  0  0  0
    8.1764  -15.4648   19.0274 C   0  0  0  0  0  0  0  0  0  0  0  0
    8.3998  -16.5378   20.1008 C   0  0  2  0  0  0  0  0  0  0  0  0
    7.6608  -16.0117   21.2596 N   0  0  0  0  0  0  0  0  0  0  0  0
    9.8194  -16.6408   20.5036 C   0  0  0  0  0  0  0  0  0  0  0  0
   10.2803  -15.6441   21.1854 O   0  0  0  0  0  0  0  0  0  0  0  0
   10.6819  -17.7269   20.2024 N   0  0  0  0  0  0  0  0  0  0  0  0
   10.2852  -18.8834   19.4250 C   0  0  0  0  0  0  0  0  0  0  0  0
   11.6032  -19.2942   18.8058 C   0  0  0  0  0  0  0  0  0  0  0  0
   12.4947  -19.2376   20.0542 C   0  0  0  0  0  0  0  0  0  0  0  0
   12.0597  -17.8609   20.5896 C   0  0  1  0  0  0  0  0  0  0  0  0
   12.9464  -16.8933   19.8499 C   0  0  0  0  0  0  0  0  0  0  0  0
   14.1383  -16.6673   20.1950 O   0  0  0  0  0  0  0  0  0  0  0  0
   12.4338  -16.2376   18.7632 O   0  0  0  0  0  0  0  0  0  0  0  0
  2  1  1  1
  2  3  1  0
  3  4  1  0
  4  5  2  0
  5  6  1  0
  7  6  1  0
  8  7  2  0
  9  8  1  0
 10 11  1  0
 10  9  2  0
 11 12  2  0
 12  4  1  0
 12  7  1  0
 13  2  1  0
 13 18  1  0
 14 13  2  0
 15 16  1  0
 17 16  1  6
 17 18  1  0
 19 17  1  0
 20 19  2  0
 21 19  1  0
 21 22  1  0
 23 22  1  0
 24 23  1  0
 24 25  1  0
 25 21  1  0
 25 26  1  6
 27 26  2  0
 28 26  1  0
M  END
$$$$
