WSP.pdb
     RDKit          3D

 28 30  0  0  1  0  0  0  0  0999 V2000
    6.8386  -17.2350   25.4210 N   0  0  0  0  0  0  0  0  0  0  0  0
    7.1014  -16.0657   24.6125 C   0  0  1  0  0  0  0  0  0  0  0  0
    8.3986  -15.3953   25.0759 C   0  0  0  0  0  0  0  0  0  0  0  0
    8.1536  -14.6784   26.3526 C   0  0  0  0  0  0  0  0  0  0  0  0
    8.4467  -15.0952   27.6556 C   0  0  0  0  0  0  0  0  0  0  0  0
    8.0315  -14.0998   28.4509 N   0  0  0  0  0  0  0  0  0  0  0  0
    7.4988  -13.0914   27.7183 C   0  0  0  0  0  0  0  0  0  0  0  0
    6.9401  -11.8635   28.0532 C   0  0  0  0  0  0  0  0  0  0  0  0
    6.4660  -11.0166   27.0612 C   0  0  0  0  0  0  0  0  0  0  0  0
    6.5293  -11.3524   25.7384 C   0  0  0  0  0  0  0  0  0  0  0  0
    7.0856  -12.5735   25.4170 C   0  0  0  0  0  0  0  0  0  0  0  0
    7.5616  -13.4270   26.3908 C   0  0  0  0  0  0  0  0  0  0  0  0
    7.2316  -16.5054   23.2013 C   0  0  0  0  0  0  0  0  0  0  0  0
    7.3873  -17.7437   22.9225 O   0  0  0  0  0  0  0  0  0  0  0  0
    8.2135  -14.1631   19.7675 O   0  0  0  0  0  0  0  0  0  0  0  0
    7.0350  -14.8839   19.8732 C   0  0  0  0  0  0  0  0  0  0  0  0
    7.3439  -16.1166   20.7325 C   0  0  2  0  0  0  0  0  0  0  0  0
    7.1932  -15.6133   22.1072 N   0  0  0  0  0  0  0  0  0  0  0  0
    8.7463  -16.5641   20.5871 C   0  0  0  0  0  0  0  0  0  0  0  0
    9.6338  -15.8127   21.1513 O   0  0  0  0  0  0  0  0  0  0  0  0
    9.1694  -17.7274   19.8927 N   0  0  0  0  0  0  0  0  0  0  0  0
    8.2658  -18.6562   19.2446 C   0  0  0  0  0  0  0  0  0  0  0  0
    9.1385  -19.1962   18.1328 C   0  0  0  0  0  0  0  0  0  0  0  0
   10.4103  -19.4988   18.9374 C   0  0  0  0  0  0  0  0  0  0  0  0
   10.5245  -18.1676   19.7030 C   0  0  1  0  0  0  0  0  0  0  0  0
   11.2769  -17.2725   18.7532 C   0  0  0  0  0  0  0  0  0  0  0  0
   10.6977  -16.4329   18.0114 O   0  0  0  0  0  0  0  0  0  0  0  0
   12.6405  -17.3788   18.6975 O   0  0  0  0  0  0  0  0  0  0  0  0
  2  1  1  1
  2  3  1  0
  3  4  1  0
  4  5  2  0
  5  6  1  0
  7  6  1  0
  8  7  2  0
  9  8  1  0
 10 11  1  0
 10  9  2  0
 11 12  2  0
 12  4  1  0
 12  7  1  0
 13  2  1  0
 13 18  1  0
 14 13  2  0
 15 16  1  0
 17 16  1  6
 17 18  1  0
 19 17  1  0
 20 19  2  0
 21 19  1  0
 21 22  1  0
 23 22  1  0
 24 23  1  0
 24 25  1  0
 25 21  1  0
 25 26  1  6
 27 26  2  0
 28 26  1  0
M  END
$$$$
