RLP.pdb
     RDKit          3D

 27 27  0  0  1  0  0  0  0  0999 V2000
   12.7458  -22.9588   17.7907 N   0  0  0  0  0  0  0  0  0  0  0  0
   12.3972  -22.1294   16.6637 C   0  0  0  0  0  0  0  0  0  0  0  0
   13.3232  -21.6394   15.9270 N   0  0  0  0  0  0  0  0  0  0  0  0
   11.0336  -21.8618   16.3772 N   0  0  0  0  0  0  0  0  0  0  0  0
   10.2319  -20.9302   17.1229 C   0  0  0  0  0  0  0  0  0  0  0  0
   10.8561  -20.5098   18.4088 C   0  0  0  0  0  0  0  0  0  0  0  0
   10.0814  -19.4943   19.1933 C   0  0  0  0  0  0  0  0  0  0  0  0
   10.3659  -18.0784   18.9069 C   0  0  2  0  0  0  0  0  0  0  0  0
   11.7322  -17.8724   18.4818 N   0  0  0  0  0  0  0  0  0  0  0  0
   10.0690  -17.1342   19.9890 C   0  0  0  0  0  0  0  0  0  0  0  0
   10.9488  -16.9166   20.8566 O   0  0  0  0  0  0  0  0  0  0  0  0
   13.1397  -20.9918   15.1494 C   0  0  0  0  0  0  0  0  0  0  0  0
    8.7307  -12.9503   19.9767 C   0  0  2  0  0  0  0  0  0  0  0  0
    7.6517  -13.9131   19.6201 C   0  0  0  0  0  0  0  0  0  0  0  0
    6.4359  -13.2396   19.0204 C   0  0  0  0  0  0  0  0  0  0  0  0
    7.3059  -14.7628   20.8048 C   0  0  2  0  0  0  0  0  0  0  0  0
    8.5350  -15.5353   21.2323 N   0  0  0  0  0  0  0  0  0  0  0  0
    8.8426  -16.4429   20.1238 C   0  0  0  0  0  0  0  0  0  0  0  0
    8.2928  -16.3192   22.4916 O   0  0  0  0  0  0  0  0  0  0  0  0
    7.6089  -17.3591   22.3080 N   0  0  0  0  0  0  0  0  0  0  0  0
    8.8006  -15.8975   23.7387 C   0  0  0  0  0  0  0  0  0  0  0  0
    9.8742  -14.8995   23.9527 C   0  0  0  0  0  0  0  0  0  0  0  0
    9.5375  -14.2259   25.2398 C   0  0  0  0  0  0  0  0  0  0  0  0
    8.3464  -14.9677   25.7744 C   0  0  2  0  0  0  0  0  0  0  0  0
    8.5078  -16.3405   25.0593 C   0  0  0  0  0  0  0  0  0  0  0  0
    7.3427  -17.1591   25.3060 O   0  0  0  0  0  0  0  0  0  0  0  0
    6.4624  -17.1873   24.3676 O   0  0  0  0  0  0  0  0  0  0  0  0
  2  1  1  0
  2  3  2  0
  4  2  1  0
  5  4  1  0
  6  5  1  0
  7  6  1  0
  8  7  1  0
  8  9  1  1
 10 17  1  0
 10  8  1  0
 11 10  2  0
 13 12  1  6
 14 13  1  0
 15 13  1  0
 16 17  1  0
 16 15  1  6
 18 16  1  0
 19 18  2  0
 20 18  1  0
 20 24  1  0
 21 22  1  0
 21 20  1  0
 22 23  1  0
 23 24  1  0
 24 25  1  6
 25 27  1  0
 26 25  2  0
M  END
$$$$
