RLP.pdb
     RDKit          3D

 27 27  0  0  1  0  0  0  0  0999 V2000
   10.8149  -21.5844   23.5486 N   0  0  0  0  0  0  0  0  0  0  0  0
    9.8519  -21.6158   22.4756 C   0  0  0  0  0  0  0  0  0  0  0  0
    9.0711  -22.6238   22.3542 N   0  0  0  0  0  0  0  0  0  0  0  0
    9.7741  -20.5324   21.5629 N   0  0  0  0  0  0  0  0  0  0  0  0
    9.0013  -19.3441   21.8024 C   0  0  0  0  0  0  0  0  0  0  0  0
    9.8201  -18.1904   22.2700 C   0  0  0  0  0  0  0  0  0  0  0  0
   10.1024  -17.1454   21.2332 C   0  0  0  0  0  0  0  0  0  0  0  0
    9.2532  -15.9428   21.2565 C   0  0  2  0  0  0  0  0  0  0  0  0
    9.5884  -15.0185   20.1967 N   0  0  0  0  0  0  0  0  0  0  0  0
    9.2228  -15.2051   22.5236 C   0  0  0  0  0  0  0  0  0  0  0  0
   10.2033  -14.4821   22.8231 O   0  0  0  0  0  0  0  0  0  0  0  0
    8.3583  -22.6973   21.6165 C   0  0  0  0  0  0  0  0  0  0  0  0
    5.1942  -12.7691   26.3048 C   0  0  1  0  0  0  0  0  0  0  0  0
    6.6059  -13.1952   26.0945 C   0  0  0  0  0  0  0  0  0  0  0  0
    7.5464  -12.0298   25.8740 C   0  0  0  0  0  0  0  0  0  0  0  0
    6.6811  -14.2049   24.9898 C   0  0  2  0  0  0  0  0  0  0  0  0
    8.1338  -14.5296   24.7175 N   0  0  0  0  0  0  0  0  0  0  0  0
    8.1497  -15.2535   23.4435 C   0  0  0  0  0  0  0  0  0  0  0  0
    8.7300  -15.3799   25.8039 O   0  0  0  0  0  0  0  0  0  0  0  0
    8.2531  -16.5433   25.8451 N   0  0  0  0  0  0  0  0  0  0  0  0
    9.7262  -14.8853   26.6723 C   0  0  0  0  0  0  0  0  0  0  0  0
   10.4053  -13.5731   26.5657 C   0  0  0  0  0  0  0  0  0  0  0  0
   10.7059  -13.1679   27.9690 C   0  0  0  0  0  0  0  0  0  0  0  0
   10.2987  -14.3401   28.8147 C   0  0  2  0  0  0  0  0  0  0  0  0
   10.3833  -15.4967   27.7770 C   0  0  0  0  0  0  0  0  0  0  0  0
    9.8509  -16.7099   28.3541 O   0  0  0  0  0  0  0  0  0  0  0  0
    8.6077  -16.9483   28.1221 O   0  0  0  0  0  0  0  0  0  0  0  0
  2  1  1  0
  2  3  2  0
  4  2  1  0
  5  4  1  0
  6  5  1  0
  7  6  1  0
  8  7  1  0
  8  9  1  6
 10 17  1  0
 10  8  1  0
 11 10  2  0
 13 12  1  1
 14 13  1  0
 15 13  1  0
 16 17  1  0
 16 15  1  6
 18 16  1  0
 19 18  2  0
 20 18  1  0
 20 24  1  0
 21 22  1  0
 21 20  1  0
 22 23  1  0
 23 24  1  0
 24 25  1  1
 25 27  1  0
 26 25  2  0
M  END
$$$$
