RLP.pdb
     RDKit          3D

 27 27  0  0  1  0  0  0  0  0999 V2000
    6.3114  -21.0756   25.0340 N   0  0  0  0  0  0  0  0  0  0  0  0
    6.7633  -21.0417   23.6649 C   0  0  0  0  0  0  0  0  0  0  0  0
    5.9061  -21.0701   22.7138 N   0  0  0  0  0  0  0  0  0  0  0  0
    8.1516  -20.9768   23.3795 N   0  0  0  0  0  0  0  0  0  0  0  0
    8.6856  -20.8460   22.0512 C   0  0  0  0  0  0  0  0  0  0  0  0
    8.5886  -19.4618   21.5085 C   0  0  0  0  0  0  0  0  0  0  0  0
    9.0856  -18.3814   22.4209 C   0  0  0  0  0  0  0  0  0  0  0  0
    8.8503  -16.9925   21.9925 C   0  0  2  0  0  0  0  0  0  0  0  0
    9.6380  -16.6392   20.8330 N   0  0  0  0  0  0  0  0  0  0  0  0
    9.0477  -15.9639   23.0189 C   0  0  0  0  0  0  0  0  0  0  0  0
   10.1529  -15.3730   23.0745 O   0  0  0  0  0  0  0  0  0  0  0  0
    4.8911  -21.1187   22.8728 C   0  0  0  0  0  0  0  0  0  0  0  0
    5.8675  -12.4950   26.9294 C   0  0  1  0  0  0  0  0  0  0  0  0
    7.1745  -12.8707   26.3218 C   0  0  0  0  0  0  0  0  0  0  0  0
    7.9262  -11.6830   25.7599 C   0  0  0  0  0  0  0  0  0  0  0  0
    6.9786  -13.9538   25.3050 C   0  0  2  0  0  0  0  0  0  0  0  0
    8.3034  -14.6420   25.0570 N   0  0  0  0  0  0  0  0  0  0  0  0
    8.0645  -15.5872   23.9632 C   0  0  0  0  0  0  0  0  0  0  0  0
    8.7906  -15.3731   26.2764 O   0  0  0  0  0  0  0  0  0  0  0  0
    8.0851  -16.3711   26.5746 N   0  0  0  0  0  0  0  0  0  0  0  0
    9.9328  -14.9507   26.9892 C   0  0  0  0  0  0  0  0  0  0  0  0
   10.7727  -13.7718   26.6746 C   0  0  0  0  0  0  0  0  0  0  0  0
   11.2745  -13.2809   27.9903 C   0  0  0  0  0  0  0  0  0  0  0  0
   10.8005  -14.2905   28.9957 C   0  0  2  0  0  0  0  0  0  0  0  0
   10.6123  -15.5426   28.0910 C   0  0  0  0  0  0  0  0  0  0  0  0
    9.9807  -16.6001   28.8468 O   0  0  0  0  0  0  0  0  0  0  0  0
   10.7667  -17.4982   29.3285 O   0  0  0  0  0  0  0  0  0  0  0  0
  2  1  1  0
  2  3  2  0
  4  2  1  0
  5  4  1  0
  6  5  1  0
  7  6  1  0
  8  7  1  0
  8  9  1  6
 10 17  1  0
 10  8  1  0
 11 10  2  0
 13 12  1  1
 14 13  1  0
 15 13  1  0
 16 17  1  0
 16 15  1  6
 18 16  1  0
 19 18  2  0
 20 18  1  0
 20 24  1  0
 21 22  1  0
 21 20  1  0
 22 23  1  0
 23 24  1  0
 24 25  1  1
 25 27  1  0
 26 25  2  0
M  END
$$$$
