RLP.pdb
     RDKit          3D

 27 27  0  0  1  0  0  0  0  0999 V2000
    6.7433  -14.1819   16.4985 N   0  0  0  0  0  0  0  0  0  0  0  0
    8.0500  -13.5867   16.6326 C   0  0  0  0  0  0  0  0  0  0  0  0
    8.8140  -13.4980   15.6085 N   0  0  0  0  0  0  0  0  0  0  0  0
    8.4811  -13.1033   17.8949 N   0  0  0  0  0  0  0  0  0  0  0  0
    7.6602  -13.1177   19.0750 C   0  0  0  0  0  0  0  0  0  0  0  0
    7.7562  -14.3886   19.8468 C   0  0  0  0  0  0  0  0  0  0  0  0
    9.1446  -14.9253   20.0239 C   0  0  0  0  0  0  0  0  0  0  0  0
    9.3796  -15.7789   21.2003 C   0  0  2  0  0  0  0  0  0  0  0  0
    8.4441  -16.8787   21.2710 N   0  0  0  0  0  0  0  0  0  0  0  0
    9.3894  -15.0936   22.4968 C   0  0  0  0  0  0  0  0  0  0  0  0
   10.1628  -14.1188   22.6568 O   0  0  0  0  0  0  0  0  0  0  0  0
    9.7718  -13.1259   15.6520 C   0  0  0  0  0  0  0  0  0  0  0  0
    5.7924  -13.0013   26.6145 C   0  0  1  0  0  0  0  0  0  0  0  0
    7.1302  -13.1850   25.9858 C   0  0  0  0  0  0  0  0  0  0  0  0
    7.5318  -12.0214   25.1047 C   0  0  0  0  0  0  0  0  0  0  0  0
    7.1837  -14.4945   25.2595 C   0  0  2  0  0  0  0  0  0  0  0  0
    8.6218  -14.8004   24.9010 N   0  0  0  0  0  0  0  0  0  0  0  0
    8.5762  -15.4612   23.5939 C   0  0  0  0  0  0  0  0  0  0  0  0
    9.2714  -15.7006   25.9141 O   0  0  0  0  0  0  0  0  0  0  0  0
    8.9298  -16.9062   25.8018 N   0  0  0  0  0  0  0  0  0  0  0  0
   10.1719  -15.2039   26.8803 C   0  0  0  0  0  0  0  0  0  0  0  0
   10.7896  -13.8576   26.8887 C   0  0  0  0  0  0  0  0  0  0  0  0
   10.9610  -13.5097   28.3286 C   0  0  0  0  0  0  0  0  0  0  0  0
   10.5505  -14.7407   29.0841 C   0  0  2  0  0  0  0  0  0  0  0  0
   10.7729  -15.8385   28.0038 C   0  0  0  0  0  0  0  0  0  0  0  0
   10.2602  -17.1029   28.4802 O   0  0  0  0  0  0  0  0  0  0  0  0
    8.9937  -17.2867   28.3449 O   0  0  0  0  0  0  0  0  0  0  0  0
  2  1  1  0
  2  3  2  0
  4  2  1  0
  5  4  1  0
  6  5  1  0
  7  6  1  0
  8  7  1  0
  8  9  1  1
 10 17  1  0
 10  8  1  0
 11 10  2  0
 13 12  1  1
 14 13  1  0
 15 13  1  0
 16 17  1  0
 16 15  1  6
 18 16  1  0
 19 18  2  0
 20 18  1  0
 20 24  1  0
 21 22  1  0
 21 20  1  0
 22 23  1  0
 23 24  1  0
 24 25  1  1
 25 27  1  0
 26 25  2  0
M  END
$$$$
