RLP.pdb
     RDKit          3D

 27 27  0  0  1  0  0  0  0  0999 V2000
    8.1303  -12.7077   17.3409 N   0  0  0  0  0  0  0  0  0  0  0  0
    8.4703  -13.8904   16.5891 C   0  0  0  0  0  0  0  0  0  0  0  0
    8.6546  -13.8063   15.3245 N   0  0  0  0  0  0  0  0  0  0  0  0
    8.5993  -15.1378   17.2528 N   0  0  0  0  0  0  0  0  0  0  0  0
    8.3392  -15.3240   18.6543 C   0  0  0  0  0  0  0  0  0  0  0  0
    9.3187  -14.6277   19.5351 C   0  0  0  0  0  0  0  0  0  0  0  0
   10.0061  -15.5004   20.5415 C   0  0  0  0  0  0  0  0  0  0  0  0
    9.1764  -16.0274   21.6377 C   0  0  2  0  0  0  0  0  0  0  0  0
    7.7702  -16.0332   21.3023 N   0  0  0  0  0  0  0  0  0  0  0  0
    9.3408  -15.3698   22.9381 C   0  0  0  0  0  0  0  0  0  0  0  0
   10.4241  -14.7874   23.1857 O   0  0  0  0  0  0  0  0  0  0  0  0
    8.8795  -14.6176   14.7337 C   0  0  0  0  0  0  0  0  0  0  0  0
    7.9232  -12.1289   25.3092 C   0  0  2  0  0  0  0  0  0  0  0  0
    6.7726  -13.0719   25.2375 C   0  0  0  0  0  0  0  0  0  0  0  0
    5.5230  -12.5278   25.8962 C   0  0  0  0  0  0  0  0  0  0  0  0
    7.1674  -14.4104   25.7831 C   0  0  2  0  0  0  0  0  0  0  0  0
    8.5488  -14.7616   25.2744 N   0  0  0  0  0  0  0  0  0  0  0  0
    8.3489  -15.3468   23.9459 C   0  0  0  0  0  0  0  0  0  0  0  0
    9.2429  -15.7449   26.1745 O   0  0  0  0  0  0  0  0  0  0  0  0
    9.0097  -16.9447   25.8764 N   0  0  0  0  0  0  0  0  0  0  0  0
   10.0683  -15.3238   27.2387 C   0  0  0  0  0  0  0  0  0  0  0  0
   10.5875  -13.9531   27.4523 C   0  0  0  0  0  0  0  0  0  0  0  0
   10.6788  -13.7905   28.9318 C   0  0  0  0  0  0  0  0  0  0  0  0
   10.3288  -15.1358   29.4995 C   0  0  2  0  0  0  0  0  0  0  0  0
   10.6700  -16.0622   28.2965 C   0  0  0  0  0  0  0  0  0  0  0  0
   10.2312  -17.4099   28.5786 O   0  0  0  0  0  0  0  0  0  0  0  0
    9.0944  -17.7504   28.0807 O   0  0  0  0  0  0  0  0  0  0  0  0
  2  1  1  0
  2  3  2  0
  4  2  1  0
  5  4  1  0
  6  5  1  0
  7  6  1  0
  8  7  1  0
  8  9  1  6
 10 17  1  0
 10  8  1  0
 11 10  2  0
 13 12  1  6
 14 13  1  0
 15 13  1  0
 16 17  1  0
 16 15  1  6
 18 16  1  0
 19 18  2  0
 20 18  1  0
 20 24  1  0
 21 22  1  0
 21 20  1  0
 22 23  1  0
 23 24  1  0
 24 25  1  1
 25 27  1  0
 26 25  2  0
M  END
$$$$
