RLP.pdb
     RDKit          3D

 27 27  0  0  1  0  0  0  0  0999 V2000
   13.1658  -21.2641   20.4488 N   0  0  0  0  0  0  0  0  0  0  0  0
   12.0605  -20.9733   19.5694 C   0  0  0  0  0  0  0  0  0  0  0  0
   11.3734  -21.9350   19.0759 N   0  0  0  0  0  0  0  0  0  0  0  0
   11.7404  -19.6269   19.2567 N   0  0  0  0  0  0  0  0  0  0  0  0
   11.5279  -18.6086   20.2488 C   0  0  0  0  0  0  0  0  0  0  0  0
   10.2099  -18.7176   20.9352 C   0  0  0  0  0  0  0  0  0  0  0  0
    9.9946  -17.7529   22.0621 C   0  0  0  0  0  0  0  0  0  0  0  0
    9.4826  -16.4197   21.7039 C   0  0  2  0  0  0  0  0  0  0  0  0
   10.1946  -15.8453   20.5845 N   0  0  0  0  0  0  0  0  0  0  0  0
    9.4504  -15.4336   22.7889 C   0  0  0  0  0  0  0  0  0  0  0  0
   10.4763  -14.7456   23.0080 O   0  0  0  0  0  0  0  0  0  0  0  0
   10.5689  -21.7890   18.4521 C   0  0  0  0  0  0  0  0  0  0  0  0
    5.5946  -12.7390   26.7373 C   0  0  1  0  0  0  0  0  0  0  0  0
    6.9759  -12.9465   26.2201 C   0  0  0  0  0  0  0  0  0  0  0  0
    7.6595  -11.6534   25.8304 C   0  0  0  0  0  0  0  0  0  0  0  0
    6.9640  -13.9441   25.1022 C   0  0  2  0  0  0  0  0  0  0  0  0
    8.3764  -14.4315   24.8620 N   0  0  0  0  0  0  0  0  0  0  0  0
    8.3272  -15.2020   23.6166 C   0  0  0  0  0  0  0  0  0  0  0  0
    8.8681  -15.2974   25.9878 O   0  0  0  0  0  0  0  0  0  0  0  0
    8.2654  -16.3987   26.0699 N   0  0  0  0  0  0  0  0  0  0  0  0
    9.9073  -14.8807   26.8465 C   0  0  0  0  0  0  0  0  0  0  0  0
   10.6770  -13.6196   26.7389 C   0  0  0  0  0  0  0  0  0  0  0  0
   11.0223  -13.2458   28.1406 C   0  0  0  0  0  0  0  0  0  0  0  0
   10.5426  -14.3913   28.9847 C   0  0  2  0  0  0  0  0  0  0  0  0
   10.5322  -15.5444   27.9397 C   0  0  0  0  0  0  0  0  0  0  0  0
    9.9214  -16.7202   28.5166 O   0  0  0  0  0  0  0  0  0  0  0  0
    8.6723  -16.8927   28.2593 O   0  0  0  0  0  0  0  0  0  0  0  0
  2  1  1  0
  2  3  2  0
  4  2  1  0
  5  4  1  0
  6  5  1  0
  7  6  1  0
  8  7  1  0
  8  9  1  6
 10 17  1  0
 10  8  1  0
 11 10  2  0
 13 12  1  1
 14 13  1  0
 15 13  1  0
 16 17  1  0
 16 15  1  6
 18 16  1  0
 19 18  2  0
 20 18  1  0
 20 24  1  0
 21 22  1  0
 21 20  1  0
 22 23  1  0
 23 24  1  0
 24 25  1  1
 25 27  1  0
 26 25  2  0
M  END
$$$$
