RLP.pdb
     RDKit          3D

 27 27  0  0  1  0  0  0  0  0999 V2000
    9.8941  -21.6920   20.4620 N   0  0  0  0  0  0  0  0  0  0  0  0
    9.2328  -21.1908   19.2825 C   0  0  0  0  0  0  0  0  0  0  0  0
    9.4424  -21.7533   18.1512 N   0  0  0  0  0  0  0  0  0  0  0  0
    8.3554  -20.0802   19.3815 N   0  0  0  0  0  0  0  0  0  0  0  0
    8.2426  -19.2574   20.5548 C   0  0  0  0  0  0  0  0  0  0  0  0
    9.4989  -18.5294   20.8896 C   0  0  0  0  0  0  0  0  0  0  0  0
    9.4473  -17.7090   22.1430 C   0  0  0  0  0  0  0  0  0  0  0  0
    9.0417  -16.3012   21.9969 C   0  0  2  0  0  0  0  0  0  0  0  0
    9.7076  -15.6546   20.8886 N   0  0  0  0  0  0  0  0  0  0  0  0
    9.2023  -15.4617   23.1886 C   0  0  0  0  0  0  0  0  0  0  0  0
   10.3185  -14.9321   23.4061 O   0  0  0  0  0  0  0  0  0  0  0  0
    9.0727  -21.3871   17.2640 C   0  0  0  0  0  0  0  0  0  0  0  0
    7.6669  -11.9397   25.3350 C   0  0  2  0  0  0  0  0  0  0  0  0
    6.5711  -12.9480   25.2992 C   0  0  0  0  0  0  0  0  0  0  0  0
    5.2734  -12.4285   25.8802 C   0  0  0  0  0  0  0  0  0  0  0  0
    7.0187  -14.2201   25.9522 C   0  0  2  0  0  0  0  0  0  0  0  0
    8.3920  -14.5845   25.4312 N   0  0  0  0  0  0  0  0  0  0  0  0
    8.1714  -15.2050   24.1222 C   0  0  0  0  0  0  0  0  0  0  0  0
    9.1009  -15.5432   26.3461 O   0  0  0  0  0  0  0  0  0  0  0  0
    8.7557  -16.7412   26.1776 N   0  0  0  0  0  0  0  0  0  0  0  0
   10.0551  -15.1036   27.2882 C   0  0  0  0  0  0  0  0  0  0  0  0
   10.7188  -13.7795   27.3068 C   0  0  0  0  0  0  0  0  0  0  0  0
   10.9581  -13.4770   28.7473 C   0  0  0  0  0  0  0  0  0  0  0  0
   10.5351  -14.7137   29.4864 C   0  0  2  0  0  0  0  0  0  0  0  0
   10.6771  -15.7884   28.3699 C   0  0  0  0  0  0  0  0  0  0  0  0
   10.1400  -17.0475   28.8333 O   0  0  0  0  0  0  0  0  0  0  0  0
    8.9736  -17.3622   28.3900 O   0  0  0  0  0  0  0  0  0  0  0  0
  2  1  1  0
  2  3  2  0
  4  2  1  0
  5  4  1  0
  6  5  1  0
  7  6  1  0
  8  7  1  0
  8  9  1  6
 10 17  1  0
 10  8  1  0
 11 10  2  0
 13 12  1  6
 14 13  1  0
 15 13  1  0
 16 17  1  0
 16 15  1  6
 18 16  1  0
 19 18  2  0
 20 18  1  0
 20 24  1  0
 21 22  1  0
 21 20  1  0
 22 23  1  0
 23 24  1  0
 24 25  1  1
 25 27  1  0
 26 25  2  0
M  END
$$$$
