RLP.pdb
     RDKit          3D

 27 27  0  0  1  0  0  0  0  0999 V2000
    8.7347  -13.9576   15.4588 N   0  0  0  0  0  0  0  0  0  0  0  0
    8.3831  -13.9514   16.8574 C   0  0  0  0  0  0  0  0  0  0  0  0
    8.2643  -12.8363   17.4759 N   0  0  0  0  0  0  0  0  0  0  0  0
    8.1706  -15.1775   17.5389 N   0  0  0  0  0  0  0  0  0  0  0  0
    7.2205  -15.3408   18.6053 C   0  0  0  0  0  0  0  0  0  0  0  0
    7.7771  -15.0140   19.9483 C   0  0  0  0  0  0  0  0  0  0  0  0
    9.0357  -15.7418   20.3127 C   0  0  0  0  0  0  0  0  0  0  0  0
    9.0318  -16.4727   21.5909 C   0  0  2  0  0  0  0  0  0  0  0  0
    7.8613  -17.3085   21.7368 N   0  0  0  0  0  0  0  0  0  0  0  0
    9.1695  -15.6518   22.7982 C   0  0  0  0  0  0  0  0  0  0  0  0
   10.1594  -14.8873   22.8969 O   0  0  0  0  0  0  0  0  0  0  0  0
    7.9118  -12.7623   18.4393 C   0  0  0  0  0  0  0  0  0  0  0  0
    5.7018  -12.8617   26.7721 C   0  0  1  0  0  0  0  0  0  0  0  0
    7.0046  -13.1424   26.1070 C   0  0  0  0  0  0  0  0  0  0  0  0
    7.3624  -12.1147   25.0548 C   0  0  0  0  0  0  0  0  0  0  0  0
    7.0175  -14.5397   25.5661 C   0  0  2  0  0  0  0  0  0  0  0  0
    8.4169  -14.8733   25.0967 N   0  0  0  0  0  0  0  0  0  0  0  0
    8.2509  -15.6628   23.8734 C   0  0  0  0  0  0  0  0  0  0  0  0
    9.1778  -15.6635   26.1240 O   0  0  0  0  0  0  0  0  0  0  0  0
    8.8924  -16.8888   26.1225 N   0  0  0  0  0  0  0  0  0  0  0  0
   10.1135  -15.0542   26.9868 C   0  0  0  0  0  0  0  0  0  0  0  0
   10.6701  -13.6885   26.8478 C   0  0  0  0  0  0  0  0  0  0  0  0
   10.9146  -13.2171   28.2413 C   0  0  0  0  0  0  0  0  0  0  0  0
   10.6066  -14.3970   29.1175 C   0  0  2  0  0  0  0  0  0  0  0  0
   10.8103  -15.5703   28.1156 C   0  0  0  0  0  0  0  0  0  0  0  0
   10.3847  -16.8104   28.7234 O   0  0  0  0  0  0  0  0  0  0  0  0
    9.1606  -17.1500   28.5179 O   0  0  0  0  0  0  0  0  0  0  0  0
  2  1  1  0
  2  3  2  0
  4  2  1  0
  5  4  1  0
  6  5  1  0
  7  6  1  0
  8  7  1  0
  8  9  1  1
 10 17  1  0
 10  8  1  0
 11 10  2  0
 13 12  1  1
 14 13  1  0
 15 13  1  0
 16 17  1  0
 16 15  1  6
 18 16  1  0
 19 18  2  0
 20 18  1  0
 20 24  1  0
 21 22  1  0
 21 20  1  0
 22 23  1  0
 23 24  1  0
 24 25  1  1
 25 27  1  0
 26 25  2  0
M  END
$$$$
