RLP.pdb
     RDKit          3D

 27 27  0  0  1  0  0  0  0  0999 V2000
    9.5042  -22.2701   22.5907 N   0  0  0  0  0  0  0  0  0  0  0  0
    9.9419  -22.0352   21.2368 C   0  0  0  0  0  0  0  0  0  0  0  0
   11.0155  -22.5899   20.8127 N   0  0  0  0  0  0  0  0  0  0  0  0
    9.1824  -21.1935   20.3838 N   0  0  0  0  0  0  0  0  0  0  0  0
    8.4201  -20.0674   20.8502 C   0  0  0  0  0  0  0  0  0  0  0  0
    9.2106  -18.8063   20.9202 C   0  0  0  0  0  0  0  0  0  0  0  0
    8.8408  -17.8817   22.0404 C   0  0  0  0  0  0  0  0  0  0  0  0
    8.8881  -16.4387   21.7513 C   0  0  2  0  0  0  0  0  0  0  0  0
    9.9008  -16.1122   20.7727 N   0  0  0  0  0  0  0  0  0  0  0  0
    9.0627  -15.5588   22.9114 C   0  0  0  0  0  0  0  0  0  0  0  0
   10.2170  -15.1569   23.1941 O   0  0  0  0  0  0  0  0  0  0  0  0
   11.3375  -22.5202   19.8384 C   0  0  0  0  0  0  0  0  0  0  0  0
    5.6784  -12.5750   27.1113 C   0  0  1  0  0  0  0  0  0  0  0  0
    6.9977  -12.8318   26.4695 C   0  0  0  0  0  0  0  0  0  0  0  0
    7.7033  -11.5617   26.0447 C   0  0  0  0  0  0  0  0  0  0  0  0
    6.8414  -13.8022   25.3385 C   0  0  2  0  0  0  0  0  0  0  0  0
    8.1997  -14.3663   24.9823 N   0  0  0  0  0  0  0  0  0  0  0  0
    8.0050  -15.1264   23.7447 C   0  0  0  0  0  0  0  0  0  0  0  0
    8.7333  -15.2641   26.0631 O   0  0  0  0  0  0  0  0  0  0  0  0
    8.0656  -16.3204   26.2089 N   0  0  0  0  0  0  0  0  0  0  0  0
    9.8751  -14.9209   26.8178 C   0  0  0  0  0  0  0  0  0  0  0  0
   10.7454  -13.7424   26.5989 C   0  0  0  0  0  0  0  0  0  0  0  0
   11.2405  -13.3591   27.9523 C   0  0  0  0  0  0  0  0  0  0  0  0
   10.7306  -14.4270   28.8767 C   0  0  2  0  0  0  0  0  0  0  0  0
   10.5263  -15.6062   27.8819 C   0  0  0  0  0  0  0  0  0  0  0  0
    9.8611  -16.7002   28.5520 O   0  0  0  0  0  0  0  0  0  0  0  0
    8.5774  -16.7213   28.4627 O   0  0  0  0  0  0  0  0  0  0  0  0
  2  1  1  0
  2  3  2  0
  4  2  1  0
  5  4  1  0
  6  5  1  0
  7  6  1  0
  8  7  1  0
  8  9  1  6
 10 17  1  0
 10  8  1  0
 11 10  2  0
 13 12  1  1
 14 13  1  0
 15 13  1  0
 16 17  1  0
 16 15  1  6
 18 16  1  0
 19 18  2  0
 20 18  1  0
 20 24  1  0
 21 22  1  0
 21 20  1  0
 22 23  1  0
 23 24  1  0
 24 25  1  1
 25 27  1  0
 26 25  2  0
M  END
$$$$
