RLP.pdb
     RDKit          3D

 27 27  0  0  1  0  0  0  0  0999 V2000
    9.3633  -21.2800   20.0243 N   0  0  0  0  0  0  0  0  0  0  0  0
    8.3379  -20.8776   19.0936 C   0  0  0  0  0  0  0  0  0  0  0  0
    8.4579  -21.1708   17.8527 N   0  0  0  0  0  0  0  0  0  0  0  0
    7.2040  -20.1613   19.5565 N   0  0  0  0  0  0  0  0  0  0  0  0
    7.1783  -18.7337   19.7233 C   0  0  0  0  0  0  0  0  0  0  0  0
    8.4386  -18.1824   20.2958 C   0  0  0  0  0  0  0  0  0  0  0  0
    8.2748  -17.3940   21.5601 C   0  0  0  0  0  0  0  0  0  0  0  0
    8.0501  -15.9463   21.4134 C   0  0  2  0  0  0  0  0  0  0  0  0
    8.6320  -15.4252   20.1969 N   0  0  0  0  0  0  0  0  0  0  0  0
    8.4946  -15.1126   22.5349 C   0  0  0  0  0  0  0  0  0  0  0  0
    9.6269  -14.5757   22.4744 O   0  0  0  0  0  0  0  0  0  0  0  0
    7.7603  -20.9103   17.1433 C   0  0  0  0  0  0  0  0  0  0  0  0
    5.9834  -12.1948   27.3156 C   0  0  1  0  0  0  0  0  0  0  0  0
    7.2180  -12.6112   26.5938 C   0  0  0  0  0  0  0  0  0  0  0  0
    8.0687  -11.4379   26.1566 C   0  0  0  0  0  0  0  0  0  0  0  0
    6.8682  -13.5176   25.4532 C   0  0  2  0  0  0  0  0  0  0  0  0
    8.1434  -13.9782   24.7811 N   0  0  0  0  0  0  0  0  0  0  0  0
    7.7243  -14.8690   23.6957 C   0  0  0  0  0  0  0  0  0  0  0  0
    9.0445  -14.7117   25.7345 O   0  0  0  0  0  0  0  0  0  0  0  0
    9.4488  -13.9976   26.6881 N   0  0  0  0  0  0  0  0  0  0  0  0
    9.3800  -16.0692   25.5445 C   0  0  0  0  0  0  0  0  0  0  0  0
    9.3211  -16.8130   24.2649 C   0  0  0  0  0  0  0  0  0  0  0  0
   10.4204  -17.8178   24.3402 C   0  0  0  0  0  0  0  0  0  0  0  0
   10.9791  -17.6889   25.7280 C   0  0  2  0  0  0  0  0  0  0  0  0
    9.7645  -17.0711   26.4795 C   0  0  0  0  0  0  0  0  0  0  0  0
   10.1580  -16.6977   27.8189 O   0  0  0  0  0  0  0  0  0  0  0  0
   10.0436  -15.4505   28.1150 O   0  0  0  0  0  0  0  0  0  0  0  0
  2  1  1  0
  2  3  2  0
  4  2  1  0
  5  4  1  0
  6  5  1  0
  7  6  1  0
  8  7  1  0
  8  9  1  6
 10 17  1  0
 10  8  1  0
 11 10  2  0
 13 12  1  1
 14 13  1  0
 15 13  1  0
 16 17  1  0
 16 15  1  6
 18 16  1  0
 19 18  2  0
 20 18  1  0
 20 24  1  0
 21 22  1  0
 21 20  1  0
 22 23  1  0
 23 24  1  0
 24 25  1  6
 25 27  1  0
 26 25  2  0
M  END
$$$$
