RLP.pdb
     RDKit          3D

 27 27  0  0  1  0  0  0  0  0999 V2000
    9.0912  -13.1383   17.1903 N   0  0  0  0  0  0  0  0  0  0  0  0
    8.2724  -14.1177   16.5194 C   0  0  0  0  0  0  0  0  0  0  0  0
    7.7702  -13.8455   15.3731 N   0  0  0  0  0  0  0  0  0  0  0  0
    8.0286  -15.3745   17.1309 N   0  0  0  0  0  0  0  0  0  0  0  0
    8.3086  -15.6546   18.5129 C   0  0  0  0  0  0  0  0  0  0  0  0
    9.1458  -14.6118   19.1698 C   0  0  0  0  0  0  0  0  0  0  0  0
    9.5145  -14.8928   20.5952 C   0  0  0  0  0  0  0  0  0  0  0  0
    8.4234  -14.8478   21.5828 C   0  0  2  0  0  0  0  0  0  0  0  0
    7.3365  -13.9959   21.1553 N   0  0  0  0  0  0  0  0  0  0  0  0
    8.8079  -14.4617   22.9443 C   0  0  0  0  0  0  0  0  0  0  0  0
    9.7489  -13.6459   23.0959 O   0  0  0  0  0  0  0  0  0  0  0  0
    7.1702  -14.4989   14.8526 C   0  0  0  0  0  0  0  0  0  0  0  0
    7.9076  -11.8535   25.9016 C   0  0  2  0  0  0  0  0  0  0  0  0
    6.7994  -12.8334   25.7274 C   0  0  0  0  0  0  0  0  0  0  0  0
    5.5183  -12.4009   26.4079 C   0  0  0  0  0  0  0  0  0  0  0  0
    7.2431  -14.1970   26.1620 C   0  0  2  0  0  0  0  0  0  0  0  0
    8.5462  -14.5345   25.4705 N   0  0  0  0  0  0  0  0  0  0  0  0
    8.1826  -14.9526   24.1140 C   0  0  0  0  0  0  0  0  0  0  0  0
    9.2822  -15.6404   26.1736 O   0  0  0  0  0  0  0  0  0  0  0  0
    8.9095  -16.7895   25.8225 N   0  0  0  0  0  0  0  0  0  0  0  0
   10.2876  -15.3747   27.1274 C   0  0  0  0  0  0  0  0  0  0  0  0
   11.0310  -14.1029   27.2823 C   0  0  0  0  0  0  0  0  0  0  0  0
   11.3289  -13.9936   28.7394 C   0  0  0  0  0  0  0  0  0  0  0  0
   10.8524  -15.2855   29.3382 C   0  0  2  0  0  0  0  0  0  0  0  0
   10.8972  -16.2214   28.0957 C   0  0  0  0  0  0  0  0  0  0  0  0
   10.2978  -17.4952   28.4224 O   0  0  0  0  0  0  0  0  0  0  0  0
    9.0300  -17.5913   28.2233 O   0  0  0  0  0  0  0  0  0  0  0  0
  2  1  1  0
  2  3  2  0
  4  2  1  0
  5  4  1  0
  6  5  1  0
  7  6  1  0
  8  7  1  0
  8  9  1  6
 10 17  1  0
 10  8  1  0
 11 10  2  0
 13 12  1  6
 14 13  1  0
 15 13  1  0
 16 17  1  0
 16 15  1  6
 18 16  1  0
 19 18  2  0
 20 18  1  0
 20 24  1  0
 21 22  1  0
 21 20  1  0
 22 23  1  0
 23 24  1  0
 24 25  1  1
 25 27  1  0
 26 25  2  0
M  END
$$$$
