RLP.pdb
     RDKit          3D

 27 27  0  0  1  0  0  0  0  0999 V2000
   11.5786  -22.6277   21.8659 N   0  0  0  0  0  0  0  0  0  0  0  0
   11.7027  -21.8949   20.6301 C   0  0  0  0  0  0  0  0  0  0  0  0
   11.5533  -22.5050   19.5139 N   0  0  0  0  0  0  0  0  0  0  0  0
   11.9883  -20.5054   20.6571 N   0  0  0  0  0  0  0  0  0  0  0  0
   11.1225  -19.5041   20.0964 C   0  0  0  0  0  0  0  0  0  0  0  0
   10.0109  -19.1071   21.0056 C   0  0  0  0  0  0  0  0  0  0  0  0
   10.3287  -17.9902   21.9535 C   0  0  0  0  0  0  0  0  0  0  0  0
    9.7370  -16.6763   21.6511 C   0  0  2  0  0  0  0  0  0  0  0  0
   10.3928  -16.0266   20.5385 N   0  0  0  0  0  0  0  0  0  0  0  0
    9.6737  -15.7300   22.7696 C   0  0  0  0  0  0  0  0  0  0  0  0
   10.6668  -14.9975   22.9956 O   0  0  0  0  0  0  0  0  0  0  0  0
   11.5356  -22.0211   18.6065 C   0  0  0  0  0  0  0  0  0  0  0  0
    5.6168  -13.1202   26.4933 C   0  0  1  0  0  0  0  0  0  0  0  0
    7.0031  -13.1507   25.9495 C   0  0  0  0  0  0  0  0  0  0  0  0
    7.5038  -11.7834   25.5356 C   0  0  0  0  0  0  0  0  0  0  0  0
    7.1003  -14.1529   24.8399 C   0  0  2  0  0  0  0  0  0  0  0  0
    8.5183  -14.6773   24.7727 N   0  0  0  0  0  0  0  0  0  0  0  0
    8.5550  -15.5846   23.6226 C   0  0  0  0  0  0  0  0  0  0  0  0
    8.9023  -15.4132   26.0256 O   0  0  0  0  0  0  0  0  0  0  0  0
    8.3632  -16.5456   26.1240 N   0  0  0  0  0  0  0  0  0  0  0  0
    9.7854  -14.8550   26.9742 C   0  0  0  0  0  0  0  0  0  0  0  0
   10.3974  -13.5075   26.9113 C   0  0  0  0  0  0  0  0  0  0  0  0
   10.5444  -13.0730   28.3303 C   0  0  0  0  0  0  0  0  0  0  0  0
   10.1268  -14.2585   29.1518 C   0  0  2  0  0  0  0  0  0  0  0  0
   10.3709  -15.4180   28.1430 C   0  0  0  0  0  0  0  0  0  0  0  0
    9.8558  -16.6541   28.6864 O   0  0  0  0  0  0  0  0  0  0  0  0
    8.6392  -16.9423   28.3816 O   0  0  0  0  0  0  0  0  0  0  0  0
  2  1  1  0
  2  3  2  0
  4  2  1  0
  5  4  1  0
  6  5  1  0
  7  6  1  0
  8  7  1  0
  8  9  1  6
 10 17  1  0
 10  8  1  0
 11 10  2  0
 13 12  1  1
 14 13  1  0
 15 13  1  0
 16 17  1  0
 16 15  1  6
 18 16  1  0
 19 18  2  0
 20 18  1  0
 20 24  1  0
 21 22  1  0
 21 20  1  0
 22 23  1  0
 23 24  1  0
 24 25  1  1
 25 27  1  0
 26 25  2  0
M  END
$$$$
