RFS.pdb
     RDKit          3D

 29 29  0  0  1  0  0  0  0  0999 V2000
    8.6068  -15.2072   14.3572 N   0  0  0  0  0  0  0  0  0  0  0  0
    8.1061  -13.8837   14.3902 C   0  0  0  0  0  0  0  0  0  0  0  0
    8.1009  -13.1622   13.3125 N   0  0  0  0  0  0  0  0  0  0  0  0
    7.6008  -13.3177   15.5956 N   0  0  0  0  0  0  0  0  0  0  0  0
    7.3427  -14.1411   16.7748 C   0  0  0  0  0  0  0  0  0  0  0  0
    8.6658  -14.5035   17.4008 C   0  0  0  0  0  0  0  0  0  0  0  0
    8.7409  -14.1497   18.8631 C   0  0  0  0  0  0  0  0  0  0  0  0
    8.9677  -15.3654   19.7288 C   0  0  2  0  0  0  0  0  0  0  0  0
    7.8227  -16.2348   19.5573 N   0  0  0  0  0  0  0  0  0  0  0  0
    9.1544  -15.0199   21.1491 C   0  0  0  0  0  0  0  0  0  0  0  0
   10.2279  -14.4608   21.4918 O   0  0  0  0  0  0  0  0  0  0  0  0
    7.7212  -12.2057   13.2933 N   0  0  0  0  0  0  0  0  0  0  0  0
    8.2100  -15.2717   22.1624 C   0  0  1  0  0  0  0  0  0  0  0  0
    8.3487  -14.7941   23.5261 C   0  0  0  0  0  0  0  0  0  0  0  0
    7.2611  -13.8523   23.9204 C   0  0  0  0  0  0  0  0  0  0  0  0
    7.3792  -13.3446   25.3040 C   0  0  0  0  0  0  0  0  0  0  0  0
    8.2714  -12.4287   25.7573 C   0  0  0  0  0  0  0  0  0  0  0  0
    8.2602  -12.0463   27.1022 C   0  0  0  0  0  0  0  0  0  0  0  0
    7.3603  -12.5768   27.9936 C   0  0  0  0  0  0  0  0  0  0  0  0
    6.4410  -13.5141   27.5488 C   0  0  0  0  0  0  0  0  0  0  0  0
    6.4720  -13.8720   26.2285 C   0  0  0  0  0  0  0  0  0  0  0  0
    8.5779  -15.9226   24.4439 O   0  0  0  0  0  0  0  0  0  0  0  0
    7.6718  -16.7587   24.6172 O   0  0  0  0  0  0  0  0  0  0  0  0
   12.3424  -16.9224   25.1945 C   0  0  0  0  0  0  0  0  0  0  0  0
   11.3865  -17.9075   25.4531 C   0  0  1  0  0  0  0  0  0  0  0  0
   10.1495  -17.1923   25.9555 N   0  0  0  0  0  0  0  0  0  0  0  0
    9.7980  -16.0681   25.1194 C   0  0  0  0  0  0  0  0  0  0  0  0
   10.4848  -16.6928   27.3013 O   0  0  0  0  0  0  0  0  0  0  0  0
   10.4568  -15.3483   27.6102 O   0  0  0  0  0  0  0  0  0  0  0  0
  1  2  1  0
  2  3  2  0
  4  2  1  0
  4  5  1  0
  6  5  1  0
  7  6  1  0
  8  7  1  0
  8  9  1  1
 10 11  2  0
 10  8  1  0
 12 10  1  0
 13 12  1  0
 13 14  1  1
 15 14  1  0
 15 16  2  0
 17 16  1  0
 18 17  2  0
 19 20  2  0
 19 18  1  0
 20 15  1  0
 21 13  1  0
 21 26  1  0
 22 21  2  0
 23 24  1  0
 25 24  1  6
 25 26  1  0
 25 27  1  0
 27 29  2  0
 27 28  1  0
M  END
$$$$
