RFS.pdb
     RDKit          3D

 29 29  0  0  1  0  0  0  0  0999 V2000
    8.0852  -12.5261   14.8930 N   0  0  0  0  0  0  0  0  0  0  0  0
    8.1923  -13.8248   15.4455 C   0  0  0  0  0  0  0  0  0  0  0  0
    8.8765  -14.7395   14.8311 N   0  0  0  0  0  0  0  0  0  0  0  0
    7.5578  -14.1556   16.6769 N   0  0  0  0  0  0  0  0  0  0  0  0
    7.5672  -15.5213   17.1966 C   0  0  0  0  0  0  0  0  0  0  0  0
    8.9100  -15.7790   17.8327 C   0  0  0  0  0  0  0  0  0  0  0  0
    9.0370  -15.1706   19.2049 C   0  0  0  0  0  0  0  0  0  0  0  0
    9.3611  -16.2055   20.2551 C   0  0  2  0  0  0  0  0  0  0  0  0
    8.3432  -17.2321   20.1755 N   0  0  0  0  0  0  0  0  0  0  0  0
    9.4219  -15.6329   21.6116 C   0  0  0  0  0  0  0  0  0  0  0  0
   10.5256  -15.1941   22.0259 O   0  0  0  0  0  0  0  0  0  0  0  0
    8.9687  -15.6966   15.1985 N   0  0  0  0  0  0  0  0  0  0  0  0
    8.3242  -15.5394   22.4882 C   0  0  1  0  0  0  0  0  0  0  0  0
    8.4150  -15.0044   23.8345 C   0  0  0  0  0  0  0  0  0  0  0  0
    7.4369  -13.9064   24.0856 C   0  0  0  0  0  0  0  0  0  0  0  0
    7.4783  -13.3690   25.4622 C   0  0  0  0  0  0  0  0  0  0  0  0
    8.5884  -13.0587   26.1776 C   0  0  0  0  0  0  0  0  0  0  0  0
    8.4666  -12.5564   27.4768 C   0  0  0  0  0  0  0  0  0  0  0  0
    7.2391  -12.3639   28.0616 C   0  0  0  0  0  0  0  0  0  0  0  0
    6.0934  -12.6753   27.3461 C   0  0  0  0  0  0  0  0  0  0  0  0
    6.2386  -13.1652   26.0768 C   0  0  0  0  0  0  0  0  0  0  0  0
    8.4133  -16.0970   24.8217 O   0  0  0  0  0  0  0  0  0  0  0  0
    7.3618  -16.7325   25.0232 O   0  0  0  0  0  0  0  0  0  0  0  0
   11.4781  -18.2041   25.1145 C   0  0  0  0  0  0  0  0  0  0  0  0
   10.4044  -18.7181   25.8452 C   0  0  1  0  0  0  0  0  0  0  0  0
    9.6884  -17.5328   26.4587 N   0  0  0  0  0  0  0  0  0  0  0  0
    9.5754  -16.4306   25.5320 C   0  0  0  0  0  0  0  0  0  0  0  0
   10.5135  -17.1046   27.6029 O   0  0  0  0  0  0  0  0  0  0  0  0
   10.7921  -17.9471   28.6594 O   0  0  0  0  0  0  0  0  0  0  0  0
  1  2  1  0
  2  3  2  0
  4  2  1  0
  4  5  1  0
  6  5  1  0
  7  6  1  0
  8  7  1  0
  8  9  1  1
 10 11  2  0
 10  8  1  0
 12 10  1  0
 13 12  1  0
 13 14  1  1
 15 14  1  0
 15 16  2  0
 17 16  1  0
 18 17  2  0
 19 20  2  0
 19 18  1  0
 20 15  1  0
 21 13  1  0
 21 26  1  0
 22 21  2  0
 23 24  1  0
 25 24  1  6
 25 26  1  0
 25 27  1  0
 27 29  2  0
 27 28  1  0
M  END
$$$$
