RFS.pdb
     RDKit          3D

 29 29  0  0  1  0  0  0  0  0999 V2000
    9.2600  -13.8602   15.2850 N   0  0  0  0  0  0  0  0  0  0  0  0
    7.9265  -14.2603   15.5396 C   0  0  0  0  0  0  0  0  0  0  0  0
    7.3246  -15.0742   14.7288 N   0  0  0  0  0  0  0  0  0  0  0  0
    7.2201  -13.7839   16.6809 N   0  0  0  0  0  0  0  0  0  0  0  0
    7.8464  -12.8788   17.6420 C   0  0  0  0  0  0  0  0  0  0  0  0
    8.8489  -13.6630   18.4506 C   0  0  0  0  0  0  0  0  0  0  0  0
    8.4401  -13.8312   19.8907 C   0  0  0  0  0  0  0  0  0  0  0  0
    8.7946  -15.1983   20.4238 C   0  0  2  0  0  0  0  0  0  0  0  0
    7.7414  -16.1047   20.0167 N   0  0  0  0  0  0  0  0  0  0  0  0
    8.9566  -15.2082   21.8884 C   0  0  0  0  0  0  0  0  0  0  0  0
    9.9423  -14.6043   22.3845 O   0  0  0  0  0  0  0  0  0  0  0  0
    6.3538  -15.3816   14.8788 N   0  0  0  0  0  0  0  0  0  0  0  0
    8.0804  -15.8505   22.7838 C   0  0  2  0  0  0  0  0  0  0  0  0
    8.1717  -15.7235   24.2269 C   0  0  0  0  0  0  0  0  0  0  0  0
    6.9005  -15.2466   24.8451 C   0  0  0  0  0  0  0  0  0  0  0  0
    7.0168  -13.9379   25.5229 C   0  0  0  0  0  0  0  0  0  0  0  0
    7.0859  -12.7207   24.9277 C   0  0  0  0  0  0  0  0  0  0  0  0
    7.1947  -11.5651   25.7075 C   0  0  0  0  0  0  0  0  0  0  0  0
    7.2346  -11.6236   27.0789 C   0  0  0  0  0  0  0  0  0  0  0  0
    7.1653  -12.8585   27.7049 C   0  0  0  0  0  0  0  0  0  0  0  0
    7.0592  -13.9745   26.9203 C   0  0  0  0  0  0  0  0  0  0  0  0
    8.7462  -16.9456   24.8140 O   0  0  0  0  0  0  0  0  0  0  0  0
    8.0861  -18.0010   24.7874 O   0  0  0  0  0  0  0  0  0  0  0  0
   12.6714  -17.0112   25.4116 C   0  0  0  0  0  0  0  0  0  0  0  0
   12.0769  -18.2751   25.4269 C   0  0  1  0  0  0  0  0  0  0  0  0
   10.6752  -18.0900   25.9700 N   0  0  0  0  0  0  0  0  0  0  0  0
   10.0213  -16.9365   25.3971 C   0  0  0  0  0  0  0  0  0  0  0  0
   10.8243  -17.8757   27.4209 O   0  0  0  0  0  0  0  0  0  0  0  0
   11.3800  -18.8304   28.2477 O   0  0  0  0  0  0  0  0  0  0  0  0
  1  2  1  0
  2  3  2  0
  4  2  1  0
  4  5  1  0
  6  5  1  0
  7  6  1  0
  8  7  1  0
  8  9  1  1
 10 11  2  0
 10  8  1  0
 12 10  1  0
 13 12  1  0
 13 14  1  6
 15 14  1  0
 15 16  2  0
 17 16  1  0
 18 17  2  0
 19 20  2  0
 19 18  1  0
 20 15  1  0
 21 13  1  0
 21 26  1  0
 22 21  2  0
 23 24  1  0
 25 24  1  6
 25 26  1  0
 25 27  1  0
 27 29  2  0
 27 28  1  0
M  END
$$$$
