RFS.pdb
     RDKit          3D

 29 29  0  0  1  0  0  0  0  0999 V2000
    7.7157  -14.0796   16.5558 N   0  0  0  0  0  0  0  0  0  0  0  0
    8.7319  -13.6284   17.4317 C   0  0  0  0  0  0  0  0  0  0  0  0
    8.7586  -12.3897   17.8150 N   0  0  0  0  0  0  0  0  0  0  0  0
    9.7396  -14.5147   17.9087 N   0  0  0  0  0  0  0  0  0  0  0  0
    9.7590  -15.9244   17.5247 C   0  0  0  0  0  0  0  0  0  0  0  0
    8.7564  -16.6629   18.3751 C   0  0  0  0  0  0  0  0  0  0  0  0
    9.3901  -17.3944   19.5295 C   0  0  0  0  0  0  0  0  0  0  0  0
    8.4162  -17.6179   20.6612 C   0  0  2  0  0  0  0  0  0  0  0  0
    7.0837  -17.4447   20.1220 N   0  0  0  0  0  0  0  0  0  0  0  0
    8.6461  -16.7022   21.7925 C   0  0  0  0  0  0  0  0  0  0  0  0
    9.8002  -16.2279   21.9523 O   0  0  0  0  0  0  0  0  0  0  0  0
    9.4694  -12.0316   18.4677 N   0  0  0  0  0  0  0  0  0  0  0  0
    7.6591  -16.3142   22.7184 C   0  0  1  0  0  0  0  0  0  0  0  0
    7.9396  -15.5417   23.9149 C   0  0  0  0  0  0  0  0  0  0  0  0
    7.0975  -14.3148   24.0195 C   0  0  0  0  0  0  0  0  0  0  0  0
    7.2455  -13.5928   25.3012 C   0  0  0  0  0  0  0  0  0  0  0  0
    8.4033  -13.1493   25.8520 C   0  0  0  0  0  0  0  0  0  0  0  0
    8.3832  -12.4784   27.0787 C   0  0  0  0  0  0  0  0  0  0  0  0
    7.2099  -12.2502   27.7549 C   0  0  0  0  0  0  0  0  0  0  0  0
    6.0168  -12.6961   27.2075 C   0  0  0  0  0  0  0  0  0  0  0  0
    6.0625  -13.3499   26.0064 C   0  0  0  0  0  0  0  0  0  0  0  0
    7.9425  -16.4152   25.1004 O   0  0  0  0  0  0  0  0  0  0  0  0
    6.8594  -16.8356   25.5482 O   0  0  0  0  0  0  0  0  0  0  0  0
   11.0874  -18.5222   25.6957 C   0  0  0  0  0  0  0  0  0  0  0  0
   10.0355  -18.9214   26.5234 C   0  0  1  0  0  0  0  0  0  0  0  0
    9.2464  -17.6724   26.8572 N   0  0  0  0  0  0  0  0  0  0  0  0
    9.1431  -16.7798   25.7262 C   0  0  0  0  0  0  0  0  0  0  0  0
    9.9945  -16.9909   27.9292 O   0  0  0  0  0  0  0  0  0  0  0  0
   10.2232  -17.5856   29.1531 O   0  0  0  0  0  0  0  0  0  0  0  0
  1  2  1  0
  2  3  2  0
  4  2  1  0
  4  5  1  0
  6  5  1  0
  7  6  1  0
  8  7  1  0
  8  9  1  6
 10 11  2  0
 10  8  1  0
 12 10  1  0
 13 12  1  0
 13 14  1  1
 15 14  1  0
 15 16  2  0
 17 16  1  0
 18 17  2  0
 19 20  2  0
 19 18  1  0
 20 15  1  0
 21 13  1  0
 21 26  1  0
 22 21  2  0
 23 24  1  0
 25 24  1  6
 25 26  1  0
 25 27  1  0
 27 29  2  0
 27 28  1  0
M  END
$$$$
