RFS.pdb
     RDKit          3D

 29 29  0  0  1  0  0  0  0  0999 V2000
    7.8848  -20.8441   15.3317 N   0  0  0  0  0  0  0  0  0  0  0  0
    8.3140  -20.4618   16.6251 C   0  0  0  0  0  0  0  0  0  0  0  0
    9.5022  -19.9716   16.7986 N   0  0  0  0  0  0  0  0  0  0  0  0
    7.4604  -20.6047   17.7562 N   0  0  0  0  0  0  0  0  0  0  0  0
    7.8951  -20.2096   19.0942 C   0  0  0  0  0  0  0  0  0  0  0  0
    8.3073  -18.7597   19.0517 C   0  0  0  0  0  0  0  0  0  0  0  0
    8.7236  -18.2272   20.3979 C   0  0  0  0  0  0  0  0  0  0  0  0
    9.0555  -16.7554   20.3465 C   0  0  2  0  0  0  0  0  0  0  0  0
   10.3027  -16.6211   19.6233 N   0  0  0  0  0  0  0  0  0  0  0  0
    9.1607  -16.1536   21.6874 C   0  0  0  0  0  0  0  0  0  0  0  0
   10.1123  -16.5097   22.4292 O   0  0  0  0  0  0  0  0  0  0  0  0
    9.8798  -19.7637   17.7333 N   0  0  0  0  0  0  0  0  0  0  0  0
    8.2653  -15.1989   22.2061 C   0  0  2  0  0  0  0  0  0  0  0  0
    8.3536  -14.6633   23.5523 C   0  0  0  0  0  0  0  0  0  0  0  0
    7.4680  -13.4811   23.7615 C   0  0  0  0  0  0  0  0  0  0  0  0
    7.4875  -12.9536   25.1425 C   0  0  0  0  0  0  0  0  0  0  0  0
    8.5048  -12.2832   25.7392 C   0  0  0  0  0  0  0  0  0  0  0  0
    8.3743  -11.8443   27.0604 C   0  0  0  0  0  0  0  0  0  0  0  0
    7.2307  -12.0738   27.7853 C   0  0  0  0  0  0  0  0  0  0  0  0
    6.1806  -12.7572   27.1922 C   0  0  0  0  0  0  0  0  0  0  0  0
    6.3323  -13.1765   25.8986 C   0  0  0  0  0  0  0  0  0  0  0  0
    8.2186  -15.7435   24.5439 O   0  0  0  0  0  0  0  0  0  0  0  0
    7.1328  -16.3446   24.6440 O   0  0  0  0  0  0  0  0  0  0  0  0
   11.1528  -18.0130   25.2871 C   0  0  0  0  0  0  0  0  0  0  0  0
    9.9463  -18.4160   25.8641 C   0  0  1  0  0  0  0  0  0  0  0  0
    9.2579  -17.1596   26.3555 N   0  0  0  0  0  0  0  0  0  0  0  0
    9.2925  -16.1037   25.3705 C   0  0  0  0  0  0  0  0  0  0  0  0
   10.0099  -16.7202   27.5449 O   0  0  0  0  0  0  0  0  0  0  0  0
   10.1348  -17.5150   28.6658 O   0  0  0  0  0  0  0  0  0  0  0  0
  1  2  1  0
  2  3  2  0
  4  2  1  0
  4  5  1  0
  6  5  1  0
  7  6  1  0
  8  7  1  0
  8  9  1  1
 10 11  2  0
 10  8  1  0
 12 10  1  0
 13 12  1  0
 13 14  1  6
 15 14  1  0
 15 16  2  0
 17 16  1  0
 18 17  2  0
 19 20  2  0
 19 18  1  0
 20 15  1  0
 21 13  1  0
 21 26  1  0
 22 21  2  0
 23 24  1  0
 25 24  1  6
 25 26  1  0
 25 27  1  0
 27 29  2  0
 27 28  1  0
M  END
$$$$
