RFS.pdb
     RDKit          3D

 29 29  0  0  1  0  0  0  0  0999 V2000
   11.6650  -20.7806   17.2640 N   0  0  0  0  0  0  0  0  0  0  0  0
   11.3395  -19.7683   16.3298 C   0  0  0  0  0  0  0  0  0  0  0  0
   11.0034  -20.0843   15.1177 N   0  0  0  0  0  0  0  0  0  0  0  0
   11.3728  -18.3919   16.6944 N   0  0  0  0  0  0  0  0  0  0  0  0
   11.8041  -17.9656   18.0238 C   0  0  0  0  0  0  0  0  0  0  0  0
   10.6662  -18.1892   18.9877 C   0  0  0  0  0  0  0  0  0  0  0  0
   10.9562  -17.6677   20.3708 C   0  0  0  0  0  0  0  0  0  0  0  0
    9.8168  -17.9310   21.3255 C   0  0  2  0  0  0  0  0  0  0  0  0
    8.5964  -17.9387   20.5465 N   0  0  0  0  0  0  0  0  0  0  0  0
    9.7425  -16.9306   22.4049 C   0  0  0  0  0  0  0  0  0  0  0  0
   10.7506  -16.7683   23.1395 O   0  0  0  0  0  0  0  0  0  0  0  0
   10.7250  -19.3779   14.4227 N   0  0  0  0  0  0  0  0  0  0  0  0
    8.6143  -16.1340   22.6782 C   0  0  1  0  0  0  0  0  0  0  0  0
    8.4793  -15.3144   23.8686 C   0  0  0  0  0  0  0  0  0  0  0  0
    7.5031  -14.2001   23.6935 C   0  0  0  0  0  0  0  0  0  0  0  0
    7.3498  -13.3432   24.8886 C   0  0  0  0  0  0  0  0  0  0  0  0
    8.2738  -12.4904   25.3977 C   0  0  0  0  0  0  0  0  0  0  0  0
    7.9809  -11.7423   26.5422 C   0  0  0  0  0  0  0  0  0  0  0  0
    6.7678  -11.8448   27.1778 C   0  0  0  0  0  0  0  0  0  0  0  0
    5.8111  -12.7111   26.6721 C   0  0  0  0  0  0  0  0  0  0  0  0
    6.1215  -13.4321   25.5513 C   0  0  0  0  0  0  0  0  0  0  0  0
    8.2717  -16.1626   25.0543 O   0  0  0  0  0  0  0  0  0  0  0  0
    7.1800  -16.7424   25.2033 O   0  0  0  0  0  0  0  0  0  0  0  0
   10.9207  -18.4116   26.2789 C   0  0  0  0  0  0  0  0  0  0  0  0
    9.7063  -18.5513   26.9548 C   0  0  1  0  0  0  0  0  0  0  0  0
    9.1769  -17.1521   27.1917 N   0  0  0  0  0  0  0  0  0  0  0  0
    9.2834  -16.3266   26.0112 C   0  0  0  0  0  0  0  0  0  0  0  0
   10.0199  -16.5704   28.2519 O   0  0  0  0  0  0  0  0  0  0  0  0
   10.1264  -17.1476   29.5007 O   0  0  0  0  0  0  0  0  0  0  0  0
  1  2  1  0
  2  3  2  0
  4  2  1  0
  4  5  1  0
  6  5  1  0
  7  6  1  0
  8  7  1  0
  8  9  1  6
 10 11  2  0
 10  8  1  0
 12 10  1  0
 13 12  1  0
 13 14  1  6
 15 14  1  0
 15 16  2  0
 17 16  1  0
 18 17  2  0
 19 20  2  0
 19 18  1  0
 20 15  1  0
 21 13  1  0
 21 26  1  0
 22 21  2  0
 23 24  1  0
 25 24  1  6
 25 26  1  0
 25 27  1  0
 27 29  2  0
 27 28  1  0
M  END
$$$$
