RFS.pdb
     RDKit          3D

 29 29  0  0  1  0  0  0  0  0999 V2000
    7.9349  -14.3926   16.9204 N   0  0  0  0  0  0  0  0  0  0  0  0
    7.7509  -13.6878   18.1340 C   0  0  0  0  0  0  0  0  0  0  0  0
    8.2745  -12.5116   18.2899 N   0  0  0  0  0  0  0  0  0  0  0  0
    6.9939  -14.2475   19.2028 N   0  0  0  0  0  0  0  0  0  0  0  0
    6.6158  -15.6589   19.2118 C   0  0  0  0  0  0  0  0  0  0  0  0
    7.8746  -16.4885   19.2412 C   0  0  0  0  0  0  0  0  0  0  0  0
    8.3603  -16.7706   20.6390 C   0  0  0  0  0  0  0  0  0  0  0  0
    9.4378  -15.8049   21.0696 C   0  0  2  0  0  0  0  0  0  0  0  0
   10.5798  -16.0224   20.2065 N   0  0  0  0  0  0  0  0  0  0  0  0
    9.8122  -15.9718   22.4850 C   0  0  0  0  0  0  0  0  0  0  0  0
   10.7994  -16.7013   22.7598 O   0  0  0  0  0  0  0  0  0  0  0  0
    8.1954  -11.9873   19.1721 N   0  0  0  0  0  0  0  0  0  0  0  0
    9.1395  -15.3688   23.5648 C   0  0  1  0  0  0  0  0  0  0  0  0
    9.5951  -15.4493   24.9406 C   0  0  0  0  0  0  0  0  0  0  0  0
    8.8298  -14.5526   25.8547 C   0  0  0  0  0  0  0  0  0  0  0  0
    9.3576  -14.5109   27.2351 C   0  0  0  0  0  0  0  0  0  0  0  0
   10.1069  -13.5234   27.7863 C   0  0  0  0  0  0  0  0  0  0  0  0
   10.5350  -13.6269   29.1134 C   0  0  0  0  0  0  0  0  0  0  0  0
   10.2160  -14.7140   29.8895 C   0  0  0  0  0  0  0  0  0  0  0  0
    9.4511  -15.7331   29.3435 C   0  0  0  0  0  0  0  0  0  0  0  0
    9.0443  -15.6086   28.0430 C   0  0  0  0  0  0  0  0  0  0  0  0
    9.6967  -16.8555   25.3657 O   0  0  0  0  0  0  0  0  0  0  0  0
    8.6982  -17.5931   25.2697 O   0  0  0  0  0  0  0  0  0  0  0  0
   12.5493  -18.9977   24.5811 C   0  0  0  0  0  0  0  0  0  0  0  0
   11.5469  -19.6650   25.2889 C   0  0  1  0  0  0  0  0  0  0  0  0
   11.0729  -18.7166   26.3705 N   0  0  0  0  0  0  0  0  0  0  0  0
   10.8978  -17.3722   25.8720 C   0  0  0  0  0  0  0  0  0  0  0  0
   12.1314  -18.7052   27.3965 O   0  0  0  0  0  0  0  0  0  0  0  0
   12.4813  -19.8403   28.0986 O   0  0  0  0  0  0  0  0  0  0  0  0
  1  2  1  0
  2  3  2  0
  4  2  1  0
  4  5  1  0
  6  5  1  0
  7  6  1  0
  8  7  1  0
  8  9  1  6
 10 11  2  0
 10  8  1  0
 12 10  1  0
 13 12  1  0
 13 14  1  1
 15 14  1  0
 15 16  2  0
 17 16  1  0
 18 17  2  0
 19 20  2  0
 19 18  1  0
 20 15  1  0
 21 13  1  0
 21 26  1  0
 22 21  2  0
 23 24  1  0
 25 24  1  6
 25 26  1  0
 25 27  1  0
 27 29  2  0
 27 28  1  0
M  END
$$$$
