RFS.pdb
     RDKit          3D

 29 29  0  0  1  0  0  0  0  0999 V2000
    8.2350  -12.4854   16.8178 N   0  0  0  0  0  0  0  0  0  0  0  0
    8.2839  -13.7831   16.2550 C   0  0  0  0  0  0  0  0  0  0  0  0
    8.3204  -13.9336   14.9672 N   0  0  0  0  0  0  0  0  0  0  0  0
    8.2941  -14.9437   17.0805 N   0  0  0  0  0  0  0  0  0  0  0  0
    7.5403  -14.9963   18.3311 C   0  0  0  0  0  0  0  0  0  0  0  0
    8.2055  -14.0794   19.3265 C   0  0  0  0  0  0  0  0  0  0  0  0
    9.0246  -14.8194   20.3515 C   0  0  0  0  0  0  0  0  0  0  0  0
    8.1628  -15.6445   21.2764 C   0  0  2  0  0  0  0  0  0  0  0  0
    6.7958  -15.2010   21.0999 N   0  0  0  0  0  0  0  0  0  0  0  0
    8.5738  -15.5254   22.6865 C   0  0  0  0  0  0  0  0  0  0  0  0
    9.4543  -14.6772   22.9825 O   0  0  0  0  0  0  0  0  0  0  0  0
    8.3576  -14.8614   14.5232 N   0  0  0  0  0  0  0  0  0  0  0  0
    8.0483  -16.2990   23.7389 C   0  0  1  0  0  0  0  0  0  0  0  0
    8.4430  -16.1405   25.1267 C   0  0  0  0  0  0  0  0  0  0  0  0
    7.3221  -15.6774   25.9954 C   0  0  0  0  0  0  0  0  0  0  0  0
    7.1466  -14.2096   26.0171 C   0  0  0  0  0  0  0  0  0  0  0  0
    6.1689  -13.5015   25.3981 C   0  0  0  0  0  0  0  0  0  0  0  0
    6.1345  -12.1082   25.5115 C   0  0  0  0  0  0  0  0  0  0  0  0
    7.0741  -11.4223   26.2413 C   0  0  0  0  0  0  0  0  0  0  0  0
    8.0808  -12.1289   26.8809 C   0  0  0  0  0  0  0  0  0  0  0  0
    8.0930  -13.4913   26.7549 C   0  0  0  0  0  0  0  0  0  0  0  0
    9.1596  -17.3381   25.5961 O   0  0  0  0  0  0  0  0  0  0  0  0
    8.5389  -18.4111   25.7129 O   0  0  0  0  0  0  0  0  0  0  0  0
   13.4291  -19.2744   26.8128 C   0  0  0  0  0  0  0  0  0  0  0  0
   12.7899  -18.1624   26.2598 C   0  0  1  0  0  0  0  0  0  0  0  0
   11.3011  -18.3990   26.4059 N   0  0  0  0  0  0  0  0  0  0  0  0
   10.5255  -17.2864   25.9089 C   0  0  0  0  0  0  0  0  0  0  0  0
   11.0499  -18.5410   27.8515 O   0  0  0  0  0  0  0  0  0  0  0  0
   11.6210  -19.5518   28.5971 O   0  0  0  0  0  0  0  0  0  0  0  0
  1  2  1  0
  2  3  2  0
  4  2  1  0
  4  5  1  0
  6  5  1  0
  7  6  1  0
  8  7  1  0
  8  9  1  1
 10 11  2  0
 10  8  1  0
 12 10  1  0
 13 12  1  0
 13 14  1  1
 15 14  1  0
 15 16  2  0
 17 16  1  0
 18 17  2  0
 19 20  2  0
 19 18  1  0
 20 15  1  0
 21 13  1  0
 21 26  1  0
 22 21  2  0
 23 24  1  0
 25 24  1  6
 25 26  1  0
 25 27  1  0
 27 29  2  0
 27 28  1  0
M  END
$$$$
