RFS.pdb
     RDKit          3D

 29 29  0  0  1  0  0  0  0  0999 V2000
    9.8849  -14.4643   17.6958 N   0  0  0  0  0  0  0  0  0  0  0  0
    8.7537  -13.6485   17.4548 C   0  0  0  0  0  0  0  0  0  0  0  0
    8.3637  -13.4184   16.2395 N   0  0  0  0  0  0  0  0  0  0  0  0
    8.0234  -13.0663   18.5301 N   0  0  0  0  0  0  0  0  0  0  0  0
    7.9413  -13.7165   19.8361 C   0  0  0  0  0  0  0  0  0  0  0  0
    7.0872  -14.9517   19.6998 C   0  0  0  0  0  0  0  0  0  0  0  0
    7.6216  -16.1250   20.4789 C   0  0  0  0  0  0  0  0  0  0  0  0
    6.8623  -16.3435   21.7652 C   0  0  2  0  0  0  0  0  0  0  0  0
    5.6552  -15.5472   21.6923 N   0  0  0  0  0  0  0  0  0  0  0  0
    7.6540  -15.9859   22.9555 C   0  0  0  0  0  0  0  0  0  0  0  0
    8.5522  -15.1134   22.8355 O   0  0  0  0  0  0  0  0  0  0  0  0
    7.5879  -12.7773   16.0233 N   0  0  0  0  0  0  0  0  0  0  0  0
    7.4780  -16.5545   24.2313 C   0  0  1  0  0  0  0  0  0  0  0  0
    8.3318  -16.2584   25.3672 C   0  0  0  0  0  0  0  0  0  0  0  0
    7.5895  -15.6287   26.4976 C   0  0  0  0  0  0  0  0  0  0  0  0
    7.3271  -14.1854   26.3132 C   0  0  0  0  0  0  0  0  0  0  0  0
    8.2405  -13.1834   26.3619 C   0  0  0  0  0  0  0  0  0  0  0  0
    7.8377  -11.8587   26.1669 C   0  0  0  0  0  0  0  0  0  0  0  0
    6.5257  -11.5339   25.9236 C   0  0  0  0  0  0  0  0  0  0  0  0
    5.5782  -12.5444   25.8702 C   0  0  0  0  0  0  0  0  0  0  0  0
    5.9970  -13.8325   26.0642 C   0  0  0  0  0  0  0  0  0  0  0  0
    9.1464  -17.4342   25.7167 O   0  0  0  0  0  0  0  0  0  0  0  0
    8.5789  -18.5123   25.9733 O   0  0  0  0  0  0  0  0  0  0  0  0
   13.1233  -17.0140   25.4362 C   0  0  0  0  0  0  0  0  0  0  0  0
   12.7673  -18.3632   25.4997 C   0  0  1  0  0  0  0  0  0  0  0  0
   11.4188  -18.4256   26.1864 N   0  0  0  0  0  0  0  0  0  0  0  0
   10.5457  -17.3562   25.7614 C   0  0  0  0  0  0  0  0  0  0  0  0
   11.6868  -18.2712   27.6278 O   0  0  0  0  0  0  0  0  0  0  0  0
   12.5571  -19.1023   28.3029 O   0  0  0  0  0  0  0  0  0  0  0  0
  1  2  1  0
  2  3  2  0
  4  2  1  0
  4  5  1  0
  6  5  1  0
  7  6  1  0
  8  7  1  0
  8  9  1  6
 10 11  2  0
 10  8  1  0
 12 10  1  0
 13 12  1  0
 13 14  1  1
 15 14  1  0
 15 16  2  0
 17 16  1  0
 18 17  2  0
 19 20  2  0
 19 18  1  0
 20 15  1  0
 21 13  1  0
 21 26  1  0
 22 21  2  0
 23 24  1  0
 25 24  1  6
 25 26  1  0
 25 27  1  0
 27 29  2  0
 27 28  1  0
M  END
$$$$
