RFS.pdb
     RDKit          3D

 29 29  0  0  1  0  0  0  0  0999 V2000
   10.6451  -19.9563   14.6900 N   0  0  0  0  0  0  0  0  0  0  0  0
    9.5489  -19.1208   15.0116 C   0  0  0  0  0  0  0  0  0  0  0  0
    8.3546  -19.4303   14.6115 N   0  0  0  0  0  0  0  0  0  0  0  0
    9.7286  -17.9317   15.7748 N   0  0  0  0  0  0  0  0  0  0  0  0
   10.1094  -17.9810   17.1846 C   0  0  0  0  0  0  0  0  0  0  0  0
    8.9284  -17.5404   18.0122 C   0  0  0  0  0  0  0  0  0  0  0  0
    9.3170  -16.6529   19.1656 C   0  0  0  0  0  0  0  0  0  0  0  0
    8.8909  -17.2310   20.4934 C   0  0  2  0  0  0  0  0  0  0  0  0
    7.5076  -17.6377   20.3610 N   0  0  0  0  0  0  0  0  0  0  0  0
    9.0513  -16.2746   21.6029 C   0  0  0  0  0  0  0  0  0  0  0  0
   10.2028  -15.8313   21.8477 O   0  0  0  0  0  0  0  0  0  0  0  0
    7.5373  -18.8372   14.8106 N   0  0  0  0  0  0  0  0  0  0  0  0
    7.9998  -15.8148   22.4184 C   0  0  1  0  0  0  0  0  0  0  0  0
    8.2011  -15.0182   23.6151 C   0  0  0  0  0  0  0  0  0  0  0  0
    7.2039  -13.9168   23.7488 C   0  0  0  0  0  0  0  0  0  0  0  0
    7.3484  -13.1236   24.9880 C   0  0  0  0  0  0  0  0  0  0  0  0
    8.3036  -12.1964   25.2495 C   0  0  0  0  0  0  0  0  0  0  0  0
    8.3101  -11.5242   26.4756 C   0  0  0  0  0  0  0  0  0  0  0  0
    7.3649  -11.7765   27.4395 C   0  0  0  0  0  0  0  0  0  0  0  0
    6.3809  -12.7206   27.1902 C   0  0  0  0  0  0  0  0  0  0  0  0
    6.3959  -13.3649   25.9832 C   0  0  0  0  0  0  0  0  0  0  0  0
    8.3490  -15.8899   24.7925 O   0  0  0  0  0  0  0  0  0  0  0  0
    7.3733  -16.5599   25.1792 O   0  0  0  0  0  0  0  0  0  0  0  0
   11.9668  -17.2331   25.5751 C   0  0  0  0  0  0  0  0  0  0  0  0
   10.8899  -17.9457   26.1075 C   0  0  1  0  0  0  0  0  0  0  0  0
    9.8579  -16.9217   26.5320 N   0  0  0  0  0  0  0  0  0  0  0  0
    9.5688  -15.9766   25.4786 C   0  0  0  0  0  0  0  0  0  0  0  0
   10.4486  -16.1938   27.6698 O   0  0  0  0  0  0  0  0  0  0  0  0
   10.8065  -16.8320   28.8396 O   0  0  0  0  0  0  0  0  0  0  0  0
  1  2  1  0
  2  3  2  0
  4  2  1  0
  4  5  1  0
  6  5  1  0
  7  6  1  0
  8  7  1  0
  8  9  1  6
 10 11  2  0
 10  8  1  0
 12 10  1  0
 13 12  1  0
 13 14  1  6
 15 14  1  0
 15 16  2  0
 17 16  1  0
 18 17  2  0
 19 20  2  0
 19 18  1  0
 20 15  1  0
 21 13  1  0
 21 26  1  0
 22 21  2  0
 23 24  1  0
 25 24  1  6
 25 26  1  0
 25 27  1  0
 27 29  2  0
 27 28  1  0
M  END
$$$$
