RFS.pdb
     RDKit          3D

 29 29  0  0  1  0  0  0  0  0999 V2000
    8.7679  -19.7174   22.9098 N   0  0  0  0  0  0  0  0  0  0  0  0
    7.9305  -20.6240   22.2168 C   0  0  0  0  0  0  0  0  0  0  0  0
    7.4337  -21.6521   22.8319 N   0  0  0  0  0  0  0  0  0  0  0  0
    7.6162  -20.4314   20.8410 N   0  0  0  0  0  0  0  0  0  0  0  0
    8.0760  -19.2515   20.1119 C   0  0  0  0  0  0  0  0  0  0  0  0
    7.5783  -18.0235   20.8318 C   0  0  0  0  0  0  0  0  0  0  0  0
    8.0103  -16.7399   20.1724 C   0  0  0  0  0  0  0  0  0  0  0  0
    7.6115  -15.5273   20.9783 C   0  0  2  0  0  0  0  0  0  0  0  0
    8.1556  -14.3663   20.3058 N   0  0  0  0  0  0  0  0  0  0  0  0
    8.0857  -15.5951   22.3718 C   0  0  0  0  0  0  0  0  0  0  0  0
    9.3080  -15.4009   22.5970 O   0  0  0  0  0  0  0  0  0  0  0  0
    6.8285  -22.3365   22.3579 N   0  0  0  0  0  0  0  0  0  0  0  0
    7.2633  -15.8640   23.4825 C   0  0  2  0  0  0  0  0  0  0  0  0
    7.7152  -15.7671   24.8585 C   0  0  0  0  0  0  0  0  0  0  0  0
    6.7003  -15.1424   25.7558 C   0  0  0  0  0  0  0  0  0  0  0  0
    6.9412  -13.7094   26.0283 C   0  0  0  0  0  0  0  0  0  0  0  0
    8.1097  -13.1455   26.4245 C   0  0  0  0  0  0  0  0  0  0  0  0
    8.1827  -11.7665   26.6443 C   0  0  0  0  0  0  0  0  0  0  0  0
    7.0916  -10.9512   26.4691 C   0  0  0  0  0  0  0  0  0  0  0  0
    5.8890  -11.5095   26.0645 C   0  0  0  0  0  0  0  0  0  0  0  0
    5.8429  -12.8610   25.8559 C   0  0  0  0  0  0  0  0  0  0  0  0
    8.2577  -17.0587   25.3123 O   0  0  0  0  0  0  0  0  0  0  0  0
    7.4844  -18.0223   25.4661 O   0  0  0  0  0  0  0  0  0  0  0  0
   12.2464  -17.3412   25.5107 C   0  0  0  0  0  0  0  0  0  0  0  0
   11.6482  -18.6021   25.4531 C   0  0  1  0  0  0  0  0  0  0  0  0
   10.2478  -18.4450   26.0082 N   0  0  0  0  0  0  0  0  0  0  0  0
    9.6270  -17.2169   25.5694 C   0  0  0  0  0  0  0  0  0  0  0  0
   10.3920  -18.4032   27.4747 O   0  0  0  0  0  0  0  0  0  0  0  0
   10.9422  -19.4500   28.1856 O   0  0  0  0  0  0  0  0  0  0  0  0
  1  2  1  0
  2  3  2  0
  4  2  1  0
  4  5  1  0
  6  5  1  0
  7  6  1  0
  8  7  1  0
  8  9  1  6
 10 11  2  0
 10  8  1  0
 12 10  1  0
 13 12  1  0
 13 14  1  6
 15 14  1  0
 15 16  2  0
 17 16  1  0
 18 17  2  0
 19 20  2  0
 19 18  1  0
 20 15  1  0
 21 13  1  0
 21 26  1  0
 22 21  2  0
 23 24  1  0
 25 24  1  6
 25 26  1  0
 25 27  1  0
 27 29  2  0
 27 28  1  0
M  END
$$$$
