TVQ.pdb
     RDKit          3D

 24 23  0  0  1  0  0  0  0  0999 V2000
    6.2834  -16.3232   21.5901 C   0  0  0  0  0  0  0  0  0  0  0  0
    7.1718  -15.5239   20.6566 C   0  0  1  0  0  0  0  0  0  0  0  0
    6.7268  -15.5547   19.3549 O   0  0  0  0  0  0  0  0  0  0  0  0
    7.3720  -14.1163   21.1663 C   0  0  2  0  0  0  0  0  0  0  0  0
    8.0821  -13.3427   20.1694 N   0  0  0  0  0  0  0  0  0  0  0  0
    8.0580  -14.0388   22.4548 C   0  0  0  0  0  0  0  0  0  0  0  0
    9.2273  -14.5080   22.5568 O   0  0  0  0  0  0  0  0  0  0  0  0
    6.1268  -12.6705   25.9514 C   0  0  0  0  0  0  0  0  0  0  0  0
    7.6097  -12.5078   25.8462 C   0  0  1  0  0  0  0  0  0  0  0  0
    8.3371  -12.3278   27.1269 C   0  0  0  0  0  0  0  0  0  0  0  0
    8.2240  -13.5648   24.9195 C   0  0  2  0  0  0  0  0  0  0  0  0
    7.5123  -13.4697   23.6267 N   0  0  0  0  0  0  0  0  0  0  0  0
    8.0308  -14.8989   25.4839 C   0  0  0  0  0  0  0  0  0  0  0  0
    7.1144  -15.6937   25.0973 O   0  0  0  0  0  0  0  0  0  0  0  0
   11.8082  -17.4049   23.0557 N   0  0  0  0  0  0  0  0  0  0  0  0
   11.7358  -18.4493   24.0129 C   0  0  0  0  0  0  0  0  0  0  0  0
   12.4186  -19.4780   23.8050 O   0  0  0  0  0  0  0  0  0  0  0  0
   10.8773  -18.2884   25.1909 C   0  0  0  0  0  0  0  0  0  0  0  0
   10.2114  -16.9621   25.3065 C   0  0  0  0  0  0  0  0  0  0  0  0
    9.3669  -16.7595   26.5214 C   0  0  2  0  0  0  0  0  0  0  0  0
    8.8767  -15.3762   26.5088 N   0  0  0  0  0  0  0  0  0  0  0  0
   10.1118  -16.9509   27.7748 C   0  0  0  0  0  0  0  0  0  0  0  0
   10.2738  -18.2229   28.2821 O   0  0  0  0  0  0  0  0  0  0  0  0
   10.5940  -15.9728   28.3772 O   0  0  0  0  0  0  0  0  0  0  0  0
  2  3  1  0
  2  1  1  1
  4  2  1  0
  4  5  1  6
  6 12  1  0
  6  4  1  0
  7  6  2  0
  9  8  1  1
  9 11  1  0
  9 10  1  0
 11 12  1  6
 13 11  1  0
 14 13  2  0
 16 17  2  0
 16 15  1  0
 18 16  1  0
 19 18  1  0
 20 21  1  0
 20 19  1  6
 21 13  1  0
 22 20  1  0
 23 22  1  0
 24 22  2  0
M  END
$$$$
