TVQ.pdb
     RDKit          3D

 24 23  0  0  1  0  0  0  0  0999 V2000
    6.2832  -16.6746   22.1014 C   0  0  0  0  0  0  0  0  0  0  0  0
    7.1300  -16.0397   21.0154 C   0  0  1  0  0  0  0  0  0  0  0  0
    6.6366  -16.2857   19.7547 O   0  0  0  0  0  0  0  0  0  0  0  0
    7.3391  -14.5671   21.2776 C   0  0  2  0  0  0  0  0  0  0  0  0
    8.0416  -13.9765   20.1578 N   0  0  0  0  0  0  0  0  0  0  0  0
    8.0377  -14.2757   22.5281 C   0  0  0  0  0  0  0  0  0  0  0  0
    9.2870  -14.4583   22.5903 O   0  0  0  0  0  0  0  0  0  0  0  0
    5.9384  -13.2026   25.9697 C   0  0  0  0  0  0  0  0  0  0  0  0
    7.3665  -12.7648   25.8945 C   0  0  1  0  0  0  0  0  0  0  0  0
    8.0268  -12.4727   27.1908 C   0  0  0  0  0  0  0  0  0  0  0  0
    8.1820  -13.6740   24.9662 C   0  0  2  0  0  0  0  0  0  0  0  0
    7.4207  -13.7947   23.7042 N   0  0  0  0  0  0  0  0  0  0  0  0
    8.3363  -14.9963   25.5692 C   0  0  0  0  0  0  0  0  0  0  0  0
    7.3916  -15.8473   25.6353 O   0  0  0  0  0  0  0  0  0  0  0  0
   12.9900  -20.5390   25.6984 N   0  0  0  0  0  0  0  0  0  0  0  0
   12.4952  -19.2414   25.4093 C   0  0  0  0  0  0  0  0  0  0  0  0
   13.0487  -18.5991   24.4879 O   0  0  0  0  0  0  0  0  0  0  0  0
   11.3727  -18.7086   26.1880 C   0  0  0  0  0  0  0  0  0  0  0  0
   10.8918  -17.3666   25.7594 C   0  0  0  0  0  0  0  0  0  0  0  0
    9.8010  -16.7694   26.5862 C   0  0  2  0  0  0  0  0  0  0  0  0
    9.5743  -15.3973   26.1174 N   0  0  0  0  0  0  0  0  0  0  0  0
   10.1405  -16.6957   28.0151 C   0  0  0  0  0  0  0  0  0  0  0  0
   10.1589  -17.8494   28.7701 O   0  0  0  0  0  0  0  0  0  0  0  0
   10.4098  -15.6000   28.5433 O   0  0  0  0  0  0  0  0  0  0  0  0
  2  3  1  0
  2  1  1  1
  4  2  1  0
  4  5  1  6
  6 12  1  0
  6  4  1  0
  7  6  2  0
  9  8  1  1
  9 11  1  0
  9 10  1  0
 11 12  1  6
 13 11  1  0
 14 13  2  0
 16 17  2  0
 16 15  1  0
 18 16  1  0
 19 18  1  0
 20 21  1  0
 20 19  1  6
 21 13  1  0
 22 20  1  0
 23 22  1  0
 24 22  2  0
M  END
$$$$
