TVQ.pdb
     RDKit          3D

 24 23  0  0  1  0  0  0  0  0999 V2000
    6.3666  -15.6828   20.9938 C   0  0  0  0  0  0  0  0  0  0  0  0
    7.2890  -14.7724   20.2064 C   0  0  1  0  0  0  0  0  0  0  0  0
    6.9369  -14.6903   18.8789 O   0  0  0  0  0  0  0  0  0  0  0  0
    7.4037  -13.4153   20.8594 C   0  0  2  0  0  0  0  0  0  0  0  0
    8.1604  -12.5317   19.9974 N   0  0  0  0  0  0  0  0  0  0  0  0
    7.9882  -13.4437   22.1989 C   0  0  0  0  0  0  0  0  0  0  0  0
    9.2199  -13.6981   22.3259 O   0  0  0  0  0  0  0  0  0  0  0  0
    5.6176  -13.0549   25.6000 C   0  0  0  0  0  0  0  0  0  0  0  0
    7.0408  -12.6142   25.7313 C   0  0  1  0  0  0  0  0  0  0  0  0
    7.5896  -12.5883   27.1097 C   0  0  0  0  0  0  0  0  0  0  0  0
    7.9417  -13.3217   24.7109 C   0  0  2  0  0  0  0  0  0  0  0  0
    7.2764  -13.2049   23.3954 N   0  0  0  0  0  0  0  0  0  0  0  0
    8.0822  -14.7336   25.0609 C   0  0  0  0  0  0  0  0  0  0  0  0
    7.1730  -15.5990   24.8475 O   0  0  0  0  0  0  0  0  0  0  0  0
   12.1679  -20.3309   23.9054 N   0  0  0  0  0  0  0  0  0  0  0  0
   12.0647  -18.9691   24.2888 C   0  0  0  0  0  0  0  0  0  0  0  0
   12.9425  -18.1789   23.8730 O   0  0  0  0  0  0  0  0  0  0  0  0
   10.9524  -18.5442   25.1448 C   0  0  0  0  0  0  0  0  0  0  0  0
   10.5661  -17.1130   25.0084 C   0  0  0  0  0  0  0  0  0  0  0  0
    9.4795  -16.6408   25.9175 C   0  0  2  0  0  0  0  0  0  0  0  0
    9.2655  -15.2108   25.6658 N   0  0  0  0  0  0  0  0  0  0  0  0
    9.8180  -16.7912   27.3406 C   0  0  0  0  0  0  0  0  0  0  0  0
    9.7633  -18.0393   27.9243 O   0  0  0  0  0  0  0  0  0  0  0  0
   10.1518  -15.7999   28.0174 O   0  0  0  0  0  0  0  0  0  0  0  0
  2  3  1  0
  2  1  1  1
  4  2  1  0
  4  5  1  6
  6 12  1  0
  6  4  1  0
  7  6  2  0
  9  8  1  1
  9 11  1  0
  9 10  1  0
 11 12  1  6
 13 11  1  0
 14 13  2  0
 16 17  2  0
 16 15  1  0
 18 16  1  0
 19 18  1  0
 20 21  1  0
 20 19  1  6
 21 13  1  0
 22 20  1  0
 23 22  1  0
 24 22  2  0
M  END
$$$$
