TVQ.pdb
     RDKit          3D

 24 23  0  0  1  0  0  0  0  0999 V2000
    6.3975  -16.5483   21.5473 C   0  0  0  0  0  0  0  0  0  0  0  0
    7.3952  -15.7345   20.7459 C   0  0  1  0  0  0  0  0  0  0  0  0
    7.2045  -15.8600   19.3890 O   0  0  0  0  0  0  0  0  0  0  0  0
    7.4110  -14.2932   21.1969 C   0  0  2  0  0  0  0  0  0  0  0  0
    8.1394  -13.4974   20.2313 N   0  0  0  0  0  0  0  0  0  0  0  0
    7.9568  -14.0923   22.5380 C   0  0  0  0  0  0  0  0  0  0  0  0
    9.2073  -14.1631   22.7087 O   0  0  0  0  0  0  0  0  0  0  0  0
    7.2916  -12.9546   27.3471 C   0  0  0  0  0  0  0  0  0  0  0  0
    6.8469  -12.9374   25.9192 C   0  0  1  0  0  0  0  0  0  0  0  0
    6.4377  -11.6165   25.3810 C   0  0  0  0  0  0  0  0  0  0  0  0
    7.8239  -13.7055   25.0199 C   0  0  2  0  0  0  0  0  0  0  0  0
    7.1869  -13.8185   23.6902 N   0  0  0  0  0  0  0  0  0  0  0  0
    8.0582  -15.0423   25.5619 C   0  0  0  0  0  0  0  0  0  0  0  0
    7.1909  -15.9735   25.5207 O   0  0  0  0  0  0  0  0  0  0  0  0
   12.4776  -18.1711   23.5620 N   0  0  0  0  0  0  0  0  0  0  0  0
   12.3255  -18.9231   24.7550 C   0  0  0  0  0  0  0  0  0  0  0  0
   13.0690  -19.9178   24.9151 O   0  0  0  0  0  0  0  0  0  0  0  0
   11.3190  -18.5150   25.7404 C   0  0  0  0  0  0  0  0  0  0  0  0
   10.7135  -17.1762   25.5022 C   0  0  0  0  0  0  0  0  0  0  0  0
    9.6589  -16.7550   26.4720 C   0  0  2  0  0  0  0  0  0  0  0  0
    9.2910  -15.3669   26.1692 N   0  0  0  0  0  0  0  0  0  0  0  0
   10.1170  -16.7941   27.8688 C   0  0  0  0  0  0  0  0  0  0  0  0
   10.3803  -15.6137   28.5313 O   0  0  0  0  0  0  0  0  0  0  0  0
   10.2678  -17.8843   28.4525 O   0  0  0  0  0  0  0  0  0  0  0  0
  2  3  1  0
  2  1  1  1
  4  2  1  0
  4  5  1  6
  6 12  1  0
  6  4  1  0
  7  6  2  0
  9  8  1  1
  9 11  1  0
  9 10  1  0
 11 12  1  6
 13 11  1  0
 14 13  2  0
 16 17  2  0
 16 15  1  0
 18 16  1  0
 19 18  1  0
 20 21  1  0
 20 19  1  6
 21 13  1  0
 22 20  1  0
 23 22  1  0
 24 22  2  0
M  END
$$$$
