TVQ.pdb
     RDKit          3D

 24 23  0  0  1  0  0  0  0  0999 V2000
    6.2146  -14.7333   19.5204 C   0  0  0  0  0  0  0  0  0  0  0  0
    6.8663  -14.8408   20.8855 C   0  0  1  0  0  0  0  0  0  0  0  0
    7.8568  -15.7952   20.9199 O   0  0  0  0  0  0  0  0  0  0  0  0
    7.3451  -13.4925   21.3690 C   0  0  2  0  0  0  0  0  0  0  0  0
    8.2160  -12.9076   20.3711 N   0  0  0  0  0  0  0  0  0  0  0  0
    8.0111  -13.5257   22.6698 C   0  0  0  0  0  0  0  0  0  0  0  0
    9.2687  -13.6463   22.7126 O   0  0  0  0  0  0  0  0  0  0  0  0
    7.7576  -11.2798   25.9992 C   0  0  0  0  0  0  0  0  0  0  0  0
    7.4265  -12.7200   26.2289 C   0  0  1  0  0  0  0  0  0  0  0  0
    5.9952  -13.0282   26.4705 C   0  0  0  0  0  0  0  0  0  0  0  0
    8.0938  -13.6212   25.1820 C   0  0  2  0  0  0  0  0  0  0  0  0
    7.3531  -13.4319   23.9162 N   0  0  0  0  0  0  0  0  0  0  0  0
    8.0025  -15.0203   25.5942 C   0  0  0  0  0  0  0  0  0  0  0  0
    7.2146  -15.8582   25.0483 O   0  0  0  0  0  0  0  0  0  0  0  0
   11.5504  -17.7639   22.8711 N   0  0  0  0  0  0  0  0  0  0  0  0
   12.0226  -18.1974   24.1365 C   0  0  0  0  0  0  0  0  0  0  0  0
   13.2075  -18.5952   24.2108 O   0  0  0  0  0  0  0  0  0  0  0  0
   11.1200  -18.1649   25.2918 C   0  0  0  0  0  0  0  0  0  0  0  0
   10.2868  -16.9364   25.4036 C   0  0  0  0  0  0  0  0  0  0  0  0
    9.3915  -16.8614   26.5965 C   0  0  2  0  0  0  0  0  0  0  0  0
    8.8078  -15.5156   26.6430 N   0  0  0  0  0  0  0  0  0  0  0  0
   10.1069  -17.0746   27.8635 C   0  0  0  0  0  0  0  0  0  0  0  0
   10.2653  -18.3561   28.3476 O   0  0  0  0  0  0  0  0  0  0  0  0
   10.5675  -16.1065   28.4981 O   0  0  0  0  0  0  0  0  0  0  0  0
  2  3  1  0
  2  1  1  6
  4  2  1  0
  4  5  1  6
  6 12  1  0
  6  4  1  0
  7  6  2  0
  9  8  1  6
  9 11  1  0
  9 10  1  0
 11 12  1  6
 13 11  1  0
 14 13  2  0
 16 17  2  0
 16 15  1  0
 18 16  1  0
 19 18  1  0
 20 21  1  0
 20 19  1  6
 21 13  1  0
 22 20  1  0
 23 22  1  0
 24 22  2  0
M  END
$$$$
