TVQ.pdb
     RDKit          3D

 24 23  0  0  1  0  0  0  0  0999 V2000
    6.9094  -17.4767   20.6564 C   0  0  0  0  0  0  0  0  0  0  0  0
    7.4639  -16.9160   21.9516 C   0  0  1  0  0  0  0  0  0  0  0  0
    8.5147  -17.6596   22.4376 O   0  0  0  0  0  0  0  0  0  0  0  0
    7.8083  -15.4523   21.8092 C   0  0  2  0  0  0  0  0  0  0  0  0
    8.8022  -15.2934   20.7684 N   0  0  0  0  0  0  0  0  0  0  0  0
    8.2620  -14.8216   23.0474 C   0  0  0  0  0  0  0  0  0  0  0  0
    9.4984  -14.8035   23.3097 O   0  0  0  0  0  0  0  0  0  0  0  0
    7.2104  -12.4541   27.3167 C   0  0  0  0  0  0  0  0  0  0  0  0
    6.8475  -12.8553   25.9225 C   0  0  1  0  0  0  0  0  0  0  0  0
    6.3162  -11.7770   25.0525 C   0  0  0  0  0  0  0  0  0  0  0  0
    7.9570  -13.6938   25.2750 C   0  0  2  0  0  0  0  0  0  0  0  0
    7.4154  -14.2143   24.0012 N   0  0  0  0  0  0  0  0  0  0  0  0
    8.3119  -14.8128   26.1456 C   0  0  0  0  0  0  0  0  0  0  0  0
    7.5710  -15.8362   26.3031 O   0  0  0  0  0  0  0  0  0  0  0  0
   13.4519  -17.6469   25.8210 N   0  0  0  0  0  0  0  0  0  0  0  0
   13.0109  -18.2195   27.0415 C   0  0  0  0  0  0  0  0  0  0  0  0
   13.6906  -19.1529   27.5259 O   0  0  0  0  0  0  0  0  0  0  0  0
   11.7948  -17.7061   27.6801 C   0  0  0  0  0  0  0  0  0  0  0  0
   11.1460  -16.5684   26.9724 C   0  0  0  0  0  0  0  0  0  0  0  0
    9.9607  -15.9669   27.6531 C   0  0  2  0  0  0  0  0  0  0  0  0
    9.5255  -14.8064   26.8672 N   0  0  0  0  0  0  0  0  0  0  0  0
   10.2612  -15.4907   29.0116 C   0  0  0  0  0  0  0  0  0  0  0  0
   10.4914  -16.4055   30.0174 O   0  0  0  0  0  0  0  0  0  0  0  0
   10.3077  -14.2700   29.2557 O   0  0  0  0  0  0  0  0  0  0  0  0
  2  3  1  0
  2  1  1  6
  4  2  1  0
  4  5  1  6
  6 12  1  0
  6  4  1  0
  7  6  2  0
  9  8  1  1
  9 11  1  0
  9 10  1  0
 11 12  1  6
 13 11  1  0
 14 13  2  0
 16 17  2  0
 16 15  1  0
 18 16  1  0
 19 18  1  0
 20 21  1  0
 20 19  1  6
 21 13  1  0
 22 20  1  0
 23 22  1  0
 24 22  2  0
M  END
$$$$
