TVQ.pdb
     RDKit          3D

 24 23  0  0  1  0  0  0  0  0999 V2000
    6.4859  -16.5303   20.1897 C   0  0  0  0  0  0  0  0  0  0  0  0
    7.0794  -16.1582   21.5347 C   0  0  1  0  0  0  0  0  0  0  0  0
    8.1357  -16.9679   21.8838 O   0  0  0  0  0  0  0  0  0  0  0  0
    7.4332  -14.6909   21.5878 C   0  0  2  0  0  0  0  0  0  0  0  0
    8.3242  -14.3733   20.4916 N   0  0  0  0  0  0  0  0  0  0  0  0
    8.0154  -14.2617   22.8581 C   0  0  0  0  0  0  0  0  0  0  0  0
    9.2707  -14.2993   23.0018 O   0  0  0  0  0  0  0  0  0  0  0  0
    7.4252  -12.6107   27.5342 C   0  0  0  0  0  0  0  0  0  0  0  0
    6.9252  -12.7730   26.1340 C   0  0  1  0  0  0  0  0  0  0  0  0
    6.3611  -11.5562   25.4992 C   0  0  0  0  0  0  0  0  0  0  0  0
    7.9399  -13.5226   25.2612 C   0  0  2  0  0  0  0  0  0  0  0  0
    7.2765  -13.7959   23.9682 N   0  0  0  0  0  0  0  0  0  0  0  0
    8.3088  -14.7867   25.8951 C   0  0  0  0  0  0  0  0  0  0  0  0
    7.5855  -15.8329   25.8376 O   0  0  0  0  0  0  0  0  0  0  0  0
   12.0423  -17.5870   23.9537 N   0  0  0  0  0  0  0  0  0  0  0  0
   11.9280  -18.5080   25.0265 C   0  0  0  0  0  0  0  0  0  0  0  0
   12.1744  -19.7124   24.7887 O   0  0  0  0  0  0  0  0  0  0  0  0
   11.5314  -18.0236   26.3526 C   0  0  0  0  0  0  0  0  0  0  0  0
   11.2316  -16.5673   26.4256 C   0  0  0  0  0  0  0  0  0  0  0  0
    9.9766  -16.1945   27.1440 C   0  0  2  0  0  0  0  0  0  0  0  0
    9.5168  -14.9044   26.6167 N   0  0  0  0  0  0  0  0  0  0  0  0
   10.1725  -16.0331   28.5925 C   0  0  0  0  0  0  0  0  0  0  0  0
   10.2830  -17.1508   29.3925 O   0  0  0  0  0  0  0  0  0  0  0  0
   10.2382  -14.8958   29.0968 O   0  0  0  0  0  0  0  0  0  0  0  0
  2  3  1  0
  2  1  1  6
  4  2  1  0
  4  5  1  6
  6 12  1  0
  6  4  1  0
  7  6  2  0
  9  8  1  1
  9 11  1  0
  9 10  1  0
 11 12  1  6
 13 11  1  0
 14 13  2  0
 16 17  2  0
 16 15  1  0
 18 16  1  0
 19 18  1  0
 20 21  1  0
 20 19  1  6
 21 13  1  0
 22 20  1  0
 23 22  1  0
 24 22  2  0
M  END
$$$$
