TVQ.pdb
     RDKit          3D

 24 23  0  0  1  0  0  0  0  0999 V2000
    6.4990  -14.6468   18.8021 C   0  0  0  0  0  0  0  0  0  0  0  0
    7.1670  -14.7900   20.1560 C   0  0  1  0  0  0  0  0  0  0  0  0
    8.3041  -15.5627   20.1005 O   0  0  0  0  0  0  0  0  0  0  0  0
    7.4149  -13.4406   20.7874 C   0  0  2  0  0  0  0  0  0  0  0  0
    8.2229  -12.6358   19.8954 N   0  0  0  0  0  0  0  0  0  0  0  0
    8.0285  -13.5041   22.1127 C   0  0  0  0  0  0  0  0  0  0  0  0
    9.2867  -13.4327   22.2105 O   0  0  0  0  0  0  0  0  0  0  0  0
    7.1649  -11.6356   25.5721 C   0  0  0  0  0  0  0  0  0  0  0  0
    7.1489  -13.1268   25.6849 C   0  0  1  0  0  0  0  0  0  0  0  0
    5.8123  -13.7540   25.8327 C   0  0  0  0  0  0  0  0  0  0  0  0
    8.0322  -13.7783   24.6130 C   0  0  2  0  0  0  0  0  0  0  0  0
    7.3177  -13.6420   23.3255 N   0  0  0  0  0  0  0  0  0  0  0  0
    8.2236  -15.1953   24.9151 C   0  0  0  0  0  0  0  0  0  0  0  0
    7.4901  -16.1168   24.4317 O   0  0  0  0  0  0  0  0  0  0  0  0
   12.8434  -17.7844   23.0960 N   0  0  0  0  0  0  0  0  0  0  0  0
   12.6198  -18.7439   24.1165 C   0  0  0  0  0  0  0  0  0  0  0  0
   13.3685  -19.7471   24.1467 O   0  0  0  0  0  0  0  0  0  0  0  0
   11.5374  -18.5294   25.0823 C   0  0  0  0  0  0  0  0  0  0  0  0
   10.8364  -17.2219   24.9600 C   0  0  0  0  0  0  0  0  0  0  0  0
    9.6676  -17.0205   25.8674 C   0  0  2  0  0  0  0  0  0  0  0  0
    9.2598  -15.6135   25.7784 N   0  0  0  0  0  0  0  0  0  0  0  0
    9.9823  -17.2990   27.2767 C   0  0  0  0  0  0  0  0  0  0  0  0
   10.1728  -16.2499   28.1510 O   0  0  0  0  0  0  0  0  0  0  0  0
   10.0775  -18.4735   27.6811 O   0  0  0  0  0  0  0  0  0  0  0  0
  2  3  1  0
  2  1  1  6
  4  2  1  0
  4  5  1  6
  6 12  1  0
  6  4  1  0
  7  6  2  0
  9  8  1  6
  9 11  1  0
  9 10  1  0
 11 12  1  6
 13 11  1  0
 14 13  2  0
 16 17  2  0
 16 15  1  0
 18 16  1  0
 19 18  1  0
 20 21  1  0
 20 19  1  6
 21 13  1  0
 22 20  1  0
 23 22  1  0
 24 22  2  0
M  END
$$$$
