TVQ.pdb
     RDKit          3D

 24 23  0  0  1  0  0  0  0  0999 V2000
    7.0083  -17.5989   20.9115 C   0  0  0  0  0  0  0  0  0  0  0  0
    7.5727  -16.9137   22.1409 C   0  0  1  0  0  0  0  0  0  0  0  0
    8.7480  -17.4877   22.5680 O   0  0  0  0  0  0  0  0  0  0  0  0
    7.7016  -15.4244   21.9244 C   0  0  2  0  0  0  0  0  0  0  0  0
    8.5272  -15.1795   20.7605 N   0  0  0  0  0  0  0  0  0  0  0  0
    8.2208  -14.6950   23.0799 C   0  0  0  0  0  0  0  0  0  0  0  0
    9.4578  -14.4418   23.1407 O   0  0  0  0  0  0  0  0  0  0  0  0
    7.4547  -12.6022   27.5435 C   0  0  0  0  0  0  0  0  0  0  0  0
    7.0149  -12.9196   26.1498 C   0  0  1  0  0  0  0  0  0  0  0  0
    6.4614  -11.7864   25.3680 C   0  0  0  0  0  0  0  0  0  0  0  0
    8.0745  -13.7389   25.4019 C   0  0  2  0  0  0  0  0  0  0  0  0
    7.4386  -14.2363   24.1629 N   0  0  0  0  0  0  0  0  0  0  0  0
    8.4996  -14.8733   26.2194 C   0  0  0  0  0  0  0  0  0  0  0  0
    7.7592  -15.8831   26.4499 O   0  0  0  0  0  0  0  0  0  0  0  0
   13.7180  -15.4596   25.3716 N   0  0  0  0  0  0  0  0  0  0  0  0
   12.7674  -16.3212   24.7665 C   0  0  0  0  0  0  0  0  0  0  0  0
   12.8929  -16.5595   23.5436 O   0  0  0  0  0  0  0  0  0  0  0  0
   11.6899  -16.8910   25.5818 C   0  0  0  0  0  0  0  0  0  0  0  0
   11.6408  -16.4035   26.9875 C   0  0  0  0  0  0  0  0  0  0  0  0
   10.2835  -16.0787   27.5186 C   0  0  2  0  0  0  0  0  0  0  0  0
    9.7853  -14.8985   26.8025 N   0  0  0  0  0  0  0  0  0  0  0  0
   10.2929  -15.7519   28.9524 C   0  0  0  0  0  0  0  0  0  0  0  0
   10.4902  -16.7554   29.8773 O   0  0  0  0  0  0  0  0  0  0  0  0
   10.1235  -14.5775   29.3323 O   0  0  0  0  0  0  0  0  0  0  0  0
  2  3  1  0
  2  1  1  6
  4  2  1  0
  4  5  1  6
  6 12  1  0
  6  4  1  0
  7  6  2  0
  9  8  1  1
  9 11  1  0
  9 10  1  0
 11 12  1  6
 13 11  1  0
 14 13  2  0
 16 17  2  0
 16 15  1  0
 18 16  1  0
 19 18  1  0
 20 21  1  0
 20 19  1  6
 21 13  1  0
 22 20  1  0
 23 22  1  0
 24 22  2  0
M  END
$$$$
