TVQ.pdb
     RDKit          3D

 24 23  0  0  1  0  0  0  0  0999 V2000
    6.9060  -18.9132   18.4323 C   0  0  0  0  0  0  0  0  0  0  0  0
    8.1757  -18.5653   17.6797 C   0  0  1  0  0  0  0  0  0  0  0  0
    8.3783  -19.3789   16.5888 O   0  0  0  0  0  0  0  0  0  0  0  0
    8.2134  -17.0983   17.3222 C   0  0  2  0  0  0  0  0  0  0  0  0
    8.9247  -16.9283   16.0727 N   0  0  0  0  0  0  0  0  0  0  0  0
    8.7925  -16.2450   18.3582 C   0  0  0  0  0  0  0  0  0  0  0  0
   10.0498  -16.1371   18.4326 O   0  0  0  0  0  0  0  0  0  0  0  0
    7.5107  -12.6416   19.8819 C   0  0  0  0  0  0  0  0  0  0  0  0
    7.7328  -13.7144   20.9000 C   0  0  1  0  0  0  0  0  0  0  0  0
    6.5121  -14.2810   21.5252 C   0  0  0  0  0  0  0  0  0  0  0  0
    8.7253  -14.7690   20.3938 C   0  0  2  0  0  0  0  0  0  0  0  0
    8.0485  -15.5111   19.3085 N   0  0  0  0  0  0  0  0  0  0  0  0
    9.0689  -15.6923   21.4733 C   0  0  0  0  0  0  0  0  0  0  0  0
    8.4095  -16.7531   21.7201 O   0  0  0  0  0  0  0  0  0  0  0  0
   14.2162  -17.9548   21.8548 N   0  0  0  0  0  0  0  0  0  0  0  0
   13.9112  -18.3000   23.1964 C   0  0  0  0  0  0  0  0  0  0  0  0
   14.5781  -19.2169   23.7278 O   0  0  0  0  0  0  0  0  0  0  0  0
   12.8430  -17.5825   23.8997 C   0  0  0  0  0  0  0  0  0  0  0  0
   12.1622  -16.5279   23.0995 C   0  0  0  0  0  0  0  0  0  0  0  0
   10.6785  -16.4499   23.2505 C   0  0  2  0  0  0  0  0  0  0  0  0
   10.1782  -15.4406   22.3098 N   0  0  0  0  0  0  0  0  0  0  0  0
   10.2611  -16.0394   24.5995 C   0  0  0  0  0  0  0  0  0  0  0  0
   10.3719  -16.9303   25.6461 O   0  0  0  0  0  0  0  0  0  0  0  0
    9.8095  -14.8956   24.7988 O   0  0  0  0  0  0  0  0  0  0  0  0
  2  3  1  0
  2  1  1  6
  4  2  1  0
  4  5  1  6
  6 12  1  0
  6  4  1  0
  7  6  2  0
  9  8  1  6
  9 11  1  0
  9 10  1  0
 11 12  1  6
 13 11  1  0
 14 13  2  0
 16 17  2  0
 16 15  1  0
 18 16  1  0
 19 18  1  0
 20 21  1  0
 20 19  1  1
 21 13  1  0
 22 20  1  0
 23 22  1  0
 24 22  2  0
M  END
$$$$
