TVQ.pdb
     RDKit          3D

 24 23  0  0  1  0  0  0  0  0999 V2000
    8.3870  -18.7684   15.6546 C   0  0  0  0  0  0  0  0  0  0  0  0
    8.8964  -17.6919   16.5933 C   0  0  1  0  0  0  0  0  0  0  0  0
    8.8111  -16.4335   16.0435 O   0  0  0  0  0  0  0  0  0  0  0  0
    8.2226  -17.7808   17.9421 C   0  0  2  0  0  0  0  0  0  0  0  0
    6.8085  -17.5101   17.7896 N   0  0  0  0  0  0  0  0  0  0  0  0
    8.8021  -16.9049   18.9589 C   0  0  0  0  0  0  0  0  0  0  0  0
   10.0153  -17.0560   19.2801 O   0  0  0  0  0  0  0  0  0  0  0  0
    7.9160  -12.9827   19.4974 C   0  0  0  0  0  0  0  0  0  0  0  0
    7.9520  -13.7513   20.7798 C   0  0  1  0  0  0  0  0  0  0  0  0
    6.6473  -13.9441   21.4598 C   0  0  0  0  0  0  0  0  0  0  0  0
    8.7818  -15.0339   20.6401 C   0  0  2  0  0  0  0  0  0  0  0  0
    8.1047  -15.8768   19.6311 N   0  0  0  0  0  0  0  0  0  0  0  0
    8.8252  -15.7440   21.9167 C   0  0  0  0  0  0  0  0  0  0  0  0
    7.8782  -16.4851   22.3351 O   0  0  0  0  0  0  0  0  0  0  0  0
   13.2900  -19.2493   23.0845 N   0  0  0  0  0  0  0  0  0  0  0  0
   12.8580  -19.1643   24.4329 C   0  0  0  0  0  0  0  0  0  0  0  0
   13.3118  -20.0036   25.2438 O   0  0  0  0  0  0  0  0  0  0  0  0
   11.9106  -18.1144   24.8209 C   0  0  0  0  0  0  0  0  0  0  0  0
   11.4801  -17.2166   23.7143 C   0  0  0  0  0  0  0  0  0  0  0  0
   10.1558  -16.5499   23.8924 C   0  0  2  0  0  0  0  0  0  0  0  0
    9.9509  -15.6364   22.7622 N   0  0  0  0  0  0  0  0  0  0  0  0
   10.0784  -15.7502   25.1241 C   0  0  0  0  0  0  0  0  0  0  0  0
    9.7295  -16.3606   26.3103 O   0  0  0  0  0  0  0  0  0  0  0  0
   10.3252  -14.5293   25.0995 O   0  0  0  0  0  0  0  0  0  0  0  0
  2  3  1  0
  2  1  1  6
  4  2  1  0
  4  5  1  6
  6 12  1  0
  6  4  1  0
  7  6  2  0
  9  8  1  6
  9 11  1  0
  9 10  1  0
 11 12  1  6
 13 11  1  0
 14 13  2  0
 16 17  2  0
 16 15  1  0
 18 16  1  0
 19 18  1  0
 20 21  1  0
 20 19  1  6
 21 13  1  0
 22 20  1  0
 23 22  1  0
 24 22  2  0
M  END
$$$$
