TVQ.pdb
     RDKit          3D

 24 23  0  0  1  0  0  0  0  0999 V2000
    6.2101  -17.2882   20.7551 C   0  0  0  0  0  0  0  0  0  0  0  0
    6.8914  -16.7845   22.0128 C   0  0  1  0  0  0  0  0  0  0  0  0
    7.7886  -17.6942   22.5233 O   0  0  0  0  0  0  0  0  0  0  0  0
    7.5096  -15.4244   21.7909 C   0  0  2  0  0  0  0  0  0  0  0  0
    8.4775  -15.5079   20.7172 N   0  0  0  0  0  0  0  0  0  0  0  0
    8.1219  -14.8439   22.9846 C   0  0  0  0  0  0  0  0  0  0  0  0
    9.3486  -15.0519   23.2081 O   0  0  0  0  0  0  0  0  0  0  0  0
    5.7980  -13.1129   25.9649 C   0  0  0  0  0  0  0  0  0  0  0  0
    7.1896  -12.5792   25.8413 C   0  0  1  0  0  0  0  0  0  0  0  0
    7.7567  -11.9517   27.0606 C   0  0  0  0  0  0  0  0  0  0  0  0
    8.1208  -13.5957   25.1683 C   0  0  2  0  0  0  0  0  0  0  0  0
    7.4430  -14.0494   23.9348 N   0  0  0  0  0  0  0  0  0  0  0  0
    8.3373  -14.7388   26.0527 C   0  0  0  0  0  0  0  0  0  0  0  0
    7.4938  -15.6822   26.1923 O   0  0  0  0  0  0  0  0  0  0  0  0
   12.9117  -18.2733   25.6238 N   0  0  0  0  0  0  0  0  0  0  0  0
   12.4175  -18.7840   26.8514 C   0  0  0  0  0  0  0  0  0  0  0  0
   12.9306  -19.8376   27.2924 O   0  0  0  0  0  0  0  0  0  0  0  0
   11.3411  -18.0713   27.5469 C   0  0  0  0  0  0  0  0  0  0  0  0
   10.8751  -16.8272   26.8754 C   0  0  0  0  0  0  0  0  0  0  0  0
    9.8263  -16.0485   27.5990 C   0  0  2  0  0  0  0  0  0  0  0  0
    9.5246  -14.8489   26.8091 N   0  0  0  0  0  0  0  0  0  0  0  0
   10.2622  -15.6005   28.9301 C   0  0  0  0  0  0  0  0  0  0  0  0
   10.4205  -16.5252   29.9407 O   0  0  0  0  0  0  0  0  0  0  0  0
   10.4873  -14.3945   29.1470 O   0  0  0  0  0  0  0  0  0  0  0  0
  2  3  1  0
  2  1  1  6
  4  2  1  0
  4  5  1  6
  6 12  1  0
  6  4  1  0
  7  6  2  0
  9  8  1  1
  9 11  1  0
  9 10  1  0
 11 12  1  6
 13 11  1  0
 14 13  2  0
 16 17  2  0
 16 15  1  0
 18 16  1  0
 19 18  1  0
 20 21  1  0
 20 19  1  6
 21 13  1  0
 22 20  1  0
 23 22  1  0
 24 22  2  0
M  END
$$$$
