TVQ.pdb
     RDKit          3D

 24 23  0  0  1  0  0  0  0  0999 V2000
    6.1386  -16.5500   22.4088 C   0  0  0  0  0  0  0  0  0  0  0  0
    7.0926  -16.0111   21.3604 C   0  0  1  0  0  0  0  0  0  0  0  0
    6.6716  -16.2829   20.0790 O   0  0  0  0  0  0  0  0  0  0  0  0
    7.3702  -14.5426   21.5788 C   0  0  2  0  0  0  0  0  0  0  0  0
    8.1680  -14.0378   20.4811 N   0  0  0  0  0  0  0  0  0  0  0  0
    8.0118  -14.2389   22.8567 C   0  0  0  0  0  0  0  0  0  0  0  0
    9.2541  -14.4363   22.9820 O   0  0  0  0  0  0  0  0  0  0  0  0
    7.5140  -11.1327   25.4467 C   0  0  0  0  0  0  0  0  0  0  0  0
    7.3155  -12.4794   26.0661 C   0  0  1  0  0  0  0  0  0  0  0  0
    5.9194  -12.8313   26.4250 C   0  0  0  0  0  0  0  0  0  0  0  0
    8.0551  -13.5704   25.2812 C   0  0  2  0  0  0  0  0  0  0  0  0
    7.3456  -13.7304   23.9936 N   0  0  0  0  0  0  0  0  0  0  0  0
    8.0153  -14.8318   26.0181 C   0  0  0  0  0  0  0  0  0  0  0  0
    7.0356  -15.6428   25.9602 O   0  0  0  0  0  0  0  0  0  0  0  0
    7.9115  -19.2820   25.8262 N   0  0  0  0  0  0  0  0  0  0  0  0
    9.1596  -19.6993   26.3558 C   0  0  0  0  0  0  0  0  0  0  0  0
    9.2441  -20.8689   26.7949 O   0  0  0  0  0  0  0  0  0  0  0  0
   10.2861  -18.7606   26.3699 C   0  0  0  0  0  0  0  0  0  0  0  0
    9.9232  -17.3399   26.1133 C   0  0  0  0  0  0  0  0  0  0  0  0
    9.2920  -16.6113   27.2539 C   0  0  2  0  0  0  0  0  0  0  0  0
    9.0922  -15.2155   26.8470 N   0  0  0  0  0  0  0  0  0  0  0  0
   10.1309  -16.6017   28.4616 C   0  0  0  0  0  0  0  0  0  0  0  0
   10.8654  -15.4763   28.7704 O   0  0  0  0  0  0  0  0  0  0  0  0
   10.1804  -17.6020   29.2027 O   0  0  0  0  0  0  0  0  0  0  0  0
  2  3  1  0
  2  1  1  1
  4  2  1  0
  4  5  1  6
  6 12  1  0
  6  4  1  0
  7  6  2  0
  9  8  1  6
  9 11  1  0
  9 10  1  0
 11 12  1  6
 13 11  1  0
 14 13  2  0
 16 17  2  0
 16 15  1  0
 18 16  1  0
 19 18  1  0
 20 21  1  0
 20 19  1  6
 21 13  1  0
 22 20  1  0
 23 22  1  0
 24 22  2  0
M  END
$$$$
