GMW.pdb
     RDKit          3D

 27 28  0  0  1  0  0  0  0  0999 V2000
    7.8584  -12.4468   18.4400 N   0  0  0  0  0  0  0  0  0  0  0  0
    8.5429  -13.7142   18.5922 C   0  0  0  0  0  0  0  0  0  0  0  0
    8.1818  -14.2813   19.9066 C   0  0  0  0  0  0  0  0  0  0  0  0
    7.7851  -13.5446   20.8252 O   0  0  0  0  0  0  0  0  0  0  0  0
    3.1039  -17.3939   20.1779 C   0  0  0  0  0  0  0  0  0  0  0  0
    4.5770  -17.2013   21.1837 S   0  0  0  0  0  0  0  0  0  0  0  0
    6.0588  -17.8142   20.4063 C   0  0  0  0  0  0  0  0  0  0  0  0
    7.3134  -17.6947   21.1847 C   0  0  0  0  0  0  0  0  0  0  0  0
    7.9147  -16.3460   21.3201 C   0  0  2  0  0  0  0  0  0  0  0  0
    8.3026  -15.7024   20.0904 N   0  0  0  0  0  0  0  0  0  0  0  0
    9.1139  -16.3266   22.2309 C   0  0  0  0  0  0  0  0  0  0  0  0
   10.2337  -16.6703   21.7914 O   0  0  0  0  0  0  0  0  0  0  0  0
    8.9930  -15.9221   23.5888 N   0  0  0  0  0  0  0  0  0  0  0  0
   10.0799  -16.0204   24.5570 C   0  0  1  0  0  0  0  0  0  0  0  0
    9.9251  -14.8130   25.4504 C   0  0  0  0  0  0  0  0  0  0  0  0
    8.5023  -14.5562   25.8098 C   0  0  0  0  0  0  0  0  0  0  0  0
    7.5576  -15.5632   25.9671 C   0  0  0  0  0  0  0  0  0  0  0  0
    6.3902  -15.0324   26.3332 N   0  0  0  0  0  0  0  0  0  0  0  0
    6.5569  -13.7027   26.4162 C   0  0  0  0  0  0  0  0  0  0  0  0
    5.6691  -12.6710   26.7452 C   0  0  0  0  0  0  0  0  0  0  0  0
    6.1058  -11.3673   26.7418 C   0  0  0  0  0  0  0  0  0  0  0  0
    7.4102  -11.0633   26.4174 C   0  0  0  0  0  0  0  0  0  0  0  0
    8.3065  -12.0703   26.0883 C   0  0  0  0  0  0  0  0  0  0  0  0
    7.8629  -13.3795   26.0946 C   0  0  0  0  0  0  0  0  0  0  0  0
   10.1420  -17.3096   25.2163 C   0  0  0  0  0  0  0  0  0  0  0  0
   11.0673  -17.6990   25.9664 O   0  0  0  0  0  0  0  0  0  0  0  0
    9.0989  -18.2379   25.0304 O   0  0  0  0  0  0  0  0  0  0  0  0
  2  1  1  0
  2  3  1  0
  3  4  2  0
  6  7  1  0
  6  5  1  0
  9  8  1  6
  8  7  1  0
 10  3  1  0
 10  9  1  0
 11  9  1  0
 11 12  2  0
 13 11  1  0
 14 13  1  0
 14 15  1  1
 16 15  1  0
 16 17  2  0
 18 17  1  0
 19 18  1  0
 20 19  2  0
 21 20  1  0
 22 21  2  0
 22 23  1  0
 23 24  2  0
 24 19  1  0
 24 16  1  0
 25 14  1  0
 26 25  2  0
 27 25  1  0
M  END
$$$$
