GMW.pdb
     RDKit          3D

 27 28  0  0  1  0  0  0  0  0999 V2000
    6.1981  -19.8754   21.4409 N   0  0  0  0  0  0  0  0  0  0  0  0
    6.0937  -18.5435   22.0005 C   0  0  0  0  0  0  0  0  0  0  0  0
    7.3914  -17.8626   21.8217 C   0  0  0  0  0  0  0  0  0  0  0  0
    8.4087  -18.5100   21.5221 O   0  0  0  0  0  0  0  0  0  0  0  0
    8.0804  -11.4648   19.8435 C   0  0  0  0  0  0  0  0  0  0  0  0
    7.2813  -12.8749   19.0743 S   0  0  0  0  0  0  0  0  0  0  0  0
    7.4128  -14.3773   20.0237 C   0  0  0  0  0  0  0  0  0  0  0  0
    8.5311  -14.4532   20.9921 C   0  0  0  0  0  0  0  0  0  0  0  0
    8.6566  -15.6874   21.8045 C   0  0  2  0  0  0  0  0  0  0  0  0
    7.4420  -16.4371   22.0041 N   0  0  0  0  0  0  0  0  0  0  0  0
    9.2543  -15.4371   23.1640 C   0  0  0  0  0  0  0  0  0  0  0  0
    9.5790  -14.2753   23.4958 O   0  0  0  0  0  0  0  0  0  0  0  0
    9.4565  -16.5053   24.0807 N   0  0  0  0  0  0  0  0  0  0  0  0
   10.1328  -16.3467   25.3637 C   0  0  1  0  0  0  0  0  0  0  0  0
    9.0647  -16.5775   26.4058 C   0  0  0  0  0  0  0  0  0  0  0  0
    7.9019  -15.6623   26.2336 C   0  0  0  0  0  0  0  0  0  0  0  0
    6.6474  -16.0873   25.8133 C   0  0  0  0  0  0  0  0  0  0  0  0
    5.8033  -15.0550   25.7995 N   0  0  0  0  0  0  0  0  0  0  0  0
    6.4832  -13.9691   26.2012 C   0  0  0  0  0  0  0  0  0  0  0  0
    6.0954  -12.6330   26.3605 C   0  0  0  0  0  0  0  0  0  0  0  0
    7.0138  -11.7012   26.7829 C   0  0  0  0  0  0  0  0  0  0  0  0
    8.3148  -12.0675   27.0519 C   0  0  0  0  0  0  0  0  0  0  0  0
    8.7201  -13.3860   26.9008 C   0  0  0  0  0  0  0  0  0  0  0  0
    7.7926  -14.3194   26.4771 C   0  0  0  0  0  0  0  0  0  0  0  0
   11.3336  -17.1501   25.4789 C   0  0  0  0  0  0  0  0  0  0  0  0
   12.1300  -17.1329   26.4463 O   0  0  0  0  0  0  0  0  0  0  0  0
   11.6778  -18.0406   24.4431 O   0  0  0  0  0  0  0  0  0  0  0  0
  2  1  1  0
  2  3  1  0
  3  4  2  0
  6  7  1  0
  6  5  1  0
  9  8  1  1
  8  7  1  0
 10  3  1  0
 10  9  1  0
 11  9  1  0
 11 12  2  0
 13 11  1  0
 14 13  1  0
 14 15  1  1
 16 15  1  0
 16 17  2  0
 18 17  1  0
 19 18  1  0
 20 19  2  0
 21 20  1  0
 22 21  2  0
 22 23  1  0
 23 24  2  0
 24 19  1  0
 24 16  1  0
 25 14  1  0
 26 25  2  0
 27 25  1  0
M  END
$$$$
