GMW.pdb
     RDKit          3D

 27 28  0  0  1  0  0  0  0  0999 V2000
   12.8679  -17.4040   18.5976 N   0  0  0  0  0  0  0  0  0  0  0  0
   12.0006  -18.0422   19.5663 C   0  0  0  0  0  0  0  0  0  0  0  0
   11.6273  -17.0410   20.5850 C   0  0  0  0  0  0  0  0  0  0  0  0
   12.5018  -16.3921   21.1834 O   0  0  0  0  0  0  0  0  0  0  0  0
    7.0271  -12.0410   19.0111 C   0  0  0  0  0  0  0  0  0  0  0  0
    6.9098  -13.4189   20.1541 S   0  0  0  0  0  0  0  0  0  0  0  0
    8.4693  -14.2218   20.4688 C   0  0  0  0  0  0  0  0  0  0  0  0
    8.4919  -15.2191   21.5637 C   0  0  0  0  0  0  0  0  0  0  0  0
    9.7792  -15.8964   21.8525 C   0  0  2  0  0  0  0  0  0  0  0  0
   10.2305  -16.8413   20.8623 N   0  0  0  0  0  0  0  0  0  0  0  0
    9.7840  -16.6062   23.1808 C   0  0  0  0  0  0  0  0  0  0  0  0
    9.7194  -17.8551   23.2183 O   0  0  0  0  0  0  0  0  0  0  0  0
    9.8610  -15.8760   24.3986 N   0  0  0  0  0  0  0  0  0  0  0  0
    9.8847  -16.5065   25.7141 C   0  0  1  0  0  0  0  0  0  0  0  0
    9.6175  -15.3890   26.6938 C   0  0  0  0  0  0  0  0  0  0  0  0
    8.2392  -14.8396   26.5602 C   0  0  0  0  0  0  0  0  0  0  0  0
    7.1145  -15.6311   26.3603 C   0  0  0  0  0  0  0  0  0  0  0  0
    6.0241  -14.8640   26.3271 N   0  0  0  0  0  0  0  0  0  0  0  0
    6.4169  -13.5919   26.5007 C   0  0  0  0  0  0  0  0  0  0  0  0
    5.6970  -12.3916   26.5418 C   0  0  0  0  0  0  0  0  0  0  0  0
    6.3621  -11.2023   26.7242 C   0  0  0  0  0  0  0  0  0  0  0  0
    7.7325  -11.1775   26.8673 C   0  0  0  0  0  0  0  0  0  0  0  0
    8.4653  -12.3553   26.8299 C   0  0  0  0  0  0  0  0  0  0  0  0
    7.7918  -13.5486   26.6476 C   0  0  0  0  0  0  0  0  0  0  0  0
    9.0225  -17.6677   25.8060 C   0  0  0  0  0  0  0  0  0  0  0  0
    8.0317  -17.8977   25.0739 O   0  0  0  0  0  0  0  0  0  0  0  0
    9.2778  -18.6490   26.7839 O   0  0  0  0  0  0  0  0  0  0  0  0
  2  1  1  0
  2  3  1  0
  3  4  2  0
  6  7  1  0
  6  5  1  0
  9  8  1  6
  8  7  1  0
 10  3  1  0
 10  9  1  0
 11  9  1  0
 11 12  2  0
 13 11  1  0
 14 13  1  0
 14 15  1  1
 16 15  1  0
 16 17  2  0
 18 17  1  0
 19 18  1  0
 20 19  2  0
 21 20  1  0
 22 21  2  0
 22 23  1  0
 23 24  2  0
 24 19  1  0
 24 16  1  0
 25 14  1  0
 26 25  2  0
 27 25  1  0
M  END
$$$$
