GMW.pdb
     RDKit          3D

 27 28  0  0  1  0  0  0  0  0999 V2000
    6.7544  -20.2439   20.9908 N   0  0  0  0  0  0  0  0  0  0  0  0
    6.7426  -19.1783   21.9718 C   0  0  0  0  0  0  0  0  0  0  0  0
    7.8722  -18.2720   21.6855 C   0  0  0  0  0  0  0  0  0  0  0  0
    8.9066  -18.7018   21.1477 O   0  0  0  0  0  0  0  0  0  0  0  0
    7.4249  -11.6565   20.4384 C   0  0  0  0  0  0  0  0  0  0  0  0
    6.8809  -13.1037   19.5283 S   0  0  0  0  0  0  0  0  0  0  0  0
    7.2504  -14.6434   20.3461 C   0  0  0  0  0  0  0  0  0  0  0  0
    8.4501  -14.6610   21.2147 C   0  0  0  0  0  0  0  0  0  0  0  0
    8.8161  -15.9457   21.8584 C   0  0  2  0  0  0  0  0  0  0  0  0
    7.7402  -16.8861   22.0457 N   0  0  0  0  0  0  0  0  0  0  0  0
    9.4860  -15.7629   23.1948 C   0  0  0  0  0  0  0  0  0  0  0  0
   10.2851  -14.8154   23.3650 O   0  0  0  0  0  0  0  0  0  0  0  0
    9.2234  -16.6543   24.2712 N   0  0  0  0  0  0  0  0  0  0  0  0
    9.8989  -16.5773   25.5621 C   0  0  1  0  0  0  0  0  0  0  0  0
    8.7915  -16.5625   26.5885 C   0  0  0  0  0  0  0  0  0  0  0  0
    7.7229  -15.5809   26.2509 C   0  0  0  0  0  0  0  0  0  0  0  0
    6.4912  -15.9415   25.7178 C   0  0  0  0  0  0  0  0  0  0  0  0
    5.7308  -14.8565   25.5665 N   0  0  0  0  0  0  0  0  0  0  0  0
    6.4427  -13.7995   25.9892 C   0  0  0  0  0  0  0  0  0  0  0  0
    6.1391  -12.4337   26.0451 C   0  0  0  0  0  0  0  0  0  0  0  0
    7.0741  -11.5452   26.5210 C   0  0  0  0  0  0  0  0  0  0  0  0
    8.3098  -11.9842   26.9447 C   0  0  0  0  0  0  0  0  0  0  0  0
    8.6313  -13.3333   26.8981 C   0  0  0  0  0  0  0  0  0  0  0  0
    7.6872  -14.2227   26.4200 C   0  0  0  0  0  0  0  0  0  0  0  0
   10.9241  -17.5877   25.7309 C   0  0  0  0  0  0  0  0  0  0  0  0
   11.1146  -18.5647   24.9696 O   0  0  0  0  0  0  0  0  0  0  0  0
   11.8057  -17.5091   26.8268 O   0  0  0  0  0  0  0  0  0  0  0  0
  2  1  1  0
  2  3  1  0
  3  4  2  0
  6  7  1  0
  6  5  1  0
  9  8  1  1
  8  7  1  0
 10  3  1  0
 10  9  1  0
 11  9  1  0
 11 12  2  0
 13 11  1  0
 14 13  1  0
 14 15  1  1
 16 15  1  0
 16 17  2  0
 18 17  1  0
 19 18  1  0
 20 19  2  0
 21 20  1  0
 22 21  2  0
 22 23  1  0
 23 24  2  0
 24 19  1  0
 24 16  1  0
 25 14  1  0
 26 25  2  0
 27 25  1  0
M  END
$$$$
