GMW.pdb
     RDKit          3D

 27 28  0  0  1  0  0  0  0  0999 V2000
    8.7672  -19.7581   19.1835 N   0  0  0  0  0  0  0  0  0  0  0  0
    8.2579  -19.3857   20.4873 C   0  0  0  0  0  0  0  0  0  0  0  0
    8.6263  -17.9794   20.7447 C   0  0  0  0  0  0  0  0  0  0  0  0
    9.8165  -17.6549   20.8924 O   0  0  0  0  0  0  0  0  0  0  0  0
    9.7950  -12.4281   19.7810 C   0  0  0  0  0  0  0  0  0  0  0  0
    8.0156  -12.4850   19.5589 S   0  0  0  0  0  0  0  0  0  0  0  0
    7.1463  -13.2130   20.9337 C   0  0  0  0  0  0  0  0  0  0  0  0
    6.7996  -14.6480   20.8134 C   0  0  0  0  0  0  0  0  0  0  0  0
    7.8252  -15.6408   21.2151 C   0  0  2  0  0  0  0  0  0  0  0  0
    7.5729  -17.0033   20.8191 N   0  0  0  0  0  0  0  0  0  0  0  0
    8.0853  -15.6487   22.6985 C   0  0  0  0  0  0  0  0  0  0  0  0
    7.2736  -15.0974   23.4747 O   0  0  0  0  0  0  0  0  0  0  0  0
    9.2443  -16.2756   23.2333 N   0  0  0  0  0  0  0  0  0  0  0  0
    9.9286  -15.8097   24.4346 C   0  0  1  0  0  0  0  0  0  0  0  0
    9.0401  -16.2248   25.5828 C   0  0  0  0  0  0  0  0  0  0  0  0
    7.8061  -15.3946   25.6696 C   0  0  0  0  0  0  0  0  0  0  0  0
    6.5275  -15.8975   25.4611 C   0  0  0  0  0  0  0  0  0  0  0  0
    5.6272  -14.9324   25.6521 N   0  0  0  0  0  0  0  0  0  0  0  0
    6.2941  -13.8139   25.9793 C   0  0  0  0  0  0  0  0  0  0  0  0
    5.8525  -12.5181   26.2735 C   0  0  0  0  0  0  0  0  0  0  0  0
    6.7675  -11.5358   26.5703 C   0  0  0  0  0  0  0  0  0  0  0  0
    8.1175  -11.8122   26.5816 C   0  0  0  0  0  0  0  0  0  0  0  0
    8.5766  -13.0896   26.2932 C   0  0  0  0  0  0  0  0  0  0  0  0
    7.6526  -14.0741   25.9967 C   0  0  0  0  0  0  0  0  0  0  0  0
   11.3134  -16.2318   24.5026 C   0  0  0  0  0  0  0  0  0  0  0  0
   11.8804  -16.9995   23.6904 O   0  0  0  0  0  0  0  0  0  0  0  0
   12.1323  -15.7676   25.5506 O   0  0  0  0  0  0  0  0  0  0  0  0
  2  1  1  0
  2  3  1  0
  3  4  2  0
  6  7  1  0
  6  5  1  0
  9  8  1  1
  8  7  1  0
 10  3  1  0
 10  9  1  0
 11  9  1  0
 11 12  2  0
 13 11  1  0
 14 13  1  0
 14 15  1  1
 16 15  1  0
 16 17  2  0
 18 17  1  0
 19 18  1  0
 20 19  2  0
 21 20  1  0
 22 21  2  0
 22 23  1  0
 23 24  2  0
 24 19  1  0
 24 16  1  0
 25 14  1  0
 26 25  2  0
 27 25  1  0
M  END
$$$$
