GMW.pdb
     RDKit          3D

 27 28  0  0  1  0  0  0  0  0999 V2000
    8.1385  -19.1775   18.6322 N   0  0  0  0  0  0  0  0  0  0  0  0
    7.7056  -18.7468   19.9456 C   0  0  0  0  0  0  0  0  0  0  0  0
    8.4166  -17.4974   20.2817 C   0  0  0  0  0  0  0  0  0  0  0  0
    9.2667  -17.0263   19.5075 O   0  0  0  0  0  0  0  0  0  0  0  0
    6.3680  -12.9284   25.9045 C   0  0  0  0  0  0  0  0  0  0  0  0
    7.1551  -12.8668   24.2935 S   0  0  0  0  0  0  0  0  0  0  0  0
    7.0250  -14.3886   23.3754 C   0  0  0  0  0  0  0  0  0  0  0  0
    7.7709  -14.4573   22.0975 C   0  0  0  0  0  0  0  0  0  0  0  0
    8.7024  -15.5948   21.9036 C   0  0  2  0  0  0  0  0  0  0  0  0
    8.0981  -16.8468   21.5239 N   0  0  0  0  0  0  0  0  0  0  0  0
    9.5614  -15.8626   23.1113 C   0  0  0  0  0  0  0  0  0  0  0  0
   10.4706  -15.0596   23.4176 O   0  0  0  0  0  0  0  0  0  0  0  0
    9.3546  -17.0190   23.9125 N   0  0  0  0  0  0  0  0  0  0  0  0
   10.2384  -17.4081   25.0062 C   0  0  1  0  0  0  0  0  0  0  0  0
    9.3486  -17.4930   26.2233 C   0  0  0  0  0  0  0  0  0  0  0  0
    8.7470  -16.1763   26.5749 C   0  0  0  0  0  0  0  0  0  0  0  0
    7.3985  -15.8820   26.4135 C   0  0  0  0  0  0  0  0  0  0  0  0
    7.1503  -14.6489   26.8566 N   0  0  0  0  0  0  0  0  0  0  0  0
    8.3089  -14.1364   27.3015 C   0  0  0  0  0  0  0  0  0  0  0  0
    8.6245  -12.8901   27.8561 C   0  0  0  0  0  0  0  0  0  0  0  0
    9.9206  -12.6143   28.2229 C   0  0  0  0  0  0  0  0  0  0  0  0
   10.9151  -13.5525   28.0505 C   0  0  0  0  0  0  0  0  0  0  0  0
   10.6242  -14.7940   27.5029 C   0  0  0  0  0  0  0  0  0  0  0  0
    9.3193  -15.0668   27.1370 C   0  0  0  0  0  0  0  0  0  0  0  0
   11.0370  -18.5795   24.7055 C   0  0  0  0  0  0  0  0  0  0  0  0
   10.9785  -19.2474   23.6467 O   0  0  0  0  0  0  0  0  0  0  0  0
   11.9720  -19.0462   25.6502 O   0  0  0  0  0  0  0  0  0  0  0  0
  2  1  1  0
  2  3  1  0
  3  4  2  0
  6  7  1  0
  6  5  1  0
  9  8  1  1
  8  7  1  0
 10  3  1  0
 10  9  1  0
 11  9  1  0
 11 12  2  0
 13 11  1  0
 14 13  1  0
 14 15  1  1
 16 15  1  0
 16 17  2  0
 18 17  1  0
 19 18  1  0
 20 19  2  0
 21 20  1  0
 22 21  2  0
 22 23  1  0
 23 24  2  0
 24 19  1  0
 24 16  1  0
 25 14  1  0
 26 25  2  0
 27 25  1  0
M  END
$$$$
