GMW.pdb
     RDKit          3D

 27 28  0  0  1  0  0  0  0  0999 V2000
   10.5976  -18.1825   17.6536 N   0  0  0  0  0  0  0  0  0  0  0  0
   10.3498  -18.8126   18.9340 C   0  0  0  0  0  0  0  0  0  0  0  0
   10.2401  -17.7548   19.9579 C   0  0  0  0  0  0  0  0  0  0  0  0
   11.2517  -17.1523   20.3548 O   0  0  0  0  0  0  0  0  0  0  0  0
    8.1706  -12.3643   20.5598 C   0  0  0  0  0  0  0  0  0  0  0  0
    8.0415  -13.8329   19.5376 S   0  0  0  0  0  0  0  0  0  0  0  0
    6.9344  -15.0657   20.1936 C   0  0  0  0  0  0  0  0  0  0  0  0
    7.3755  -15.7658   21.4221 C   0  0  0  0  0  0  0  0  0  0  0  0
    8.7277  -16.3745   21.4207 C   0  0  2  0  0  0  0  0  0  0  0  0
    8.9360  -17.4453   20.4789 N   0  0  0  0  0  0  0  0  0  0  0  0
    9.1430  -16.8853   22.7752 C   0  0  0  0  0  0  0  0  0  0  0  0
    9.2595  -18.1162   22.9664 O   0  0  0  0  0  0  0  0  0  0  0  0
    9.4059  -15.9864   23.8454 N   0  0  0  0  0  0  0  0  0  0  0  0
    9.9267  -16.4091   25.1410 C   0  0  1  0  0  0  0  0  0  0  0  0
    9.8102  -15.1942   26.0302 C   0  0  0  0  0  0  0  0  0  0  0  0
    8.3972  -14.7545   26.2018 C   0  0  0  0  0  0  0  0  0  0  0  0
    7.3211  -15.6327   26.2471 C   0  0  0  0  0  0  0  0  0  0  0  0
    6.1930  -14.9526   26.4552 N   0  0  0  0  0  0  0  0  0  0  0  0
    6.5138  -13.6519   26.5453 C   0  0  0  0  0  0  0  0  0  0  0  0
    5.7285  -12.5103   26.7475 C   0  0  0  0  0  0  0  0  0  0  0  0
    6.3226  -11.2710   26.7867 C   0  0  0  0  0  0  0  0  0  0  0  0
    7.6852  -11.1389   26.6290 C   0  0  0  0  0  0  0  0  0  0  0  0
    8.4820  -12.2570   26.4277 C   0  0  0  0  0  0  0  0  0  0  0  0
    7.8801  -13.5009   26.3904 C   0  0  0  0  0  0  0  0  0  0  0  0
    9.3178  -17.6299   25.6302 C   0  0  0  0  0  0  0  0  0  0  0  0
    8.1969  -18.0721   25.2860 O   0  0  0  0  0  0  0  0  0  0  0  0
   10.0036  -18.4210   26.5726 O   0  0  0  0  0  0  0  0  0  0  0  0
  2  1  1  0
  2  3  1  0
  3  4  2  0
  6  7  1  0
  6  5  1  0
  9  8  1  1
  8  7  1  0
 10  3  1  0
 10  9  1  0
 11  9  1  0
 11 12  2  0
 13 11  1  0
 14 13  1  0
 14 15  1  1
 16 15  1  0
 16 17  2  0
 18 17  1  0
 19 18  1  0
 20 19  2  0
 21 20  1  0
 22 21  2  0
 22 23  1  0
 23 24  2  0
 24 19  1  0
 24 16  1  0
 25 14  1  0
 26 25  2  0
 27 25  1  0
M  END
$$$$
