GMW.pdb
     RDKit          3D

 27 28  0  0  1  0  0  0  0  0999 V2000
    5.8002  -20.6133   21.4314 N   0  0  0  0  0  0  0  0  0  0  0  0
    5.9917  -19.5238   22.3663 C   0  0  0  0  0  0  0  0  0  0  0  0
    7.1073  -18.6872   21.8813 C   0  0  0  0  0  0  0  0  0  0  0  0
    8.2082  -19.1964   21.6120 O   0  0  0  0  0  0  0  0  0  0  0  0
    6.7709  -11.7695   20.4675 C   0  0  0  0  0  0  0  0  0  0  0  0
    7.7322  -12.7085   19.2789 S   0  0  0  0  0  0  0  0  0  0  0  0
    8.3598  -14.2472   19.9227 C   0  0  0  0  0  0  0  0  0  0  0  0
    7.3954  -15.1026   20.6522 C   0  0  0  0  0  0  0  0  0  0  0  0
    7.8853  -16.3998   21.1780 C   0  0  2  0  0  0  0  0  0  0  0  0
    6.8829  -17.2748   21.7316 N   0  0  0  0  0  0  0  0  0  0  0  0
    8.9631  -16.2424   22.2180 C   0  0  0  0  0  0  0  0  0  0  0  0
   10.0390  -15.6789   21.9177 O   0  0  0  0  0  0  0  0  0  0  0  0
    8.7764  -16.7264   23.5421 N   0  0  0  0  0  0  0  0  0  0  0  0
    9.7659  -16.5693   24.6027 C   0  0  1  0  0  0  0  0  0  0  0  0
    9.6534  -15.1282   25.0391 C   0  0  0  0  0  0  0  0  0  0  0  0
    8.2825  -14.7879   25.5128 C   0  0  0  0  0  0  0  0  0  0  0  0
    7.2430  -15.7080   25.5765 C   0  0  0  0  0  0  0  0  0  0  0  0
    6.1555  -15.1245   26.0818 N   0  0  0  0  0  0  0  0  0  0  0  0
    6.4666  -13.8456   26.3467 C   0  0  0  0  0  0  0  0  0  0  0  0
    5.7088  -12.7917   26.8719 C   0  0  0  0  0  0  0  0  0  0  0  0
    6.2818  -11.5522   27.0322 C   0  0  0  0  0  0  0  0  0  0  0  0
    7.5964  -11.3343   26.6811 C   0  0  0  0  0  0  0  0  0  0  0  0
    8.3654  -12.3648   26.1589 C   0  0  0  0  0  0  0  0  0  0  0  0
    7.7851  -13.6095   26.0010 C   0  0  0  0  0  0  0  0  0  0  0  0
    9.6511  -17.5715   25.6433 C   0  0  0  0  0  0  0  0  0  0  0  0
    8.7234  -18.4074   25.7487 O   0  0  0  0  0  0  0  0  0  0  0  0
   10.6399  -17.6536   26.6433 O   0  0  0  0  0  0  0  0  0  0  0  0
  2  1  1  0
  2  3  1  0
  3  4  2  0
  6  7  1  0
  6  5  1  0
  9  8  1  1
  8  7  1  0
 10  3  1  0
 10  9  1  0
 11  9  1  0
 11 12  2  0
 13 11  1  0
 14 13  1  0
 14 15  1  1
 16 15  1  0
 16 17  2  0
 18 17  1  0
 19 18  1  0
 20 19  2  0
 21 20  1  0
 22 21  2  0
 22 23  1  0
 23 24  2  0
 24 19  1  0
 24 16  1  0
 25 14  1  0
 26 25  2  0
 27 25  1  0
M  END
$$$$
