GMW.pdb
     RDKit          3D

 27 28  0  0  1  0  0  0  0  0999 V2000
    6.7380  -21.0641   22.1791 N   0  0  0  0  0  0  0  0  0  0  0  0
    6.3719  -19.8106   22.8057 C   0  0  0  0  0  0  0  0  0  0  0  0
    7.1658  -18.7322   22.1841 C   0  0  0  0  0  0  0  0  0  0  0  0
    8.1010  -19.0011   21.4114 O   0  0  0  0  0  0  0  0  0  0  0  0
    8.0404  -11.2719   20.1775 C   0  0  0  0  0  0  0  0  0  0  0  0
    7.7503  -12.6036   21.3442 S   0  0  0  0  0  0  0  0  0  0  0  0
    7.0501  -14.0647   20.6021 C   0  0  0  0  0  0  0  0  0  0  0  0
    6.5503  -15.1049   21.5306 C   0  0  0  0  0  0  0  0  0  0  0  0
    7.4381  -16.2578   21.8164 C   0  0  2  0  0  0  0  0  0  0  0  0
    6.8266  -17.3706   22.4981 N   0  0  0  0  0  0  0  0  0  0  0  0
    8.6647  -15.8737   22.6013 C   0  0  0  0  0  0  0  0  0  0  0  0
    9.5011  -15.0884   22.1023 O   0  0  0  0  0  0  0  0  0  0  0  0
    8.8883  -16.3921   23.9064 N   0  0  0  0  0  0  0  0  0  0  0  0
   10.1197  -16.1742   24.6581 C   0  0  1  0  0  0  0  0  0  0  0  0
    9.6725  -15.7892   26.0480 C   0  0  0  0  0  0  0  0  0  0  0  0
    8.2897  -15.2350   26.0622 C   0  0  0  0  0  0  0  0  0  0  0  0
    7.1478  -16.0208   25.9639 C   0  0  0  0  0  0  0  0  0  0  0  0
    6.0624  -15.2511   26.0524 N   0  0  0  0  0  0  0  0  0  0  0  0
    6.4753  -13.9827   26.2054 C   0  0  0  0  0  0  0  0  0  0  0  0
    5.7675  -12.7817   26.3372 C   0  0  0  0  0  0  0  0  0  0  0  0
    6.4520  -11.5967   26.4703 C   0  0  0  0  0  0  0  0  0  0  0  0
    7.8299  -11.5771   26.4755 C   0  0  0  0  0  0  0  0  0  0  0  0
    8.5509  -12.7557   26.3463 C   0  0  0  0  0  0  0  0  0  0  0  0
    7.8581  -13.9446   26.2141 C   0  0  0  0  0  0  0  0  0  0  0  0
   11.0508  -17.2806   24.5611 C   0  0  0  0  0  0  0  0  0  0  0  0
   10.7843  -18.4177   24.1066 O   0  0  0  0  0  0  0  0  0  0  0  0
   12.3785  -17.1140   25.0013 O   0  0  0  0  0  0  0  0  0  0  0  0
  2  1  1  0
  2  3  1  0
  3  4  2  0
  6  7  1  0
  6  5  1  0
  9  8  1  1
  8  7  1  0
 10  3  1  0
 10  9  1  0
 11  9  1  0
 11 12  2  0
 13 11  1  0
 14 13  1  0
 14 15  1  1
 16 15  1  0
 16 17  2  0
 18 17  1  0
 19 18  1  0
 20 19  2  0
 21 20  1  0
 22 21  2  0
 22 23  1  0
 23 24  2  0
 24 19  1  0
 24 16  1  0
 25 14  1  0
 26 25  2  0
 27 25  1  0
M  END
$$$$
