GMW.pdb
     RDKit          3D

 27 28  0  0  1  0  0  0  0  0999 V2000
    9.2209  -19.9684   19.8056 N   0  0  0  0  0  0  0  0  0  0  0  0
    8.4835  -19.2238   20.8055 C   0  0  0  0  0  0  0  0  0  0  0  0
    9.1494  -17.9203   20.9976 C   0  0  0  0  0  0  0  0  0  0  0  0
   10.2289  -17.6731   20.4341 O   0  0  0  0  0  0  0  0  0  0  0  0
    8.3451  -11.9332   19.5696 C   0  0  0  0  0  0  0  0  0  0  0  0
    6.9533  -13.0653   19.5757 S   0  0  0  0  0  0  0  0  0  0  0  0
    7.2891  -14.6071   20.4038 C   0  0  0  0  0  0  0  0  0  0  0  0
    8.0414  -14.5250   21.6771 C   0  0  0  0  0  0  0  0  0  0  0  0
    9.0130  -15.6052   21.9744 C   0  0  2  0  0  0  0  0  0  0  0  0
    8.5155  -16.9521   21.8512 N   0  0  0  0  0  0  0  0  0  0  0  0
    9.6285  -15.4808   23.3432 C   0  0  0  0  0  0  0  0  0  0  0  0
   10.3267  -14.4808   23.6222 O   0  0  0  0  0  0  0  0  0  0  0  0
    9.4279  -16.4867   24.3282 N   0  0  0  0  0  0  0  0  0  0  0  0
   10.0350  -16.4462   25.6542 C   0  0  1  0  0  0  0  0  0  0  0  0
    8.8817  -16.5634   26.6217 C   0  0  0  0  0  0  0  0  0  0  0  0
    7.7717  -15.6260   26.2921 C   0  0  0  0  0  0  0  0  0  0  0  0
    6.5303  -16.0416   25.8258 C   0  0  0  0  0  0  0  0  0  0  0  0
    5.7327  -14.9849   25.6651 N   0  0  0  0  0  0  0  0  0  0  0  0
    6.4300  -13.8926   26.0165 C   0  0  0  0  0  0  0  0  0  0  0  0
    6.0889  -12.5346   26.0326 C   0  0  0  0  0  0  0  0  0  0  0  0
    7.0162  -11.6024   26.4341 C   0  0  0  0  0  0  0  0  0  0  0  0
    8.2806  -11.9897   26.8218 C   0  0  0  0  0  0  0  0  0  0  0  0
    8.6395  -13.3302   26.8135 C   0  0  0  0  0  0  0  0  0  0  0  0
    7.7031  -14.2638   26.4102 C   0  0  0  0  0  0  0  0  0  0  0  0
   11.1152  -17.3987   25.8166 C   0  0  0  0  0  0  0  0  0  0  0  0
   11.4497  -18.2688   24.9790 O   0  0  0  0  0  0  0  0  0  0  0  0
   11.8835  -17.3858   26.9973 O   0  0  0  0  0  0  0  0  0  0  0  0
  2  1  1  0
  2  3  1  0
  3  4  2  0
  6  7  1  0
  6  5  1  0
  9  8  1  1
  8  7  1  0
 10  3  1  0
 10  9  1  0
 11  9  1  0
 11 12  2  0
 13 11  1  0
 14 13  1  0
 14 15  1  1
 16 15  1  0
 16 17  2  0
 18 17  1  0
 19 18  1  0
 20 19  2  0
 21 20  1  0
 22 21  2  0
 22 23  1  0
 23 24  2  0
 24 19  1  0
 24 16  1  0
 25 14  1  0
 26 25  2  0
 27 25  1  0
M  END
$$$$
