GMW.pdb
     RDKit          3D

 27 28  0  0  1  0  0  0  0  0999 V2000
    7.3847  -19.7675   19.9062 N   0  0  0  0  0  0  0  0  0  0  0  0
    7.1497  -18.8618   21.0117 C   0  0  0  0  0  0  0  0  0  0  0  0
    8.2416  -17.8686   21.0377 C   0  0  0  0  0  0  0  0  0  0  0  0
    9.2625  -18.0338   20.3489 O   0  0  0  0  0  0  0  0  0  0  0  0
    6.7816  -12.3291   18.1300 C   0  0  0  0  0  0  0  0  0  0  0  0
    7.6963  -12.4550   19.6682 S   0  0  0  0  0  0  0  0  0  0  0  0
    7.8644  -14.1256   20.2655 C   0  0  0  0  0  0  0  0  0  0  0  0
    8.5589  -14.2987   21.5624 C   0  0  0  0  0  0  0  0  0  0  0  0
    9.0648  -15.6517   21.8979 C   0  0  2  0  0  0  0  0  0  0  0  0
    8.0892  -16.7122   21.8788 N   0  0  0  0  0  0  0  0  0  0  0  0
    9.7552  -15.7052   23.2353 C   0  0  0  0  0  0  0  0  0  0  0  0
   10.7808  -15.0167   23.4332 O   0  0  0  0  0  0  0  0  0  0  0  0
    9.2576  -16.5300   24.2814 N   0  0  0  0  0  0  0  0  0  0  0  0
    9.9108  -16.6648   25.5790 C   0  0  1  0  0  0  0  0  0  0  0  0
    8.7867  -16.7023   26.5865 C   0  0  0  0  0  0  0  0  0  0  0  0
    7.7185  -15.7113   26.2766 C   0  0  0  0  0  0  0  0  0  0  0  0
    6.4587  -16.0635   25.8072 C   0  0  0  0  0  0  0  0  0  0  0  0
    5.7083  -14.9700   25.6673 N   0  0  0  0  0  0  0  0  0  0  0  0
    6.4540  -13.9158   26.0351 C   0  0  0  0  0  0  0  0  0  0  0  0
    6.1734  -12.5446   26.0756 C   0  0  0  0  0  0  0  0  0  0  0  0
    7.1420  -11.6613   26.4901 C   0  0  0  0  0  0  0  0  0  0  0  0
    8.3890  -12.1107   26.8670 C   0  0  0  0  0  0  0  0  0  0  0  0
    8.6881  -13.4654   26.8345 C   0  0  0  0  0  0  0  0  0  0  0  0
    7.7104  -14.3496   26.4183 C   0  0  0  0  0  0  0  0  0  0  0  0
   10.8611  -17.7579   25.6287 C   0  0  0  0  0  0  0  0  0  0  0  0
   11.0486  -18.6004   24.7201 O   0  0  0  0  0  0  0  0  0  0  0  0
   11.6650  -17.9304   26.7725 O   0  0  0  0  0  0  0  0  0  0  0  0
  2  1  1  0
  2  3  1  0
  3  4  2  0
  6  7  1  0
  6  5  1  0
  9  8  1  1
  8  7  1  0
 10  3  1  0
 10  9  1  0
 11  9  1  0
 11 12  2  0
 13 11  1  0
 14 13  1  0
 14 15  1  1
 16 15  1  0
 16 17  2  0
 18 17  1  0
 19 18  1  0
 20 19  2  0
 21 20  1  0
 22 21  2  0
 22 23  1  0
 23 24  2  0
 24 19  1  0
 24 16  1  0
 25 14  1  0
 26 25  2  0
 27 25  1  0
M  END
$$$$
