GMW.pdb
     RDKit          3D

 27 28  0  0  1  0  0  0  0  0999 V2000
    8.2269  -16.4402   18.0209 N   0  0  0  0  0  0  0  0  0  0  0  0
    8.0579  -17.0982   19.3000 C   0  0  0  0  0  0  0  0  0  0  0  0
    8.6249  -16.2268   20.3482 C   0  0  0  0  0  0  0  0  0  0  0  0
    9.7050  -15.6403   20.1662 O   0  0  0  0  0  0  0  0  0  0  0  0
    7.3837  -12.1790   27.0337 C   0  0  0  0  0  0  0  0  0  0  0  0
    6.7898  -13.5616   26.0569 S   0  0  0  0  0  0  0  0  0  0  0  0
    7.9950  -14.1947   24.9069 C   0  0  0  0  0  0  0  0  0  0  0  0
    7.4673  -14.8404   23.6827 C   0  0  0  0  0  0  0  0  0  0  0  0
    8.4484  -15.3843   22.7128 C   0  0  2  0  0  0  0  0  0  0  0  0
    7.8945  -16.0788   21.5780 N   0  0  0  0  0  0  0  0  0  0  0  0
    9.4557  -16.3046   23.3504 C   0  0  0  0  0  0  0  0  0  0  0  0
    9.1032  -17.4423   23.7332 O   0  0  0  0  0  0  0  0  0  0  0  0
   10.8074  -15.8988   23.5251 N   0  0  0  0  0  0  0  0  0  0  0  0
   11.8353  -16.7553   24.1070 C   0  0  1  0  0  0  0  0  0  0  0  0
   12.2379  -16.0735   25.3927 C   0  0  0  0  0  0  0  0  0  0  0  0
   11.1772  -16.1637   26.4349 C   0  0  0  0  0  0  0  0  0  0  0  0
   10.2987  -17.2349   26.5439 C   0  0  0  0  0  0  0  0  0  0  0  0
    9.4982  -17.0557   27.5954 N   0  0  0  0  0  0  0  0  0  0  0  0
    9.8378  -15.8910   28.1706 C   0  0  0  0  0  0  0  0  0  0  0  0
    9.3253  -15.2186   29.2868 C   0  0  0  0  0  0  0  0  0  0  0  0
    9.8606  -14.0085   29.6602 C   0  0  0  0  0  0  0  0  0  0  0  0
   10.8981  -13.4482   28.9470 C   0  0  0  0  0  0  0  0  0  0  0  0
   11.4211  -14.0978   27.8378 C   0  0  0  0  0  0  0  0  0  0  0  0
   10.8803  -15.3148   27.4672 C   0  0  0  0  0  0  0  0  0  0  0  0
   11.4307  -18.1432   24.2096 C   0  0  0  0  0  0  0  0  0  0  0  0
   12.1820  -19.0991   24.5136 O   0  0  0  0  0  0  0  0  0  0  0  0
   10.0914  -18.4988   23.9564 O   0  0  0  0  0  0  0  0  0  0  0  0
  2  1  1  0
  2  3  1  0
  3  4  2  0
  6  7  1  0
  6  5  1  0
  9  8  1  1
  8  7  1  0
 10  3  1  0
 10  9  1  0
 11  9  1  0
 11 12  2  0
 13 11  1  0
 14 13  1  0
 14 15  1  1
 16 15  1  0
 16 17  2  0
 18 17  1  0
 19 18  1  0
 20 19  2  0
 21 20  1  0
 22 21  2  0
 22 23  1  0
 23 24  2  0
 24 19  1  0
 24 16  1  0
 25 14  1  0
 26 25  2  0
 27 25  1  0
M  END
$$$$
