GMW.pdb
     RDKit          3D

 27 28  0  0  1  0  0  0  0  0999 V2000
    7.0657  -12.7189   18.9765 N   0  0  0  0  0  0  0  0  0  0  0  0
    8.2968  -13.1374   19.6146 C   0  0  0  0  0  0  0  0  0  0  0  0
    7.9922  -14.2685   20.5130 C   0  0  0  0  0  0  0  0  0  0  0  0
    6.8155  -14.5583   20.7875 O   0  0  0  0  0  0  0  0  0  0  0  0
    8.5530  -19.2961   17.2886 C   0  0  0  0  0  0  0  0  0  0  0  0
    9.0472  -19.2221   19.0117 S   0  0  0  0  0  0  0  0  0  0  0  0
    8.6936  -17.6587   19.7905 C   0  0  0  0  0  0  0  0  0  0  0  0
    9.1583  -17.4942   21.1873 C   0  0  0  0  0  0  0  0  0  0  0  0
    8.8833  -16.2002   21.8573 C   0  0  2  0  0  0  0  0  0  0  0  0
    9.0911  -15.0195   21.0574 N   0  0  0  0  0  0  0  0  0  0  0  0
    9.6675  -16.0199   23.1303 C   0  0  0  0  0  0  0  0  0  0  0  0
   10.7984  -15.4859   23.0932 O   0  0  0  0  0  0  0  0  0  0  0  0
    9.1406  -16.4490   24.3795 N   0  0  0  0  0  0  0  0  0  0  0  0
    9.8820  -16.3729   25.6337 C   0  0  1  0  0  0  0  0  0  0  0  0
    8.8401  -16.1096   26.6944 C   0  0  0  0  0  0  0  0  0  0  0  0
    7.7693  -15.1904   26.2171 C   0  0  0  0  0  0  0  0  0  0  0  0
    6.5943  -15.6279   25.6178 C   0  0  0  0  0  0  0  0  0  0  0  0
    5.8130  -14.5829   25.3422 N   0  0  0  0  0  0  0  0  0  0  0  0
    6.4560  -13.4766   25.7492 C   0  0  0  0  0  0  0  0  0  0  0  0
    6.1050  -12.1221   25.6962 C   0  0  0  0  0  0  0  0  0  0  0  0
    6.9717  -11.1725   26.1834 C   0  0  0  0  0  0  0  0  0  0  0  0
    8.1849  -11.5391   26.7246 C   0  0  0  0  0  0  0  0  0  0  0  0
    8.5524  -12.8758   26.7871 C   0  0  0  0  0  0  0  0  0  0  0  0
    7.6769  -13.8268   26.2972 C   0  0  0  0  0  0  0  0  0  0  0  0
   10.7539  -17.5100   25.8512 C   0  0  0  0  0  0  0  0  0  0  0  0
   11.5838  -17.6223   26.7834 O   0  0  0  0  0  0  0  0  0  0  0  0
   10.7019  -18.6064   24.9682 O   0  0  0  0  0  0  0  0  0  0  0  0
  2  1  1  0
  2  3  1  0
  3  4  2  0
  6  7  1  0
  6  5  1  0
  9  8  1  6
  8  7  1  0
 10  3  1  0
 10  9  1  0
 11  9  1  0
 11 12  2  0
 13 11  1  0
 14 13  1  0
 14 15  1  1
 16 15  1  0
 16 17  2  0
 18 17  1  0
 19 18  1  0
 20 19  2  0
 21 20  1  0
 22 21  2  0
 22 23  1  0
 23 24  2  0
 24 19  1  0
 24 16  1  0
 25 14  1  0
 26 25  2  0
 27 25  1  0
M  END
$$$$
