GMW.pdb
     RDKit          3D

 27 28  0  0  1  0  0  0  0  0999 V2000
    6.9332  -12.8571   19.2385 N   0  0  0  0  0  0  0  0  0  0  0  0
    8.2410  -13.2764   19.6984 C   0  0  0  0  0  0  0  0  0  0  0  0
    8.0644  -14.4096   20.6281 C   0  0  0  0  0  0  0  0  0  0  0  0
    7.1305  -14.4147   21.4477 O   0  0  0  0  0  0  0  0  0  0  0  0
    6.5883  -20.1680   22.6818 C   0  0  0  0  0  0  0  0  0  0  0  0
    7.8497  -20.1641   21.4059 S   0  0  0  0  0  0  0  0  0  0  0  0
    9.2415  -19.1158   21.7796 C   0  0  0  0  0  0  0  0  0  0  0  0
    9.4138  -17.9152   20.9294 C   0  0  0  0  0  0  0  0  0  0  0  0
    8.9349  -16.6176   21.4641 C   0  0  2  0  0  0  0  0  0  0  0  0
    8.9997  -15.4995   20.5571 N   0  0  0  0  0  0  0  0  0  0  0  0
    9.6418  -16.2070   22.7289 C   0  0  0  0  0  0  0  0  0  0  0  0
   10.6424  -15.4585   22.6667 O   0  0  0  0  0  0  0  0  0  0  0  0
    9.1881  -16.6589   23.9986 N   0  0  0  0  0  0  0  0  0  0  0  0
    9.8408  -16.3112   25.2563 C   0  0  1  0  0  0  0  0  0  0  0  0
    8.7518  -16.3800   26.3000 C   0  0  0  0  0  0  0  0  0  0  0  0
    7.6443  -15.4228   26.0233 C   0  0  0  0  0  0  0  0  0  0  0  0
    6.3978  -15.8098   25.5461 C   0  0  0  0  0  0  0  0  0  0  0  0
    5.6044  -14.7430   25.4417 N   0  0  0  0  0  0  0  0  0  0  0  0
    6.3093  -13.6720   25.8403 C   0  0  0  0  0  0  0  0  0  0  0  0
    5.9750  -12.3148   25.9239 C   0  0  0  0  0  0  0  0  0  0  0  0
    6.9095  -11.4071   26.3634 C   0  0  0  0  0  0  0  0  0  0  0  0
    8.1745  -11.8184   26.7234 C   0  0  0  0  0  0  0  0  0  0  0  0
    8.5267  -13.1586   26.6484 C   0  0  0  0  0  0  0  0  0  0  0  0
    7.5831  -14.0674   26.2072 C   0  0  0  0  0  0  0  0  0  0  0  0
   11.0347  -17.0913   25.5143 C   0  0  0  0  0  0  0  0  0  0  0  0
   11.8738  -16.8599   26.4159 O   0  0  0  0  0  0  0  0  0  0  0  0
   11.3203  -18.2134   24.7121 O   0  0  0  0  0  0  0  0  0  0  0  0
  2  1  1  0
  2  3  1  0
  3  4  2  0
  6  7  1  0
  6  5  1  0
  9  8  1  6
  8  7  1  0
 10  3  1  0
 10  9  1  0
 11  9  1  0
 11 12  2  0
 13 11  1  0
 14 13  1  0
 14 15  1  1
 16 15  1  0
 16 17  2  0
 18 17  1  0
 19 18  1  0
 20 19  2  0
 21 20  1  0
 22 21  2  0
 22 23  1  0
 23 24  2  0
 24 19  1  0
 24 16  1  0
 25 14  1  0
 26 25  2  0
 27 25  1  0
M  END
$$$$
