WMF.pdb
     RDKit          3D

 34 36  0  0  1  0  0  0  0  0999 V2000
    9.7958  -17.7808   19.1339 N   0  0  0  0  0  0  0  0  0  0  0  0
    9.3199  -18.2416   20.4330 C   0  0  1  0  0  0  0  0  0  0  0  0
    9.8376  -19.6137   20.7398 C   0  0  0  0  0  0  0  0  0  0  0  0
    9.2874  -20.7151   19.9578 C   0  0  0  0  0  0  0  0  0  0  0  0
    7.9715  -21.1823   20.0833 C   0  0  0  0  0  0  0  0  0  0  0  0
    7.8194  -22.2200   19.2463 N   0  0  0  0  0  0  0  0  0  0  0  0
    8.9468  -22.4731   18.5723 C   0  0  0  0  0  0  0  0  0  0  0  0
    9.2947  -23.4011   17.6065 C   0  0  0  0  0  0  0  0  0  0  0  0
   10.5621  -23.4300   17.0451 C   0  0  0  0  0  0  0  0  0  0  0  0
   11.4611  -22.4974   17.4883 C   0  0  0  0  0  0  0  0  0  0  0  0
   11.1208  -21.5714   18.4506 C   0  0  0  0  0  0  0  0  0  0  0  0
    9.8537  -21.5419   19.0128 C   0  0  0  0  0  0  0  0  0  0  0  0
    9.5287  -17.3160   21.5282 C   0  0  0  0  0  0  0  0  0  0  0  0
   10.7029  -16.9131   21.7316 O   0  0  0  0  0  0  0  0  0  0  0  0
    6.8374  -12.3139   27.1285 C   0  0  0  0  0  0  0  0  0  0  0  0
    6.4463  -13.3906   25.7431 S   0  0  0  0  0  0  0  0  0  0  0  0
    7.8714  -14.3204   25.1874 C   0  0  0  0  0  0  0  0  0  0  0  0
    7.6485  -15.1864   24.0095 C   0  0  0  0  0  0  0  0  0  0  0  0
    8.8125  -15.9489   23.4816 C   0  0  2  0  0  0  0  0  0  0  0  0
    8.4902  -16.8278   22.3982 N   0  0  0  0  0  0  0  0  0  0  0  0
    9.5780  -16.6391   24.5629 C   0  0  0  0  0  0  0  0  0  0  0  0
    9.1975  -17.7401   25.0173 O   0  0  0  0  0  0  0  0  0  0  0  0
   10.7593  -16.0771   25.1138 N   0  0  0  0  0  0  0  0  0  0  0  0
   11.5699  -16.8010   26.0946 C   0  0  1  0  0  0  0  0  0  0  0  0
   12.3326  -15.7560   26.8380 C   0  0  0  0  0  0  0  0  0  0  0  0
   11.5458  -14.8848   27.7187 C   0  0  0  0  0  0  0  0  0  0  0  0
   11.0624  -13.7004   27.2069 C   0  0  0  0  0  0  0  0  0  0  0  0
   10.3114  -12.8035   27.9562 C   0  0  0  0  0  0  0  0  0  0  0  0
   10.0554  -13.1446   29.2727 C   0  0  0  0  0  0  0  0  0  0  0  0
   10.5381  -14.3362   29.7986 C   0  0  0  0  0  0  0  0  0  0  0  0
   11.2895  -15.2223   29.0297 C   0  0  0  0  0  0  0  0  0  0  0  0
   10.7129  -17.5456   27.0495 C   0  0  0  0  0  0  0  0  0  0  0  0
    9.3498  -17.4178   27.1147 O   0  0  0  0  0  0  0  0  0  0  0  0
   11.2921  -18.3405   27.8446 O   0  0  0  0  0  0  0  0  0  0  0  0
  2  1  1  6
  2  3  1  0
  3  4  1  0
  4  5  2  0
  6  5  1  0
  7  6  1  0
  8  7  2  0
  9  8  1  0
 10  9  2  0
 10 11  1  0
 11 12  2  0
 12  7  1  0
 12  4  1  0
 13  2  1  0
 13 14  2  0
 16 15  1  0
 17 16  1  0
 18 17  1  0
 19 18  1  1
 20 19  1  0
 20 13  1  0
 21 19  1  0
 22 21  2  0
 23 21  1  0
 24 25  1  1
 24 23  1  0
 25 26  1  0
 26 31  2  0
 27 28  2  0
 27 26  1  0
 28 29  1  0
 29 30  2  0
 31 30  1  0
 32 24  1  0
 32 33  1  0
 34 32  2  0
M  END
$$$$
