WMF.pdb
     RDKit          3D

 34 36  0  0  1  0  0  0  0  0999 V2000
    5.8781  -17.4025   23.6839 N   0  0  0  0  0  0  0  0  0  0  0  0
    7.1208  -16.6430   23.6094 C   0  0  1  0  0  0  0  0  0  0  0  0
    7.4663  -16.0451   24.9390 C   0  0  0  0  0  0  0  0  0  0  0  0
    6.5742  -15.0090   25.4469 C   0  0  0  0  0  0  0  0  0  0  0  0
    5.6005  -15.2292   26.4313 C   0  0  0  0  0  0  0  0  0  0  0  0
    4.9430  -14.0761   26.6279 N   0  0  0  0  0  0  0  0  0  0  0  0
    5.4156  -13.1039   25.8400 C   0  0  0  0  0  0  0  0  0  0  0  0
    5.0981  -11.7669   25.6773 C   0  0  0  0  0  0  0  0  0  0  0  0
    5.7794  -10.9589   24.7799 C   0  0  0  0  0  0  0  0  0  0  0  0
    6.7852  -11.5417   24.0565 C   0  0  0  0  0  0  0  0  0  0  0  0
    7.1053  -12.8729   24.2134 C   0  0  0  0  0  0  0  0  0  0  0  0
    6.4242  -13.6817   25.1104 C   0  0  0  0  0  0  0  0  0  0  0  0
    8.2382  -17.3487   23.0153 C   0  0  0  0  0  0  0  0  0  0  0  0
    7.9752  -18.2810   22.2127 O   0  0  0  0  0  0  0  0  0  0  0  0
    7.2444  -12.5881   20.5895 C   0  0  0  0  0  0  0  0  0  0  0  0
    8.6224  -13.4888   19.8676 S   0  0  0  0  0  0  0  0  0  0  0  0
    8.8973  -15.0626   20.6749 C   0  0  0  0  0  0  0  0  0  0  0  0
    9.6481  -15.0043   21.9477 C   0  0  0  0  0  0  0  0  0  0  0  0
   10.3705  -16.2311   22.3814 C   0  0  2  0  0  0  0  0  0  0  0  0
    9.6240  -17.0598   23.2793 N   0  0  0  0  0  0  0  0  0  0  0  0
   11.7419  -15.9327   22.8929 C   0  0  0  0  0  0  0  0  0  0  0  0
   12.6870  -15.7089   22.1052 O   0  0  0  0  0  0  0  0  0  0  0  0
   12.0254  -15.8915   24.2831 N   0  0  0  0  0  0  0  0  0  0  0  0
   13.3022  -16.3634   24.8215 C   0  0  1  0  0  0  0  0  0  0  0  0
   13.3627  -15.8536   26.2225 C   0  0  0  0  0  0  0  0  0  0  0  0
   12.0749  -15.6867   26.9062 C   0  0  0  0  0  0  0  0  0  0  0  0
   11.1897  -14.7510   26.4168 C   0  0  0  0  0  0  0  0  0  0  0  0
    9.9479  -14.5117   26.9915 C   0  0  0  0  0  0  0  0  0  0  0  0
    9.6154  -15.2636   28.1048 C   0  0  0  0  0  0  0  0  0  0  0  0
   10.5005  -16.2094   28.6063 C   0  0  0  0  0  0  0  0  0  0  0  0
   11.7416  -16.4341   28.0146 C   0  0  0  0  0  0  0  0  0  0  0  0
   13.3569  -17.8456   24.8433 C   0  0  0  0  0  0  0  0  0  0  0  0
   14.4528  -18.5767   24.4647 O   0  0  0  0  0  0  0  0  0  0  0  0
   12.3205  -18.4548   25.2362 O   0  0  0  0  0  0  0  0  0  0  0  0
  2  1  1  1
  2  3  1  0
  3  4  1  0
  4  5  2  0
  6  5  1  0
  7  6  1  0
  8  7  2  0
  9  8  1  0
 10  9  2  0
 10 11  1  0
 11 12  2  0
 12  7  1  0
 12  4  1  0
 13  2  1  0
 13 14  2  0
 16 15  1  0
 17 16  1  0
 18 17  1  0
 19 18  1  1
 20 19  1  0
 20 13  1  0
 21 19  1  0
 22 21  2  0
 23 21  1  0
 24 25  1  1
 24 23  1  0
 25 26  1  0
 26 31  2  0
 27 28  2  0
 27 26  1  0
 28 29  1  0
 29 30  2  0
 31 30  1  0
 32 24  1  0
 32 33  1  0
 34 32  2  0
M  END
$$$$
