WMF.pdb
     RDKit          3D

 34 36  0  0  1  0  0  0  0  0999 V2000
    8.1479  -18.0238   20.6620 N   0  0  0  0  0  0  0  0  0  0  0  0
    8.7561  -17.3035   21.7746 C   0  0  1  0  0  0  0  0  0  0  0  0
    7.8173  -16.2747   22.3266 C   0  0  0  0  0  0  0  0  0  0  0  0
    7.3654  -15.2354   21.4084 C   0  0  0  0  0  0  0  0  0  0  0  0
    6.0896  -15.2059   20.8277 C   0  0  0  0  0  0  0  0  0  0  0  0
    6.0300  -14.1404   20.0142 N   0  0  0  0  0  0  0  0  0  0  0  0
    7.1813  -13.4595   20.0162 C   0  0  0  0  0  0  0  0  0  0  0  0
    7.6127  -12.3103   19.3773 C   0  0  0  0  0  0  0  0  0  0  0  0
    8.8845  -11.7965   19.5794 C   0  0  0  0  0  0  0  0  0  0  0  0
    9.7014  -12.4770   20.4421 C   0  0  0  0  0  0  0  0  0  0  0  0
    9.2778  -13.6224   21.0805 C   0  0  0  0  0  0  0  0  0  0  0  0
    8.0062  -14.1372   20.8787 C   0  0  0  0  0  0  0  0  0  0  0  0
    9.3275  -18.1405   22.8102 C   0  0  0  0  0  0  0  0  0  0  0  0
    9.3453  -19.3822   22.6089 O   0  0  0  0  0  0  0  0  0  0  0  0
   15.0949  -14.1983   22.3154 C   0  0  0  0  0  0  0  0  0  0  0  0
   14.1208  -15.6744   21.9938 S   0  0  0  0  0  0  0  0  0  0  0  0
   13.0555  -16.0934   23.3700 C   0  0  0  0  0  0  0  0  0  0  0  0
   12.0905  -17.1859   23.1203 C   0  0  0  0  0  0  0  0  0  0  0  0
   11.2874  -17.6763   24.2734 C   0  0  2  0  0  0  0  0  0  0  0  0
    9.8733  -17.6526   24.0503 N   0  0  0  0  0  0  0  0  0  0  0  0
   11.6702  -17.0131   25.5560 C   0  0  0  0  0  0  0  0  0  0  0  0
   12.8076  -17.1759   26.0492 O   0  0  0  0  0  0  0  0  0  0  0  0
   10.7649  -16.1777   26.2614 N   0  0  0  0  0  0  0  0  0  0  0  0
   11.0809  -15.6513   27.5903 C   0  0  1  0  0  0  0  0  0  0  0  0
   10.9080  -14.1727   27.4903 C   0  0  0  0  0  0  0  0  0  0  0  0
    9.6680  -13.7078   26.8579 C   0  0  0  0  0  0  0  0  0  0  0  0
    8.9957  -12.6513   27.4327 C   0  0  0  0  0  0  0  0  0  0  0  0
    7.8126  -12.1375   26.9169 C   0  0  0  0  0  0  0  0  0  0  0  0
    7.3131  -12.7366   25.7737 C   0  0  0  0  0  0  0  0  0  0  0  0
    7.9830  -13.8022   25.1864 C   0  0  0  0  0  0  0  0  0  0  0  0
    9.1688  -14.3024   25.7197 C   0  0  0  0  0  0  0  0  0  0  0  0
   10.1428  -16.1802   28.6105 C   0  0  0  0  0  0  0  0  0  0  0  0
   10.2546  -15.9330   29.9541 O   0  0  0  0  0  0  0  0  0  0  0  0
    9.1896  -16.9017   28.1980 O   0  0  0  0  0  0  0  0  0  0  0  0
  2  1  1  6
  2  3  1  0
  3  4  1  0
  4  5  2  0
  6  5  1  0
  7  6  1  0
  8  7  2  0
  9  8  1  0
 10  9  2  0
 10 11  1  0
 11 12  2  0
 12  7  1  0
 12  4  1  0
 13  2  1  0
 13 14  2  0
 16 15  1  0
 17 16  1  0
 18 17  1  0
 19 18  1  6
 20 19  1  0
 20 13  1  0
 21 19  1  0
 22 21  2  0
 23 21  1  0
 24 25  1  6
 24 23  1  0
 25 26  1  0
 26 31  2  0
 27 28  2  0
 27 26  1  0
 28 29  1  0
 29 30  2  0
 31 30  1  0
 32 24  1  0
 32 33  1  0
 34 32  2  0
M  END
$$$$
