WMF.pdb
     RDKit          3D

 34 36  0  0  1  0  0  0  0  0999 V2000
    5.9405  -19.2356   21.0841 N   0  0  0  0  0  0  0  0  0  0  0  0
    6.4875  -17.9367   21.4585 C   0  0  1  0  0  0  0  0  0  0  0  0
    5.7430  -16.8249   20.7845 C   0  0  0  0  0  0  0  0  0  0  0  0
    6.5429  -15.7421   20.2233 C   0  0  0  0  0  0  0  0  0  0  0  0
    7.0368  -15.7338   18.9111 C   0  0  0  0  0  0  0  0  0  0  0  0
    7.7554  -14.6126   18.7467 N   0  0  0  0  0  0  0  0  0  0  0  0
    7.7714  -13.8748   19.8623 C   0  0  0  0  0  0  0  0  0  0  0  0
    8.3408  -12.6583   20.1952 C   0  0  0  0  0  0  0  0  0  0  0  0
    8.1790  -12.0962   21.4523 C   0  0  0  0  0  0  0  0  0  0  0  0
    7.4284  -12.7985   22.3566 C   0  0  0  0  0  0  0  0  0  0  0  0
    6.8596  -14.0109   22.0313 C   0  0  0  0  0  0  0  0  0  0  0  0
    7.0213  -14.5739   20.7745 C   0  0  0  0  0  0  0  0  0  0  0  0
    6.6329  -17.7182   22.8836 C   0  0  0  0  0  0  0  0  0  0  0  0
    5.5820  -17.6704   23.5735 O   0  0  0  0  0  0  0  0  0  0  0  0
    6.8445  -20.7585   29.1397 C   0  0  0  0  0  0  0  0  0  0  0  0
    6.6248  -20.4737   27.3784 S   0  0  0  0  0  0  0  0  0  0  0  0
    8.1014  -19.8130   26.6121 C   0  0  0  0  0  0  0  0  0  0  0  0
    7.9463  -19.3609   25.2126 C   0  0  0  0  0  0  0  0  0  0  0  0
    8.0143  -17.8981   24.9468 C   0  0  2  0  0  0  0  0  0  0  0  0
    7.8915  -17.5511   23.5631 N   0  0  0  0  0  0  0  0  0  0  0  0
    9.2017  -17.2580   25.5885 C   0  0  0  0  0  0  0  0  0  0  0  0
   10.3631  -17.6084   25.2851 O   0  0  0  0  0  0  0  0  0  0  0  0
    9.0607  -16.2339   26.5613 N   0  0  0  0  0  0  0  0  0  0  0  0
   10.2232  -15.5611   27.1431 C   0  0  1  0  0  0  0  0  0  0  0  0
    9.6950  -14.3171   27.7755 C   0  0  0  0  0  0  0  0  0  0  0  0
    8.6758  -13.5866   27.0132 C   0  0  0  0  0  0  0  0  0  0  0  0
    8.4480  -13.9537   25.7048 C   0  0  0  0  0  0  0  0  0  0  0  0
    7.5099  -13.3252   24.8956 C   0  0  0  0  0  0  0  0  0  0  0  0
    6.7887  -12.2871   25.4591 C   0  0  0  0  0  0  0  0  0  0  0  0
    7.0107  -11.9092   26.7772 C   0  0  0  0  0  0  0  0  0  0  0  0
    7.9564  -12.5529   27.5721 C   0  0  0  0  0  0  0  0  0  0  0  0
   10.8593  -16.4018   28.1867 C   0  0  0  0  0  0  0  0  0  0  0  0
   10.4078  -17.6443   28.5487 O   0  0  0  0  0  0  0  0  0  0  0  0
   11.8773  -15.9271   28.7678 O   0  0  0  0  0  0  0  0  0  0  0  0
  2  1  1  1
  2  3  1  0
  3  4  1  0
  4  5  2  0
  6  5  1  0
  7  6  1  0
  8  7  2  0
  9  8  1  0
 10  9  2  0
 10 11  1  0
 11 12  2  0
 12  7  1  0
 12  4  1  0
 13  2  1  0
 13 14  2  0
 16 15  1  0
 17 16  1  0
 18 17  1  0
 19 18  1  6
 20 19  1  0
 20 13  1  0
 21 19  1  0
 22 21  2  0
 23 21  1  0
 24 25  1  1
 24 23  1  0
 25 26  1  0
 26 31  2  0
 27 28  2  0
 27 26  1  0
 28 29  1  0
 29 30  2  0
 31 30  1  0
 32 24  1  0
 32 33  1  0
 34 32  2  0
M  END
$$$$
