WMF.pdb
     RDKit          3D

 34 36  0  0  1  0  0  0  0  0999 V2000
    8.9584  -16.6804   21.3712 N   0  0  0  0  0  0  0  0  0  0  0  0
   10.4158  -16.6910   21.3195 C   0  0  1  0  0  0  0  0  0  0  0  0
   10.9194  -15.8641   20.1762 C   0  0  0  0  0  0  0  0  0  0  0  0
   10.0041  -14.8683   19.6303 C   0  0  0  0  0  0  0  0  0  0  0  0
   10.2985  -14.0590   18.5240 C   0  0  0  0  0  0  0  0  0  0  0  0
    9.2556  -13.2393   18.3219 N   0  0  0  0  0  0  0  0  0  0  0  0
    8.2872  -13.4506   19.2201 C   0  0  0  0  0  0  0  0  0  0  0  0
    7.0374  -12.8936   19.4265 C   0  0  0  0  0  0  0  0  0  0  0  0
    6.2054  -13.3255   20.4481 C   0  0  0  0  0  0  0  0  0  0  0  0
    6.6740  -14.3318   21.2496 C   0  0  0  0  0  0  0  0  0  0  0  0
    7.9181  -14.8898   21.0496 C   0  0  0  0  0  0  0  0  0  0  0  0
    8.7509  -14.4582   20.0284 C   0  0  0  0  0  0  0  0  0  0  0  0
   11.0778  -16.3678   22.5673 C   0  0  0  0  0  0  0  0  0  0  0  0
   12.0675  -15.5930   22.5154 O   0  0  0  0  0  0  0  0  0  0  0  0
    6.4784  -12.1502   25.4121 C   0  0  0  0  0  0  0  0  0  0  0  0
    7.4638  -13.1140   24.2583 S   0  0  0  0  0  0  0  0  0  0  0  0
    7.6080  -14.8263   24.7600 C   0  0  0  0  0  0  0  0  0  0  0  0
    8.5713  -15.6389   23.9862 C   0  0  0  0  0  0  0  0  0  0  0  0
    9.7965  -16.1119   24.6863 C   0  0  2  0  0  0  0  0  0  0  0  0
   10.6845  -16.8706   23.8581 N   0  0  0  0  0  0  0  0  0  0  0  0
    9.4845  -16.8088   25.9703 C   0  0  0  0  0  0  0  0  0  0  0  0
    8.6425  -16.3408   26.7674 O   0  0  0  0  0  0  0  0  0  0  0  0
   10.1266  -18.0213   26.3345 N   0  0  0  0  0  0  0  0  0  0  0  0
   11.4425  -18.0317   26.9757 C   0  0  1  0  0  0  0  0  0  0  0  0
   11.2254  -17.4969   28.3516 C   0  0  0  0  0  0  0  0  0  0  0  0
   10.7386  -16.1152   28.4391 C   0  0  0  0  0  0  0  0  0  0  0  0
   11.6605  -15.0920   28.3979 C   0  0  0  0  0  0  0  0  0  0  0  0
   11.3060  -13.7512   28.4773 C   0  0  0  0  0  0  0  0  0  0  0  0
    9.9581  -13.4641   28.6034 C   0  0  0  0  0  0  0  0  0  0  0  0
    9.0206  -14.4881   28.6460 C   0  0  0  0  0  0  0  0  0  0  0  0
    9.3972  -15.8268   28.5646 C   0  0  0  0  0  0  0  0  0  0  0  0
   11.9782  -19.4117   27.0720 C   0  0  0  0  0  0  0  0  0  0  0  0
   13.2099  -19.7202   27.5881 O   0  0  0  0  0  0  0  0  0  0  0  0
   11.2410  -20.3470   26.6462 O   0  0  0  0  0  0  0  0  0  0  0  0
  2  1  1  1
  2  3  1  0
  3  4  1  0
  4  5  2  0
  6  5  1  0
  7  6  1  0
  8  7  2  0
  9  8  1  0
 10  9  2  0
 10 11  1  0
 11 12  2  0
 12  7  1  0
 12  4  1  0
 13  2  1  0
 13 14  2  0
 16 15  1  0
 17 16  1  0
 18 17  1  0
 19 18  1  6
 20 19  1  0
 20 13  1  0
 21 19  1  0
 22 21  2  0
 23 21  1  0
 24 25  1  1
 24 23  1  0
 25 26  1  0
 26 31  2  0
 27 28  2  0
 27 26  1  0
 28 29  1  0
 29 30  2  0
 31 30  1  0
 32 24  1  0
 32 33  1  0
 34 32  2  0
M  END
$$$$
