WMF.pdb
     RDKit          3D

 34 36  0  0  1  0  0  0  0  0999 V2000
    8.8782  -18.9231   21.2867 N   0  0  0  0  0  0  0  0  0  0  0  0
    8.9417  -17.5802   20.7215 C   0  0  1  0  0  0  0  0  0  0  0  0
    7.7613  -17.3118   19.8388 C   0  0  0  0  0  0  0  0  0  0  0  0
    7.8334  -16.1326   18.9833 C   0  0  0  0  0  0  0  0  0  0  0  0
    8.1374  -16.1765   17.6154 C   0  0  0  0  0  0  0  0  0  0  0  0
    8.1543  -14.9164   17.1548 N   0  0  0  0  0  0  0  0  0  0  0  0
    7.8809  -14.0378   18.1257 C   0  0  0  0  0  0  0  0  0  0  0  0
    7.7639  -12.6595   18.1618 C   0  0  0  0  0  0  0  0  0  0  0  0
    7.4422  -11.9846   19.3295 C   0  0  0  0  0  0  0  0  0  0  0  0
    7.2443  -12.7423   20.4525 C   0  0  0  0  0  0  0  0  0  0  0  0
    7.3605  -14.1152   20.4230 C   0  0  0  0  0  0  0  0  0  0  0  0
    7.6824  -14.7909   19.2558 C   0  0  0  0  0  0  0  0  0  0  0  0
    9.1645  -16.5185   21.6821 C   0  0  0  0  0  0  0  0  0  0  0  0
    9.0949  -15.3340   21.2645 O   0  0  0  0  0  0  0  0  0  0  0  0
    7.6191  -12.3594   26.7072 C   0  0  0  0  0  0  0  0  0  0  0  0
    6.5619  -13.3506   25.6436 S   0  0  0  0  0  0  0  0  0  0  0  0
    7.3417  -14.8874   25.1597 C   0  0  0  0  0  0  0  0  0  0  0  0
    8.2164  -14.8121   23.9697 C   0  0  0  0  0  0  0  0  0  0  0  0
    9.4703  -15.6138   23.9811 C   0  0  2  0  0  0  0  0  0  0  0  0
    9.4604  -16.7235   23.0764 N   0  0  0  0  0  0  0  0  0  0  0  0
    9.8784  -16.0116   25.3620 C   0  0  0  0  0  0  0  0  0  0  0  0
   10.3037  -15.1631   26.1760 O   0  0  0  0  0  0  0  0  0  0  0  0
    9.8004  -17.3588   25.8024 N   0  0  0  0  0  0  0  0  0  0  0  0
   10.8033  -17.9331   26.7007 C   0  0  1  0  0  0  0  0  0  0  0  0
   10.3435  -17.6046   28.0817 C   0  0  0  0  0  0  0  0  0  0  0  0
   10.1778  -16.1786   28.3861 C   0  0  0  0  0  0  0  0  0  0  0  0
    8.9278  -15.6181   28.2380 C   0  0  0  0  0  0  0  0  0  0  0  0
    8.6645  -14.2786   28.4952 C   0  0  0  0  0  0  0  0  0  0  0  0
    9.7273  -13.4991   28.9174 C   0  0  0  0  0  0  0  0  0  0  0  0
   10.9914  -14.0543   29.0699 C   0  0  0  0  0  0  0  0  0  0  0  0
   11.2343  -15.4006   28.8067 C   0  0  0  0  0  0  0  0  0  0  0  0
   10.8715  -19.4074   26.5515 C   0  0  0  0  0  0  0  0  0  0  0  0
   11.7352  -20.2084   27.2523 O   0  0  0  0  0  0  0  0  0  0  0  0
   10.0789  -19.9399   25.7223 O   0  0  0  0  0  0  0  0  0  0  0  0
  2  1  1  1
  2  3  1  0
  3  4  1  0
  4  5  2  0
  6  5  1  0
  7  6  1  0
  8  7  2  0
  9  8  1  0
 10  9  2  0
 10 11  1  0
 11 12  2  0
 12  7  1  0
 12  4  1  0
 13  2  1  0
 13 14  2  0
 16 15  1  0
 17 16  1  0
 18 17  1  0
 19 18  1  1
 20 19  1  0
 20 13  1  0
 21 19  1  0
 22 21  2  0
 23 21  1  0
 24 25  1  1
 24 23  1  0
 25 26  1  0
 26 31  2  0
 27 28  2  0
 27 26  1  0
 28 29  1  0
 29 30  2  0
 31 30  1  0
 32 24  1  0
 32 33  1  0
 34 32  2  0
M  END
$$$$
