WMF.pdb
     RDKit          3D

 34 36  0  0  1  0  0  0  0  0999 V2000
    7.1891  -18.6602   19.8079 N   0  0  0  0  0  0  0  0  0  0  0  0
    6.6400  -18.4997   21.1493 C   0  0  1  0  0  0  0  0  0  0  0  0
    6.4654  -19.8272   21.8215 C   0  0  0  0  0  0  0  0  0  0  0  0
    5.4069  -20.6903   21.3096 C   0  0  0  0  0  0  0  0  0  0  0  0
    5.5151  -22.0845   21.2088 C   0  0  0  0  0  0  0  0  0  0  0  0
    4.3795  -22.5493   20.6659 N   0  0  0  0  0  0  0  0  0  0  0  0
    3.5233  -21.5566   20.3999 C   0  0  0  0  0  0  0  0  0  0  0  0
    2.2468  -21.5129   19.8675 C   0  0  0  0  0  0  0  0  0  0  0  0
    1.5597  -20.3182   19.7161 C   0  0  0  0  0  0  0  0  0  0  0  0
    2.1999  -19.1763   20.1170 C   0  0  0  0  0  0  0  0  0  0  0  0
    3.4714  -19.2134   20.6470 C   0  0  0  0  0  0  0  0  0  0  0  0
    4.1595  -20.4077   20.7984 C   0  0  0  0  0  0  0  0  0  0  0  0
    7.3354  -17.5443   21.9881 C   0  0  0  0  0  0  0  0  0  0  0  0
    8.5783  -17.4307   21.8309 O   0  0  0  0  0  0  0  0  0  0  0  0
    7.3583  -11.3319   26.9660 C   0  0  0  0  0  0  0  0  0  0  0  0
    6.3886  -12.6467   26.2160 S   0  0  0  0  0  0  0  0  0  0  0  0
    7.4148  -13.8411   25.3649 C   0  0  0  0  0  0  0  0  0  0  0  0
    6.6877  -14.8786   24.6021 C   0  0  0  0  0  0  0  0  0  0  0  0
    7.4917  -15.8244   23.7811 C   0  0  2  0  0  0  0  0  0  0  0  0
    6.7058  -16.7196   22.9867 N   0  0  0  0  0  0  0  0  0  0  0  0
    8.5254  -16.5405   24.5874 C   0  0  0  0  0  0  0  0  0  0  0  0
    8.2986  -17.6756   25.0605 O   0  0  0  0  0  0  0  0  0  0  0  0
    9.7970  -15.9658   24.8471 N   0  0  0  0  0  0  0  0  0  0  0  0
   10.9074  -16.7618   25.3728 C   0  0  1  0  0  0  0  0  0  0  0  0
   11.7247  -15.8216   26.1940 C   0  0  0  0  0  0  0  0  0  0  0  0
   11.0796  -15.2865   27.3986 C   0  0  0  0  0  0  0  0  0  0  0  0
   10.3670  -14.1119   27.2933 C   0  0  0  0  0  0  0  0  0  0  0  0
    9.7228  -13.5190   28.3719 C   0  0  0  0  0  0  0  0  0  0  0  0
    9.8210  -14.1623   29.5933 C   0  0  0  0  0  0  0  0  0  0  0  0
   10.5369  -15.3468   29.7103 C   0  0  0  0  0  0  0  0  0  0  0  0
   11.1757  -15.9251   28.6157 C   0  0  0  0  0  0  0  0  0  0  0  0
   10.4135  -17.8585   26.2410 C   0  0  0  0  0  0  0  0  0  0  0  0
   11.2209  -18.8148   26.7998 O   0  0  0  0  0  0  0  0  0  0  0  0
    9.1699  -17.8988   26.4672 O   0  0  0  0  0  0  0  0  0  0  0  0
  2  1  1  6
  2  3  1  0
  3  4  1  0
  4  5  2  0
  6  5  1  0
  7  6  1  0
  8  7  2  0
  9  8  1  0
 10  9  2  0
 10 11  1  0
 11 12  2  0
 12  7  1  0
 12  4  1  0
 13  2  1  0
 13 14  2  0
 16 15  1  0
 17 16  1  0
 18 17  1  0
 19 18  1  1
 20 19  1  0
 20 13  1  0
 21 19  1  0
 22 21  2  0
 23 21  1  0
 24 25  1  1
 24 23  1  0
 25 26  1  0
 26 31  2  0
 27 28  2  0
 27 26  1  0
 28 29  1  0
 29 30  2  0
 31 30  1  0
 32 24  1  0
 32 33  1  0
 34 32  2  0
M  END
$$$$
