WMF.pdb
     RDKit          3D

 34 36  0  0  1  0  0  0  0  0999 V2000
    9.7288  -17.9744   19.2696 N   0  0  0  0  0  0  0  0  0  0  0  0
    9.4014  -18.4479   20.6095 C   0  0  1  0  0  0  0  0  0  0  0  0
   10.2090  -19.6589   20.9643 C   0  0  0  0  0  0  0  0  0  0  0  0
    9.8726  -20.8997   20.2755 C   0  0  0  0  0  0  0  0  0  0  0  0
   10.5849  -21.4024   19.1774 C   0  0  0  0  0  0  0  0  0  0  0  0
    9.9821  -22.5317   18.7752 N   0  0  0  0  0  0  0  0  0  0  0  0
    8.9168  -22.8134   19.5335 C   0  0  0  0  0  0  0  0  0  0  0  0
    7.9948  -23.8452   19.5403 C   0  0  0  0  0  0  0  0  0  0  0  0
    6.9735  -23.9055   20.4762 C   0  0  0  0  0  0  0  0  0  0  0  0
    6.9140  -22.8958   21.3990 C   0  0  0  0  0  0  0  0  0  0  0  0
    7.8288  -21.8651   21.3967 C   0  0  0  0  0  0  0  0  0  0  0  0
    8.8501  -21.8039   20.4609 C   0  0  0  0  0  0  0  0  0  0  0  0
    9.4407  -17.4360   21.6460 C   0  0  0  0  0  0  0  0  0  0  0  0
   10.5448  -16.8757   21.8684 O   0  0  0  0  0  0  0  0  0  0  0  0
    6.6880  -12.1876   26.6872 C   0  0  0  0  0  0  0  0  0  0  0  0
    6.3804  -13.2335   25.2580 S   0  0  0  0  0  0  0  0  0  0  0  0
    7.3205  -14.7555   25.3203 C   0  0  0  0  0  0  0  0  0  0  0  0
    7.2287  -15.6119   24.1181 C   0  0  0  0  0  0  0  0  0  0  0  0
    8.4932  -16.1767   23.5731 C   0  0  2  0  0  0  0  0  0  0  0  0
    8.3087  -17.0291   22.4376 N   0  0  0  0  0  0  0  0  0  0  0  0
    9.3332  -16.8151   24.6306 C   0  0  0  0  0  0  0  0  0  0  0  0
    9.1490  -18.0055   24.9662 O   0  0  0  0  0  0  0  0  0  0  0  0
   10.3666  -16.1015   25.2923 N   0  0  0  0  0  0  0  0  0  0  0  0
   11.3079  -16.7701   26.1922 C   0  0  1  0  0  0  0  0  0  0  0  0
   11.9222  -15.6853   27.0121 C   0  0  0  0  0  0  0  0  0  0  0  0
   11.0158  -14.9626   27.9120 C   0  0  0  0  0  0  0  0  0  0  0  0
   10.9701  -15.3392   29.2367 C   0  0  0  0  0  0  0  0  0  0  0  0
   10.1447  -14.7240   30.1695 C   0  0  0  0  0  0  0  0  0  0  0  0
    9.3446  -13.6902   29.7155 C   0  0  0  0  0  0  0  0  0  0  0  0
    9.3830  -13.3028   28.3821 C   0  0  0  0  0  0  0  0  0  0  0  0
   10.2184  -13.9330   27.4624 C   0  0  0  0  0  0  0  0  0  0  0  0
   10.6048  -17.7172   27.0917 C   0  0  0  0  0  0  0  0  0  0  0  0
   11.2434  -18.5982   27.9252 O   0  0  0  0  0  0  0  0  0  0  0  0
    9.3404  -17.6978   27.0743 O   0  0  0  0  0  0  0  0  0  0  0  0
  2  1  1  6
  2  3  1  0
  3  4  1  0
  4  5  2  0
  6  5  1  0
  7  6  1  0
  8  7  2  0
  9  8  1  0
 10  9  2  0
 10 11  1  0
 11 12  2  0
 12  7  1  0
 12  4  1  0
 13  2  1  0
 13 14  2  0
 16 15  1  0
 17 16  1  0
 18 17  1  0
 19 18  1  1
 20 19  1  0
 20 13  1  0
 21 19  1  0
 22 21  2  0
 23 21  1  0
 24 25  1  1
 24 23  1  0
 25 26  1  0
 26 31  2  0
 27 28  2  0
 27 26  1  0
 28 29  1  0
 29 30  2  0
 31 30  1  0
 32 24  1  0
 32 33  1  0
 34 32  2  0
M  END
$$$$
