WMF.pdb
     RDKit          3D

 34 36  0  0  1  0  0  0  0  0999 V2000
    5.9868  -20.1592   21.9892 N   0  0  0  0  0  0  0  0  0  0  0  0
    6.4965  -19.0125   22.7324 C   0  0  1  0  0  0  0  0  0  0  0  0
    7.4785  -19.4431   23.7787 C   0  0  0  0  0  0  0  0  0  0  0  0
    6.9532  -20.2228   24.8938 C   0  0  0  0  0  0  0  0  0  0  0  0
    6.2775  -21.4422   24.7454 C   0  0  0  0  0  0  0  0  0  0  0  0
    5.9045  -21.8595   25.9650 N   0  0  0  0  0  0  0  0  0  0  0  0
    6.2881  -20.9986   26.9141 C   0  0  0  0  0  0  0  0  0  0  0  0
    6.1645  -20.9784   28.2922 C   0  0  0  0  0  0  0  0  0  0  0  0
    6.6868  -19.9465   29.0569 C   0  0  0  0  0  0  0  0  0  0  0  0
    7.3335  -18.9417   28.3886 C   0  0  0  0  0  0  0  0  0  0  0  0
    7.4589  -18.9557   27.0163 C   0  0  0  0  0  0  0  0  0  0  0  0
    6.9366  -19.9872   26.2508 C   0  0  0  0  0  0  0  0  0  0  0  0
    7.0006  -17.9260   21.9169 C   0  0  0  0  0  0  0  0  0  0  0  0
    7.9367  -18.1861   21.1178 O   0  0  0  0  0  0  0  0  0  0  0  0
    8.7127  -13.6676   18.9149 C   0  0  0  0  0  0  0  0  0  0  0  0
    7.6952  -12.5110   19.8414 S   0  0  0  0  0  0  0  0  0  0  0  0
    7.5827  -12.9482   21.5735 C   0  0  0  0  0  0  0  0  0  0  0  0
    6.7597  -14.1384   21.8790 C   0  0  0  0  0  0  0  0  0  0  0  0
    7.4032  -15.4746   21.7548 C   0  0  2  0  0  0  0  0  0  0  0  0
    6.5080  -16.5735   21.9579 N   0  0  0  0  0  0  0  0  0  0  0  0
    8.6397  -15.5898   22.5851 C   0  0  0  0  0  0  0  0  0  0  0  0
    9.7562  -15.2679   22.1232 O   0  0  0  0  0  0  0  0  0  0  0  0
    8.5974  -16.0657   23.9217 N   0  0  0  0  0  0  0  0  0  0  0  0
    9.7121  -15.8577   24.8474 C   0  0  1  0  0  0  0  0  0  0  0  0
    9.6537  -14.4173   25.2324 C   0  0  0  0  0  0  0  0  0  0  0  0
    8.3987  -13.9609   25.8410 C   0  0  0  0  0  0  0  0  0  0  0  0
    7.3244  -14.8236   25.8524 C   0  0  0  0  0  0  0  0  0  0  0  0
    6.0919  -14.4891   26.3992 C   0  0  0  0  0  0  0  0  0  0  0  0
    5.9706  -13.2248   26.9488 C   0  0  0  0  0  0  0  0  0  0  0  0
    7.0474  -12.3475   26.9424 C   0  0  0  0  0  0  0  0  0  0  0  0
    8.2755  -12.7027   26.3890 C   0  0  0  0  0  0  0  0  0  0  0  0
    9.5570  -16.6906   26.0651 C   0  0  0  0  0  0  0  0  0  0  0  0
    8.5217  -17.5660   26.2667 O   0  0  0  0  0  0  0  0  0  0  0  0
   10.4415  -16.5717   26.9611 O   0  0  0  0  0  0  0  0  0  0  0  0
  2  1  1  6
  2  3  1  0
  3  4  1  0
  4  5  2  0
  6  5  1  0
  7  6  1  0
  8  7  2  0
  9  8  1  0
 10  9  2  0
 10 11  1  0
 11 12  2  0
 12  7  1  0
 12  4  1  0
 13  2  1  0
 13 14  2  0
 16 15  1  0
 17 16  1  0
 18 17  1  0
 19 18  1  1
 20 19  1  0
 20 13  1  0
 21 19  1  0
 22 21  2  0
 23 21  1  0
 24 25  1  1
 24 23  1  0
 25 26  1  0
 26 31  2  0
 27 28  2  0
 27 26  1  0
 28 29  1  0
 29 30  2  0
 31 30  1  0
 32 24  1  0
 32 33  1  0
 34 32  2  0
M  END
$$$$
