WMF.pdb
     RDKit          3D

 34 36  0  0  1  0  0  0  0  0999 V2000
    8.1508  -18.5625   20.4649 N   0  0  0  0  0  0  0  0  0  0  0  0
    8.7119  -17.6613   21.4647 C   0  0  1  0  0  0  0  0  0  0  0  0
    7.6973  -16.6528   21.9096 C   0  0  0  0  0  0  0  0  0  0  0  0
    7.2927  -15.6498   20.9309 C   0  0  0  0  0  0  0  0  0  0  0  0
    6.6246  -15.9490   19.7352 C   0  0  0  0  0  0  0  0  0  0  0  0
    6.4433  -14.8012   19.0643 N   0  0  0  0  0  0  0  0  0  0  0  0
    6.9459  -13.7588   19.7352 C   0  0  0  0  0  0  0  0  0  0  0  0
    6.9981  -12.3984   19.4872 C   0  0  0  0  0  0  0  0  0  0  0  0
    7.5757  -11.5144   20.3857 C   0  0  0  0  0  0  0  0  0  0  0  0
    8.0959  -12.0457   21.5353 C   0  0  0  0  0  0  0  0  0  0  0  0
    8.0478  -13.3997   21.7873 C   0  0  0  0  0  0  0  0  0  0  0  0
    7.4707  -14.2846   20.8892 C   0  0  0  0  0  0  0  0  0  0  0  0
    9.3678  -18.3126   22.5807 C   0  0  0  0  0  0  0  0  0  0  0  0
    9.6428  -19.5342   22.4597 O   0  0  0  0  0  0  0  0  0  0  0  0
   11.5341  -13.9638   20.4657 C   0  0  0  0  0  0  0  0  0  0  0  0
   12.7017  -15.3275   20.5569 S   0  0  0  0  0  0  0  0  0  0  0  0
   12.2143  -16.5538   21.7663 C   0  0  0  0  0  0  0  0  0  0  0  0
   11.3091  -16.0737   22.8327 C   0  0  0  0  0  0  0  0  0  0  0  0
   10.9927  -17.0105   23.9451 C   0  0  2  0  0  0  0  0  0  0  0  0
    9.7245  -17.6622   23.8150 N   0  0  0  0  0  0  0  0  0  0  0  0
   11.1710  -16.3801   25.2876 C   0  0  0  0  0  0  0  0  0  0  0  0
   12.2383  -15.8029   25.5899 O   0  0  0  0  0  0  0  0  0  0  0  0
   10.1439  -16.4106   26.2668 N   0  0  0  0  0  0  0  0  0  0  0  0
   10.3684  -15.9309   27.6315 C   0  0  1  0  0  0  0  0  0  0  0  0
    9.0994  -15.2592   28.0372 C   0  0  0  0  0  0  0  0  0  0  0  0
    8.5517  -14.2837   27.0874 C   0  0  0  0  0  0  0  0  0  0  0  0
    7.4992  -14.6692   26.2861 C   0  0  0  0  0  0  0  0  0  0  0  0
    6.9111  -13.8254   25.3524 C   0  0  0  0  0  0  0  0  0  0  0  0
    7.4294  -12.5465   25.2469 C   0  0  0  0  0  0  0  0  0  0  0  0
    8.4903  -12.1478   26.0499 C   0  0  0  0  0  0  0  0  0  0  0  0
    9.0659  -13.0099   26.9806 C   0  0  0  0  0  0  0  0  0  0  0  0
   10.6355  -17.0595   28.5565 C   0  0  0  0  0  0  0  0  0  0  0  0
   11.0364  -16.9038   29.8579 O   0  0  0  0  0  0  0  0  0  0  0  0
   10.4801  -18.2284   28.0994 O   0  0  0  0  0  0  0  0  0  0  0  0
  2  1  1  1
  2  3  1  0
  3  4  1  0
  4  5  2  0
  6  5  1  0
  7  6  1  0
  8  7  2  0
  9  8  1  0
 10  9  2  0
 10 11  1  0
 11 12  2  0
 12  7  1  0
 12  4  1  0
 13  2  1  0
 13 14  2  0
 16 15  1  0
 17 16  1  0
 18 17  1  0
 19 18  1  6
 20 19  1  0
 20 13  1  0
 21 19  1  0
 22 21  2  0
 23 21  1  0
 24 25  1  1
 24 23  1  0
 25 26  1  0
 26 31  2  0
 27 28  2  0
 27 26  1  0
 28 29  1  0
 29 30  2  0
 31 30  1  0
 32 24  1  0
 32 33  1  0
 34 32  2  0
M  END
$$$$
