WMF.pdb
     RDKit          3D

 34 36  0  0  1  0  0  0  0  0999 V2000
    6.0476  -17.1847   24.0930 N   0  0  0  0  0  0  0  0  0  0  0  0
    7.3375  -16.5478   23.8541 C   0  0  1  0  0  0  0  0  0  0  0  0
    7.8415  -15.8724   25.0929 C   0  0  0  0  0  0  0  0  0  0  0  0
    6.9304  -14.9452   25.7545 C   0  0  0  0  0  0  0  0  0  0  0  0
    5.9773  -15.3317   26.7073 C   0  0  0  0  0  0  0  0  0  0  0  0
    5.2930  -14.2377   27.0752 N   0  0  0  0  0  0  0  0  0  0  0  0
    5.7286  -13.1495   26.4307 C   0  0  0  0  0  0  0  0  0  0  0  0
    5.3742  -11.8124   26.4659 C   0  0  0  0  0  0  0  0  0  0  0  0
    6.0211  -10.8651   25.6871 C   0  0  0  0  0  0  0  0  0  0  0  0
    7.0310  -11.3095   24.8765 C   0  0  0  0  0  0  0  0  0  0  0  0
    7.3877  -12.6400   24.8363 C   0  0  0  0  0  0  0  0  0  0  0  0
    6.7411  -13.5881   25.6145 C   0  0  0  0  0  0  0  0  0  0  0  0
    8.3395  -17.3979   23.2433 C   0  0  0  0  0  0  0  0  0  0  0  0
    7.9721  -18.5326   22.8434 O   0  0  0  0  0  0  0  0  0  0  0  0
    7.7532  -12.3154   20.3195 C   0  0  0  0  0  0  0  0  0  0  0  0
    8.1079  -13.8579   19.4673 S   0  0  0  0  0  0  0  0  0  0  0  0
    8.2834  -15.2312   20.6020 C   0  0  0  0  0  0  0  0  0  0  0  0
    9.4357  -15.1525   21.5256 C   0  0  0  0  0  0  0  0  0  0  0  0
   10.1520  -16.4168   21.8470 C   0  0  2  0  0  0  0  0  0  0  0  0
    9.7219  -17.0368   23.0639 N   0  0  0  0  0  0  0  0  0  0  0  0
   11.6364  -16.2614   21.7839 C   0  0  0  0  0  0  0  0  0  0  0  0
   12.3100  -16.8681   20.9227 O   0  0  0  0  0  0  0  0  0  0  0  0
   12.3368  -15.4249   22.6920 N   0  0  0  0  0  0  0  0  0  0  0  0
   12.5456  -15.8114   24.0883 C   0  0  1  0  0  0  0  0  0  0  0  0
   11.1862  -15.8591   24.7016 C   0  0  0  0  0  0  0  0  0  0  0  0
   11.1292  -15.7101   26.1605 C   0  0  0  0  0  0  0  0  0  0  0  0
   10.9621  -14.4465   26.6839 C   0  0  0  0  0  0  0  0  0  0  0  0
   10.8995  -14.1957   28.0488 C   0  0  0  0  0  0  0  0  0  0  0  0
   11.0139  -15.2857   28.8938 C   0  0  0  0  0  0  0  0  0  0  0  0
   11.1827  -16.5637   28.3764 C   0  0  0  0  0  0  0  0  0  0  0  0
   11.2427  -16.7937   27.0038 C   0  0  0  0  0  0  0  0  0  0  0  0
   13.1664  -17.1553   24.1828 C   0  0  0  0  0  0  0  0  0  0  0  0
   12.5679  -18.3074   23.7430 O   0  0  0  0  0  0  0  0  0  0  0  0
   14.3165  -17.2235   24.7044 O   0  0  0  0  0  0  0  0  0  0  0  0
  2  1  1  1
  2  3  1  0
  3  4  1  0
  4  5  2  0
  6  5  1  0
  7  6  1  0
  8  7  2  0
  9  8  1  0
 10  9  2  0
 10 11  1  0
 11 12  2  0
 12  7  1  0
 12  4  1  0
 13  2  1  0
 13 14  2  0
 16 15  1  0
 17 16  1  0
 18 17  1  0
 19 18  1  1
 20 19  1  0
 20 13  1  0
 21 19  1  0
 22 21  2  0
 23 21  1  0
 24 25  1  1
 24 23  1  0
 25 26  1  0
 26 31  2  0
 27 28  2  0
 27 26  1  0
 28 29  1  0
 29 30  2  0
 31 30  1  0
 32 24  1  0
 32 33  1  0
 34 32  2  0
M  END
$$$$
