WMF.pdb
     RDKit          3D

 34 36  0  0  1  0  0  0  0  0999 V2000
   11.7806  -17.1448   20.1363 N   0  0  0  0  0  0  0  0  0  0  0  0
   10.5220  -16.5248   20.5340 C   0  0  1  0  0  0  0  0  0  0  0  0
    9.3671  -17.1321   19.7978 C   0  0  0  0  0  0  0  0  0  0  0  0
    8.4077  -16.2094   19.2015 C   0  0  0  0  0  0  0  0  0  0  0  0
    7.3218  -16.6128   18.4118 C   0  0  0  0  0  0  0  0  0  0  0  0
    6.6762  -15.5102   18.0020 N   0  0  0  0  0  0  0  0  0  0  0  0
    7.2605  -14.4007   18.4676 C   0  0  0  0  0  0  0  0  0  0  0  0
    6.9798  -13.0510   18.3482 C   0  0  0  0  0  0  0  0  0  0  0  0
    7.7588  -12.0858   18.9679 C   0  0  0  0  0  0  0  0  0  0  0  0
    8.8240  -12.5255   19.7072 C   0  0  0  0  0  0  0  0  0  0  0  0
    9.1091  -13.8683   19.8290 C   0  0  0  0  0  0  0  0  0  0  0  0
    8.3308  -14.8341   19.2093 C   0  0  0  0  0  0  0  0  0  0  0  0
   10.2925  -16.4609   21.9633 C   0  0  0  0  0  0  0  0  0  0  0  0
   11.2382  -16.8034   22.7188 O   0  0  0  0  0  0  0  0  0  0  0  0
    6.7942  -11.8489   27.2873 C   0  0  0  0  0  0  0  0  0  0  0  0
    6.4878  -12.9514   25.9009 S   0  0  0  0  0  0  0  0  0  0  0  0
    7.8696  -14.0461   25.5907 C   0  0  0  0  0  0  0  0  0  0  0  0
    7.9376  -14.6177   24.2284 C   0  0  0  0  0  0  0  0  0  0  0  0
    9.0597  -15.5465   23.9232 C   0  0  2  0  0  0  0  0  0  0  0  0
    9.0614  -16.0357   22.5776 N   0  0  0  0  0  0  0  0  0  0  0  0
    9.1760  -16.6470   24.9267 C   0  0  0  0  0  0  0  0  0  0  0  0
    8.2447  -16.8897   25.7251 O   0  0  0  0  0  0  0  0  0  0  0  0
   10.3394  -17.4556   25.0136 N   0  0  0  0  0  0  0  0  0  0  0  0
   11.2445  -17.3792   26.1615 C   0  0  1  0  0  0  0  0  0  0  0  0
   11.3984  -15.9250   26.4581 C   0  0  0  0  0  0  0  0  0  0  0  0
   10.6618  -15.4210   27.6230 C   0  0  0  0  0  0  0  0  0  0  0  0
   11.1088  -14.2690   28.2326 C   0  0  0  0  0  0  0  0  0  0  0  0
   10.4872  -13.7108   29.3426 C   0  0  0  0  0  0  0  0  0  0  0  0
    9.3716  -14.3661   29.8337 C   0  0  0  0  0  0  0  0  0  0  0  0
    8.9127  -15.5281   29.2266 C   0  0  0  0  0  0  0  0  0  0  0  0
    9.5507  -16.0715   28.1138 C   0  0  0  0  0  0  0  0  0  0  0  0
   10.6619  -18.0556   27.3463 C   0  0  0  0  0  0  0  0  0  0  0  0
    9.4021  -18.5947   27.3771 O   0  0  0  0  0  0  0  0  0  0  0  0
   11.3847  -18.1287   28.3814 O   0  0  0  0  0  0  0  0  0  0  0  0
  2  1  1  1
  2  3  1  0
  3  4  1  0
  4  5  2  0
  6  5  1  0
  7  6  1  0
  8  7  2  0
  9  8  1  0
 10  9  2  0
 10 11  1  0
 11 12  2  0
 12  7  1  0
 12  4  1  0
 13  2  1  0
 13 14  2  0
 16 15  1  0
 17 16  1  0
 18 17  1  0
 19 18  1  1
 20 19  1  0
 20 13  1  0
 21 19  1  0
 22 21  2  0
 23 21  1  0
 24 25  1  1
 24 23  1  0
 25 26  1  0
 26 31  2  0
 27 28  2  0
 27 26  1  0
 28 29  1  0
 29 30  2  0
 31 30  1  0
 32 24  1  0
 32 33  1  0
 34 32  2  0
M  END
$$$$
