WMF.pdb
     RDKit          3D

 34 36  0  0  1  0  0  0  0  0999 V2000
    5.4157  -18.9115   21.0437 N   0  0  0  0  0  0  0  0  0  0  0  0
    6.1876  -17.8318   21.6480 C   0  0  1  0  0  0  0  0  0  0  0  0
    5.6700  -16.4937   21.2164 C   0  0  0  0  0  0  0  0  0  0  0  0
    6.4732  -15.7588   20.2457 C   0  0  0  0  0  0  0  0  0  0  0  0
    6.5025  -16.0500   18.8746 C   0  0  0  0  0  0  0  0  0  0  0  0
    7.3687  -15.2075   18.2912 N   0  0  0  0  0  0  0  0  0  0  0  0
    7.9166  -14.3752   19.1835 C   0  0  0  0  0  0  0  0  0  0  0  0
    8.8294  -13.3394   19.0891 C   0  0  0  0  0  0  0  0  0  0  0  0
    9.2193  -12.6066   20.1997 C   0  0  0  0  0  0  0  0  0  0  0  0
    8.6610  -12.9520   21.4012 C   0  0  0  0  0  0  0  0  0  0  0  0
    7.7523  -13.9831   21.5017 C   0  0  0  0  0  0  0  0  0  0  0  0
    7.3621  -14.7167   20.3916 C   0  0  0  0  0  0  0  0  0  0  0  0
    6.3512  -17.9222   23.0849 C   0  0  0  0  0  0  0  0  0  0  0  0
    5.4055  -18.4230   23.7462 O   0  0  0  0  0  0  0  0  0  0  0  0
    8.0596  -19.1387   29.3980 C   0  0  0  0  0  0  0  0  0  0  0  0
    7.1066  -19.4161   27.8992 S   0  0  0  0  0  0  0  0  0  0  0  0
    8.1205  -20.0324   26.5589 C   0  0  0  0  0  0  0  0  0  0  0  0
    7.8463  -19.4455   25.2294 C   0  0  0  0  0  0  0  0  0  0  0  0
    7.7693  -17.9625   25.1306 C   0  0  2  0  0  0  0  0  0  0  0  0
    7.5158  -17.4793   23.8068 N   0  0  0  0  0  0  0  0  0  0  0  0
    8.9417  -17.2886   25.7653 C   0  0  0  0  0  0  0  0  0  0  0  0
   10.1025  -17.7199   25.5916 O   0  0  0  0  0  0  0  0  0  0  0  0
    8.7866  -16.1400   26.5848 N   0  0  0  0  0  0  0  0  0  0  0  0
    9.9323  -15.3232   26.9882 C   0  0  1  0  0  0  0  0  0  0  0  0
    9.3785  -14.2645   27.8820 C   0  0  0  0  0  0  0  0  0  0  0  0
    8.1424  -13.6165   27.4283 C   0  0  0  0  0  0  0  0  0  0  0  0
    7.9082  -13.5284   26.0733 C   0  0  0  0  0  0  0  0  0  0  0  0
    6.7729  -12.9317   25.5395 C   0  0  0  0  0  0  0  0  0  0  0  0
    5.8557  -12.4119   26.4360 C   0  0  0  0  0  0  0  0  0  0  0  0
    6.0823  -12.4954   27.8039 C   0  0  0  0  0  0  0  0  0  0  0  0
    7.2277  -13.0983   28.3189 C   0  0  0  0  0  0  0  0  0  0  0  0
   10.9208  -16.1282   27.7468 C   0  0  0  0  0  0  0  0  0  0  0  0
   12.1526  -15.6649   28.1298 O   0  0  0  0  0  0  0  0  0  0  0  0
   10.5907  -17.3112   28.0483 O   0  0  0  0  0  0  0  0  0  0  0  0
  2  1  1  1
  2  3  1  0
  3  4  1  0
  4  5  2  0
  6  5  1  0
  7  6  1  0
  8  7  2  0
  9  8  1  0
 10  9  2  0
 10 11  1  0
 11 12  2  0
 12  7  1  0
 12  4  1  0
 13  2  1  0
 13 14  2  0
 16 15  1  0
 17 16  1  0
 18 17  1  0
 19 18  1  6
 20 19  1  0
 20 13  1  0
 21 19  1  0
 22 21  2  0
 23 21  1  0
 24 25  1  1
 24 23  1  0
 25 26  1  0
 26 31  2  0
 27 28  2  0
 27 26  1  0
 28 29  1  0
 29 30  2  0
 31 30  1  0
 32 24  1  0
 32 33  1  0
 34 32  2  0
M  END
$$$$
