IND.pdb
     RDKit          3D

 25 24  0  0  1  0  0  0  0  0999 V2000
    7.0957  -12.1554   27.6856 C   0  0  0  0  0  0  0  0  0  0  0  0
    6.3293  -13.2498   26.8995 C   0  0  0  0  0  0  0  0  0  0  0  0
    7.2367  -13.6680   25.7893 C   0  0  2  0  0  0  0  0  0  0  0  0
    7.6736  -12.4052   25.0587 C   0  0  0  0  0  0  0  0  0  0  0  0
    6.7854  -14.7364   24.8828 C   0  0  2  0  0  0  0  0  0  0  0  0
    6.2649  -15.8342   25.7603 N   0  0  0  0  0  0  0  0  0  0  0  0
    7.7161  -15.3455   23.9499 C   0  0  0  0  0  0  0  0  0  0  0  0
    7.8125  -16.6388   23.9328 O   0  0  0  0  0  0  0  0  0  0  0  0
   11.6129  -14.1878   19.4650 N   0  0  0  0  0  0  0  0  0  0  0  0
   10.4831  -14.9941   19.8239 C   0  0  0  0  0  0  0  0  0  0  0  0
   10.3192  -16.0168   19.1365 O   0  0  0  0  0  0  0  0  0  0  0  0
    9.6783  -14.5129   20.9411 C   0  0  0  0  0  0  0  0  0  0  0  0
    9.3118  -15.5009   21.9973 C   0  0  2  0  0  0  0  0  0  0  0  0
    8.5672  -14.7275   23.0129 N   0  0  0  0  0  0  0  0  0  0  0  0
   10.4270  -16.2333   22.6001 C   0  0  0  0  0  0  0  0  0  0  0  0
   10.9221  -17.2239   22.0183 O   0  0  0  0  0  0  0  0  0  0  0  0
   11.0243  -15.9008   23.8530 N   0  0  0  0  0  0  0  0  0  0  0  0
   12.0228  -16.6602   24.5370 C   0  0  1  0  0  0  0  0  0  0  0  0
   13.3084  -15.9195   24.7164 C   0  0  0  0  0  0  0  0  0  0  0  0
   14.0794  -15.6678   23.5092 C   0  0  0  0  0  0  0  0  0  0  0  0
   14.2038  -16.5434   22.6051 O   0  0  0  0  0  0  0  0  0  0  0  0
   11.5501  -17.1638   25.8694 C   0  0  0  0  0  0  0  0  0  0  0  0
   10.4130  -16.8262   26.3126 O   0  0  0  0  0  0  0  0  0  0  0  0
   14.7443  -14.4568   23.2376 O   0  0  0  0  0  0  0  0  0  0  0  0
   12.2895  -17.9991   26.6854 O   0  0  0  0  0  0  0  0  0  0  0  0
  1  2  1  0
  2  3  1  0
  3  5  1  0
  3  4  1  6
  5  6  1  1
  7  5  1  0
  7  8  2  0
 10 12  1  0
 10  9  1  0
 11 10  2  0
 13 12  1  6
 13 14  1  0
 13 15  1  0
 14  7  1  0
 15 17  1  0
 16 15  2  0
 17 18  1  0
 18 22  1  0
 18 19  1  1
 20 19  1  0
 20 24  1  0
 21 20  2  0
 22 23  2  0
 22 25  1  0
M  END
$$$$
