IND.pdb
     RDKit          3D

 25 24  0  0  1  0  0  0  0  0999 V2000
    7.0629  -11.8388   27.2368 C   0  0  0  0  0  0  0  0  0  0  0  0
    6.1231  -12.8542   26.5377 C   0  0  0  0  0  0  0  0  0  0  0  0
    6.9686  -13.5750   25.5395 C   0  0  2  0  0  0  0  0  0  0  0  0
    7.5841  -12.5260   24.6228 C   0  0  0  0  0  0  0  0  0  0  0  0
    6.3759  -14.7077   24.8098 C   0  0  2  0  0  0  0  0  0  0  0  0
    5.5010  -15.4240   25.7935 N   0  0  0  0  0  0  0  0  0  0  0  0
    7.2294  -15.7085   24.1951 C   0  0  0  0  0  0  0  0  0  0  0  0
    6.7131  -16.8618   23.9027 O   0  0  0  0  0  0  0  0  0  0  0  0
    5.9685  -16.6031   21.0509 N   0  0  0  0  0  0  0  0  0  0  0  0
    7.3810  -16.6558   20.8114 C   0  0  0  0  0  0  0  0  0  0  0  0
    7.7544  -17.5418   20.0234 O   0  0  0  0  0  0  0  0  0  0  0  0
    8.1906  -15.6700   21.5184 C   0  0  0  0  0  0  0  0  0  0  0  0
    9.1133  -16.1734   22.5773 C   0  0  2  0  0  0  0  0  0  0  0  0
    8.5908  -15.6209   23.8445 N   0  0  0  0  0  0  0  0  0  0  0  0
   10.5289  -15.8448   22.3987 C   0  0  0  0  0  0  0  0  0  0  0  0
   10.9131  -14.6552   22.4425 O   0  0  0  0  0  0  0  0  0  0  0  0
   11.5553  -16.8088   22.1660 N   0  0  0  0  0  0  0  0  0  0  0  0
   12.5539  -17.2174   23.1027 C   0  0  1  0  0  0  0  0  0  0  0  0
   11.9911  -17.6236   24.4263 C   0  0  0  0  0  0  0  0  0  0  0  0
   12.9506  -17.8094   25.5033 C   0  0  0  0  0  0  0  0  0  0  0  0
   13.5931  -16.8379   25.9964 O   0  0  0  0  0  0  0  0  0  0  0  0
   13.4223  -18.3209   22.5730 C   0  0  0  0  0  0  0  0  0  0  0  0
   12.9103  -19.4266   22.2285 O   0  0  0  0  0  0  0  0  0  0  0  0
   13.2493  -19.0561   26.0857 O   0  0  0  0  0  0  0  0  0  0  0  0
   14.7933  -18.2221   22.4281 O   0  0  0  0  0  0  0  0  0  0  0  0
  1  2  1  0
  2  3  1  0
  3  5  1  0
  3  4  1  6
  5  6  1  1
  7  5  1  0
  7  8  2  0
 10 12  1  0
 10  9  1  0
 11 10  2  0
 13 12  1  6
 13 14  1  0
 13 15  1  0
 14  7  1  0
 15 17  1  0
 16 15  2  0
 17 18  1  0
 18 22  1  0
 18 19  1  1
 20 19  1  0
 20 24  1  0
 21 20  2  0
 22 23  2  0
 22 25  1  0
M  END
$$$$
