IND.pdb
     RDKit          3D

 25 24  0  0  1  0  0  0  0  0999 V2000
    6.2391  -10.6093   26.4643 C   0  0  0  0  0  0  0  0  0  0  0  0
    7.1611  -11.7689   26.9208 C   0  0  0  0  0  0  0  0  0  0  0  0
    6.7387  -12.9636   26.1301 C   0  0  2  0  0  0  0  0  0  0  0  0
    5.2504  -13.1704   26.3784 C   0  0  0  0  0  0  0  0  0  0  0  0
    7.5261  -14.2006   26.2587 C   0  0  2  0  0  0  0  0  0  0  0  0
    8.9482  -13.7700   26.4545 N   0  0  0  0  0  0  0  0  0  0  0  0
    7.5246  -15.1828   25.1896 C   0  0  0  0  0  0  0  0  0  0  0  0
    6.5668  -16.0569   25.1583 O   0  0  0  0  0  0  0  0  0  0  0  0
    9.1672  -16.4440   19.5965 N   0  0  0  0  0  0  0  0  0  0  0  0
    8.2102  -16.6528   20.6432 C   0  0  0  0  0  0  0  0  0  0  0  0
    7.3770  -17.5508   20.4313 O   0  0  0  0  0  0  0  0  0  0  0  0
    8.3373  -15.7905   21.8127 C   0  0  0  0  0  0  0  0  0  0  0  0
    8.3229  -16.4463   23.1527 C   0  0  2  0  0  0  0  0  0  0  0  0
    8.4370  -15.3422   24.1283 N   0  0  0  0  0  0  0  0  0  0  0  0
    9.3537  -17.4616   23.3770 C   0  0  0  0  0  0  0  0  0  0  0  0
    9.1560  -18.6498   23.0393 O   0  0  0  0  0  0  0  0  0  0  0  0
   10.6221  -17.2013   23.9773 N   0  0  0  0  0  0  0  0  0  0  0  0
   11.6394  -18.1676   24.2471 C   0  0  1  0  0  0  0  0  0  0  0  0
   13.0239  -17.6276   24.0882 C   0  0  0  0  0  0  0  0  0  0  0  0
   13.2509  -16.7685   22.9369 C   0  0  0  0  0  0  0  0  0  0  0  0
   12.8849  -17.1049   21.7739 O   0  0  0  0  0  0  0  0  0  0  0  0
   11.5004  -18.7843   25.6083 C   0  0  0  0  0  0  0  0  0  0  0  0
   10.6873  -18.2989   26.4490 O   0  0  0  0  0  0  0  0  0  0  0  0
   13.8835  -15.5125   23.0041 O   0  0  0  0  0  0  0  0  0  0  0  0
   12.2214  -19.8836   26.0349 O   0  0  0  0  0  0  0  0  0  0  0  0
  1  2  1  0
  2  3  1  0
  3  5  1  0
  3  4  1  1
  5  6  1  6
  7  5  1  0
  7  8  2  0
 10 12  1  0
 10  9  1  0
 11 10  2  0
 13 12  1  6
 13 14  1  0
 13 15  1  0
 14  7  1  0
 15 17  1  0
 16 15  2  0
 17 18  1  0
 18 22  1  0
 18 19  1  1
 20 19  1  0
 20 24  1  0
 21 20  2  0
 22 23  2  0
 22 25  1  0
M  END
$$$$
