IND.pdb
     RDKit          3D

 25 24  0  0  1  0  0  0  0  0999 V2000
    6.6813  -11.7971   27.1519 C   0  0  0  0  0  0  0  0  0  0  0  0
    6.0217  -13.0090   26.4452 C   0  0  0  0  0  0  0  0  0  0  0  0
    7.1027  -13.6511   25.6389 C   0  0  2  0  0  0  0  0  0  0  0  0
    7.7351  -12.5648   24.7790 C   0  0  0  0  0  0  0  0  0  0  0  0
    6.7799  -14.8736   24.8852 C   0  0  2  0  0  0  0  0  0  0  0  0
    6.2182  -15.8410   25.8827 N   0  0  0  0  0  0  0  0  0  0  0  0
    7.8175  -15.5761   24.1521 C   0  0  0  0  0  0  0  0  0  0  0  0
    8.3435  -16.6325   24.6903 O   0  0  0  0  0  0  0  0  0  0  0  0
    7.6598  -18.1432   20.5563 N   0  0  0  0  0  0  0  0  0  0  0  0
    7.7918  -16.7206   20.4390 C   0  0  0  0  0  0  0  0  0  0  0  0
    6.7824  -16.1247   20.0250 O   0  0  0  0  0  0  0  0  0  0  0  0
    9.0843  -16.1609   20.8180 C   0  0  0  0  0  0  0  0  0  0  0  0
    9.4147  -16.1227   22.2724 C   0  0  2  0  0  0  0  0  0  0  0  0
    8.3662  -15.2828   22.8884 N   0  0  0  0  0  0  0  0  0  0  0  0
   10.7528  -15.6338   22.6098 C   0  0  0  0  0  0  0  0  0  0  0  0
   11.4492  -15.0503   21.7498 O   0  0  0  0  0  0  0  0  0  0  0  0
   11.3604  -15.7737   23.8937 N   0  0  0  0  0  0  0  0  0  0  0  0
   12.6004  -16.4271   24.1709 C   0  0  1  0  0  0  0  0  0  0  0  0
   12.4393  -17.8645   24.5475 C   0  0  0  0  0  0  0  0  0  0  0  0
   12.5748  -18.1779   25.9612 C   0  0  0  0  0  0  0  0  0  0  0  0
   13.6694  -18.0208   26.5751 O   0  0  0  0  0  0  0  0  0  0  0  0
   13.5748  -16.3181   23.0346 C   0  0  0  0  0  0  0  0  0  0  0  0
   14.8118  -16.1778   23.2657 O   0  0  0  0  0  0  0  0  0  0  0  0
   11.5281  -18.6737   26.7618 O   0  0  0  0  0  0  0  0  0  0  0  0
   13.2130  -16.3577   21.7013 O   0  0  0  0  0  0  0  0  0  0  0  0
  1  2  1  0
  2  3  1  0
  3  5  1  0
  3  4  1  6
  5  6  1  1
  7  5  1  0
  7  8  2  0
 10 12  1  0
 10  9  1  0
 11 10  2  0
 13 12  1  6
 13 14  1  0
 13 15  1  0
 14  7  1  0
 15 17  1  0
 16 15  2  0
 17 18  1  0
 18 22  1  0
 18 19  1  6
 20 19  1  0
 20 24  1  0
 21 20  2  0
 22 23  2  0
 22 25  1  0
M  END
$$$$
