IND.pdb
     RDKit          3D

 25 24  0  0  1  0  0  0  0  0999 V2000
    8.3905  -11.4626   19.1964 C   0  0  0  0  0  0  0  0  0  0  0  0
    9.1763  -12.5499   19.9732 C   0  0  0  0  0  0  0  0  0  0  0  0
    8.2920  -13.7533   20.0007 C   0  0  2  0  0  0  0  0  0  0  0  0
    7.0138  -13.3620   20.7305 C   0  0  0  0  0  0  0  0  0  0  0  0
    8.8607  -15.0278   20.4686 C   0  0  2  0  0  0  0  0  0  0  0  0
    8.9376  -14.9255   21.9619 N   0  0  0  0  0  0  0  0  0  0  0  0
   10.1675  -15.4591   20.0060 C   0  0  0  0  0  0  0  0  0  0  0  0
   10.2265  -16.4226   19.1398 O   0  0  0  0  0  0  0  0  0  0  0  0
   14.9984  -16.0387   18.3328 N   0  0  0  0  0  0  0  0  0  0  0  0
   14.3396  -14.8045   18.0198 C   0  0  0  0  0  0  0  0  0  0  0  0
   14.8611  -14.1390   17.1085 O   0  0  0  0  0  0  0  0  0  0  0  0
   13.1514  -14.4921   18.8058 C   0  0  0  0  0  0  0  0  0  0  0  0
   12.6829  -15.5219   19.7786 C   0  0  2  0  0  0  0  0  0  0  0  0
   11.4407  -14.9719   20.3604 N   0  0  0  0  0  0  0  0  0  0  0  0
   13.6389  -15.8943   20.8230 C   0  0  0  0  0  0  0  0  0  0  0  0
   14.2757  -15.0130   21.4418 O   0  0  0  0  0  0  0  0  0  0  0  0
   13.9217  -17.2378   21.2127 N   0  0  0  0  0  0  0  0  0  0  0  0
   14.8419  -17.6434   22.2277 C   0  0  1  0  0  0  0  0  0  0  0  0
   14.4860  -18.9502   22.8596 C   0  0  0  0  0  0  0  0  0  0  0  0
   13.2082  -19.0028   23.5520 C   0  0  0  0  0  0  0  0  0  0  0  0
   12.7588  -18.0104   24.1946 O   0  0  0  0  0  0  0  0  0  0  0  0
   16.2571  -17.7014   21.7313 C   0  0  0  0  0  0  0  0  0  0  0  0
   17.2019  -17.9787   22.5273 O   0  0  0  0  0  0  0  0  0  0  0  0
   12.3700  -20.1339   23.5735 O   0  0  0  0  0  0  0  0  0  0  0  0
   16.6256  -17.4636   20.4206 O   0  0  0  0  0  0  0  0  0  0  0  0
  1  2  1  0
  2  3  1  0
  3  5  1  0
  3  4  1  1
  5  6  1  1
  7  5  1  0
  7  8  2  0
 10 12  1  0
 10  9  1  0
 11 10  2  0
 13 12  1  6
 13 14  1  0
 13 15  1  0
 14  7  1  0
 15 17  1  0
 16 15  2  0
 17 18  1  0
 18 22  1  0
 18 19  1  6
 20 19  1  0
 20 24  1  0
 21 20  2  0
 22 23  2  0
 22 25  1  0
M  END
$$$$
