IND.pdb
     RDKit          3D

 25 24  0  0  1  0  0  0  0  0999 V2000
    6.5734  -12.3662   19.0681 C   0  0  0  0  0  0  0  0  0  0  0  0
    7.6316  -13.4986   19.0363 C   0  0  0  0  0  0  0  0  0  0  0  0
    7.8263  -13.9173   20.4567 C   0  0  2  0  0  0  0  0  0  0  0  0
    8.1202  -12.6606   21.2652 C   0  0  0  0  0  0  0  0  0  0  0  0
    8.7595  -15.0203   20.7384 C   0  0  2  0  0  0  0  0  0  0  0  0
    8.2943  -16.1803   19.9112 N   0  0  0  0  0  0  0  0  0  0  0  0
    8.9266  -15.5081   22.0956 C   0  0  0  0  0  0  0  0  0  0  0  0
    9.4717  -14.7204   22.9700 O   0  0  0  0  0  0  0  0  0  0  0  0
    6.4067  -16.8239   22.8211 N   0  0  0  0  0  0  0  0  0  0  0  0
    6.4739  -17.8302   23.8400 C   0  0  0  0  0  0  0  0  0  0  0  0
    5.4072  -18.4249   24.0719 O   0  0  0  0  0  0  0  0  0  0  0  0
    7.7761  -18.0240   24.4679 C   0  0  0  0  0  0  0  0  0  0  0  0
    8.8853  -17.1239   24.0373 C   0  0  2  0  0  0  0  0  0  0  0  0
    8.5698  -16.7569   22.6410 N   0  0  0  0  0  0  0  0  0  0  0  0
   10.2359  -17.6781   24.1483 C   0  0  0  0  0  0  0  0  0  0  0  0
   10.6529  -18.1150   25.2439 O   0  0  0  0  0  0  0  0  0  0  0  0
   11.1614  -17.7649   23.0653 N   0  0  0  0  0  0  0  0  0  0  0  0
   12.5183  -18.2041   23.1513 C   0  0  1  0  0  0  0  0  0  0  0  0
   13.1073  -18.5652   21.8260 C   0  0  0  0  0  0  0  0  0  0  0  0
   14.3633  -19.2978   21.8586 C   0  0  0  0  0  0  0  0  0  0  0  0
   14.9167  -19.6204   22.9492 O   0  0  0  0  0  0  0  0  0  0  0  0
   13.4050  -17.2028   23.8322 C   0  0  0  0  0  0  0  0  0  0  0  0
   13.1373  -15.9668   23.7700 O   0  0  0  0  0  0  0  0  0  0  0  0
   15.0660  -19.7077   20.7094 O   0  0  0  0  0  0  0  0  0  0  0  0
   14.5386  -17.5371   24.5488 O   0  0  0  0  0  0  0  0  0  0  0  0
  1  2  1  0
  2  3  1  0
  3  5  1  0
  3  4  1  1
  5  6  1  6
  7  5  1  0
  7  8  2  0
 10 12  1  0
 10  9  1  0
 11 10  2  0
 13 12  1  6
 13 14  1  0
 13 15  1  0
 14  7  1  0
 15 17  1  0
 16 15  2  0
 17 18  1  0
 18 22  1  0
 18 19  1  6
 20 19  1  0
 20 24  1  0
 21 20  2  0
 22 23  2  0
 22 25  1  0
M  END
$$$$
