IND.pdb
     RDKit          3D

 25 24  0  0  1  0  0  0  0  0999 V2000
    6.5721  -10.4169   26.3598 C   0  0  0  0  0  0  0  0  0  0  0  0
    7.4309  -11.6612   26.7017 C   0  0  0  0  0  0  0  0  0  0  0  0
    6.8486  -12.7896   25.9152 C   0  0  2  0  0  0  0  0  0  0  0  0
    5.3678  -12.8693   26.2619 C   0  0  0  0  0  0  0  0  0  0  0  0
    7.5264  -14.0955   25.9599 C   0  0  2  0  0  0  0  0  0  0  0  0
    8.9103  -13.8287   26.4697 N   0  0  0  0  0  0  0  0  0  0  0  0
    7.6659  -14.8887   24.7520 C   0  0  0  0  0  0  0  0  0  0  0  0
    6.7355  -15.7468   24.4684 O   0  0  0  0  0  0  0  0  0  0  0  0
    7.7627  -12.7635   20.9784 N   0  0  0  0  0  0  0  0  0  0  0  0
    7.5519  -14.1697   21.1616 C   0  0  0  0  0  0  0  0  0  0  0  0
    6.3714  -14.5477   21.0674 O   0  0  0  0  0  0  0  0  0  0  0  0
    8.7417  -14.9686   21.4330 C   0  0  0  0  0  0  0  0  0  0  0  0
    8.7311  -15.8193   22.6586 C   0  0  2  0  0  0  0  0  0  0  0  0
    8.6958  -14.8706   23.7913 N   0  0  0  0  0  0  0  0  0  0  0  0
    9.8435  -16.7621   22.7902 C   0  0  0  0  0  0  0  0  0  0  0  0
    9.9887  -17.6893   21.9632 O   0  0  0  0  0  0  0  0  0  0  0  0
   10.8203  -16.7137   23.8297 N   0  0  0  0  0  0  0  0  0  0  0  0
   11.8009  -17.7145   24.1100 C   0  0  1  0  0  0  0  0  0  0  0  0
   13.1469  -17.1492   24.4299 C   0  0  0  0  0  0  0  0  0  0  0  0
   13.7877  -16.3786   23.3761 C   0  0  0  0  0  0  0  0  0  0  0  0
   15.0462  -16.3286   23.2603 O   0  0  0  0  0  0  0  0  0  0  0  0
   11.3776  -18.6419   25.2114 C   0  0  0  0  0  0  0  0  0  0  0  0
   10.3623  -18.3719   25.9183 O   0  0  0  0  0  0  0  0  0  0  0  0
   13.0873  -15.6331   22.4084 O   0  0  0  0  0  0  0  0  0  0  0  0
   12.0372  -19.8140   25.5297 O   0  0  0  0  0  0  0  0  0  0  0  0
  1  2  1  0
  2  3  1  0
  3  5  1  0
  3  4  1  1
  5  6  1  6
  7  5  1  0
  7  8  2  0
 10 12  1  0
 10  9  1  0
 11 10  2  0
 13 12  1  6
 13 14  1  0
 13 15  1  0
 14  7  1  0
 15 17  1  0
 16 15  2  0
 17 18  1  0
 18 22  1  0
 18 19  1  1
 20 19  1  0
 20 24  1  0
 21 20  2  0
 22 23  2  0
 22 25  1  0
M  END
$$$$
