IND.pdb
     RDKit          3D

 25 24  0  0  1  0  0  0  0  0999 V2000
    8.2722  -11.7303   20.0111 C   0  0  0  0  0  0  0  0  0  0  0  0
    7.8494  -12.9037   19.0905 C   0  0  0  0  0  0  0  0  0  0  0  0
    8.8464  -13.9902   19.3277 C   0  0  2  0  0  0  0  0  0  0  0  0
   10.2317  -13.3843   19.1448 C   0  0  0  0  0  0  0  0  0  0  0  0
    8.6722  -15.2662   18.6148 C   0  0  2  0  0  0  0  0  0  0  0  0
    7.2418  -15.6645   18.8184 N   0  0  0  0  0  0  0  0  0  0  0  0
    9.4859  -16.4165   18.9650 C   0  0  0  0  0  0  0  0  0  0  0  0
    9.1172  -17.1478   19.9707 O   0  0  0  0  0  0  0  0  0  0  0  0
   13.6665  -20.2996   16.9842 N   0  0  0  0  0  0  0  0  0  0  0  0
   12.5792  -20.0568   17.8864 C   0  0  0  0  0  0  0  0  0  0  0  0
   12.4044  -20.9279   18.7559 O   0  0  0  0  0  0  0  0  0  0  0  0
   11.8245  -18.8278   17.6685 C   0  0  0  0  0  0  0  0  0  0  0  0
   11.4035  -18.0589   18.8757 C   0  0  2  0  0  0  0  0  0  0  0  0
   10.6639  -16.8901   18.3551 N   0  0  0  0  0  0  0  0  0  0  0  0
   12.4811  -17.6467   19.7771 C   0  0  0  0  0  0  0  0  0  0  0  0
   13.2718  -18.4942   20.2477 O   0  0  0  0  0  0  0  0  0  0  0  0
   12.7169  -16.2998   20.1860 N   0  0  0  0  0  0  0  0  0  0  0  0
   13.7538  -15.8561   21.0632 C   0  0  1  0  0  0  0  0  0  0  0  0
   14.3145  -14.5225   20.6879 C   0  0  0  0  0  0  0  0  0  0  0  0
   14.9609  -14.4395   19.3877 C   0  0  0  0  0  0  0  0  0  0  0  0
   15.7058  -15.3657   18.9552 O   0  0  0  0  0  0  0  0  0  0  0  0
   13.3184  -15.8250   22.4991 C   0  0  0  0  0  0  0  0  0  0  0  0
   14.1066  -15.4036   23.3961 O   0  0  0  0  0  0  0  0  0  0  0  0
   14.8236  -13.3488   18.5081 O   0  0  0  0  0  0  0  0  0  0  0  0
   12.0751  -16.2395   22.9378 O   0  0  0  0  0  0  0  0  0  0  0  0
  1  2  1  0
  2  3  1  0
  3  5  1  0
  3  4  1  6
  5  6  1  1
  7  5  1  0
  7  8  2  0
 10 12  1  0
 10  9  1  0
 11 10  2  0
 13 12  1  6
 13 14  1  0
 13 15  1  0
 14  7  1  0
 15 17  1  0
 16 15  2  0
 17 18  1  0
 18 22  1  0
 18 19  1  6
 20 19  1  0
 20 24  1  0
 21 20  2  0
 22 23  2  0
 22 25  1  0
M  END
$$$$
