SWS.pdb
     RDKit          3D

 27 28  0  0  1  0  0  0  0  0999 V2000
    8.5442  -17.7554   19.9612 O   0  0  0  0  0  0  0  0  0  0  0  0
    7.2802  -17.5965   20.5486 C   0  0  0  0  0  0  0  0  0  0  0  0
    7.1842  -16.1697   21.0233 C   0  0  2  0  0  0  0  0  0  0  0  0
    7.1390  -15.2166   19.9613 N   0  0  0  0  0  0  0  0  0  0  0  0
    8.2370  -15.8291   22.0083 C   0  0  0  0  0  0  0  0  0  0  0  0
    9.1225  -14.9753   21.6849 O   0  0  0  0  0  0  0  0  0  0  0  0
    8.3266  -16.3922   23.2940 N   0  0  0  0  0  0  0  0  0  0  0  0
    9.3824  -16.0175   24.2683 C   0  0  1  0  0  0  0  0  0  0  0  0
    8.6883  -15.9640   25.5713 C   0  0  0  0  0  0  0  0  0  0  0  0
    7.5149  -15.0920   25.6986 C   0  0  0  0  0  0  0  0  0  0  0  0
    6.1821  -15.4314   25.5719 C   0  0  0  0  0  0  0  0  0  0  0  0
    5.4107  -14.3449   25.7521 N   0  0  0  0  0  0  0  0  0  0  0  0
    6.2022  -13.2858   25.9972 C   0  0  0  0  0  0  0  0  0  0  0  0
    5.8951  -11.9668   26.2608 C   0  0  0  0  0  0  0  0  0  0  0  0
    6.9213  -11.0811   26.4992 C   0  0  0  0  0  0  0  0  0  0  0  0
    8.2539  -11.4877   26.4792 C   0  0  0  0  0  0  0  0  0  0  0  0
    8.5051  -12.8231   26.2087 C   0  0  0  0  0  0  0  0  0  0  0  0
    7.5061  -13.7402   25.9653 C   0  0  0  0  0  0  0  0  0  0  0  0
   10.5515  -16.8639   24.1259 C   0  0  0  0  0  0  0  0  0  0  0  0
   10.4312  -18.1256   23.9535 O   0  0  0  0  0  0  0  0  0  0  0  0
   14.4225  -15.3667   23.7971 O   0  0  0  0  0  0  0  0  0  0  0  0
   14.0887  -16.5755   23.2386 C   0  0  0  0  0  0  0  0  0  0  0  0
   12.9988  -17.3009   24.0743 C   0  0  2  0  0  0  0  0  0  0  0  0
   11.8819  -16.3644   24.1575 N   0  0  0  0  0  0  0  0  0  0  0  0
   13.5472  -17.6668   25.3860 C   0  0  0  0  0  0  0  0  0  0  0  0
   14.5819  -18.6005   25.5032 O   0  0  0  0  0  0  0  0  0  0  0  0
   13.1337  -17.1785   26.4608 O   0  0  0  0  0  0  0  0  0  0  0  0
  2  1  1  0
  3  2  1  0
  3  4  1  6
  5  3  1  0
  6  5  2  0
  7  5  1  0
  8  7  1  0
  9 10  1  0
  8  9  1  1
 10 18  1  0
 11 12  1  0
 11 10  2  0
 12 13  1  0
 13 18  2  0
 13 14  1  0
 14 15  2  0
 15 16  1  0
 17 16  2  0
 18 17  1  0
 19 24  1  0
 19  8  1  0
 20 19  2  0
 22 21  1  0
 23 24  1  0
 23 22  1  6
 25 23  1  0
 26 25  1  0
 27 25  2  0
M  END
$$$$
