SWS.pdb
     RDKit          3D

 27 28  0  0  1  0  0  0  0  0999 V2000
    9.9591  -18.8104   19.2180 O   0  0  0  0  0  0  0  0  0  0  0  0
    8.7494  -18.2841   18.7407 C   0  0  0  0  0  0  0  0  0  0  0  0
    8.8911  -16.7842   18.7218 C   0  0  2  0  0  0  0  0  0  0  0  0
    9.8856  -16.3162   17.8107 N   0  0  0  0  0  0  0  0  0  0  0  0
    9.0918  -16.2177   20.0759 C   0  0  0  0  0  0  0  0  0  0  0  0
   10.2551  -15.8242   20.4068 O   0  0  0  0  0  0  0  0  0  0  0  0
    8.0712  -16.0832   21.0342 N   0  0  0  0  0  0  0  0  0  0  0  0
    8.3243  -15.6341   22.4265 C   0  0  1  0  0  0  0  0  0  0  0  0
    6.9812  -15.3978   22.9944 C   0  0  0  0  0  0  0  0  0  0  0  0
    6.8765  -15.0815   24.4236 C   0  0  0  0  0  0  0  0  0  0  0  0
    6.6582  -15.9493   25.4755 C   0  0  0  0  0  0  0  0  0  0  0  0
    6.6198  -15.2683   26.6344 N   0  0  0  0  0  0  0  0  0  0  0  0
    6.8086  -13.9620   26.3772 C   0  0  0  0  0  0  0  0  0  0  0  0
    6.8705  -12.8721   27.2209 C   0  0  0  0  0  0  0  0  0  0  0  0
    7.0986  -11.6267   26.6810 C   0  0  0  0  0  0  0  0  0  0  0  0
    7.2665  -11.4470   25.3096 C   0  0  0  0  0  0  0  0  0  0  0  0
    7.1942  -12.5754   24.5088 C   0  0  0  0  0  0  0  0  0  0  0  0
    6.9679  -13.8383   25.0108 C   0  0  0  0  0  0  0  0  0  0  0  0
    9.2314  -16.5350   23.1113 C   0  0  0  0  0  0  0  0  0  0  0  0
    9.1984  -17.7941   22.8883 O   0  0  0  0  0  0  0  0  0  0  0  0
   13.4869  -17.5107   24.6781 O   0  0  0  0  0  0  0  0  0  0  0  0
   12.5253  -16.7004   24.1274 C   0  0  0  0  0  0  0  0  0  0  0  0
   11.1100  -17.0694   24.6502 C   0  0  2  0  0  0  0  0  0  0  0  0
   10.2046  -16.0946   24.0491 N   0  0  0  0  0  0  0  0  0  0  0  0
   11.1042  -17.0378   26.1179 C   0  0  0  0  0  0  0  0  0  0  0  0
   11.8432  -17.9609   26.8649 O   0  0  0  0  0  0  0  0  0  0  0  0
   10.4519  -16.2019   26.7816 O   0  0  0  0  0  0  0  0  0  0  0  0
  2  1  1  0
  3  2  1  0
  3  4  1  6
  5  3  1  0
  6  5  2  0
  7  5  1  0
  8  7  1  0
  9 10  1  0
  8  9  1  1
 10 18  1  0
 11 12  1  0
 11 10  2  0
 12 13  1  0
 13 18  2  0
 13 14  1  0
 14 15  2  0
 15 16  1  0
 17 16  2  0
 18 17  1  0
 19 24  1  0
 19  8  1  0
 20 19  2  0
 22 21  1  0
 23 24  1  0
 23 22  1  6
 25 23  1  0
 26 25  1  0
 27 25  2  0
M  END
$$$$
