SWS.pdb
     RDKit          3D

 27 28  0  0  1  0  0  0  0  0999 V2000
    8.9908  -17.6843   19.7364 O   0  0  0  0  0  0  0  0  0  0  0  0
    7.7225  -17.6227   20.3329 C   0  0  0  0  0  0  0  0  0  0  0  0
    7.5421  -16.2210   20.8554 C   0  0  2  0  0  0  0  0  0  0  0  0
    7.4690  -15.2334   19.8270 N   0  0  0  0  0  0  0  0  0  0  0  0
    8.5550  -15.8626   21.8753 C   0  0  0  0  0  0  0  0  0  0  0  0
    9.5108  -15.0925   21.5424 O   0  0  0  0  0  0  0  0  0  0  0  0
    8.5328  -16.3214   23.2047 N   0  0  0  0  0  0  0  0  0  0  0  0
    9.5536  -15.9333   24.2105 C   0  0  1  0  0  0  0  0  0  0  0  0
    8.8426  -15.9823   25.5045 C   0  0  0  0  0  0  0  0  0  0  0  0
    7.6273  -15.1748   25.6609 C   0  0  0  0  0  0  0  0  0  0  0  0
    6.3131  -15.5989   25.6404 C   0  0  0  0  0  0  0  0  0  0  0  0
    5.4880  -14.5510   25.8116 N   0  0  0  0  0  0  0  0  0  0  0  0
    6.2255  -13.4347   25.9466 C   0  0  0  0  0  0  0  0  0  0  0  0
    5.8537  -12.1230   26.1578 C   0  0  0  0  0  0  0  0  0  0  0  0
    6.8355  -11.1661   26.2801 C   0  0  0  0  0  0  0  0  0  0  0  0
    8.1870  -11.4940   26.1949 C   0  0  0  0  0  0  0  0  0  0  0  0
    8.5038  -12.8259   25.9814 C   0  0  0  0  0  0  0  0  0  0  0  0
    7.5508  -13.8127   25.8540 C   0  0  0  0  0  0  0  0  0  0  0  0
   10.7717  -16.7030   24.0451 C   0  0  0  0  0  0  0  0  0  0  0  0
   10.7339  -17.9775   23.9433 O   0  0  0  0  0  0  0  0  0  0  0  0
   14.5235  -14.9451   23.5655 O   0  0  0  0  0  0  0  0  0  0  0  0
   14.2552  -16.1683   23.0033 C   0  0  0  0  0  0  0  0  0  0  0  0
   13.2367  -16.9707   23.8586 C   0  0  2  0  0  0  0  0  0  0  0  0
   12.0624  -16.1114   23.9765 N   0  0  0  0  0  0  0  0  0  0  0  0
   13.8402  -17.3083   25.1537 C   0  0  0  0  0  0  0  0  0  0  0  0
   14.9937  -18.0953   25.2317 O   0  0  0  0  0  0  0  0  0  0  0  0
   13.3722  -16.9229   26.2478 O   0  0  0  0  0  0  0  0  0  0  0  0
  2  1  1  0
  3  2  1  0
  3  4  1  6
  5  3  1  0
  6  5  2  0
  7  5  1  0
  8  7  1  0
  9 10  1  0
  8  9  1  1
 10 18  1  0
 11 12  1  0
 11 10  2  0
 12 13  1  0
 13 18  2  0
 13 14  1  0
 14 15  2  0
 15 16  1  0
 17 16  2  0
 18 17  1  0
 19 24  1  0
 19  8  1  0
 20 19  2  0
 22 21  1  0
 23 24  1  0
 23 22  1  6
 25 23  1  0
 26 25  1  0
 27 25  2  0
M  END
$$$$
