SWS.pdb
     RDKit          3D

 27 28  0  0  1  0  0  0  0  0999 V2000
    8.2536  -17.1165   19.4182 O   0  0  0  0  0  0  0  0  0  0  0  0
    7.1566  -17.3206   20.2686 C   0  0  0  0  0  0  0  0  0  0  0  0
    6.9082  -16.0249   20.9963 C   0  0  2  0  0  0  0  0  0  0  0  0
    6.6585  -14.9205   20.1268 N   0  0  0  0  0  0  0  0  0  0  0  0
    7.9769  -15.7106   21.9730 C   0  0  0  0  0  0  0  0  0  0  0  0
    8.8102  -14.7918   21.6916 O   0  0  0  0  0  0  0  0  0  0  0  0
    8.1364  -16.3669   23.2066 N   0  0  0  0  0  0  0  0  0  0  0  0
    9.2099  -16.0219   24.1725 C   0  0  1  0  0  0  0  0  0  0  0  0
    8.5368  -15.9940   25.4872 C   0  0  0  0  0  0  0  0  0  0  0  0
    7.4272  -15.0532   25.6803 C   0  0  0  0  0  0  0  0  0  0  0  0
    6.0721  -15.3002   25.5795 C   0  0  0  0  0  0  0  0  0  0  0  0
    5.3790  -14.1737   25.8218 N   0  0  0  0  0  0  0  0  0  0  0  0
    6.2448  -13.1786   26.0831 C   0  0  0  0  0  0  0  0  0  0  0  0
    6.0325  -11.8536   26.4040 C   0  0  0  0  0  0  0  0  0  0  0  0
    7.1208  -11.0463   26.6454 C   0  0  0  0  0  0  0  0  0  0  0  0
    8.4226  -11.5375   26.5721 C   0  0  0  0  0  0  0  0  0  0  0  0
    8.5780  -12.8750   26.2454 C   0  0  0  0  0  0  0  0  0  0  0  0
    7.5147  -13.7151   25.9970 C   0  0  0  0  0  0  0  0  0  0  0  0
   10.3707  -16.8724   23.9921 C   0  0  0  0  0  0  0  0  0  0  0  0
   10.2617  -18.1465   24.0223 O   0  0  0  0  0  0  0  0  0  0  0  0
   13.9859  -15.2482   23.1844 O   0  0  0  0  0  0  0  0  0  0  0  0
   13.8854  -16.5744   22.8446 C   0  0  0  0  0  0  0  0  0  0  0  0
   12.8032  -17.2940   23.6954 C   0  0  2  0  0  0  0  0  0  0  0  0
   11.6790  -16.3651   23.7650 N   0  0  0  0  0  0  0  0  0  0  0  0
   13.3576  -17.6325   25.0120 C   0  0  0  0  0  0  0  0  0  0  0  0
   14.4772  -18.4617   25.1347 O   0  0  0  0  0  0  0  0  0  0  0  0
   12.8751  -17.2111   26.0864 O   0  0  0  0  0  0  0  0  0  0  0  0
  2  1  1  0
  3  2  1  0
  3  4  1  6
  5  3  1  0
  6  5  2  0
  7  5  1  0
  8  7  1  0
  9 10  1  0
  8  9  1  1
 10 18  1  0
 11 12  1  0
 11 10  2  0
 12 13  1  0
 13 18  2  0
 13 14  1  0
 14 15  2  0
 15 16  1  0
 17 16  2  0
 18 17  1  0
 19 24  1  0
 19  8  1  0
 20 19  2  0
 22 21  1  0
 23 24  1  0
 23 22  1  6
 25 23  1  0
 26 25  1  0
 27 25  2  0
M  END
$$$$
