SWS.pdb
     RDKit          3D

 27 28  0  0  1  0  0  0  0  0999 V2000
    7.4742  -21.7511   23.2218 O   0  0  0  0  0  0  0  0  0  0  0  0
    6.1601  -21.3073   23.4323 C   0  0  0  0  0  0  0  0  0  0  0  0
    5.8674  -20.2646   22.3848 C   0  0  2  0  0  0  0  0  0  0  0  0
    5.8774  -20.7759   21.0519 N   0  0  0  0  0  0  0  0  0  0  0  0
    6.7403  -19.0744   22.5117 C   0  0  0  0  0  0  0  0  0  0  0  0
    7.6636  -18.9002   21.6545 O   0  0  0  0  0  0  0  0  0  0  0  0
    6.6175  -18.1105   23.5285 N   0  0  0  0  0  0  0  0  0  0  0  0
    7.4789  -16.9037   23.6062 C   0  0  1  0  0  0  0  0  0  0  0  0
    6.6508  -15.8959   24.2997 C   0  0  0  0  0  0  0  0  0  0  0  0
    7.2279  -14.5682   24.5402 C   0  0  0  0  0  0  0  0  0  0  0  0
    8.2506  -13.9454   23.8521 C   0  0  0  0  0  0  0  0  0  0  0  0
    8.4943  -12.7350   24.3848 N   0  0  0  0  0  0  0  0  0  0  0  0
    7.6537  -12.5367   25.4155 C   0  0  0  0  0  0  0  0  0  0  0  0
    7.4976  -11.4594   26.2632 C   0  0  0  0  0  0  0  0  0  0  0  0
    6.5276  -11.5167   27.2380 C   0  0  0  0  0  0  0  0  0  0  0  0
    5.7070  -12.6332   27.3844 C   0  0  0  0  0  0  0  0  0  0  0  0
    5.9074  -13.6865   26.5067 C   0  0  0  0  0  0  0  0  0  0  0  0
    6.8669  -13.6673   25.5182 C   0  0  0  0  0  0  0  0  0  0  0  0
    8.7886  -17.2279   24.1382 C   0  0  0  0  0  0  0  0  0  0  0  0
    8.9152  -18.0282   25.1279 O   0  0  0  0  0  0  0  0  0  0  0  0
   12.2414  -15.8132   22.3838 O   0  0  0  0  0  0  0  0  0  0  0  0
   12.2830  -17.0544   22.9687 C   0  0  0  0  0  0  0  0  0  0  0  0
   11.2741  -17.1572   24.1453 C   0  0  2  0  0  0  0  0  0  0  0  0
    9.9966  -16.7005   23.6061 N   0  0  0  0  0  0  0  0  0  0  0  0
   11.7499  -16.3470   25.2734 C   0  0  0  0  0  0  0  0  0  0  0  0
   12.9445  -16.6546   25.9326 O   0  0  0  0  0  0  0  0  0  0  0  0
   11.1315  -15.3509   25.7092 O   0  0  0  0  0  0  0  0  0  0  0  0
  2  1  1  0
  3  2  1  0
  3  4  1  6
  5  3  1  0
  6  5  2  0
  7  5  1  0
  8  7  1  0
  9 10  1  0
  8  9  1  1
 10 18  1  0
 11 12  1  0
 11 10  2  0
 12 13  1  0
 13 18  2  0
 13 14  1  0
 14 15  2  0
 15 16  1  0
 17 16  2  0
 18 17  1  0
 19 24  1  0
 19  8  1  0
 20 19  2  0
 22 21  1  0
 23 24  1  0
 23 22  1  6
 25 23  1  0
 26 25  1  0
 27 25  2  0
M  END
$$$$
