SWS.pdb
     RDKit          3D

 27 28  0  0  1  0  0  0  0  0999 V2000
    7.6711  -20.6446   22.2868 O   0  0  0  0  0  0  0  0  0  0  0  0
    6.8253  -20.6223   23.4058 C   0  0  0  0  0  0  0  0  0  0  0  0
    6.1149  -19.2936   23.4026 C   0  0  2  0  0  0  0  0  0  0  0  0
    5.1597  -19.1595   22.3501 N   0  0  0  0  0  0  0  0  0  0  0  0
    7.0553  -18.1491   23.4254 C   0  0  0  0  0  0  0  0  0  0  0  0
    7.1582  -17.4225   22.3867 O   0  0  0  0  0  0  0  0  0  0  0  0
    7.8536  -17.8057   24.5314 N   0  0  0  0  0  0  0  0  0  0  0  0
    8.8089  -16.6694   24.5164 C   0  0  1  0  0  0  0  0  0  0  0  0
    8.6407  -16.0206   25.8330 C   0  0  0  0  0  0  0  0  0  0  0  0
    7.5235  -15.0857   26.0095 C   0  0  0  0  0  0  0  0  0  0  0  0
    6.1907  -15.3795   26.2210 C   0  0  0  0  0  0  0  0  0  0  0  0
    5.4791  -14.2433   26.3251 N   0  0  0  0  0  0  0  0  0  0  0  0
    6.3108  -13.1956   26.1876 C   0  0  0  0  0  0  0  0  0  0  0  0
    6.0724  -11.8374   26.2323 C   0  0  0  0  0  0  0  0  0  0  0  0
    7.1314  -10.9720   26.0772 C   0  0  0  0  0  0  0  0  0  0  0  0
    8.4293  -11.4376   25.8771 C   0  0  0  0  0  0  0  0  0  0  0  0
    8.6116  -12.8106   25.8402 C   0  0  0  0  0  0  0  0  0  0  0  0
    7.5780  -13.7090   25.9915 C   0  0  0  0  0  0  0  0  0  0  0  0
   10.1313  -17.1016   24.1067 C   0  0  0  0  0  0  0  0  0  0  0  0
   10.5795  -18.2513   24.4432 O   0  0  0  0  0  0  0  0  0  0  0  0
   11.9482  -16.1388   20.6950 O   0  0  0  0  0  0  0  0  0  0  0  0
   12.7988  -15.9748   21.7599 C   0  0  0  0  0  0  0  0  0  0  0  0
   12.3317  -16.8038   22.9875 C   0  0  2  0  0  0  0  0  0  0  0  0
   10.9997  -16.3030   23.3137 N   0  0  0  0  0  0  0  0  0  0  0  0
   13.2952  -16.6447   24.0838 C   0  0  0  0  0  0  0  0  0  0  0  0
   14.6220  -17.0657   23.9483 O   0  0  0  0  0  0  0  0  0  0  0  0
   12.9987  -16.1339   25.1864 O   0  0  0  0  0  0  0  0  0  0  0  0
  2  1  1  0
  3  2  1  0
  3  4  1  6
  5  3  1  0
  6  5  2  0
  7  5  1  0
  8  7  1  0
  9 10  1  0
  8  9  1  1
 10 18  1  0
 11 12  1  0
 11 10  2  0
 12 13  1  0
 13 18  2  0
 13 14  1  0
 14 15  2  0
 15 16  1  0
 17 16  2  0
 18 17  1  0
 19 24  1  0
 19  8  1  0
 20 19  2  0
 22 21  1  0
 23 24  1  0
 23 22  1  6
 25 23  1  0
 26 25  1  0
 27 25  2  0
M  END
$$$$
