SWS.pdb
     RDKit          3D

 27 28  0  0  1  0  0  0  0  0999 V2000
    8.6674  -17.1635   19.6504 O   0  0  0  0  0  0  0  0  0  0  0  0
    7.4376  -17.1659   20.3254 C   0  0  0  0  0  0  0  0  0  0  0  0
    7.2846  -15.8174   20.9800 C   0  0  2  0  0  0  0  0  0  0  0  0
    7.1521  -14.7429   20.0494 N   0  0  0  0  0  0  0  0  0  0  0  0
    8.3528  -15.5443   21.9695 C   0  0  0  0  0  0  0  0  0  0  0  0
    9.2030  -14.6335   21.7145 O   0  0  0  0  0  0  0  0  0  0  0  0
    8.4940  -16.2322   23.1882 N   0  0  0  0  0  0  0  0  0  0  0  0
    9.5468  -15.9056   24.1828 C   0  0  1  0  0  0  0  0  0  0  0  0
    8.8663  -15.9921   25.4912 C   0  0  0  0  0  0  0  0  0  0  0  0
    7.6553  -15.1898   25.6994 C   0  0  0  0  0  0  0  0  0  0  0  0
    6.3398  -15.6100   25.6792 C   0  0  0  0  0  0  0  0  0  0  0  0
    5.5200  -14.5688   25.9069 N   0  0  0  0  0  0  0  0  0  0  0  0
    6.2622  -13.4608   26.0794 C   0  0  0  0  0  0  0  0  0  0  0  0
    5.8968  -12.1587   26.3521 C   0  0  0  0  0  0  0  0  0  0  0  0
    6.8826  -11.2099   26.5016 C   0  0  0  0  0  0  0  0  0  0  0  0
    8.2319  -11.5365   26.3833 C   0  0  0  0  0  0  0  0  0  0  0  0
    8.5423  -12.8586   26.1082 C   0  0  0  0  0  0  0  0  0  0  0  0
    7.5851  -13.8371   25.9519 C   0  0  0  0  0  0  0  0  0  0  0  0
   10.7438  -16.6926   23.9568 C   0  0  0  0  0  0  0  0  0  0  0  0
   10.6784  -17.9629   23.8220 O   0  0  0  0  0  0  0  0  0  0  0  0
   14.4746  -14.9792   23.3556 O   0  0  0  0  0  0  0  0  0  0  0  0
   14.2058  -16.2171   22.8267 C   0  0  0  0  0  0  0  0  0  0  0  0
   13.1989  -17.0018   23.7115 C   0  0  2  0  0  0  0  0  0  0  0  0
   12.0427  -16.1230   23.8616 N   0  0  0  0  0  0  0  0  0  0  0  0
   13.8332  -17.3484   24.9893 C   0  0  0  0  0  0  0  0  0  0  0  0
   13.2556  -16.9783   26.2082 O   0  0  0  0  0  0  0  0  0  0  0  0
   14.9081  -17.9830   25.0697 O   0  0  0  0  0  0  0  0  0  0  0  0
  2  1  1  0
  3  2  1  0
  3  4  1  6
  5  3  1  0
  6  5  2  0
  7  5  1  0
  8  7  1  0
  9 10  1  0
  8  9  1  1
 10 18  1  0
 11 12  1  0
 11 10  2  0
 12 13  1  0
 13 18  2  0
 13 14  1  0
 14 15  2  0
 15 16  1  0
 17 16  2  0
 18 17  1  0
 19 24  1  0
 19  8  1  0
 20 19  2  0
 22 21  1  0
 23 24  1  0
 23 22  1  6
 25 23  1  0
 26 25  1  0
 27 25  2  0
M  END
$$$$
