SWS.pdb
     RDKit          3D

 27 28  0  0  1  0  0  0  0  0999 V2000
   10.8634  -18.9484   19.4670 O   0  0  0  0  0  0  0  0  0  0  0  0
    9.5390  -18.5208   19.2901 C   0  0  0  0  0  0  0  0  0  0  0  0
    9.5688  -17.0212   19.1475 C   0  0  2  0  0  0  0  0  0  0  0  0
   10.5572  -16.5546   18.2291 N   0  0  0  0  0  0  0  0  0  0  0  0
    9.6784  -16.3307   20.4536 C   0  0  0  0  0  0  0  0  0  0  0  0
   10.7987  -15.8293   20.7870 O   0  0  0  0  0  0  0  0  0  0  0  0
    8.6150  -16.1894   21.3632 N   0  0  0  0  0  0  0  0  0  0  0  0
    8.7831  -15.6066   22.7184 C   0  0  1  0  0  0  0  0  0  0  0  0
    7.4280  -15.1651   23.1074 C   0  0  0  0  0  0  0  0  0  0  0  0
    7.1799  -14.8427   24.5174 C   0  0  0  0  0  0  0  0  0  0  0  0
    6.9381  -15.7135   25.5617 C   0  0  0  0  0  0  0  0  0  0  0  0
    6.7519  -15.0253   26.7018 N   0  0  0  0  0  0  0  0  0  0  0  0
    6.8650  -13.7113   26.4397 C   0  0  0  0  0  0  0  0  0  0  0  0
    6.7749  -12.6111   27.2673 C   0  0  0  0  0  0  0  0  0  0  0  0
    6.9554  -11.3578   26.7277 C   0  0  0  0  0  0  0  0  0  0  0  0
    7.2248  -11.1802   25.3723 C   0  0  0  0  0  0  0  0  0  0  0  0
    7.3038  -12.3191   24.5871 C   0  0  0  0  0  0  0  0  0  0  0  0
    7.1295  -13.5902   25.0894 C   0  0  0  0  0  0  0  0  0  0  0  0
    9.5086  -16.5095   23.5911 C   0  0  0  0  0  0  0  0  0  0  0  0
    9.2525  -17.7627   23.5980 O   0  0  0  0  0  0  0  0  0  0  0  0
   13.0820  -15.5141   25.1111 O   0  0  0  0  0  0  0  0  0  0  0  0
   12.7491  -16.8419   25.0083 C   0  0  0  0  0  0  0  0  0  0  0  0
   11.2381  -17.0677   25.2883 C   0  0  2  0  0  0  0  0  0  0  0  0
   10.5374  -16.0799   24.4729 N   0  0  0  0  0  0  0  0  0  0  0  0
   10.9772  -16.9227   26.7257 C   0  0  0  0  0  0  0  0  0  0  0  0
   11.6037  -17.7512   27.6624 O   0  0  0  0  0  0  0  0  0  0  0  0
   10.1946  -16.0679   27.1962 O   0  0  0  0  0  0  0  0  0  0  0  0
  2  1  1  0
  3  2  1  0
  3  4  1  6
  5  3  1  0
  6  5  2  0
  7  5  1  0
  8  7  1  0
  9 10  1  0
  8  9  1  1
 10 18  1  0
 11 12  1  0
 11 10  2  0
 12 13  1  0
 13 18  2  0
 13 14  1  0
 14 15  2  0
 15 16  1  0
 17 16  2  0
 18 17  1  0
 19 24  1  0
 19  8  1  0
 20 19  2  0
 22 21  1  0
 23 24  1  0
 23 22  1  1
 25 23  1  0
 26 25  1  0
 27 25  2  0
M  END
$$$$
