SWS.pdb
     RDKit          3D

 27 28  0  0  1  0  0  0  0  0999 V2000
    8.7424  -16.8766   19.9140 O   0  0  0  0  0  0  0  0  0  0  0  0
    7.3974  -16.7327   20.2863 C   0  0  0  0  0  0  0  0  0  0  0  0
    7.2802  -15.4368   21.0459 C   0  0  2  0  0  0  0  0  0  0  0  0
    7.1933  -14.2873   20.2037 N   0  0  0  0  0  0  0  0  0  0  0  0
    8.3449  -15.2793   22.0639 C   0  0  0  0  0  0  0  0  0  0  0  0
    9.2251  -14.3775   21.8924 O   0  0  0  0  0  0  0  0  0  0  0  0
    8.4514  -16.0690   23.2229 N   0  0  0  0  0  0  0  0  0  0  0  0
    9.4832  -15.8388   24.2654 C   0  0  1  0  0  0  0  0  0  0  0  0
    8.7507  -15.9312   25.5450 C   0  0  0  0  0  0  0  0  0  0  0  0
    7.5682  -15.0826   25.7319 C   0  0  0  0  0  0  0  0  0  0  0  0
    6.2376  -15.4448   25.6552 C   0  0  0  0  0  0  0  0  0  0  0  0
    5.4550  -14.3750   25.8816 N   0  0  0  0  0  0  0  0  0  0  0  0
    6.2369  -13.3048   26.1085 C   0  0  0  0  0  0  0  0  0  0  0  0
    5.9176  -11.9951   26.4023 C   0  0  0  0  0  0  0  0  0  0  0  0
    6.9368  -11.0939   26.6106 C   0  0  0  0  0  0  0  0  0  0  0  0
    8.2744  -11.4756   26.5306 C   0  0  0  0  0  0  0  0  0  0  0  0
    8.5380  -12.8027   26.2320 C   0  0  0  0  0  0  0  0  0  0  0  0
    7.5464  -13.7348   26.0171 C   0  0  0  0  0  0  0  0  0  0  0  0
   10.6413  -16.6854   24.0526 C   0  0  0  0  0  0  0  0  0  0  0  0
   10.5469  -17.9586   24.1314 O   0  0  0  0  0  0  0  0  0  0  0  0
   14.3973  -15.0698   23.6867 O   0  0  0  0  0  0  0  0  0  0  0  0
   14.2285  -16.2768   23.0550 C   0  0  0  0  0  0  0  0  0  0  0  0
   13.0683  -17.0894   23.6923 C   0  0  2  0  0  0  0  0  0  0  0  0
   11.9308  -16.1754   23.7399 N   0  0  0  0  0  0  0  0  0  0  0  0
   13.4772  -17.5751   25.0160 C   0  0  0  0  0  0  0  0  0  0  0  0
   14.5112  -18.5061   25.1579 O   0  0  0  0  0  0  0  0  0  0  0  0
   12.9391  -17.1966   26.0799 O   0  0  0  0  0  0  0  0  0  0  0  0
  2  1  1  0
  3  2  1  0
  3  4  1  6
  5  3  1  0
  6  5  2  0
  7  5  1  0
  8  7  1  0
  9 10  1  0
  8  9  1  1
 10 18  1  0
 11 12  1  0
 11 10  2  0
 12 13  1  0
 13 18  2  0
 13 14  1  0
 14 15  2  0
 15 16  1  0
 17 16  2  0
 18 17  1  0
 19 24  1  0
 19  8  1  0
 20 19  2  0
 22 21  1  0
 23 24  1  0
 23 22  1  1
 25 23  1  0
 26 25  1  0
 27 25  2  0
M  END
$$$$
