SWS.pdb
     RDKit          3D

 27 28  0  0  1  0  0  0  0  0999 V2000
   10.3326  -18.9328   19.2259 O   0  0  0  0  0  0  0  0  0  0  0  0
    9.0760  -18.3982   18.9046 C   0  0  0  0  0  0  0  0  0  0  0  0
    9.2287  -16.9003   18.8484 C   0  0  2  0  0  0  0  0  0  0  0  0
   10.2611  -16.4646   17.9638 N   0  0  0  0  0  0  0  0  0  0  0  0
    9.3806  -16.2962   20.1925 C   0  0  0  0  0  0  0  0  0  0  0  0
   10.5150  -15.8284   20.5270 O   0  0  0  0  0  0  0  0  0  0  0  0
    8.3431  -16.2030   21.1375 N   0  0  0  0  0  0  0  0  0  0  0  0
    8.5443  -15.6690   22.5082 C   0  0  1  0  0  0  0  0  0  0  0  0
    7.2019  -15.2284   22.9398 C   0  0  0  0  0  0  0  0  0  0  0  0
    6.9954  -14.9167   24.3588 C   0  0  0  0  0  0  0  0  0  0  0  0
    6.6559  -15.7809   25.3813 C   0  0  0  0  0  0  0  0  0  0  0  0
    6.5528  -15.1061   26.5398 N   0  0  0  0  0  0  0  0  0  0  0  0
    6.8172  -13.8076   26.3115 C   0  0  0  0  0  0  0  0  0  0  0  0
    6.8569  -12.7267   27.1679 C   0  0  0  0  0  0  0  0  0  0  0  0
    7.1808  -11.4890   26.6603 C   0  0  0  0  0  0  0  0  0  0  0  0
    7.4667  -11.3081   25.3087 C   0  0  0  0  0  0  0  0  0  0  0  0
    7.4115  -12.4273   24.4938 C   0  0  0  0  0  0  0  0  0  0  0  0
    7.0917  -13.6824   24.9636 C   0  0  0  0  0  0  0  0  0  0  0  0
    9.2780  -16.6084   23.3343 C   0  0  0  0  0  0  0  0  0  0  0  0
    9.0451  -17.8642   23.2654 O   0  0  0  0  0  0  0  0  0  0  0  0
   12.6980  -16.5793   23.4784 O   0  0  0  0  0  0  0  0  0  0  0  0
   12.4877  -17.0335   24.7566 C   0  0  0  0  0  0  0  0  0  0  0  0
   10.9739  -17.2307   25.0431 C   0  0  2  0  0  0  0  0  0  0  0  0
   10.2902  -16.2128   24.2507 N   0  0  0  0  0  0  0  0  0  0  0  0
   10.7259  -17.1063   26.4847 C   0  0  0  0  0  0  0  0  0  0  0  0
   11.3570  -17.9511   27.4034 O   0  0  0  0  0  0  0  0  0  0  0  0
    9.9507  -16.2556   26.9747 O   0  0  0  0  0  0  0  0  0  0  0  0
  2  1  1  0
  3  2  1  0
  3  4  1  6
  5  3  1  0
  6  5  2  0
  7  5  1  0
  8  7  1  0
  9 10  1  0
  8  9  1  1
 10 18  1  0
 11 12  1  0
 11 10  2  0
 12 13  1  0
 13 18  2  0
 13 14  1  0
 14 15  2  0
 15 16  1  0
 17 16  2  0
 18 17  1  0
 19 24  1  0
 19  8  1  0
 20 19  2  0
 22 21  1  0
 23 24  1  0
 23 22  1  1
 25 23  1  0
 26 25  1  0
 27 25  2  0
M  END
$$$$
