SWS.pdb
     RDKit          3D

 27 28  0  0  1  0  0  0  0  0999 V2000
    8.7850  -16.7498   19.2477 O   0  0  0  0  0  0  0  0  0  0  0  0
    7.4779  -16.9613   19.7111 C   0  0  0  0  0  0  0  0  0  0  0  0
    7.1113  -15.7788   20.5698 C   0  0  2  0  0  0  0  0  0  0  0  0
    6.8376  -14.5936   19.8224 N   0  0  0  0  0  0  0  0  0  0  0  0
    8.1066  -15.5245   21.6373 C   0  0  0  0  0  0  0  0  0  0  0  0
    8.9639  -14.6009   21.4654 O   0  0  0  0  0  0  0  0  0  0  0  0
    8.1702  -16.2437   22.8443 N   0  0  0  0  0  0  0  0  0  0  0  0
    9.1741  -15.9612   23.9011 C   0  0  1  0  0  0  0  0  0  0  0  0
    8.4378  -16.1257   25.1713 C   0  0  0  0  0  0  0  0  0  0  0  0
    7.4094  -15.1358   25.5118 C   0  0  0  0  0  0  0  0  0  0  0  0
    6.0457  -15.3256   25.6204 C   0  0  0  0  0  0  0  0  0  0  0  0
    5.4436  -14.1675   25.9437 N   0  0  0  0  0  0  0  0  0  0  0  0
    6.3786  -13.2075   26.0537 C   0  0  0  0  0  0  0  0  0  0  0  0
    6.2713  -11.8709   26.3786 C   0  0  0  0  0  0  0  0  0  0  0  0
    7.4155  -11.1083   26.4389 C   0  0  0  0  0  0  0  0  0  0  0  0
    8.6703  -11.6558   26.1797 C   0  0  0  0  0  0  0  0  0  0  0  0
    8.7200  -13.0025   25.8577 C   0  0  0  0  0  0  0  0  0  0  0  0
    7.5980  -13.7991   25.7873 C   0  0  0  0  0  0  0  0  0  0  0  0
   10.3896  -16.7226   23.6865 C   0  0  0  0  0  0  0  0  0  0  0  0
   10.3416  -17.9359   23.2842 O   0  0  0  0  0  0  0  0  0  0  0  0
   13.6791  -15.8181   21.9628 O   0  0  0  0  0  0  0  0  0  0  0  0
   13.9958  -16.2385   23.2306 C   0  0  0  0  0  0  0  0  0  0  0  0
   12.8452  -17.0783   23.8499 C   0  0  2  0  0  0  0  0  0  0  0  0
   11.6899  -16.1868   23.8934 N   0  0  0  0  0  0  0  0  0  0  0  0
   13.2503  -17.5668   25.1738 C   0  0  0  0  0  0  0  0  0  0  0  0
   14.2548  -18.5299   25.3139 O   0  0  0  0  0  0  0  0  0  0  0  0
   12.7347  -17.1627   26.2394 O   0  0  0  0  0  0  0  0  0  0  0  0
  2  1  1  0
  3  2  1  0
  3  4  1  6
  5  3  1  0
  6  5  2  0
  7  5  1  0
  8  7  1  0
  9 10  1  0
  8  9  1  1
 10 18  1  0
 11 12  1  0
 11 10  2  0
 12 13  1  0
 13 18  2  0
 13 14  1  0
 14 15  2  0
 15 16  1  0
 17 16  2  0
 18 17  1  0
 19 24  1  0
 19  8  1  0
 20 19  2  0
 22 21  1  0
 23 24  1  0
 23 22  1  1
 25 23  1  0
 26 25  1  0
 27 25  2  0
M  END
$$$$
