SWS.pdb
     RDKit          3D

 27 28  0  0  1  0  0  0  0  0999 V2000
    8.3284  -17.5590   19.8795 O   0  0  0  0  0  0  0  0  0  0  0  0
    7.0520  -17.2954   20.3987 C   0  0  0  0  0  0  0  0  0  0  0  0
    7.0613  -15.8779   20.9094 C   0  0  2  0  0  0  0  0  0  0  0  0
    7.0564  -14.8973   19.8718 N   0  0  0  0  0  0  0  0  0  0  0  0
    8.1556  -15.6324   21.8773 C   0  0  0  0  0  0  0  0  0  0  0  0
    9.0556  -14.7845   21.5794 O   0  0  0  0  0  0  0  0  0  0  0  0
    8.2701  -16.2810   23.1200 N   0  0  0  0  0  0  0  0  0  0  0  0
    9.3195  -15.9427   24.1143 C   0  0  1  0  0  0  0  0  0  0  0  0
    8.6239  -15.9688   25.4174 C   0  0  0  0  0  0  0  0  0  0  0  0
    7.5132  -15.0339   25.6313 C   0  0  0  0  0  0  0  0  0  0  0  0
    6.1578  -15.2957   25.5887 C   0  0  0  0  0  0  0  0  0  0  0  0
    5.4632  -14.1701   25.8314 N   0  0  0  0  0  0  0  0  0  0  0  0
    6.3283  -13.1612   26.0358 C   0  0  0  0  0  0  0  0  0  0  0  0
    6.1152  -11.8310   26.3337 C   0  0  0  0  0  0  0  0  0  0  0  0
    7.2038  -11.0083   26.5140 C   0  0  0  0  0  0  0  0  0  0  0  0
    8.5067  -11.4891   26.4018 C   0  0  0  0  0  0  0  0  0  0  0  0
    8.6629  -12.8325   26.1005 C   0  0  0  0  0  0  0  0  0  0  0  0
    7.5993  -13.6879   25.9131 C   0  0  0  0  0  0  0  0  0  0  0  0
   10.5013  -16.7627   23.9289 C   0  0  0  0  0  0  0  0  0  0  0  0
   10.3997  -18.0080   23.6554 O   0  0  0  0  0  0  0  0  0  0  0  0
   14.3327  -15.2083   23.6488 O   0  0  0  0  0  0  0  0  0  0  0  0
   14.0301  -16.4277   23.0959 C   0  0  0  0  0  0  0  0  0  0  0  0
   12.9537  -17.1739   23.9309 C   0  0  2  0  0  0  0  0  0  0  0  0
   11.8247  -16.2530   24.0259 N   0  0  0  0  0  0  0  0  0  0  0  0
   13.5127  -17.5420   25.2375 C   0  0  0  0  0  0  0  0  0  0  0  0
   14.5774  -18.4431   25.3415 O   0  0  0  0  0  0  0  0  0  0  0  0
   13.0826  -17.0843   26.3192 O   0  0  0  0  0  0  0  0  0  0  0  0
  2  1  1  0
  3  2  1  0
  3  4  1  6
  5  3  1  0
  6  5  2  0
  7  5  1  0
  8  7  1  0
  9 10  1  0
  8  9  1  1
 10 18  1  0
 11 12  1  0
 11 10  2  0
 12 13  1  0
 13 18  2  0
 13 14  1  0
 14 15  2  0
 15 16  1  0
 17 16  2  0
 18 17  1  0
 19 24  1  0
 19  8  1  0
 20 19  2  0
 22 21  1  0
 23 24  1  0
 23 22  1  6
 25 23  1  0
 26 25  1  0
 27 25  2  0
M  END
$$$$
