PWC.pdb
     RDKit          3D

 28 30  0  0  1  0  0  0  0  0999 V2000
   29.0371  -20.8317  -15.2209 N   0  0  0  0  0  0  0  0  0  0  0  0
   28.2384  -20.6223  -16.3978 C   0  0  0  0  0  0  0  0  0  0  0  0
   27.7777  -19.1989  -16.4230 C   0  0  0  0  0  0  0  0  0  0  0  0
   28.1072  -18.6591  -15.0700 C   0  0  0  0  0  0  0  0  0  0  0  0
   28.7594  -19.7791  -14.2997 C   0  0  1  0  0  0  0  0  0  0  0  0
   27.9192  -20.2775  -13.1894 C   0  0  0  0  0  0  0  0  0  0  0  0
   27.3013  -21.3554  -13.3252 O   0  0  0  0  0  0  0  0  0  0  0  0
   27.7883  -19.5712  -11.9675 N   0  0  0  0  0  0  0  0  0  0  0  0
   26.9518  -20.0221  -10.8801 C   0  0  1  0  0  0  0  0  0  0  0  0
   27.1188  -19.1517   -9.6487 C   0  0  0  0  0  0  0  0  0  0  0  0
   26.5317  -19.8879   -8.4995 C   0  0  0  0  0  0  0  0  0  0  0  0
   25.3177  -20.5557   -8.5260 C   0  0  0  0  0  0  0  0  0  0  0  0
   25.1562  -21.0758   -7.3094 N   0  0  0  0  0  0  0  0  0  0  0  0
   26.2009  -20.7769   -6.5067 C   0  0  0  0  0  0  0  0  0  0  0  0
   26.5262  -21.0622   -5.1914 C   0  0  0  0  0  0  0  0  0  0  0  0
   27.7054  -20.6140   -4.6045 C   0  0  0  0  0  0  0  0  0  0  0  0
   28.5849  -19.8550   -5.3637 C   0  0  0  0  0  0  0  0  0  0  0  0
   28.2446  -19.5842   -6.6613 C   0  0  0  0  0  0  0  0  0  0  0  0
   27.0865  -20.0216   -7.2460 C   0  0  0  0  0  0  0  0  0  0  0  0
   25.5222  -20.1172  -11.2875 C   0  0  0  0  0  0  0  0  0  0  0  0
   24.9709  -19.1050  -11.7925 O   0  0  0  0  0  0  0  0  0  0  0  0
   24.7766  -21.3132  -11.1195 N   0  0  0  0  0  0  0  0  0  0  0  0
   23.4788  -21.5326  -11.6825 C   0  0  1  0  0  0  0  0  0  0  0  0
   23.2015  -22.9521  -12.0661 C   0  0  0  0  0  0  0  0  0  0  0  0
   21.4796  -23.0801  -12.6282 S   0  0  0  0  0  0  0  0  0  0  0  0
   22.3924  -21.0234  -10.7746 C   0  0  0  0  0  0  0  0  0  0  0  0
   22.5010  -21.0234   -9.5383 O   0  0  0  0  0  0  0  0  0  0  0  0
   21.2331  -20.5402  -11.3692 O   0  0  0  0  0  0  0  0  0  0  0  0
  1  2  1  0
  3  2  1  0
  4  5  1  0
  4  3  1  0
  5  1  1  0
  6  8  1  0
  5  6  1  1
  7  6  2  0
  9  8  1  0
 10 11  1  0
  9 10  1  1
 11 12  2  0
 11 19  1  0
 12 13  1  0
 13 14  1  0
 14 15  2  0
 15 16  1  0
 17 16  2  0
 18 17  1  0
 19 18  2  0
 19 14  1  0
 20  9  1  0
 20 21  2  0
 22 20  1  0
 23 24  1  1
 23 22  1  0
 25 24  1  0
 26 23  1  0
 27 26  2  0
 28 26  1  0
M  END
$$$$
