PWC.pdb
     RDKit          3D

 28 30  0  0  1  0  0  0  0  0999 V2000
   27.5913  -21.5874  -15.4347 N   0  0  0  0  0  0  0  0  0  0  0  0
   26.8159  -20.8117  -16.3642 C   0  0  0  0  0  0  0  0  0  0  0  0
   27.1396  -19.3633  -16.1740 C   0  0  0  0  0  0  0  0  0  0  0  0
   27.9268  -19.3036  -14.9061 C   0  0  0  0  0  0  0  0  0  0  0  0
   28.0481  -20.7186  -14.4001 C   0  0  1  0  0  0  0  0  0  0  0  0
   27.2801  -20.9520  -13.1581 C   0  0  0  0  0  0  0  0  0  0  0  0
   26.3351  -21.7700  -13.1670 O   0  0  0  0  0  0  0  0  0  0  0  0
   27.5793  -20.2760  -11.9487 N   0  0  0  0  0  0  0  0  0  0  0  0
   26.8517  -20.4950  -10.7205 C   0  0  1  0  0  0  0  0  0  0  0  0
   27.5497  -19.8534   -9.5359 C   0  0  0  0  0  0  0  0  0  0  0  0
   26.7928  -20.2314   -8.3145 C   0  0  0  0  0  0  0  0  0  0  0  0
   25.5449  -20.8340   -8.3131 C   0  0  0  0  0  0  0  0  0  0  0  0
   25.2180  -21.0025   -7.0319 N   0  0  0  0  0  0  0  0  0  0  0  0
   26.1891  -20.5403   -6.2142 C   0  0  0  0  0  0  0  0  0  0  0  0
   26.3510  -20.4753   -4.8406 C   0  0  0  0  0  0  0  0  0  0  0  0
   27.4890  -19.9325   -4.2523 C   0  0  0  0  0  0  0  0  0  0  0  0
   28.4957  -19.4395   -5.0705 C   0  0  0  0  0  0  0  0  0  0  0  0
   28.3160  -19.5132   -6.4253 C   0  0  0  0  0  0  0  0  0  0  0  0
   27.1994  -20.0458   -7.0118 C   0  0  0  0  0  0  0  0  0  0  0  0
   25.4377  -20.0397  -10.8290 C   0  0  0  0  0  0  0  0  0  0  0  0
   25.1932  -18.8079  -10.7466 O   0  0  0  0  0  0  0  0  0  0  0  0
   24.3714  -20.9565  -11.0212 N   0  0  0  0  0  0  0  0  0  0  0  0
   23.0753  -20.5865  -11.5035 C   0  0  1  0  0  0  0  0  0  0  0  0
   22.5319  -21.4833  -12.5709 C   0  0  0  0  0  0  0  0  0  0  0  0
   22.2839  -23.1407  -11.8716 S   0  0  0  0  0  0  0  0  0  0  0  0
   22.0836  -20.4665  -10.3783 C   0  0  0  0  0  0  0  0  0  0  0  0
   22.3415  -20.8289   -9.2197 O   0  0  0  0  0  0  0  0  0  0  0  0
   20.8384  -19.9257  -10.6752 O   0  0  0  0  0  0  0  0  0  0  0  0
  1  2  1  0
  3  2  1  0
  4  5  1  0
  4  3  1  0
  5  1  1  0
  6  8  1  0
  5  6  1  1
  7  6  2  0
  9  8  1  0
 10 11  1  0
  9 10  1  1
 11 12  2  0
 11 19  1  0
 12 13  1  0
 13 14  1  0
 14 15  2  0
 15 16  1  0
 17 16  2  0
 18 17  1  0
 19 18  2  0
 19 14  1  0
 20  9  1  0
 20 21  2  0
 22 20  1  0
 23 24  1  6
 23 22  1  0
 25 24  1  0
 26 23  1  0
 27 26  2  0
 28 26  1  0
M  END
$$$$
