PWC.pdb
     RDKit          3D

 28 30  0  0  1  0  0  0  0  0999 V2000
   22.0648  -22.0825  -12.3592 N   0  0  0  0  0  0  0  0  0  0  0  0
   21.0999  -21.7534  -11.3456 C   0  0  0  0  0  0  0  0  0  0  0  0
   20.4279  -20.4688  -11.7161 C   0  0  0  0  0  0  0  0  0  0  0  0
   21.2367  -19.9176  -12.8441 C   0  0  0  0  0  0  0  0  0  0  0  0
   22.3494  -20.9009  -13.1054 C   0  0  1  0  0  0  0  0  0  0  0  0
   23.6809  -20.3716  -12.7396 C   0  0  0  0  0  0  0  0  0  0  0  0
   23.8736  -19.1367  -12.7523 O   0  0  0  0  0  0  0  0  0  0  0  0
   24.7548  -21.2208  -12.3726 N   0  0  0  0  0  0  0  0  0  0  0  0
   26.1319  -20.7868  -12.3470 C   0  0  1  0  0  0  0  0  0  0  0  0
   26.9469  -21.5736  -11.3376 C   0  0  0  0  0  0  0  0  0  0  0  0
   26.6492  -21.0163   -9.9929 C   0  0  0  0  0  0  0  0  0  0  0  0
   25.4084  -20.5510   -9.5874 C   0  0  0  0  0  0  0  0  0  0  0  0
   25.5621  -20.1388   -8.3292 N   0  0  0  0  0  0  0  0  0  0  0  0
   26.8337  -20.3153   -7.9083 C   0  0  0  0  0  0  0  0  0  0  0  0
   27.5070  -20.0653   -6.7245 C   0  0  0  0  0  0  0  0  0  0  0  0
   28.8579  -20.3573   -6.5632 C   0  0  0  0  0  0  0  0  0  0  0  0
   29.5534  -20.9178   -7.6252 C   0  0  0  0  0  0  0  0  0  0  0  0
   28.8694  -21.1567   -8.7863 C   0  0  0  0  0  0  0  0  0  0  0  0
   27.5405  -20.8725   -8.9529 C   0  0  0  0  0  0  0  0  0  0  0  0
   26.7506  -20.8366  -13.7010 C   0  0  0  0  0  0  0  0  0  0  0  0
   26.5100  -21.8284  -14.4374 O   0  0  0  0  0  0  0  0  0  0  0  0
   27.5973  -19.7999  -14.1730 N   0  0  0  0  0  0  0  0  0  0  0  0
   27.9345  -19.6073  -15.5509 C   0  0  1  0  0  0  0  0  0  0  0  0
   28.4755  -18.2498  -15.8727 C   0  0  0  0  0  0  0  0  0  0  0  0
   27.3087  -16.9969  -15.2675 S   0  0  0  0  0  0  0  0  0  0  0  0
   28.8838  -20.6682  -16.0379 C   0  0  0  0  0  0  0  0  0  0  0  0
   29.3317  -21.5554  -15.2947 O   0  0  0  0  0  0  0  0  0  0  0  0
   29.2574  -20.6299  -17.3759 O   0  0  0  0  0  0  0  0  0  0  0  0
  1  2  1  0
  3  2  1  0
  4  5  1  0
  4  3  1  0
  5  1  1  0
  6  8  1  0
  5  6  1  1
  7  6  2  0
  9  8  1  0
 10 11  1  0
  9 10  1  1
 11 12  2  0
 11 19  1  0
 12 13  1  0
 13 14  1  0
 14 15  2  0
 15 16  1  0
 17 16  2  0
 18 17  1  0
 19 18  2  0
 19 14  1  0
 20  9  1  0
 20 21  2  0
 22 20  1  0
 23 24  1  1
 23 22  1  0
 25 24  1  0
 26 23  1  0
 27 26  2  0
 28 26  1  0
M  END
$$$$
