PWC.pdb
     RDKit          3D

 28 30  0  0  1  0  0  0  0  0999 V2000
   27.5071  -19.6658  -15.5140 N   0  0  0  0  0  0  0  0  0  0  0  0
   28.8801  -19.3624  -15.2143 C   0  0  0  0  0  0  0  0  0  0  0  0
   29.7029  -20.5961  -15.4136 C   0  0  0  0  0  0  0  0  0  0  0  0
   28.7129  -21.7031  -15.5714 C   0  0  0  0  0  0  0  0  0  0  0  0
   27.3429  -21.0817  -15.4703 C   0  0  1  0  0  0  0  0  0  0  0  0
   26.6228  -21.4768  -14.2404 C   0  0  0  0  0  0  0  0  0  0  0  0
   26.2205  -22.6537  -14.1178 O   0  0  0  0  0  0  0  0  0  0  0  0
   26.3704  -20.5616  -13.1879 N   0  0  0  0  0  0  0  0  0  0  0  0
   25.4729  -20.8453  -12.0927 C   0  0  1  0  0  0  0  0  0  0  0  0
   25.7800  -19.9845  -10.8815 C   0  0  0  0  0  0  0  0  0  0  0  0
   27.0346  -20.4999  -10.2750 C   0  0  0  0  0  0  0  0  0  0  0  0
   27.9944  -21.2366  -10.9506 C   0  0  0  0  0  0  0  0  0  0  0  0
   28.9496  -21.5027  -10.0600 N   0  0  0  0  0  0  0  0  0  0  0  0
   28.6528  -20.9762   -8.8518 C   0  0  0  0  0  0  0  0  0  0  0  0
   29.2846  -20.9582   -7.6199 C   0  0  0  0  0  0  0  0  0  0  0  0
   28.7348  -20.3189   -6.5130 C   0  0  0  0  0  0  0  0  0  0  0  0
   27.5114  -19.6780   -6.6491 C   0  0  0  0  0  0  0  0  0  0  0  0
   26.9036  -19.7077   -7.8749 C   0  0  0  0  0  0  0  0  0  0  0  0
   27.4381  -20.3342   -8.9686 C   0  0  0  0  0  0  0  0  0  0  0  0
   24.0465  -20.7173  -12.5019 C   0  0  0  0  0  0  0  0  0  0  0  0
   23.7011  -19.7132  -13.1775 O   0  0  0  0  0  0  0  0  0  0  0  0
   23.0786  -21.6937  -12.1491 N   0  0  0  0  0  0  0  0  0  0  0  0
   21.6921  -21.6070  -12.4947 C   0  0  1  0  0  0  0  0  0  0  0  0
   21.0220  -22.9283  -12.7050 C   0  0  0  0  0  0  0  0  0  0  0  0
   19.2561  -22.6448  -13.0192 S   0  0  0  0  0  0  0  0  0  0  0  0
   20.9241  -20.7954  -11.4871 C   0  0  0  0  0  0  0  0  0  0  0  0
   21.1991  -20.7999  -10.2769 O   0  0  0  0  0  0  0  0  0  0  0  0
   19.8710  -20.0196  -11.9563 O   0  0  0  0  0  0  0  0  0  0  0  0
  1  2  1  0
  3  2  1  0
  4  5  1  0
  4  3  1  0
  5  1  1  0
  6  8  1  0
  5  6  1  1
  7  6  2  0
  9  8  1  0
 10 11  1  0
  9 10  1  1
 11 12  2  0
 11 19  1  0
 12 13  1  0
 13 14  1  0
 14 15  2  0
 15 16  1  0
 17 16  2  0
 18 17  1  0
 19 18  2  0
 19 14  1  0
 20  9  1  0
 20 21  2  0
 22 20  1  0
 23 24  1  1
 23 22  1  0
 25 24  1  0
 26 23  1  0
 27 26  2  0
 28 26  1  0
M  END
$$$$
