PWC.pdb
     RDKit          3D

 28 30  0  0  1  0  0  0  0  0999 V2000
   28.1590  -20.2705  -14.9898 N   0  0  0  0  0  0  0  0  0  0  0  0
   29.4484  -20.8584  -15.2317 C   0  0  0  0  0  0  0  0  0  0  0  0
   29.2567  -22.2146  -15.8341 C   0  0  0  0  0  0  0  0  0  0  0  0
   27.8010  -22.5086  -15.6754 C   0  0  0  0  0  0  0  0  0  0  0  0
   27.1851  -21.3122  -14.9955 C   0  0  1  0  0  0  0  0  0  0  0  0
   26.7373  -21.6031  -13.6164 C   0  0  0  0  0  0  0  0  0  0  0  0
   25.7882  -22.3960  -13.4352 O   0  0  0  0  0  0  0  0  0  0  0  0
   27.3503  -21.0105  -12.4841 N   0  0  0  0  0  0  0  0  0  0  0  0
   26.7402  -20.9909  -11.1753 C   0  0  1  0  0  0  0  0  0  0  0  0
   27.7139  -20.5177  -10.1122 C   0  0  0  0  0  0  0  0  0  0  0  0
   26.9945  -20.5289   -8.8122 C   0  0  0  0  0  0  0  0  0  0  0  0
   25.6516  -20.8326   -8.6549 C   0  0  0  0  0  0  0  0  0  0  0  0
   25.4002  -20.7282   -7.3501 N   0  0  0  0  0  0  0  0  0  0  0  0
   26.5094  -20.3744   -6.6647 C   0  0  0  0  0  0  0  0  0  0  0  0
   26.7908  -20.1394   -5.3295 C   0  0  0  0  0  0  0  0  0  0  0  0
   28.0613  -19.7797   -4.8910 C   0  0  0  0  0  0  0  0  0  0  0  0
   29.0806  -19.6520   -5.8240 C   0  0  0  0  0  0  0  0  0  0  0  0
   28.7815  -19.8884   -7.1385 C   0  0  0  0  0  0  0  0  0  0  0  0
   27.5342  -20.2429   -7.5778 C   0  0  0  0  0  0  0  0  0  0  0  0
   25.4887  -20.1834  -11.1628 C   0  0  0  0  0  0  0  0  0  0  0  0
   25.5812  -18.9286  -11.1370 O   0  0  0  0  0  0  0  0  0  0  0  0
   24.2071  -20.7934  -11.1788 N   0  0  0  0  0  0  0  0  0  0  0  0
   22.9792  -20.0714  -11.3218 C   0  0  1  0  0  0  0  0  0  0  0  0
   22.9145  -19.1920  -12.5307 C   0  0  0  0  0  0  0  0  0  0  0  0
   22.9541  -20.2360  -14.0159 S   0  0  0  0  0  0  0  0  0  0  0  0
   21.7919  -20.9952  -11.2935 C   0  0  0  0  0  0  0  0  0  0  0  0
   20.6261  -20.5812  -11.1949 O   0  0  0  0  0  0  0  0  0  0  0  0
   22.0383  -22.3599  -11.3826 O   0  0  0  0  0  0  0  0  0  0  0  0
  1  2  1  0
  3  2  1  0
  4  5  1  0
  4  3  1  0
  5  1  1  0
  6  8  1  0
  5  6  1  1
  7  6  2  0
  9  8  1  0
 10 11  1  0
  9 10  1  1
 11 12  2  0
 11 19  1  0
 12 13  1  0
 13 14  1  0
 14 15  2  0
 15 16  1  0
 17 16  2  0
 18 17  1  0
 19 18  2  0
 19 14  1  0
 20  9  1  0
 20 21  2  0
 22 20  1  0
 23 24  1  6
 23 22  1  0
 25 24  1  0
 26 23  1  0
 27 26  2  0
 28 26  1  0
M  END
$$$$
