PWC.pdb
     RDKit          3D

 28 30  0  0  1  0  0  0  0  0999 V2000
   24.3141  -12.6936  -15.0764 N   0  0  0  0  0  0  0  0  0  0  0  0
   23.6417  -13.9509  -15.2612 C   0  0  0  0  0  0  0  0  0  0  0  0
   23.6983  -14.3215  -16.7098 C   0  0  0  0  0  0  0  0  0  0  0  0
   24.1866  -13.0943  -17.4068 C   0  0  0  0  0  0  0  0  0  0  0  0
   24.4105  -12.0482  -16.3444 C   0  0  1  0  0  0  0  0  0  0  0  0
   23.4448  -10.9312  -16.4261 C   0  0  0  0  0  0  0  0  0  0  0  0
   23.2745  -10.3476  -17.5181 O   0  0  0  0  0  0  0  0  0  0  0  0
   22.6998  -10.4952  -15.3018 N   0  0  0  0  0  0  0  0  0  0  0  0
   21.6711   -9.4846  -15.3795 C   0  0  1  0  0  0  0  0  0  0  0  0
   20.3549   -9.9824  -14.8120 C   0  0  0  0  0  0  0  0  0  0  0  0
   19.7721  -10.9265  -15.8001 C   0  0  0  0  0  0  0  0  0  0  0  0
   19.9632  -12.2991  -15.7896 C   0  0  0  0  0  0  0  0  0  0  0  0
   19.2817  -12.7744  -16.8318 N   0  0  0  0  0  0  0  0  0  0  0  0
   18.6652  -11.7805  -17.5079 C   0  0  0  0  0  0  0  0  0  0  0  0
   17.8545  -11.7276  -18.6292 C   0  0  0  0  0  0  0  0  0  0  0  0
   17.3422  -10.5303  -19.1188 C   0  0  0  0  0  0  0  0  0  0  0  0
   17.6548   -9.3491  -18.4608 C   0  0  0  0  0  0  0  0  0  0  0  0
   18.4575   -9.4232  -17.3548 C   0  0  0  0  0  0  0  0  0  0  0  0
   18.9654  -10.5972  -16.8667 C   0  0  0  0  0  0  0  0  0  0  0  0
   22.0966   -8.2141  -14.7290 C   0  0  0  0  0  0  0  0  0  0  0  0
   22.3765   -8.2294  -13.5021 O   0  0  0  0  0  0  0  0  0  0  0  0
   22.1916   -6.9989  -15.4563 N   0  0  0  0  0  0  0  0  0  0  0  0
   22.6157   -5.7562  -14.8859 C   0  0  1  0  0  0  0  0  0  0  0  0
   23.2187   -4.7987  -15.8649 C   0  0  0  0  0  0  0  0  0  0  0  0
   24.6016   -5.6189  -16.7089 S   0  0  0  0  0  0  0  0  0  0  0  0
   21.4977   -5.0868  -14.1335 C   0  0  0  0  0  0  0  0  0  0  0  0
   20.3194   -5.4689  -14.2093 O   0  0  0  0  0  0  0  0  0  0  0  0
   21.8248   -4.0012  -13.3301 O   0  0  0  0  0  0  0  0  0  0  0  0
  1  2  1  0
  3  2  1  0
  4  5  1  0
  4  3  1  0
  5  1  1  0
  6  8  1  0
  5  6  1  1
  7  6  2  0
  9  8  1  0
 10 11  1  0
  9 10  1  1
 11 12  2  0
 11 19  1  0
 12 13  1  0
 13 14  1  0
 14 15  2  0
 15 16  1  0
 17 16  2  0
 18 17  1  0
 19 18  2  0
 19 14  1  0
 20  9  1  0
 20 21  2  0
 22 20  1  0
 23 24  1  6
 23 22  1  0
 25 24  1  0
 26 23  1  0
 27 26  2  0
 28 26  1  0
M  END
$$$$
