PWC.pdb
     RDKit          3D

 28 30  0  0  1  0  0  0  0  0999 V2000
   28.6302  -20.8337  -14.7290 N   0  0  0  0  0  0  0  0  0  0  0  0
   28.0759  -20.1483  -15.8648 C   0  0  0  0  0  0  0  0  0  0  0  0
   27.9064  -18.7018  -15.5217 C   0  0  0  0  0  0  0  0  0  0  0  0
   28.1227  -18.6238  -14.0460 C   0  0  0  0  0  0  0  0  0  0  0  0
   28.4223  -20.0239  -13.5737 C   0  0  1  0  0  0  0  0  0  0  0  0
   27.3425  -20.5910  -12.7374 C   0  0  0  0  0  0  0  0  0  0  0  0
   26.7632  -21.6340  -13.1098 O   0  0  0  0  0  0  0  0  0  0  0  0
   26.9377  -19.9895  -11.5194 N   0  0  0  0  0  0  0  0  0  0  0  0
   25.8901  -20.5266  -10.6830 C   0  0  1  0  0  0  0  0  0  0  0  0
   25.9464  -19.9529   -9.2795 C   0  0  0  0  0  0  0  0  0  0  0  0
   27.2054  -20.4316   -8.6525 C   0  0  0  0  0  0  0  0  0  0  0  0
   28.0812  -21.3373   -9.2300 C   0  0  0  0  0  0  0  0  0  0  0  0
   29.0725  -21.5014   -8.3543 N   0  0  0  0  0  0  0  0  0  0  0  0
   28.8784  -20.7499   -7.2485 C   0  0  0  0  0  0  0  0  0  0  0  0
   29.5834  -20.5534   -6.0732 C   0  0  0  0  0  0  0  0  0  0  0  0
   29.1370  -19.6931   -5.0749 C   0  0  0  0  0  0  0  0  0  0  0  0
   27.9444  -19.0092   -5.2642 C   0  0  0  0  0  0  0  0  0  0  0  0
   27.2630  -19.2176   -6.4326 C   0  0  0  0  0  0  0  0  0  0  0  0
   27.6955  -20.0622   -7.4196 C   0  0  0  0  0  0  0  0  0  0  0  0
   24.5451  -20.3358  -11.2937 C   0  0  0  0  0  0  0  0  0  0  0  0
   24.1967  -19.1753  -11.6336 O   0  0  0  0  0  0  0  0  0  0  0  0
   23.6572  -21.4242  -11.4979 N   0  0  0  0  0  0  0  0  0  0  0  0
   22.4516  -21.3401  -12.2653 C   0  0  1  0  0  0  0  0  0  0  0  0
   21.9854  -22.6441  -12.8320 C   0  0  0  0  0  0  0  0  0  0  0  0
   21.2211  -23.6187  -11.5040 S   0  0  0  0  0  0  0  0  0  0  0  0
   21.3430  -20.6952  -11.4785 C   0  0  0  0  0  0  0  0  0  0  0  0
   21.4360  -20.4601  -10.2636 O   0  0  0  0  0  0  0  0  0  0  0  0
   20.1810  -20.3602  -12.1631 O   0  0  0  0  0  0  0  0  0  0  0  0
  1  2  1  0
  3  2  1  0
  4  5  1  0
  4  3  1  0
  5  1  1  0
  6  8  1  0
  5  6  1  6
  7  6  2  0
  9  8  1  0
 10 11  1  0
  9 10  1  1
 11 12  2  0
 11 19  1  0
 12 13  1  0
 13 14  1  0
 14 15  2  0
 15 16  1  0
 17 16  2  0
 18 17  1  0
 19 18  2  0
 19 14  1  0
 20  9  1  0
 20 21  2  0
 22 20  1  0
 23 24  1  1
 23 22  1  0
 25 24  1  0
 26 23  1  0
 27 26  2  0
 28 26  1  0
M  END
$$$$
