PWC.pdb
     RDKit          3D

 28 30  0  0  1  0  0  0  0  0999 V2000
   28.1866  -18.1820  -13.6333 N   0  0  0  0  0  0  0  0  0  0  0  0
   29.3590  -18.2160  -14.4647 C   0  0  0  0  0  0  0  0  0  0  0  0
   28.9413  -18.4608  -15.8805 C   0  0  0  0  0  0  0  0  0  0  0  0
   27.5008  -18.8471  -15.8001 C   0  0  0  0  0  0  0  0  0  0  0  0
   27.1181  -18.8060  -14.3424 C   0  0  1  0  0  0  0  0  0  0  0  0
   26.8452  -20.1472  -13.7825 C   0  0  0  0  0  0  0  0  0  0  0  0
   27.6372  -21.0838  -14.0226 O   0  0  0  0  0  0  0  0  0  0  0  0
   25.7089  -20.4109  -12.9772 N   0  0  0  0  0  0  0  0  0  0  0  0
   25.2423  -21.7453  -12.6820 C   0  0  1  0  0  0  0  0  0  0  0  0
   24.8474  -21.8892  -11.2241 C   0  0  0  0  0  0  0  0  0  0  0  0
   25.7438  -21.0093  -10.4306 C   0  0  0  0  0  0  0  0  0  0  0  0
   25.3404  -19.8598   -9.7701 C   0  0  0  0  0  0  0  0  0  0  0  0
   26.4329  -19.3667   -9.1871 N   0  0  0  0  0  0  0  0  0  0  0  0
   27.5128  -20.1385   -9.4389 C   0  0  0  0  0  0  0  0  0  0  0  0
   28.8497  -20.0818   -9.0831 C   0  0  0  0  0  0  0  0  0  0  0  0
   29.7686  -21.0420   -9.4949 C   0  0  0  0  0  0  0  0  0  0  0  0
   29.3297  -22.0918  -10.2893 C   0  0  0  0  0  0  0  0  0  0  0  0
   28.0046  -22.1292  -10.6298 C   0  0  0  0  0  0  0  0  0  0  0  0
   27.0944  -21.1885  -10.2286 C   0  0  0  0  0  0  0  0  0  0  0  0
   24.1327  -22.1540  -13.5877 C   0  0  0  0  0  0  0  0  0  0  0  0
   23.3570  -21.2667  -14.0289 O   0  0  0  0  0  0  0  0  0  0  0  0
   23.9339  -23.5093  -13.9594 N   0  0  0  0  0  0  0  0  0  0  0  0
   22.9176  -23.9492  -14.8667 C   0  0  1  0  0  0  0  0  0  0  0  0
   23.2459  -25.2112  -15.6005 C   0  0  0  0  0  0  0  0  0  0  0  0
   24.4449  -26.1613  -14.6222 S   0  0  0  0  0  0  0  0  0  0  0  0
   21.5871  -24.0862  -14.1774 C   0  0  0  0  0  0  0  0  0  0  0  0
   21.4582  -23.9792  -12.9478 O   0  0  0  0  0  0  0  0  0  0  0  0
   20.4762  -24.3423  -14.9719 O   0  0  0  0  0  0  0  0  0  0  0  0
  1  2  1  0
  3  2  1  0
  4  5  1  0
  4  3  1  0
  5  1  1  0
  6  8  1  0
  5  6  1  1
  7  6  2  0
  9  8  1  0
 10 11  1  0
  9 10  1  1
 11 12  2  0
 11 19  1  0
 12 13  1  0
 13 14  1  0
 14 15  2  0
 15 16  1  0
 17 16  2  0
 18 17  1  0
 19 18  2  0
 19 14  1  0
 20  9  1  0
 20 21  2  0
 22 20  1  0
 23 24  1  1
 23 22  1  0
 25 24  1  0
 26 23  1  0
 27 26  2  0
 28 26  1  0
M  END
$$$$
