PWC.pdb
     RDKit          3D

 28 30  0  0  1  0  0  0  0  0999 V2000
   27.8319  -23.2409  -16.6908 N   0  0  0  0  0  0  0  0  0  0  0  0
   27.5399  -22.9456  -18.0671 C   0  0  0  0  0  0  0  0  0  0  0  0
   28.5425  -21.9570  -18.5732 C   0  0  0  0  0  0  0  0  0  0  0  0
   29.2624  -21.4752  -17.3566 C   0  0  0  0  0  0  0  0  0  0  0  0
   28.6665  -22.2040  -16.1790 C   0  0  1  0  0  0  0  0  0  0  0  0
   27.8915  -21.3155  -15.2863 C   0  0  0  0  0  0  0  0  0  0  0  0
   28.4441  -20.3077  -14.7951 O   0  0  0  0  0  0  0  0  0  0  0  0
   26.5342  -21.5676  -14.9651 N   0  0  0  0  0  0  0  0  0  0  0  0
   25.7267  -20.6626  -14.1812 C   0  0  1  0  0  0  0  0  0  0  0  0
   24.5920  -20.0750  -14.9993 C   0  0  0  0  0  0  0  0  0  0  0  0
   25.1981  -19.2202  -16.0526 C   0  0  0  0  0  0  0  0  0  0  0  0
   25.1752  -19.5021  -17.4092 C   0  0  0  0  0  0  0  0  0  0  0  0
   25.8218  -18.5004  -18.0051 N   0  0  0  0  0  0  0  0  0  0  0  0
   26.2568  -17.5934  -17.1032 C   0  0  0  0  0  0  0  0  0  0  0  0
   26.9584  -16.4026  -17.1862 C   0  0  0  0  0  0  0  0  0  0  0  0
   27.2782  -15.6497  -16.0607 C   0  0  0  0  0  0  0  0  0  0  0  0
   26.8805  -16.1084  -14.8128 C   0  0  0  0  0  0  0  0  0  0  0  0
   26.1882  -17.2875  -14.7527 C   0  0  0  0  0  0  0  0  0  0  0  0
   25.8696  -18.0340  -15.8553 C   0  0  0  0  0  0  0  0  0  0  0  0
   25.2211  -21.3105  -12.9390 C   0  0  0  0  0  0  0  0  0  0  0  0
   24.7356  -22.4689  -13.0181 O   0  0  0  0  0  0  0  0  0  0  0  0
   25.2745  -20.6553  -11.6810 N   0  0  0  0  0  0  0  0  0  0  0  0
   24.5822  -21.1087  -10.5128 C   0  0  1  0  0  0  0  0  0  0  0  0
   25.1822  -20.6519   -9.2204 C   0  0  0  0  0  0  0  0  0  0  0  0
   26.9783  -20.9116   -9.2855 S   0  0  0  0  0  0  0  0  0  0  0  0
   23.1238  -20.7418  -10.5610 C   0  0  0  0  0  0  0  0  0  0  0  0
   22.6379  -20.0555  -11.4737 O   0  0  0  0  0  0  0  0  0  0  0  0
   22.3119  -21.2022   -9.5315 O   0  0  0  0  0  0  0  0  0  0  0  0
  1  2  1  0
  3  2  1  0
  4  5  1  0
  4  3  1  0
  5  1  1  0
  6  8  1  0
  5  6  1  6
  7  6  2  0
  9  8  1  0
 10 11  1  0
  9 10  1  6
 11 12  2  0
 11 19  1  0
 12 13  1  0
 13 14  1  0
 14 15  2  0
 15 16  1  0
 17 16  2  0
 18 17  1  0
 19 18  2  0
 19 14  1  0
 20  9  1  0
 20 21  2  0
 22 20  1  0
 23 24  1  1
 23 22  1  0
 25 24  1  0
 26 23  1  0
 27 26  2  0
 28 26  1  0
M  END
$$$$
