PWC.pdb
     RDKit          3D

 28 30  0  0  1  0  0  0  0  0999 V2000
   24.4758  -11.4336  -15.1059 N   0  0  0  0  0  0  0  0  0  0  0  0
   23.9466  -12.7683  -15.0330 C   0  0  0  0  0  0  0  0  0  0  0  0
   23.7272  -13.2785  -16.4224 C   0  0  0  0  0  0  0  0  0  0  0  0
   23.8866  -12.0844  -17.3052 C   0  0  0  0  0  0  0  0  0  0  0  0
   24.2045  -10.9161  -16.4068 C   0  0  1  0  0  0  0  0  0  0  0  0
   23.1094   -9.9241  -16.3460 C   0  0  0  0  0  0  0  0  0  0  0  0
   22.6649   -9.4368  -17.4076 O   0  0  0  0  0  0  0  0  0  0  0  0
   22.5415   -9.5028  -15.1175 N   0  0  0  0  0  0  0  0  0  0  0  0
   21.4404   -8.5720  -15.0343 C   0  0  1  0  0  0  0  0  0  0  0  0
   20.3093   -9.1194  -14.1839 C   0  0  0  0  0  0  0  0  0  0  0  0
   19.6815  -10.2333  -14.9406 C   0  0  0  0  0  0  0  0  0  0  0  0
   19.9077  -11.5790  -14.6988 C   0  0  0  0  0  0  0  0  0  0  0  0
   19.1657  -12.2428  -15.5850 N   0  0  0  0  0  0  0  0  0  0  0  0
   18.4775  -11.3947  -16.3802 C   0  0  0  0  0  0  0  0  0  0  0  0
   17.5878  -11.5549  -17.4290 C   0  0  0  0  0  0  0  0  0  0  0  0
   17.0115  -10.4719  -18.0854 C   0  0  0  0  0  0  0  0  0  0  0  0
   17.3403   -9.1877  -17.6747 C   0  0  0  0  0  0  0  0  0  0  0  0
   18.2216   -9.0512  -16.6366 C   0  0  0  0  0  0  0  0  0  0  0  0
   18.7926  -10.1116  -15.9856 C   0  0  0  0  0  0  0  0  0  0  0  0
   21.8844   -7.2349  -14.5513 C   0  0  0  0  0  0  0  0  0  0  0  0
   22.5468   -7.1694  -13.4832 O   0  0  0  0  0  0  0  0  0  0  0  0
   21.5790   -6.0453  -15.2628 N   0  0  0  0  0  0  0  0  0  0  0  0
   21.9953   -4.7385  -14.8526 C   0  0  1  0  0  0  0  0  0  0  0  0
   22.7282   -3.9636  -15.9020 C   0  0  0  0  0  0  0  0  0  0  0  0
   23.0812   -2.3014  -15.2617 S   0  0  0  0  0  0  0  0  0  0  0  0
   20.8374   -3.9311  -14.3316 C   0  0  0  0  0  0  0  0  0  0  0  0
   19.6857   -4.0505  -14.7780 O   0  0  0  0  0  0  0  0  0  0  0  0
   21.0954   -3.0238  -13.3110 O   0  0  0  0  0  0  0  0  0  0  0  0
  1  2  1  0
  3  2  1  0
  4  5  1  0
  4  3  1  0
  5  1  1  0
  6  8  1  0
  5  6  1  1
  7  6  2  0
  9  8  1  0
 10 11  1  0
  9 10  1  1
 11 12  2  0
 11 19  1  0
 12 13  1  0
 13 14  1  0
 14 15  2  0
 15 16  1  0
 17 16  2  0
 18 17  1  0
 19 18  2  0
 19 14  1  0
 20  9  1  0
 20 21  2  0
 22 20  1  0
 23 24  1  6
 23 22  1  0
 25 24  1  0
 26 23  1  0
 27 26  2  0
 28 26  1  0
M  END
$$$$
