PWC.pdb
     RDKit          3D

 28 30  0  0  1  0  0  0  0  0999 V2000
   27.3420  -18.8986  -14.8184 N   0  0  0  0  0  0  0  0  0  0  0  0
   28.5810  -18.4152  -14.2726 C   0  0  0  0  0  0  0  0  0  0  0  0
   29.6435  -19.4442  -14.4985 C   0  0  0  0  0  0  0  0  0  0  0  0
   28.9124  -20.6662  -14.9491 C   0  0  0  0  0  0  0  0  0  0  0  0
   27.4475  -20.3112  -14.9830 C   0  0  1  0  0  0  0  0  0  0  0  0
   26.6635  -21.0090  -13.9411 C   0  0  0  0  0  0  0  0  0  0  0  0
   26.5103  -22.2471  -14.0163 O   0  0  0  0  0  0  0  0  0  0  0  0
   26.0750  -20.3187  -12.8519 N   0  0  0  0  0  0  0  0  0  0  0  0
   25.2075  -20.9557  -11.8890 C   0  0  1  0  0  0  0  0  0  0  0  0
   25.4038  -20.3852  -10.4969 C   0  0  0  0  0  0  0  0  0  0  0  0
   26.7755  -20.7480  -10.0559 C   0  0  0  0  0  0  0  0  0  0  0  0
   27.6547  -21.5385  -10.7787 C   0  0  0  0  0  0  0  0  0  0  0  0
   28.7632  -21.6244  -10.0437 N   0  0  0  0  0  0  0  0  0  0  0  0
   28.6406  -20.9317   -8.8903 C   0  0  0  0  0  0  0  0  0  0  0  0
   29.4697  -20.6983   -7.8062 C   0  0  0  0  0  0  0  0  0  0  0  0
   29.0733  -19.9206   -6.7226 C   0  0  0  0  0  0  0  0  0  0  0  0
   27.8037  -19.3603   -6.7291 C   0  0  0  0  0  0  0  0  0  0  0  0
   27.0001  -19.6033   -7.8100 C   0  0  0  0  0  0  0  0  0  0  0  0
   27.3827  -20.3671   -8.8799 C   0  0  0  0  0  0  0  0  0  0  0  0
   23.7791  -20.8898  -12.3059 C   0  0  0  0  0  0  0  0  0  0  0  0
   23.2766  -19.7642  -12.5596 O   0  0  0  0  0  0  0  0  0  0  0  0
   22.9810  -22.0578  -12.4216 N   0  0  0  0  0  0  0  0  0  0  0  0
   21.6268  -22.0587  -12.8858 C   0  0  1  0  0  0  0  0  0  0  0  0
   21.1571  -23.3733  -13.4246 C   0  0  0  0  0  0  0  0  0  0  0  0
   22.3172  -23.9276  -14.7069 S   0  0  0  0  0  0  0  0  0  0  0  0
   20.6808  -21.5711  -11.8222 C   0  0  0  0  0  0  0  0  0  0  0  0
   21.0536  -21.3023  -10.6695 O   0  0  0  0  0  0  0  0  0  0  0  0
   19.3435  -21.4249  -12.1708 O   0  0  0  0  0  0  0  0  0  0  0  0
  1  2  1  0
  3  2  1  0
  4  5  1  0
  4  3  1  0
  5  1  1  0
  6  8  1  0
  5  6  1  1
  7  6  2  0
  9  8  1  0
 10 11  1  0
  9 10  1  1
 11 12  2  0
 11 19  1  0
 12 13  1  0
 13 14  1  0
 14 15  2  0
 15 16  1  0
 17 16  2  0
 18 17  1  0
 19 18  2  0
 19 14  1  0
 20  9  1  0
 20 21  2  0
 22 20  1  0
 23 24  1  1
 23 22  1  0
 25 24  1  0
 26 23  1  0
 27 26  2  0
 28 26  1  0
M  END
$$$$
