PWC.pdb
     RDKit          3D

 28 30  0  0  1  0  0  0  0  0999 V2000
   27.0454  -21.3070  -13.6482 N   0  0  0  0  0  0  0  0  0  0  0  0
   26.1197  -21.4407  -14.7400 C   0  0  0  0  0  0  0  0  0  0  0  0
   25.3033  -20.1906  -14.8381 C   0  0  0  0  0  0  0  0  0  0  0  0
   25.5979  -19.4340  -13.5846 C   0  0  0  0  0  0  0  0  0  0  0  0
   26.5846  -20.2590  -12.7979 C   0  0  1  0  0  0  0  0  0  0  0  0
   26.0042  -20.8211  -11.5593 C   0  0  0  0  0  0  0  0  0  0  0  0
   25.7644  -22.0461  -11.4965 O   0  0  0  0  0  0  0  0  0  0  0  0
   25.7078  -20.0144  -10.4322 N   0  0  0  0  0  0  0  0  0  0  0  0
   25.1353  -20.5384   -9.2143 C   0  0  1  0  0  0  0  0  0  0  0  0
   25.5575  -19.7264   -8.0041 C   0  0  0  0  0  0  0  0  0  0  0  0
   26.9483  -20.1233   -7.6642 C   0  0  0  0  0  0  0  0  0  0  0  0
   27.7710  -20.8910   -8.4731 C   0  0  0  0  0  0  0  0  0  0  0  0
   28.9210  -21.0212   -7.8119 N   0  0  0  0  0  0  0  0  0  0  0  0
   28.8783  -20.3783   -6.6244 C   0  0  0  0  0  0  0  0  0  0  0  0
   29.7750  -20.2017   -5.5843 C   0  0  0  0  0  0  0  0  0  0  0  0
   29.4560  -19.4679   -4.4460 C   0  0  0  0  0  0  0  0  0  0  0  0
   28.1962  -18.8938   -4.3504 C   0  0  0  0  0  0  0  0  0  0  0  0
   27.3249  -19.0804   -5.3892 C   0  0  0  0  0  0  0  0  0  0  0  0
   27.6311  -19.8009   -6.5124 C   0  0  0  0  0  0  0  0  0  0  0  0
   23.6525  -20.6469   -9.3046 C   0  0  0  0  0  0  0  0  0  0  0  0
   23.0155  -19.7304   -9.8860 O   0  0  0  0  0  0  0  0  0  0  0  0
   22.9503  -21.7507   -8.7540 N   0  0  0  0  0  0  0  0  0  0  0  0
   21.5488  -21.9787   -8.9363 C   0  0  1  0  0  0  0  0  0  0  0  0
   21.1050  -23.3771   -8.6424 C   0  0  0  0  0  0  0  0  0  0  0  0
   21.4943  -23.7624   -6.9111 S   0  0  0  0  0  0  0  0  0  0  0  0
   20.7251  -21.0003   -8.1437 C   0  0  0  0  0  0  0  0  0  0  0  0
   21.2288  -20.2032   -7.3369 O   0  0  0  0  0  0  0  0  0  0  0  0
   19.3497  -21.0108   -8.3419 O   0  0  0  0  0  0  0  0  0  0  0  0
  1  2  1  0
  3  2  1  0
  4  5  1  0
  4  3  1  0
  5  1  1  0
  6  8  1  0
  5  6  1  1
  7  6  2  0
  9  8  1  0
 10 11  1  0
  9 10  1  1
 11 12  2  0
 11 19  1  0
 12 13  1  0
 13 14  1  0
 14 15  2  0
 15 16  1  0
 17 16  2  0
 18 17  1  0
 19 18  2  0
 19 14  1  0
 20  9  1  0
 20 21  2  0
 22 20  1  0
 23 24  1  1
 23 22  1  0
 25 24  1  0
 26 23  1  0
 27 26  2  0
 28 26  1  0
M  END
$$$$
