WFT.pdb
     RDKit          3D

 33 35  0  0  1  0  0  0  0  0999 V2000
   28.3545  -20.9304  -16.4983 N   0  0  0  0  0  0  0  0  0  0  0  0
   27.3450  -20.0740  -15.9297 C   0  0  1  0  0  0  0  0  0  0  0  0
   26.4010  -19.6666  -17.0455 C   0  0  0  0  0  0  0  0  0  0  0  0
   27.0005  -18.5597  -17.8350 C   0  0  0  0  0  0  0  0  0  0  0  0
   27.3680  -18.5787  -19.1702 C   0  0  0  0  0  0  0  0  0  0  0  0
   27.8551  -17.3853  -19.4824 N   0  0  0  0  0  0  0  0  0  0  0  0
   27.8289  -16.5604  -18.3997 C   0  0  0  0  0  0  0  0  0  0  0  0
   28.2270  -15.2509  -18.2335 C   0  0  0  0  0  0  0  0  0  0  0  0
   28.1022  -14.6282  -17.0207 C   0  0  0  0  0  0  0  0  0  0  0  0
   27.5659  -15.3567  -15.9780 C   0  0  0  0  0  0  0  0  0  0  0  0
   27.1682  -16.6609  -16.1416 C   0  0  0  0  0  0  0  0  0  0  0  0
   27.2896  -17.3119  -17.3739 C   0  0  0  0  0  0  0  0  0  0  0  0
   26.6895  -20.7025  -14.7746 C   0  0  0  0  0  0  0  0  0  0  0  0
   26.2336  -21.8894  -14.8370 O   0  0  0  0  0  0  0  0  0  0  0  0
   26.4946  -20.0660  -13.5019 N   0  0  0  0  0  0  0  0  0  0  0  0
   25.6894  -20.6288  -12.4971 C   0  0  1  0  0  0  0  0  0  0  0  0
   26.0958  -20.2609  -11.0797 C   0  0  0  0  0  0  0  0  0  0  0  0
   27.4285  -20.8274  -10.7500 C   0  0  0  0  0  0  0  0  0  0  0  0
   28.4468  -20.5654  -11.6642 C   0  0  0  0  0  0  0  0  0  0  0  0
   29.7066  -21.0326  -11.4512 C   0  0  0  0  0  0  0  0  0  0  0  0
   29.9409  -21.7692  -10.3057 C   0  0  0  0  0  0  0  0  0  0  0  0
   28.9402  -22.0301   -9.3975 C   0  0  0  0  0  0  0  0  0  0  0  0
   27.6633  -21.5607   -9.6095 C   0  0  0  0  0  0  0  0  0  0  0  0
   24.2362  -20.5607  -12.6336 C   0  0  0  0  0  0  0  0  0  0  0  0
   23.7067  -19.3980  -12.6770 O   0  0  0  0  0  0  0  0  0  0  0  0
   21.3844  -23.7680  -13.3723 C   0  0  0  0  0  0  0  0  0  0  0  0
   21.3227  -22.3872  -13.9477 C   0  0  1  0  0  0  0  0  0  0  0  0
   20.0000  -22.0740  -14.2393 O   0  0  0  0  0  0  0  0  0  0  0  0
   21.9072  -21.3999  -13.0034 C   0  0  2  0  0  0  0  0  0  0  0  0
   23.3241  -21.6428  -12.7245 N   0  0  0  0  0  0  0  0  0  0  0  0
   21.1491  -21.2753  -11.7154 C   0  0  0  0  0  0  0  0  0  0  0  0
   21.6913  -21.4835  -10.6040 O   0  0  0  0  0  0  0  0  0  0  0  0
   19.8035  -20.9277  -11.6556 O   0  0  0  0  0  0  0  0  0  0  0  0
  2  1  1  6
  2  3  1  0
  3  4  1  0
  4  5  2  0
  5  6  1  0
  7  6  1  0
  8  7  2  0
  9  8  1  0
 10 11  1  0
 10  9  2  0
 11 12  2  0
 12  4  1  0
 12  7  1  0
 13  2  1  0
 13 14  2  0
 15 13  1  0
 16 15  1  0
 16 17  1  1
 18 23  1  0
 18 17  1  0
 19 18  2  0
 20 21  2  0
 20 19  1  0
 21 22  1  0
 22 23  2  0
 24 16  1  0
 25 24  2  0
 27 26  1  1
 27 28  1  0
 29 30  1  1
 29 27  1  0
 30 24  1  0
 31 29  1  0
 32 31  2  0
 33 31  1  0
M  END
$$$$
