WFT.pdb
     RDKit          3D

 33 35  0  0  1  0  0  0  0  0999 V2000
   24.4271  -15.8152  -20.5226 N   0  0  0  0  0  0  0  0  0  0  0  0
   23.4210  -15.5149  -19.5361 C   0  0  1  0  0  0  0  0  0  0  0  0
   22.0865  -15.4151  -20.2511 C   0  0  0  0  0  0  0  0  0  0  0  0
   22.0083  -14.1325  -20.9973 C   0  0  0  0  0  0  0  0  0  0  0  0
   22.5451  -13.8462  -22.2414 C   0  0  0  0  0  0  0  0  0  0  0  0
   22.2404  -12.5916  -22.5450 N   0  0  0  0  0  0  0  0  0  0  0  0
   21.5149  -12.0207  -21.5445 C   0  0  0  0  0  0  0  0  0  0  0  0
   20.9832  -10.7566  -21.4024 C   0  0  0  0  0  0  0  0  0  0  0  0
   20.2828  -10.4124  -20.2775 C   0  0  0  0  0  0  0  0  0  0  0  0
   20.1303  -11.3731  -19.2981 C   0  0  0  0  0  0  0  0  0  0  0  0
   20.6585  -12.6330  -19.4381 C   0  0  0  0  0  0  0  0  0  0  0  0
   21.3773  -13.0004  -20.5806 C   0  0  0  0  0  0  0  0  0  0  0  0
   23.4478  -16.4762  -18.4251 C   0  0  0  0  0  0  0  0  0  0  0  0
   23.6529  -17.7162  -18.6274 O   0  0  0  0  0  0  0  0  0  0  0  0
   23.2463  -16.1330  -17.0451 N   0  0  0  0  0  0  0  0  0  0  0  0
   23.2589  -17.0970  -16.0227 C   0  0  1  0  0  0  0  0  0  0  0  0
   24.2684  -16.8347  -14.9174 C   0  0  0  0  0  0  0  0  0  0  0  0
   25.6515  -16.8268  -15.4582 C   0  0  0  0  0  0  0  0  0  0  0  0
   26.3305  -18.0427  -15.4172 C   0  0  0  0  0  0  0  0  0  0  0  0
   27.6001  -18.1441  -15.8951 C   0  0  0  0  0  0  0  0  0  0  0  0
   28.1890  -17.0094  -16.4197 C   0  0  0  0  0  0  0  0  0  0  0  0
   27.5235  -15.8055  -16.4650 C   0  0  0  0  0  0  0  0  0  0  0  0
   26.2390  -15.6976  -15.9812 C   0  0  0  0  0  0  0  0  0  0  0  0
   21.9894  -17.5340  -15.4463 C   0  0  0  0  0  0  0  0  0  0  0  0
   21.3079  -16.6634  -14.8045 O   0  0  0  0  0  0  0  0  0  0  0  0
   19.0383  -19.8006  -16.9684 C   0  0  0  0  0  0  0  0  0  0  0  0
   19.3523  -20.1766  -15.5537 C   0  0  1  0  0  0  0  0  0  0  0  0
   20.0699  -21.3673  -15.5476 O   0  0  0  0  0  0  0  0  0  0  0  0
   20.1144  -19.0929  -14.8808 C   0  0  2  0  0  0  0  0  0  0  0  0
   21.4094  -18.8266  -15.5103 N   0  0  0  0  0  0  0  0  0  0  0  0
   20.2995  -19.3103  -13.4084 C   0  0  0  0  0  0  0  0  0  0  0  0
   21.4373  -19.4032  -12.8897 O   0  0  0  0  0  0  0  0  0  0  0  0
   19.2375  -19.4278  -12.5178 O   0  0  0  0  0  0  0  0  0  0  0  0
  2  1  1  6
  2  3  1  0
  3  4  1  0
  4  5  2  0
  5  6  1  0
  7  6  1  0
  8  7  2  0
  9  8  1  0
 10 11  1  0
 10  9  2  0
 11 12  2  0
 12  4  1  0
 12  7  1  0
 13  2  1  0
 13 14  2  0
 15 13  1  0
 16 15  1  0
 16 17  1  1
 18 23  1  0
 18 17  1  0
 19 18  2  0
 20 21  2  0
 20 19  1  0
 21 22  1  0
 22 23  2  0
 24 16  1  0
 25 24  2  0
 27 26  1  6
 27 28  1  0
 29 30  1  6
 29 27  1  0
 30 24  1  0
 31 29  1  0
 32 31  2  0
 33 31  1  0
M  END
$$$$
