WFT.pdb
     RDKit          3D

 33 35  0  0  1  0  0  0  0  0999 V2000
   27.4484  -28.8120  -19.4219 N   0  0  0  0  0  0  0  0  0  0  0  0
   27.4042  -28.4213  -18.0359 C   0  0  1  0  0  0  0  0  0  0  0  0
   28.8213  -28.0992  -17.5999 C   0  0  0  0  0  0  0  0  0  0  0  0
   29.6219  -29.3486  -17.5223 C   0  0  0  0  0  0  0  0  0  0  0  0
   30.7967  -29.6408  -18.1950 C   0  0  0  0  0  0  0  0  0  0  0  0
   31.1869  -30.8569  -17.8374 N   0  0  0  0  0  0  0  0  0  0  0  0
   30.3122  -31.3961  -16.9445 C   0  0  0  0  0  0  0  0  0  0  0  0
   30.2905  -32.6162  -16.3030 C   0  0  0  0  0  0  0  0  0  0  0  0
   29.2802  -32.9353  -15.4359 C   0  0  0  0  0  0  0  0  0  0  0  0
   28.2911  -31.9946  -15.2299 C   0  0  0  0  0  0  0  0  0  0  0  0
   28.3113  -30.7784  -15.8673 C   0  0  0  0  0  0  0  0  0  0  0  0
   29.3358  -30.4373  -16.7567 C   0  0  0  0  0  0  0  0  0  0  0  0
   26.4350  -27.3405  -17.8084 C   0  0  0  0  0  0  0  0  0  0  0  0
   26.0036  -26.6252  -18.7691 O   0  0  0  0  0  0  0  0  0  0  0  0
   25.8967  -26.9849  -16.5253 N   0  0  0  0  0  0  0  0  0  0  0  0
   24.9447  -25.9633  -16.3681 C   0  0  1  0  0  0  0  0  0  0  0  0
   24.0089  -26.1463  -15.1846 C   0  0  0  0  0  0  0  0  0  0  0  0
   23.0071  -25.0513  -15.1310 C   0  0  0  0  0  0  0  0  0  0  0  0
   23.2602  -24.0361  -14.2109 C   0  0  0  0  0  0  0  0  0  0  0  0
   22.4079  -22.9829  -14.0889 C   0  0  0  0  0  0  0  0  0  0  0  0
   21.2915  -22.9534  -14.9028 C   0  0  0  0  0  0  0  0  0  0  0  0
   21.0362  -23.9519  -15.8151 C   0  0  0  0  0  0  0  0  0  0  0  0
   21.8952  -25.0205  -15.9412 C   0  0  0  0  0  0  0  0  0  0  0  0
   25.3805  -24.5710  -16.4496 C   0  0  0  0  0  0  0  0  0  0  0  0
   26.1545  -24.1453  -15.5255 O   0  0  0  0  0  0  0  0  0  0  0  0
   27.7677  -22.7971  -18.2918 C   0  0  0  0  0  0  0  0  0  0  0  0
   26.5490  -21.9390  -18.4337 C   0  0  1  0  0  0  0  0  0  0  0  0
   25.9963  -22.1379  -19.6937 O   0  0  0  0  0  0  0  0  0  0  0  0
   25.5634  -22.2488  -17.3657 C   0  0  2  0  0  0  0  0  0  0  0  0
   25.0451  -23.6161  -17.4430 N   0  0  0  0  0  0  0  0  0  0  0  0
   24.4242  -21.2759  -17.2958 C   0  0  0  0  0  0  0  0  0  0  0  0
   23.2455  -21.6151  -17.5567 O   0  0  0  0  0  0  0  0  0  0  0  0
   24.5858  -19.9397  -16.9445 O   0  0  0  0  0  0  0  0  0  0  0  0
  2  1  1  6
  2  3  1  0
  3  4  1  0
  4  5  2  0
  5  6  1  0
  7  6  1  0
  8  7  2  0
  9  8  1  0
 10 11  1  0
 10  9  2  0
 11 12  2  0
 12  4  1  0
 12  7  1  0
 13  2  1  0
 13 14  2  0
 15 13  1  0
 16 15  1  0
 16 17  1  1
 18 23  1  0
 18 17  1  0
 19 18  2  0
 20 21  2  0
 20 19  1  0
 21 22  1  0
 22 23  2  0
 24 16  1  0
 25 24  2  0
 27 26  1  1
 27 28  1  0
 29 30  1  6
 29 27  1  0
 30 24  1  0
 31 29  1  0
 32 31  2  0
 33 31  1  0
M  END
$$$$
