WFT.pdb
     RDKit          3D

 33 35  0  0  1  0  0  0  0  0999 V2000
   25.6660  -22.0315  -12.6149 N   0  0  0  0  0  0  0  0  0  0  0  0
   26.1051  -20.8909  -11.8520 C   0  0  1  0  0  0  0  0  0  0  0  0
   25.0060  -19.8464  -11.9062 C   0  0  0  0  0  0  0  0  0  0  0  0
   24.8079  -19.3941  -13.3077 C   0  0  0  0  0  0  0  0  0  0  0  0
   23.7195  -19.6407  -14.1278 C   0  0  0  0  0  0  0  0  0  0  0  0
   23.9396  -19.0523  -15.2959 N   0  0  0  0  0  0  0  0  0  0  0  0
   25.1433  -18.4163  -15.2911 C   0  0  0  0  0  0  0  0  0  0  0  0
   25.7986  -17.6846  -16.2585 C   0  0  0  0  0  0  0  0  0  0  0  0
   27.0294  -17.1382  -16.0113 C   0  0  0  0  0  0  0  0  0  0  0  0
   27.5847  -17.3463  -14.7648 C   0  0  0  0  0  0  0  0  0  0  0  0
   26.9332  -18.0742  -13.7996 C   0  0  0  0  0  0  0  0  0  0  0  0
   25.6758  -18.6398  -14.0364 C   0  0  0  0  0  0  0  0  0  0  0  0
   26.5173  -21.2734  -10.4945 C   0  0  0  0  0  0  0  0  0  0  0  0
   25.9260  -22.2061   -9.8612 O   0  0  0  0  0  0  0  0  0  0  0  0
   27.5867  -20.6544   -9.7624 N   0  0  0  0  0  0  0  0  0  0  0  0
   27.6326  -20.6541   -8.3579 C   0  0  1  0  0  0  0  0  0  0  0  0
   28.7673  -19.8378   -7.7615 C   0  0  0  0  0  0  0  0  0  0  0  0
   28.7350  -19.8960   -6.2779 C   0  0  0  0  0  0  0  0  0  0  0  0
   28.2295  -18.7691   -5.6332 C   0  0  0  0  0  0  0  0  0  0  0  0
   28.1495  -18.7245   -4.2759 C   0  0  0  0  0  0  0  0  0  0  0  0
   28.5821  -19.8267   -3.5634 C   0  0  0  0  0  0  0  0  0  0  0  0
   29.0809  -20.9439   -4.1939 C   0  0  0  0  0  0  0  0  0  0  0  0
   29.1651  -20.9931   -5.5672 C   0  0  0  0  0  0  0  0  0  0  0  0
   26.4002  -20.4176   -7.6095 C   0  0  0  0  0  0  0  0  0  0  0  0
   25.7672  -19.3338   -7.8524 O   0  0  0  0  0  0  0  0  0  0  0  0
   23.6856  -23.2270   -6.4298 C   0  0  0  0  0  0  0  0  0  0  0  0
   23.4034  -21.7730   -6.6485 C   0  0  1  0  0  0  0  0  0  0  0  0
   22.1776  -21.4557   -6.0747 O   0  0  0  0  0  0  0  0  0  0  0  0
   24.4907  -20.9370   -6.0768 C   0  0  2  0  0  0  0  0  0  0  0  0
   25.8090  -21.2547   -6.6292 N   0  0  0  0  0  0  0  0  0  0  0  0
   24.5471  -20.9633   -4.5782 C   0  0  0  0  0  0  0  0  0  0  0  0
   25.5968  -21.2586   -3.9593 O   0  0  0  0  0  0  0  0  0  0  0  0
   23.4530  -20.6699   -3.7709 O   0  0  0  0  0  0  0  0  0  0  0  0
  2  1  1  1
  2  3  1  0
  3  4  1  0
  4  5  2  0
  5  6  1  0
  7  6  1  0
  8  7  2  0
  9  8  1  0
 10 11  1  0
 10  9  2  0
 11 12  2  0
 12  4  1  0
 12  7  1  0
 13  2  1  0
 13 14  2  0
 15 13  1  0
 16 15  1  0
 16 17  1  6
 18 23  1  0
 18 17  1  0
 19 18  2  0
 20 21  2  0
 20 19  1  0
 21 22  1  0
 22 23  2  0
 24 16  1  0
 25 24  2  0
 27 26  1  1
 27 28  1  0
 29 30  1  6
 29 27  1  0
 30 24  1  0
 31 29  1  0
 32 31  2  0
 33 31  1  0
M  END
$$$$
