WFT.pdb
     RDKit          3D

 33 35  0  0  1  0  0  0  0  0999 V2000
   25.8119  -19.9623  -14.2854 N   0  0  0  0  0  0  0  0  0  0  0  0
   26.8675  -20.0338  -13.3076 C   0  0  1  0  0  0  0  0  0  0  0  0
   27.9321  -19.0267  -13.7006 C   0  0  0  0  0  0  0  0  0  0  0  0
   28.5773  -19.4444  -14.9723 C   0  0  0  0  0  0  0  0  0  0  0  0
   28.5491  -18.7839  -16.1892 C   0  0  0  0  0  0  0  0  0  0  0  0
   29.2565  -19.4908  -17.0603 N   0  0  0  0  0  0  0  0  0  0  0  0
   29.7613  -20.6090  -16.4703 C   0  0  0  0  0  0  0  0  0  0  0  0
   30.5404  -21.6345  -16.9624 C   0  0  0  0  0  0  0  0  0  0  0  0
   30.9233  -22.6734  -16.1572 C   0  0  0  0  0  0  0  0  0  0  0  0
   30.5025  -22.6545  -14.8426 C   0  0  0  0  0  0  0  0  0  0  0  0
   29.7271  -21.6336  -14.3503 C   0  0  0  0  0  0  0  0  0  0  0  0
   29.3267  -20.5653  -15.1600 C   0  0  0  0  0  0  0  0  0  0  0  0
   26.3516  -19.8747  -11.9409 C   0  0  0  0  0  0  0  0  0  0  0  0
   25.7865  -18.7967  -11.5680 O   0  0  0  0  0  0  0  0  0  0  0  0
   26.4329  -20.8784  -10.9169 N   0  0  0  0  0  0  0  0  0  0  0  0
   26.0194  -20.6374   -9.5956 C   0  0  1  0  0  0  0  0  0  0  0  0
   24.7826  -21.4101   -9.1681 C   0  0  0  0  0  0  0  0  0  0  0  0
   23.5650  -20.8523   -9.8100 C   0  0  0  0  0  0  0  0  0  0  0  0
   23.2097  -21.4118  -11.0355 C   0  0  0  0  0  0  0  0  0  0  0  0
   22.1063  -20.9771  -11.7020 C   0  0  0  0  0  0  0  0  0  0  0  0
   21.3548  -19.9703  -11.1266 C   0  0  0  0  0  0  0  0  0  0  0  0
   21.6990  -19.4144   -9.9154 C   0  0  0  0  0  0  0  0  0  0  0  0
   22.8156  -19.8500   -9.2378 C   0  0  0  0  0  0  0  0  0  0  0  0
   27.0159  -20.6588   -8.5272 C   0  0  0  0  0  0  0  0  0  0  0  0
   27.9136  -21.5673   -8.5826 O   0  0  0  0  0  0  0  0  0  0  0  0
   29.8374  -18.4125   -7.1788 C   0  0  0  0  0  0  0  0  0  0  0  0
   28.8970  -18.7584   -6.0664 C   0  0  1  0  0  0  0  0  0  0  0  0
   28.0386  -17.6873   -5.8461 O   0  0  0  0  0  0  0  0  0  0  0  0
   28.1352  -19.9927   -6.3897 C   0  0  2  0  0  0  0  0  0  0  0  0
   27.1123  -19.7826   -7.4162 N   0  0  0  0  0  0  0  0  0  0  0  0
   27.5246  -20.6559   -5.1911 C   0  0  0  0  0  0  0  0  0  0  0  0
   26.3074  -20.9538   -5.1463 O   0  0  0  0  0  0  0  0  0  0  0  0
   28.2510  -20.9835   -4.0509 O   0  0  0  0  0  0  0  0  0  0  0  0
  2  1  1  6
  2  3  1  0
  3  4  1  0
  4  5  2  0
  5  6  1  0
  7  6  1  0
  8  7  2  0
  9  8  1  0
 10 11  1  0
 10  9  2  0
 11 12  2  0
 12  4  1  0
 12  7  1  0
 13  2  1  0
 13 14  2  0
 15 13  1  0
 16 15  1  0
 16 17  1  1
 18 23  1  0
 18 17  1  0
 19 18  2  0
 20 21  2  0
 20 19  1  0
 21 22  1  0
 22 23  2  0
 24 16  1  0
 25 24  2  0
 27 26  1  6
 27 28  1  0
 29 30  1  6
 29 27  1  0
 30 24  1  0
 31 29  1  0
 32 31  2  0
 33 31  1  0
M  END
$$$$
