WFT.pdb
     RDKit          3D

 33 35  0  0  1  0  0  0  0  0999 V2000
   24.7649  -20.6128  -18.6214 N   0  0  0  0  0  0  0  0  0  0  0  0
   24.4949  -19.7795  -17.4775 C   0  0  1  0  0  0  0  0  0  0  0  0
   23.0901  -19.2265  -17.6287 C   0  0  0  0  0  0  0  0  0  0  0  0
   23.0541  -18.2352  -18.7351 C   0  0  0  0  0  0  0  0  0  0  0  0
   22.8413  -18.4809  -20.0813 C   0  0  0  0  0  0  0  0  0  0  0  0
   22.8806  -17.3220  -20.7249 N   0  0  0  0  0  0  0  0  0  0  0  0
   23.1140  -16.3005  -19.8557 C   0  0  0  0  0  0  0  0  0  0  0  0
   23.2430  -14.9416  -20.0496 C   0  0  0  0  0  0  0  0  0  0  0  0
   23.4868  -14.1025  -18.9956 C   0  0  0  0  0  0  0  0  0  0  0  0
   23.5975  -14.6655  -17.7401 C   0  0  0  0  0  0  0  0  0  0  0  0
   23.4686  -16.0187  -17.5448 C   0  0  0  0  0  0  0  0  0  0  0  0
   23.2202  -16.8897  -18.6109 C   0  0  0  0  0  0  0  0  0  0  0  0
   24.7369  -20.4950  -16.2171 C   0  0  0  0  0  0  0  0  0  0  0  0
   24.2356  -21.6452  -16.0019 O   0  0  0  0  0  0  0  0  0  0  0  0
   25.5295  -19.9887  -15.1316 N   0  0  0  0  0  0  0  0  0  0  0  0
   25.2665  -20.3212  -13.7918 C   0  0  1  0  0  0  0  0  0  0  0  0
   26.2318  -19.7139  -12.7873 C   0  0  0  0  0  0  0  0  0  0  0  0
   25.9106  -20.1646  -11.4092 C   0  0  0  0  0  0  0  0  0  0  0  0
   26.1967  -21.4971  -11.1199 C   0  0  0  0  0  0  0  0  0  0  0  0
   25.9474  -22.0070   -9.8835 C   0  0  0  0  0  0  0  0  0  0  0  0
   25.4059  -21.1649   -8.9310 C   0  0  0  0  0  0  0  0  0  0  0  0
   25.1224  -19.8471   -9.2094 C   0  0  0  0  0  0  0  0  0  0  0  0
   25.3716  -19.3270  -10.4596 C   0  0  0  0  0  0  0  0  0  0  0  0
   23.8969  -20.2193  -13.2930 C   0  0  0  0  0  0  0  0  0  0  0  0
   23.3879  -19.0491  -13.2163 O   0  0  0  0  0  0  0  0  0  0  0  0
   20.7071  -21.0819  -14.6941 C   0  0  0  0  0  0  0  0  0  0  0  0
   20.6527  -21.6423  -13.3068 C   0  0  1  0  0  0  0  0  0  0  0  0
   20.8425  -23.0183  -13.3637 O   0  0  0  0  0  0  0  0  0  0  0  0
   21.6760  -20.9995  -12.4421 C   0  0  2  0  0  0  0  0  0  0  0  0
   23.0474  -21.2752  -12.8750 N   0  0  0  0  0  0  0  0  0  0  0  0
   21.5267  -21.3265  -10.9860 C   0  0  0  0  0  0  0  0  0  0  0  0
   22.4173  -21.9374  -10.3488 O   0  0  0  0  0  0  0  0  0  0  0  0
   20.4024  -20.9851  -10.2414 O   0  0  0  0  0  0  0  0  0  0  0  0
  2  1  1  6
  2  3  1  0
  3  4  1  0
  4  5  2  0
  5  6  1  0
  7  6  1  0
  8  7  2  0
  9  8  1  0
 10 11  1  0
 10  9  2  0
 11 12  2  0
 12  4  1  0
 12  7  1  0
 13  2  1  0
 13 14  2  0
 15 13  1  0
 16 15  1  0
 16 17  1  1
 18 23  1  0
 18 17  1  0
 19 18  2  0
 20 21  2  0
 20 19  1  0
 21 22  1  0
 22 23  2  0
 24 16  1  0
 25 24  2  0
 27 26  1  6
 27 28  1  0
 29 30  1  6
 29 27  1  0
 30 24  1  0
 31 29  1  0
 32 31  2  0
 33 31  1  0
M  END
$$$$
