WFT.pdb
     RDKit          3D

 33 35  0  0  1  0  0  0  0  0999 V2000
   27.6568  -20.3697  -15.0453 N   0  0  0  0  0  0  0  0  0  0  0  0
   26.9610  -20.9932  -13.9487 C   0  0  1  0  0  0  0  0  0  0  0  0
   27.2414  -20.1791  -12.6994 C   0  0  0  0  0  0  0  0  0  0  0  0
   28.6992  -20.1817  -12.4117 C   0  0  0  0  0  0  0  0  0  0  0  0
   29.6629  -19.3332  -12.9306 C   0  0  0  0  0  0  0  0  0  0  0  0
   30.8351  -19.6704  -12.4098 N   0  0  0  0  0  0  0  0  0  0  0  0
   30.6938  -20.7209  -11.5556 C   0  0  0  0  0  0  0  0  0  0  0  0
   31.6103  -21.4144  -10.7941 C   0  0  0  0  0  0  0  0  0  0  0  0
   31.2168  -22.4595  -10.0020 C   0  0  0  0  0  0  0  0  0  0  0  0
   29.8765  -22.7896   -9.9950 C   0  0  0  0  0  0  0  0  0  0  0  0
   28.9619  -22.0996  -10.7522 C   0  0  0  0  0  0  0  0  0  0  0  0
   29.3477  -21.0300  -11.5673 C   0  0  0  0  0  0  0  0  0  0  0  0
   25.5346  -21.1799  -14.2483 C   0  0  0  0  0  0  0  0  0  0  0  0
   24.7852  -20.1936  -14.5415 O   0  0  0  0  0  0  0  0  0  0  0  0
   24.8581  -22.4468  -14.2361 N   0  0  0  0  0  0  0  0  0  0  0  0
   23.4809  -22.5643  -14.4894 C   0  0  1  0  0  0  0  0  0  0  0  0
   23.0687  -23.8651  -15.1584 C   0  0  0  0  0  0  0  0  0  0  0  0
   21.6450  -23.8137  -15.5778 C   0  0  0  0  0  0  0  0  0  0  0  0
   20.7646  -24.6114  -14.8500 C   0  0  0  0  0  0  0  0  0  0  0  0
   19.4376  -24.6302  -15.1490 C   0  0  0  0  0  0  0  0  0  0  0  0
   18.9953  -23.8367  -16.1903 C   0  0  0  0  0  0  0  0  0  0  0  0
   19.8592  -23.0449  -16.9123 C   0  0  0  0  0  0  0  0  0  0  0  0
   21.2032  -23.0237  -16.6143 C   0  0  0  0  0  0  0  0  0  0  0  0
   22.5348  -22.2267  -13.4283 C   0  0  0  0  0  0  0  0  0  0  0  0
   22.6832  -22.8153  -12.3032 O   0  0  0  0  0  0  0  0  0  0  0  0
   22.0985  -19.4871  -11.2596 C   0  0  0  0  0  0  0  0  0  0  0  0
   20.7086  -19.7308  -11.7601 C   0  0  1  0  0  0  0  0  0  0  0  0
   20.3913  -18.7669  -12.7103 O   0  0  0  0  0  0  0  0  0  0  0  0
   20.5895  -21.0982  -12.3293 C   0  0  2  0  0  0  0  0  0  0  0  0
   21.4528  -21.3122  -13.4926 N   0  0  0  0  0  0  0  0  0  0  0  0
   19.1811  -21.4926  -12.6614 C   0  0  0  0  0  0  0  0  0  0  0  0
   18.8013  -21.6619  -13.8443 O   0  0  0  0  0  0  0  0  0  0  0  0
   18.2003  -21.6945  -11.6959 O   0  0  0  0  0  0  0  0  0  0  0  0
  2  1  1  6
  2  3  1  0
  3  4  1  0
  4  5  2  0
  5  6  1  0
  7  6  1  0
  8  7  2  0
  9  8  1  0
 10 11  1  0
 10  9  2  0
 11 12  2  0
 12  4  1  0
 12  7  1  0
 13  2  1  0
 13 14  2  0
 15 13  1  0
 16 15  1  0
 16 17  1  1
 18 23  1  0
 18 17  1  0
 19 18  2  0
 20 21  2  0
 20 19  1  0
 21 22  1  0
 22 23  2  0
 24 16  1  0
 25 24  2  0
 27 26  1  6
 27 28  1  0
 29 30  1  6
 29 27  1  0
 30 24  1  0
 31 29  1  0
 32 31  2  0
 33 31  1  0
M  END
$$$$
