WFT.pdb
     RDKit          3D

 33 35  0  0  1  0  0  0  0  0999 V2000
   27.6692  -23.0408  -17.8184 N   0  0  0  0  0  0  0  0  0  0  0  0
   27.2271  -21.8346  -17.1663 C   0  0  1  0  0  0  0  0  0  0  0  0
   26.1269  -21.2256  -18.0152 C   0  0  0  0  0  0  0  0  0  0  0  0
   26.6910  -20.7423  -19.3021 C   0  0  0  0  0  0  0  0  0  0  0  0
   26.7898  -21.4395  -20.4946 C   0  0  0  0  0  0  0  0  0  0  0  0
   27.3467  -20.6415  -21.3957 N   0  0  0  0  0  0  0  0  0  0  0  0
   27.6280  -19.4268  -20.8493 C   0  0  0  0  0  0  0  0  0  0  0  0
   28.2039  -18.2924  -21.3806 C   0  0  0  0  0  0  0  0  0  0  0  0
   28.3900  -17.1744  -20.6126 C   0  0  0  0  0  0  0  0  0  0  0  0
   27.9813  -17.2262  -19.2951 C   0  0  0  0  0  0  0  0  0  0  0  0
   27.4067  -18.3549  -18.7642 C   0  0  0  0  0  0  0  0  0  0  0  0
   27.2103  -19.5056  -19.5351 C   0  0  0  0  0  0  0  0  0  0  0  0
   26.8527  -22.0814  -15.7670 C   0  0  0  0  0  0  0  0  0  0  0  0
   26.0495  -23.0174  -15.4518 O   0  0  0  0  0  0  0  0  0  0  0  0
   27.3299  -21.3172  -14.6485 N   0  0  0  0  0  0  0  0  0  0  0  0
   26.6166  -21.2293  -13.4409 C   0  0  1  0  0  0  0  0  0  0  0  0
   27.3596  -20.5274  -12.3162 C   0  0  0  0  0  0  0  0  0  0  0  0
   26.5633  -20.5525  -11.0628 C   0  0  0  0  0  0  0  0  0  0  0  0
   26.0124  -19.3364  -10.6645 C   0  0  0  0  0  0  0  0  0  0  0  0
   25.2593  -19.2534   -9.5346 C   0  0  0  0  0  0  0  0  0  0  0  0
   25.0597  -20.4076   -8.8012 C   0  0  0  0  0  0  0  0  0  0  0  0
   25.5994  -21.6126   -9.1898 C   0  0  0  0  0  0  0  0  0  0  0  0
   26.3634  -21.7012  -10.3318 C   0  0  0  0  0  0  0  0  0  0  0  0
   25.2242  -20.7873  -13.4719 C   0  0  0  0  0  0  0  0  0  0  0  0
   24.9911  -19.6207  -13.9399 O   0  0  0  0  0  0  0  0  0  0  0  0
   22.6902  -21.2981  -15.6112 C   0  0  0  0  0  0  0  0  0  0  0  0
   21.9748  -21.5180  -14.3144 C   0  0  1  0  0  0  0  0  0  0  0  0
   21.7839  -22.8820  -14.1253 O   0  0  0  0  0  0  0  0  0  0  0  0
   22.7414  -20.9269  -13.1870 C   0  0  2  0  0  0  0  0  0  0  0  0
   24.0793  -21.5033  -13.0388 N   0  0  0  0  0  0  0  0  0  0  0  0
   22.0177  -20.9764  -11.8742 C   0  0  0  0  0  0  0  0  0  0  0  0
   22.4862  -21.5821  -10.8813 O   0  0  0  0  0  0  0  0  0  0  0  0
   20.7862  -20.3657  -11.6614 O   0  0  0  0  0  0  0  0  0  0  0  0
  2  1  1  6
  2  3  1  0
  3  4  1  0
  4  5  2  0
  5  6  1  0
  7  6  1  0
  8  7  2  0
  9  8  1  0
 10 11  1  0
 10  9  2  0
 11 12  2  0
 12  4  1  0
 12  7  1  0
 13  2  1  0
 13 14  2  0
 15 13  1  0
 16 15  1  0
 16 17  1  1
 18 23  1  0
 18 17  1  0
 19 18  2  0
 20 21  2  0
 20 19  1  0
 21 22  1  0
 22 23  2  0
 24 16  1  0
 25 24  2  0
 27 26  1  6
 27 28  1  0
 29 30  1  1
 29 27  1  0
 30 24  1  0
 31 29  1  0
 32 31  2  0
 33 31  1  0
M  END
$$$$
