WFT.pdb
     RDKit          3D

 33 35  0  0  1  0  0  0  0  0999 V2000
   27.3501  -21.2442  -12.3568 N   0  0  0  0  0  0  0  0  0  0  0  0
   26.2617  -20.6681  -11.6090 C   0  0  1  0  0  0  0  0  0  0  0  0
   24.9692  -21.2524  -12.1475 C   0  0  0  0  0  0  0  0  0  0  0  0
   24.3724  -20.3252  -13.1435 C   0  0  0  0  0  0  0  0  0  0  0  0
   25.0386  -19.5332  -14.0638 C   0  0  0  0  0  0  0  0  0  0  0  0
   24.1339  -18.8641  -14.7658 N   0  0  0  0  0  0  0  0  0  0  0  0
   22.8769  -19.1786  -14.3482 C   0  0  0  0  0  0  0  0  0  0  0  0
   21.6361  -18.7435  -14.7628 C   0  0  0  0  0  0  0  0  0  0  0  0
   20.4942  -19.2126  -14.1708 C   0  0  0  0  0  0  0  0  0  0  0  0
   20.6321  -20.1317  -13.1501 C   0  0  0  0  0  0  0  0  0  0  0  0
   21.8671  -20.5669  -12.7362 C   0  0  0  0  0  0  0  0  0  0  0  0
   23.0433  -20.0970  -13.3300 C   0  0  0  0  0  0  0  0  0  0  0  0
   26.4508  -20.8355  -10.1614 C   0  0  0  0  0  0  0  0  0  0  0  0
   26.6146  -21.9869   -9.6439 O   0  0  0  0  0  0  0  0  0  0  0  0
   26.4637  -19.7586   -9.2111 N   0  0  0  0  0  0  0  0  0  0  0  0
   26.4121  -19.9811   -7.8245 C   0  0  1  0  0  0  0  0  0  0  0  0
   26.8402  -18.7948   -6.9765 C   0  0  0  0  0  0  0  0  0  0  0  0
   27.9398  -19.1764   -6.0540 C   0  0  0  0  0  0  0  0  0  0  0  0
   29.2334  -19.0125   -6.5447 C   0  0  0  0  0  0  0  0  0  0  0  0
   30.3112  -19.3253   -5.7758 C   0  0  0  0  0  0  0  0  0  0  0  0
   30.0816  -19.8064   -4.5008 C   0  0  0  0  0  0  0  0  0  0  0  0
   28.8064  -19.9690   -4.0091 C   0  0  0  0  0  0  0  0  0  0  0  0
   27.7125  -19.6552   -4.7840 C   0  0  0  0  0  0  0  0  0  0  0  0
   25.2195  -20.6006   -7.2510 C   0  0  0  0  0  0  0  0  0  0  0  0
   24.0865  -20.2155   -7.7008 O   0  0  0  0  0  0  0  0  0  0  0  0
   24.0261  -24.2802   -6.9418 C   0  0  0  0  0  0  0  0  0  0  0  0
   23.8757  -23.5969   -5.6182 C   0  0  1  0  0  0  0  0  0  0  0  0
   24.9084  -23.9983   -4.7785 O   0  0  0  0  0  0  0  0  0  0  0  0
   23.8720  -22.1207   -5.7885 C   0  0  2  0  0  0  0  0  0  0  0  0
   25.1613  -21.5924   -6.2390 N   0  0  0  0  0  0  0  0  0  0  0  0
   23.4136  -21.3743   -4.5711 C   0  0  0  0  0  0  0  0  0  0  0  0
   24.1288  -20.5058   -4.0175 O   0  0  0  0  0  0  0  0  0  0  0  0
   22.1782  -21.5880   -3.9686 O   0  0  0  0  0  0  0  0  0  0  0  0
  2  1  1  6
  2  3  1  0
  3  4  1  0
  4  5  2  0
  5  6  1  0
  7  6  1  0
  8  7  2  0
  9  8  1  0
 10 11  1  0
 10  9  2  0
 11 12  2  0
 12  4  1  0
 12  7  1  0
 13  2  1  0
 13 14  2  0
 15 13  1  0
 16 15  1  0
 16 17  1  1
 18 23  1  0
 18 17  1  0
 19 18  2  0
 20 21  2  0
 20 19  1  0
 21 22  1  0
 22 23  2  0
 24 16  1  0
 25 24  2  0
 27 26  1  6
 27 28  1  0
 29 30  1  1
 29 27  1  0
 30 24  1  0
 31 29  1  0
 32 31  2  0
 33 31  1  0
M  END
$$$$
