WFT.pdb
     RDKit          3D

 33 35  0  0  1  0  0  0  0  0999 V2000
   27.3667  -23.1696  -17.1506 N   0  0  0  0  0  0  0  0  0  0  0  0
   26.2021  -22.3583  -17.3975 C   0  0  1  0  0  0  0  0  0  0  0  0
   25.3886  -23.0343  -18.4853 C   0  0  0  0  0  0  0  0  0  0  0  0
   25.6024  -22.3393  -19.7812 C   0  0  0  0  0  0  0  0  0  0  0  0
   26.5577  -22.6227  -20.7429 C   0  0  0  0  0  0  0  0  0  0  0  0
   26.3995  -21.7710  -21.7472 N   0  0  0  0  0  0  0  0  0  0  0  0
   25.3674  -20.9202  -21.4939 C   0  0  0  0  0  0  0  0  0  0  0  0
   24.8360  -19.8787  -22.2243 C   0  0  0  0  0  0  0  0  0  0  0  0
   23.7794  -19.1524  -21.7444 C   0  0  0  0  0  0  0  0  0  0  0  0
   23.2699  -19.5008  -20.5096 C   0  0  0  0  0  0  0  0  0  0  0  0
   23.7973  -20.5384  -19.7808 C   0  0  0  0  0  0  0  0  0  0  0  0
   24.8772  -21.2898  -20.2566 C   0  0  0  0  0  0  0  0  0  0  0  0
   25.4590  -22.0865  -16.1593 C   0  0  0  0  0  0  0  0  0  0  0  0
   25.1643  -23.0202  -15.3456 O   0  0  0  0  0  0  0  0  0  0  0  0
   24.9974  -20.7884  -15.7538 N   0  0  0  0  0  0  0  0  0  0  0  0
   24.3382  -20.5746  -14.5313 C   0  0  1  0  0  0  0  0  0  0  0  0
   25.0049  -19.5556  -13.6219 C   0  0  0  0  0  0  0  0  0  0  0  0
   26.4346  -19.8961  -13.4083 C   0  0  0  0  0  0  0  0  0  0  0  0
   27.3356  -19.3489  -14.3193 C   0  0  0  0  0  0  0  0  0  0  0  0
   28.6692  -19.5931  -14.2071 C   0  0  0  0  0  0  0  0  0  0  0  0
   29.0971  -20.3952  -13.1664 C   0  0  0  0  0  0  0  0  0  0  0  0
   28.2128  -20.9375  -12.2618 C   0  0  0  0  0  0  0  0  0  0  0  0
   26.8621  -20.6944  -12.3721 C   0  0  0  0  0  0  0  0  0  0  0  0
   22.8913  -20.3709  -14.5335 C   0  0  0  0  0  0  0  0  0  0  0  0
   22.4321  -19.4451  -15.2861 O   0  0  0  0  0  0  0  0  0  0  0  0
   20.3180  -22.8682  -15.4832 C   0  0  0  0  0  0  0  0  0  0  0  0
   19.7574  -22.1542  -14.2927 C   0  0  1  0  0  0  0  0  0  0  0  0
   19.8323  -22.9893  -13.1838 O   0  0  0  0  0  0  0  0  0  0  0  0
   20.4891  -20.8834  -14.0519 C   0  0  2  0  0  0  0  0  0  0  0  0
   21.9160  -21.0841  -13.7911 N   0  0  0  0  0  0  0  0  0  0  0  0
   19.8880  -20.0372  -12.9694 C   0  0  0  0  0  0  0  0  0  0  0  0
   20.5362  -19.7089  -11.9474 O   0  0  0  0  0  0  0  0  0  0  0  0
   18.5817  -19.5610  -13.0135 O   0  0  0  0  0  0  0  0  0  0  0  0
  2  1  1  1
  2  3  1  0
  3  4  1  0
  4  5  2  0
  5  6  1  0
  7  6  1  0
  8  7  2  0
  9  8  1  0
 10 11  1  0
 10  9  2  0
 11 12  2  0
 12  4  1  0
 12  7  1  0
 13  2  1  0
 13 14  2  0
 15 13  1  0
 16 15  1  0
 16 17  1  6
 18 23  1  0
 18 17  1  0
 19 18  2  0
 20 21  2  0
 20 19  1  0
 21 22  1  0
 22 23  2  0
 24 16  1  0
 25 24  2  0
 27 26  1  6
 27 28  1  0
 29 30  1  1
 29 27  1  0
 30 24  1  0
 31 29  1  0
 32 31  2  0
 33 31  1  0
M  END
$$$$
