WFT.pdb
     RDKit          3D

 33 35  0  0  1  0  0  0  0  0999 V2000
   22.1369  -19.6346  -11.6598 N   0  0  0  0  0  0  0  0  0  0  0  0
   22.9302  -20.7962  -11.9709 C   0  0  1  0  0  0  0  0  0  0  0  0
   22.0693  -21.7392  -12.7904 C   0  0  0  0  0  0  0  0  0  0  0  0
   20.9326  -22.2285  -11.9680 C   0  0  0  0  0  0  0  0  0  0  0  0
   19.6988  -22.6725  -12.4135 C   0  0  0  0  0  0  0  0  0  0  0  0
   18.9794  -23.0251  -11.3565 N   0  0  0  0  0  0  0  0  0  0  0  0
   19.6884  -22.8326  -10.2104 C   0  0  0  0  0  0  0  0  0  0  0  0
   19.3679  -23.0445   -8.8863 C   0  0  0  0  0  0  0  0  0  0  0  0
   20.2670  -22.7624   -7.8930 C   0  0  0  0  0  0  0  0  0  0  0  0
   21.4981  -22.2615   -8.2657 C   0  0  0  0  0  0  0  0  0  0  0  0
   21.8195  -22.0504   -9.5841 C   0  0  0  0  0  0  0  0  0  0  0  0
   20.9121  -22.3326  -10.6108 C   0  0  0  0  0  0  0  0  0  0  0  0
   24.2047  -20.4282  -12.6031 C   0  0  0  0  0  0  0  0  0  0  0  0
   24.2964  -19.4134  -13.3661 O   0  0  0  0  0  0  0  0  0  0  0  0
   25.4348  -21.1511  -12.4388 N   0  0  0  0  0  0  0  0  0  0  0  0
   26.6623  -20.6612  -12.9162 C   0  0  1  0  0  0  0  0  0  0  0  0
   27.8221  -20.8038  -11.9444 C   0  0  0  0  0  0  0  0  0  0  0  0
   27.3896  -20.4909  -10.5585 C   0  0  0  0  0  0  0  0  0  0  0  0
   27.0986  -19.1538  -10.2965 C   0  0  0  0  0  0  0  0  0  0  0  0
   26.6862  -18.7636   -9.0602 C   0  0  0  0  0  0  0  0  0  0  0  0
   26.5654  -19.7308   -8.0807 C   0  0  0  0  0  0  0  0  0  0  0  0
   26.8495  -21.0537   -8.3331 C   0  0  0  0  0  0  0  0  0  0  0  0
   27.2685  -21.4532   -9.5823 C   0  0  0  0  0  0  0  0  0  0  0  0
   27.0930  -21.0238  -14.2645 C   0  0  0  0  0  0  0  0  0  0  0  0
   27.6305  -22.1736  -14.4175 O   0  0  0  0  0  0  0  0  0  0  0  0
   25.2314  -21.9949  -17.1545 C   0  0  0  0  0  0  0  0  0  0  0  0
   26.1784  -20.9508  -17.6592 C   0  0  1  0  0  0  0  0  0  0  0  0
   25.5006  -19.7434  -17.7838 O   0  0  0  0  0  0  0  0  0  0  0  0
   27.3430  -20.8152  -16.7463 C   0  0  2  0  0  0  0  0  0  0  0  0
   26.9882  -20.2450  -15.4451 N   0  0  0  0  0  0  0  0  0  0  0  0
   28.4894  -20.0524  -17.3406 C   0  0  0  0  0  0  0  0  0  0  0  0
   28.8419  -18.9334  -16.8978 O   0  0  0  0  0  0  0  0  0  0  0  0
   29.2373  -20.5194  -18.4165 O   0  0  0  0  0  0  0  0  0  0  0  0
  2  1  1  6
  2  3  1  0
  3  4  1  0
  4  5  2  0
  5  6  1  0
  7  6  1  0
  8  7  2  0
  9  8  1  0
 10 11  1  0
 10  9  2  0
 11 12  2  0
 12  4  1  0
 12  7  1  0
 13  2  1  0
 13 14  2  0
 15 13  1  0
 16 15  1  0
 16 17  1  1
 18 23  1  0
 18 17  1  0
 19 18  2  0
 20 21  2  0
 20 19  1  0
 21 22  1  0
 22 23  2  0
 24 16  1  0
 25 24  2  0
 27 26  1  1
 27 28  1  0
 29 30  1  1
 29 27  1  0
 30 24  1  0
 31 29  1  0
 32 31  2  0
 33 31  1  0
M  END
$$$$
