WFT.pdb
     RDKit          3D

 33 35  0  0  1  0  0  0  0  0999 V2000
   24.9023  -21.7084  -13.1659 N   0  0  0  0  0  0  0  0  0  0  0  0
   24.3586  -20.9755  -12.0511 C   0  0  1  0  0  0  0  0  0  0  0  0
   22.9097  -21.3935  -11.8842 C   0  0  0  0  0  0  0  0  0  0  0  0
   22.1187  -20.9548  -13.0632 C   0  0  0  0  0  0  0  0  0  0  0  0
   21.8915  -21.6569  -14.2351 C   0  0  0  0  0  0  0  0  0  0  0  0
   21.1305  -20.9103  -15.0240 N   0  0  0  0  0  0  0  0  0  0  0  0
   20.8368  -19.7251  -14.4221 C   0  0  0  0  0  0  0  0  0  0  0  0
   20.0960  -18.6409  -14.8423 C   0  0  0  0  0  0  0  0  0  0  0  0
   19.9479  -17.5398  -14.0423 C   0  0  0  0  0  0  0  0  0  0  0  0
   20.5644  -17.5568  -12.8074 C   0  0  0  0  0  0  0  0  0  0  0  0
   21.3022  -18.6360  -12.3867 C   0  0  0  0  0  0  0  0  0  0  0  0
   21.4639  -19.7683  -13.1922 C   0  0  0  0  0  0  0  0  0  0  0  0
   25.1826  -21.1345  -10.8448 C   0  0  0  0  0  0  0  0  0  0  0  0
   25.1594  -22.2101  -10.1644 O   0  0  0  0  0  0  0  0  0  0  0  0
   26.0637  -20.1285  -10.3210 N   0  0  0  0  0  0  0  0  0  0  0  0
   26.5646  -20.1793   -9.0091 C   0  0  1  0  0  0  0  0  0  0  0  0
   27.5975  -19.1130   -8.6838 C   0  0  0  0  0  0  0  0  0  0  0  0
   28.1747  -19.3334   -7.3333 C   0  0  0  0  0  0  0  0  0  0  0  0
   28.8955  -20.5134   -7.1621 C   0  0  0  0  0  0  0  0  0  0  0  0
   29.4715  -20.8063   -5.9650 C   0  0  0  0  0  0  0  0  0  0  0  0
   29.3200  -19.9004   -4.9325 C   0  0  0  0  0  0  0  0  0  0  0  0
   28.6108  -18.7320   -5.0952 C   0  0  0  0  0  0  0  0  0  0  0  0
   28.0248  -18.4319   -6.3044 C   0  0  0  0  0  0  0  0  0  0  0  0
   25.6262  -20.3211   -7.8981 C   0  0  0  0  0  0  0  0  0  0  0  0
   24.6899  -19.4553   -7.8092 O   0  0  0  0  0  0  0  0  0  0  0  0
   22.7509  -22.1293   -7.0552 C   0  0  0  0  0  0  0  0  0  0  0  0
   23.6303  -22.3258   -5.8595 C   0  0  1  0  0  0  0  0  0  0  0  0
   24.2197  -23.5829   -5.9294 O   0  0  0  0  0  0  0  0  0  0  0  0
   24.6615  -21.2582   -5.7871 C   0  0  2  0  0  0  0  0  0  0  0  0
   25.6253  -21.3165   -6.8879 N   0  0  0  0  0  0  0  0  0  0  0  0
   25.3886  -21.2101   -4.4762 C   0  0  0  0  0  0  0  0  0  0  0  0
   26.6372  -21.3017   -4.4067 O   0  0  0  0  0  0  0  0  0  0  0  0
   24.7421  -21.0657   -3.2530 O   0  0  0  0  0  0  0  0  0  0  0  0
  2  1  1  6
  2  3  1  0
  3  4  1  0
  4  5  2  0
  5  6  1  0
  7  6  1  0
  8  7  2  0
  9  8  1  0
 10 11  1  0
 10  9  2  0
 11 12  2  0
 12  4  1  0
 12  7  1  0
 13  2  1  0
 13 14  2  0
 15 13  1  0
 16 15  1  0
 16 17  1  1
 18 23  1  0
 18 17  1  0
 19 18  2  0
 20 21  2  0
 20 19  1  0
 21 22  1  0
 22 23  2  0
 24 16  1  0
 25 24  2  0
 27 26  1  6
 27 28  1  0
 29 30  1  6
 29 27  1  0
 30 24  1  0
 31 29  1  0
 32 31  2  0
 33 31  1  0
M  END
$$$$
