WFT.pdb
     RDKit          3D

 33 35  0  0  1  0  0  0  0  0999 V2000
   27.3210  -31.1854  -19.5316 N   0  0  0  0  0  0  0  0  0  0  0  0
   28.0058  -30.0511  -18.9660 C   0  0  1  0  0  0  0  0  0  0  0  0
   28.1905  -30.3136  -17.4832 C   0  0  0  0  0  0  0  0  0  0  0  0
   26.8655  -30.4743  -16.8300 C   0  0  0  0  0  0  0  0  0  0  0  0
   25.7378  -29.6899  -17.0057 C   0  0  0  0  0  0  0  0  0  0  0  0
   24.7698  -30.1798  -16.2428 N   0  0  0  0  0  0  0  0  0  0  0  0
   25.2085  -31.2704  -15.5562 C   0  0  0  0  0  0  0  0  0  0  0  0
   24.5798  -32.0997  -14.6518 C   0  0  0  0  0  0  0  0  0  0  0  0
   25.2477  -33.1493  -14.0804 C   0  0  0  0  0  0  0  0  0  0  0  0
   26.5654  -33.3443  -14.4424 C   0  0  0  0  0  0  0  0  0  0  0  0
   27.1932  -32.5199  -15.3436 C   0  0  0  0  0  0  0  0  0  0  0  0
   26.5253  -31.4427  -15.9358 C   0  0  0  0  0  0  0  0  0  0  0  0
   29.2475  -29.7508  -19.6921 C   0  0  0  0  0  0  0  0  0  0  0  0
   29.9648  -30.6779  -20.1887 O   0  0  0  0  0  0  0  0  0  0  0  0
   29.7682  -28.4292  -19.9049 N   0  0  0  0  0  0  0  0  0  0  0  0
   30.8983  -28.1879  -20.7044 C   0  0  1  0  0  0  0  0  0  0  0  0
   30.7799  -26.9811  -21.6205 C   0  0  0  0  0  0  0  0  0  0  0  0
   31.9089  -26.9388  -22.5846 C   0  0  0  0  0  0  0  0  0  0  0  0
   32.9083  -26.0065  -22.3144 C   0  0  0  0  0  0  0  0  0  0  0  0
   33.9898  -25.8932  -23.1318 C   0  0  0  0  0  0  0  0  0  0  0  0
   34.0638  -26.7283  -24.2303 C   0  0  0  0  0  0  0  0  0  0  0  0
   33.0810  -27.6528  -24.5022 C   0  0  0  0  0  0  0  0  0  0  0  0
   31.9839  -27.7702  -23.6786 C   0  0  0  0  0  0  0  0  0  0  0  0
   32.2220  -28.2180  -20.0865 C   0  0  0  0  0  0  0  0  0  0  0  0
   32.4265  -27.4273  -19.1030 O   0  0  0  0  0  0  0  0  0  0  0  0
   36.6346  -30.1270  -19.0130 C   0  0  0  0  0  0  0  0  0  0  0  0
   35.2797  -30.2840  -19.6302 C   0  0  1  0  0  0  0  0  0  0  0  0
   34.5529  -31.2187  -18.9016 O   0  0  0  0  0  0  0  0  0  0  0  0
   34.5713  -28.9786  -19.6771 C   0  0  2  0  0  0  0  0  0  0  0  0
   33.3279  -29.0285  -20.4489 N   0  0  0  0  0  0  0  0  0  0  0  0
   35.4261  -27.8457  -20.1620 C   0  0  0  0  0  0  0  0  0  0  0  0
   35.3021  -27.3676  -21.3145 O   0  0  0  0  0  0  0  0  0  0  0  0
   36.4114  -27.2488  -19.3823 O   0  0  0  0  0  0  0  0  0  0  0  0
  2  1  1  6
  2  3  1  0
  3  4  1  0
  4  5  2  0
  5  6  1  0
  7  6  1  0
  8  7  2  0
  9  8  1  0
 10 11  1  0
 10  9  2  0
 11 12  2  0
 12  4  1  0
 12  7  1  0
 13  2  1  0
 13 14  2  0
 15 13  1  0
 16 15  1  0
 16 17  1  1
 18 23  1  0
 18 17  1  0
 19 18  2  0
 20 21  2  0
 20 19  1  0
 21 22  1  0
 22 23  2  0
 24 16  1  0
 25 24  2  0
 27 26  1  1
 27 28  1  0
 29 30  1  6
 29 27  1  0
 30 24  1  0
 31 29  1  0
 32 31  2  0
 33 31  1  0
M  END
$$$$
