SVC.pdb
     RDKit          3D

 20 19  0  0  1  0  0  0  0  0999 V2000
   14.4664   -8.7149  -14.5810 O   0  0  0  0  0  0  0  0  0  0  0  0
   15.8242   -8.4907  -14.3567 C   0  0  0  0  0  0  0  0  0  0  0  0
   16.6370   -9.7463  -14.5686 C   0  0  2  0  0  0  0  0  0  0  0  0
   16.3196  -10.6738  -13.4999 N   0  0  0  0  0  0  0  0  0  0  0  0
   18.0934   -9.3828  -14.5229 C   0  0  0  0  0  0  0  0  0  0  0  0
   18.7452   -9.4205  -13.4499 O   0  0  0  0  0  0  0  0  0  0  0  0
   22.2544   -9.1656  -17.0939 C   0  0  0  0  0  0  0  0  0  0  0  0
   20.8158   -9.4739  -16.8580 C   0  0  2  0  0  0  0  0  0  0  0  0
   19.9521   -9.1201  -18.0289 C   0  0  0  0  0  0  0  0  0  0  0  0
   20.2471   -8.7608  -15.6372 C   0  0  2  0  0  0  0  0  0  0  0  0
   18.8124   -8.9786  -15.6803 N   0  0  0  0  0  0  0  0  0  0  0  0
   20.5490   -7.2967  -15.7823 C   0  0  0  0  0  0  0  0  0  0  0  0
   19.9683   -6.5822  -16.6217 O   0  0  0  0  0  0  0  0  0  0  0  0
   21.5222   -6.6958  -14.9453 N   0  0  0  0  0  0  0  0  0  0  0  0
   21.7732   -5.2736  -15.0898 C   0  0  1  0  0  0  0  0  0  0  0  0
   22.0841   -4.6328  -13.7483 C   0  0  0  0  0  0  0  0  0  0  0  0
   20.7037   -4.8522  -12.6246 S   0  0  0  0  0  0  0  0  0  0  0  0
   22.9021   -5.0402  -16.0488 C   0  0  0  0  0  0  0  0  0  0  0  0
   23.6294   -5.9796  -16.4438 O   0  0  0  0  0  0  0  0  0  0  0  0
   23.1587   -3.7611  -16.5174 O   0  0  0  0  0  0  0  0  0  0  0  0
  2  1  1  0
  3  5  1  0
  3  2  1  0
  3  4  1  1
  5  6  2  0
  8  7  1  6
  8  9  1  0
  8 10  1  0
 10 12  1  0
 10 11  1  6
 11  5  1  0
 12 14  1  0
 12 13  2  0
 14 15  1  0
 15 18  1  0
 15 16  1  1
 17 16  1  0
 18 19  2  0
 18 20  1  0
M  END
$$$$
