SVC.pdb
     RDKit          3D

 20 19  0  0  1  0  0  0  0  0999 V2000
   16.7786  -13.0361  -14.2009 O   0  0  0  0  0  0  0  0  0  0  0  0
   17.6559  -12.0463  -14.6421 C   0  0  0  0  0  0  0  0  0  0  0  0
   17.7233  -11.9959  -16.1504 C   0  0  2  0  0  0  0  0  0  0  0  0
   18.4251  -13.1791  -16.6095 N   0  0  0  0  0  0  0  0  0  0  0  0
   18.4760  -10.7596  -16.5512 C   0  0  0  0  0  0  0  0  0  0  0  0
   19.7029  -10.7964  -16.8174 O   0  0  0  0  0  0  0  0  0  0  0  0
   16.7268   -6.6440  -16.8618 C   0  0  0  0  0  0  0  0  0  0  0  0
   17.5983   -7.4174  -17.7904 C   0  0  2  0  0  0  0  0  0  0  0  0
   16.8148   -8.2842  -18.7269 C   0  0  0  0  0  0  0  0  0  0  0  0
   18.5953   -8.3122  -17.0639 C   0  0  2  0  0  0  0  0  0  0  0  0
   17.8497   -9.4878  -16.6518 N   0  0  0  0  0  0  0  0  0  0  0  0
   19.0837   -7.5644  -15.8564 C   0  0  0  0  0  0  0  0  0  0  0  0
   18.4787   -7.5996  -14.7677 O   0  0  0  0  0  0  0  0  0  0  0  0
   20.2679   -6.7906  -15.9434 N   0  0  0  0  0  0  0  0  0  0  0  0
   20.7072   -6.0665  -14.7647 C   0  0  1  0  0  0  0  0  0  0  0  0
   21.9673   -6.6819  -14.1812 C   0  0  0  0  0  0  0  0  0  0  0  0
   22.5655   -5.6857  -12.8151 S   0  0  0  0  0  0  0  0  0  0  0  0
   20.9428   -4.6238  -15.0991 C   0  0  0  0  0  0  0  0  0  0  0  0
   21.4492   -4.2800  -16.1912 O   0  0  0  0  0  0  0  0  0  0  0  0
   20.5973   -3.6372  -14.1887 O   0  0  0  0  0  0  0  0  0  0  0  0
  2  1  1  0
  3  5  1  0
  3  2  1  0
  3  4  1  1
  5  6  2  0
  8  7  1  1
  8  9  1  0
  8 10  1  0
 10 12  1  0
 10 11  1  1
 11  5  1  0
 12 14  1  0
 12 13  2  0
 14 15  1  0
 15 18  1  0
 15 16  1  6
 17 16  1  0
 18 19  2  0
 18 20  1  0
M  END
$$$$
