SVC.pdb
     RDKit          3D

 20 19  0  0  1  0  0  0  0  0999 V2000
   15.9902  -13.0670  -10.6425 O   0  0  0  0  0  0  0  0  0  0  0  0
   15.7554  -11.7371  -10.9897 C   0  0  0  0  0  0  0  0  0  0  0  0
   14.7972  -11.0731  -10.0291 C   0  0  2  0  0  0  0  0  0  0  0  0
   13.5042  -11.7154  -10.1669 N   0  0  0  0  0  0  0  0  0  0  0  0
   14.6938   -9.6191  -10.3903 C   0  0  0  0  0  0  0  0  0  0  0  0
   14.0390   -9.2372  -11.3917 O   0  0  0  0  0  0  0  0  0  0  0  0
   15.7051   -6.7197   -7.5975 C   0  0  0  0  0  0  0  0  0  0  0  0
   14.8244   -6.4422   -8.7668 C   0  0  2  0  0  0  0  0  0  0  0  0
   13.3886   -6.7704   -8.4965 C   0  0  0  0  0  0  0  0  0  0  0  0
   15.2406   -7.2045  -10.0190 C   0  0  2  0  0  0  0  0  0  0  0  0
   15.3252   -8.5998   -9.6271 N   0  0  0  0  0  0  0  0  0  0  0  0
   16.5958   -6.7031  -10.4289 C   0  0  0  0  0  0  0  0  0  0  0  0
   17.6469   -7.1852   -9.9653 O   0  0  0  0  0  0  0  0  0  0  0  0
   16.6972   -5.6494  -11.3714 N   0  0  0  0  0  0  0  0  0  0  0  0
   17.9612   -5.4573  -12.0583 C   0  0  1  0  0  0  0  0  0  0  0  0
   18.2821   -6.6393  -12.9566 C   0  0  0  0  0  0  0  0  0  0  0  0
   19.8142   -6.3447  -13.8410 S   0  0  0  0  0  0  0  0  0  0  0  0
   17.9291   -4.1911  -12.8609 C   0  0  0  0  0  0  0  0  0  0  0  0
   16.9294   -3.8759  -13.5454 O   0  0  0  0  0  0  0  0  0  0  0  0
   19.0234   -3.3402  -12.8548 O   0  0  0  0  0  0  0  0  0  0  0  0
  2  1  1  0
  3  5  1  0
  3  2  1  0
  3  4  1  6
  5  6  2  0
  8  7  1  1
  8  9  1  0
  8 10  1  0
 10 12  1  0
 10 11  1  1
 11  5  1  0
 12 14  1  0
 12 13  2  0
 14 15  1  0
 15 18  1  0
 15 16  1  6
 17 16  1  0
 18 19  2  0
 18 20  1  0
M  END
$$$$
