SVC.pdb
     RDKit          3D

 20 19  0  0  1  0  0  0  0  0999 V2000
   19.4130  -13.0659  -20.3648 O   0  0  0  0  0  0  0  0  0  0  0  0
   19.2654  -12.4050  -19.1459 C   0  0  0  0  0  0  0  0  0  0  0  0
   20.0972  -13.0478  -18.0611 C   0  0  2  0  0  0  0  0  0  0  0  0
   19.4881  -14.3190  -17.7204 N   0  0  0  0  0  0  0  0  0  0  0  0
   20.1023  -12.1393  -16.8653 C   0  0  0  0  0  0  0  0  0  0  0  0
   19.1566  -12.1380  -16.0388 O   0  0  0  0  0  0  0  0  0  0  0  0
   22.6797   -9.2285  -13.8440 C   0  0  0  0  0  0  0  0  0  0  0  0
   22.5363  -10.2226  -14.9445 C   0  0  2  0  0  0  0  0  0  0  0  0
   23.4371   -9.9307  -16.1046 C   0  0  0  0  0  0  0  0  0  0  0  0
   21.1130  -10.3143  -15.4814 C   0  0  2  0  0  0  0  0  0  0  0  0
   21.1678  -11.2364  -16.6015 N   0  0  0  0  0  0  0  0  0  0  0  0
   20.7173   -8.9470  -15.9607 C   0  0  0  0  0  0  0  0  0  0  0  0
   20.9875   -8.5452  -17.1086 O   0  0  0  0  0  0  0  0  0  0  0  0
   20.0145   -8.0761  -15.0909 N   0  0  0  0  0  0  0  0  0  0  0  0
   19.5132   -6.8235  -15.6258 C   0  0  1  0  0  0  0  0  0  0  0  0
   18.4742   -7.0658  -16.7069 C   0  0  0  0  0  0  0  0  0  0  0  0
   17.7707   -5.5072  -17.2475 S   0  0  0  0  0  0  0  0  0  0  0  0
   18.9311   -5.9854  -14.5271 C   0  0  0  0  0  0  0  0  0  0  0  0
   18.3795   -6.5050  -13.5306 O   0  0  0  0  0  0  0  0  0  0  0  0
   18.9975   -4.6028  -14.6023 O   0  0  0  0  0  0  0  0  0  0  0  0
  2  1  1  0
  3  5  1  0
  3  2  1  0
  3  4  1  1
  5  6  2  0
  8  7  1  1
  8  9  1  0
  8 10  1  0
 10 12  1  0
 10 11  1  6
 11  5  1  0
 12 14  1  0
 12 13  2  0
 14 15  1  0
 15 18  1  0
 15 16  1  6
 17 16  1  0
 18 19  2  0
 18 20  1  0
M  END
$$$$
