SVC.pdb
     RDKit          3D

 20 19  0  0  1  0  0  0  0  0999 V2000
   23.6539  -13.3398  -21.1387 O   0  0  0  0  0  0  0  0  0  0  0  0
   23.3656  -12.7152  -19.9258 C   0  0  0  0  0  0  0  0  0  0  0  0
   24.3027  -13.1683  -18.8311 C   0  0  2  0  0  0  0  0  0  0  0  0
   23.9737  -14.5405  -18.4962 N   0  0  0  0  0  0  0  0  0  0  0  0
   24.1012  -12.2814  -17.6360 C   0  0  0  0  0  0  0  0  0  0  0  0
   23.2321  -12.5396  -16.7670 O   0  0  0  0  0  0  0  0  0  0  0  0
   26.9899   -9.3906  -16.6286 C   0  0  0  0  0  0  0  0  0  0  0  0
   26.0519  -10.0279  -15.6622 C   0  0  2  0  0  0  0  0  0  0  0  0
   26.5610  -11.3376  -15.1447 C   0  0  0  0  0  0  0  0  0  0  0  0
   24.6681  -10.2746  -16.2509 C   0  0  2  0  0  0  0  0  0  0  0  0
   24.8753  -11.1090  -17.4208 N   0  0  0  0  0  0  0  0  0  0  0  0
   24.1036   -8.9448  -16.6619 C   0  0  0  0  0  0  0  0  0  0  0  0
   24.4994   -8.3448  -17.6795 O   0  0  0  0  0  0  0  0  0  0  0  0
   23.0887   -8.3421  -15.8773 N   0  0  0  0  0  0  0  0  0  0  0  0
   22.4360   -7.1513  -16.3898 C   0  0  1  0  0  0  0  0  0  0  0  0
   21.8193   -7.4083  -17.7539 C   0  0  0  0  0  0  0  0  0  0  0  0
   20.9506   -5.9466  -18.3241 S   0  0  0  0  0  0  0  0  0  0  0  0
   21.3868   -6.6793  -15.4282 C   0  0  0  0  0  0  0  0  0  0  0  0
   20.7745   -7.4787  -14.6843 O   0  0  0  0  0  0  0  0  0  0  0  0
   21.0770   -5.3305  -15.3495 O   0  0  0  0  0  0  0  0  0  0  0  0
  2  1  1  0
  3  5  1  0
  3  2  1  0
  3  4  1  1
  5  6  2  0
  8  7  1  6
  8  9  1  0
  8 10  1  0
 10 12  1  0
 10 11  1  6
 11  5  1  0
 12 14  1  0
 12 13  2  0
 14 15  1  0
 15 18  1  0
 15 16  1  6
 17 16  1  0
 18 19  2  0
 18 20  1  0
M  END
$$$$
