SVC.pdb
     RDKit          3D

 20 19  0  0  1  0  0  0  0  0999 V2000
   14.1818  -15.9123  -11.5560 O   0  0  0  0  0  0  0  0  0  0  0  0
   14.0242  -14.6269  -12.0729 C   0  0  0  0  0  0  0  0  0  0  0  0
   13.3979  -13.6948  -11.0625 C   0  0  2  0  0  0  0  0  0  0  0  0
   11.9966  -14.0456  -10.9344 N   0  0  0  0  0  0  0  0  0  0  0  0
   13.5350  -12.2867  -11.5664 C   0  0  0  0  0  0  0  0  0  0  0  0
   12.8274  -11.8565  -12.5107 O   0  0  0  0  0  0  0  0  0  0  0  0
   15.3451   -9.4674   -9.1290 C   0  0  0  0  0  0  0  0  0  0  0  0
   14.3362   -9.1454  -10.1771 C   0  0  2  0  0  0  0  0  0  0  0  0
   12.9296   -9.3299   -9.6977 C   0  0  0  0  0  0  0  0  0  0  0  0
   14.5031   -9.9815  -11.4402 C   0  0  2  0  0  0  0  0  0  0  0  0
   14.4647  -11.3674  -11.0092 N   0  0  0  0  0  0  0  0  0  0  0  0
   15.8497   -9.6623  -12.0238 C   0  0  0  0  0  0  0  0  0  0  0  0
   16.9098  -10.0074  -11.4676 O   0  0  0  0  0  0  0  0  0  0  0  0
   15.9322   -8.9468  -13.2445 N   0  0  0  0  0  0  0  0  0  0  0  0
   17.2471   -8.6225  -13.7667 C   0  0  1  0  0  0  0  0  0  0  0  0
   17.4521   -9.2226  -15.1469 C   0  0  0  0  0  0  0  0  0  0  0  0
   17.4420  -11.0133  -15.0492 S   0  0  0  0  0  0  0  0  0  0  0  0
   17.4341   -7.1355  -13.8159 C   0  0  0  0  0  0  0  0  0  0  0  0
   16.4625   -6.3510  -13.7283 O   0  0  0  0  0  0  0  0  0  0  0  0
   18.7055   -6.6026  -13.9613 O   0  0  0  0  0  0  0  0  0  0  0  0
  2  1  1  0
  3  5  1  0
  3  2  1  0
  3  4  1  6
  5  6  2  0
  8  7  1  1
  8  9  1  0
  8 10  1  0
 10 12  1  0
 10 11  1  1
 11  5  1  0
 12 14  1  0
 12 13  2  0
 14 15  1  0
 15 18  1  0
 15 16  1  6
 17 16  1  0
 18 19  2  0
 18 20  1  0
M  END
$$$$
