SVC.pdb
     RDKit          3D

 20 19  0  0  1  0  0  0  0  0999 V2000
   19.6659  -13.6341  -15.6697 O   0  0  0  0  0  0  0  0  0  0  0  0
   19.2165  -12.3142  -15.6858 C   0  0  0  0  0  0  0  0  0  0  0  0
   17.8793  -12.1743  -14.9972 C   0  0  2  0  0  0  0  0  0  0  0  0
   16.8579  -12.6907  -15.8880 N   0  0  0  0  0  0  0  0  0  0  0  0
   17.6371  -10.7181  -14.7212 C   0  0  0  0  0  0  0  0  0  0  0  0
   17.3833   -9.9086  -15.6473 O   0  0  0  0  0  0  0  0  0  0  0  0
   16.6930   -7.2256  -11.3542 C   0  0  0  0  0  0  0  0  0  0  0  0
   16.7932   -8.6323  -11.8348 C   0  0  2  0  0  0  0  0  0  0  0  0
   17.5036   -9.5231  -10.8631 C   0  0  0  0  0  0  0  0  0  0  0  0
   17.5085   -8.7535  -13.1749 C   0  0  2  0  0  0  0  0  0  0  0  0
   17.6806  -10.1761  -13.4081 N   0  0  0  0  0  0  0  0  0  0  0  0
   18.8488   -8.0896  -13.0382 C   0  0  0  0  0  0  0  0  0  0  0  0
   19.6323   -8.3672  -12.1101 O   0  0  0  0  0  0  0  0  0  0  0  0
   19.2479   -7.1153  -13.9870 N   0  0  0  0  0  0  0  0  0  0  0  0
   20.5655   -6.5215  -13.8537 C   0  0  1  0  0  0  0  0  0  0  0  0
   21.4763   -6.9470  -14.9923 C   0  0  0  0  0  0  0  0  0  0  0  0
   23.0241   -6.0443  -14.9153 S   0  0  0  0  0  0  0  0  0  0  0  0
   20.4593   -5.0265  -13.8071 C   0  0  0  0  0  0  0  0  0  0  0  0
   19.5147   -4.4205  -14.3620 O   0  0  0  0  0  0  0  0  0  0  0  0
   21.4208   -4.2850  -13.1385 O   0  0  0  0  0  0  0  0  0  0  0  0
  2  1  1  0
  3  5  1  0
  3  2  1  0
  3  4  1  6
  5  6  2  0
  8  7  1  1
  8  9  1  0
  8 10  1  0
 10 12  1  0
 10 11  1  1
 11  5  1  0
 12 14  1  0
 12 13  2  0
 14 15  1  0
 15 18  1  0
 15 16  1  6
 17 16  1  0
 18 19  2  0
 18 20  1  0
M  END
$$$$
