SVC.pdb
     RDKit          3D

 20 19  0  0  1  0  0  0  0  0999 V2000
   31.1254  -37.5006   -5.1099 O   0  0  0  0  0  0  0  0  0  0  0  0
   30.0741  -37.1065   -5.9367 C   0  0  0  0  0  0  0  0  0  0  0  0
   28.7325  -37.4187   -5.3164 C   0  0  2  0  0  0  0  0  0  0  0  0
   27.7225  -37.3142   -6.3519 N   0  0  0  0  0  0  0  0  0  0  0  0
   28.4663  -36.4158   -4.2307 C   0  0  0  0  0  0  0  0  0  0  0  0
   29.0927  -36.4458   -3.1425 O   0  0  0  0  0  0  0  0  0  0  0  0
   25.9438  -32.3242   -2.9057 C   0  0  0  0  0  0  0  0  0  0  0  0
   26.3611  -33.3513   -3.9012 C   0  0  2  0  0  0  0  0  0  0  0  0
   25.1952  -34.0416   -4.5388 C   0  0  0  0  0  0  0  0  0  0  0  0
   27.2601  -34.4273   -3.3043 C   0  0  2  0  0  0  0  0  0  0  0  0
   27.4990  -35.3839   -4.3700 N   0  0  0  0  0  0  0  0  0  0  0  0
   26.5043  -35.0839   -2.1848 C   0  0  0  0  0  0  0  0  0  0  0  0
   25.6102  -35.9257   -2.3954 O   0  0  0  0  0  0  0  0  0  0  0  0
   26.8067  -34.7451   -0.8422 N   0  0  0  0  0  0  0  0  0  0  0  0
   26.1763  -35.5066    0.2205 C   0  0  1  0  0  0  0  0  0  0  0  0
   27.1883  -35.9145    1.2771 C   0  0  0  0  0  0  0  0  0  0  0  0
   28.4065  -37.0244    0.5696 S   0  0  0  0  0  0  0  0  0  0  0  0
   25.0694  -34.7102    0.8441 C   0  0  0  0  0  0  0  0  0  0  0  0
   24.8604  -33.5183    0.5232 O   0  0  0  0  0  0  0  0  0  0  0  0
   24.2507  -35.2930    1.7989 O   0  0  0  0  0  0  0  0  0  0  0  0
  2  1  1  0
  3  5  1  0
  3  2  1  0
  3  4  1  6
  5  6  2  0
  8  7  1  1
  8  9  1  0
  8 10  1  0
 10 12  1  0
 10 11  1  6
 11  5  1  0
 12 14  1  0
 12 13  2  0
 14 15  1  0
 15 18  1  0
 15 16  1  1
 17 16  1  0
 18 19  2  0
 18 20  1  0
M  END
$$$$
