SVC.pdb
     RDKit          3D

 20 19  0  0  1  0  0  0  0  0999 V2000
   14.8237   -9.0340  -15.1802 O   0  0  0  0  0  0  0  0  0  0  0  0
   15.9857   -8.6242  -14.5274 C   0  0  0  0  0  0  0  0  0  0  0  0
   16.6755   -9.7805  -13.8427 C   0  0  2  0  0  0  0  0  0  0  0  0
   15.9250  -10.1074  -12.6455 N   0  0  0  0  0  0  0  0  0  0  0  0
   18.0692   -9.3548  -13.4797 C   0  0  0  0  0  0  0  0  0  0  0  0
   18.3121   -8.7546  -12.4036 O   0  0  0  0  0  0  0  0  0  0  0  0
   22.9079   -9.4565  -14.5313 C   0  0  0  0  0  0  0  0  0  0  0  0
   21.5085   -9.9452  -14.6819 C   0  0  2  0  0  0  0  0  0  0  0  0
   21.1198  -10.1450  -16.1142 C   0  0  0  0  0  0  0  0  0  0  0  0
   20.4813   -9.0106  -14.0545 C   0  0  2  0  0  0  0  0  0  0  0  0
   19.1842   -9.6040  -14.3251 N   0  0  0  0  0  0  0  0  0  0  0  0
   20.5921   -7.6815  -14.7452 C   0  0  0  0  0  0  0  0  0  0  0  0
   20.0129   -7.4463  -15.8230 O   0  0  0  0  0  0  0  0  0  0  0  0
   21.3764   -6.6536  -14.1646 N   0  0  0  0  0  0  0  0  0  0  0  0
   21.3576   -5.3397  -14.7808 C   0  0  1  0  0  0  0  0  0  0  0  0
   19.9962   -4.6832  -14.6305 C   0  0  0  0  0  0  0  0  0  0  0  0
   20.0608   -2.9877  -15.2114 S   0  0  0  0  0  0  0  0  0  0  0  0
   22.4210   -4.4692  -14.1807 C   0  0  0  0  0  0  0  0  0  0  0  0
   22.7682   -4.5918  -12.9842 O   0  0  0  0  0  0  0  0  0  0  0  0
   23.0426   -3.5024  -14.9557 O   0  0  0  0  0  0  0  0  0  0  0  0
  2  1  1  0
  3  5  1  0
  3  2  1  0
  3  4  1  1
  5  6  2  0
  8  7  1  6
  8  9  1  0
  8 10  1  0
 10 12  1  0
 10 11  1  6
 11  5  1  0
 12 14  1  0
 12 13  2  0
 14 15  1  0
 15 18  1  0
 15 16  1  1
 17 16  1  0
 18 19  2  0
 18 20  1  0
M  END
$$$$
