SVC.pdb
     RDKit          3D

 20 19  0  0  1  0  0  0  0  0999 V2000
   26.3697  -21.9719  -19.6093 O   0  0  0  0  0  0  0  0  0  0  0  0
   25.6598  -22.7078  -18.6613 C   0  0  0  0  0  0  0  0  0  0  0  0
   26.4000  -22.7808  -17.3465 C   0  0  2  0  0  0  0  0  0  0  0  0
   27.3446  -23.8787  -17.4220 N   0  0  0  0  0  0  0  0  0  0  0  0
   25.4019  -23.0311  -16.2526 C   0  0  0  0  0  0  0  0  0  0  0  0
   25.1556  -24.1925  -15.8430 O   0  0  0  0  0  0  0  0  0  0  0  0
   23.6550  -19.7655  -14.1275 C   0  0  0  0  0  0  0  0  0  0  0  0
   23.9440  -21.1044  -13.5411 C   0  0  2  0  0  0  0  0  0  0  0  0
   25.3351  -21.2059  -12.9963 C   0  0  0  0  0  0  0  0  0  0  0  0
   23.7580  -22.2427  -14.5372 C   0  0  2  0  0  0  0  0  0  0  0  0
   24.6846  -21.9780  -15.6230 N   0  0  0  0  0  0  0  0  0  0  0  0
   22.3446  -22.1811  -15.0415 C   0  0  0  0  0  0  0  0  0  0  0  0
   22.0034  -21.4107  -15.9593 O   0  0  0  0  0  0  0  0  0  0  0  0
   21.3580  -23.0194  -14.4649 N   0  0  0  0  0  0  0  0  0  0  0  0
   19.9968  -22.9242  -14.9596 C   0  0  1  0  0  0  0  0  0  0  0  0
   19.3327  -24.2896  -15.0033 C   0  0  0  0  0  0  0  0  0  0  0  0
   20.3750  -25.4553  -15.8814 S   0  0  0  0  0  0  0  0  0  0  0  0
   19.1976  -21.9872  -14.1041 C   0  0  0  0  0  0  0  0  0  0  0  0
   19.6384  -21.5613  -13.0125 O   0  0  0  0  0  0  0  0  0  0  0  0
   17.9407  -21.5742  -14.5179 O   0  0  0  0  0  0  0  0  0  0  0  0
  2  1  1  0
  3  5  1  0
  3  2  1  0
  3  4  1  6
  5  6  2  0
  8  7  1  6
  8  9  1  0
  8 10  1  0
 10 12  1  0
 10 11  1  6
 11  5  1  0
 12 14  1  0
 12 13  2  0
 14 15  1  0
 15 18  1  0
 15 16  1  1
 17 16  1  0
 18 19  2  0
 18 20  1  0
M  END
$$$$
