SVC.pdb
     RDKit          3D

 20 19  0  0  1  0  0  0  0  0999 V2000
   11.9571  -12.8648  -11.7796 O   0  0  0  0  0  0  0  0  0  0  0  0
   13.0462  -12.1471  -11.2867 C   0  0  0  0  0  0  0  0  0  0  0  0
   14.1314  -12.0001  -12.3272 C   0  0  2  0  0  0  0  0  0  0  0  0
   14.6951  -13.3125  -12.5784 N   0  0  0  0  0  0  0  0  0  0  0  0
   15.1866  -11.0785  -11.7862 C   0  0  0  0  0  0  0  0  0  0  0  0
   16.0149  -11.4644  -10.9245 O   0  0  0  0  0  0  0  0  0  0  0  0
   16.0883   -7.5240  -13.7470 C   0  0  0  0  0  0  0  0  0  0  0  0
   17.0101   -8.1657  -12.7680 C   0  0  2  0  0  0  0  0  0  0  0  0
   17.8901   -9.2001  -13.3991 C   0  0  0  0  0  0  0  0  0  0  0  0
   16.2776   -8.8323  -11.6098 C   0  0  2  0  0  0  0  0  0  0  0  0
   15.3083   -9.7286  -12.2138 N   0  0  0  0  0  0  0  0  0  0  0  0
   15.5702   -7.7557  -10.8375 C   0  0  0  0  0  0  0  0  0  0  0  0
   14.5378   -7.2051  -11.2655 O   0  0  0  0  0  0  0  0  0  0  0  0
   16.0816   -7.3435   -9.5816 N   0  0  0  0  0  0  0  0  0  0  0  0
   15.4582   -6.2117   -8.9206 C   0  0  1  0  0  0  0  0  0  0  0  0
   15.1585   -6.5242   -7.4647 C   0  0  0  0  0  0  0  0  0  0  0  0
   14.5266   -5.0639   -6.6372 S   0  0  0  0  0  0  0  0  0  0  0  0
   16.3393   -5.0024   -9.0195 C   0  0  0  0  0  0  0  0  0  0  0  0
   15.8653   -3.8440   -8.9918 O   0  0  0  0  0  0  0  0  0  0  0  0
   17.7114   -5.1544   -9.1449 O   0  0  0  0  0  0  0  0  0  0  0  0
  2  1  1  0
  3  5  1  0
  3  2  1  0
  3  4  1  1
  5  6  2  0
  8  7  1  6
  8  9  1  0
  8 10  1  0
 10 12  1  0
 10 11  1  6
 11  5  1  0
 12 14  1  0
 12 13  2  0
 14 15  1  0
 15 18  1  0
 15 16  1  1
 17 16  1  0
 18 19  2  0
 18 20  1  0
M  END
$$$$
