SVC.pdb
     RDKit          3D

 20 19  0  0  1  0  0  0  0  0999 V2000
   25.7394  -12.3384  -16.0794 O   0  0  0  0  0  0  0  0  0  0  0  0
   24.9738  -11.2128  -16.3811 C   0  0  0  0  0  0  0  0  0  0  0  0
   23.5389  -11.5802  -16.6779 C   0  0  2  0  0  0  0  0  0  0  0  0
   23.4985  -12.2245  -17.9765 N   0  0  0  0  0  0  0  0  0  0  0  0
   22.7207  -10.3210  -16.6992 C   0  0  0  0  0  0  0  0  0  0  0  0
   22.6173   -9.6239  -17.7388 O   0  0  0  0  0  0  0  0  0  0  0  0
   19.0475   -7.8559  -14.5461 C   0  0  0  0  0  0  0  0  0  0  0  0
   19.9112   -9.0369  -14.8274 C   0  0  2  0  0  0  0  0  0  0  0  0
   20.3583   -9.7330  -13.5792 C   0  0  0  0  0  0  0  0  0  0  0  0
   21.1594   -8.6840  -15.6272 C   0  0  2  0  0  0  0  0  0  0  0  0
   22.0223   -9.8492  -15.5549 N   0  0  0  0  0  0  0  0  0  0  0  0
   21.8177   -7.5145  -14.9529 C   0  0  0  0  0  0  0  0  0  0  0  0
   22.5019   -7.6465  -13.9200 O   0  0  0  0  0  0  0  0  0  0  0  0
   21.6646   -6.2149  -15.4971 N   0  0  0  0  0  0  0  0  0  0  0  0
   22.3359   -5.1083  -14.8404 C   0  0  1  0  0  0  0  0  0  0  0  0
   22.9530   -4.1615  -15.8552 C   0  0  0  0  0  0  0  0  0  0  0  0
   23.6765   -2.7483  -15.0209 S   0  0  0  0  0  0  0  0  0  0  0  0
   21.3755   -4.3675  -13.9588 C   0  0  0  0  0  0  0  0  0  0  0  0
   20.2023   -4.1292  -14.3249 O   0  0  0  0  0  0  0  0  0  0  0  0
   21.7811   -3.9303  -12.7074 O   0  0  0  0  0  0  0  0  0  0  0  0
  2  1  1  0
  3  5  1  0
  3  2  1  0
  3  4  1  6
  5  6  2  0
  8  7  1  1
  8  9  1  0
  8 10  1  0
 10 12  1  0
 10 11  1  1
 11  5  1  0
 12 14  1  0
 12 13  2  0
 14 15  1  0
 15 18  1  0
 15 16  1  6
 17 16  1  0
 18 19  2  0
 18 20  1  0
M  END
$$$$
