SVC.pdb
     RDKit          3D

 20 19  0  0  1  0  0  0  0  0999 V2000
   16.5889  -11.6077  -17.5206 O   0  0  0  0  0  0  0  0  0  0  0  0
   17.3343  -10.8891  -16.5867 C   0  0  0  0  0  0  0  0  0  0  0  0
   18.6480  -11.5697  -16.2821 C   0  0  2  0  0  0  0  0  0  0  0  0
   18.3622  -12.8080  -15.5835 N   0  0  0  0  0  0  0  0  0  0  0  0
   19.4635  -10.6593  -15.4093 C   0  0  0  0  0  0  0  0  0  0  0  0
   19.1211  -10.4034  -14.2283 O   0  0  0  0  0  0  0  0  0  0  0  0
   23.3533   -9.7648  -16.5542 C   0  0  0  0  0  0  0  0  0  0  0  0
   22.9001   -9.7380  -15.1351 C   0  0  2  0  0  0  0  0  0  0  0  0
   22.9742  -11.0835  -14.4820 C   0  0  0  0  0  0  0  0  0  0  0  0
   21.4723   -9.2297  -14.9761 C   0  0  2  0  0  0  0  0  0  0  0  0
   20.6590  -10.0402  -15.8646 N   0  0  0  0  0  0  0  0  0  0  0  0
   21.4465   -7.7955  -15.4215 C   0  0  0  0  0  0  0  0  0  0  0  0
   21.4871   -7.4764  -16.6252 O   0  0  0  0  0  0  0  0  0  0  0  0
   21.3739   -6.7627  -14.4536 N   0  0  0  0  0  0  0  0  0  0  0  0
   21.3844   -5.3856  -14.9119 C   0  0  1  0  0  0  0  0  0  0  0  0
   20.1839   -4.6218  -14.3803 C   0  0  0  0  0  0  0  0  0  0  0  0
   18.6710   -5.2878  -15.0759 S   0  0  0  0  0  0  0  0  0  0  0  0
   22.6552   -4.7085  -14.4935 C   0  0  0  0  0  0  0  0  0  0  0  0
   22.9279   -3.5438  -14.8630 O   0  0  0  0  0  0  0  0  0  0  0  0
   23.5583   -5.3743  -13.6795 O   0  0  0  0  0  0  0  0  0  0  0  0
  2  1  1  0
  3  5  1  0
  3  2  1  0
  3  4  1  1
  5  6  2  0
  8  7  1  6
  8  9  1  0
  8 10  1  0
 10 12  1  0
 10 11  1  6
 11  5  1  0
 12 14  1  0
 12 13  2  0
 14 15  1  0
 15 18  1  0
 15 16  1  1
 17 16  1  0
 18 19  2  0
 18 20  1  0
M  END
$$$$
