SVC.pdb
     RDKit          3D

 20 19  0  0  1  0  0  0  0  0999 V2000
   21.9966  -11.2178  -16.3939 O   0  0  0  0  0  0  0  0  0  0  0  0
   22.2248  -12.5559  -16.7130 C   0  0  0  0  0  0  0  0  0  0  0  0
   23.6572  -12.7907  -17.1314 C   0  0  2  0  0  0  0  0  0  0  0  0
   23.8473  -12.1952  -18.4401 N   0  0  0  0  0  0  0  0  0  0  0  0
   23.8962  -14.2719  -17.1972 C   0  0  0  0  0  0  0  0  0  0  0  0
   23.6293  -14.9338  -18.2307 O   0  0  0  0  0  0  0  0  0  0  0  0
   26.1723  -16.0874  -14.2600 C   0  0  0  0  0  0  0  0  0  0  0  0
   25.9331  -16.7663  -15.5645 C   0  0  2  0  0  0  0  0  0  0  0  0
   26.9633  -16.4155  -16.5931 C   0  0  0  0  0  0  0  0  0  0  0  0
   24.5661  -16.4488  -16.1584 C   0  0  2  0  0  0  0  0  0  0  0  0
   24.4332  -15.0041  -16.1039 N   0  0  0  0  0  0  0  0  0  0  0  0
   23.5283  -17.0935  -15.2848 C   0  0  0  0  0  0  0  0  0  0  0  0
   23.3354  -16.7293  -14.1090 O   0  0  0  0  0  0  0  0  0  0  0  0
   22.7366  -18.1499  -15.8005 N   0  0  0  0  0  0  0  0  0  0  0  0
   21.7355  -18.7474  -14.9360 C   0  0  1  0  0  0  0  0  0  0  0  0
   20.5776  -17.7936  -14.6975 C   0  0  0  0  0  0  0  0  0  0  0  0
   19.8542  -17.2973  -16.2617 S   0  0  0  0  0  0  0  0  0  0  0  0
   21.2353  -20.0302  -15.5298 C   0  0  0  0  0  0  0  0  0  0  0  0
   21.5034  -20.3532  -16.7092 O   0  0  0  0  0  0  0  0  0  0  0  0
   20.4573  -20.8882  -14.7681 O   0  0  0  0  0  0  0  0  0  0  0  0
  2  1  1  0
  3  5  1  0
  3  2  1  0
  3  4  1  6
  5  6  2  0
  8  7  1  1
  8  9  1  0
  8 10  1  0
 10 12  1  0
 10 11  1  1
 11  5  1  0
 12 14  1  0
 12 13  2  0
 14 15  1  0
 15 18  1  0
 15 16  1  6
 17 16  1  0
 18 19  2  0
 18 20  1  0
M  END
$$$$
