GHG.pdb
     RDKit          3D

 19 19  0  0  1  0  0  0  0  0999 V2000
   18.1189   -8.7191  -11.5729 N   0  0  0  0  0  0  0  0  0  0  0  0
   18.2830   -8.1173  -12.8358 C   0  0  0  0  0  0  0  0  0  0  0  0
   19.7232   -8.0645  -13.1979 C   0  0  0  0  0  0  0  0  0  0  0  0
   20.5882   -8.5008  -12.4035 O   0  0  0  0  0  0  0  0  0  0  0  0
   20.1255   -7.5189  -14.4468 N   0  0  0  0  0  0  0  0  0  0  0  0
   21.4886   -7.5076  -14.9022 C   0  0  1  0  0  0  0  0  0  0  0  0
   21.5344   -8.0470  -16.2992 C   0  0  0  0  0  0  0  0  0  0  0  0
   21.2530   -9.4968  -16.3714 C   0  0  0  0  0  0  0  0  0  0  0  0
   22.1825  -10.5171  -16.3909 C   0  0  0  0  0  0  0  0  0  0  0  0
   21.5214  -11.7091  -16.4622 N   0  0  0  0  0  0  0  0  0  0  0  0
   20.2009  -11.4339  -16.4867 C   0  0  0  0  0  0  0  0  0  0  0  0
   20.0408  -10.0910  -16.4315 N   0  0  0  0  0  0  0  0  0  0  0  0
   22.0003   -6.1142  -14.9314 C   0  0  0  0  0  0  0  0  0  0  0  0
   23.1845   -5.8818  -15.2381 O   0  0  0  0  0  0  0  0  0  0  0  0
   21.1237   -5.0295  -14.6040 N   0  0  0  0  0  0  0  0  0  0  0  0
   21.5928   -3.6768  -14.6140 C   0  0  0  0  0  0  0  0  0  0  0  0
   20.4822   -2.7677  -14.2326 C   0  0  0  0  0  0  0  0  0  0  0  0
   20.0106   -1.9581  -15.0900 O   0  0  0  0  0  0  0  0  0  0  0  0
   19.9479   -2.7819  -12.9628 O   0  0  0  0  0  0  0  0  0  0  0  0
  1  2  1  0
  3  4  2  0
  3  2  1  0
  5  3  1  0
  6  5  1  0
  6  7  1  6
  8  7  1  0
  9  8  2  0
 10  9  1  0
 11 10  1  0
 11 12  2  0
 12  8  1  0
 13  6  1  0
 13 15  1  0
 14 13  2  0
 16 15  1  0
 17 16  1  0
 18 17  2  0
 19 17  1  0
M  END
$$$$
