GHG.pdb
     RDKit          3D

 19 19  0  0  1  0  0  0  0  0999 V2000
   26.9003  -16.3607  -18.6964 N   0  0  0  0  0  0  0  0  0  0  0  0
   27.3891  -16.9768  -17.5278 C   0  0  0  0  0  0  0  0  0  0  0  0
   26.5802  -18.1802  -17.2030 C   0  0  0  0  0  0  0  0  0  0  0  0
   26.2893  -19.0040  -18.1009 O   0  0  0  0  0  0  0  0  0  0  0  0
   26.1331  -18.4017  -15.8725 N   0  0  0  0  0  0  0  0  0  0  0  0
   25.3687  -19.5526  -15.4767 C   0  0  1  0  0  0  0  0  0  0  0  0
   26.2326  -20.4374  -14.6309 C   0  0  0  0  0  0  0  0  0  0  0  0
   27.2132  -21.2155  -15.4179 C   0  0  0  0  0  0  0  0  0  0  0  0
   28.5125  -20.8510  -15.7082 C   0  0  0  0  0  0  0  0  0  0  0  0
   29.0866  -21.8383  -16.4556 N   0  0  0  0  0  0  0  0  0  0  0  0
   28.1582  -22.8018  -16.6275 C   0  0  0  0  0  0  0  0  0  0  0  0
   27.0225  -22.4215  -15.9968 N   0  0  0  0  0  0  0  0  0  0  0  0
   24.2049  -19.1292  -14.6577 C   0  0  0  0  0  0  0  0  0  0  0  0
   24.3462  -18.3012  -13.7386 O   0  0  0  0  0  0  0  0  0  0  0  0
   22.9098  -19.6785  -14.9282 N   0  0  0  0  0  0  0  0  0  0  0  0
   21.7546  -19.2221  -14.2159 C   0  0  0  0  0  0  0  0  0  0  0  0
   20.5679  -20.0014  -14.6517 C   0  0  0  0  0  0  0  0  0  0  0  0
   20.5668  -20.5583  -15.7931 O   0  0  0  0  0  0  0  0  0  0  0  0
   19.4612  -20.1354  -13.8422 O   0  0  0  0  0  0  0  0  0  0  0  0
  1  2  1  0
  3  4  2  0
  3  2  1  0
  5  3  1  0
  6  5  1  0
  6  7  1  1
  8  7  1  0
  9  8  2  0
 10  9  1  0
 11 10  1  0
 11 12  2  0
 12  8  1  0
 13  6  1  0
 13 15  1  0
 14 13  2  0
 16 15  1  0
 17 16  1  0
 18 17  2  0
 19 17  1  0
M  END
$$$$
