GHG.pdb
     RDKit          3D

 19 19  0  0  1  0  0  0  0  0999 V2000
   26.1650   -5.3736  -18.0401 N   0  0  0  0  0  0  0  0  0  0  0  0
   25.2758   -5.8437  -17.0540 C   0  0  0  0  0  0  0  0  0  0  0  0
   24.8560   -7.2357  -17.3606 C   0  0  0  0  0  0  0  0  0  0  0  0
   24.8568   -7.6471  -18.5439 O   0  0  0  0  0  0  0  0  0  0  0  0
   24.4517   -8.1063  -16.3127 N   0  0  0  0  0  0  0  0  0  0  0  0
   24.0974   -9.4834  -16.5215 C   0  0  1  0  0  0  0  0  0  0  0  0
   24.9241  -10.3374  -15.6095 C   0  0  0  0  0  0  0  0  0  0  0  0
   26.2747  -10.6174  -16.1421 C   0  0  0  0  0  0  0  0  0  0  0  0
   26.8052  -10.1543  -17.3294 C   0  0  0  0  0  0  0  0  0  0  0  0
   28.0757  -10.6362  -17.4576 N   0  0  0  0  0  0  0  0  0  0  0  0
   28.3313  -11.3874  -16.3667 C   0  0  0  0  0  0  0  0  0  0  0  0
   27.2370  -11.3744  -15.5702 N   0  0  0  0  0  0  0  0  0  0  0  0
   22.6685   -9.6954  -16.1785 C   0  0  0  0  0  0  0  0  0  0  0  0
   22.1397   -9.0566  -15.2496 O   0  0  0  0  0  0  0  0  0  0  0  0
   21.8932  -10.6426  -16.9227 N   0  0  0  0  0  0  0  0  0  0  0  0
   20.4817  -10.7623  -16.7146 C   0  0  0  0  0  0  0  0  0  0  0  0
   20.2020  -11.9931  -15.9322 C   0  0  0  0  0  0  0  0  0  0  0  0
   21.0678  -12.9214  -15.8910 O   0  0  0  0  0  0  0  0  0  0  0  0
   19.0184  -12.1530  -15.2456 O   0  0  0  0  0  0  0  0  0  0  0  0
  1  2  1  0
  3  4  2  0
  3  2  1  0
  5  3  1  0
  6  5  1  0
  6  7  1  1
  8  7  1  0
  9  8  2  0
 10  9  1  0
 11 10  1  0
 11 12  2  0
 12  8  1  0
 13  6  1  0
 13 15  1  0
 14 13  2  0
 16 15  1  0
 17 16  1  0
 18 17  2  0
 19 17  1  0
M  END
$$$$
