GHG.pdb
     RDKit          3D

 19 19  0  0  1  0  0  0  0  0999 V2000
   18.9423  -12.5740  -16.9076 N   0  0  0  0  0  0  0  0  0  0  0  0
   20.1698  -12.0156  -17.3145 C   0  0  0  0  0  0  0  0  0  0  0  0
   20.1841  -10.5538  -17.0481 C   0  0  0  0  0  0  0  0  0  0  0  0
   19.1120   -9.9058  -17.0360 O   0  0  0  0  0  0  0  0  0  0  0  0
   21.4141   -9.8847  -16.8060 N   0  0  0  0  0  0  0  0  0  0  0  0
   21.5366   -8.4541  -16.7428 C   0  0  1  0  0  0  0  0  0  0  0  0
   22.0412   -8.0730  -15.3846 C   0  0  0  0  0  0  0  0  0  0  0  0
   21.0489   -8.2990  -14.3120 C   0  0  0  0  0  0  0  0  0  0  0  0
   19.8191   -8.9122  -14.4424 C   0  0  0  0  0  0  0  0  0  0  0  0
   19.2058   -8.9250  -13.2232 N   0  0  0  0  0  0  0  0  0  0  0  0
   20.0416   -8.3287  -12.3481 C   0  0  0  0  0  0  0  0  0  0  0  0
   21.1590   -7.9499  -13.0113 N   0  0  0  0  0  0  0  0  0  0  0  0
   22.5250   -7.9865  -17.7473 C   0  0  0  0  0  0  0  0  0  0  0  0
   23.5284   -8.6737  -18.0145 O   0  0  0  0  0  0  0  0  0  0  0  0
   22.3214   -6.7348  -18.4135 N   0  0  0  0  0  0  0  0  0  0  0  0
   23.2706   -6.2475  -19.3683 C   0  0  0  0  0  0  0  0  0  0  0  0
   22.8596   -4.8956  -19.8254 C   0  0  0  0  0  0  0  0  0  0  0  0
   21.7455   -4.4168  -19.4476 O   0  0  0  0  0  0  0  0  0  0  0  0
   23.6629   -4.1439  -20.6545 O   0  0  0  0  0  0  0  0  0  0  0  0
  1  2  1  0
  3  4  2  0
  3  2  1  0
  5  3  1  0
  6  5  1  0
  6  7  1  1
  8  7  1  0
  9  8  2  0
 10  9  1  0
 11 10  1  0
 11 12  2  0
 12  8  1  0
 13  6  1  0
 13 15  1  0
 14 13  2  0
 16 15  1  0
 17 16  1  0
 18 17  2  0
 19 17  1  0
M  END
$$$$
