GHG.pdb
     RDKit          3D

 19 19  0  0  1  0  0  0  0  0999 V2000
   22.1310  -16.0044  -18.8001 N   0  0  0  0  0  0  0  0  0  0  0  0
   22.4034  -15.7511  -17.4415 C   0  0  0  0  0  0  0  0  0  0  0  0
   23.5891  -16.5303  -17.0000 C   0  0  0  0  0  0  0  0  0  0  0  0
   24.0675  -17.4213  -17.7394 O   0  0  0  0  0  0  0  0  0  0  0  0
   24.1855  -16.2681  -15.7371 N   0  0  0  0  0  0  0  0  0  0  0  0
   25.3139  -16.9988  -15.2288 C   0  0  1  0  0  0  0  0  0  0  0  0
   26.1985  -16.0549  -14.4731 C   0  0  0  0  0  0  0  0  0  0  0  0
   26.9677  -15.1494  -15.3532 C   0  0  0  0  0  0  0  0  0  0  0  0
   26.9194  -15.1022  -16.7319 C   0  0  0  0  0  0  0  0  0  0  0  0
   27.7764  -14.1327  -17.1661 N   0  0  0  0  0  0  0  0  0  0  0  0
   28.3489  -13.5856  -16.0740 C   0  0  0  0  0  0  0  0  0  0  0  0
   27.8564  -14.2042  -14.9754 N   0  0  0  0  0  0  0  0  0  0  0  0
   24.8529  -18.0494  -14.2865 C   0  0  0  0  0  0  0  0  0  0  0  0
   23.9559  -17.8063  -13.4578 O   0  0  0  0  0  0  0  0  0  0  0  0
   25.4456  -19.3529  -14.3322 N   0  0  0  0  0  0  0  0  0  0  0  0
   24.9808  -20.4019  -13.4756 C   0  0  0  0  0  0  0  0  0  0  0  0
   23.9406  -21.1909  -14.1834 C   0  0  0  0  0  0  0  0  0  0  0  0
   23.6436  -20.9039  -15.3844 O   0  0  0  0  0  0  0  0  0  0  0  0
   23.2862  -22.2332  -13.5644 O   0  0  0  0  0  0  0  0  0  0  0  0
  1  2  1  0
  3  4  2  0
  3  2  1  0
  5  3  1  0
  6  5  1  0
  6  7  1  1
  8  7  1  0
  9  8  2  0
 10  9  1  0
 11 10  1  0
 11 12  2  0
 12  8  1  0
 13  6  1  0
 13 15  1  0
 14 13  2  0
 16 15  1  0
 17 16  1  0
 18 17  2  0
 19 17  1  0
M  END
$$$$
