GHG.pdb
     RDKit          3D

 19 19  0  0  1  0  0  0  0  0999 V2000
   18.9555  -23.7692  -12.7286 N   0  0  0  0  0  0  0  0  0  0  0  0
   20.1770  -23.5915  -13.4073 C   0  0  0  0  0  0  0  0  0  0  0  0
   20.5579  -22.1553  -13.4146 C   0  0  0  0  0  0  0  0  0  0  0  0
   19.6849  -21.2719  -13.2506 O   0  0  0  0  0  0  0  0  0  0  0  0
   21.9141  -21.7777  -13.6077 N   0  0  0  0  0  0  0  0  0  0  0  0
   22.3582  -20.4110  -13.6338 C   0  0  1  0  0  0  0  0  0  0  0  0
   23.5287  -20.2668  -12.7100 C   0  0  0  0  0  0  0  0  0  0  0  0
   23.1904  -20.5405  -11.2969 C   0  0  0  0  0  0  0  0  0  0  0  0
   21.9518  -20.8910  -10.7986 C   0  0  0  0  0  0  0  0  0  0  0  0
   22.0549  -21.0558   -9.4477 N   0  0  0  0  0  0  0  0  0  0  0  0
   23.3382  -20.8114   -9.1111 C   0  0  0  0  0  0  0  0  0  0  0  0
   24.0250  -20.4990  -10.2349 N   0  0  0  0  0  0  0  0  0  0  0  0
   22.8070  -20.0514  -15.0026 C   0  0  0  0  0  0  0  0  0  0  0  0
   23.5250  -20.8297  -15.6576 O   0  0  0  0  0  0  0  0  0  0  0  0
   22.4100  -18.7987  -15.5731 N   0  0  0  0  0  0  0  0  0  0  0  0
   22.7113  -18.4839  -16.9370 C   0  0  0  0  0  0  0  0  0  0  0  0
   22.1484  -17.1507  -17.2704 C   0  0  0  0  0  0  0  0  0  0  0  0
   20.9363  -16.8933  -16.9919 O   0  0  0  0  0  0  0  0  0  0  0  0
   22.9145  -16.1805  -17.8784 O   0  0  0  0  0  0  0  0  0  0  0  0
  1  2  1  0
  3  4  2  0
  3  2  1  0
  5  3  1  0
  6  5  1  0
  6  7  1  1
  8  7  1  0
  9  8  2  0
 10  9  1  0
 11 10  1  0
 11 12  2  0
 12  8  1  0
 13  6  1  0
 13 15  1  0
 14 13  2  0
 16 15  1  0
 17 16  1  0
 18 17  2  0
 19 17  1  0
M  END
$$$$
