GHG.pdb
     RDKit          3D

 19 19  0  0  1  0  0  0  0  0999 V2000
   25.2988  -18.0947  -15.3562 N   0  0  0  0  0  0  0  0  0  0  0  0
   23.9997  -17.7965  -14.9003 C   0  0  0  0  0  0  0  0  0  0  0  0
   22.9915  -18.2138  -15.9089 C   0  0  0  0  0  0  0  0  0  0  0  0
   23.3508  -18.8228  -16.9431 O   0  0  0  0  0  0  0  0  0  0  0  0
   21.6155  -17.9238  -15.7047 N   0  0  0  0  0  0  0  0  0  0  0  0
   20.5951  -18.2081  -16.6761 C   0  0  1  0  0  0  0  0  0  0  0  0
   19.6711  -19.2454  -16.1150 C   0  0  0  0  0  0  0  0  0  0  0  0
   20.3460  -20.5287  -15.8254 C   0  0  0  0  0  0  0  0  0  0  0  0
   20.4158  -21.1661  -14.6030 C   0  0  0  0  0  0  0  0  0  0  0  0
   21.1251  -22.3225  -14.7532 N   0  0  0  0  0  0  0  0  0  0  0  0
   21.4907  -22.4028  -16.0492 C   0  0  0  0  0  0  0  0  0  0  0  0
   21.0167  -21.3133  -16.6975 N   0  0  0  0  0  0  0  0  0  0  0  0
   19.8001  -16.9839  -16.9472 C   0  0  0  0  0  0  0  0  0  0  0  0
   19.3271  -16.3163  -16.0086 O   0  0  0  0  0  0  0  0  0  0  0  0
   19.5761  -16.5686  -18.2998 N   0  0  0  0  0  0  0  0  0  0  0  0
   18.7372  -15.4463  -18.5946 C   0  0  0  0  0  0  0  0  0  0  0  0
   19.5251  -14.1945  -18.4622 C   0  0  0  0  0  0  0  0  0  0  0  0
   19.5525  -13.5845  -17.3486 O   0  0  0  0  0  0  0  0  0  0  0  0
   20.2314  -13.6759  -19.5253 O   0  0  0  0  0  0  0  0  0  0  0  0
  1  2  1  0
  3  4  2  0
  3  2  1  0
  5  3  1  0
  6  5  1  0
  6  7  1  1
  8  7  1  0
  9  8  2  0
 10  9  1  0
 11 10  1  0
 11 12  2  0
 12  8  1  0
 13  6  1  0
 13 15  1  0
 14 13  2  0
 16 15  1  0
 17 16  1  0
 18 17  2  0
 19 17  1  0
M  END
$$$$
