GHG.pdb
     RDKit          3D

 19 19  0  0  1  0  0  0  0  0999 V2000
   23.4817  -19.8544  -19.4443 N   0  0  0  0  0  0  0  0  0  0  0  0
   23.9324  -18.8233  -18.5971 C   0  0  0  0  0  0  0  0  0  0  0  0
   22.7801  -18.1669  -17.9267 C   0  0  0  0  0  0  0  0  0  0  0  0
   21.6093  -18.4305  -18.2861 O   0  0  0  0  0  0  0  0  0  0  0  0
   23.0014  -17.2372  -16.8750 N   0  0  0  0  0  0  0  0  0  0  0  0
   21.9388  -16.6004  -16.1463 C   0  0  1  0  0  0  0  0  0  0  0  0
   22.0040  -17.0406  -14.7158 C   0  0  0  0  0  0  0  0  0  0  0  0
   21.7217  -18.4810  -14.5380 C   0  0  0  0  0  0  0  0  0  0  0  0
   22.6426  -19.5092  -14.5492 C   0  0  0  0  0  0  0  0  0  0  0  0
   21.9837  -20.6880  -14.3511 N   0  0  0  0  0  0  0  0  0  0  0  0
   20.6731  -20.3971  -14.2188 C   0  0  0  0  0  0  0  0  0  0  0  0
   20.5168  -19.0574  -14.3326 N   0  0  0  0  0  0  0  0  0  0  0  0
   22.1144  -15.1265  -16.1813 C   0  0  0  0  0  0  0  0  0  0  0  0
   23.2468  -14.6277  -16.3203 O   0  0  0  0  0  0  0  0  0  0  0  0
   20.9712  -14.2726  -16.0539 N   0  0  0  0  0  0  0  0  0  0  0  0
   21.1011  -12.8504  -16.1565 C   0  0  0  0  0  0  0  0  0  0  0  0
   19.7652  -12.2214  -15.9983 C   0  0  0  0  0  0  0  0  0  0  0  0
   18.7331  -12.9551  -15.9012 O   0  0  0  0  0  0  0  0  0  0  0  0
   19.6179  -10.8524  -15.9541 O   0  0  0  0  0  0  0  0  0  0  0  0
  1  2  1  0
  3  4  2  0
  3  2  1  0
  5  3  1  0
  6  5  1  0
  6  7  1  1
  8  7  1  0
  9  8  2  0
 10  9  1  0
 11 10  1  0
 11 12  2  0
 12  8  1  0
 13  6  1  0
 13 15  1  0
 14 13  2  0
 16 15  1  0
 17 16  1  0
 18 17  2  0
 19 17  1  0
M  END
$$$$
