GHG.pdb
     RDKit          3D

 19 19  0  0  1  0  0  0  0  0999 V2000
   18.0119  -12.8412  -15.9527 N   0  0  0  0  0  0  0  0  0  0  0  0
   19.2097  -12.2932  -16.4519 C   0  0  0  0  0  0  0  0  0  0  0  0
   19.5334  -11.0292  -15.7409 C   0  0  0  0  0  0  0  0  0  0  0  0
   19.3476  -10.9368  -14.5054 O   0  0  0  0  0  0  0  0  0  0  0  0
   20.0553   -9.9199  -16.4593 N   0  0  0  0  0  0  0  0  0  0  0  0
   20.4411   -8.6843  -15.8347 C   0  0  1  0  0  0  0  0  0  0  0  0
   21.9009   -8.4549  -16.0810 C   0  0  0  0  0  0  0  0  0  0  0  0
   22.7615   -9.4993  -15.4852 C   0  0  0  0  0  0  0  0  0  0  0  0
   23.4613  -10.4768  -16.1634 C   0  0  0  0  0  0  0  0  0  0  0  0
   24.1330  -11.2430  -15.2553 N   0  0  0  0  0  0  0  0  0  0  0  0
   23.8549  -10.7493  -14.0310 C   0  0  0  0  0  0  0  0  0  0  0  0
   23.0226   -9.6914  -14.1734 N   0  0  0  0  0  0  0  0  0  0  0  0
   19.6907   -7.5556  -16.4407 C   0  0  0  0  0  0  0  0  0  0  0  0
   19.6222   -7.4336  -17.6780 O   0  0  0  0  0  0  0  0  0  0  0  0
   19.0407   -6.6000  -15.5941 N   0  0  0  0  0  0  0  0  0  0  0  0
   18.3804   -5.4566  -16.1481 C   0  0  0  0  0  0  0  0  0  0  0  0
   17.7093   -4.7007  -15.0602 C   0  0  0  0  0  0  0  0  0  0  0  0
   17.6931   -5.1760  -13.8826 O   0  0  0  0  0  0  0  0  0  0  0  0
   17.1000   -3.4885  -15.2995 O   0  0  0  0  0  0  0  0  0  0  0  0
  1  2  1  0
  3  4  2  0
  3  2  1  0
  5  3  1  0
  6  5  1  0
  6  7  1  6
  8  7  1  0
  9  8  2  0
 10  9  1  0
 11 10  1  0
 11 12  2  0
 12  8  1  0
 13  6  1  0
 13 15  1  0
 14 13  2  0
 16 15  1  0
 17 16  1  0
 18 17  2  0
 19 17  1  0
M  END
$$$$
