GHG.pdb
     RDKit          3D

 19 19  0  0  1  0  0  0  0  0999 V2000
   21.4734  -12.5916  -18.0851 N   0  0  0  0  0  0  0  0  0  0  0  0
   20.6324  -12.1559  -19.1277 C   0  0  0  0  0  0  0  0  0  0  0  0
   19.4328  -11.4774  -18.5724 C   0  0  0  0  0  0  0  0  0  0  0  0
   18.4393  -11.2576  -19.3033 O   0  0  0  0  0  0  0  0  0  0  0  0
   19.4073  -11.0751  -17.2098 N   0  0  0  0  0  0  0  0  0  0  0  0
   18.2724  -10.4451  -16.5926 C   0  0  1  0  0  0  0  0  0  0  0  0
   18.0196  -11.0984  -15.2683 C   0  0  0  0  0  0  0  0  0  0  0  0
   17.3875  -12.4296  -15.3887 C   0  0  0  0  0  0  0  0  0  0  0  0
   16.9277  -13.0223  -16.5474 C   0  0  0  0  0  0  0  0  0  0  0  0
   16.4137  -14.2480  -16.2371 N   0  0  0  0  0  0  0  0  0  0  0  0
   16.5519  -14.4148  -14.9056 C   0  0  0  0  0  0  0  0  0  0  0  0
   17.1430  -13.3102  -14.3933 N   0  0  0  0  0  0  0  0  0  0  0  0
   18.5618   -9.0096  -16.3483 C   0  0  0  0  0  0  0  0  0  0  0  0
   19.6924   -8.6475  -15.9727 O   0  0  0  0  0  0  0  0  0  0  0  0
   17.5313   -8.0344  -16.5466 N   0  0  0  0  0  0  0  0  0  0  0  0
   17.8245   -6.6340  -16.4920 C   0  0  0  0  0  0  0  0  0  0  0  0
   17.9110   -6.2041  -15.0731 C   0  0  0  0  0  0  0  0  0  0  0  0
   17.7699   -7.0620  -14.1473 O   0  0  0  0  0  0  0  0  0  0  0  0
   18.1422   -4.8888  -14.7352 O   0  0  0  0  0  0  0  0  0  0  0  0
  1  2  1  0
  3  4  2  0
  3  2  1  0
  5  3  1  0
  6  5  1  0
  6  7  1  1
  8  7  1  0
  9  8  2  0
 10  9  1  0
 11 10  1  0
 11 12  2  0
 12  8  1  0
 13  6  1  0
 13 15  1  0
 14 13  2  0
 16 15  1  0
 17 16  1  0
 18 17  2  0
 19 17  1  0
M  END
$$$$
