GHG.pdb
     RDKit          3D

 19 19  0  0  1  0  0  0  0  0999 V2000
   28.3571  -18.9147  -14.6559 N   0  0  0  0  0  0  0  0  0  0  0  0
   27.0443  -18.4081  -14.7206 C   0  0  0  0  0  0  0  0  0  0  0  0
   26.0594  -19.5026  -14.5208 C   0  0  0  0  0  0  0  0  0  0  0  0
   26.3853  -20.6912  -14.7458 O   0  0  0  0  0  0  0  0  0  0  0  0
   24.7437  -19.2058  -14.0737 N   0  0  0  0  0  0  0  0  0  0  0  0
   23.7776  -20.2145  -13.7346 C   0  0  1  0  0  0  0  0  0  0  0  0
   23.5816  -20.2142  -12.2493 C   0  0  0  0  0  0  0  0  0  0  0  0
   24.8033  -20.5826  -11.5023 C   0  0  0  0  0  0  0  0  0  0  0  0
   25.6149  -19.7324  -10.7786 C   0  0  0  0  0  0  0  0  0  0  0  0
   26.6377  -20.4580  -10.2398 N   0  0  0  0  0  0  0  0  0  0  0  0
   26.4645  -21.7399  -10.6228 C   0  0  0  0  0  0  0  0  0  0  0  0
   25.3509  -21.8127  -11.3887 N   0  0  0  0  0  0  0  0  0  0  0  0
   22.4732  -19.8989  -14.3696 C   0  0  0  0  0  0  0  0  0  0  0  0
   22.0833  -18.7200  -14.4614 O   0  0  0  0  0  0  0  0  0  0  0  0
   21.6577  -20.9602  -14.8804 N   0  0  0  0  0  0  0  0  0  0  0  0
   20.5123  -20.6810  -15.6930 C   0  0  0  0  0  0  0  0  0  0  0  0
   19.3124  -21.3104  -15.0853 C   0  0  0  0  0  0  0  0  0  0  0  0
   19.3454  -22.5363  -14.7550 O   0  0  0  0  0  0  0  0  0  0  0  0
   18.1570  -20.5918  -14.8700 O   0  0  0  0  0  0  0  0  0  0  0  0
  1  2  1  0
  3  4  2  0
  3  2  1  0
  5  3  1  0
  6  5  1  0
  6  7  1  1
  8  7  1  0
  9  8  2  0
 10  9  1  0
 11 10  1  0
 11 12  2  0
 12  8  1  0
 13  6  1  0
 13 15  1  0
 14 13  2  0
 16 15  1  0
 17 16  1  0
 18 17  2  0
 19 17  1  0
M  END
$$$$
