PRL.pdb
     RDKit          3D

 27 27  0  0  1  0  0  0  0  0999 V2000
    8.8511  -15.2124   18.5580 N   0  0  0  0  0  0  0  0  0  0  0  0
    8.9740  -14.4846   17.3066 C   0  0  0  0  0  0  0  0  0  0  0  0
    7.6191  -13.8193   17.1959 C   0  0  0  0  0  0  0  0  0  0  0  0
    7.2221  -13.6095   18.6408 C   0  0  0  0  0  0  0  0  0  0  0  0
    8.3791  -14.2024   19.4507 C   0  0  1  0  0  0  0  0  0  0  0  0
    7.8636  -14.7245   20.7315 C   0  0  0  0  0  0  0  0  0  0  0  0
    7.2832  -13.8819   21.4871 O   0  0  0  0  0  0  0  0  0  0  0  0
    7.0908  -21.3740   21.5829 N   0  0  0  0  0  0  0  0  0  0  0  0
    5.9564  -21.2257   22.4102 C   0  0  0  0  0  0  0  0  0  0  0  0
    4.8159  -21.6444   21.9993 N   0  0  0  0  0  0  0  0  0  0  0  0
    6.0850  -20.6133   23.6932 N   0  0  0  0  0  0  0  0  0  0  0  0
    7.3009  -19.9169   24.0665 C   0  0  0  0  0  0  0  0  0  0  0  0
    7.0530  -18.4045   23.9659 C   0  0  0  0  0  0  0  0  0  0  0  0
    7.5817  -17.9791   22.6286 C   0  0  0  0  0  0  0  0  0  0  0  0
    7.4013  -16.5234   22.3324 C   0  0  2  0  0  0  0  0  0  0  0  0
    7.9959  -16.0846   21.1196 N   0  0  0  0  0  0  0  0  0  0  0  0
    7.9759  -15.7687   23.4749 C   0  0  0  0  0  0  0  0  0  0  0  0
    9.2023  -15.6020   23.5343 O   0  0  0  0  0  0  0  0  0  0  0  0
    3.9744  -21.4581   22.5533 C   0  0  0  0  0  0  0  0  0  0  0  0
    5.7917  -12.0137   27.9194 C   0  0  1  0  0  0  0  0  0  0  0  0
    6.9641  -12.5519   27.1490 C   0  0  0  0  0  0  0  0  0  0  0  0
    7.7107  -11.4389   26.4223 C   0  0  0  0  0  0  0  0  0  0  0  0
    6.5351  -13.5407   26.1087 C   0  0  2  0  0  0  0  0  0  0  0  0
    7.6809  -14.3185   25.5225 N   0  0  0  0  0  0  0  0  0  0  0  0
    7.1640  -15.2265   24.5106 C   0  0  0  0  0  0  0  0  0  0  0  0
    8.3047  -15.0777   26.6600 O   0  0  0  0  0  0  0  0  0  0  0  0
    9.2912  -14.4705   27.3902 O   0  0  0  0  0  0  0  0  0  0  0  0
  1  2  1  0
  2  3  1  0
  4  3  1  0
  5  1  1  0
  5  4  1  0
  5  6  1  1
  7  6  2  0
  9 10  2  0
  9  8  1  0
 11  9  1  0
 12 11  1  0
 13 12  1  0
 14 13  1  0
 15 14  1  1
 15 16  1  0
 16  6  1  0
 17 15  1  0
 18 17  2  0
 20 19  1  1
 20 21  1  0
 22 20  1  0
 23 22  1  6
 23 24  1  0
 24 17  1  0
 25 26  1  0
 25 23  1  0
 27 25  2  0
M  END
$$$$
