PRL.pdb
     RDKit          3D

 27 27  0  0  1  0  0  0  0  0999 V2000
    9.2221  -14.3012   18.9163 N   0  0  0  0  0  0  0  0  0  0  0  0
    9.2279  -13.5576   17.6682 C   0  0  0  0  0  0  0  0  0  0  0  0
    7.7558  -13.2693   17.4676 C   0  0  0  0  0  0  0  0  0  0  0  0
    7.2287  -13.1809   18.8832 C   0  0  0  0  0  0  0  0  0  0  0  0
    8.4478  -13.4563   19.7686 C   0  0  1  0  0  0  0  0  0  0  0  0
    8.0083  -14.1043   21.0200 C   0  0  0  0  0  0  0  0  0  0  0  0
    7.1695  -13.4554   21.7222 O   0  0  0  0  0  0  0  0  0  0  0  0
    8.3302  -21.6936   21.1143 N   0  0  0  0  0  0  0  0  0  0  0  0
    9.2370  -21.6616   22.1958 C   0  0  0  0  0  0  0  0  0  0  0  0
    9.6593  -22.7632   22.6988 N   0  0  0  0  0  0  0  0  0  0  0  0
    9.6763  -20.4090   22.7208 N   0  0  0  0  0  0  0  0  0  0  0  0
    8.7216  -19.4192   23.1810 C   0  0  0  0  0  0  0  0  0  0  0  0
    8.6446  -18.2895   22.1434 C   0  0  0  0  0  0  0  0  0  0  0  0
    7.6025  -17.3320   22.6396 C   0  0  0  0  0  0  0  0  0  0  0  0
    8.0514  -15.9052   22.6834 C   0  0  2  0  0  0  0  0  0  0  0  0
    8.4804  -15.3776   21.4367 N   0  0  0  0  0  0  0  0  0  0  0  0
    9.1579  -15.8235   23.6705 C   0  0  0  0  0  0  0  0  0  0  0  0
    9.7508  -16.8599   24.0017 O   0  0  0  0  0  0  0  0  0  0  0  0
   10.3963  -22.7494   23.4106 C   0  0  0  0  0  0  0  0  0  0  0  0
    5.7671  -13.3623   26.8473 C   0  0  1  0  0  0  0  0  0  0  0  0
    7.2163  -12.9873   26.7169 C   0  0  0  0  0  0  0  0  0  0  0  0
    7.4075  -11.4760   26.7760 C   0  0  0  0  0  0  0  0  0  0  0  0
    7.7916  -13.4491   25.4131 C   0  0  2  0  0  0  0  0  0  0  0  0
    9.1124  -14.1521   25.5644 N   0  0  0  0  0  0  0  0  0  0  0  0
    9.5646  -14.5904   24.2533 C   0  0  0  0  0  0  0  0  0  0  0  0
    8.8670  -15.3262   26.4703 O   0  0  0  0  0  0  0  0  0  0  0  0
    8.0138  -16.3112   26.0498 O   0  0  0  0  0  0  0  0  0  0  0  0
  1  2  1  0
  2  3  1  0
  4  3  1  0
  5  1  1  0
  5  4  1  0
  5  6  1  1
  7  6  2  0
  9 10  2  0
  9  8  1  0
 11  9  1  0
 12 11  1  0
 13 12  1  0
 14 13  1  0
 15 14  1  6
 15 16  1  0
 16  6  1  0
 17 15  1  0
 18 17  2  0
 20 19  1  1
 20 21  1  0
 22 20  1  0
 23 22  1  6
 23 24  1  0
 24 17  1  0
 25 26  1  0
 25 23  1  0
 27 25  2  0
M  END
$$$$
