PRL.pdb
     RDKit          3D

 27 27  0  0  1  0  0  0  0  0999 V2000
    9.2198  -14.7309   18.4829 N   0  0  0  0  0  0  0  0  0  0  0  0
    9.0779  -13.9609   17.2592 C   0  0  0  0  0  0  0  0  0  0  0  0
    7.5948  -13.6599   17.2477 C   0  0  0  0  0  0  0  0  0  0  0  0
    7.2469  -13.5988   18.7190 C   0  0  0  0  0  0  0  0  0  0  0  0
    8.5636  -13.9000   19.4414 C   0  0  1  0  0  0  0  0  0  0  0  0
    8.2762  -14.5720   20.7239 C   0  0  0  0  0  0  0  0  0  0  0  0
    7.4552  -13.9806   21.4947 O   0  0  0  0  0  0  0  0  0  0  0  0
   10.1874  -20.6621   19.2480 N   0  0  0  0  0  0  0  0  0  0  0  0
   11.3124  -20.3541   20.0434 C   0  0  0  0  0  0  0  0  0  0  0  0
   12.4886  -20.4670   19.5445 N   0  0  0  0  0  0  0  0  0  0  0  0
   11.1350  -19.9211   21.3919 N   0  0  0  0  0  0  0  0  0  0  0  0
    9.8319  -19.9768   22.0258 C   0  0  0  0  0  0  0  0  0  0  0  0
    9.0083  -18.7648   21.5657 C   0  0  0  0  0  0  0  0  0  0  0  0
    9.1848  -17.7114   22.6184 C   0  0  0  0  0  0  0  0  0  0  0  0
    8.4867  -16.4221   22.3193 C   0  0  2  0  0  0  0  0  0  0  0  0
    8.8696  -15.8073   21.0977 N   0  0  0  0  0  0  0  0  0  0  0  0
    8.7610  -15.5017   23.4519 C   0  0  0  0  0  0  0  0  0  0  0  0
    9.9155  -15.0887   23.6300 O   0  0  0  0  0  0  0  0  0  0  0  0
   13.3080  -20.2281   20.1114 C   0  0  0  0  0  0  0  0  0  0  0  0
    5.6292  -11.5660   27.0046 C   0  0  1  0  0  0  0  0  0  0  0  0
    6.9019  -12.3326   26.7806 C   0  0  0  0  0  0  0  0  0  0  0  0
    8.0730  -11.3973   26.5010 C   0  0  0  0  0  0  0  0  0  0  0  0
    6.7915  -13.2563   25.6065 C   0  0  2  0  0  0  0  0  0  0  0  0
    7.9884  -14.1521   25.4430 N   0  0  0  0  0  0  0  0  0  0  0  0
    7.7393  -15.0739   24.3459 C   0  0  0  0  0  0  0  0  0  0  0  0
    8.1465  -14.8908   26.7425 O   0  0  0  0  0  0  0  0  0  0  0  0
    7.8092  -16.2171   26.7875 O   0  0  0  0  0  0  0  0  0  0  0  0
  1  2  1  0
  2  3  1  0
  4  3  1  0
  5  1  1  0
  5  4  1  0
  5  6  1  1
  7  6  2  0
  9 10  2  0
  9  8  1  0
 11  9  1  0
 12 11  1  0
 13 12  1  0
 14 13  1  0
 15 14  1  1
 15 16  1  0
 16  6  1  0
 17 15  1  0
 18 17  2  0
 20 19  1  1
 20 21  1  0
 22 20  1  0
 23 22  1  6
 23 24  1  0
 24 17  1  0
 25 26  1  0
 25 23  1  0
 27 25  2  0
M  END
$$$$
