PRL.pdb
     RDKit          3D

 27 27  0  0  1  0  0  0  0  0999 V2000
    8.9398  -14.6807   18.9023 N   0  0  0  0  0  0  0  0  0  0  0  0
    8.7808  -13.8685   17.7082 C   0  0  0  0  0  0  0  0  0  0  0  0
    7.3489  -13.3961   17.8380 C   0  0  0  0  0  0  0  0  0  0  0  0
    7.1444  -13.3322   19.3359 C   0  0  0  0  0  0  0  0  0  0  0  0
    8.4755  -13.8034   19.9292 C   0  0  1  0  0  0  0  0  0  0  0  0
    8.2269  -14.4696   21.2228 C   0  0  0  0  0  0  0  0  0  0  0  0
    7.5972  -13.7876   22.0924 O   0  0  0  0  0  0  0  0  0  0  0  0
    6.0157  -20.6272   21.6496 N   0  0  0  0  0  0  0  0  0  0  0  0
    6.9883  -21.1537   20.7721 C   0  0  0  0  0  0  0  0  0  0  0  0
    6.6163  -21.7170   19.6816 N   0  0  0  0  0  0  0  0  0  0  0  0
    8.3736  -21.0564   21.1024 N   0  0  0  0  0  0  0  0  0  0  0  0
    8.8338  -20.1235   22.1127 C   0  0  0  0  0  0  0  0  0  0  0  0
    8.1134  -18.7824   21.9092 C   0  0  0  0  0  0  0  0  0  0  0  0
    8.7240  -17.8236   22.8874 C   0  0  0  0  0  0  0  0  0  0  0  0
    8.2684  -16.4075   22.7244 C   0  0  2  0  0  0  0  0  0  0  0  0
    8.6561  -15.7943   21.5036 N   0  0  0  0  0  0  0  0  0  0  0  0
    8.8155  -15.6362   23.8694 C   0  0  0  0  0  0  0  0  0  0  0  0
   10.0425  -15.5008   23.9766 O   0  0  0  0  0  0  0  0  0  0  0  0
    7.3188  -22.0754   19.0274 C   0  0  0  0  0  0  0  0  0  0  0  0
    6.2432  -11.5228   26.6825 C   0  0  1  0  0  0  0  0  0  0  0  0
    7.5336  -12.2519   26.4358 C   0  0  0  0  0  0  0  0  0  0  0  0
    7.9476  -12.1701   24.9708 C   0  0  0  0  0  0  0  0  0  0  0  0
    7.4208  -13.7062   26.7766 C   0  0  2  0  0  0  0  0  0  0  0  0
    8.4814  -14.5510   26.1263 N   0  0  0  0  0  0  0  0  0  0  0  0
    7.9763  -15.0430   24.8542 C   0  0  0  0  0  0  0  0  0  0  0  0
    8.7588  -15.6863   27.0716 O   0  0  0  0  0  0  0  0  0  0  0  0
    9.4589  -15.4270   28.2195 O   0  0  0  0  0  0  0  0  0  0  0  0
  1  2  1  0
  2  3  1  0
  4  3  1  0
  5  1  1  0
  5  4  1  0
  5  6  1  1
  7  6  2  0
  9 10  2  0
  9  8  1  0
 11  9  1  0
 12 11  1  0
 13 12  1  0
 14 13  1  0
 15 14  1  6
 15 16  1  0
 16  6  1  0
 17 15  1  0
 18 17  2  0
 20 19  1  1
 20 21  1  0
 22 20  1  0
 23 22  1  6
 23 24  1  0
 24 17  1  0
 25 26  1  0
 25 23  1  0
 27 25  2  0
M  END
$$$$
