PRL.pdb
     RDKit          3D

 27 27  0  0  1  0  0  0  0  0999 V2000
   11.9174  -19.6955   20.6564 N   0  0  0  0  0  0  0  0  0  0  0  0
   12.6638  -20.4867   19.6933 C   0  0  0  0  0  0  0  0  0  0  0  0
   13.0986  -19.4367   18.6939 C   0  0  0  0  0  0  0  0  0  0  0  0
   13.2309  -18.1910   19.5425 C   0  0  0  0  0  0  0  0  0  0  0  0
   12.8303  -18.6376   20.9518 C   0  0  1  0  0  0  0  0  0  0  0  0
   12.2222  -17.5014   21.6717 C   0  0  0  0  0  0  0  0  0  0  0  0
   13.0000  -16.5349   21.9520 O   0  0  0  0  0  0  0  0  0  0  0  0
    7.9506  -12.3327   19.8950 N   0  0  0  0  0  0  0  0  0  0  0  0
    7.6138  -13.5773   19.3201 C   0  0  0  0  0  0  0  0  0  0  0  0
    7.6805  -13.7240   18.0477 N   0  0  0  0  0  0  0  0  0  0  0  0
    7.2030  -14.6602   20.1545 N   0  0  0  0  0  0  0  0  0  0  0  0
    7.0195  -14.4722   21.5806 C   0  0  0  0  0  0  0  0  0  0  0  0
    8.3847  -14.5953   22.2733 C   0  0  0  0  0  0  0  0  0  0  0  0
    8.9441  -15.9264   21.8681 C   0  0  0  0  0  0  0  0  0  0  0  0
   10.2769  -16.2412   22.4714 C   0  0  2  0  0  0  0  0  0  0  0  0
   10.8509  -17.4666   22.0405 N   0  0  0  0  0  0  0  0  0  0  0  0
   10.0973  -16.2620   23.9454 C   0  0  0  0  0  0  0  0  0  0  0  0
    9.6610  -17.2873   24.4873 O   0  0  0  0  0  0  0  0  0  0  0  0
    7.4499  -14.6289   17.6259 C   0  0  0  0  0  0  0  0  0  0  0  0
    8.3031  -12.5595   28.3356 C   0  0  1  0  0  0  0  0  0  0  0  0
    9.1447  -13.7659   28.0287 C   0  0  0  0  0  0  0  0  0  0  0  0
   10.4745  -13.7205   28.7730 C   0  0  0  0  0  0  0  0  0  0  0  0
    9.4651  -13.8595   26.5684 C   0  0  2  0  0  0  0  0  0  0  0  0
   10.1869  -15.1265   26.2005 N   0  0  0  0  0  0  0  0  0  0  0  0
   10.4102  -15.1399   24.7633 C   0  0  0  0  0  0  0  0  0  0  0  0
    9.2933  -16.2607   26.6178 O   0  0  0  0  0  0  0  0  0  0  0  0
    8.1459  -16.4873   25.9055 O   0  0  0  0  0  0  0  0  0  0  0  0
  1  2  1  0
  2  3  1  0
  4  3  1  0
  5  1  1  0
  5  4  1  0
  5  6  1  6
  7  6  2  0
  9 10  2  0
  9  8  1  0
 11  9  1  0
 12 11  1  0
 13 12  1  0
 14 13  1  0
 15 14  1  6
 15 16  1  0
 16  6  1  0
 17 15  1  0
 18 17  2  0
 20 19  1  1
 20 21  1  0
 22 20  1  0
 23 22  1  1
 23 24  1  0
 24 17  1  0
 25 26  1  0
 25 23  1  0
 27 25  2  0
M  END
$$$$
