PRL.pdb
     RDKit          3D

 27 27  0  0  1  0  0  0  0  0999 V2000
    9.0813  -14.5857   18.4858 N   0  0  0  0  0  0  0  0  0  0  0  0
    8.9852  -13.7557   17.2972 C   0  0  0  0  0  0  0  0  0  0  0  0
    7.5275  -13.3495   17.3149 C   0  0  0  0  0  0  0  0  0  0  0  0
    7.1967  -13.3269   18.7912 C   0  0  0  0  0  0  0  0  0  0  0  0
    8.4941  -13.7520   19.4857 C   0  0  1  0  0  0  0  0  0  0  0  0
    8.1695  -14.4562   20.7418 C   0  0  0  0  0  0  0  0  0  0  0  0
    7.4320  -13.8249   21.5636 O   0  0  0  0  0  0  0  0  0  0  0  0
   10.8039  -19.1329   18.4930 N   0  0  0  0  0  0  0  0  0  0  0  0
   11.0978  -19.9828   19.5813 C   0  0  0  0  0  0  0  0  0  0  0  0
   12.3210  -20.2262   19.8803 N   0  0  0  0  0  0  0  0  0  0  0  0
   10.0366  -20.5636   20.3390 N   0  0  0  0  0  0  0  0  0  0  0  0
    9.5122  -19.8983   21.5160 C   0  0  0  0  0  0  0  0  0  0  0  0
    9.3304  -18.4066   21.1986 C   0  0  0  0  0  0  0  0  0  0  0  0
    8.7695  -17.7774   22.4389 C   0  0  0  0  0  0  0  0  0  0  0  0
    8.2175  -16.4018   22.2333 C   0  0  2  0  0  0  0  0  0  0  0  0
    8.6415  -15.7629   21.0379 N   0  0  0  0  0  0  0  0  0  0  0  0
    8.6204  -15.5873   23.4078 C   0  0  0  0  0  0  0  0  0  0  0  0
    9.8048  -15.2438   23.5283 O   0  0  0  0  0  0  0  0  0  0  0  0
   12.5408  -20.8153   20.6893 C   0  0  0  0  0  0  0  0  0  0  0  0
    5.8418  -12.0208   27.6285 C   0  0  1  0  0  0  0  0  0  0  0  0
    7.1116  -12.6381   27.1144 C   0  0  0  0  0  0  0  0  0  0  0  0
    8.1121  -11.5728   26.6804 C   0  0  0  0  0  0  0  0  0  0  0  0
    6.8593  -13.5107   25.9232 C   0  0  2  0  0  0  0  0  0  0  0  0
    8.0557  -14.3304   25.5254 N   0  0  0  0  0  0  0  0  0  0  0  0
    7.6895  -15.1843   24.4063 C   0  0  0  0  0  0  0  0  0  0  0  0
    8.4285  -15.1495   26.7292 O   0  0  0  0  0  0  0  0  0  0  0  0
    9.2093  -14.5752   27.6964 O   0  0  0  0  0  0  0  0  0  0  0  0
  1  2  1  0
  2  3  1  0
  4  3  1  0
  5  1  1  0
  5  4  1  0
  5  6  1  1
  7  6  2  0
  9 10  2  0
  9  8  1  0
 11  9  1  0
 12 11  1  0
 13 12  1  0
 14 13  1  0
 15 14  1  1
 15 16  1  0
 16  6  1  0
 17 15  1  0
 18 17  2  0
 20 19  1  1
 20 21  1  0
 22 20  1  0
 23 22  1  6
 23 24  1  0
 24 17  1  0
 25 26  1  0
 25 23  1  0
 27 25  2  0
M  END
$$$$
