PRL.pdb
     RDKit          3D

 27 27  0  0  1  0  0  0  0  0999 V2000
    9.1044  -14.4040   18.8029 N   0  0  0  0  0  0  0  0  0  0  0  0
    9.0811  -13.5893   17.6002 C   0  0  0  0  0  0  0  0  0  0  0  0
    7.6299  -13.1643   17.5369 C   0  0  0  0  0  0  0  0  0  0  0  0
    7.2236  -13.1172   18.9936 C   0  0  0  0  0  0  0  0  0  0  0  0
    8.4775  -13.5492   19.7600 C   0  0  1  0  0  0  0  0  0  0  0  0
    8.0790  -14.2318   21.0066 C   0  0  0  0  0  0  0  0  0  0  0  0
    7.3063  -13.5811   21.7793 O   0  0  0  0  0  0  0  0  0  0  0  0
   11.0541  -19.2258   20.1280 N   0  0  0  0  0  0  0  0  0  0  0  0
   10.0568  -20.0423   19.5520 C   0  0  0  0  0  0  0  0  0  0  0  0
   10.1805  -20.4267   18.3346 N   0  0  0  0  0  0  0  0  0  0  0  0
    8.9218  -20.4333   20.3243 N   0  0  0  0  0  0  0  0  0  0  0  0
    8.6018  -19.7617   21.5690 C   0  0  0  0  0  0  0  0  0  0  0  0
    8.5792  -18.2464   21.3193 C   0  0  0  0  0  0  0  0  0  0  0  0
    8.1475  -17.6135   22.6085 C   0  0  0  0  0  0  0  0  0  0  0  0
    8.1024  -16.1181   22.5730 C   0  0  2  0  0  0  0  0  0  0  0  0
    8.5198  -15.5391   21.3453 N   0  0  0  0  0  0  0  0  0  0  0  0
    8.9639  -15.6269   23.6783 C   0  0  0  0  0  0  0  0  0  0  0  0
   10.0054  -16.2400   23.9518 O   0  0  0  0  0  0  0  0  0  0  0  0
    9.4418  -20.9878   17.8995 C   0  0  0  0  0  0  0  0  0  0  0  0
    5.8361  -12.2562   27.1861 C   0  0  1  0  0  0  0  0  0  0  0  0
    7.2013  -12.5892   26.6540 C   0  0  0  0  0  0  0  0  0  0  0  0
    7.4527  -11.9186   25.3081 C   0  0  0  0  0  0  0  0  0  0  0  0
    7.3688  -14.0630   26.4452 C   0  0  2  0  0  0  0  0  0  0  0  0
    8.7170  -14.4332   25.8912 N   0  0  0  0  0  0  0  0  0  0  0  0
    8.6348  -14.4701   24.4395 C   0  0  0  0  0  0  0  0  0  0  0  0
    9.0464  -15.7903   26.4471 O   0  0  0  0  0  0  0  0  0  0  0  0
   10.0194  -15.8872   27.4058 O   0  0  0  0  0  0  0  0  0  0  0  0
  1  2  1  0
  2  3  1  0
  4  3  1  0
  5  1  1  0
  5  4  1  0
  5  6  1  1
  7  6  2  0
  9 10  2  0
  9  8  1  0
 11  9  1  0
 12 11  1  0
 13 12  1  0
 14 13  1  0
 15 14  1  6
 15 16  1  0
 16  6  1  0
 17 15  1  0
 18 17  2  0
 20 19  1  1
 20 21  1  0
 22 20  1  0
 23 22  1  6
 23 24  1  0
 24 17  1  0
 25 26  1  0
 25 23  1  0
 27 25  2  0
M  END
$$$$
