PRL.pdb
     RDKit          3D

 27 27  0  0  1  0  0  0  0  0999 V2000
    8.1461  -14.7835   18.7044 N   0  0  0  0  0  0  0  0  0  0  0  0
    8.2835  -14.0465   17.4599 C   0  0  0  0  0  0  0  0  0  0  0  0
    7.5058  -12.7824   17.7560 C   0  0  0  0  0  0  0  0  0  0  0  0
    7.6894  -12.6096   19.2479 C   0  0  0  0  0  0  0  0  0  0  0  0
    8.5359  -13.8121   19.6761 C   0  0  1  0  0  0  0  0  0  0  0  0
    8.1969  -14.1805   21.0648 C   0  0  0  0  0  0  0  0  0  0  0  0
    8.5741  -13.3682   21.9679 O   0  0  0  0  0  0  0  0  0  0  0  0
   10.0360  -19.9245   23.6732 N   0  0  0  0  0  0  0  0  0  0  0  0
    9.3366  -20.3054   22.5075 C   0  0  0  0  0  0  0  0  0  0  0  0
    9.9777  -20.4550   21.4068 N   0  0  0  0  0  0  0  0  0  0  0  0
    7.9265  -20.5207   22.5606 N   0  0  0  0  0  0  0  0  0  0  0  0
    7.0238  -19.4484   22.9321 C   0  0  0  0  0  0  0  0  0  0  0  0
    7.7091  -18.1049   22.6418 C   0  0  0  0  0  0  0  0  0  0  0  0
    6.7276  -17.0391   23.0288 C   0  0  0  0  0  0  0  0  0  0  0  0
    7.1985  -15.6445   22.7596 C   0  0  2  0  0  0  0  0  0  0  0  0
    7.4912  -15.3676   21.3978 N   0  0  0  0  0  0  0  0  0  0  0  0
    8.4104  -15.4229   23.5886 C   0  0  0  0  0  0  0  0  0  0  0  0
    9.2908  -14.6530   23.1794 O   0  0  0  0  0  0  0  0  0  0  0  0
    9.4677  -20.6727   20.5452 C   0  0  0  0  0  0  0  0  0  0  0  0
    8.6399  -12.5576   26.4911 C   0  0  1  0  0  0  0  0  0  0  0  0
    7.3512  -13.2257   26.1030 C   0  0  0  0  0  0  0  0  0  0  0  0
    6.1690  -12.6407   26.8674 C   0  0  0  0  0  0  0  0  0  0  0  0
    7.3786  -14.6939   26.3991 C   0  0  2  0  0  0  0  0  0  0  0  0
    8.7050  -15.3345   26.0962 N   0  0  0  0  0  0  0  0  0  0  0  0
    8.5985  -16.0667   24.8440 C   0  0  0  0  0  0  0  0  0  0  0  0
    8.9990  -16.2636   27.2406 O   0  0  0  0  0  0  0  0  0  0  0  0
    9.8031  -15.8188   28.2559 O   0  0  0  0  0  0  0  0  0  0  0  0
  1  2  1  0
  2  3  1  0
  4  3  1  0
  5  1  1  0
  5  4  1  0
  5  6  1  1
  7  6  2  0
  9 10  2  0
  9  8  1  0
 11  9  1  0
 12 11  1  0
 13 12  1  0
 14 13  1  0
 15 14  1  6
 15 16  1  0
 16  6  1  0
 17 15  1  0
 18 17  2  0
 20 19  1  6
 20 21  1  0
 22 20  1  0
 23 22  1  6
 23 24  1  0
 24 17  1  0
 25 26  1  0
 25 23  1  0
 27 25  2  0
M  END
$$$$
