PRL.pdb
     RDKit          3D

 27 27  0  0  1  0  0  0  0  0999 V2000
    8.7776  -15.4108   19.0039 N   0  0  0  0  0  0  0  0  0  0  0  0
    9.0632  -14.7631   17.7351 C   0  0  0  0  0  0  0  0  0  0  0  0
    7.9226  -13.7748   17.6233 C   0  0  0  0  0  0  0  0  0  0  0  0
    7.6155  -13.4423   19.0671 C   0  0  0  0  0  0  0  0  0  0  0  0
    8.5944  -14.2966   19.8783 C   0  0  1  0  0  0  0  0  0  0  0  0
    7.9826  -14.6441   21.1759 C   0  0  0  0  0  0  0  0  0  0  0  0
    7.7325  -13.6711   21.9560 O   0  0  0  0  0  0  0  0  0  0  0  0
    8.2605  -21.1900   25.8416 N   0  0  0  0  0  0  0  0  0  0  0  0
    7.2680  -20.6150   26.6647 C   0  0  0  0  0  0  0  0  0  0  0  0
    7.2874  -20.8385   27.9275 N   0  0  0  0  0  0  0  0  0  0  0  0
    6.2534  -19.7923   26.0892 N   0  0  0  0  0  0  0  0  0  0  0  0
    6.2758  -19.4616   24.6775 C   0  0  0  0  0  0  0  0  0  0  0  0
    6.3790  -17.9363   24.5305 C   0  0  0  0  0  0  0  0  0  0  0  0
    6.9837  -17.6830   23.1818 C   0  0  0  0  0  0  0  0  0  0  0  0
    7.1450  -16.2342   22.8440 C   0  0  2  0  0  0  0  0  0  0  0  0
    7.6813  -15.9799   21.5538 N   0  0  0  0  0  0  0  0  0  0  0  0
    8.0256  -15.6375   23.8802 C   0  0  0  0  0  0  0  0  0  0  0  0
    9.2379  -15.8931   23.8641 O   0  0  0  0  0  0  0  0  0  0  0  0
    6.5094  -20.5206   28.5137 C   0  0  0  0  0  0  0  0  0  0  0  0
    8.3441  -11.4059   24.7285 C   0  0  1  0  0  0  0  0  0  0  0  0
    7.2013  -12.0387   25.4708 C   0  0  0  0  0  0  0  0  0  0  0  0
    6.3571  -10.9923   26.1896 C   0  0  0  0  0  0  0  0  0  0  0  0
    7.6838  -13.0006   26.5128 C   0  0  2  0  0  0  0  0  0  0  0  0
    8.3710  -14.2062   25.9332 N   0  0  0  0  0  0  0  0  0  0  0  0
    7.5245  -14.7772   24.8973 C   0  0  0  0  0  0  0  0  0  0  0  0
    8.5609  -15.1732   27.0680 O   0  0  0  0  0  0  0  0  0  0  0  0
    7.8787  -16.3602   27.0387 O   0  0  0  0  0  0  0  0  0  0  0  0
  1  2  1  0
  2  3  1  0
  4  3  1  0
  5  1  1  0
  5  4  1  0
  5  6  1  1
  7  6  2  0
  9 10  2  0
  9  8  1  0
 11  9  1  0
 12 11  1  0
 13 12  1  0
 14 13  1  0
 15 14  1  1
 15 16  1  0
 16  6  1  0
 17 15  1  0
 18 17  2  0
 20 19  1  6
 20 21  1  0
 22 20  1  0
 23 22  1  6
 23 24  1  0
 24 17  1  0
 25 26  1  0
 25 23  1  0
 27 25  2  0
M  END
$$$$
