PRL.pdb
     RDKit          3D

 27 27  0  0  1  0  0  0  0  0999 V2000
    9.1489  -13.5410   18.6701 N   0  0  0  0  0  0  0  0  0  0  0  0
    8.6173  -12.8163   17.5286 C   0  0  0  0  0  0  0  0  0  0  0  0
    7.2407  -13.4277   17.3819 C   0  0  0  0  0  0  0  0  0  0  0  0
    6.8813  -13.8057   18.8022 C   0  0  0  0  0  0  0  0  0  0  0  0
    8.1029  -13.3999   19.6323 C   0  0  1  0  0  0  0  0  0  0  0  0
    8.2280  -14.3023   20.7937 C   0  0  0  0  0  0  0  0  0  0  0  0
    7.2106  -14.3827   21.5529 O   0  0  0  0  0  0  0  0  0  0  0  0
   14.2472  -14.7225   22.5950 N   0  0  0  0  0  0  0  0  0  0  0  0
   14.4708  -15.6918   21.5933 C   0  0  0  0  0  0  0  0  0  0  0  0
   14.9011  -15.3233   20.4426 N   0  0  0  0  0  0  0  0  0  0  0  0
   14.2177  -17.0700   21.8658 N   0  0  0  0  0  0  0  0  0  0  0  0
   12.8607  -17.5724   21.9612 C   0  0  0  0  0  0  0  0  0  0  0  0
   11.8957  -16.3785   22.0084 C   0  0  0  0  0  0  0  0  0  0  0  0
   10.5183  -16.9554   22.1457 C   0  0  0  0  0  0  0  0  0  0  0  0
    9.4256  -15.9335   22.1783 C   0  0  2  0  0  0  0  0  0  0  0  0
    9.4055  -15.0480   21.0683 N   0  0  0  0  0  0  0  0  0  0  0  0
    9.5864  -15.1593   23.4353 C   0  0  0  0  0  0  0  0  0  0  0  0
   10.0755  -14.0219   23.3869 O   0  0  0  0  0  0  0  0  0  0  0  0
   15.0329  -16.0180   19.7011 C   0  0  0  0  0  0  0  0  0  0  0  0
    5.4813  -12.8118   26.0470 C   0  0  1  0  0  0  0  0  0  0  0  0
    6.8482  -13.3034   26.4313 C   0  0  0  0  0  0  0  0  0  0  0  0
    7.8127  -12.1447   26.6582 C   0  0  0  0  0  0  0  0  0  0  0  0
    7.4462  -14.1659   25.3626 C   0  0  2  0  0  0  0  0  0  0  0  0
    8.7239  -14.8356   25.7877 N   0  0  0  0  0  0  0  0  0  0  0  0
    9.1964  -15.6795   24.7015 C   0  0  0  0  0  0  0  0  0  0  0  0
    8.3895  -15.6563   27.0017 O   0  0  0  0  0  0  0  0  0  0  0  0
    7.7158  -16.8361   26.8299 O   0  0  0  0  0  0  0  0  0  0  0  0
  1  2  1  0
  2  3  1  0
  4  3  1  0
  5  1  1  0
  5  4  1  0
  5  6  1  1
  7  6  2  0
  9 10  2  0
  9  8  1  0
 11  9  1  0
 12 11  1  0
 13 12  1  0
 14 13  1  0
 15 14  1  6
 15 16  1  0
 16  6  1  0
 17 15  1  0
 18 17  2  0
 20 19  1  1
 20 21  1  0
 22 20  1  0
 23 22  1  6
 23 24  1  0
 24 17  1  0
 25 26  1  0
 25 23  1  0
 27 25  2  0
M  END
$$$$
