PRL.pdb
     RDKit          3D

 27 27  0  0  1  0  0  0  0  0999 V2000
    8.2752  -15.2492   18.5906 N   0  0  0  0  0  0  0  0  0  0  0  0
    8.4118  -14.4869   17.3614 C   0  0  0  0  0  0  0  0  0  0  0  0
    7.4556  -13.3376   17.5968 C   0  0  0  0  0  0  0  0  0  0  0  0
    7.4988  -13.1591   19.0987 C   0  0  0  0  0  0  0  0  0  0  0  0
    8.4587  -14.2464   19.5909 C   0  0  1  0  0  0  0  0  0  0  0  0
    8.0636  -14.6711   20.9483 C   0  0  0  0  0  0  0  0  0  0  0  0
    8.1441  -13.7857   21.8579 O   0  0  0  0  0  0  0  0  0  0  0  0
    8.5323  -19.7385   26.3101 N   0  0  0  0  0  0  0  0  0  0  0  0
    7.1919  -19.9901   26.6749 C   0  0  0  0  0  0  0  0  0  0  0  0
    6.9060  -20.2324   27.9015 N   0  0  0  0  0  0  0  0  0  0  0  0
    6.1675  -19.9737   25.6810 N   0  0  0  0  0  0  0  0  0  0  0  0
    6.4655  -19.6009   24.3117 C   0  0  0  0  0  0  0  0  0  0  0  0
    6.7500  -18.0924   24.2627 C   0  0  0  0  0  0  0  0  0  0  0  0
    6.9071  -17.7402   22.8135 C   0  0  0  0  0  0  0  0  0  0  0  0
    7.1710  -16.2892   22.5598 C   0  0  2  0  0  0  0  0  0  0  0  0
    7.6163  -15.9861   21.2458 N   0  0  0  0  0  0  0  0  0  0  0  0
    8.1879  -15.8490   23.5484 C   0  0  0  0  0  0  0  0  0  0  0  0
    9.3860  -16.0714   23.3239 O   0  0  0  0  0  0  0  0  0  0  0  0
    5.9512  -20.5007   28.1592 C   0  0  0  0  0  0  0  0  0  0  0  0
    5.7816  -12.5746   26.0383 C   0  0  2  0  0  0  0  0  0  0  0  0
    6.9664  -13.1885   26.7289 C   0  0  0  0  0  0  0  0  0  0  0  0
    7.2652  -12.4879   28.0496 C   0  0  0  0  0  0  0  0  0  0  0  0
    8.2055  -13.0906   25.8931 C   0  0  1  0  0  0  0  0  0  0  0  0
    8.7953  -14.4304   25.5488 N   0  0  0  0  0  0  0  0  0  0  0  0
    7.8341  -15.1765   24.7520 C   0  0  0  0  0  0  0  0  0  0  0  0
    9.0661  -15.1233   26.8549 O   0  0  0  0  0  0  0  0  0  0  0  0
    8.3628  -16.2601   27.1518 O   0  0  0  0  0  0  0  0  0  0  0  0
  1  2  1  0
  2  3  1  0
  4  3  1  0
  5  1  1  0
  5  4  1  0
  5  6  1  1
  7  6  2  0
  9 10  2  0
  9  8  1  0
 11  9  1  0
 12 11  1  0
 13 12  1  0
 14 13  1  0
 15 14  1  6
 15 16  1  0
 16  6  1  0
 17 15  1  0
 18 17  2  0
 20 19  1  1
 20 21  1  0
 22 20  1  0
 23 22  1  6
 23 24  1  0
 24 17  1  0
 25 26  1  0
 25 23  1  0
 27 25  2  0
M  END
$$$$
