PRL.pdb
     RDKit          3D

 27 27  0  0  1  0  0  0  0  0999 V2000
    9.0016  -14.6753   18.8052 N   0  0  0  0  0  0  0  0  0  0  0  0
    9.0246  -13.8433   17.6144 C   0  0  0  0  0  0  0  0  0  0  0  0
    7.6334  -13.2474   17.6207 C   0  0  0  0  0  0  0  0  0  0  0  0
    7.2983  -13.1770   19.0945 C   0  0  0  0  0  0  0  0  0  0  0  0
    8.5230  -13.7683   19.7992 C   0  0  1  0  0  0  0  0  0  0  0  0
    8.0993  -14.4197   21.0542 C   0  0  0  0  0  0  0  0  0  0  0  0
    7.5507  -13.6657   21.9193 O   0  0  0  0  0  0  0  0  0  0  0  0
    9.9308  -21.7373   20.3414 N   0  0  0  0  0  0  0  0  0  0  0  0
   10.9173  -21.2277   21.2133 C   0  0  0  0  0  0  0  0  0  0  0  0
   12.1541  -21.4755   20.9814 N   0  0  0  0  0  0  0  0  0  0  0  0
   10.5340  -20.4434   22.3427 N   0  0  0  0  0  0  0  0  0  0  0  0
    9.1933  -19.9016   22.4516 C   0  0  0  0  0  0  0  0  0  0  0  0
    9.2763  -18.3687   22.4036 C   0  0  0  0  0  0  0  0  0  0  0  0
    7.8749  -17.8652   22.5811 C   0  0  0  0  0  0  0  0  0  0  0  0
    7.7406  -16.3779   22.4856 C   0  0  2  0  0  0  0  0  0  0  0  0
    8.2827  -15.8060   21.3041 N   0  0  0  0  0  0  0  0  0  0  0  0
    8.4120  -15.7994   23.6771 C   0  0  0  0  0  0  0  0  0  0  0  0
    9.5825  -15.4045   23.5798 O   0  0  0  0  0  0  0  0  0  0  0  0
   12.8793  -21.0277   21.5502 C   0  0  0  0  0  0  0  0  0  0  0  0
    8.2434  -11.9803   25.9983 C   0  0  1  0  0  0  0  0  0  0  0  0
    7.0633  -12.9104   26.0034 C   0  0  0  0  0  0  0  0  0  0  0  0
    5.8492  -12.2651   26.6620 C   0  0  0  0  0  0  0  0  0  0  0  0
    7.3542  -14.1685   26.7626 C   0  0  2  0  0  0  0  0  0  0  0  0
    8.3729  -15.0453   26.0880 N   0  0  0  0  0  0  0  0  0  0  0  0
    7.7558  -15.6812   24.9346 C   0  0  0  0  0  0  0  0  0  0  0  0
    8.7939  -16.0677   27.1062 O   0  0  0  0  0  0  0  0  0  0  0  0
    9.5976  -15.6696   28.1410 O   0  0  0  0  0  0  0  0  0  0  0  0
  1  2  1  0
  2  3  1  0
  4  3  1  0
  5  1  1  0
  5  4  1  0
  5  6  1  1
  7  6  2  0
  9 10  2  0
  9  8  1  0
 11  9  1  0
 12 11  1  0
 13 12  1  0
 14 13  1  0
 15 14  1  6
 15 16  1  0
 16  6  1  0
 17 15  1  0
 18 17  2  0
 20 19  1  6
 20 21  1  0
 22 20  1  0
 23 22  1  6
 23 24  1  0
 24 17  1  0
 25 26  1  0
 25 23  1  0
 27 25  2  0
M  END
$$$$
