PRL.pdb
     RDKit          3D

 27 27  0  0  1  0  0  0  0  0999 V2000
    8.9713  -14.4940   18.7845 N   0  0  0  0  0  0  0  0  0  0  0  0
    9.0436  -13.5972   17.6438 C   0  0  0  0  0  0  0  0  0  0  0  0
    7.7283  -12.8554   17.7437 C   0  0  0  0  0  0  0  0  0  0  0  0
    7.4564  -12.8405   19.2320 C   0  0  0  0  0  0  0  0  0  0  0  0
    8.6325  -13.6038   19.8486 C   0  0  1  0  0  0  0  0  0  0  0  0
    8.1846  -14.2818   21.0809 C   0  0  0  0  0  0  0  0  0  0  0  0
    7.5218  -13.5716   21.9020 O   0  0  0  0  0  0  0  0  0  0  0  0
    9.7453  -20.5634   18.9990 N   0  0  0  0  0  0  0  0  0  0  0  0
    8.3463  -20.4635   19.1597 C   0  0  0  0  0  0  0  0  0  0  0  0
    7.6162  -20.1456   18.1543 N   0  0  0  0  0  0  0  0  0  0  0  0
    7.7554  -20.7155   20.4344 N   0  0  0  0  0  0  0  0  0  0  0  0
    8.1401  -19.9415   21.5988 C   0  0  0  0  0  0  0  0  0  0  0  0
    7.8655  -18.4570   21.3161 C   0  0  0  0  0  0  0  0  0  0  0  0
    8.1047  -17.7312   22.6064 C   0  0  0  0  0  0  0  0  0  0  0  0
    7.9183  -16.2490   22.5202 C   0  0  2  0  0  0  0  0  0  0  0  0
    8.4650  -15.6470   21.3560 N   0  0  0  0  0  0  0  0  0  0  0  0
    8.5418  -15.6573   23.7312 C   0  0  0  0  0  0  0  0  0  0  0  0
    9.7593  -15.4269   23.7336 O   0  0  0  0  0  0  0  0  0  0  0  0
    6.6119  -19.9882   18.2829 C   0  0  0  0  0  0  0  0  0  0  0  0
    7.5942  -11.8852   25.8774 C   0  0  2  0  0  0  0  0  0  0  0  0
    6.6521  -13.0170   26.1758 C   0  0  0  0  0  0  0  0  0  0  0  0
    5.4837  -12.5555   27.0395 C   0  0  0  0  0  0  0  0  0  0  0  0
    7.3349  -14.1229   26.9206 C   0  0  2  0  0  0  0  0  0  0  0  0
    8.3935  -14.8179   26.1095 N   0  0  0  0  0  0  0  0  0  0  0  0
    7.7870  -15.3432   24.8963 C   0  0  0  0  0  0  0  0  0  0  0  0
    8.9268  -15.9288   26.9701 O   0  0  0  0  0  0  0  0  0  0  0  0
    9.7084  -15.6059   28.0471 O   0  0  0  0  0  0  0  0  0  0  0  0
  1  2  1  0
  2  3  1  0
  4  3  1  0
  5  1  1  0
  5  4  1  0
  5  6  1  1
  7  6  2  0
  9 10  2  0
  9  8  1  0
 11  9  1  0
 12 11  1  0
 13 12  1  0
 14 13  1  0
 15 14  1  6
 15 16  1  0
 16  6  1  0
 17 15  1  0
 18 17  2  0
 20 19  1  6
 20 21  1  0
 22 20  1  0
 23 22  1  6
 23 24  1  0
 24 17  1  0
 25 26  1  0
 25 23  1  0
 27 25  2  0
M  END
$$$$
