HSC.pdb
     RDKit          3D

 23 23  0  0  1  0  0  0  0  0999 V2000
   12.0517  -18.4338   21.6079 N   0  0  0  0  0  0  0  0  0  0  0  0
   11.4586  -17.1409   21.3452 C   0  0  1  0  0  0  0  0  0  0  0  0
   10.6379  -17.2483   20.0621 C   0  0  0  0  0  0  0  0  0  0  0  0
   11.5093  -17.7436   18.9588 C   0  0  0  0  0  0  0  0  0  0  0  0
   11.4782  -18.9607   18.3449 C   0  0  0  0  0  0  0  0  0  0  0  0
   12.4444  -18.9709   17.4067 N   0  0  0  0  0  0  0  0  0  0  0  0
   13.0861  -17.7996   17.4069 C   0  0  0  0  0  0  0  0  0  0  0  0
   12.4986  -17.0472   18.3722 N   0  0  0  0  0  0  0  0  0  0  0  0
   10.5446  -16.8143   22.4671 C   0  0  0  0  0  0  0  0  0  0  0  0
    9.5749  -16.0644   22.2751 O   0  0  0  0  0  0  0  0  0  0  0  0
    9.6608  -19.3483   25.5775 O   0  0  0  0  0  0  0  0  0  0  0  0
    8.9200  -18.2583   25.1494 C   0  0  0  0  0  0  0  0  0  0  0  0
    9.7795  -17.0799   24.7963 C   0  0  2  0  0  0  0  0  0  0  0  0
   10.7321  -17.3280   23.7686 N   0  0  0  0  0  0  0  0  0  0  0  0
   10.5131  -16.6753   26.0231 C   0  0  0  0  0  0  0  0  0  0  0  0
   11.7041  -17.0012   26.2617 O   0  0  0  0  0  0  0  0  0  0  0  0
    9.8537  -15.8748   26.9970 N   0  0  0  0  0  0  0  0  0  0  0  0
   10.4557  -15.5300   28.2446 C   0  0  1  0  0  0  0  0  0  0  0  0
    9.7406  -14.3446   28.9076 C   0  0  0  0  0  0  0  0  0  0  0  0
    9.5606  -13.0116   27.7038 S   0  0  0  0  0  0  0  0  0  0  0  0
   10.5201  -16.6519   29.1989 C   0  0  0  0  0  0  0  0  0  0  0  0
    9.9318  -17.7195   28.9293 O   0  0  0  0  0  0  0  0  0  0  0  0
   11.2131  -16.5587   30.3860 O   0  0  0  0  0  0  0  0  0  0  0  0
  2  9  1  0
  2  1  1  1
  3  2  1  0
  4  5  2  0
  4  3  1  0
  6  5  1  0
  7  8  2  0
  7  6  1  0
  8  4  1  0
  9 10  2  0
 11 12  1  0
 13 12  1  1
 14 13  1  0
 14  9  1  0
 15 17  1  0
 15 13  1  0
 16 15  2  0
 18 17  1  0
 18 19  1  1
 20 19  1  0
 21 18  1  0
 22 21  2  0
 23 21  1  0
M  END
$$$$
