HSC.pdb
     RDKit          3D

 23 23  0  0  1  0  0  0  0  0999 V2000
    6.4351  -16.1931   20.3000 N   0  0  0  0  0  0  0  0  0  0  0  0
    7.5529  -15.5979   20.9990 C   0  0  1  0  0  0  0  0  0  0  0  0
    7.5024  -14.0885   20.7744 C   0  0  0  0  0  0  0  0  0  0  0  0
    7.8470  -13.7889   19.3554 C   0  0  0  0  0  0  0  0  0  0  0  0
    7.2692  -12.8745   18.5252 C   0  0  0  0  0  0  0  0  0  0  0  0
    7.8981  -12.9461   17.3363 N   0  0  0  0  0  0  0  0  0  0  0  0
    8.8553  -13.8762   17.3873 C   0  0  0  0  0  0  0  0  0  0  0  0
    8.8146  -14.3917   18.6425 N   0  0  0  0  0  0  0  0  0  0  0  0
    7.3890  -15.8677   22.4486 C   0  0  0  0  0  0  0  0  0  0  0  0
    6.4923  -15.2937   23.0859 O   0  0  0  0  0  0  0  0  0  0  0  0
    9.2902  -19.0385   24.4930 O   0  0  0  0  0  0  0  0  0  0  0  0
    8.1531  -18.4117   24.9769 C   0  0  0  0  0  0  0  0  0  0  0  0
    8.0583  -16.9770   24.5469 C   0  0  2  0  0  0  0  0  0  0  0  0
    8.2234  -16.7653   23.1492 N   0  0  0  0  0  0  0  0  0  0  0  0
    9.1207  -16.2230   25.2606 C   0  0  0  0  0  0  0  0  0  0  0  0
   10.2621  -16.0040   24.7798 O   0  0  0  0  0  0  0  0  0  0  0  0
    8.8571  -15.7099   26.5610 N   0  0  0  0  0  0  0  0  0  0  0  0
    9.8719  -15.1266   27.3780 C   0  0  1  0  0  0  0  0  0  0  0  0
    9.2912  -14.0770   28.3358 C   0  0  0  0  0  0  0  0  0  0  0  0
   10.6240  -13.3879   29.3395 S   0  0  0  0  0  0  0  0  0  0  0  0
   10.6458  -16.1136   28.1529 C   0  0  0  0  0  0  0  0  0  0  0  0
   11.8568  -15.9055   28.3731 O   0  0  0  0  0  0  0  0  0  0  0  0
   10.0712  -17.2652   28.6445 O   0  0  0  0  0  0  0  0  0  0  0  0
  2  9  1  0
  2  1  1  6
  3  2  1  0
  4  5  2  0
  4  3  1  0
  6  5  1  0
  7  8  2  0
  7  6  1  0
  8  4  1  0
  9 10  2  0
 11 12  1  0
 13 12  1  6
 14 13  1  0
 14  9  1  0
 15 17  1  0
 15 13  1  0
 16 15  2  0
 18 17  1  0
 18 19  1  1
 20 19  1  0
 21 18  1  0
 22 21  2  0
 23 21  1  0
M  END
$$$$
