HSC.pdb
     RDKit          3D

 23 23  0  0  1  0  0  0  0  0999 V2000
   13.6996  -14.9891   15.9684 N   0  0  0  0  0  0  0  0  0  0  0  0
   13.2647  -16.2707   16.4789 C   0  0  1  0  0  0  0  0  0  0  0  0
   14.5066  -17.0878   16.8272 C   0  0  0  0  0  0  0  0  0  0  0  0
   15.1609  -17.5513   15.5706 C   0  0  0  0  0  0  0  0  0  0  0  0
   14.7927  -18.5871   14.7638 C   0  0  0  0  0  0  0  0  0  0  0  0
   15.6687  -18.6417   13.7422 N   0  0  0  0  0  0  0  0  0  0  0  0
   16.5794  -17.6740   13.8763 C   0  0  0  0  0  0  0  0  0  0  0  0
   16.2552  -17.0048   15.0121 N   0  0  0  0  0  0  0  0  0  0  0  0
   12.4881  -16.0351   17.7207 C   0  0  0  0  0  0  0  0  0  0  0  0
   12.8700  -15.1799   18.5348 O   0  0  0  0  0  0  0  0  0  0  0  0
    8.9558  -18.1810   18.6963 O   0  0  0  0  0  0  0  0  0  0  0  0
    9.1534  -16.9041   19.1970 C   0  0  0  0  0  0  0  0  0  0  0  0
   10.6030  -16.5178   19.2356 C   0  0  2  0  0  0  0  0  0  0  0  0
   11.3115  -16.7537   18.0240 N   0  0  0  0  0  0  0  0  0  0  0  0
   11.2499  -17.3080   20.3144 C   0  0  0  0  0  0  0  0  0  0  0  0
   12.0394  -18.2633   20.1003 O   0  0  0  0  0  0  0  0  0  0  0  0
   10.9775  -16.9858   21.6731 N   0  0  0  0  0  0  0  0  0  0  0  0
   11.4540  -17.7768   22.7616 C   0  0  1  0  0  0  0  0  0  0  0  0
   11.0639  -17.1673   24.1153 C   0  0  0  0  0  0  0  0  0  0  0  0
   11.6154  -15.4495   24.1736 S   0  0  0  0  0  0  0  0  0  0  0  0
   11.0025  -19.1795   22.7139 C   0  0  0  0  0  0  0  0  0  0  0  0
   10.0906  -19.5025   21.9250 O   0  0  0  0  0  0  0  0  0  0  0  0
   11.5586  -20.1507   23.5174 O   0  0  0  0  0  0  0  0  0  0  0  0
  2  9  1  0
  2  1  1  1
  3  2  1  0
  4  5  2  0
  4  3  1  0
  6  5  1  0
  7  8  2  0
  7  6  1  0
  8  4  1  0
  9 10  2  0
 11 12  1  0
 13 12  1  6
 14 13  1  0
 14  9  1  0
 15 17  1  0
 15 13  1  0
 16 15  2  0
 18 17  1  0
 18 19  1  1
 20 19  1  0
 21 18  1  0
 22 21  2  0
 23 21  1  0
M  END
$$$$
