HSC.pdb
     RDKit          3D

 23 23  0  0  1  0  0  0  0  0999 V2000
   12.4928  -15.4943   11.3659 N   0  0  0  0  0  0  0  0  0  0  0  0
   11.6218  -16.5812   11.7560 C   0  0  1  0  0  0  0  0  0  0  0  0
   12.3694  -17.8927   11.5268 C   0  0  0  0  0  0  0  0  0  0  0  0
   12.4701  -18.1541   10.0627 C   0  0  0  0  0  0  0  0  0  0  0  0
   11.4934  -18.5916    9.2178 C   0  0  0  0  0  0  0  0  0  0  0  0
   12.0299  -18.6864    7.9861 N   0  0  0  0  0  0  0  0  0  0  0  0
   13.3145  -18.3231    8.0241 C   0  0  0  0  0  0  0  0  0  0  0  0
   13.5764  -17.9954    9.3152 N   0  0  0  0  0  0  0  0  0  0  0  0
   11.3335  -16.4463   13.2049 C   0  0  0  0  0  0  0  0  0  0  0  0
   12.2272  -16.0714   13.9799 O   0  0  0  0  0  0  0  0  0  0  0  0
    7.4883  -17.1300   14.9332 O   0  0  0  0  0  0  0  0  0  0  0  0
    8.3855  -16.2268   15.4802 C   0  0  0  0  0  0  0  0  0  0  0  0
    9.8107  -16.5529   15.1417 C   0  0  2  0  0  0  0  0  0  0  0  0
   10.0639  -16.7307   13.7525 N   0  0  0  0  0  0  0  0  0  0  0  0
   10.1621  -17.8138   15.8439 C   0  0  0  0  0  0  0  0  0  0  0  0
   10.2792  -18.9241   15.2649 O   0  0  0  0  0  0  0  0  0  0  0  0
   10.3833  -17.7903   17.2491 N   0  0  0  0  0  0  0  0  0  0  0  0
   10.6982  -18.9641   17.9979 C   0  0  1  0  0  0  0  0  0  0  0  0
   11.3414  -18.6168   19.3476 C   0  0  0  0  0  0  0  0  0  0  0  0
   12.7496  -17.5222   19.0696 S   0  0  0  0  0  0  0  0  0  0  0  0
    9.5398  -19.8469   18.2264 C   0  0  0  0  0  0  0  0  0  0  0  0
    8.4003  -19.4600   17.8941 O   0  0  0  0  0  0  0  0  0  0  0  0
    9.6758  -21.0928   18.7985 O   0  0  0  0  0  0  0  0  0  0  0  0
  2  9  1  0
  2  1  1  1
  3  2  1  0
  4  5  2  0
  4  3  1  0
  6  5  1  0
  7  8  2  0
  7  6  1  0
  8  4  1  0
  9 10  2  0
 11 12  1  0
 13 12  1  6
 14 13  1  0
 14  9  1  0
 15 17  1  0
 15 13  1  0
 16 15  2  0
 18 17  1  0
 18 19  1  1
 20 19  1  0
 21 18  1  0
 22 21  2  0
 23 21  1  0
M  END
$$$$
