HSC.pdb
     RDKit          3D

 23 23  0  0  1  0  0  0  0  0999 V2000
   14.1619  -13.9555   18.0674 N   0  0  0  0  0  0  0  0  0  0  0  0
   13.0232  -14.7820   18.4032 C   0  0  1  0  0  0  0  0  0  0  0  0
   13.2661  -16.1772   17.8326 C   0  0  0  0  0  0  0  0  0  0  0  0
   13.0797  -16.1452   16.3540 C   0  0  0  0  0  0  0  0  0  0  0  0
   11.9096  -16.1147   15.6547 C   0  0  0  0  0  0  0  0  0  0  0  0
   12.2167  -16.0930   14.3435 N   0  0  0  0  0  0  0  0  0  0  0  0
   13.5433  -16.1086   14.1903 C   0  0  0  0  0  0  0  0  0  0  0  0
   14.0678  -16.1409   15.4420 N   0  0  0  0  0  0  0  0  0  0  0  0
   12.9429  -14.8811   19.8812 C   0  0  0  0  0  0  0  0  0  0  0  0
   13.9773  -14.8047   20.5622 O   0  0  0  0  0  0  0  0  0  0  0  0
    9.3922  -15.8613   21.9968 O   0  0  0  0  0  0  0  0  0  0  0  0
   10.2959  -14.9791   22.5670 C   0  0  0  0  0  0  0  0  0  0  0  0
   11.6724  -15.1059   21.9828 C   0  0  2  0  0  0  0  0  0  0  0  0
   11.7190  -15.0619   20.5610 N   0  0  0  0  0  0  0  0  0  0  0  0
   12.2305  -16.4091   22.4266 C   0  0  0  0  0  0  0  0  0  0  0  0
   12.1748  -17.4609   21.7393 O   0  0  0  0  0  0  0  0  0  0  0  0
   12.8682  -16.4981   23.6952 N   0  0  0  0  0  0  0  0  0  0  0  0
   13.3843  -17.7244   24.2122 C   0  0  1  0  0  0  0  0  0  0  0  0
   14.8827  -17.6175   24.5278 C   0  0  0  0  0  0  0  0  0  0  0  0
   15.3763  -15.8818   24.4824 S   0  0  0  0  0  0  0  0  0  0  0  0
   12.6708  -18.2075   25.4085 C   0  0  0  0  0  0  0  0  0  0  0  0
   11.7558  -17.5131   25.8975 O   0  0  0  0  0  0  0  0  0  0  0  0
   12.9839  -19.4080   26.0074 O   0  0  0  0  0  0  0  0  0  0  0  0
  2  9  1  0
  2  1  1  1
  3  2  1  0
  4  5  2  0
  4  3  1  0
  6  5  1  0
  7  8  2  0
  7  6  1  0
  8  4  1  0
  9 10  2  0
 11 12  1  0
 13 12  1  6
 14 13  1  0
 14  9  1  0
 15 17  1  0
 15 13  1  0
 16 15  2  0
 18 17  1  0
 18 19  1  1
 20 19  1  0
 21 18  1  0
 22 21  2  0
 23 21  1  0
M  END
$$$$
