HSC.pdb
     RDKit          3D

 23 23  0  0  1  0  0  0  0  0999 V2000
   10.2840  -13.2370   11.4952 N   0  0  0  0  0  0  0  0  0  0  0  0
   10.7576  -14.3920   10.7644 C   0  0  1  0  0  0  0  0  0  0  0  0
   11.8537  -13.9299    9.8071 C   0  0  0  0  0  0  0  0  0  0  0  0
   11.2389  -13.1647    8.6852 C   0  0  0  0  0  0  0  0  0  0  0  0
   10.4474  -13.6367    7.6802 C   0  0  0  0  0  0  0  0  0  0  0  0
   10.1208  -12.5942    6.8925 N   0  0  0  0  0  0  0  0  0  0  0  0
   10.6800  -11.4777    7.3664 C   0  0  0  0  0  0  0  0  0  0  0  0
   11.3702  -11.8429    8.4769 N   0  0  0  0  0  0  0  0  0  0  0  0
   11.3473  -15.3450   11.7364 C   0  0  0  0  0  0  0  0  0  0  0  0
   12.0149  -14.9188   12.6915 O   0  0  0  0  0  0  0  0  0  0  0  0
   10.5786  -19.4289   11.5001 O   0  0  0  0  0  0  0  0  0  0  0  0
   11.0172  -18.9383   12.7195 C   0  0  0  0  0  0  0  0  0  0  0  0
   11.7340  -17.6264   12.5891 C   0  0  2  0  0  0  0  0  0  0  0  0
   11.1799  -16.7420   11.6215 N   0  0  0  0  0  0  0  0  0  0  0  0
   13.1384  -17.9183   12.2026 C   0  0  0  0  0  0  0  0  0  0  0  0
   13.5678  -17.8354   11.0235 O   0  0  0  0  0  0  0  0  0  0  0  0
   14.0682  -18.3154   13.2035 N   0  0  0  0  0  0  0  0  0  0  0  0
   15.4318  -18.6186   12.9096 C   0  0  1  0  0  0  0  0  0  0  0  0
   16.3516  -18.2848   14.0921 C   0  0  0  0  0  0  0  0  0  0  0  0
   16.1435  -16.5469   14.5336 S   0  0  0  0  0  0  0  0  0  0  0  0
   15.6512  -20.0196   12.5059 C   0  0  0  0  0  0  0  0  0  0  0  0
   14.6930  -20.8196   12.5259 O   0  0  0  0  0  0  0  0  0  0  0  0
   16.8875  -20.4763   12.1051 O   0  0  0  0  0  0  0  0  0  0  0  0
  2  9  1  0
  2  1  1  1
  3  2  1  0
  4  5  2  0
  4  3  1  0
  6  5  1  0
  7  8  2  0
  7  6  1  0
  8  4  1  0
  9 10  2  0
 11 12  1  0
 13 12  1  6
 14 13  1  0
 14  9  1  0
 15 17  1  0
 15 13  1  0
 16 15  2  0
 18 17  1  0
 18 19  1  1
 20 19  1  0
 21 18  1  0
 22 21  2  0
 23 21  1  0
M  END
$$$$
