HSC.pdb
     RDKit          3D

 23 23  0  0  1  0  0  0  0  0999 V2000
    6.3757  -16.2310   20.3173 N   0  0  0  0  0  0  0  0  0  0  0  0
    7.5217  -15.6710   20.9995 C   0  0  1  0  0  0  0  0  0  0  0  0
    7.5629  -14.1734   20.7050 C   0  0  0  0  0  0  0  0  0  0  0  0
    8.0093  -13.9589   19.2990 C   0  0  0  0  0  0  0  0  0  0  0  0
    7.2913  -13.4502   18.2575 C   0  0  0  0  0  0  0  0  0  0  0  0
    8.0928  -13.4378   17.1751 N   0  0  0  0  0  0  0  0  0  0  0  0
    9.2948  -13.9222   17.4980 C   0  0  0  0  0  0  0  0  0  0  0  0
    9.2318  -14.2418   18.8158 N   0  0  0  0  0  0  0  0  0  0  0  0
    7.3314  -15.8627   22.4582 C   0  0  0  0  0  0  0  0  0  0  0  0
    6.2392  -15.5887   22.9796 O   0  0  0  0  0  0  0  0  0  0  0  0
    9.7884  -18.2777   24.8253 O   0  0  0  0  0  0  0  0  0  0  0  0
    8.5096  -17.9005   25.2028 C   0  0  0  0  0  0  0  0  0  0  0  0
    8.1340  -16.5414   24.6890 C   0  0  2  0  0  0  0  0  0  0  0  0
    8.3566  -16.3522   23.2962 N   0  0  0  0  0  0  0  0  0  0  0  0
    8.9446  -15.5412   25.4300 C   0  0  0  0  0  0  0  0  0  0  0  0
   10.0709  -15.1346   25.0452 O   0  0  0  0  0  0  0  0  0  0  0  0
    8.4410  -14.9982   26.6447 N   0  0  0  0  0  0  0  0  0  0  0  0
    9.1922  -14.0913   27.4516 C   0  0  1  0  0  0  0  0  0  0  0  0
    8.3072  -12.9705   28.0141 C   0  0  0  0  0  0  0  0  0  0  0  0
    7.1988  -12.3820   26.7166 S   0  0  0  0  0  0  0  0  0  0  0  0
    9.9103  -14.7444   28.5613 C   0  0  0  0  0  0  0  0  0  0  0  0
    9.6959  -15.9501   28.8038 O   0  0  0  0  0  0  0  0  0  0  0  0
   10.8159  -14.0620   29.3438 O   0  0  0  0  0  0  0  0  0  0  0  0
  2  9  1  0
  2  1  1  6
  3  2  1  0
  4  5  2  0
  4  3  1  0
  6  5  1  0
  7  8  2  0
  7  6  1  0
  8  4  1  0
  9 10  2  0
 11 12  1  0
 13 12  1  1
 14 13  1  0
 14  9  1  0
 15 17  1  0
 15 13  1  0
 16 15  2  0
 18 17  1  0
 18 19  1  1
 20 19  1  0
 21 18  1  0
 22 21  2  0
 23 21  1  0
M  END
$$$$
