HSC.pdb
     RDKit          3D

 23 23  0  0  1  0  0  0  0  0999 V2000
    7.3419  -16.7300   20.4797 N   0  0  0  0  0  0  0  0  0  0  0  0
    8.2395  -15.8013   21.1311 C   0  0  1  0  0  0  0  0  0  0  0  0
    7.6219  -14.4075   21.0464 C   0  0  0  0  0  0  0  0  0  0  0  0
    7.7285  -13.9045   19.6472 C   0  0  0  0  0  0  0  0  0  0  0  0
    6.7187  -13.6380   18.7706 C   0  0  0  0  0  0  0  0  0  0  0  0
    7.2761  -13.2045   17.6237 N   0  0  0  0  0  0  0  0  0  0  0  0
    8.6059  -13.1880   17.7461 C   0  0  0  0  0  0  0  0  0  0  0  0
    8.8750  -13.6235   19.0034 N   0  0  0  0  0  0  0  0  0  0  0  0
    8.3474  -16.1865   22.5596 C   0  0  0  0  0  0  0  0  0  0  0  0
    7.3191  -16.3456   23.2355 O   0  0  0  0  0  0  0  0  0  0  0  0
   11.6705  -18.0604   24.1918 O   0  0  0  0  0  0  0  0  0  0  0  0
   10.4173  -18.0750   24.7829 C   0  0  0  0  0  0  0  0  0  0  0  0
    9.6580  -16.8006   24.5563 C   0  0  2  0  0  0  0  0  0  0  0  0
    9.5914  -16.3842   23.1970 N   0  0  0  0  0  0  0  0  0  0  0  0
   10.3309  -15.7316   25.3381 C   0  0  0  0  0  0  0  0  0  0  0  0
   11.3599  -15.1244   24.9454 O   0  0  0  0  0  0  0  0  0  0  0  0
    9.8015  -15.3559   26.6040 N   0  0  0  0  0  0  0  0  0  0  0  0
   10.4838  -14.4693   27.4906 C   0  0  1  0  0  0  0  0  0  0  0  0
    9.7514  -13.1266   27.6199 C   0  0  0  0  0  0  0  0  0  0  0  0
    8.0086  -13.4332   27.9763 S   0  0  0  0  0  0  0  0  0  0  0  0
   10.7033  -15.0326   28.8352 C   0  0  0  0  0  0  0  0  0  0  0  0
   10.1746  -16.1229   29.1360 O   0  0  0  0  0  0  0  0  0  0  0  0
   11.4780  -14.3900   29.7759 O   0  0  0  0  0  0  0  0  0  0  0  0
  2  9  1  0
  2  1  1  6
  3  2  1  0
  4  5  2  0
  4  3  1  0
  6  5  1  0
  7  8  2  0
  7  6  1  0
  8  4  1  0
  9 10  2  0
 11 12  1  0
 13 12  1  6
 14 13  1  0
 14  9  1  0
 15 17  1  0
 15 13  1  0
 16 15  2  0
 18 17  1  0
 18 19  1  1
 20 19  1  0
 21 18  1  0
 22 21  2  0
 23 21  1  0
M  END
$$$$
