QIA.pdb
     RDKit          3D

 23 22  0  0  1  0  0  0  0  0999 V2000
    7.1192  -19.8354   19.4872 N   0  0  0  0  0  0  0  0  0  0  0  0
    6.4359  -18.9927   20.3971 C   0  0  0  0  0  0  0  0  0  0  0  0
    5.7081  -19.4986   21.2714 O   0  0  0  0  0  0  0  0  0  0  0  0
    6.5947  -17.5399   20.2898 C   0  0  0  0  0  0  0  0  0  0  0  0
    7.5633  -17.0060   21.2805 C   0  0  0  0  0  0  0  0  0  0  0  0
    7.6637  -15.5277   21.2884 C   0  0  2  0  0  0  0  0  0  0  0  0
    8.1793  -14.8761   20.1459 N   0  0  0  0  0  0  0  0  0  0  0  0
    8.3297  -15.1191   22.5569 C   0  0  0  0  0  0  0  0  0  0  0  0
    9.5927  -15.0596   22.5351 O   0  0  0  0  0  0  0  0  0  0  0  0
    6.0508  -11.6921   26.1274 C   0  0  0  0  0  0  0  0  0  0  0  0
    7.0661  -12.3317   25.2022 C   0  0  0  0  0  0  0  0  0  0  0  0
    7.5690  -13.5783   25.8856 C   0  0  2  0  0  0  0  0  0  0  0  0
    8.3491  -13.2533   27.1474 C   0  0  0  0  0  0  0  0  0  0  0  0
    8.3879  -14.4524   24.9768 C   0  0  2  0  0  0  0  0  0  0  0  0
    7.6732  -14.7994   23.7588 N   0  0  0  0  0  0  0  0  0  0  0  0
    8.7259  -15.6982   25.7524 C   0  0  0  0  0  0  0  0  0  0  0  0
    7.8074  -16.3914   26.2584 O   0  0  0  0  0  0  0  0  0  0  0  0
   11.6838  -17.9640   26.0942 C   0  0  0  0  0  0  0  0  0  0  0  0
   10.4193  -17.3375   26.6415 C   0  0  2  0  0  0  0  0  0  0  0  0
   10.0589  -16.1322   25.9409 N   0  0  0  0  0  0  0  0  0  0  0  0
   10.4515  -17.1698   28.1023 C   0  0  0  0  0  0  0  0  0  0  0  0
   10.4899  -16.0190   28.5849 O   0  0  0  0  0  0  0  0  0  0  0  0
   10.4409  -18.2461   28.9637 O   0  0  0  0  0  0  0  0  0  0  0  0
  2  1  1  0
  2  3  2  0
  4  5  1  0
  4  2  1  0
  5  6  1  0
  6  7  1  6
  8  6  1  0
  8  9  2  0
 10 11  1  0
 11 12  1  0
 12 13  1  1
 12 14  1  0
 14 15  1  6
 14 16  1  0
 15  8  1  0
 16 20  1  0
 17 16  2  0
 19 18  1  6
 19 21  1  0
 20 19  1  0
 21 22  2  0
 21 23  1  0
M  END
$$$$
