QIA.pdb
     RDKit          3D

 23 22  0  0  1  0  0  0  0  0999 V2000
   10.1101  -17.9763   19.4155 N   0  0  0  0  0  0  0  0  0  0  0  0
    8.8414  -17.7401   18.8328 C   0  0  0  0  0  0  0  0  0  0  0  0
    8.5186  -18.3546   17.7993 O   0  0  0  0  0  0  0  0  0  0  0  0
    7.9333  -16.7727   19.4549 C   0  0  0  0  0  0  0  0  0  0  0  0
    8.5213  -16.1497   20.6677 C   0  0  0  0  0  0  0  0  0  0  0  0
    7.5196  -15.7331   21.6769 C   0  0  2  0  0  0  0  0  0  0  0  0
    6.4416  -14.9172   21.2669 N   0  0  0  0  0  0  0  0  0  0  0  0
    8.2526  -15.1997   22.8591 C   0  0  0  0  0  0  0  0  0  0  0  0
    9.4936  -15.0065   22.7111 O   0  0  0  0  0  0  0  0  0  0  0  0
    5.9850  -11.7989   26.3597 C   0  0  0  0  0  0  0  0  0  0  0  0
    7.0506  -12.3681   25.4450 C   0  0  0  0  0  0  0  0  0  0  0  0
    7.6659  -13.5466   26.1567 C   0  0  2  0  0  0  0  0  0  0  0  0
    8.5135  -13.1109   27.3390 C   0  0  0  0  0  0  0  0  0  0  0  0
    8.4651  -14.4302   25.2395 C   0  0  2  0  0  0  0  0  0  0  0  0
    7.6808  -14.8990   24.1083 N   0  0  0  0  0  0  0  0  0  0  0  0
    8.9412  -15.5996   26.0604 C   0  0  0  0  0  0  0  0  0  0  0  0
    8.1066  -16.3621   26.6102 O   0  0  0  0  0  0  0  0  0  0  0  0
   12.1917  -17.4583   26.3763 C   0  0  0  0  0  0  0  0  0  0  0  0
   10.8094  -17.0843   26.8668 C   0  0  2  0  0  0  0  0  0  0  0  0
   10.3146  -15.8841   26.2442 N   0  0  0  0  0  0  0  0  0  0  0  0
   10.7128  -17.0570   28.3342 C   0  0  0  0  0  0  0  0  0  0  0  0
   10.5372  -15.9660   28.9152 O   0  0  0  0  0  0  0  0  0  0  0  0
   10.8098  -18.2017   29.0962 O   0  0  0  0  0  0  0  0  0  0  0  0
  2  1  1  0
  2  3  2  0
  4  5  1  0
  4  2  1  0
  5  6  1  0
  6  7  1  6
  8  6  1  0
  8  9  2  0
 10 11  1  0
 11 12  1  0
 12 13  1  1
 12 14  1  0
 14 15  1  6
 14 16  1  0
 15  8  1  0
 16 20  1  0
 17 16  2  0
 19 18  1  1
 19 21  1  0
 20 19  1  0
 21 22  2  0
 21 23  1  0
M  END
$$$$
