QIA.pdb
     RDKit          3D

 23 22  0  0  1  0  0  0  0  0999 V2000
   12.3600  -17.3395   19.5405 N   0  0  0  0  0  0  0  0  0  0  0  0
   11.1527  -17.7144   18.9027 C   0  0  0  0  0  0  0  0  0  0  0  0
   11.1953  -18.4228   17.8798 O   0  0  0  0  0  0  0  0  0  0  0  0
    9.8751  -17.2576   19.4562 C   0  0  0  0  0  0  0  0  0  0  0  0
   10.0490  -16.5071   20.7256 C   0  0  0  0  0  0  0  0  0  0  0  0
    8.9584  -16.7201   21.7057 C   0  0  2  0  0  0  0  0  0  0  0  0
    7.6200  -16.6197   21.2647 N   0  0  0  0  0  0  0  0  0  0  0  0
    9.2521  -15.8903   22.9076 C   0  0  0  0  0  0  0  0  0  0  0  0
   10.4727  -15.7356   23.1996 O   0  0  0  0  0  0  0  0  0  0  0  0
    6.7668  -11.6753   26.6575 C   0  0  0  0  0  0  0  0  0  0  0  0
    7.9609  -12.5612   26.3652 C   0  0  0  0  0  0  0  0  0  0  0  0
    7.5459  -13.5261   25.2832 C   0  0  2  0  0  0  0  0  0  0  0  0
    6.3012  -14.3052   25.6703 C   0  0  0  0  0  0  0  0  0  0  0  0
    8.6487  -14.4682   24.8868 C   0  0  2  0  0  0  0  0  0  0  0  0
    8.2921  -15.2749   23.7307 N   0  0  0  0  0  0  0  0  0  0  0  0
    8.9177  -15.3545   26.0743 C   0  0  0  0  0  0  0  0  0  0  0  0
    8.0470  -16.1784   26.4529 O   0  0  0  0  0  0  0  0  0  0  0  0
   11.8257  -16.8865   27.5932 C   0  0  0  0  0  0  0  0  0  0  0  0
   10.4867  -16.2260   27.8417 C   0  0  2  0  0  0  0  0  0  0  0  0
   10.1319  -15.2999   26.7979 N   0  0  0  0  0  0  0  0  0  0  0  0
   10.3770  -15.6481   29.1897 C   0  0  0  0  0  0  0  0  0  0  0  0
   10.1659  -14.4239   29.3148 O   0  0  0  0  0  0  0  0  0  0  0  0
   10.4999  -16.4157   30.3282 O   0  0  0  0  0  0  0  0  0  0  0  0
  2  1  1  0
  2  3  2  0
  4  5  1  0
  4  2  1  0
  5  6  1  0
  6  7  1  6
  8  6  1  0
  8  9  2  0
 10 11  1  0
 11 12  1  0
 12 13  1  1
 12 14  1  0
 14 15  1  6
 14 16  1  0
 15  8  1  0
 16 20  1  0
 17 16  2  0
 19 18  1  6
 19 21  1  0
 20 19  1  0
 21 22  2  0
 21 23  1  0
M  END
$$$$
