QIA.pdb
     RDKit          3D

 23 22  0  0  1  0  0  0  0  0999 V2000
    8.4689  -12.4206   17.3368 N   0  0  0  0  0  0  0  0  0  0  0  0
    8.0039  -13.6678   17.8195 C   0  0  0  0  0  0  0  0  0  0  0  0
    8.3951  -14.7182   17.2776 O   0  0  0  0  0  0  0  0  0  0  0  0
    7.0667  -13.6988   18.9457 C   0  0  0  0  0  0  0  0  0  0  0  0
    7.7589  -13.5982   20.2554 C   0  0  0  0  0  0  0  0  0  0  0  0
    7.8012  -14.8704   21.0137 C   0  0  2  0  0  0  0  0  0  0  0  0
    6.6279  -15.6533   21.0925 N   0  0  0  0  0  0  0  0  0  0  0  0
    8.4219  -14.5947   22.3398 C   0  0  0  0  0  0  0  0  0  0  0  0
    9.5675  -14.0594   22.3240 O   0  0  0  0  0  0  0  0  0  0  0  0
    6.2006  -12.0779   26.2429 C   0  0  0  0  0  0  0  0  0  0  0  0
    7.2967  -12.5762   25.3229 C   0  0  0  0  0  0  0  0  0  0  0  0
    7.7416  -13.9189   25.8457 C   0  0  2  0  0  0  0  0  0  0  0  0
    8.5030  -13.7902   27.1534 C   0  0  0  0  0  0  0  0  0  0  0  0
    8.5512  -14.6959   24.8451 C   0  0  2  0  0  0  0  0  0  0  0  0
    7.8419  -14.8792   23.5890 N   0  0  0  0  0  0  0  0  0  0  0  0
    8.8552  -16.0326   25.4686 C   0  0  0  0  0  0  0  0  0  0  0  0
    7.9161  -16.7711   25.8596 O   0  0  0  0  0  0  0  0  0  0  0  0
   11.7769  -18.3649   25.6426 C   0  0  0  0  0  0  0  0  0  0  0  0
   10.5080  -17.7777   26.2223 C   0  0  2  0  0  0  0  0  0  0  0  0
   10.1781  -16.5040   25.6374 N   0  0  0  0  0  0  0  0  0  0  0  0
   10.5093  -17.7560   27.6929 C   0  0  0  0  0  0  0  0  0  0  0  0
   10.6302  -16.6653   28.2882 O   0  0  0  0  0  0  0  0  0  0  0  0
   10.3808  -18.9057   28.4427 O   0  0  0  0  0  0  0  0  0  0  0  0
  2  1  1  0
  2  3  2  0
  4  5  1  0
  4  2  1  0
  5  6  1  0
  6  7  1  1
  8  6  1  0
  8  9  2  0
 10 11  1  0
 11 12  1  0
 12 13  1  1
 12 14  1  0
 14 15  1  6
 14 16  1  0
 15  8  1  0
 16 20  1  0
 17 16  2  0
 19 18  1  6
 19 21  1  0
 20 19  1  0
 21 22  2  0
 21 23  1  0
M  END
$$$$
