QIA.pdb
     RDKit          3D

 23 22  0  0  1  0  0  0  0  0999 V2000
   11.4699  -15.2432   13.8641 N   0  0  0  0  0  0  0  0  0  0  0  0
   11.6822  -16.6418   13.8035 C   0  0  0  0  0  0  0  0  0  0  0  0
   11.7645  -17.2008   12.6941 O   0  0  0  0  0  0  0  0  0  0  0  0
   11.7967  -17.4064   15.0484 C   0  0  0  0  0  0  0  0  0  0  0  0
   11.5771  -16.5610   16.2491 C   0  0  0  0  0  0  0  0  0  0  0  0
   10.8438  -17.2437   17.3407 C   0  0  2  0  0  0  0  0  0  0  0  0
    9.6214  -17.8849   17.0401 N   0  0  0  0  0  0  0  0  0  0  0  0
   10.7541  -16.3031   18.4926 C   0  0  0  0  0  0  0  0  0  0  0  0
   11.8494  -15.8597   18.9431 O   0  0  0  0  0  0  0  0  0  0  0  0
    7.0514  -12.4162   19.4939 C   0  0  0  0  0  0  0  0  0  0  0  0
    8.3930  -13.1181   19.4345 C   0  0  0  0  0  0  0  0  0  0  0  0
    8.3668  -14.2180   20.4657 C   0  0  2  0  0  0  0  0  0  0  0  0
    8.2498  -13.6659   21.8756 C   0  0  0  0  0  0  0  0  0  0  0  0
    9.5485  -15.1420   20.3639 C   0  0  2  0  0  0  0  0  0  0  0  0
    9.5643  -15.8765   19.1090 N   0  0  0  0  0  0  0  0  0  0  0  0
    9.4597  -16.0987   21.5236 C   0  0  0  0  0  0  0  0  0  0  0  0
    8.4492  -16.8350   21.6541 O   0  0  0  0  0  0  0  0  0  0  0  0
   11.2877  -18.3848   23.2896 C   0  0  0  0  0  0  0  0  0  0  0  0
   10.4621  -17.1502   23.5814 C   0  0  2  0  0  0  0  0  0  0  0  0
   10.4840  -16.2079   22.4929 N   0  0  0  0  0  0  0  0  0  0  0  0
   10.7860  -16.5410   24.8804 C   0  0  0  0  0  0  0  0  0  0  0  0
   11.2054  -15.3657   24.9169 O   0  0  0  0  0  0  0  0  0  0  0  0
   10.6420  -17.2269   26.0675 O   0  0  0  0  0  0  0  0  0  0  0  0
  2  1  1  0
  2  3  2  0
  4  5  1  0
  4  2  1  0
  5  6  1  0
  6  7  1  6
  8  6  1  0
  8  9  2  0
 10 11  1  0
 11 12  1  0
 12 13  1  1
 12 14  1  0
 14 15  1  6
 14 16  1  0
 15  8  1  0
 16 20  1  0
 17 16  2  0
 19 18  1  6
 19 21  1  0
 20 19  1  0
 21 22  2  0
 21 23  1  0
M  END
$$$$
