QIA.pdb
     RDKit          3D

 23 22  0  0  1  0  0  0  0  0999 V2000
    5.4050  -19.9940   23.4166 N   0  0  0  0  0  0  0  0  0  0  0  0
    5.4757  -18.7814   22.6889 C   0  0  0  0  0  0  0  0  0  0  0  0
    4.6257  -17.8949   22.8928 O   0  0  0  0  0  0  0  0  0  0  0  0
    6.5460  -18.5943   21.7056 C   0  0  0  0  0  0  0  0  0  0  0  0
    7.7257  -17.9026   22.2841 C   0  0  0  0  0  0  0  0  0  0  0  0
    7.7616  -16.4460   22.0151 C   0  0  2  0  0  0  0  0  0  0  0  0
    8.2250  -15.9990   20.7576 N   0  0  0  0  0  0  0  0  0  0  0  0
    8.4347  -15.7824   23.1667 C   0  0  0  0  0  0  0  0  0  0  0  0
    9.6825  -15.6048   23.0625 O   0  0  0  0  0  0  0  0  0  0  0  0
    6.0386  -12.0869   26.3623 C   0  0  0  0  0  0  0  0  0  0  0  0
    7.1115  -12.7329   25.5092 C   0  0  0  0  0  0  0  0  0  0  0  0
    7.6867  -13.8763   26.3066 C   0  0  2  0  0  0  0  0  0  0  0  0
    8.4706  -13.3850   27.5110 C   0  0  0  0  0  0  0  0  0  0  0  0
    8.5326  -14.8004   25.4753 C   0  0  2  0  0  0  0  0  0  0  0  0
    7.8004  -15.3449   24.3431 N   0  0  0  0  0  0  0  0  0  0  0  0
    8.9886  -15.9134   26.3816 C   0  0  0  0  0  0  0  0  0  0  0  0
    8.1433  -16.5847   27.0258 O   0  0  0  0  0  0  0  0  0  0  0  0
   12.1268  -17.9200   26.8049 C   0  0  0  0  0  0  0  0  0  0  0  0
   10.8235  -17.3560   27.3287 C   0  0  2  0  0  0  0  0  0  0  0  0
   10.3544  -16.2439   26.5436 N   0  0  0  0  0  0  0  0  0  0  0  0
   10.8643  -17.0697   28.7708 C   0  0  0  0  0  0  0  0  0  0  0  0
   10.6906  -15.8985   29.1667 O   0  0  0  0  0  0  0  0  0  0  0  0
   11.0892  -18.0559   29.7074 O   0  0  0  0  0  0  0  0  0  0  0  0
  2  1  1  0
  2  3  2  0
  4  5  1  0
  4  2  1  0
  5  6  1  0
  6  7  1  6
  8  6  1  0
  8  9  2  0
 10 11  1  0
 11 12  1  0
 12 13  1  1
 12 14  1  0
 14 15  1  6
 14 16  1  0
 15  8  1  0
 16 20  1  0
 17 16  2  0
 19 18  1  6
 19 21  1  0
 20 19  1  0
 21 22  2  0
 21 23  1  0
M  END
$$$$
