QIA.pdb
     RDKit          3D

 23 22  0  0  1  0  0  0  0  0999 V2000
   11.6108  -15.5533   12.9418 N   0  0  0  0  0  0  0  0  0  0  0  0
   10.7638  -16.6654   12.7166 C   0  0  0  0  0  0  0  0  0  0  0  0
   10.6035  -17.0876   11.5564 O   0  0  0  0  0  0  0  0  0  0  0  0
   10.0877  -17.2961   13.8535 C   0  0  0  0  0  0  0  0  0  0  0  0
   10.3424  -16.5776   15.1277 C   0  0  0  0  0  0  0  0  0  0  0  0
    9.7175  -17.2117   16.3121 C   0  0  2  0  0  0  0  0  0  0  0  0
    8.3662  -17.6161   16.2321 N   0  0  0  0  0  0  0  0  0  0  0  0
   10.0142  -16.3613   17.4989 C   0  0  0  0  0  0  0  0  0  0  0  0
   11.2245  -16.0375   17.6702 O   0  0  0  0  0  0  0  0  0  0  0  0
    6.8813  -12.3835   19.5957 C   0  0  0  0  0  0  0  0  0  0  0  0
    8.1226  -13.1177   19.1303 C   0  0  0  0  0  0  0  0  0  0  0  0
    8.3648  -14.2446   20.1027 C   0  0  2  0  0  0  0  0  0  0  0  0
    8.6762  -13.7288   21.4967 C   0  0  0  0  0  0  0  0  0  0  0  0
    9.4401  -15.1902   19.6442 C   0  0  2  0  0  0  0  0  0  0  0  0
    9.0674  -15.8976   18.4296 N   0  0  0  0  0  0  0  0  0  0  0  0
    9.6710  -16.1697   20.7646 C   0  0  0  0  0  0  0  0  0  0  0  0
    8.7808  -17.0064   21.0604 O   0  0  0  0  0  0  0  0  0  0  0  0
   12.6172  -17.5388   22.5864 C   0  0  0  0  0  0  0  0  0  0  0  0
   11.1543  -17.1522   22.5477 C   0  0  2  0  0  0  0  0  0  0  0  0
   10.8702  -16.1904   21.5145 N   0  0  0  0  0  0  0  0  0  0  0  0
   10.6336  -16.7567   23.8652 C   0  0  0  0  0  0  0  0  0  0  0  0
   10.2223  -15.5901   24.0351 O   0  0  0  0  0  0  0  0  0  0  0  0
   10.5832  -17.6347   24.9268 O   0  0  0  0  0  0  0  0  0  0  0  0
  2  1  1  0
  2  3  2  0
  4  5  1  0
  4  2  1  0
  5  6  1  0
  6  7  1  6
  8  6  1  0
  8  9  2  0
 10 11  1  0
 11 12  1  0
 12 13  1  1
 12 14  1  0
 14 15  1  6
 14 16  1  0
 15  8  1  0
 16 20  1  0
 17 16  2  0
 19 18  1  1
 19 21  1  0
 20 19  1  0
 21 22  2  0
 21 23  1  0
M  END
$$$$
