QIA.pdb
     RDKit          3D

 23 22  0  0  1  0  0  0  0  0999 V2000
    5.0594  -18.6758   23.6540 N   0  0  0  0  0  0  0  0  0  0  0  0
    5.3693  -19.0946   22.3374 C   0  0  0  0  0  0  0  0  0  0  0  0
    4.5251  -19.7357   21.6845 O   0  0  0  0  0  0  0  0  0  0  0  0
    6.6803  -18.7694   21.7693 C   0  0  0  0  0  0  0  0  0  0  0  0
    7.4807  -17.8977   22.6661 C   0  0  0  0  0  0  0  0  0  0  0  0
    7.5772  -16.4912   22.2102 C   0  0  2  0  0  0  0  0  0  0  0  0
    8.0306  -16.2326   20.8974 N   0  0  0  0  0  0  0  0  0  0  0  0
    8.3073  -15.7188   23.2541 C   0  0  0  0  0  0  0  0  0  0  0  0
    9.5515  -15.5744   23.0797 O   0  0  0  0  0  0  0  0  0  0  0  0
    5.9546  -11.8669   26.3207 C   0  0  0  0  0  0  0  0  0  0  0  0
    6.9804  -12.5356   25.4282 C   0  0  0  0  0  0  0  0  0  0  0  0
    7.7069  -13.5545   26.2697 C   0  0  2  0  0  0  0  0  0  0  0  0
    8.5793  -12.8956   27.3239 C   0  0  0  0  0  0  0  0  0  0  0  0
    8.5186  -14.5178   25.4488 C   0  0  2  0  0  0  0  0  0  0  0  0
    7.7296  -15.1464   24.4015 N   0  0  0  0  0  0  0  0  0  0  0  0
    9.0503  -15.5620   26.3948 C   0  0  0  0  0  0  0  0  0  0  0  0
    8.2547  -16.2397   27.0934 O   0  0  0  0  0  0  0  0  0  0  0  0
   12.3553  -17.3081   26.8693 C   0  0  0  0  0  0  0  0  0  0  0  0
   10.9744  -16.8924   27.3290 C   0  0  2  0  0  0  0  0  0  0  0  0
   10.4340  -15.8195   26.5353 N   0  0  0  0  0  0  0  0  0  0  0  0
   10.9088  -16.6319   28.7751 C   0  0  0  0  0  0  0  0  0  0  0  0
   10.7823  -15.4576   29.1797 O   0  0  0  0  0  0  0  0  0  0  0  0
   10.9827  -17.6459   29.7062 O   0  0  0  0  0  0  0  0  0  0  0  0
  2  1  1  0
  2  3  2  0
  4  5  1  0
  4  2  1  0
  5  6  1  0
  6  7  1  6
  8  6  1  0
  8  9  2  0
 10 11  1  0
 11 12  1  0
 12 13  1  1
 12 14  1  0
 14 15  1  6
 14 16  1  0
 15  8  1  0
 16 20  1  0
 17 16  2  0
 19 18  1  6
 19 21  1  0
 20 19  1  0
 21 22  2  0
 21 23  1  0
M  END
$$$$
