QIA.pdb
     RDKit          3D

 23 22  0  0  1  0  0  0  0  0999 V2000
    9.3921  -12.6374   18.4349 N   0  0  0  0  0  0  0  0  0  0  0  0
    8.1783  -13.2676   18.0683 C   0  0  0  0  0  0  0  0  0  0  0  0
    7.8887  -13.3837   16.8631 O   0  0  0  0  0  0  0  0  0  0  0  0
    7.2831  -13.7678   19.1151 C   0  0  0  0  0  0  0  0  0  0  0  0
    7.8886  -13.6679   20.4671 C   0  0  0  0  0  0  0  0  0  0  0  0
    7.8946  -14.9439   21.2203 C   0  0  2  0  0  0  0  0  0  0  0  0
    6.7061  -15.7057   21.2749 N   0  0  0  0  0  0  0  0  0  0  0  0
    8.4967  -14.6851   22.5583 C   0  0  0  0  0  0  0  0  0  0  0  0
    9.6562  -14.1804   22.5650 O   0  0  0  0  0  0  0  0  0  0  0  0
    6.1129  -12.0356   26.2994 C   0  0  0  0  0  0  0  0  0  0  0  0
    7.1123  -12.6423   25.3353 C   0  0  0  0  0  0  0  0  0  0  0  0
    7.6709  -13.8795   25.9922 C   0  0  2  0  0  0  0  0  0  0  0  0
    8.4263  -13.5481   27.2673 C   0  0  0  0  0  0  0  0  0  0  0  0
    8.5371  -14.6902   25.0686 C   0  0  2  0  0  0  0  0  0  0  0  0
    7.8854  -14.9543   23.7958 N   0  0  0  0  0  0  0  0  0  0  0  0
    8.8402  -15.9856   25.7745 C   0  0  0  0  0  0  0  0  0  0  0  0
    7.8999  -16.7263   26.1585 O   0  0  0  0  0  0  0  0  0  0  0  0
   11.7590  -18.2770   26.1079 C   0  0  0  0  0  0  0  0  0  0  0  0
   10.4936  -17.6631   26.6673 C   0  0  2  0  0  0  0  0  0  0  0  0
   10.1635  -16.4148   26.0300 N   0  0  0  0  0  0  0  0  0  0  0  0
   10.5013  -17.5786   28.1357 C   0  0  0  0  0  0  0  0  0  0  0  0
   10.4361  -16.4589   28.6841 O   0  0  0  0  0  0  0  0  0  0  0  0
   10.5785  -18.7001   28.9336 O   0  0  0  0  0  0  0  0  0  0  0  0
  2  1  1  0
  2  3  2  0
  4  5  1  0
  4  2  1  0
  5  6  1  0
  6  7  1  1
  8  6  1  0
  8  9  2  0
 10 11  1  0
 11 12  1  0
 12 13  1  1
 12 14  1  0
 14 15  1  6
 14 16  1  0
 15  8  1  0
 16 20  1  0
 17 16  2  0
 19 18  1  6
 19 21  1  0
 20 19  1  0
 21 22  2  0
 21 23  1  0
M  END
$$$$
