QIA.pdb
     RDKit          3D

 23 22  0  0  1  0  0  0  0  0999 V2000
   10.8025  -20.1954   27.9786 N   0  0  0  0  0  0  0  0  0  0  0  0
    9.6539  -19.9739   28.7763 C   0  0  0  0  0  0  0  0  0  0  0  0
    9.1970  -20.9060   29.4636 O   0  0  0  0  0  0  0  0  0  0  0  0
    9.0212  -18.6521   28.7745 C   0  0  0  0  0  0  0  0  0  0  0  0
    8.6397  -18.2137   27.4082 C   0  0  0  0  0  0  0  0  0  0  0  0
    7.1812  -18.0345   27.2183 C   0  0  2  0  0  0  0  0  0  0  0  0
    6.3639  -19.1822   27.1153 N   0  0  0  0  0  0  0  0  0  0  0  0
    6.9783  -17.0590   26.1106 C   0  0  0  0  0  0  0  0  0  0  0  0
    6.3286  -17.4738   25.1080 O   0  0  0  0  0  0  0  0  0  0  0  0
    6.5033  -11.9577   27.2926 C   0  0  0  0  0  0  0  0  0  0  0  0
    6.0371  -13.0833   26.3916 C   0  0  0  0  0  0  0  0  0  0  0  0
    7.1636  -13.3849   25.4356 C   0  0  2  0  0  0  0  0  0  0  0  0
    7.1426  -12.4608   24.2306 C   0  0  0  0  0  0  0  0  0  0  0  0
    7.1834  -14.8211   24.9912 C   0  0  2  0  0  0  0  0  0  0  0  0
    7.4460  -15.7329   26.0931 N   0  0  0  0  0  0  0  0  0  0  0  0
    8.2630  -14.9437   23.9484 C   0  0  0  0  0  0  0  0  0  0  0  0
    8.1614  -14.3177   22.8630 O   0  0  0  0  0  0  0  0  0  0  0  0
   11.7035  -15.3004   23.3922 C   0  0  0  0  0  0  0  0  0  0  0  0
   10.3917  -16.0037   23.1176 C   0  0  2  0  0  0  0  0  0  0  0  0
    9.4102  -15.7486   24.1398 N   0  0  0  0  0  0  0  0  0  0  0  0
   10.5621  -17.4347   22.8235 C   0  0  0  0  0  0  0  0  0  0  0  0
    9.9336  -18.2766   23.4979 O   0  0  0  0  0  0  0  0  0  0  0  0
   11.3972  -17.8824   21.8222 O   0  0  0  0  0  0  0  0  0  0  0  0
  2  1  1  0
  2  3  2  0
  4  5  1  0
  4  2  1  0
  5  6  1  0
  6  7  1  6
  8  6  1  0
  8  9  2  0
 10 11  1  0
 11 12  1  0
 12 13  1  6
 12 14  1  0
 14 15  1  1
 14 16  1  0
 15  8  1  0
 16 20  1  0
 17 16  2  0
 19 18  1  1
 19 21  1  0
 20 19  1  0
 21 22  2  0
 21 23  1  0
M  END
$$$$
