QIA.pdb
     RDKit          3D

 23 22  0  0  1  0  0  0  0  0999 V2000
    7.8064  -18.7549   18.8180 N   0  0  0  0  0  0  0  0  0  0  0  0
    7.2219  -17.4795   19.0089 C   0  0  0  0  0  0  0  0  0  0  0  0
    7.4082  -16.5877   18.1605 O   0  0  0  0  0  0  0  0  0  0  0  0
    6.4117  -17.2315   20.2046 C   0  0  0  0  0  0  0  0  0  0  0  0
    7.2281  -16.7445   21.3452 C   0  0  0  0  0  0  0  0  0  0  0  0
    7.5323  -15.2954   21.2930 C   0  0  2  0  0  0  0  0  0  0  0  0
    8.1369  -14.7701   20.1292 N   0  0  0  0  0  0  0  0  0  0  0  0
    8.2443  -14.9296   22.5495 C   0  0  0  0  0  0  0  0  0  0  0  0
    9.4989  -14.7942   22.4659 O   0  0  0  0  0  0  0  0  0  0  0  0
    6.1359  -11.7082   26.3627 C   0  0  0  0  0  0  0  0  0  0  0  0
    7.1095  -12.3153   25.3729 C   0  0  0  0  0  0  0  0  0  0  0  0
    7.6235  -13.5958   25.9813 C   0  0  2  0  0  0  0  0  0  0  0  0
    8.4499  -13.3349   27.2284 C   0  0  0  0  0  0  0  0  0  0  0  0
    8.4019  -14.4343   25.0058 C   0  0  2  0  0  0  0  0  0  0  0  0
    7.6393  -14.7264   23.8027 N   0  0  0  0  0  0  0  0  0  0  0  0
    8.7618  -15.7133   25.7149 C   0  0  0  0  0  0  0  0  0  0  0  0
    7.8721  -16.3739   26.3084 O   0  0  0  0  0  0  0  0  0  0  0  0
   11.7332  -18.0301   25.8076 C   0  0  0  0  0  0  0  0  0  0  0  0
   10.4616  -17.4470   26.3856 C   0  0  2  0  0  0  0  0  0  0  0  0
   10.0841  -16.2148   25.7434 N   0  0  0  0  0  0  0  0  0  0  0  0
   10.4945  -17.3483   27.8527 C   0  0  0  0  0  0  0  0  0  0  0  0
   10.6732  -16.2340   28.3866 O   0  0  0  0  0  0  0  0  0  0  0  0
   10.3339  -18.4505   28.6649 O   0  0  0  0  0  0  0  0  0  0  0  0
  2  1  1  0
  2  3  2  0
  4  5  1  0
  4  2  1  0
  5  6  1  0
  6  7  1  6
  8  6  1  0
  8  9  2  0
 10 11  1  0
 11 12  1  0
 12 13  1  1
 12 14  1  0
 14 15  1  6
 14 16  1  0
 15  8  1  0
 16 20  1  0
 17 16  2  0
 19 18  1  6
 19 21  1  0
 20 19  1  0
 21 22  2  0
 21 23  1  0
M  END
$$$$
