WPV.pdb
     RDKit          3D

 29 31  0  0  1  0  0  0  0  0999 V2000
   18.5244   -8.2400  -12.8494 N   0  0  0  0  0  0  0  0  0  0  0  0
   19.1787   -7.5009  -13.8756 C   0  0  1  0  0  0  0  0  0  0  0  0
   18.7941   -8.0644  -15.2299 C   0  0  0  0  0  0  0  0  0  0  0  0
   19.1659   -9.4742  -15.3906 C   0  0  0  0  0  0  0  0  0  0  0  0
   18.4113  -10.5666  -15.0004 C   0  0  0  0  0  0  0  0  0  0  0  0
   19.0852  -11.6774  -15.3148 N   0  0  0  0  0  0  0  0  0  0  0  0
   20.2522  -11.3659  -15.8956 C   0  0  0  0  0  0  0  0  0  0  0  0
   21.3146  -12.1006  -16.4078 C   0  0  0  0  0  0  0  0  0  0  0  0
   22.4103  -11.4826  -16.9584 C   0  0  0  0  0  0  0  0  0  0  0  0
   22.4673  -10.0997  -17.0090 C   0  0  0  0  0  0  0  0  0  0  0  0
   21.4256   -9.3428  -16.5075 C   0  0  0  0  0  0  0  0  0  0  0  0
   20.3183   -9.9841  -15.9508 C   0  0  0  0  0  0  0  0  0  0  0  0
   19.0050   -6.0515  -13.8493 C   0  0  0  0  0  0  0  0  0  0  0  0
   17.8750   -5.5448  -13.6311 O   0  0  0  0  0  0  0  0  0  0  0  0
   20.0890   -5.1250  -14.0667 N   0  0  0  0  0  0  0  0  0  0  0  0
   21.4379   -5.5625  -14.2429 C   0  0  0  0  0  0  0  0  0  0  0  0
   22.3024   -4.3420  -14.2399 C   0  0  0  0  0  0  0  0  0  0  0  0
   21.3501   -3.2685  -14.6770 C   0  0  0  0  0  0  0  0  0  0  0  0
   20.0110   -3.7044  -14.1334 C   0  0  1  0  0  0  0  0  0  0  0  0
   18.9803   -3.1747  -15.0384 C   0  0  0  0  0  0  0  0  0  0  0  0
   18.6775   -3.7617  -16.0812 O   0  0  0  0  0  0  0  0  0  0  0  0
   15.5059   -2.7727  -15.0246 C   0  0  0  0  0  0  0  0  0  0  0  0
   15.9883   -1.3517  -14.9788 C   0  0  1  0  0  0  0  0  0  0  0  0
   15.9228   -0.8759  -13.5482 C   0  0  0  0  0  0  0  0  0  0  0  0
   17.3972   -1.2788  -15.5310 C   0  0  2  0  0  0  0  0  0  0  0  0
   18.3424   -1.9587  -14.6684 N   0  0  0  0  0  0  0  0  0  0  0  0
   17.8039    0.1104  -15.8205 C   0  0  0  0  0  0  0  0  0  0  0  0
   18.6220    0.7249  -15.1061 O   0  0  0  0  0  0  0  0  0  0  0  0
   17.2623    0.7495  -16.9157 O   0  0  0  0  0  0  0  0  0  0  0  0
  2  1  1  1
  3  2  1  0
  4  3  1  0
  4 12  1  0
  5  6  1  0
  5  4  2  0
  6  7  1  0
  7  8  2  0
  7 12  1  0
  8  9  1  0
  9 10  2  0
 11 10  1  0
 12 11  2  0
 13  2  1  0
 13 15  1  0
 14 13  2  0
 15 19  1  0
 16 15  1  0
 16 17  1  0
 17 18  1  0
 19 18  1  0
 19 20  1  6
 20 21  2  0
 23 22  1  1
 23 25  1  0
 24 23  1  0
 25 26  1  1
 26 20  1  0
 27 25  1  0
 28 27  2  0
 29 27  1  0
M  END
$$$$
