WPV.pdb
     RDKit          3D

 29 31  0  0  1  0  0  0  0  0999 V2000
   26.8963  -22.1119   -9.6624 N   0  0  0  0  0  0  0  0  0  0  0  0
   26.2048  -20.9241  -10.0346 C   0  0  1  0  0  0  0  0  0  0  0  0
   26.6471  -19.7797   -9.1432 C   0  0  0  0  0  0  0  0  0  0  0  0
   26.5701  -20.1034   -7.7146 C   0  0  0  0  0  0  0  0  0  0  0  0
   25.5383  -20.7773   -7.0852 C   0  0  0  0  0  0  0  0  0  0  0  0
   25.8327  -20.8775   -5.7851 N   0  0  0  0  0  0  0  0  0  0  0  0
   27.0142  -20.2991   -5.5287 C   0  0  0  0  0  0  0  0  0  0  0  0
   27.7837  -20.1150   -4.3864 C   0  0  0  0  0  0  0  0  0  0  0  0
   28.9907  -19.4623   -4.4363 C   0  0  0  0  0  0  0  0  0  0  0  0
   29.4595  -18.9738   -5.6445 C   0  0  0  0  0  0  0  0  0  0  0  0
   28.7161  -19.1419   -6.7971 C   0  0  0  0  0  0  0  0  0  0  0  0
   27.4911  -19.8072   -6.7318 C   0  0  0  0  0  0  0  0  0  0  0  0
   26.2741  -20.5412  -11.4417 C   0  0  0  0  0  0  0  0  0  0  0  0
   27.0906  -19.6670  -11.8292 O   0  0  0  0  0  0  0  0  0  0  0  0
   25.4322  -21.1238  -12.4581 N   0  0  0  0  0  0  0  0  0  0  0  0
   24.4483  -22.1142  -12.1531 C   0  0  0  0  0  0  0  0  0  0  0  0
   23.9177  -22.6255  -13.4547 C   0  0  0  0  0  0  0  0  0  0  0  0
   24.1789  -21.4782  -14.3851 C   0  0  0  0  0  0  0  0  0  0  0  0
   25.4379  -20.8371  -13.8532 C   0  0  1  0  0  0  0  0  0  0  0  0
   25.3797  -19.4094  -14.2004 C   0  0  0  0  0  0  0  0  0  0  0  0
   24.9391  -18.5727  -13.4070 O   0  0  0  0  0  0  0  0  0  0  0  0
   27.2715  -15.8159  -16.8245 C   0  0  0  0  0  0  0  0  0  0  0  0
   27.2993  -17.2117  -16.2719 C   0  0  1  0  0  0  0  0  0  0  0  0
   28.2036  -17.2240  -15.0639 C   0  0  0  0  0  0  0  0  0  0  0  0
   25.8901  -17.6447  -15.9233 C   0  0  2  0  0  0  0  0  0  0  0  0
   25.8508  -19.0257  -15.4861 N   0  0  0  0  0  0  0  0  0  0  0  0
   24.9443  -17.3804  -17.0255 C   0  0  0  0  0  0  0  0  0  0  0  0
   24.8956  -18.0986  -18.0448 O   0  0  0  0  0  0  0  0  0  0  0  0
   24.0870  -16.3050  -16.9252 O   0  0  0  0  0  0  0  0  0  0  0  0
  2  1  1  6
  3  2  1  0
  4  3  1  0
  4 12  1  0
  5  6  1  0
  5  4  2  0
  6  7  1  0
  7  8  2  0
  7 12  1  0
  8  9  1  0
  9 10  2  0
 11 10  1  0
 12 11  2  0
 13  2  1  0
 13 15  1  0
 14 13  2  0
 15 19  1  0
 16 15  1  0
 16 17  1  0
 17 18  1  0
 19 18  1  0
 19 20  1  1
 20 21  2  0
 23 22  1  1
 23 25  1  0
 24 23  1  0
 25 26  1  6
 26 20  1  0
 27 25  1  0
 28 27  2  0
 29 27  1  0
M  END
$$$$
