WPV.pdb
     RDKit          3D

 29 31  0  0  1  0  0  0  0  0999 V2000
   24.1928  -22.0522  -12.6887 N   0  0  0  0  0  0  0  0  0  0  0  0
   25.1323  -21.0750  -12.2531 C   0  0  1  0  0  0  0  0  0  0  0  0
   24.4407  -19.7323  -12.1167 C   0  0  0  0  0  0  0  0  0  0  0  0
   24.0066  -19.1780  -13.4035 C   0  0  0  0  0  0  0  0  0  0  0  0
   22.7093  -19.1511  -13.8843 C   0  0  0  0  0  0  0  0  0  0  0  0
   22.7184  -18.5674  -15.0868 N   0  0  0  0  0  0  0  0  0  0  0  0
   23.9655  -18.2077  -15.4210 C   0  0  0  0  0  0  0  0  0  0  0  0
   24.5398  -17.5837  -16.5217 C   0  0  0  0  0  0  0  0  0  0  0  0
   25.8900  -17.3409  -16.5808 C   0  0  0  0  0  0  0  0  0  0  0  0
   26.7044  -17.7217  -15.5274 C   0  0  0  0  0  0  0  0  0  0  0  0
   26.1615  -18.3442  -14.4195 C   0  0  0  0  0  0  0  0  0  0  0  0
   24.7877  -18.5847  -14.3729 C   0  0  0  0  0  0  0  0  0  0  0  0
   25.8923  -21.3911  -11.0472 C   0  0  0  0  0  0  0  0  0  0  0  0
   25.3077  -21.7797  -10.0040 O   0  0  0  0  0  0  0  0  0  0  0  0
   27.3287  -21.2817  -10.9711 N   0  0  0  0  0  0  0  0  0  0  0  0
   28.1357  -21.0594  -12.1293 C   0  0  0  0  0  0  0  0  0  0  0  0
   29.5634  -21.2018  -11.7072 C   0  0  0  0  0  0  0  0  0  0  0  0
   29.5017  -20.8873  -10.2418 C   0  0  0  0  0  0  0  0  0  0  0  0
   28.1417  -21.3759   -9.8055 C   0  0  1  0  0  0  0  0  0  0  0  0
   27.7185  -20.5348   -8.6760 C   0  0  0  0  0  0  0  0  0  0  0  0
   27.0600  -19.5058   -8.8525 O   0  0  0  0  0  0  0  0  0  0  0  0
   29.5690  -21.1726   -4.8173 C   0  0  0  0  0  0  0  0  0  0  0  0
   28.0866  -20.9574   -4.9186 C   0  0  1  0  0  0  0  0  0  0  0  0
   27.6304  -20.2199   -3.6835 C   0  0  0  0  0  0  0  0  0  0  0  0
   27.7741  -20.1832   -6.1828 C   0  0  2  0  0  0  0  0  0  0  0  0
   28.0956  -20.9503   -7.3693 N   0  0  0  0  0  0  0  0  0  0  0  0
   28.4147  -18.8533   -6.1865 C   0  0  0  0  0  0  0  0  0  0  0  0
   29.5005  -18.6413   -6.7638 O   0  0  0  0  0  0  0  0  0  0  0  0
   27.7930  -17.8117   -5.5308 O   0  0  0  0  0  0  0  0  0  0  0  0
  2  1  1  1
  3  2  1  0
  4  3  1  0
  4 12  1  0
  5  6  1  0
  5  4  2  0
  6  7  1  0
  7  8  2  0
  7 12  1  0
  8  9  1  0
  9 10  2  0
 11 10  1  0
 12 11  2  0
 13  2  1  0
 13 15  1  0
 14 13  2  0
 15 19  1  0
 16 15  1  0
 16 17  1  0
 17 18  1  0
 19 18  1  0
 19 20  1  1
 20 21  2  0
 23 22  1  1
 23 25  1  0
 24 23  1  0
 25 26  1  6
 26 20  1  0
 27 25  1  0
 28 27  2  0
 29 27  1  0
M  END
$$$$
