WPV.pdb
     RDKit          3D

 29 31  0  0  1  0  0  0  0  0999 V2000
   25.0162  -22.1137  -13.0825 N   0  0  0  0  0  0  0  0  0  0  0  0
   25.0379  -21.1771  -12.0102 C   0  0  1  0  0  0  0  0  0  0  0  0
   23.6234  -20.9347  -11.5202 C   0  0  0  0  0  0  0  0  0  0  0  0
   22.7354  -20.4169  -12.5666 C   0  0  0  0  0  0  0  0  0  0  0  0
   22.7449  -20.7850  -13.9005 C   0  0  0  0  0  0  0  0  0  0  0  0
   21.7905  -20.0958  -14.5339 N   0  0  0  0  0  0  0  0  0  0  0  0
   21.1511  -19.2886  -13.6760 C   0  0  0  0  0  0  0  0  0  0  0  0
   20.1075  -18.3778  -13.7856 C   0  0  0  0  0  0  0  0  0  0  0  0
   19.6549  -17.6762  -12.6955 C   0  0  0  0  0  0  0  0  0  0  0  0
   20.2437  -17.8730  -11.4575 C   0  0  0  0  0  0  0  0  0  0  0  0
   21.2836  -18.7723  -11.3180 C   0  0  0  0  0  0  0  0  0  0  0  0
   21.7334  -19.4786  -12.4344 C   0  0  0  0  0  0  0  0  0  0  0  0
   25.9276  -21.4825  -10.8936 C   0  0  0  0  0  0  0  0  0  0  0  0
   25.4815  -22.0130   -9.8445 O   0  0  0  0  0  0  0  0  0  0  0  0
   27.3428  -21.2035  -10.9161 N   0  0  0  0  0  0  0  0  0  0  0  0
   28.0399  -20.9109  -12.1287 C   0  0  0  0  0  0  0  0  0  0  0  0
   29.4991  -20.8762  -11.8024 C   0  0  0  0  0  0  0  0  0  0  0  0
   29.4969  -20.5421  -10.3400 C   0  0  0  0  0  0  0  0  0  0  0  0
   28.2360  -21.1785   -9.8070 C   0  0  1  0  0  0  0  0  0  0  0  0
   27.7912  -20.3708   -8.6616 C   0  0  0  0  0  0  0  0  0  0  0  0
   26.9975  -19.4362   -8.8040 O   0  0  0  0  0  0  0  0  0  0  0  0
   27.3228  -21.9888   -5.0463 C   0  0  0  0  0  0  0  0  0  0  0  0
   28.1690  -20.7537   -4.9339 C   0  0  1  0  0  0  0  0  0  0  0  0
   29.5990  -21.1792   -4.7073 C   0  0  0  0  0  0  0  0  0  0  0  0
   28.0223  -19.9250   -6.1936 C   0  0  2  0  0  0  0  0  0  0  0  0
   28.3092  -20.7056   -7.3802 N   0  0  0  0  0  0  0  0  0  0  0  0
   28.8218  -18.6854   -6.1334 C   0  0  0  0  0  0  0  0  0  0  0  0
   29.7857  -18.4796   -6.8986 O   0  0  0  0  0  0  0  0  0  0  0  0
   28.4925  -17.7241   -5.2013 O   0  0  0  0  0  0  0  0  0  0  0  0
  2  1  1  6
  3  2  1  0
  4  3  1  0
  4 12  1  0
  5  6  1  0
  5  4  2  0
  6  7  1  0
  7  8  2  0
  7 12  1  0
  8  9  1  0
  9 10  2  0
 11 10  1  0
 12 11  2  0
 13  2  1  0
 13 15  1  0
 14 13  2  0
 15 19  1  0
 16 15  1  0
 16 17  1  0
 17 18  1  0
 19 18  1  0
 19 20  1  1
 20 21  2  0
 23 22  1  6
 23 25  1  0
 24 23  1  0
 25 26  1  6
 26 20  1  0
 27 25  1  0
 28 27  2  0
 29 27  1  0
M  END
$$$$
