WPV.pdb
     RDKit          3D

 29 31  0  0  1  0  0  0  0  0999 V2000
   23.5863  -21.0411  -15.4488 N   0  0  0  0  0  0  0  0  0  0  0  0
   24.2350  -20.1834  -14.5155 C   0  0  1  0  0  0  0  0  0  0  0  0
   23.2127  -19.2619  -13.8786 C   0  0  0  0  0  0  0  0  0  0  0  0
   22.6129  -18.3241  -14.8337 C   0  0  0  0  0  0  0  0  0  0  0  0
   21.3396  -18.4075  -15.3689 C   0  0  0  0  0  0  0  0  0  0  0  0
   21.1624  -17.3728  -16.1965 N   0  0  0  0  0  0  0  0  0  0  0  0
   22.2636  -16.6096  -16.2309 C   0  0  0  0  0  0  0  0  0  0  0  0
   22.6247  -15.4463  -16.8995 C   0  0  0  0  0  0  0  0  0  0  0  0
   23.8637  -14.8797  -16.7282 C   0  0  0  0  0  0  0  0  0  0  0  0
   24.7791  -15.4719  -15.8741 C   0  0  0  0  0  0  0  0  0  0  0  0
   24.4482  -16.6294  -15.1957 C   0  0  0  0  0  0  0  0  0  0  0  0
   23.1854  -17.1943  -15.3793 C   0  0  0  0  0  0  0  0  0  0  0  0
   25.0564  -20.8293  -13.4960 C   0  0  0  0  0  0  0  0  0  0  0  0
   24.5439  -21.6264  -12.6695 O   0  0  0  0  0  0  0  0  0  0  0  0
   26.4755  -20.6031  -13.3693 N   0  0  0  0  0  0  0  0  0  0  0  0
   27.2744  -20.1580  -14.4673 C   0  0  0  0  0  0  0  0  0  0  0  0
   28.7033  -20.2271  -14.0308 C   0  0  0  0  0  0  0  0  0  0  0  0
   28.5929  -20.1164  -12.5389 C   0  0  0  0  0  0  0  0  0  0  0  0
   27.2777  -20.7781  -12.2054 C   0  0  1  0  0  0  0  0  0  0  0  0
   26.7635  -20.1354  -10.9869 C   0  0  0  0  0  0  0  0  0  0  0  0
   26.2062  -19.0347  -11.0272 O   0  0  0  0  0  0  0  0  0  0  0  0
   24.2748  -21.0121   -8.8324 C   0  0  0  0  0  0  0  0  0  0  0  0
   25.4033  -20.9454   -7.8443 C   0  0  1  0  0  0  0  0  0  0  0  0
   25.7470  -22.3532   -7.4233 C   0  0  0  0  0  0  0  0  0  0  0  0
   26.5873  -20.2432   -8.4769 C   0  0  2  0  0  0  0  0  0  0  0  0
   26.9313  -20.8290   -9.7568 N   0  0  0  0  0  0  0  0  0  0  0  0
   27.7440  -20.1814   -7.5617 C   0  0  0  0  0  0  0  0  0  0  0  0
   28.7675  -20.8731   -7.7381 O   0  0  0  0  0  0  0  0  0  0  0  0
   27.6914  -19.3317   -6.4770 O   0  0  0  0  0  0  0  0  0  0  0  0
  2  1  1  1
  3  2  1  0
  4  3  1  0
  4 12  1  0
  5  6  1  0
  5  4  2  0
  6  7  1  0
  7  8  2  0
  7 12  1  0
  8  9  1  0
  9 10  2  0
 11 10  1  0
 12 11  2  0
 13  2  1  0
 13 15  1  0
 14 13  2  0
 15 19  1  0
 16 15  1  0
 16 17  1  0
 17 18  1  0
 19 18  1  0
 19 20  1  1
 20 21  2  0
 23 22  1  6
 23 25  1  0
 24 23  1  0
 25 26  1  6
 26 20  1  0
 27 25  1  0
 28 27  2  0
 29 27  1  0
M  END
$$$$
