WPV.pdb
     RDKit          3D

 29 31  0  0  1  0  0  0  0  0999 V2000
   24.7781  -21.3035  -13.9177 N   0  0  0  0  0  0  0  0  0  0  0  0
   25.8197  -20.5635  -13.2894 C   0  0  1  0  0  0  0  0  0  0  0  0
   25.4363  -19.0973  -13.2321 C   0  0  0  0  0  0  0  0  0  0  0  0
   25.4748  -18.4433  -14.5444 C   0  0  0  0  0  0  0  0  0  0  0  0
   24.3808  -18.0078  -15.2714 C   0  0  0  0  0  0  0  0  0  0  0  0
   24.8217  -17.4665  -16.4114 N   0  0  0  0  0  0  0  0  0  0  0  0
   26.1594  -17.5257  -16.4688 C   0  0  0  0  0  0  0  0  0  0  0  0
   27.1155  -17.1257  -17.3943 C   0  0  0  0  0  0  0  0  0  0  0  0
   28.4551  -17.3265  -17.1690 C   0  0  0  0  0  0  0  0  0  0  0  0
   28.8719  -17.9392  -15.9989 C   0  0  0  0  0  0  0  0  0  0  0  0
   27.9438  -18.3477  -15.0601 C   0  0  0  0  0  0  0  0  0  0  0  0
   26.5857  -18.1373  -15.3021 C   0  0  0  0  0  0  0  0  0  0  0  0
   26.2584  -21.0357  -11.9794 C   0  0  0  0  0  0  0  0  0  0  0  0
   25.4197  -21.3473  -11.0960 O   0  0  0  0  0  0  0  0  0  0  0  0
   27.6481  -21.1733  -11.6175 N   0  0  0  0  0  0  0  0  0  0  0  0
   28.6936  -21.1347  -12.5908 C   0  0  0  0  0  0  0  0  0  0  0  0
   29.9624  -21.5064  -11.8915 C   0  0  0  0  0  0  0  0  0  0  0  0
   29.6697  -21.1344  -10.4680 C   0  0  0  0  0  0  0  0  0  0  0  0
   28.1859  -21.3651  -10.3127 C   0  0  1  0  0  0  0  0  0  0  0  0
   27.7035  -20.4242   -9.2908 C   0  0  0  0  0  0  0  0  0  0  0  0
   27.2864  -19.3032   -9.5954 O   0  0  0  0  0  0  0  0  0  0  0  0
   25.0306  -20.5398   -7.1700 C   0  0  0  0  0  0  0  0  0  0  0  0
   26.1207  -20.4013   -6.1469 C   0  0  1  0  0  0  0  0  0  0  0  0
   26.2766  -21.7253   -5.4398 C   0  0  0  0  0  0  0  0  0  0  0  0
   27.4036  -19.9752   -6.8308 C   0  0  2  0  0  0  0  0  0  0  0  0
   27.7345  -20.8530   -7.9353 N   0  0  0  0  0  0  0  0  0  0  0  0
   28.5186  -19.8375   -5.8732 C   0  0  0  0  0  0  0  0  0  0  0  0
   29.4783  -20.6347   -5.8529 O   0  0  0  0  0  0  0  0  0  0  0  0
   28.4985  -18.7940   -4.9719 O   0  0  0  0  0  0  0  0  0  0  0  0
  2  1  1  1
  3  2  1  0
  4  3  1  0
  4 12  1  0
  5  6  1  0
  5  4  2  0
  6  7  1  0
  7  8  2  0
  7 12  1  0
  8  9  1  0
  9 10  2  0
 11 10  1  0
 12 11  2  0
 13  2  1  0
 13 15  1  0
 14 13  2  0
 15 19  1  0
 16 15  1  0
 16 17  1  0
 17 18  1  0
 19 18  1  0
 19 20  1  1
 20 21  2  0
 23 22  1  6
 23 25  1  0
 24 23  1  0
 25 26  1  6
 26 20  1  0
 27 25  1  0
 28 27  2  0
 29 27  1  0
M  END
$$$$
