WPV.pdb
     RDKit          3D

 29 31  0  0  1  0  0  0  0  0999 V2000
   23.2632  -13.0730  -18.1572 N   0  0  0  0  0  0  0  0  0  0  0  0
   23.8179  -12.5035  -16.9760 C   0  0  1  0  0  0  0  0  0  0  0  0
   25.2785  -12.1703  -17.2116 C   0  0  0  0  0  0  0  0  0  0  0  0
   26.1089  -13.3589  -17.4330 C   0  0  0  0  0  0  0  0  0  0  0  0
   25.6681  -14.5887  -17.8893 C   0  0  0  0  0  0  0  0  0  0  0  0
   26.7185  -15.4125  -17.9595 N   0  0  0  0  0  0  0  0  0  0  0  0
   27.8339  -14.7801  -17.5695 C   0  0  0  0  0  0  0  0  0  0  0  0
   29.1698  -15.1424  -17.4474 C   0  0  0  0  0  0  0  0  0  0  0  0
   30.1144  -14.2487  -17.0066 C   0  0  0  0  0  0  0  0  0  0  0  0
   29.7385  -12.9578  -16.6744 C   0  0  0  0  0  0  0  0  0  0  0  0
   28.4171  -12.5688  -16.7856 C   0  0  0  0  0  0  0  0  0  0  0  0
   27.4677  -13.4875  -17.2350 C   0  0  0  0  0  0  0  0  0  0  0  0
   23.1109  -11.3596  -16.4076 C   0  0  0  0  0  0  0  0  0  0  0  0
   22.6949  -10.4309  -17.1465 O   0  0  0  0  0  0  0  0  0  0  0  0
   22.8479  -11.2190  -14.9962 N   0  0  0  0  0  0  0  0  0  0  0  0
   23.2112  -12.2283  -14.0520 C   0  0  0  0  0  0  0  0  0  0  0  0
   22.6133  -11.8394  -12.7374 C   0  0  0  0  0  0  0  0  0  0  0  0
   22.4761  -10.3515  -12.8705 C   0  0  0  0  0  0  0  0  0  0  0  0
   22.2161  -10.1241  -14.3400 C   0  0  1  0  0  0  0  0  0  0  0  0
   22.7523   -8.7970  -14.6768 C   0  0  0  0  0  0  0  0  0  0  0  0
   23.9147   -8.6536  -15.0665 O   0  0  0  0  0  0  0  0  0  0  0  0
   22.2212   -6.7546  -17.2689 C   0  0  0  0  0  0  0  0  0  0  0  0
   21.7259   -5.8597  -16.1698 C   0  0  1  0  0  0  0  0  0  0  0  0
   20.2172   -5.8939  -16.1758 C   0  0  0  0  0  0  0  0  0  0  0  0
   22.2931   -6.3264  -14.8448 C   0  0  2  0  0  0  0  0  0  0  0  0
   21.8815   -7.6813  -14.5377 N   0  0  0  0  0  0  0  0  0  0  0  0
   21.9810   -5.3859  -13.7505 C   0  0  0  0  0  0  0  0  0  0  0  0
   21.1277   -5.6436  -12.8772 O   0  0  0  0  0  0  0  0  0  0  0  0
   22.6544   -4.1841  -13.6917 O   0  0  0  0  0  0  0  0  0  0  0  0
  2  1  1  6
  3  2  1  0
  4  3  1  0
  4 12  1  0
  5  6  1  0
  5  4  2  0
  6  7  1  0
  7  8  2  0
  7 12  1  0
  8  9  1  0
  9 10  2  0
 11 10  1  0
 12 11  2  0
 13  2  1  0
 13 15  1  0
 14 13  2  0
 15 19  1  0
 16 15  1  0
 16 17  1  0
 17 18  1  0
 19 18  1  0
 19 20  1  6
 20 21  2  0
 23 22  1  6
 23 25  1  0
 24 23  1  0
 25 26  1  1
 26 20  1  0
 27 25  1  0
 28 27  2  0
 29 27  1  0
M  END
$$$$
