WPV.pdb
     RDKit          3D

 29 31  0  0  1  0  0  0  0  0999 V2000
   26.5826  -17.8680   -9.4544 N   0  0  0  0  0  0  0  0  0  0  0  0
   26.8306  -19.2305   -9.7852 C   0  0  1  0  0  0  0  0  0  0  0  0
   26.7479  -20.0796   -8.5314 C   0  0  0  0  0  0  0  0  0  0  0  0
   27.5093  -19.5204   -7.4094 C   0  0  0  0  0  0  0  0  0  0  0  0
   28.0893  -18.2648   -7.3622 C   0  0  0  0  0  0  0  0  0  0  0  0
   28.6931  -18.1246   -6.1779 N   0  0  0  0  0  0  0  0  0  0  0  0
   28.5371  -19.2331   -5.4409 C   0  0  0  0  0  0  0  0  0  0  0  0
   28.9426  -19.6267   -4.1715 C   0  0  0  0  0  0  0  0  0  0  0  0
   28.6211  -20.8643   -3.6710 C   0  0  0  0  0  0  0  0  0  0  0  0
   27.8781  -21.7454   -4.4390 C   0  0  0  0  0  0  0  0  0  0  0  0
   27.4609  -21.3817   -5.7052 C   0  0  0  0  0  0  0  0  0  0  0  0
   27.7948  -20.1208   -6.2011 C   0  0  0  0  0  0  0  0  0  0  0  0
   26.0154  -19.8026  -10.8529 C   0  0  0  0  0  0  0  0  0  0  0  0
   24.7657  -19.6638  -10.8502 O   0  0  0  0  0  0  0  0  0  0  0  0
   26.5728  -20.5475  -11.9553 N   0  0  0  0  0  0  0  0  0  0  0  0
   27.9592  -20.8883  -12.0176 C   0  0  0  0  0  0  0  0  0  0  0  0
   28.2106  -21.4713  -13.3718 C   0  0  0  0  0  0  0  0  0  0  0  0
   26.8565  -21.9874  -13.7597 C   0  0  0  0  0  0  0  0  0  0  0  0
   25.8853  -21.0365  -13.1028 C   0  0  1  0  0  0  0  0  0  0  0  0
   24.6566  -21.7940  -12.8223 C   0  0  0  0  0  0  0  0  0  0  0  0
   24.5779  -22.5548  -11.8535 O   0  0  0  0  0  0  0  0  0  0  0  0
   21.7181  -19.4815  -12.9322 C   0  0  0  0  0  0  0  0  0  0  0  0
   21.7038  -20.8461  -12.3061 C   0  0  1  0  0  0  0  0  0  0  0  0
   20.2978  -21.1389  -11.8426 C   0  0  0  0  0  0  0  0  0  0  0  0
   22.1876  -21.8688  -13.3136 C   0  0  2  0  0  0  0  0  0  0  0  0
   23.5589  -21.6183  -13.7091 N   0  0  0  0  0  0  0  0  0  0  0  0
   21.2809  -21.9701  -14.4742 C   0  0  0  0  0  0  0  0  0  0  0  0
   20.1534  -22.4984  -14.3914 O   0  0  0  0  0  0  0  0  0  0  0  0
   21.6935  -21.4644  -15.6889 O   0  0  0  0  0  0  0  0  0  0  0  0
  2  1  1  1
  3  2  1  0
  4  3  1  0
  4 12  1  0
  5  6  1  0
  5  4  2  0
  6  7  1  0
  7  8  2  0
  7 12  1  0
  8  9  1  0
  9 10  2  0
 11 10  1  0
 12 11  2  0
 13  2  1  0
 13 15  1  0
 14 13  2  0
 15 19  1  0
 16 15  1  0
 16 17  1  0
 17 18  1  0
 19 18  1  0
 19 20  1  1
 20 21  2  0
 23 22  1  6
 23 25  1  0
 24 23  1  0
 25 26  1  6
 26 20  1  0
 27 25  1  0
 28 27  2  0
 29 27  1  0
M  END
$$$$
