NQN.pdb
     RDKit          3D

 26 25  0  0  1  0  0  0  0  0999 V2000
   16.2186  -12.0081  -15.6601 N   0  0  0  0  0  0  0  0  0  0  0  0
   17.4625  -12.5267  -15.2607 C   0  0  0  0  0  0  0  0  0  0  0  0
   17.5021  -13.6700  -14.7372 O   0  0  0  0  0  0  0  0  0  0  0  0
   18.7488  -11.8117  -15.4150 C   0  0  0  0  0  0  0  0  0  0  0  0
   18.5611  -10.4151  -15.9567 C   0  0  2  0  0  0  0  0  0  0  0  0
   18.1515  -10.3927  -17.3231 N   0  0  0  0  0  0  0  0  0  0  0  0
   19.8679   -9.6914  -15.7633 C   0  0  0  0  0  0  0  0  0  0  0  0
   20.3308   -9.4828  -14.6137 O   0  0  0  0  0  0  0  0  0  0  0  0
   24.3892   -9.2866  -20.0537 N   0  0  0  0  0  0  0  0  0  0  0  0
   23.9088  -10.4424  -19.3810 C   0  0  0  0  0  0  0  0  0  0  0  0
   24.2208  -11.5571  -19.8066 O   0  0  0  0  0  0  0  0  0  0  0  0
   23.0313  -10.3366  -18.1659 C   0  0  0  0  0  0  0  0  0  0  0  0
   22.8126   -8.8930  -17.8800 C   0  0  0  0  0  0  0  0  0  0  0  0
   21.9299   -8.5713  -16.7220 C   0  0  2  0  0  0  0  0  0  0  0  0
   20.6157   -9.2234  -16.8766 N   0  0  0  0  0  0  0  0  0  0  0  0
   21.7655   -7.1418  -16.4597 C   0  0  0  0  0  0  0  0  0  0  0  0
   21.4522   -6.3434  -17.3632 O   0  0  0  0  0  0  0  0  0  0  0  0
   21.0166   -2.5514  -14.2698 N   0  0  0  0  0  0  0  0  0  0  0  0
   20.0346   -3.4406  -14.7853 C   0  0  0  0  0  0  0  0  0  0  0  0
   18.8678   -3.0352  -14.9422 O   0  0  0  0  0  0  0  0  0  0  0  0
   20.4153   -4.8169  -15.1220 C   0  0  0  0  0  0  0  0  0  0  0  0
   21.8546   -5.1720  -14.8666 C   0  0  2  0  0  0  0  0  0  0  0  0
   21.9621   -6.6256  -15.1521 N   0  0  0  0  0  0  0  0  0  0  0  0
   22.1360   -4.9846  -13.4124 C   0  0  0  0  0  0  0  0  0  0  0  0
   22.2307   -6.0400  -12.5307 O   0  0  0  0  0  0  0  0  0  0  0  0
   22.2893   -3.7852  -12.9991 O   0  0  0  0  0  0  0  0  0  0  0  0
  2  1  1  0
  2  3  2  0
  4  2  1  0
  5  7  1  0
  5  4  1  0
  5  6  1  6
  7  8  2  0
  9 10  1  0
 10 12  1  0
 11 10  2  0
 12 13  1  0
 14 13  1  6
 15  7  1  0
 15 14  1  0
 16 17  2  0
 16 14  1  0
 19 18  1  0
 19 21  1  0
 20 19  2  0
 22 21  1  1
 22 23  1  0
 23 16  1  0
 24 25  1  0
 24 22  1  0
 26 24  2  0
M  END
$$$$
