NQN.pdb
     RDKit          3D

 26 25  0  0  1  0  0  0  0  0999 V2000
   28.1461  -21.6726  -11.3553 N   0  0  0  0  0  0  0  0  0  0  0  0
   27.6971  -21.0214  -12.5172 C   0  0  0  0  0  0  0  0  0  0  0  0
   28.4695  -20.9486  -13.5076 O   0  0  0  0  0  0  0  0  0  0  0  0
   26.3591  -20.4058  -12.6600 C   0  0  0  0  0  0  0  0  0  0  0  0
   25.3856  -21.3194  -13.3648 C   0  0  2  0  0  0  0  0  0  0  0  0
   25.8264  -21.7168  -14.6622 N   0  0  0  0  0  0  0  0  0  0  0  0
   24.0700  -20.5889  -13.4318 C   0  0  0  0  0  0  0  0  0  0  0  0
   23.4327  -20.3019  -12.3874 O   0  0  0  0  0  0  0  0  0  0  0  0
   22.1296  -17.3068  -18.3357 N   0  0  0  0  0  0  0  0  0  0  0  0
   20.9762  -17.1953  -17.5132 C   0  0  0  0  0  0  0  0  0  0  0  0
   20.0629  -16.4425  -17.8598 O   0  0  0  0  0  0  0  0  0  0  0  0
   20.8454  -17.9723  -16.2337 C   0  0  0  0  0  0  0  0  0  0  0  0
   22.1215  -18.7025  -16.0058 C   0  0  0  0  0  0  0  0  0  0  0  0
   22.1922  -19.5501  -14.7809 C   0  0  2  0  0  0  0  0  0  0  0  0
   23.5111  -20.2031  -14.6793 N   0  0  0  0  0  0  0  0  0  0  0  0
   21.1202  -20.5379  -14.6607 C   0  0  0  0  0  0  0  0  0  0  0  0
   21.2979  -21.7347  -14.9578 O   0  0  0  0  0  0  0  0  0  0  0  0
   17.0522  -22.9442  -12.5514 N   0  0  0  0  0  0  0  0  0  0  0  0
   18.2593  -22.6220  -11.8734 C   0  0  0  0  0  0  0  0  0  0  0  0
   18.4955  -23.1446  -10.7682 O   0  0  0  0  0  0  0  0  0  0  0  0
   19.2018  -21.6811  -12.4889 C   0  0  0  0  0  0  0  0  0  0  0  0
   18.8024  -21.1546  -13.8402 C   0  0  2  0  0  0  0  0  0  0  0  0
   19.8362  -20.1495  -14.1967 N   0  0  0  0  0  0  0  0  0  0  0  0
   17.5070  -20.4259  -13.6987 C   0  0  0  0  0  0  0  0  0  0  0  0
   16.3004  -21.0753  -13.5485 O   0  0  0  0  0  0  0  0  0  0  0  0
   17.5519  -19.1490  -13.7228 O   0  0  0  0  0  0  0  0  0  0  0  0
  2  1  1  0
  2  3  2  0
  4  2  1  0
  5  7  1  0
  5  4  1  0
  5  6  1  6
  7  8  2  0
  9 10  1  0
 10 12  1  0
 11 10  2  0
 12 13  1  0
 14 13  1  6
 15  7  1  0
 15 14  1  0
 16 17  2  0
 16 14  1  0
 19 18  1  0
 19 21  1  0
 20 19  2  0
 22 21  1  1
 22 23  1  0
 23 16  1  0
 24 25  1  0
 24 22  1  0
 26 24  2  0
M  END
$$$$
