NQN.pdb
     RDKit          3D

 26 25  0  0  1  0  0  0  0  0999 V2000
   23.0718  -11.3892  -16.4171 N   0  0  0  0  0  0  0  0  0  0  0  0
   22.0531  -11.9200  -17.2272 C   0  0  0  0  0  0  0  0  0  0  0  0
   22.3391  -12.8427  -18.0331 O   0  0  0  0  0  0  0  0  0  0  0  0
   20.6460  -11.4631  -17.1984 C   0  0  0  0  0  0  0  0  0  0  0  0
   20.4286  -10.3555  -16.1959 C   0  0  2  0  0  0  0  0  0  0  0  0
   20.6615  -10.7632  -14.8486 N   0  0  0  0  0  0  0  0  0  0  0  0
   19.0170   -9.8649  -16.3849 C   0  0  0  0  0  0  0  0  0  0  0  0
   18.6364   -9.3897  -17.4842 O   0  0  0  0  0  0  0  0  0  0  0  0
   13.6010  -12.1948  -15.5086 N   0  0  0  0  0  0  0  0  0  0  0  0
   14.4392  -12.2209  -14.3614 C   0  0  0  0  0  0  0  0  0  0  0  0
   14.1592  -12.9809  -13.4313 O   0  0  0  0  0  0  0  0  0  0  0  0
   15.6558  -11.3452  -14.2569 C   0  0  0  0  0  0  0  0  0  0  0  0
   15.7042  -10.4782  -15.4649 C   0  0  0  0  0  0  0  0  0  0  0  0
   16.7106   -9.3778  -15.4530 C   0  0  2  0  0  0  0  0  0  0  0  0
   18.0743   -9.9255  -15.3242 N   0  0  0  0  0  0  0  0  0  0  0  0
   16.4744   -8.3469  -14.4426 C   0  0  0  0  0  0  0  0  0  0  0  0
   15.3939   -7.7301  -14.3784 O   0  0  0  0  0  0  0  0  0  0  0  0
   17.4462   -5.1019  -10.3819 N   0  0  0  0  0  0  0  0  0  0  0  0
   17.6163   -6.4838  -10.0953 C   0  0  0  0  0  0  0  0  0  0  0  0
   17.8234   -6.8414   -8.9207 O   0  0  0  0  0  0  0  0  0  0  0  0
   17.5445   -7.4599  -11.1881 C   0  0  0  0  0  0  0  0  0  0  0  0
   17.3329   -6.8817  -12.5606 C   0  0  2  0  0  0  0  0  0  0  0  0
   17.4848   -8.0220  -13.5001 N   0  0  0  0  0  0  0  0  0  0  0  0
   18.4418   -5.9233  -12.8450 C   0  0  0  0  0  0  0  0  0  0  0  0
   19.4259   -6.1788  -13.7759 O   0  0  0  0  0  0  0  0  0  0  0  0
   18.4518   -4.8313  -12.1813 O   0  0  0  0  0  0  0  0  0  0  0  0
  2  1  1  0
  2  3  2  0
  4  2  1  0
  5  7  1  0
  5  4  1  0
  5  6  1  1
  7  8  2  0
  9 10  1  0
 10 12  1  0
 11 10  2  0
 12 13  1  0
 14 13  1  1
 15  7  1  0
 15 14  1  0
 16 17  2  0
 16 14  1  0
 19 18  1  0
 19 21  1  0
 20 19  2  0
 22 21  1  1
 22 23  1  0
 23 16  1  0
 24 25  1  0
 24 22  1  0
 26 24  2  0
M  END
$$$$
