NQN.pdb
     RDKit          3D

 26 25  0  0  1  0  0  0  0  0999 V2000
   13.6705  -13.9971  -10.1145 N   0  0  0  0  0  0  0  0  0  0  0  0
   14.7020  -13.6614  -11.0084 C   0  0  0  0  0  0  0  0  0  0  0  0
   15.3692  -14.5870  -11.5383 O   0  0  0  0  0  0  0  0  0  0  0  0
   15.0641  -12.2746  -11.3758 C   0  0  0  0  0  0  0  0  0  0  0  0
   14.2322  -11.2550  -10.6358 C   0  0  2  0  0  0  0  0  0  0  0  0
   12.8486  -11.3017  -10.9804 N   0  0  0  0  0  0  0  0  0  0  0  0
   14.8274   -9.9041  -10.9351 C   0  0  0  0  0  0  0  0  0  0  0  0
   14.7362   -9.3934  -12.0797 O   0  0  0  0  0  0  0  0  0  0  0  0
   15.4794   -5.0868   -7.0395 N   0  0  0  0  0  0  0  0  0  0  0  0
   14.3198   -5.4075   -7.7956 C   0  0  0  0  0  0  0  0  0  0  0  0
   13.2467   -4.8748   -7.5029 O   0  0  0  0  0  0  0  0  0  0  0  0
   14.3722   -6.3790   -8.9408 C   0  0  0  0  0  0  0  0  0  0  0  0
   15.7564   -6.9179   -9.0245 C   0  0  0  0  0  0  0  0  0  0  0  0
   16.0506   -7.8173  -10.1771 C   0  0  2  0  0  0  0  0  0  0  0  0
   15.5100   -9.1676   -9.9305 N   0  0  0  0  0  0  0  0  0  0  0  0
   17.4635   -7.8903  -10.5479 C   0  0  0  0  0  0  0  0  0  0  0  0
   18.2945   -8.4920   -9.8411 O   0  0  0  0  0  0  0  0  0  0  0  0
   21.7102   -8.0967  -13.5451 N   0  0  0  0  0  0  0  0  0  0  0  0
   20.5852   -8.9354  -13.7723 C   0  0  0  0  0  0  0  0  0  0  0  0
   20.6917   -9.8993  -14.5533 O   0  0  0  0  0  0  0  0  0  0  0  0
   19.3223   -8.6487  -13.0828 C   0  0  0  0  0  0  0  0  0  0  0  0
   19.3269   -7.4283  -12.2033 C   0  0  2  0  0  0  0  0  0  0  0  0
   17.9255   -7.2689  -11.7374 N   0  0  0  0  0  0  0  0  0  0  0  0
   19.6506   -6.2398  -13.0470 C   0  0  0  0  0  0  0  0  0  0  0  0
   20.9351   -5.7633  -13.1998 O   0  0  0  0  0  0  0  0  0  0  0  0
   18.6756   -5.6623  -13.6375 O   0  0  0  0  0  0  0  0  0  0  0  0
  2  1  1  0
  2  3  2  0
  4  2  1  0
  5  7  1  0
  5  4  1  0
  5  6  1  6
  7  8  2  0
  9 10  1  0
 10 12  1  0
 11 10  2  0
 12 13  1  0
 14 13  1  1
 15  7  1  0
 15 14  1  0
 16 17  2  0
 16 14  1  0
 19 18  1  0
 19 21  1  0
 20 19  2  0
 22 21  1  6
 22 23  1  0
 23 16  1  0
 24 25  1  0
 24 22  1  0
 26 24  2  0
M  END
$$$$
