NQN.pdb
     RDKit          3D

 26 25  0  0  1  0  0  0  0  0999 V2000
   19.3429  -15.7412  -16.1724 N   0  0  0  0  0  0  0  0  0  0  0  0
   19.3561  -14.3495  -16.3686 C   0  0  0  0  0  0  0  0  0  0  0  0
   18.5062  -13.8390  -17.1431 O   0  0  0  0  0  0  0  0  0  0  0  0
   20.3139  -13.4280  -15.7182 C   0  0  0  0  0  0  0  0  0  0  0  0
   20.4971  -12.1518  -16.5037 C   0  0  2  0  0  0  0  0  0  0  0  0
   21.0195  -12.3681  -17.8135 N   0  0  0  0  0  0  0  0  0  0  0  0
   21.4029  -11.2640  -15.6910 C   0  0  0  0  0  0  0  0  0  0  0  0
   21.2038  -11.0827  -14.4635 O   0  0  0  0  0  0  0  0  0  0  0  0
   27.4355  -10.3235  -16.4129 N   0  0  0  0  0  0  0  0  0  0  0  0
   26.8027  -11.3280  -15.6320 C   0  0  0  0  0  0  0  0  0  0  0  0
   27.4719  -12.2797  -15.2228 O   0  0  0  0  0  0  0  0  0  0  0  0
   25.3402  -11.2562  -15.2947 C   0  0  0  0  0  0  0  0  0  0  0  0
   24.8119   -9.9639  -15.8090 C   0  0  0  0  0  0  0  0  0  0  0  0
   23.3741   -9.6780  -15.5355 C   0  0  2  0  0  0  0  0  0  0  0  0
   22.5098  -10.6054  -16.2899 N   0  0  0  0  0  0  0  0  0  0  0  0
   22.9721   -8.2923  -15.7753 C   0  0  0  0  0  0  0  0  0  0  0  0
   23.0635   -7.7711  -16.9031 O   0  0  0  0  0  0  0  0  0  0  0  0
   18.7085   -4.5922  -15.8070 N   0  0  0  0  0  0  0  0  0  0  0  0
   20.1048   -4.7228  -15.5747 C   0  0  0  0  0  0  0  0  0  0  0  0
   20.8261   -3.7085  -15.6118 O   0  0  0  0  0  0  0  0  0  0  0  0
   20.6675   -6.0487  -15.2960 C   0  0  0  0  0  0  0  0  0  0  0  0
   22.1209   -6.0674  -14.9085 C   0  0  2  0  0  0  0  0  0  0  0  0
   22.4620   -7.4999  -14.7139 N   0  0  0  0  0  0  0  0  0  0  0  0
   22.2647   -5.3944  -13.5835 C   0  0  0  0  0  0  0  0  0  0  0  0
   22.6350   -4.0727  -13.4565 O   0  0  0  0  0  0  0  0  0  0  0  0
   22.0289   -6.0993  -12.5440 O   0  0  0  0  0  0  0  0  0  0  0  0
  2  1  1  0
  2  3  2  0
  4  2  1  0
  5  7  1  0
  5  4  1  0
  5  6  1  6
  7  8  2  0
  9 10  1  0
 10 12  1  0
 11 10  2  0
 12 13  1  0
 14 13  1  6
 15  7  1  0
 15 14  1  0
 16 17  2  0
 16 14  1  0
 19 18  1  0
 19 21  1  0
 20 19  2  0
 22 21  1  1
 22 23  1  0
 23 16  1  0
 24 25  1  0
 24 22  1  0
 26 24  2  0
M  END
$$$$
