NQN.pdb
     RDKit          3D

 26 25  0  0  1  0  0  0  0  0999 V2000
   18.8083  -16.0122  -15.1482 N   0  0  0  0  0  0  0  0  0  0  0  0
   19.8832  -15.1098  -15.2259 C   0  0  0  0  0  0  0  0  0  0  0  0
   21.0418  -15.5240  -14.9641 O   0  0  0  0  0  0  0  0  0  0  0  0
   19.7459  -13.6846  -15.5996 C   0  0  0  0  0  0  0  0  0  0  0  0
   18.3065  -13.2951  -15.8350 C   0  0  2  0  0  0  0  0  0  0  0  0
   17.7351  -13.9215  -16.9825 N   0  0  0  0  0  0  0  0  0  0  0  0
   18.2735  -11.7939  -15.9554 C   0  0  0  0  0  0  0  0  0  0  0  0
   18.6507  -11.2183  -17.0069 O   0  0  0  0  0  0  0  0  0  0  0  0
   14.1634   -8.0517  -13.2675 N   0  0  0  0  0  0  0  0  0  0  0  0
   13.9948   -8.9195  -14.3801 C   0  0  0  0  0  0  0  0  0  0  0  0
   12.8536   -9.2036  -14.7515 O   0  0  0  0  0  0  0  0  0  0  0  0
   15.1733   -9.4969  -15.1120 C   0  0  0  0  0  0  0  0  0  0  0  0
   16.4109   -9.0457  -14.4206 C   0  0  0  0  0  0  0  0  0  0  0  0
   17.7031   -9.5181  -14.9958 C   0  0  2  0  0  0  0  0  0  0  0  0
   17.8143  -10.9848  -14.8821 N   0  0  0  0  0  0  0  0  0  0  0  0
   18.8906   -8.8692  -14.4408 C   0  0  0  0  0  0  0  0  0  0  0  0
   19.4518   -9.3000  -13.4154 O   0  0  0  0  0  0  0  0  0  0  0  0
   24.0734   -7.3163  -15.6452 N   0  0  0  0  0  0  0  0  0  0  0  0
   22.9241   -6.4798  -15.6302 C   0  0  0  0  0  0  0  0  0  0  0  0
   23.0636   -5.2560  -15.4477 O   0  0  0  0  0  0  0  0  0  0  0  0
   21.5979   -7.0747  -15.8299 C   0  0  0  0  0  0  0  0  0  0  0  0
   20.7182   -7.1207  -14.6105 C   0  0  2  0  0  0  0  0  0  0  0  0
   19.4374   -7.7186  -15.0669 N   0  0  0  0  0  0  0  0  0  0  0  0
   20.4260   -5.7193  -14.1863 C   0  0  0  0  0  0  0  0  0  0  0  0
   21.2038   -5.0409  -13.2726 O   0  0  0  0  0  0  0  0  0  0  0  0
   19.4060   -5.1538  -14.7087 O   0  0  0  0  0  0  0  0  0  0  0  0
  2  1  1  0
  2  3  2  0
  4  2  1  0
  5  7  1  0
  5  4  1  0
  5  6  1  6
  7  8  2  0
  9 10  1  0
 10 12  1  0
 11 10  2  0
 12 13  1  0
 14 13  1  1
 15  7  1  0
 15 14  1  0
 16 17  2  0
 16 14  1  0
 19 18  1  0
 19 21  1  0
 20 19  2  0
 22 21  1  6
 22 23  1  0
 23 16  1  0
 24 25  1  0
 24 22  1  0
 26 24  2  0
M  END
$$$$
