NQN.pdb
     RDKit          3D

 26 25  0  0  1  0  0  0  0  0999 V2000
   18.7716  -13.1687  -16.5895 N   0  0  0  0  0  0  0  0  0  0  0  0
   19.9051  -13.6698  -15.9264 C   0  0  0  0  0  0  0  0  0  0  0  0
   19.8347  -14.7986  -15.3754 O   0  0  0  0  0  0  0  0  0  0  0  0
   21.1955  -12.9522  -15.8291 C   0  0  0  0  0  0  0  0  0  0  0  0
   21.1287  -11.5767  -16.4477 C   0  0  2  0  0  0  0  0  0  0  0  0
   21.4619  -11.5676  -17.8349 N   0  0  0  0  0  0  0  0  0  0  0  0
   22.0569  -10.6946  -15.6544 C   0  0  0  0  0  0  0  0  0  0  0  0
   21.8390  -10.4471  -14.4417 O   0  0  0  0  0  0  0  0  0  0  0  0
   28.1462  -10.5231  -16.0634 N   0  0  0  0  0  0  0  0  0  0  0  0
   27.2666  -11.5069  -15.5364 C   0  0  0  0  0  0  0  0  0  0  0  0
   27.7135  -12.6210  -15.2532 O   0  0  0  0  0  0  0  0  0  0  0  0
   25.8080  -11.2204  -15.3172 C   0  0  0  0  0  0  0  0  0  0  0  0
   25.5565   -9.8017  -15.6881 C   0  0  0  0  0  0  0  0  0  0  0  0
   24.1666   -9.2993  -15.4890 C   0  0  2  0  0  0  0  0  0  0  0  0
   23.2066  -10.1162  -16.2553 N   0  0  0  0  0  0  0  0  0  0  0  0
   23.9836   -7.8789  -15.7864 C   0  0  0  0  0  0  0  0  0  0  0  0
   24.7800   -7.2556  -16.5140 O   0  0  0  0  0  0  0  0  0  0  0  0
   21.6865   -3.4015  -16.8723 N   0  0  0  0  0  0  0  0  0  0  0  0
   21.7081   -4.5758  -17.6730 C   0  0  0  0  0  0  0  0  0  0  0  0
   21.3340   -4.5115  -18.8589 O   0  0  0  0  0  0  0  0  0  0  0  0
   22.1703   -5.8388  -17.0867 C   0  0  0  0  0  0  0  0  0  0  0  0
   22.5861   -5.7689  -15.6427 C   0  0  2  0  0  0  0  0  0  0  0  0
   22.8796   -7.1696  -15.2454 N   0  0  0  0  0  0  0  0  0  0  0  0
   21.4145   -5.3162  -14.8356 C   0  0  0  0  0  0  0  0  0  0  0  0
   20.7093   -6.1631  -14.0076 O   0  0  0  0  0  0  0  0  0  0  0  0
   21.0759   -4.0883  -14.9393 O   0  0  0  0  0  0  0  0  0  0  0  0
  2  1  1  0
  2  3  2  0
  4  2  1  0
  5  7  1  0
  5  4  1  0
  5  6  1  6
  7  8  2  0
  9 10  1  0
 10 12  1  0
 11 10  2  0
 12 13  1  0
 14 13  1  6
 15  7  1  0
 15 14  1  0
 16 17  2  0
 16 14  1  0
 19 18  1  0
 19 21  1  0
 20 19  2  0
 22 21  1  6
 22 23  1  0
 23 16  1  0
 24 25  1  0
 24 22  1  0
 26 24  2  0
M  END
$$$$
