NQN.pdb
     RDKit          3D

 26 25  0  0  1  0  0  0  0  0999 V2000
   19.6128  -12.5416  -19.8573 N   0  0  0  0  0  0  0  0  0  0  0  0
   20.0037  -12.8904  -18.5530 C   0  0  0  0  0  0  0  0  0  0  0  0
   19.5537  -13.9518  -18.0493 O   0  0  0  0  0  0  0  0  0  0  0  0
   20.9215  -12.0848  -17.7175 C   0  0  0  0  0  0  0  0  0  0  0  0
   21.3944  -10.8408  -18.4302 C   0  0  2  0  0  0  0  0  0  0  0  0
   22.2393  -11.1190  -19.5457 N   0  0  0  0  0  0  0  0  0  0  0  0
   22.0995   -9.9908  -17.4058 C   0  0  0  0  0  0  0  0  0  0  0  0
   21.4652   -9.4400  -16.4712 O   0  0  0  0  0  0  0  0  0  0  0  0
   28.3050  -10.1195  -16.3062 N   0  0  0  0  0  0  0  0  0  0  0  0
   27.3847  -11.1728  -16.0554 C   0  0  0  0  0  0  0  0  0  0  0  0
   27.8173  -12.2987  -15.7983 O   0  0  0  0  0  0  0  0  0  0  0  0
   25.8999  -10.9455  -16.0967 C   0  0  0  0  0  0  0  0  0  0  0  0
   25.6624   -9.5025  -16.3705 C   0  0  0  0  0  0  0  0  0  0  0  0
   24.2390   -9.0602  -16.4147 C   0  0  2  0  0  0  0  0  0  0  0  0
   23.5040   -9.7872  -17.4671 N   0  0  0  0  0  0  0  0  0  0  0  0
   24.0536   -7.6170  -16.5633 C   0  0  0  0  0  0  0  0  0  0  0  0
   24.4408   -7.0096  -17.5797 O   0  0  0  0  0  0  0  0  0  0  0  0
   22.1364   -2.8752  -16.3957 N   0  0  0  0  0  0  0  0  0  0  0  0
   21.6243   -3.9884  -17.1163 C   0  0  0  0  0  0  0  0  0  0  0  0
   20.7360   -3.8055  -17.9694 O   0  0  0  0  0  0  0  0  0  0  0  0
   22.1524   -5.3292  -16.8407 C   0  0  0  0  0  0  0  0  0  0  0  0
   23.1312   -5.4186  -15.7019 C   0  0  2  0  0  0  0  0  0  0  0  0
   23.4199   -6.8664  -15.5387 N   0  0  0  0  0  0  0  0  0  0  0  0
   22.4485   -4.9602  -14.4557 C   0  0  0  0  0  0  0  0  0  0  0  0
   22.1065   -5.8211  -13.4349 O   0  0  0  0  0  0  0  0  0  0  0  0
   22.1831   -3.7137  -14.3623 O   0  0  0  0  0  0  0  0  0  0  0  0
  2  1  1  0
  2  3  2  0
  4  2  1  0
  5  7  1  0
  5  4  1  0
  5  6  1  6
  7  8  2  0
  9 10  1  0
 10 12  1  0
 11 10  2  0
 12 13  1  0
 14 13  1  6
 15  7  1  0
 15 14  1  0
 16 17  2  0
 16 14  1  0
 19 18  1  0
 19 21  1  0
 20 19  2  0
 22 21  1  6
 22 23  1  0
 23 16  1  0
 24 25  1  0
 24 22  1  0
 26 24  2  0
M  END
$$$$
