NQN.pdb
     RDKit          3D

 26 25  0  0  1  0  0  0  0  0999 V2000
   22.3123  -16.1074  -20.2710 N   0  0  0  0  0  0  0  0  0  0  0  0
   22.6261  -16.1078  -18.9009 C   0  0  0  0  0  0  0  0  0  0  0  0
   22.3789  -17.1385  -18.2233 O   0  0  0  0  0  0  0  0  0  0  0  0
   23.2362  -14.9635  -18.1882 C   0  0  0  0  0  0  0  0  0  0  0  0
   23.3850  -13.7535  -19.0786 C   0  0  2  0  0  0  0  0  0  0  0  0
   24.4603  -13.8693  -20.0091 N   0  0  0  0  0  0  0  0  0  0  0  0
   23.5681  -12.5637  -18.1732 C   0  0  0  0  0  0  0  0  0  0  0  0
   22.7418  -12.3081  -17.2616 O   0  0  0  0  0  0  0  0  0  0  0  0
   28.8306   -9.1123  -17.8083 N   0  0  0  0  0  0  0  0  0  0  0  0
   28.6916  -10.4376  -17.3149 C   0  0  0  0  0  0  0  0  0  0  0  0
   29.7040  -11.0769  -17.0195 O   0  0  0  0  0  0  0  0  0  0  0  0
   27.3417  -11.0756  -17.1458 C   0  0  0  0  0  0  0  0  0  0  0  0
   26.3080  -10.0704  -17.5128 C   0  0  0  0  0  0  0  0  0  0  0  0
   24.8888  -10.5240  -17.4513 C   0  0  2  0  0  0  0  0  0  0  0  0
   24.6819  -11.6952  -18.3242 N   0  0  0  0  0  0  0  0  0  0  0  0
   23.9033   -9.4842  -17.7462 C   0  0  0  0  0  0  0  0  0  0  0  0
   23.6785   -9.1087  -18.9125 O   0  0  0  0  0  0  0  0  0  0  0  0
   19.8990   -6.1581  -17.1651 N   0  0  0  0  0  0  0  0  0  0  0  0
   19.6913   -7.4947  -16.7281 C   0  0  0  0  0  0  0  0  0  0  0  0
   18.5354   -7.8785  -16.4694 O   0  0  0  0  0  0  0  0  0  0  0  0
   20.8421   -8.3944  -16.5908 C   0  0  0  0  0  0  0  0  0  0  0  0
   22.1744   -7.8038  -16.9634 C   0  0  2  0  0  0  0  0  0  0  0  0
   23.1715   -8.8716  -16.6956 N   0  0  0  0  0  0  0  0  0  0  0  0
   22.4696   -6.6780  -16.0282 C   0  0  0  0  0  0  0  0  0  0  0  0
   22.3598   -5.3547  -16.3984 O   0  0  0  0  0  0  0  0  0  0  0  0
   22.8377   -6.9864  -14.8440 O   0  0  0  0  0  0  0  0  0  0  0  0
  2  1  1  0
  2  3  2  0
  4  2  1  0
  5  7  1  0
  5  4  1  0
  5  6  1  6
  7  8  2  0
  9 10  1  0
 10 12  1  0
 11 10  2  0
 12 13  1  0
 14 13  1  6
 15  7  1  0
 15 14  1  0
 16 17  2  0
 16 14  1  0
 19 18  1  0
 19 21  1  0
 20 19  2  0
 22 21  1  1
 22 23  1  0
 23 16  1  0
 24 25  1  0
 24 22  1  0
 26 24  2  0
M  END
$$$$
