FKE.pdb
     RDKit          3D

 30 30  0  0  1  0  0  0  0  0999 V2000
   26.8040  -22.3885  -10.9171 N   0  0  0  0  0  0  0  0  0  0  0  0
   25.9701  -21.2684  -10.5303 C   0  0  1  0  0  0  0  0  0  0  0  0
   26.8243  -20.0185  -10.5491 C   0  0  0  0  0  0  0  0  0  0  0  0
   27.5259  -19.9532   -9.2249 C   0  0  0  0  0  0  0  0  0  0  0  0
   26.9522  -19.4212   -8.1053 C   0  0  0  0  0  0  0  0  0  0  0  0
   27.6016  -19.3617   -6.8796 C   0  0  0  0  0  0  0  0  0  0  0  0
   28.8692  -19.8554   -6.7845 C   0  0  0  0  0  0  0  0  0  0  0  0
   29.4857  -20.4052   -7.9050 C   0  0  0  0  0  0  0  0  0  0  0  0
   28.8145  -20.4562   -9.1322 C   0  0  0  0  0  0  0  0  0  0  0  0
   24.8027  -21.1865  -11.4161 C   0  0  0  0  0  0  0  0  0  0  0  0
   24.9220  -21.4744  -12.6273 O   0  0  0  0  0  0  0  0  0  0  0  0
   23.5152  -20.7858  -10.9470 N   0  0  0  0  0  0  0  0  0  0  0  0
   22.3062  -20.9477  -11.6924 C   0  0  1  0  0  0  0  0  0  0  0  0
   21.0724  -20.6420  -10.8694 C   0  0  0  0  0  0  0  0  0  0  0  0
   19.8070  -20.9646  -11.6194 C   0  0  0  0  0  0  0  0  0  0  0  0
   19.2541  -22.3110  -11.2725 C   0  0  0  0  0  0  0  0  0  0  0  0
   18.0001  -22.6481  -12.0344 C   0  0  0  0  0  0  0  0  0  0  0  0
   17.5728  -24.0019  -11.8540 N   0  0  0  0  0  0  0  0  0  0  0  0
   22.2630  -20.0312  -12.8825 C   0  0  0  0  0  0  0  0  0  0  0  0
   22.4447  -18.7962  -12.7031 O   0  0  0  0  0  0  0  0  0  0  0  0
   22.0214  -20.5516  -14.1800 N   0  0  0  0  0  0  0  0  0  0  0  0
   21.9597  -19.6438  -15.3153 C   0  0  1  0  0  0  0  0  0  0  0  0
   22.4417  -20.3183  -16.5611 C   0  0  0  0  0  0  0  0  0  0  0  0
   23.8481  -20.8018  -16.5309 C   0  0  0  0  0  0  0  0  0  0  0  0
   24.2438  -21.4471  -17.7815 C   0  0  0  0  0  0  0  0  0  0  0  0
   23.4315  -21.5594  -18.7511 O   0  0  0  0  0  0  0  0  0  0  0  0
   20.6301  -19.0093  -15.4297 C   0  0  0  0  0  0  0  0  0  0  0  0
   19.4401  -19.6449  -15.1571 O   0  0  0  0  0  0  0  0  0  0  0  0
   25.5215  -21.9646  -17.9653 O   0  0  0  0  0  0  0  0  0  0  0  0
   20.5558  -17.8024  -15.8021 O   0  0  0  0  0  0  0  0  0  0  0  0
  2  1  1  6
  2 10  1  0
  3  2  1  0
  3  4  1  0
  4  5  2  0
  4  9  1  0
  5  6  1  0
  6  7  2  0
  8  7  1  0
  9  8  2  0
 10 11  2  0
 12 10  1  0
 12 13  1  0
 13 14  1  1
 15 14  1  0
 16 15  1  0
 17 16  1  0
 18 17  1  0
 19 13  1  0
 19 20  2  0
 21 19  1  0
 22 21  1  0
 22 27  1  0
 22 23  1  6
 24 23  1  0
 25 24  1  0
 25 26  2  0
 27 30  2  0
 27 28  1  0
 29 25  1  0
M  END
$$$$
