FKE.pdb
     RDKit          3D

 30 30  0  0  1  0  0  0  0  0999 V2000
   16.8301  -14.9399    3.4451 N   0  0  0  0  0  0  0  0  0  0  0  0
   16.6803  -13.9558    4.4981 C   0  0  1  0  0  0  0  0  0  0  0  0
   15.4813  -14.3443    5.3368 C   0  0  0  0  0  0  0  0  0  0  0  0
   14.2626  -13.9079    4.5789 C   0  0  0  0  0  0  0  0  0  0  0  0
   13.4282  -14.7840    3.9451 C   0  0  0  0  0  0  0  0  0  0  0  0
   12.3000  -14.3797    3.2443 C   0  0  0  0  0  0  0  0  0  0  0  0
   12.0075  -13.0492    3.1836 C   0  0  0  0  0  0  0  0  0  0  0  0
   12.8353  -12.1271    3.8179 C   0  0  0  0  0  0  0  0  0  0  0  0
   13.9687  -12.5543    4.5196 C   0  0  0  0  0  0  0  0  0  0  0  0
   17.9235  -13.8608    5.2724 C   0  0  0  0  0  0  0  0  0  0  0  0
   18.6662  -14.8615    5.3782 O   0  0  0  0  0  0  0  0  0  0  0  0
   18.3286  -12.6551    5.9209 N   0  0  0  0  0  0  0  0  0  0  0  0
   19.5326  -12.5206    6.6798 C   0  0  1  0  0  0  0  0  0  0  0  0
   19.8630  -11.0760    6.9917 C   0  0  0  0  0  0  0  0  0  0  0  0
   21.2014  -10.9431    7.6688 C   0  0  0  0  0  0  0  0  0  0  0  0
   21.5372   -9.5273    8.0175 C   0  0  0  0  0  0  0  0  0  0  0  0
   22.8851   -9.3848    8.6730 C   0  0  0  0  0  0  0  0  0  0  0  0
   23.2487   -8.0255    8.9336 N   0  0  0  0  0  0  0  0  0  0  0  0
   19.4364  -13.2308    8.0006 C   0  0  0  0  0  0  0  0  0  0  0  0
   18.3624  -13.1480    8.6563 O   0  0  0  0  0  0  0  0  0  0  0  0
   20.5365  -13.9781    8.4947 N   0  0  0  0  0  0  0  0  0  0  0  0
   20.3780  -14.7703    9.7047 C   0  0  1  0  0  0  0  0  0  0  0  0
   20.4409  -16.2327    9.3937 C   0  0  0  0  0  0  0  0  0  0  0  0
   20.2793  -17.1476   10.5553 C   0  0  0  0  0  0  0  0  0  0  0  0
   20.3433  -18.5563   10.1698 C   0  0  0  0  0  0  0  0  0  0  0  0
   19.7876  -18.9749    9.1074 O   0  0  0  0  0  0  0  0  0  0  0  0
   21.3003  -14.3236   10.7693 C   0  0  0  0  0  0  0  0  0  0  0  0
   21.1705  -14.6549   12.0988 O   0  0  0  0  0  0  0  0  0  0  0  0
   21.0125  -19.4972   10.9450 O   0  0  0  0  0  0  0  0  0  0  0  0
   22.2813  -13.5861   10.4620 O   0  0  0  0  0  0  0  0  0  0  0  0
  2  1  1  6
  2 10  1  0
  3  2  1  0
  3  4  1  0
  4  5  2  0
  4  9  1  0
  5  6  1  0
  6  7  2  0
  8  7  1  0
  9  8  2  0
 10 11  2  0
 12 10  1  0
 12 13  1  0
 13 14  1  1
 15 14  1  0
 16 15  1  0
 17 16  1  0
 18 17  1  0
 19 13  1  0
 19 20  2  0
 21 19  1  0
 22 21  1  0
 22 27  1  0
 22 23  1  6
 24 23  1  0
 25 24  1  0
 25 26  2  0
 27 30  2  0
 27 28  1  0
 29 25  1  0
M  END
$$$$
