FKE.pdb
     RDKit          3D

 30 30  0  0  1  0  0  0  0  0999 V2000
   29.2794  -20.2721  -13.2792 N   0  0  0  0  0  0  0  0  0  0  0  0
   28.0375  -20.4912  -12.5655 C   0  0  1  0  0  0  0  0  0  0  0  0
   28.2507  -20.0957  -11.1197 C   0  0  0  0  0  0  0  0  0  0  0  0
   29.3082  -21.0080  -10.5723 C   0  0  0  0  0  0  0  0  0  0  0  0
   29.0379  -22.2623  -10.1039 C   0  0  0  0  0  0  0  0  0  0  0  0
   30.0170  -23.1066   -9.5980 C   0  0  0  0  0  0  0  0  0  0  0  0
   31.3080  -22.6684   -9.5656 C   0  0  0  0  0  0  0  0  0  0  0  0
   31.6208  -21.3957  -10.0348 C   0  0  0  0  0  0  0  0  0  0  0  0
   30.6194  -20.5589  -10.5411 C   0  0  0  0  0  0  0  0  0  0  0  0
   26.9510  -19.7490  -13.2157 C   0  0  0  0  0  0  0  0  0  0  0  0
   27.0331  -18.5067  -13.3345 O   0  0  0  0  0  0  0  0  0  0  0  0
   25.7849  -20.3948  -13.7272 N   0  0  0  0  0  0  0  0  0  0  0  0
   24.7388  -19.7187  -14.4285 C   0  0  1  0  0  0  0  0  0  0  0  0
   25.2239  -19.0689  -15.7074 C   0  0  0  0  0  0  0  0  0  0  0  0
   24.1408  -18.2562  -16.3664 C   0  0  0  0  0  0  0  0  0  0  0  0
   24.5959  -17.6011  -17.6323 C   0  0  0  0  0  0  0  0  0  0  0  0
   23.5225  -16.7729  -18.2870 C   0  0  0  0  0  0  0  0  0  0  0  0
   23.9756  -16.0729  -19.4500 N   0  0  0  0  0  0  0  0  0  0  0  0
   23.6364  -20.6616  -14.8208 C   0  0  0  0  0  0  0  0  0  0  0  0
   23.8178  -21.9008  -14.6732 O   0  0  0  0  0  0  0  0  0  0  0  0
   22.4177  -20.1608  -15.3469 N   0  0  0  0  0  0  0  0  0  0  0  0
   21.2213  -20.9869  -15.2922 C   0  0  1  0  0  0  0  0  0  0  0  0
   20.9408  -21.4224  -13.8883 C   0  0  0  0  0  0  0  0  0  0  0  0
   19.9556  -20.5961  -13.1404 C   0  0  0  0  0  0  0  0  0  0  0  0
   19.5986  -21.1840  -11.8505 C   0  0  0  0  0  0  0  0  0  0  0  0
   18.7546  -20.6264  -11.0828 O   0  0  0  0  0  0  0  0  0  0  0  0
   20.0841  -20.3392  -15.9783 C   0  0  0  0  0  0  0  0  0  0  0  0
   18.9547  -21.0009  -16.4037 O   0  0  0  0  0  0  0  0  0  0  0  0
   20.1641  -22.3750  -11.4077 O   0  0  0  0  0  0  0  0  0  0  0  0
   20.1297  -19.0947  -16.2013 O   0  0  0  0  0  0  0  0  0  0  0  0
  2  1  1  6
  2 10  1  0
  3  2  1  0
  3  4  1  0
  4  5  2  0
  4  9  1  0
  5  6  1  0
  6  7  2  0
  8  7  1  0
  9  8  2  0
 10 11  2  0
 12 10  1  0
 12 13  1  0
 13 14  1  6
 15 14  1  0
 16 15  1  0
 17 16  1  0
 18 17  1  0
 19 13  1  0
 19 20  2  0
 21 19  1  0
 22 21  1  0
 22 27  1  0
 22 23  1  1
 24 23  1  0
 25 24  1  0
 25 26  2  0
 27 30  2  0
 27 28  1  0
 29 25  1  0
M  END
$$$$
