FKE.pdb
     RDKit          3D

 30 30  0  0  1  0  0  0  0  0999 V2000
   24.3923  -17.2162  -19.6500 N   0  0  0  0  0  0  0  0  0  0  0  0
   23.7142  -16.9324  -18.4013 C   0  0  1  0  0  0  0  0  0  0  0  0
   22.3588  -16.3414  -18.7267 C   0  0  0  0  0  0  0  0  0  0  0  0
   22.6090  -14.9964  -19.3419 C   0  0  0  0  0  0  0  0  0  0  0  0
   22.1962  -14.6669  -20.6015 C   0  0  0  0  0  0  0  0  0  0  0  0
   22.4273  -13.4216  -21.1702 C   0  0  0  0  0  0  0  0  0  0  0  0
   23.0958  -12.4821  -20.4422 C   0  0  0  0  0  0  0  0  0  0  0  0
   23.5314  -12.7825  -19.1546 C   0  0  0  0  0  0  0  0  0  0  0  0
   23.2889  -14.0439  -18.5985 C   0  0  0  0  0  0  0  0  0  0  0  0
   23.6353  -18.1518  -17.5884 C   0  0  0  0  0  0  0  0  0  0  0  0
   23.1161  -19.1839  -18.0674 O   0  0  0  0  0  0  0  0  0  0  0  0
   24.1340  -18.2119  -16.2520 N   0  0  0  0  0  0  0  0  0  0  0  0
   24.0041  -19.3526  -15.4002 C   0  0  1  0  0  0  0  0  0  0  0  0
   25.0427  -19.3747  -14.2984 C   0  0  0  0  0  0  0  0  0  0  0  0
   24.8722  -20.5669  -13.3943 C   0  0  0  0  0  0  0  0  0  0  0  0
   25.8781  -20.6041  -12.2872 C   0  0  0  0  0  0  0  0  0  0  0  0
   25.7226  -21.8021  -11.3887 C   0  0  0  0  0  0  0  0  0  0  0  0
   25.0153  -21.5157  -10.1781 N   0  0  0  0  0  0  0  0  0  0  0  0
   22.6631  -19.3875  -14.7229 C   0  0  0  0  0  0  0  0  0  0  0  0
   22.3334  -18.4221  -13.9814 O   0  0  0  0  0  0  0  0  0  0  0  0
   21.7898  -20.4884  -14.9178 N   0  0  0  0  0  0  0  0  0  0  0  0
   20.5007  -20.5077  -14.2434 C   0  0  1  0  0  0  0  0  0  0  0  0
   19.3930  -20.7403  -15.2223 C   0  0  0  0  0  0  0  0  0  0  0  0
   18.7610  -22.0860  -15.1746 C   0  0  0  0  0  0  0  0  0  0  0  0
   17.6978  -22.2391  -16.1661 C   0  0  0  0  0  0  0  0  0  0  0  0
   17.3399  -21.2695  -16.9040 O   0  0  0  0  0  0  0  0  0  0  0  0
   20.5082  -21.4274  -13.0869 C   0  0  0  0  0  0  0  0  0  0  0  0
   21.2901  -22.5565  -12.9976 O   0  0  0  0  0  0  0  0  0  0  0  0
   17.0335  -23.4477  -16.3457 O   0  0  0  0  0  0  0  0  0  0  0  0
   19.7532  -21.1814  -12.1020 O   0  0  0  0  0  0  0  0  0  0  0  0
  2  1  1  6
  2 10  1  0
  3  2  1  0
  3  4  1  0
  4  5  2  0
  4  9  1  0
  5  6  1  0
  6  7  2  0
  8  7  1  0
  9  8  2  0
 10 11  2  0
 12 10  1  0
 12 13  1  0
 13 14  1  1
 15 14  1  0
 16 15  1  0
 17 16  1  0
 18 17  1  0
 19 13  1  0
 19 20  2  0
 21 19  1  0
 22 21  1  0
 22 27  1  0
 22 23  1  6
 24 23  1  0
 25 24  1  0
 25 26  2  0
 27 30  2  0
 27 28  1  0
 29 25  1  0
M  END
$$$$
