FKE.pdb
     RDKit          3D

 30 30  0  0  1  0  0  0  0  0999 V2000
   27.2587  -18.6854   -8.3316 N   0  0  0  0  0  0  0  0  0  0  0  0
   26.9080  -20.0872   -8.4401 C   0  0  1  0  0  0  0  0  0  0  0  0
   26.2642  -20.5123   -7.1374 C   0  0  0  0  0  0  0  0  0  0  0  0
   27.2593  -20.2321   -6.0505 C   0  0  0  0  0  0  0  0  0  0  0  0
   26.9392  -20.2650   -4.7231 C   0  0  0  0  0  0  0  0  0  0  0  0
   27.8607  -20.0062   -3.7174 C   0  0  0  0  0  0  0  0  0  0  0  0
   29.1443  -19.7055   -4.0658 C   0  0  0  0  0  0  0  0  0  0  0  0
   29.5070  -19.6628   -5.4091 C   0  0  0  0  0  0  0  0  0  0  0  0
   28.5634  -19.9267   -6.4087 C   0  0  0  0  0  0  0  0  0  0  0  0
   26.0453  -20.2964   -9.6088 C   0  0  0  0  0  0  0  0  0  0  0  0
   24.8586  -19.9025   -9.5821 O   0  0  0  0  0  0  0  0  0  0  0  0
   26.5101  -20.9410  -10.7950 N   0  0  0  0  0  0  0  0  0  0  0  0
   26.0708  -20.6042  -12.1129 C   0  0  1  0  0  0  0  0  0  0  0  0
   27.0787  -20.9880  -13.1759 C   0  0  0  0  0  0  0  0  0  0  0  0
   26.6605  -20.5089  -14.5409 C   0  0  0  0  0  0  0  0  0  0  0  0
   27.5981  -20.9463  -15.6218 C   0  0  0  0  0  0  0  0  0  0  0  0
   27.2543  -20.3705  -16.9698 C   0  0  0  0  0  0  0  0  0  0  0  0
   28.1202  -20.8201  -18.0167 N   0  0  0  0  0  0  0  0  0  0  0  0
   24.7903  -21.3071  -12.4658 C   0  0  0  0  0  0  0  0  0  0  0  0
   24.6960  -22.5442  -12.2400 O   0  0  0  0  0  0  0  0  0  0  0  0
   23.7122  -20.5870  -13.0420 N   0  0  0  0  0  0  0  0  0  0  0  0
   22.4699  -21.2803  -13.3466 C   0  0  1  0  0  0  0  0  0  0  0  0
   21.3093  -20.6046  -12.6865 C   0  0  0  0  0  0  0  0  0  0  0  0
   20.5956  -21.4062  -11.6566 C   0  0  0  0  0  0  0  0  0  0  0  0
   19.1941  -21.6380  -12.0016 C   0  0  0  0  0  0  0  0  0  0  0  0
   18.7065  -21.2179  -13.0963 O   0  0  0  0  0  0  0  0  0  0  0  0
   22.3141  -21.4994  -14.7997 C   0  0  0  0  0  0  0  0  0  0  0  0
   22.9990  -20.8013  -15.7681 O   0  0  0  0  0  0  0  0  0  0  0  0
   18.3355  -22.3260  -11.1510 O   0  0  0  0  0  0  0  0  0  0  0  0
   21.5022  -22.3814  -15.2040 O   0  0  0  0  0  0  0  0  0  0  0  0
  2  1  1  1
  2 10  1  0
  3  2  1  0
  3  4  1  0
  4  5  2  0
  4  9  1  0
  5  6  1  0
  6  7  2  0
  8  7  1  0
  9  8  2  0
 10 11  2  0
 12 10  1  0
 12 13  1  0
 13 14  1  6
 15 14  1  0
 16 15  1  0
 17 16  1  0
 18 17  1  0
 19 13  1  0
 19 20  2  0
 21 19  1  0
 22 21  1  0
 22 27  1  0
 22 23  1  6
 24 23  1  0
 25 24  1  0
 25 26  2  0
 27 30  2  0
 27 28  1  0
 29 25  1  0
M  END
$$$$
