FKE.pdb
     RDKit          3D

 30 30  0  0  1  0  0  0  0  0999 V2000
   27.4402  -22.0270  -13.7670 N   0  0  0  0  0  0  0  0  0  0  0  0
   26.4946  -21.2688  -12.9728 C   0  0  1  0  0  0  0  0  0  0  0  0
   27.1882  -20.0130  -12.4890 C   0  0  0  0  0  0  0  0  0  0  0  0
   28.1851  -20.4404  -11.4529 C   0  0  0  0  0  0  0  0  0  0  0  0
   27.8292  -20.8110  -10.1873 C   0  0  0  0  0  0  0  0  0  0  0  0
   28.7522  -21.2072   -9.2288 C   0  0  0  0  0  0  0  0  0  0  0  0
   30.0745  -21.2292   -9.5614 C   0  0  0  0  0  0  0  0  0  0  0  0
   30.4742  -20.8582  -10.8422 C   0  0  0  0  0  0  0  0  0  0  0  0
   29.5285  -20.4615  -11.7949 C   0  0  0  0  0  0  0  0  0  0  0  0
   25.2865  -20.9973  -13.7607 C   0  0  0  0  0  0  0  0  0  0  0  0
   25.3668  -20.8986  -15.0049 O   0  0  0  0  0  0  0  0  0  0  0  0
   24.0020  -20.8383  -13.1582 N   0  0  0  0  0  0  0  0  0  0  0  0
   22.7824  -20.7188  -13.8942 C   0  0  1  0  0  0  0  0  0  0  0  0
   21.5925  -21.2723  -13.1387 C   0  0  0  0  0  0  0  0  0  0  0  0
   21.4264  -22.7517  -13.3650 C   0  0  0  0  0  0  0  0  0  0  0  0
   21.1835  -23.0954  -14.8009 C   0  0  0  0  0  0  0  0  0  0  0  0
   20.9740  -24.5689  -15.0277 C   0  0  0  0  0  0  0  0  0  0  0  0
   20.8928  -24.9245  -16.4115 N   0  0  0  0  0  0  0  0  0  0  0  0
   22.4612  -19.2837  -14.2035 C   0  0  0  0  0  0  0  0  0  0  0  0
   22.2163  -18.4980  -13.2478 O   0  0  0  0  0  0  0  0  0  0  0  0
   22.4352  -18.8280  -15.5468 N   0  0  0  0  0  0  0  0  0  0  0  0
   22.1105  -17.4373  -15.8248 C   0  0  1  0  0  0  0  0  0  0  0  0
   22.9180  -16.9235  -16.9751 C   0  0  0  0  0  0  0  0  0  0  0  0
   22.6394  -15.5208  -17.3843 C   0  0  0  0  0  0  0  0  0  0  0  0
   23.3991  -15.1231  -18.5683 C   0  0  0  0  0  0  0  0  0  0  0  0
   24.1643  -15.9414  -19.1662 O   0  0  0  0  0  0  0  0  0  0  0  0
   20.6522  -17.2368  -15.9536 C   0  0  0  0  0  0  0  0  0  0  0  0
   20.0042  -16.0529  -15.6842 O   0  0  0  0  0  0  0  0  0  0  0  0
   23.3184  -13.8370  -19.0913 O   0  0  0  0  0  0  0  0  0  0  0  0
   19.9309  -18.2040  -16.3344 O   0  0  0  0  0  0  0  0  0  0  0  0
  2  1  1  6
  2 10  1  0
  3  2  1  0
  3  4  1  0
  4  5  2  0
  4  9  1  0
  5  6  1  0
  6  7  2  0
  8  7  1  0
  9  8  2  0
 10 11  2  0
 12 10  1  0
 12 13  1  0
 13 14  1  1
 15 14  1  0
 16 15  1  0
 17 16  1  0
 18 17  1  0
 19 13  1  0
 19 20  2  0
 21 19  1  0
 22 21  1  0
 22 27  1  0
 22 23  1  6
 24 23  1  0
 25 24  1  0
 25 26  2  0
 27 30  2  0
 27 28  1  0
 29 25  1  0
M  END
$$$$
