FKE.pdb
     RDKit          3D

 30 30  0  0  1  0  0  0  0  0999 V2000
   23.5306   -8.7325  -13.8806 N   0  0  0  0  0  0  0  0  0  0  0  0
   23.3410   -8.6577  -15.3152 C   0  0  1  0  0  0  0  0  0  0  0  0
   23.5725  -10.0382  -15.8921 C   0  0  0  0  0  0  0  0  0  0  0  0
   25.0564  -10.2045  -16.0358 C   0  0  0  0  0  0  0  0  0  0  0  0
   25.8087   -9.4545  -16.8944 C   0  0  0  0  0  0  0  0  0  0  0  0
   27.1822   -9.6083  -17.0265 C   0  0  0  0  0  0  0  0  0  0  0  0
   27.8128  -10.5489  -16.2668 C   0  0  0  0  0  0  0  0  0  0  0  0
   27.0781  -11.3317  -15.3806 C   0  0  0  0  0  0  0  0  0  0  0  0
   25.6939  -11.1619  -15.2617 C   0  0  0  0  0  0  0  0  0  0  0  0
   22.0087   -8.1199  -15.6147 C   0  0  0  0  0  0  0  0  0  0  0  0
   21.1140   -8.1577  -14.7415 O   0  0  0  0  0  0  0  0  0  0  0  0
   21.6842   -7.5456  -16.8809 N   0  0  0  0  0  0  0  0  0  0  0  0
   20.3987   -7.0164  -17.2135 C   0  0  1  0  0  0  0  0  0  0  0  0
   20.4685   -5.9626  -18.2987 C   0  0  0  0  0  0  0  0  0  0  0  0
   20.6756   -4.5850  -17.7267 C   0  0  0  0  0  0  0  0  0  0  0  0
   20.6922   -3.5178  -18.7754 C   0  0  0  0  0  0  0  0  0  0  0  0
   20.9283   -2.1414  -18.2129 C   0  0  0  0  0  0  0  0  0  0  0  0
   20.9454   -1.1156  -19.2105 N   0  0  0  0  0  0  0  0  0  0  0  0
   19.4730   -8.0873  -17.7179 C   0  0  0  0  0  0  0  0  0  0  0  0
   19.9422   -8.9948  -18.4573 O   0  0  0  0  0  0  0  0  0  0  0  0
   18.0988   -8.0717  -17.3657 N   0  0  0  0  0  0  0  0  0  0  0  0
   17.2171   -9.1105  -17.8761 C   0  0  1  0  0  0  0  0  0  0  0  0
   16.0039   -9.2491  -17.0112 C   0  0  0  0  0  0  0  0  0  0  0  0
   14.9845  -10.2255  -17.4802 C   0  0  0  0  0  0  0  0  0  0  0  0
   13.8344  -10.3071  -16.5816 C   0  0  0  0  0  0  0  0  0  0  0  0
   12.6465  -10.3199  -17.0305 O   0  0  0  0  0  0  0  0  0  0  0  0
   16.9340   -8.9222  -19.3141 C   0  0  0  0  0  0  0  0  0  0  0  0
   16.9068   -7.7002  -19.9469 O   0  0  0  0  0  0  0  0  0  0  0  0
   13.9881  -10.3745  -15.2009 O   0  0  0  0  0  0  0  0  0  0  0  0
   16.6969   -9.9372  -20.0312 O   0  0  0  0  0  0  0  0  0  0  0  0
  2  1  1  1
  2 10  1  0
  3  2  1  0
  3  4  1  0
  4  5  2  0
  4  9  1  0
  5  6  1  0
  6  7  2  0
  8  7  1  0
  9  8  2  0
 10 11  2  0
 12 10  1  0
 12 13  1  0
 13 14  1  6
 15 14  1  0
 16 15  1  0
 17 16  1  0
 18 17  1  0
 19 13  1  0
 19 20  2  0
 21 19  1  0
 22 21  1  0
 22 27  1  0
 22 23  1  1
 24 23  1  0
 25 24  1  0
 25 26  2  0
 27 30  2  0
 27 28  1  0
 29 25  1  0
M  END
$$$$
