FKE.pdb
     RDKit          3D

 30 30  0  0  1  0  0  0  0  0999 V2000
   28.4059  -20.8657   -9.0619 N   0  0  0  0  0  0  0  0  0  0  0  0
   26.9889  -20.6250   -8.8780 C   0  0  1  0  0  0  0  0  0  0  0  0
   26.8301  -19.3822   -8.0282 C   0  0  0  0  0  0  0  0  0  0  0  0
   27.4019  -19.7038   -6.6792 C   0  0  0  0  0  0  0  0  0  0  0  0
   28.4812  -19.0514   -6.1547 C   0  0  0  0  0  0  0  0  0  0  0  0
   29.0096  -19.3489   -4.9058 C   0  0  0  0  0  0  0  0  0  0  0  0
   28.4281  -20.3357   -4.1658 C   0  0  0  0  0  0  0  0  0  0  0  0
   27.3261  -21.0221   -4.6683 C   0  0  0  0  0  0  0  0  0  0  0  0
   26.8078  -20.7077   -5.9299 C   0  0  0  0  0  0  0  0  0  0  0  0
   26.3268  -20.5232  -10.1840 C   0  0  0  0  0  0  0  0  0  0  0  0
   26.6825  -19.6375  -10.9921 O   0  0  0  0  0  0  0  0  0  0  0  0
   25.2768  -21.4065  -10.5783 N   0  0  0  0  0  0  0  0  0  0  0  0
   24.5559  -21.2937  -11.8075 C   0  0  1  0  0  0  0  0  0  0  0  0
   24.4666  -22.6103  -12.5503 C   0  0  0  0  0  0  0  0  0  0  0  0
   25.3568  -22.6277  -13.7648 C   0  0  0  0  0  0  0  0  0  0  0  0
   25.3100  -23.9301  -14.4999 C   0  0  0  0  0  0  0  0  0  0  0  0
   26.2817  -23.9949  -15.6481 C   0  0  0  0  0  0  0  0  0  0  0  0
   26.2888  -25.2609  -16.3151 N   0  0  0  0  0  0  0  0  0  0  0  0
   23.1428  -20.8356  -11.5803 C   0  0  0  0  0  0  0  0  0  0  0  0
   22.5516  -21.1948  -10.5259 O   0  0  0  0  0  0  0  0  0  0  0  0
   22.4922  -20.0153  -12.5376 N   0  0  0  0  0  0  0  0  0  0  0  0
   21.0984  -19.6490  -12.3373 C   0  0  1  0  0  0  0  0  0  0  0  0
   20.6964  -18.5564  -13.2774 C   0  0  0  0  0  0  0  0  0  0  0  0
   20.5285  -18.9576  -14.6999 C   0  0  0  0  0  0  0  0  0  0  0  0
   19.9933  -17.8765  -15.5256 C   0  0  0  0  0  0  0  0  0  0  0  0
   20.3103  -17.7634  -16.7501 O   0  0  0  0  0  0  0  0  0  0  0  0
   20.2185  -20.8361  -12.3552 C   0  0  0  0  0  0  0  0  0  0  0  0
   19.0079  -20.9153  -11.7053 O   0  0  0  0  0  0  0  0  0  0  0  0
   19.1168  -16.9277  -15.0103 O   0  0  0  0  0  0  0  0  0  0  0  0
   20.5819  -21.8598  -13.0037 O   0  0  0  0  0  0  0  0  0  0  0  0
  2  1  1  6
  2 10  1  0
  3  2  1  0
  3  4  1  0
  4  5  2  0
  4  9  1  0
  5  6  1  0
  6  7  2  0
  8  7  1  0
  9  8  2  0
 10 11  2  0
 12 10  1  0
 12 13  1  0
 13 14  1  1
 15 14  1  0
 16 15  1  0
 17 16  1  0
 18 17  1  0
 19 13  1  0
 19 20  2  0
 21 19  1  0
 22 21  1  0
 22 27  1  0
 22 23  1  6
 24 23  1  0
 25 24  1  0
 25 26  2  0
 27 30  2  0
 27 28  1  0
 29 25  1  0
M  END
$$$$
