FKE.pdb
     RDKit          3D

 30 30  0  0  1  0  0  0  0  0999 V2000
   28.5773  -21.4631  -16.5968 N   0  0  0  0  0  0  0  0  0  0  0  0
   28.0434  -20.2993  -15.9184 C   0  0  1  0  0  0  0  0  0  0  0  0
   27.7957  -19.2240  -16.9550 C   0  0  0  0  0  0  0  0  0  0  0  0
   27.1251  -18.0849  -16.2459 C   0  0  0  0  0  0  0  0  0  0  0  0
   25.7788  -17.8622  -16.3047 C   0  0  0  0  0  0  0  0  0  0  0  0
   25.1583  -16.8082  -15.6478 C   0  0  0  0  0  0  0  0  0  0  0  0
   25.9234  -15.9545  -14.9092 C   0  0  0  0  0  0  0  0  0  0  0  0
   27.2991  -16.1505  -14.8263 C   0  0  0  0  0  0  0  0  0  0  0  0
   27.9063  -17.2191  -15.4961 C   0  0  0  0  0  0  0  0  0  0  0  0
   26.8382  -20.6694  -15.1671 C   0  0  0  0  0  0  0  0  0  0  0  0
   25.9665  -21.3856  -15.7068 O   0  0  0  0  0  0  0  0  0  0  0  0
   26.6140  -20.2399  -13.8240 N   0  0  0  0  0  0  0  0  0  0  0  0
   25.5221  -20.6822  -13.0145 C   0  0  1  0  0  0  0  0  0  0  0  0
   25.7671  -20.4570  -11.5372 C   0  0  0  0  0  0  0  0  0  0  0  0
   24.6290  -20.9738  -10.6973 C   0  0  0  0  0  0  0  0  0  0  0  0
   24.8173  -20.7063   -9.2372 C   0  0  0  0  0  0  0  0  0  0  0  0
   23.7195  -21.2853   -8.3850 C   0  0  0  0  0  0  0  0  0  0  0  0
   23.8164  -20.9152   -7.0060 N   0  0  0  0  0  0  0  0  0  0  0  0
   24.2521  -19.9532  -13.3521 C   0  0  0  0  0  0  0  0  0  0  0  0
   24.2467  -18.6929  -13.3077 O   0  0  0  0  0  0  0  0  0  0  0  0
   23.0852  -20.6749  -13.7128 N   0  0  0  0  0  0  0  0  0  0  0  0
   21.8824  -19.9486  -14.0904 C   0  0  1  0  0  0  0  0  0  0  0  0
   21.6664  -20.0122  -15.5698 C   0  0  0  0  0  0  0  0  0  0  0  0
   20.4383  -19.3401  -16.0726 C   0  0  0  0  0  0  0  0  0  0  0  0
   20.2868  -19.4649  -17.5212 C   0  0  0  0  0  0  0  0  0  0  0  0
   19.2163  -19.1105  -18.1051 O   0  0  0  0  0  0  0  0  0  0  0  0
   20.7209  -20.3641  -13.2768 C   0  0  0  0  0  0  0  0  0  0  0  0
   20.5707  -21.6131  -12.7185 O   0  0  0  0  0  0  0  0  0  0  0  0
   21.3035  -19.9745  -18.3219 O   0  0  0  0  0  0  0  0  0  0  0  0
   19.7899  -19.5336  -13.0668 O   0  0  0  0  0  0  0  0  0  0  0  0
  2  1  1  6
  2 10  1  0
  3  2  1  0
  3  4  1  0
  4  5  2  0
  4  9  1  0
  5  6  1  0
  6  7  2  0
  8  7  1  0
  9  8  2  0
 10 11  2  0
 12 10  1  0
 12 13  1  0
 13 14  1  1
 15 14  1  0
 16 15  1  0
 17 16  1  0
 18 17  1  0
 19 13  1  0
 19 20  2  0
 21 19  1  0
 22 21  1  0
 22 27  1  0
 22 23  1  6
 24 23  1  0
 25 24  1  0
 25 26  2  0
 27 30  2  0
 27 28  1  0
 29 25  1  0
M  END
$$$$
