FKE.pdb
     RDKit          3D

 30 30  0  0  1  0  0  0  0  0999 V2000
   27.6421  -20.5269  -18.4982 N   0  0  0  0  0  0  0  0  0  0  0  0
   27.4754  -19.6502  -17.3566 C   0  0  1  0  0  0  0  0  0  0  0  0
   26.6992  -18.4318  -17.8095 C   0  0  0  0  0  0  0  0  0  0  0  0
   27.6953  -17.4783  -18.3999 C   0  0  0  0  0  0  0  0  0  0  0  0
   28.6146  -16.8038  -17.6479 C   0  0  0  0  0  0  0  0  0  0  0  0
   29.5369  -15.9219  -18.1948 C   0  0  0  0  0  0  0  0  0  0  0  0
   29.5285  -15.7169  -19.5430 C   0  0  0  0  0  0  0  0  0  0  0  0
   28.6057  -16.3872  -20.3411 C   0  0  0  0  0  0  0  0  0  0  0  0
   27.6835  -17.2725  -19.7709 C   0  0  0  0  0  0  0  0  0  0  0  0
   26.8252  -20.3776  -16.2601 C   0  0  0  0  0  0  0  0  0  0  0  0
   25.9931  -21.2748  -16.5187 O   0  0  0  0  0  0  0  0  0  0  0  0
   27.1063  -20.1007  -14.8880 N   0  0  0  0  0  0  0  0  0  0  0  0
   26.4658  -20.7576  -13.7918 C   0  0  1  0  0  0  0  0  0  0  0  0
   27.2432  -20.6210  -12.4996 C   0  0  0  0  0  0  0  0  0  0  0  0
   26.5709  -21.3465  -11.3641 C   0  0  0  0  0  0  0  0  0  0  0  0
   25.6610  -20.4637  -10.5693 C   0  0  0  0  0  0  0  0  0  0  0  0
   25.2269  -21.0831   -9.2675 C   0  0  0  0  0  0  0  0  0  0  0  0
   24.4543  -20.1999   -8.4484 N   0  0  0  0  0  0  0  0  0  0  0  0
   25.0990  -20.1909  -13.5292 C   0  0  0  0  0  0  0  0  0  0  0  0
   24.9963  -18.9696  -13.2322 O   0  0  0  0  0  0  0  0  0  0  0  0
   23.9505  -21.0194  -13.6151 N   0  0  0  0  0  0  0  0  0  0  0  0
   22.6281  -20.4243  -13.4964 C   0  0  1  0  0  0  0  0  0  0  0  0
   21.8187  -20.6798  -14.7289 C   0  0  0  0  0  0  0  0  0  0  0  0
   21.6163  -22.1101  -15.0837 C   0  0  0  0  0  0  0  0  0  0  0  0
   20.6435  -22.2860  -16.1605 C   0  0  0  0  0  0  0  0  0  0  0  0
   19.9620  -21.3085  -16.5996 O   0  0  0  0  0  0  0  0  0  0  0  0
   21.9704  -20.8140  -12.2319 C   0  0  0  0  0  0  0  0  0  0  0  0
   20.9046  -20.1462  -11.6730 O   0  0  0  0  0  0  0  0  0  0  0  0
   20.4213  -23.5258  -16.7503 O   0  0  0  0  0  0  0  0  0  0  0  0
   22.3987  -21.8249  -11.6033 O   0  0  0  0  0  0  0  0  0  0  0  0
  2  1  1  6
  2 10  1  0
  3  2  1  0
  3  4  1  0
  4  5  2  0
  4  9  1  0
  5  6  1  0
  6  7  2  0
  8  7  1  0
  9  8  2  0
 10 11  2  0
 12 10  1  0
 12 13  1  0
 13 14  1  1
 15 14  1  0
 16 15  1  0
 17 16  1  0
 18 17  1  0
 19 13  1  0
 19 20  2  0
 21 19  1  0
 22 21  1  0
 22 27  1  0
 22 23  1  6
 24 23  1  0
 25 24  1  0
 25 26  2  0
 27 30  2  0
 27 28  1  0
 29 25  1  0
M  END
$$$$
