FKE.pdb
     RDKit          3D

 30 30  0  0  1  0  0  0  0  0999 V2000
   24.2982  -13.4856  -18.0225 N   0  0  0  0  0  0  0  0  0  0  0  0
   23.9780  -13.0226  -16.6872 C   0  0  1  0  0  0  0  0  0  0  0  0
   25.2773  -12.7258  -15.9690 C   0  0  0  0  0  0  0  0  0  0  0  0
   25.9520  -14.0442  -15.7312 C   0  0  0  0  0  0  0  0  0  0  0  0
   27.0270  -14.4707  -16.4580 C   0  0  0  0  0  0  0  0  0  0  0  0
   27.6517  -15.6908  -16.2370 C   0  0  0  0  0  0  0  0  0  0  0  0
   27.1742  -16.5030  -15.2512 C   0  0  0  0  0  0  0  0  0  0  0  0
   26.0801  -16.1010  -14.4901 C   0  0  0  0  0  0  0  0  0  0  0  0
   25.4636  -14.8671  -14.7280 C   0  0  0  0  0  0  0  0  0  0  0  0
   23.0795  -11.8647  -16.7631 C   0  0  0  0  0  0  0  0  0  0  0  0
   23.3244  -10.9415  -17.5705 O   0  0  0  0  0  0  0  0  0  0  0  0
   21.9182  -11.7445  -15.9412 N   0  0  0  0  0  0  0  0  0  0  0  0
   20.9770  -10.6730  -16.0382 C   0  0  1  0  0  0  0  0  0  0  0  0
   19.5850  -11.0832  -15.6056 C   0  0  0  0  0  0  0  0  0  0  0  0
   18.9425  -12.0133  -16.6005 C   0  0  0  0  0  0  0  0  0  0  0  0
   18.2455  -13.1667  -15.9503 C   0  0  0  0  0  0  0  0  0  0  0  0
   17.5318  -14.0554  -16.9340 C   0  0  0  0  0  0  0  0  0  0  0  0
   16.8976  -15.1836  -16.3235 N   0  0  0  0  0  0  0  0  0  0  0  0
   21.3690   -9.5118  -15.1686 C   0  0  0  0  0  0  0  0  0  0  0  0
   21.9808   -9.7419  -14.0901 O   0  0  0  0  0  0  0  0  0  0  0  0
   21.0534   -8.1849  -15.5590 N   0  0  0  0  0  0  0  0  0  0  0  0
   21.5455   -7.0691  -14.7655 C   0  0  1  0  0  0  0  0  0  0  0  0
   21.8812   -5.9026  -15.6407 C   0  0  0  0  0  0  0  0  0  0  0  0
   22.3294   -4.6728  -14.9341 C   0  0  0  0  0  0  0  0  0  0  0  0
   22.4572   -3.5274  -15.8333 C   0  0  0  0  0  0  0  0  0  0  0  0
   22.5916   -2.3476  -15.3831 O   0  0  0  0  0  0  0  0  0  0  0  0
   20.6352   -6.7593  -13.6434 C   0  0  0  0  0  0  0  0  0  0  0  0
   19.2673   -6.6600  -13.7579 O   0  0  0  0  0  0  0  0  0  0  0  0
   22.4379   -3.6769  -17.2159 O   0  0  0  0  0  0  0  0  0  0  0  0
   21.1232   -6.5680  -12.4920 O   0  0  0  0  0  0  0  0  0  0  0  0
  2  1  1  6
  2 10  1  0
  3  2  1  0
  3  4  1  0
  4  5  2  0
  4  9  1  0
  5  6  1  0
  6  7  2  0
  8  7  1  0
  9  8  2  0
 10 11  2  0
 12 10  1  0
 12 13  1  0
 13 14  1  1
 15 14  1  0
 16 15  1  0
 17 16  1  0
 18 17  1  0
 19 13  1  0
 19 20  2  0
 21 19  1  0
 22 21  1  0
 22 27  1  0
 22 23  1  6
 24 23  1  0
 25 24  1  0
 25 26  2  0
 27 30  2  0
 27 28  1  0
 29 25  1  0
M  END
$$$$
