FKE.pdb
     RDKit          3D

 30 30  0  0  1  0  0  0  0  0999 V2000
   25.8304  -10.5751  -18.2997 N   0  0  0  0  0  0  0  0  0  0  0  0
   25.2450  -10.6493  -16.9762 C   0  0  1  0  0  0  0  0  0  0  0  0
   26.3435  -10.4079  -15.9627 C   0  0  0  0  0  0  0  0  0  0  0  0
   27.3148  -11.5430  -16.0978 C   0  0  0  0  0  0  0  0  0  0  0  0
   28.5311  -11.4121  -16.7053 C   0  0  0  0  0  0  0  0  0  0  0  0
   29.4301  -12.4628  -16.8294 C   0  0  0  0  0  0  0  0  0  0  0  0
   29.0878  -13.6819  -16.3234 C   0  0  0  0  0  0  0  0  0  0  0  0
   27.8562  -13.8525  -15.6974 C   0  0  0  0  0  0  0  0  0  0  0  0
   26.9631  -12.7809  -15.5820 C   0  0  0  0  0  0  0  0  0  0  0  0
   24.1355   -9.6947  -16.8675 C   0  0  0  0  0  0  0  0  0  0  0  0
   24.2065   -8.5920  -17.4533 O   0  0  0  0  0  0  0  0  0  0  0  0
   22.9588   -9.9752  -16.1093 N   0  0  0  0  0  0  0  0  0  0  0  0
   21.8062   -9.1301  -16.0791 C   0  0  1  0  0  0  0  0  0  0  0  0
   20.5968   -9.8200  -15.4837 C   0  0  0  0  0  0  0  0  0  0  0  0
   20.0844  -10.9185  -16.3773 C   0  0  0  0  0  0  0  0  0  0  0  0
   18.9215  -11.6518  -15.7868 C   0  0  0  0  0  0  0  0  0  0  0  0
   18.4297  -12.7771  -16.6578 C   0  0  0  0  0  0  0  0  0  0  0  0
   17.4892  -13.6333  -16.0018 N   0  0  0  0  0  0  0  0  0  0  0  0
   22.0447   -7.8984  -15.2520 C   0  0  0  0  0  0  0  0  0  0  0  0
   22.6506   -8.0150  -14.1521 O   0  0  0  0  0  0  0  0  0  0  0  0
   21.5941   -6.6318  -15.7053 N   0  0  0  0  0  0  0  0  0  0  0  0
   21.9844   -5.4319  -14.9809 C   0  0  1  0  0  0  0  0  0  0  0  0
   21.8646   -4.2224  -15.8539 C   0  0  0  0  0  0  0  0  0  0  0  0
   22.1535   -2.9199  -15.1961 C   0  0  0  0  0  0  0  0  0  0  0  0
   21.9328   -1.7828  -16.0879 C   0  0  0  0  0  0  0  0  0  0  0  0
   20.7776   -1.2770  -16.2378 O   0  0  0  0  0  0  0  0  0  0  0  0
   21.2843   -5.3306  -13.6835 C   0  0  0  0  0  0  0  0  0  0  0  0
   21.8752   -4.9133  -12.5126 O   0  0  0  0  0  0  0  0  0  0  0  0
   22.9728   -1.2059  -16.8088 O   0  0  0  0  0  0  0  0  0  0  0  0
   20.0602   -5.6440  -13.6204 O   0  0  0  0  0  0  0  0  0  0  0  0
  2  1  1  6
  2 10  1  0
  3  2  1  0
  3  4  1  0
  4  5  2  0
  4  9  1  0
  5  6  1  0
  6  7  2  0
  8  7  1  0
  9  8  2  0
 10 11  2  0
 12 10  1  0
 12 13  1  0
 13 14  1  1
 15 14  1  0
 16 15  1  0
 17 16  1  0
 18 17  1  0
 19 13  1  0
 19 20  2  0
 21 19  1  0
 22 21  1  0
 22 27  1  0
 22 23  1  6
 24 23  1  0
 25 24  1  0
 25 26  2  0
 27 30  2  0
 27 28  1  0
 29 25  1  0
M  END
$$$$
