FKE.pdb
     RDKit          3D

 30 30  0  0  1  0  0  0  0  0999 V2000
   21.5774  -19.8358  -12.2596 N   0  0  0  0  0  0  0  0  0  0  0  0
   22.9891  -19.7750  -12.5809 C   0  0  1  0  0  0  0  0  0  0  0  0
   23.5885  -21.1412  -12.3235 C   0  0  0  0  0  0  0  0  0  0  0  0
   23.9918  -21.1723  -10.8790 C   0  0  0  0  0  0  0  0  0  0  0  0
   23.1433  -21.5523   -9.8785 C   0  0  0  0  0  0  0  0  0  0  0  0
   23.5171  -21.5816   -8.5417 C   0  0  0  0  0  0  0  0  0  0  0  0
   24.7877  -21.2157   -8.2080 C   0  0  0  0  0  0  0  0  0  0  0  0
   25.6802  -20.8226   -9.2014 C   0  0  0  0  0  0  0  0  0  0  0  0
   25.2844  -20.7995  -10.5438 C   0  0  0  0  0  0  0  0  0  0  0  0
   23.1664  -19.3149  -13.9633 C   0  0  0  0  0  0  0  0  0  0  0  0
   22.1971  -19.3366  -14.7532 O   0  0  0  0  0  0  0  0  0  0  0  0
   24.4187  -18.8354  -14.4535 N   0  0  0  0  0  0  0  0  0  0  0  0
   24.6036  -18.2611  -15.7494 C   0  0  1  0  0  0  0  0  0  0  0  0
   25.9831  -17.6622  -15.9267 C   0  0  0  0  0  0  0  0  0  0  0  0
   26.1232  -16.9665  -17.2549 C   0  0  0  0  0  0  0  0  0  0  0  0
   27.5063  -16.4491  -17.4959 C   0  0  0  0  0  0  0  0  0  0  0  0
   27.6057  -15.5787  -18.7203 C   0  0  0  0  0  0  0  0  0  0  0  0
   28.9489  -15.2065  -19.0447 N   0  0  0  0  0  0  0  0  0  0  0  0
   24.4402  -19.2852  -16.8369 C   0  0  0  0  0  0  0  0  0  0  0  0
   24.9035  -20.4436  -16.6529 O   0  0  0  0  0  0  0  0  0  0  0  0
   23.7770  -18.9487  -18.0450 N   0  0  0  0  0  0  0  0  0  0  0  0
   23.2198  -20.0063  -18.8744 C   0  0  1  0  0  0  0  0  0  0  0  0
   22.2193  -20.8116  -18.1064 C   0  0  0  0  0  0  0  0  0  0  0  0
   20.8224  -20.3010  -18.1325 C   0  0  0  0  0  0  0  0  0  0  0  0
   19.8483  -21.3193  -17.7438 C   0  0  0  0  0  0  0  0  0  0  0  0
   19.4680  -22.2139  -18.5609 O   0  0  0  0  0  0  0  0  0  0  0  0
   22.7313  -19.4810  -20.1663 C   0  0  0  0  0  0  0  0  0  0  0  0
   21.4202  -19.1521  -20.4251 O   0  0  0  0  0  0  0  0  0  0  0  0
   19.2967  -21.3547  -16.4675 O   0  0  0  0  0  0  0  0  0  0  0  0
   23.5548  -19.3151  -21.1124 O   0  0  0  0  0  0  0  0  0  0  0  0
  2  1  1  6
  2 10  1  0
  3  2  1  0
  3  4  1  0
  4  5  2  0
  4  9  1  0
  5  6  1  0
  6  7  2  0
  8  7  1  0
  9  8  2  0
 10 11  2  0
 12 10  1  0
 12 13  1  0
 13 14  1  1
 15 14  1  0
 16 15  1  0
 17 16  1  0
 18 17  1  0
 19 13  1  0
 19 20  2  0
 21 19  1  0
 22 21  1  0
 22 27  1  0
 22 23  1  1
 24 23  1  0
 25 24  1  0
 25 26  2  0
 27 30  2  0
 27 28  1  0
 29 25  1  0
M  END
$$$$
