YSK.pdb
     RDKit          3D

 28 28  0  0  1  0  0  0  0  0999 V2000
   18.8740  -21.3210  -17.3263 O   0  0  0  0  0  0  0  0  0  0  0  0
   19.1484  -19.9680  -17.4594 C   0  0  0  0  0  0  0  0  0  0  0  0
   20.4063  -19.6180  -17.9277 C   0  0  0  0  0  0  0  0  0  0  0  0
   20.6891  -18.2735  -18.0637 C   0  0  0  0  0  0  0  0  0  0  0  0
   19.7589  -17.3250  -17.7465 C   0  0  0  0  0  0  0  0  0  0  0  0
   20.0651  -15.8778  -17.8935 C   0  0  0  0  0  0  0  0  0  0  0  0
   19.3386  -15.3980  -19.1307 C   0  0  2  0  0  0  0  0  0  0  0  0
   19.7976  -16.0763  -20.3137 N   0  0  0  0  0  0  0  0  0  0  0  0
   19.4228  -13.9191  -19.2710 C   0  0  0  0  0  0  0  0  0  0  0  0
   20.5007  -13.3670  -19.6636 O   0  0  0  0  0  0  0  0  0  0  0  0
   18.5069  -17.7045  -17.2796 C   0  0  0  0  0  0  0  0  0  0  0  0
   18.2161  -19.0309  -17.1412 C   0  0  0  0  0  0  0  0  0  0  0  0
   16.4629  -11.4527  -17.7761 O   0  0  0  0  0  0  0  0  0  0  0  0
   16.9186  -11.0825  -19.0313 C   0  0  0  0  0  0  0  0  0  0  0  0
   18.3178  -11.6315  -19.2106 C   0  0  2  0  0  0  0  0  0  0  0  0
   18.3291  -13.0742  -18.9798 N   0  0  0  0  0  0  0  0  0  0  0  0
   19.2719  -11.0279  -18.2804 C   0  0  0  0  0  0  0  0  0  0  0  0
   19.5702  -11.5843  -17.1703 O   0  0  0  0  0  0  0  0  0  0  0  0
   19.9021   -9.7952  -18.5862 N   0  0  0  0  0  0  0  0  0  0  0  0
   20.8039   -9.1310  -17.6285 C   0  0  1  0  0  0  0  0  0  0  0  0
   22.1324   -8.8837  -18.3030 C   0  0  0  0  0  0  0  0  0  0  0  0
   23.1315   -8.1916  -17.4516 C   0  0  0  0  0  0  0  0  0  0  0  0
   24.4401   -7.9156  -18.1255 C   0  0  0  0  0  0  0  0  0  0  0  0
   25.4079   -7.1580  -17.2801 C   0  0  0  0  0  0  0  0  0  0  0  0
   26.5956   -6.7503  -17.9982 N   0  0  0  0  0  0  0  0  0  0  0  0
   20.1314   -7.9198  -17.1610 C   0  0  0  0  0  0  0  0  0  0  0  0
   19.3425   -7.3003  -17.8996 O   0  0  0  0  0  0  0  0  0  0  0  0
   20.3600   -7.4364  -15.8811 O   0  0  0  0  0  0  0  0  0  0  0  0
  2 12  2  0
  2  1  1  0
  3  2  1  0
  4  5  1  0
  4  3  2  0
  5 11  2  0
  6  5  1  0
  7  9  1  0
  7  6  1  0
  7  8  1  6
  9 16  1  0
  9 10  2  0
 11 12  1  0
 13 14  1  0
 15 14  1  1
 15 17  1  0
 16 15  1  0
 17 18  2  0
 19 17  1  0
 19 20  1  0
 20 26  1  0
 20 21  1  6
 22 21  1  0
 23 22  1  0
 24 23  1  0
 25 24  1  0
 26 28  1  0
 27 26  2  0
M  END
$$$$
