YSK.pdb
     RDKit          3D

 28 28  0  0  1  0  0  0  0  0999 V2000
   28.6160  -23.6264  -17.2539 O   0  0  0  0  0  0  0  0  0  0  0  0
   27.6867  -23.0810  -16.3805 C   0  0  0  0  0  0  0  0  0  0  0  0
   27.8624  -21.7551  -16.0129 C   0  0  0  0  0  0  0  0  0  0  0  0
   26.9424  -21.2031  -15.1438 C   0  0  0  0  0  0  0  0  0  0  0  0
   25.8976  -21.9414  -14.6657 C   0  0  0  0  0  0  0  0  0  0  0  0
   24.9082  -21.3454  -13.7300 C   0  0  0  0  0  0  0  0  0  0  0  0
   23.6525  -21.0770  -14.5301 C   0  0  2  0  0  0  0  0  0  0  0  0
   23.8440  -20.0128  -15.4793 N   0  0  0  0  0  0  0  0  0  0  0  0
   22.4857  -20.8252  -13.6418 C   0  0  0  0  0  0  0  0  0  0  0  0
   22.3702  -19.7181  -13.0239 O   0  0  0  0  0  0  0  0  0  0  0  0
   25.7465  -23.2673  -15.0510 C   0  0  0  0  0  0  0  0  0  0  0  0
   26.6498  -23.8237  -15.9097 C   0  0  0  0  0  0  0  0  0  0  0  0
   18.0792  -20.9161  -12.4538 O   0  0  0  0  0  0  0  0  0  0  0  0
   19.1594  -21.0096  -13.3166 C   0  0  0  0  0  0  0  0  0  0  0  0
   20.3247  -21.6072  -12.5573 C   0  0  2  0  0  0  0  0  0  0  0  0
   21.4698  -21.7869  -13.4467 N   0  0  0  0  0  0  0  0  0  0  0  0
   20.0000  -22.9139  -11.9855 C   0  0  0  0  0  0  0  0  0  0  0  0
   20.2784  -24.0008  -12.5953 O   0  0  0  0  0  0  0  0  0  0  0  0
   19.3615  -23.0151  -10.7237 N   0  0  0  0  0  0  0  0  0  0  0  0
   19.0182  -24.3216  -10.1349 C   0  0  1  0  0  0  0  0  0  0  0  0
   18.5347  -24.1055   -8.7205 C   0  0  0  0  0  0  0  0  0  0  0  0
   18.0381  -25.3323   -8.0494 C   0  0  0  0  0  0  0  0  0  0  0  0
   17.5430  -25.1212   -6.6519 C   0  0  0  0  0  0  0  0  0  0  0  0
   17.1289  -26.3766   -5.9607 C   0  0  0  0  0  0  0  0  0  0  0  0
   16.5832  -26.1480   -4.6407 N   0  0  0  0  0  0  0  0  0  0  0  0
   18.0383  -24.9554  -11.0159 C   0  0  0  0  0  0  0  0  0  0  0  0
   18.1556  -26.1501  -11.3487 O   0  0  0  0  0  0  0  0  0  0  0  0
   16.9557  -24.2354  -11.4989 O   0  0  0  0  0  0  0  0  0  0  0  0
  2 12  2  0
  2  1  1  0
  3  2  1  0
  4  5  1  0
  4  3  2  0
  5 11  2  0
  6  5  1  0
  7  9  1  0
  7  6  1  0
  7  8  1  6
  9 16  1  0
  9 10  2  0
 11 12  1  0
 13 14  1  0
 15 14  1  6
 15 17  1  0
 16 15  1  0
 17 18  2  0
 19 17  1  0
 19 20  1  0
 20 26  1  0
 20 21  1  1
 22 21  1  0
 23 22  1  0
 24 23  1  0
 25 24  1  0
 26 28  1  0
 27 26  2  0
M  END
$$$$
