YSK.pdb
     RDKit          3D

 28 28  0  0  1  0  0  0  0  0999 V2000
   23.7181  -26.9379  -14.0251 O   0  0  0  0  0  0  0  0  0  0  0  0
   23.7497  -25.5560  -13.9109 C   0  0  0  0  0  0  0  0  0  0  0  0
   23.2738  -24.8188  -14.9853 C   0  0  0  0  0  0  0  0  0  0  0  0
   23.3011  -23.4424  -14.8811 C   0  0  0  0  0  0  0  0  0  0  0  0
   23.7809  -22.8328  -13.7571 C   0  0  0  0  0  0  0  0  0  0  0  0
   23.8095  -21.3507  -13.6467 C   0  0  0  0  0  0  0  0  0  0  0  0
   24.9485  -20.8668  -14.5171 C   0  0  2  0  0  0  0  0  0  0  0  0
   26.2266  -21.1002  -13.8987 N   0  0  0  0  0  0  0  0  0  0  0  0
   24.7702  -19.4407  -14.9019 C   0  0  0  0  0  0  0  0  0  0  0  0
   24.6482  -18.5404  -14.0100 O   0  0  0  0  0  0  0  0  0  0  0  0
   24.2512  -23.5964  -12.6963 C   0  0  0  0  0  0  0  0  0  0  0  0
   24.2292  -24.9581  -12.7879 C   0  0  0  0  0  0  0  0  0  0  0  0
   25.5694  -18.2005  -18.7377 O   0  0  0  0  0  0  0  0  0  0  0  0
   25.6307  -17.2825  -17.7016 C   0  0  0  0  0  0  0  0  0  0  0  0
   24.5682  -17.6410  -16.6847 C   0  0  2  0  0  0  0  0  0  0  0  0
   24.7289  -19.0272  -16.2519 N   0  0  0  0  0  0  0  0  0  0  0  0
   23.2161  -17.5009  -17.2251 C   0  0  0  0  0  0  0  0  0  0  0  0
   22.4028  -18.4848  -17.2612 O   0  0  0  0  0  0  0  0  0  0  0  0
   22.7619  -16.2560  -17.7291 N   0  0  0  0  0  0  0  0  0  0  0  0
   21.4050  -16.0954  -18.2809 C   0  0  1  0  0  0  0  0  0  0  0  0
   20.3999  -16.4529  -17.2118 C   0  0  0  0  0  0  0  0  0  0  0  0
   18.9842  -16.3546  -17.6454 C   0  0  0  0  0  0  0  0  0  0  0  0
   17.9824  -16.6856  -16.5825 C   0  0  0  0  0  0  0  0  0  0  0  0
   16.5806  -16.7855  -17.0825 C   0  0  0  0  0  0  0  0  0  0  0  0
   15.6112  -16.9840  -16.0273 N   0  0  0  0  0  0  0  0  0  0  0  0
   21.2934  -14.7248  -18.7779 C   0  0  0  0  0  0  0  0  0  0  0  0
   22.1644  -13.8749  -18.5119 O   0  0  0  0  0  0  0  0  0  0  0  0
   20.2116  -14.3443  -19.5583 O   0  0  0  0  0  0  0  0  0  0  0  0
  2 12  2  0
  2  1  1  0
  3  2  1  0
  4  5  1  0
  4  3  2  0
  5 11  2  0
  6  5  1  0
  7  9  1  0
  7  6  1  0
  7  8  1  1
  9 16  1  0
  9 10  2  0
 11 12  1  0
 13 14  1  0
 15 14  1  6
 15 17  1  0
 16 15  1  0
 17 18  2  0
 19 17  1  0
 19 20  1  0
 20 26  1  0
 20 21  1  1
 22 21  1  0
 23 22  1  0
 24 23  1  0
 25 24  1  0
 26 28  1  0
 27 26  2  0
M  END
$$$$
