YSK.pdb
     RDKit          3D

 28 28  0  0  1  0  0  0  0  0999 V2000
    9.4518   -9.6135   -7.0708 O   0  0  0  0  0  0  0  0  0  0  0  0
   10.7009   -9.2114   -7.5200 C   0  0  0  0  0  0  0  0  0  0  0  0
   11.0998   -7.9184   -7.2148 C   0  0  0  0  0  0  0  0  0  0  0  0
   12.3417   -7.5088   -7.6576 C   0  0  0  0  0  0  0  0  0  0  0  0
   13.1457   -8.3516   -8.3709 C   0  0  0  0  0  0  0  0  0  0  0  0
   14.4825   -7.9088   -8.8469 C   0  0  0  0  0  0  0  0  0  0  0  0
   14.2500   -7.0312  -10.0571 C   0  0  2  0  0  0  0  0  0  0  0  0
   13.6696   -7.7705  -11.1465 N   0  0  0  0  0  0  0  0  0  0  0  0
   15.4958   -6.3275  -10.4653 C   0  0  0  0  0  0  0  0  0  0  0  0
   16.0639   -6.6064  -11.5700 O   0  0  0  0  0  0  0  0  0  0  0  0
   12.7203   -9.6415   -8.6620 C   0  0  0  0  0  0  0  0  0  0  0  0
   11.4944  -10.0574   -8.2294 C   0  0  0  0  0  0  0  0  0  0  0  0
   16.1933   -2.5199   -9.1449 O   0  0  0  0  0  0  0  0  0  0  0  0
   17.3369   -3.3021   -9.1244 C   0  0  0  0  0  0  0  0  0  0  0  0
   17.1556   -4.4362  -10.1103 C   0  0  2  0  0  0  0  0  0  0  0  0
   16.0953   -5.3346   -9.6593 N   0  0  0  0  0  0  0  0  0  0  0  0
   18.3726   -5.2327  -10.2667 C   0  0  0  0  0  0  0  0  0  0  0  0
   18.8549   -5.9171   -9.3025 O   0  0  0  0  0  0  0  0  0  0  0  0
   19.0601   -5.2708  -11.5061 N   0  0  0  0  0  0  0  0  0  0  0  0
   20.2539   -6.1126  -11.7009 C   0  0  1  0  0  0  0  0  0  0  0  0
   19.9199   -7.2101  -12.6831 C   0  0  0  0  0  0  0  0  0  0  0  0
   21.0742   -8.0600  -13.0669 C   0  0  0  0  0  0  0  0  0  0  0  0
   20.7750   -9.0767  -14.1250 C   0  0  0  0  0  0  0  0  0  0  0  0
   21.9648   -9.8632  -14.5619 C   0  0  0  0  0  0  0  0  0  0  0  0
   21.6292  -10.9723  -15.4278 N   0  0  0  0  0  0  0  0  0  0  0  0
   21.3439   -5.2355  -12.1258 C   0  0  0  0  0  0  0  0  0  0  0  0
   21.1086   -4.1454  -12.6808 O   0  0  0  0  0  0  0  0  0  0  0  0
   22.6653   -5.6024  -11.9177 O   0  0  0  0  0  0  0  0  0  0  0  0
  2 12  2  0
  2  1  1  0
  3  2  1  0
  4  5  1  0
  4  3  2  0
  5 11  2  0
  6  5  1  0
  7  9  1  0
  7  6  1  0
  7  8  1  6
  9 16  1  0
  9 10  2  0
 11 12  1  0
 13 14  1  0
 15 14  1  1
 15 17  1  0
 16 15  1  0
 17 18  2  0
 19 17  1  0
 19 20  1  0
 20 26  1  0
 20 21  1  6
 22 21  1  0
 23 22  1  0
 24 23  1  0
 25 24  1  0
 26 28  1  0
 27 26  2  0
M  END
$$$$
