YSK.pdb
     RDKit          3D

 28 28  0  0  1  0  0  0  0  0999 V2000
   25.9541  -16.9218  -21.4193 O   0  0  0  0  0  0  0  0  0  0  0  0
   25.1421  -17.5432  -20.4822 C   0  0  0  0  0  0  0  0  0  0  0  0
   23.9981  -16.8669  -20.0847 C   0  0  0  0  0  0  0  0  0  0  0  0
   23.1833  -17.4774  -19.1522 C   0  0  0  0  0  0  0  0  0  0  0  0
   23.4974  -18.7048  -18.6420 C   0  0  0  0  0  0  0  0  0  0  0  0
   22.6189  -19.3605  -17.6380 C   0  0  0  0  0  0  0  0  0  0  0  0
   22.9738  -18.7704  -16.2909 C   0  0  2  0  0  0  0  0  0  0  0  0
   24.3507  -19.0123  -15.9504 N   0  0  0  0  0  0  0  0  0  0  0  0
   22.0474  -19.2462  -15.2283 C   0  0  0  0  0  0  0  0  0  0  0  0
   22.2385  -20.3686  -14.6586 O   0  0  0  0  0  0  0  0  0  0  0  0
   24.6497  -19.3591  -19.0584 C   0  0  0  0  0  0  0  0  0  0  0  0
   25.4629  -18.7652  -19.9799 C   0  0  0  0  0  0  0  0  0  0  0  0
   18.8758  -16.8438  -13.9526 O   0  0  0  0  0  0  0  0  0  0  0  0
   19.4607  -17.6964  -13.0300 C   0  0  0  0  0  0  0  0  0  0  0  0
   19.9947  -18.9042  -13.7698 C   0  0  2  0  0  0  0  0  0  0  0  0
   20.9322  -18.4871  -14.8099 N   0  0  0  0  0  0  0  0  0  0  0  0
   18.9303  -19.6716  -14.4163 C   0  0  0  0  0  0  0  0  0  0  0  0
   18.6151  -19.4826  -15.6393 O   0  0  0  0  0  0  0  0  0  0  0  0
   18.2097  -20.6593  -13.6985 N   0  0  0  0  0  0  0  0  0  0  0  0
   17.0796  -21.3843  -14.3060 C   0  0  1  0  0  0  0  0  0  0  0  0
   16.8070  -22.6281  -13.4939 C   0  0  0  0  0  0  0  0  0  0  0  0
   15.7306  -23.4915  -14.0396 C   0  0  0  0  0  0  0  0  0  0  0  0
   15.3085  -24.6081  -13.1353 C   0  0  0  0  0  0  0  0  0  0  0  0
   14.2646  -25.4987  -13.7203 C   0  0  0  0  0  0  0  0  0  0  0  0
   13.7392  -26.4595  -12.7752 N   0  0  0  0  0  0  0  0  0  0  0  0
   15.9529  -20.4554  -14.3813 C   0  0  0  0  0  0  0  0  0  0  0  0
   15.8278  -19.5329  -13.5537 O   0  0  0  0  0  0  0  0  0  0  0  0
   14.9990  -20.5846  -15.3800 O   0  0  0  0  0  0  0  0  0  0  0  0
  2 12  2  0
  2  1  1  0
  3  2  1  0
  4  5  1  0
  4  3  2  0
  5 11  2  0
  6  5  1  0
  7  9  1  0
  7  6  1  0
  7  8  1  1
  9 16  1  0
  9 10  2  0
 11 12  1  0
 13 14  1  0
 15 14  1  6
 15 17  1  0
 16 15  1  0
 17 18  2  0
 19 17  1  0
 19 20  1  0
 20 26  1  0
 20 21  1  1
 22 21  1  0
 23 22  1  0
 24 23  1  0
 25 24  1  0
 26 28  1  0
 27 26  2  0
M  END
$$$$
