YSK.pdb
     RDKit          3D

 28 28  0  0  1  0  0  0  0  0999 V2000
   14.8924  -20.3634    0.9936 O   0  0  0  0  0  0  0  0  0  0  0  0
   15.6044  -20.6007    2.1600 C   0  0  0  0  0  0  0  0  0  0  0  0
   16.4298  -21.7153    2.1848 C   0  0  0  0  0  0  0  0  0  0  0  0
   17.1427  -21.9599    3.3415 C   0  0  0  0  0  0  0  0  0  0  0  0
   17.0354  -21.1302    4.4210 C   0  0  0  0  0  0  0  0  0  0  0  0
   17.8037  -21.3952    5.6657 C   0  0  0  0  0  0  0  0  0  0  0  0
   19.1827  -21.8515    5.2424 C   0  0  2  0  0  0  0  0  0  0  0  0
   19.1267  -23.0561    4.4575 N   0  0  0  0  0  0  0  0  0  0  0  0
   20.0910  -21.9931    6.4124 C   0  0  0  0  0  0  0  0  0  0  0  0
   20.4127  -23.1462    6.8457 O   0  0  0  0  0  0  0  0  0  0  0  0
   16.2009  -20.0210    4.3680 C   0  0  0  0  0  0  0  0  0  0  0  0
   15.4911  -19.7691    3.2296 C   0  0  0  0  0  0  0  0  0  0  0  0
   22.8427  -19.0975    7.5446 O   0  0  0  0  0  0  0  0  0  0  0  0
   22.0549  -19.5739    8.5802 C   0  0  0  0  0  0  0  0  0  0  0  0
   21.5616  -20.9553    8.2063 C   0  0  2  0  0  0  0  0  0  0  0  0
   20.6289  -20.8734    7.0847 N   0  0  0  0  0  0  0  0  0  0  0  0
   20.8656  -21.6120    9.3127 C   0  0  0  0  0  0  0  0  0  0  0  0
   19.5956  -21.7458    9.3211 O   0  0  0  0  0  0  0  0  0  0  0  0
   21.5864  -22.1264   10.4198 N   0  0  0  0  0  0  0  0  0  0  0  0
   20.9144  -22.8694   11.5006 C   0  0  1  0  0  0  0  0  0  0  0  0
   20.1982  -24.0566   10.9020 C   0  0  0  0  0  0  0  0  0  0  0  0
   18.9023  -24.3794   11.5488 C   0  0  0  0  0  0  0  0  0  0  0  0
   18.1816  -25.5484   10.9514 C   0  0  0  0  0  0  0  0  0  0  0  0
   16.8722  -25.8476   11.6002 C   0  0  0  0  0  0  0  0  0  0  0  0
   16.1869  -26.9760   11.0088 N   0  0  0  0  0  0  0  0  0  0  0  0
   21.9318  -23.2169   12.4917 C   0  0  0  0  0  0  0  0  0  0  0  0
   23.1426  -23.0509   12.2509 O   0  0  0  0  0  0  0  0  0  0  0  0
   21.5658  -23.7397   13.7233 O   0  0  0  0  0  0  0  0  0  0  0  0
  2 12  2  0
  2  1  1  0
  3  2  1  0
  4  5  1  0
  4  3  2  0
  5 11  2  0
  6  5  1  0
  7  9  1  0
  7  6  1  0
  7  8  1  1
  9 16  1  0
  9 10  2  0
 11 12  1  0
 13 14  1  0
 15 14  1  1
 15 17  1  0
 16 15  1  0
 17 18  2  0
 19 17  1  0
 19 20  1  0
 20 26  1  0
 20 21  1  6
 22 21  1  0
 23 22  1  0
 24 23  1  0
 25 24  1  0
 26 28  1  0
 27 26  2  0
M  END
$$$$
