YSK.pdb
     RDKit          3D

 28 28  0  0  1  0  0  0  0  0999 V2000
   28.9848  -18.8286   -4.0864 O   0  0  0  0  0  0  0  0  0  0  0  0
   28.4733  -19.3820   -5.2509 C   0  0  0  0  0  0  0  0  0  0  0  0
   27.1901  -19.9057   -5.1950 C   0  0  0  0  0  0  0  0  0  0  0  0
   26.6722  -20.4588   -6.3492 C   0  0  0  0  0  0  0  0  0  0  0  0
   27.4022  -20.4868   -7.5031 C   0  0  0  0  0  0  0  0  0  0  0  0
   26.8430  -21.0828   -8.7447 C   0  0  0  0  0  0  0  0  0  0  0  0
   25.9839  -20.0203   -9.3943 C   0  0  2  0  0  0  0  0  0  0  0  0
   24.7825  -19.7744   -8.6418 N   0  0  0  0  0  0  0  0  0  0  0  0
   25.6909  -20.3520  -10.8149 C   0  0  0  0  0  0  0  0  0  0  0  0
   24.5082  -20.6517  -11.1785 O   0  0  0  0  0  0  0  0  0  0  0  0
   28.6851  -19.9548   -7.5299 C   0  0  0  0  0  0  0  0  0  0  0  0
   29.2076  -19.4054   -6.3949 C   0  0  0  0  0  0  0  0  0  0  0  0
   28.4501  -21.2329  -13.8492 O   0  0  0  0  0  0  0  0  0  0  0  0
   27.7469  -20.0473  -13.9903 C   0  0  0  0  0  0  0  0  0  0  0  0
   26.4405  -20.1762  -13.2367 C   0  0  2  0  0  0  0  0  0  0  0  0
   26.6949  -20.3497  -11.8084 N   0  0  0  0  0  0  0  0  0  0  0  0
   25.6530  -21.3235  -13.6877 C   0  0  0  0  0  0  0  0  0  0  0  0
   25.6609  -22.4328  -13.0551 O   0  0  0  0  0  0  0  0  0  0  0  0
   24.8478  -21.2381  -14.8515 N   0  0  0  0  0  0  0  0  0  0  0  0
   23.7548  -22.1933  -15.1057 C   0  0  1  0  0  0  0  0  0  0  0  0
   22.8158  -22.1837  -13.9230 C   0  0  0  0  0  0  0  0  0  0  0  0
   21.5854  -22.9914  -14.1119 C   0  0  0  0  0  0  0  0  0  0  0  0
   20.6216  -22.9361  -12.9670 C   0  0  0  0  0  0  0  0  0  0  0  0
   19.3605  -23.6977  -13.2005 C   0  0  0  0  0  0  0  0  0  0  0  0
   18.4915  -23.7309  -12.0445 N   0  0  0  0  0  0  0  0  0  0  0  0
   23.1305  -21.8175  -16.3734 C   0  0  0  0  0  0  0  0  0  0  0  0
   22.6271  -22.6792  -17.1189 O   0  0  0  0  0  0  0  0  0  0  0  0
   23.0867  -20.4892  -16.7705 O   0  0  0  0  0  0  0  0  0  0  0  0
  2 12  2  0
  2  1  1  0
  3  2  1  0
  4  5  1  0
  4  3  2  0
  5 11  2  0
  6  5  1  0
  7  9  1  0
  7  6  1  0
  7  8  1  1
  9 16  1  0
  9 10  2  0
 11 12  1  0
 13 14  1  0
 15 14  1  6
 15 17  1  0
 16 15  1  0
 17 18  2  0
 19 17  1  0
 19 20  1  0
 20 26  1  0
 20 21  1  1
 22 21  1  0
 23 22  1  0
 24 23  1  0
 25 24  1  0
 26 28  1  0
 27 26  2  0
M  END
$$$$
