YSK.pdb
     RDKit          3D

 28 28  0  0  1  0  0  0  0  0999 V2000
   25.8854  -16.3948  -19.9248 O   0  0  0  0  0  0  0  0  0  0  0  0
   24.8723  -17.0677  -19.2579 C   0  0  0  0  0  0  0  0  0  0  0  0
   24.4843  -16.5690  -18.0231 C   0  0  0  0  0  0  0  0  0  0  0  0
   23.4765  -17.2319  -17.3515 C   0  0  0  0  0  0  0  0  0  0  0  0
   22.8856  -18.3398  -17.8888 C   0  0  0  0  0  0  0  0  0  0  0  0
   21.8007  -19.0524  -17.1642 C   0  0  0  0  0  0  0  0  0  0  0  0
   22.4677  -19.9423  -16.1385 C   0  0  2  0  0  0  0  0  0  0  0  0
   23.3276  -20.9156  -16.7578 N   0  0  0  0  0  0  0  0  0  0  0  0
   21.4678  -20.5780  -15.2385 C   0  0  0  0  0  0  0  0  0  0  0  0
   20.8257  -21.6117  -15.6125 O   0  0  0  0  0  0  0  0  0  0  0  0
   23.2945  -18.8171  -19.1275 C   0  0  0  0  0  0  0  0  0  0  0  0
   24.2900  -18.1698  -19.8007 C   0  0  0  0  0  0  0  0  0  0  0  0
   20.3006  -18.6560  -11.7773 O   0  0  0  0  0  0  0  0  0  0  0  0
   20.3505  -20.0355  -11.6574 C   0  0  0  0  0  0  0  0  0  0  0  0
   20.1992  -20.6389  -13.0374 C   0  0  2  0  0  0  0  0  0  0  0  0
   21.1899  -20.0720  -13.9494 N   0  0  0  0  0  0  0  0  0  0  0  0
   18.8767  -20.3862  -13.6093 C   0  0  0  0  0  0  0  0  0  0  0  0
   18.6638  -19.4058  -14.3995 O   0  0  0  0  0  0  0  0  0  0  0  0
   17.7802  -21.2307  -13.3020 N   0  0  0  0  0  0  0  0  0  0  0  0
   16.4268  -20.9566  -13.8168 C   0  0  1  0  0  0  0  0  0  0  0  0
   15.9192  -22.1877  -14.5293 C   0  0  0  0  0  0  0  0  0  0  0  0
   14.5392  -22.0621  -15.0601 C   0  0  0  0  0  0  0  0  0  0  0  0
   14.0461  -23.2642  -15.8048 C   0  0  0  0  0  0  0  0  0  0  0  0
   12.7172  -23.0706  -16.4541 C   0  0  0  0  0  0  0  0  0  0  0  0
   12.3488  -24.1569  -17.3354 N   0  0  0  0  0  0  0  0  0  0  0  0
   15.6043  -20.5343  -12.6841 C   0  0  0  0  0  0  0  0  0  0  0  0
   15.7863  -21.0118  -11.5481 O   0  0  0  0  0  0  0  0  0  0  0  0
   14.6024  -19.5902  -12.8543 O   0  0  0  0  0  0  0  0  0  0  0  0
  2 12  2  0
  2  1  1  0
  3  2  1  0
  4  5  1  0
  4  3  2  0
  5 11  2  0
  6  5  1  0
  7  9  1  0
  7  6  1  0
  7  8  1  6
  9 16  1  0
  9 10  2  0
 11 12  1  0
 13 14  1  0
 15 14  1  1
 15 17  1  0
 16 15  1  0
 17 18  2  0
 19 17  1  0
 19 20  1  0
 20 26  1  0
 20 21  1  1
 22 21  1  0
 23 22  1  0
 24 23  1  0
 25 24  1  0
 26 28  1  0
 27 26  2  0
M  END
$$$$
