YSK.pdb
     RDKit          3D

 28 28  0  0  1  0  0  0  0  0999 V2000
   26.6610   -1.6749  -16.0384 O   0  0  0  0  0  0  0  0  0  0  0  0
   25.6025   -2.5541  -15.8636 C   0  0  0  0  0  0  0  0  0  0  0  0
   25.8684   -3.9068  -16.0174 C   0  0  0  0  0  0  0  0  0  0  0  0
   24.8212   -4.7899  -15.8454 C   0  0  0  0  0  0  0  0  0  0  0  0
   23.5689   -4.3419  -15.5347 C   0  0  0  0  0  0  0  0  0  0  0  0
   22.4426   -5.2943  -15.3500 C   0  0  0  0  0  0  0  0  0  0  0  0
   22.2375   -5.9951  -16.6750 C   0  0  2  0  0  0  0  0  0  0  0  0
   22.1538   -5.0590  -17.7644 N   0  0  0  0  0  0  0  0  0  0  0  0
   21.0600   -6.9038  -16.6324 C   0  0  0  0  0  0  0  0  0  0  0  0
   19.9674   -6.5737  -17.1963 O   0  0  0  0  0  0  0  0  0  0  0  0
   23.3316   -2.9813  -15.3868 C   0  0  0  0  0  0  0  0  0  0  0  0
   24.3593   -2.0988  -15.5545 C   0  0  0  0  0  0  0  0  0  0  0  0
   20.9666  -10.1359  -14.0873 O   0  0  0  0  0  0  0  0  0  0  0  0
   20.4529  -10.4206  -15.3424 C   0  0  0  0  0  0  0  0  0  0  0  0
   20.0062   -9.1221  -15.9795 C   0  0  2  0  0  0  0  0  0  0  0  0
   21.1000   -8.1535  -15.9753 N   0  0  0  0  0  0  0  0  0  0  0  0
   18.8783   -8.5179  -15.2705 C   0  0  0  0  0  0  0  0  0  0  0  0
   19.0187   -7.4667  -14.5591 O   0  0  0  0  0  0  0  0  0  0  0  0
   17.5817   -9.0854  -15.3531 N   0  0  0  0  0  0  0  0  0  0  0  0
   16.4198   -8.4538  -14.7028 C   0  0  1  0  0  0  0  0  0  0  0  0
   16.2972   -7.0330  -15.2000 C   0  0  0  0  0  0  0  0  0  0  0  0
   15.0508   -6.3442  -14.7828 C   0  0  0  0  0  0  0  0  0  0  0  0
   14.9405   -4.9230  -15.2421 C   0  0  0  0  0  0  0  0  0  0  0  0
   13.6670   -4.2559  -14.8445 C   0  0  0  0  0  0  0  0  0  0  0  0
   13.5458   -2.9075  -15.3540 N   0  0  0  0  0  0  0  0  0  0  0  0
   15.2538   -9.2914  -14.9797 C   0  0  0  0  0  0  0  0  0  0  0  0
   15.2053  -10.0031  -16.0009 O   0  0  0  0  0  0  0  0  0  0  0  0
   14.1759   -9.3092  -14.1068 O   0  0  0  0  0  0  0  0  0  0  0  0
  2 12  2  0
  2  1  1  0
  3  2  1  0
  4  5  1  0
  4  3  2  0
  5 11  2  0
  6  5  1  0
  7  9  1  0
  7  6  1  0
  7  8  1  6
  9 16  1  0
  9 10  2  0
 11 12  1  0
 13 14  1  0
 15 14  1  1
 15 17  1  0
 16 15  1  0
 17 18  2  0
 19 17  1  0
 19 20  1  0
 20 26  1  0
 20 21  1  6
 22 21  1  0
 23 22  1  0
 24 23  1  0
 25 24  1  0
 26 28  1  0
 27 26  2  0
M  END
$$$$
