YSK.pdb
     RDKit          3D

 28 28  0  0  1  0  0  0  0  0999 V2000
   21.2282  -19.4740  -18.6302 O   0  0  0  0  0  0  0  0  0  0  0  0
   21.4764  -18.1470  -18.3119 C   0  0  0  0  0  0  0  0  0  0  0  0
   20.5318  -17.4928  -17.5349 C   0  0  0  0  0  0  0  0  0  0  0  0
   20.7699  -16.1715  -17.2127 C   0  0  0  0  0  0  0  0  0  0  0  0
   21.8980  -15.5355  -17.6466 C   0  0  0  0  0  0  0  0  0  0  0  0
   22.1527  -14.1129  -17.2988 C   0  0  0  0  0  0  0  0  0  0  0  0
   23.1912  -14.1083  -16.1986 C   0  0  2  0  0  0  0  0  0  0  0  0
   22.9216  -15.1170  -15.2086 N   0  0  0  0  0  0  0  0  0  0  0  0
   23.3325  -12.7576  -15.5906 C   0  0  0  0  0  0  0  0  0  0  0  0
   22.3310  -12.1804  -15.0572 O   0  0  0  0  0  0  0  0  0  0  0  0
   22.8271  -16.2156  -18.4236 C   0  0  0  0  0  0  0  0  0  0  0  0
   22.6023  -17.5222  -18.7484 C   0  0  0  0  0  0  0  0  0  0  0  0
   26.8187  -10.6128  -16.1344 O   0  0  0  0  0  0  0  0  0  0  0  0
   26.2280  -10.4148  -14.8967 C   0  0  0  0  0  0  0  0  0  0  0  0
   24.7523  -10.7294  -15.0177 C   0  0  2  0  0  0  0  0  0  0  0  0
   24.5638  -12.0656  -15.5777 N   0  0  0  0  0  0  0  0  0  0  0  0
   24.0550   -9.7831  -15.8885 C   0  0  0  0  0  0  0  0  0  0  0  0
   23.9572   -9.9763  -17.1470 O   0  0  0  0  0  0  0  0  0  0  0  0
   23.4592   -8.6117  -15.3567 N   0  0  0  0  0  0  0  0  0  0  0  0
   22.7222   -7.6642  -16.2117 C   0  0  1  0  0  0  0  0  0  0  0  0
   21.5946   -8.4013  -16.8945 C   0  0  0  0  0  0  0  0  0  0  0  0
   20.7168   -7.5415  -17.7264 C   0  0  0  0  0  0  0  0  0  0  0  0
   19.5091   -8.2336  -18.2790 C   0  0  0  0  0  0  0  0  0  0  0  0
   18.6351   -7.3548  -19.1089 C   0  0  0  0  0  0  0  0  0  0  0  0
   17.4403   -8.0200  -19.5808 N   0  0  0  0  0  0  0  0  0  0  0  0
   22.2897   -6.5542  -15.3639 C   0  0  0  0  0  0  0  0  0  0  0  0
   22.3667   -6.6292  -14.1229 O   0  0  0  0  0  0  0  0  0  0  0  0
   21.7839   -5.3924  -15.9283 O   0  0  0  0  0  0  0  0  0  0  0  0
  2 12  2  0
  2  1  1  0
  3  2  1  0
  4  5  1  0
  4  3  2  0
  5 11  2  0
  6  5  1  0
  7  9  1  0
  7  6  1  0
  7  8  1  1
  9 16  1  0
  9 10  2  0
 11 12  1  0
 13 14  1  0
 15 14  1  6
 15 17  1  0
 16 15  1  0
 17 18  2  0
 19 17  1  0
 19 20  1  0
 20 26  1  0
 20 21  1  1
 22 21  1  0
 23 22  1  0
 24 23  1  0
 25 24  1  0
 26 28  1  0
 27 26  2  0
M  END
$$$$
