YSK.pdb
     RDKit          3D

 28 28  0  0  1  0  0  0  0  0999 V2000
   18.8122  -14.3638  -17.7445 O   0  0  0  0  0  0  0  0  0  0  0  0
   18.7724  -13.0385  -17.3375 C   0  0  0  0  0  0  0  0  0  0  0  0
   19.9859  -12.3831  -17.1885 C   0  0  0  0  0  0  0  0  0  0  0  0
   19.9567  -11.0634  -16.7837 C   0  0  0  0  0  0  0  0  0  0  0  0
   18.7716  -10.4301  -16.5396 C   0  0  0  0  0  0  0  0  0  0  0  0
   18.7421   -9.0092  -16.1038 C   0  0  0  0  0  0  0  0  0  0  0  0
   19.1451   -8.9881  -14.6457 C   0  0  2  0  0  0  0  0  0  0  0  0
   18.2490   -9.7690  -13.8349 N   0  0  0  0  0  0  0  0  0  0  0  0
   19.2805   -7.5954  -14.1396 C   0  0  0  0  0  0  0  0  0  0  0  0
   18.2516   -6.9296  -13.7947 O   0  0  0  0  0  0  0  0  0  0  0  0
   17.5713  -11.1113  -16.6970 C   0  0  0  0  0  0  0  0  0  0  0  0
   17.5878  -12.4163  -17.0968 C   0  0  0  0  0  0  0  0  0  0  0  0
   23.0008   -5.7771  -14.1564 O   0  0  0  0  0  0  0  0  0  0  0  0
   22.1394   -5.3278  -13.1684 C   0  0  0  0  0  0  0  0  0  0  0  0
   20.7181   -5.5620  -13.6335 C   0  0  2  0  0  0  0  0  0  0  0  0
   20.5358   -6.9590  -14.0205 N   0  0  0  0  0  0  0  0  0  0  0  0
   20.3712   -4.7347  -14.7890 C   0  0  0  0  0  0  0  0  0  0  0  0
   20.5342   -5.1509  -15.9852 O   0  0  0  0  0  0  0  0  0  0  0  0
   19.8368   -3.4331  -14.6148 N   0  0  0  0  0  0  0  0  0  0  0  0
   19.4374   -2.6024  -15.7646 C   0  0  1  0  0  0  0  0  0  0  0  0
   18.1389   -1.9058  -15.4333 C   0  0  0  0  0  0  0  0  0  0  0  0
   17.6019   -1.0596  -16.5276 C   0  0  0  0  0  0  0  0  0  0  0  0
   16.2868   -0.4101  -16.2252 C   0  0  0  0  0  0  0  0  0  0  0  0
   15.6952    0.3249  -17.3806 C   0  0  0  0  0  0  0  0  0  0  0  0
   14.4988    1.0614  -17.0362 N   0  0  0  0  0  0  0  0  0  0  0  0
   20.5479   -1.6978  -16.0585 C   0  0  0  0  0  0  0  0  0  0  0  0
   21.3599   -1.3724  -15.1717 O   0  0  0  0  0  0  0  0  0  0  0  0
   20.7187   -1.1837  -17.3354 O   0  0  0  0  0  0  0  0  0  0  0  0
  2 12  2  0
  2  1  1  0
  3  2  1  0
  4  5  1  0
  4  3  2  0
  5 11  2  0
  6  5  1  0
  7  9  1  0
  7  6  1  0
  7  8  1  1
  9 16  1  0
  9 10  2  0
 11 12  1  0
 13 14  1  0
 15 14  1  6
 15 17  1  0
 16 15  1  0
 17 18  2  0
 19 17  1  0
 19 20  1  0
 20 26  1  0
 20 21  1  1
 22 21  1  0
 23 22  1  0
 24 23  1  0
 25 24  1  0
 26 28  1  0
 27 26  2  0
M  END
$$$$
