AMF.pdb
     RDKit          3D

 25 25  0  0  1  0  0  0  0  0999 V2000
    7.4863  -19.1115   19.3299 C   0  0  0  0  0  0  0  0  0  0  0  0
    7.6834  -18.9950   20.8425 C   0  0  2  0  0  0  0  0  0  0  0  0
    6.4211  -18.8987   21.5213 N   0  0  0  0  0  0  0  0  0  0  0  0
    8.5637  -17.8296   21.1171 C   0  0  0  0  0  0  0  0  0  0  0  0
    9.7404  -17.8720   20.7384 O   0  0  0  0  0  0  0  0  0  0  0  0
    8.3629  -12.1322   19.2920 C   0  0  0  0  0  0  0  0  0  0  0  0
    6.7982  -12.9139   19.7622 S   0  0  0  0  0  0  0  0  0  0  0  0
    7.2298  -14.4671   20.6340 C   0  0  0  0  0  0  0  0  0  0  0  0
    8.5241  -14.3049   21.3815 C   0  0  0  0  0  0  0  0  0  0  0  0
    8.9659  -15.5301   22.1008 C   0  0  2  0  0  0  0  0  0  0  0  0
    8.1049  -16.6703   21.7972 N   0  0  0  0  0  0  0  0  0  0  0  0
    9.1116  -15.3626   23.5662 C   0  0  0  0  0  0  0  0  0  0  0  0
    9.4283  -14.2957   24.1469 O   0  0  0  0  0  0  0  0  0  0  0  0
    8.8740  -16.4991   24.3843 N   0  0  0  0  0  0  0  0  0  0  0  0
    8.8293  -16.4366   25.8359 C   0  0  1  0  0  0  0  0  0  0  0  0
    7.3906  -16.0289   26.1672 C   0  0  0  0  0  0  0  0  0  0  0  0
    7.3477  -14.5767   26.4036 C   0  0  0  0  0  0  0  0  0  0  0  0
    8.4126  -13.8356   26.8671 C   0  0  0  0  0  0  0  0  0  0  0  0
    8.2784  -12.4775   27.0534 C   0  0  0  0  0  0  0  0  0  0  0  0
    7.0788  -11.8293   26.7814 C   0  0  0  0  0  0  0  0  0  0  0  0
    6.0213  -12.5620   26.3217 C   0  0  0  0  0  0  0  0  0  0  0  0
    6.1413  -13.9321   26.1288 C   0  0  0  0  0  0  0  0  0  0  0  0
    9.1713  -17.7639   26.3592 C   0  0  0  0  0  0  0  0  0  0  0  0
    9.5704  -17.8979   27.6665 O   0  0  0  0  0  0  0  0  0  0  0  0
    9.1043  -18.7695   25.6280 O   0  0  0  0  0  0  0  0  0  0  0  0
  2  1  1  6
  2  4  1  0
  3  2  1  0
  4 11  1  0
  4  5  2  0
  6  7  1  0
  8  7  1  0
  9  8  1  0
 10  9  1  1
 11 10  1  0
 12 10  1  0
 12 13  2  0
 14 15  1  0
 14 12  1  0
 16 17  1  0
 15 16  1  6
 17 18  2  0
 19 18  1  0
 20 19  2  0
 21 20  1  0
 22 21  2  0
 22 17  1  0
 23 15  1  0
 24 23  1  0
 25 23  2  0
M  END
$$$$
