AMF.pdb
     RDKit          3D

 25 25  0  0  1  0  0  0  0  0999 V2000
    6.1936  -19.4939   23.8736 C   0  0  0  0  0  0  0  0  0  0  0  0
    6.1725  -19.0946   22.3970 C   0  0  2  0  0  0  0  0  0  0  0  0
    6.2459  -20.2514   21.5486 N   0  0  0  0  0  0  0  0  0  0  0  0
    7.2837  -18.1395   22.1486 C   0  0  0  0  0  0  0  0  0  0  0  0
    8.4004  -18.5888   21.8643 O   0  0  0  0  0  0  0  0  0  0  0  0
    6.4345  -12.5533   19.5536 C   0  0  0  0  0  0  0  0  0  0  0  0
    7.9978  -12.0144   20.2926 S   0  0  0  0  0  0  0  0  0  0  0  0
    8.7297  -13.4870   21.1018 C   0  0  0  0  0  0  0  0  0  0  0  0
    7.6727  -14.5269   21.3497 C   0  0  0  0  0  0  0  0  0  0  0  0
    8.1883  -15.7806   21.9627 C   0  0  2  0  0  0  0  0  0  0  0  0
    7.1113  -16.7319   22.2251 N   0  0  0  0  0  0  0  0  0  0  0  0
    9.0109  -15.5763   23.1786 C   0  0  0  0  0  0  0  0  0  0  0  0
   10.1129  -14.9764   23.2171 O   0  0  0  0  0  0  0  0  0  0  0  0
    8.5157  -16.0999   24.4026 N   0  0  0  0  0  0  0  0  0  0  0  0
    9.1880  -15.9089   25.6772 C   0  0  1  0  0  0  0  0  0  0  0  0
    8.0590  -15.6745   26.6852 C   0  0  0  0  0  0  0  0  0  0  0  0
    7.5748  -14.2913   26.5477 C   0  0  0  0  0  0  0  0  0  0  0  0
    6.2810  -13.9529   26.2167 C   0  0  0  0  0  0  0  0  0  0  0  0
    5.9192  -12.6276   26.1158 C   0  0  0  0  0  0  0  0  0  0  0  0
    6.8405  -11.6113   26.3428 C   0  0  0  0  0  0  0  0  0  0  0  0
    8.1242  -11.9444   26.6711 C   0  0  0  0  0  0  0  0  0  0  0  0
    8.5040  -13.2760   26.7767 C   0  0  0  0  0  0  0  0  0  0  0  0
    9.9599  -17.1215   25.9707 C   0  0  0  0  0  0  0  0  0  0  0  0
   10.8100  -17.1427   27.0492 O   0  0  0  0  0  0  0  0  0  0  0  0
    9.8521  -18.1309   25.2496 O   0  0  0  0  0  0  0  0  0  0  0  0
  2  1  1  1
  2  4  1  0
  3  2  1  0
  4 11  1  0
  4  5  2  0
  6  7  1  0
  8  7  1  0
  9  8  1  0
 10  9  1  1
 11 10  1  0
 12 10  1  0
 12 13  2  0
 14 15  1  0
 14 12  1  0
 16 17  1  0
 15 16  1  1
 17 18  2  0
 19 18  1  0
 20 19  2  0
 21 20  1  0
 22 21  2  0
 22 17  1  0
 23 15  1  0
 24 23  1  0
 25 23  2  0
M  END
$$$$
