AMF.pdb
     RDKit          3D

 25 25  0  0  1  0  0  0  0  0999 V2000
    6.8014  -19.2251   19.6213 C   0  0  0  0  0  0  0  0  0  0  0  0
    7.2659  -19.0612   21.0697 C   0  0  2  0  0  0  0  0  0  0  0  0
    6.1524  -19.1024   21.9764 N   0  0  0  0  0  0  0  0  0  0  0  0
    8.0381  -17.7961   21.1793 C   0  0  0  0  0  0  0  0  0  0  0  0
    9.0733  -17.6729   20.5138 O   0  0  0  0  0  0  0  0  0  0  0  0
    8.3049  -11.8246   19.9553 C   0  0  0  0  0  0  0  0  0  0  0  0
    7.9939  -13.4457   19.2097 S   0  0  0  0  0  0  0  0  0  0  0  0
    6.8758  -14.3420   20.3523 C   0  0  0  0  0  0  0  0  0  0  0  0
    7.4236  -14.3104   21.7519 C   0  0  0  0  0  0  0  0  0  0  0  0
    8.3324  -15.4440   22.0725 C   0  0  2  0  0  0  0  0  0  0  0  0
    7.6321  -16.7248   22.0185 N   0  0  0  0  0  0  0  0  0  0  0  0
    9.0616  -15.3023   23.3550 C   0  0  0  0  0  0  0  0  0  0  0  0
    9.9642  -14.4616   23.5878 O   0  0  0  0  0  0  0  0  0  0  0  0
    8.7139  -16.1877   24.4098 N   0  0  0  0  0  0  0  0  0  0  0  0
    9.3160  -16.1228   25.7313 C   0  0  1  0  0  0  0  0  0  0  0  0
    8.1346  -15.9691   26.6938 C   0  0  0  0  0  0  0  0  0  0  0  0
    7.6173  -14.5942   26.6000 C   0  0  0  0  0  0  0  0  0  0  0  0
    6.3361  -14.2739   26.2078 C   0  0  0  0  0  0  0  0  0  0  0  0
    5.9405  -12.9555   26.1549 C   0  0  0  0  0  0  0  0  0  0  0  0
    6.8146  -11.9283   26.4921 C   0  0  0  0  0  0  0  0  0  0  0  0
    8.0858  -12.2434   26.8813 C   0  0  0  0  0  0  0  0  0  0  0  0
    8.4993  -13.5679   26.9396 C   0  0  0  0  0  0  0  0  0  0  0  0
   10.0624  -17.3664   25.9528 C   0  0  0  0  0  0  0  0  0  0  0  0
   10.1618  -18.2898   24.9410 O   0  0  0  0  0  0  0  0  0  0  0  0
   10.6050  -17.5924   27.0505 O   0  0  0  0  0  0  0  0  0  0  0  0
  2  1  1  6
  2  4  1  0
  3  2  1  0
  4 11  1  0
  4  5  2  0
  6  7  1  0
  8  7  1  0
  9  8  1  0
 10  9  1  1
 11 10  1  0
 12 10  1  0
 12 13  2  0
 14 15  1  0
 14 12  1  0
 16 17  1  0
 15 16  1  1
 17 18  2  0
 19 18  1  0
 20 19  2  0
 21 20  1  0
 22 21  2  0
 22 17  1  0
 23 15  1  0
 24 23  1  0
 25 23  2  0
M  END
$$$$
