AMF.pdb
     RDKit          3D

 25 25  0  0  1  0  0  0  0  0999 V2000
    8.7221  -12.8204   20.2735 C   0  0  0  0  0  0  0  0  0  0  0  0
    7.8768  -14.0101   19.8148 C   0  0  2  0  0  0  0  0  0  0  0  0
    6.8196  -13.5850   18.9401 N   0  0  0  0  0  0  0  0  0  0  0  0
    7.3658  -14.7196   21.0165 C   0  0  0  0  0  0  0  0  0  0  0  0
    6.3802  -14.2581   21.6041 O   0  0  0  0  0  0  0  0  0  0  0  0
    6.1089  -20.6792   21.5169 C   0  0  0  0  0  0  0  0  0  0  0  0
    6.5452  -20.5619   23.2709 S   0  0  0  0  0  0  0  0  0  0  0  0
    6.7034  -18.7764   23.6531 C   0  0  0  0  0  0  0  0  0  0  0  0
    7.2690  -18.0371   22.4725 C   0  0  0  0  0  0  0  0  0  0  0  0
    7.5039  -16.5890   22.7204 C   0  0  2  0  0  0  0  0  0  0  0  0
    7.9661  -15.9064   21.5145 N   0  0  0  0  0  0  0  0  0  0  0  0
    8.4052  -16.2998   23.8610 C   0  0  0  0  0  0  0  0  0  0  0  0
    9.6553  -16.2089   23.7933 O   0  0  0  0  0  0  0  0  0  0  0  0
    7.8102  -16.1087   25.1365 N   0  0  0  0  0  0  0  0  0  0  0  0
    8.5770  -15.7939   26.3306 C   0  0  1  0  0  0  0  0  0  0  0  0
    7.5713  -15.1375   27.2812 C   0  0  0  0  0  0  0  0  0  0  0  0
    7.3489  -13.7462   26.8554 C   0  0  0  0  0  0  0  0  0  0  0  0
    8.3203  -12.7692   26.8631 C   0  0  0  0  0  0  0  0  0  0  0  0
    8.0183  -11.4933   26.4408 C   0  0  0  0  0  0  0  0  0  0  0  0
    6.7407  -11.1645   26.0019 C   0  0  0  0  0  0  0  0  0  0  0  0
    5.7756  -12.1316   25.9935 C   0  0  0  0  0  0  0  0  0  0  0  0
    6.0648  -13.4225   26.4161 C   0  0  0  0  0  0  0  0  0  0  0  0
    9.1201  -17.0473   26.8661 C   0  0  0  0  0  0  0  0  0  0  0  0
    8.7167  -18.2467   26.3324 O   0  0  0  0  0  0  0  0  0  0  0  0
    9.9422  -17.0328   27.8012 O   0  0  0  0  0  0  0  0  0  0  0  0
  2  1  1  1
  2  4  1  0
  3  2  1  0
  4 11  1  0
  4  5  2  0
  6  7  1  0
  8  7  1  0
  9  8  1  0
 10  9  1  6
 11 10  1  0
 12 10  1  0
 12 13  2  0
 14 15  1  0
 14 12  1  0
 16 17  1  0
 15 16  1  1
 17 18  2  0
 19 18  1  0
 20 19  2  0
 21 20  1  0
 22 21  2  0
 22 17  1  0
 23 15  1  0
 24 23  1  0
 25 23  2  0
M  END
$$$$
