AMF.pdb
     RDKit          3D

 25 25  0  0  1  0  0  0  0  0999 V2000
    7.2225  -12.5144   19.5424 C   0  0  0  0  0  0  0  0  0  0  0  0
    8.3154  -13.5340   19.8685 C   0  0  2  0  0  0  0  0  0  0  0  0
    8.5555  -14.4074   18.7537 N   0  0  0  0  0  0  0  0  0  0  0  0
    7.9204  -14.2763   21.0939 C   0  0  0  0  0  0  0  0  0  0  0  0
    7.6384  -13.6337   22.1124 O   0  0  0  0  0  0  0  0  0  0  0  0
    7.7897  -21.1322   22.5906 C   0  0  0  0  0  0  0  0  0  0  0  0
    6.1478  -20.3678   22.5619 S   0  0  0  0  0  0  0  0  0  0  0  0
    6.3765  -18.6171   23.0535 C   0  0  0  0  0  0  0  0  0  0  0  0
    7.0303  -17.8432   21.9428 C   0  0  0  0  0  0  0  0  0  0  0  0
    7.3510  -16.4334   22.2938 C   0  0  2  0  0  0  0  0  0  0  0  0
    7.8547  -15.6942   21.1390 N   0  0  0  0  0  0  0  0  0  0  0  0
    8.2664  -16.2816   23.4495 C   0  0  0  0  0  0  0  0  0  0  0  0
    9.5201  -16.2766   23.3867 O   0  0  0  0  0  0  0  0  0  0  0  0
    7.6819  -16.1284   24.7349 N   0  0  0  0  0  0  0  0  0  0  0  0
    8.4598  -15.8621   25.9338 C   0  0  1  0  0  0  0  0  0  0  0  0
    7.4505  -15.3013   26.9400 C   0  0  0  0  0  0  0  0  0  0  0  0
    7.1720  -13.8954   26.6047 C   0  0  0  0  0  0  0  0  0  0  0  0
    5.9250  -13.3140   26.6779 C   0  0  0  0  0  0  0  0  0  0  0  0
    5.7626  -11.9867   26.3476 C   0  0  0  0  0  0  0  0  0  0  0  0
    6.8407  -11.2106   25.9370 C   0  0  0  0  0  0  0  0  0  0  0  0
    8.0782  -11.7848   25.8634 C   0  0  0  0  0  0  0  0  0  0  0  0
    8.2578  -13.1219   26.1933 C   0  0  0  0  0  0  0  0  0  0  0  0
    9.0544  -17.1268   26.3806 C   0  0  0  0  0  0  0  0  0  0  0  0
   10.1556  -17.1086   27.2010 O   0  0  0  0  0  0  0  0  0  0  0  0
    8.5702  -18.2161   26.0210 O   0  0  0  0  0  0  0  0  0  0  0  0
  2  1  1  6
  2  4  1  0
  3  2  1  0
  4 11  1  0
  4  5  2  0
  6  7  1  0
  8  7  1  0
  9  8  1  0
 10  9  1  6
 11 10  1  0
 12 10  1  0
 12 13  2  0
 14 15  1  0
 14 12  1  0
 16 17  1  0
 15 16  1  1
 17 18  2  0
 19 18  1  0
 20 19  2  0
 21 20  1  0
 22 21  2  0
 22 17  1  0
 23 15  1  0
 24 23  1  0
 25 23  2  0
M  END
$$$$
