AMF.pdb
     RDKit          3D

 25 25  0  0  1  0  0  0  0  0999 V2000
    7.1230  -20.0513   22.2626 C   0  0  0  0  0  0  0  0  0  0  0  0
    7.1782  -19.0610   21.0978 C   0  0  2  0  0  0  0  0  0  0  0  0
    7.3726  -19.7437   19.8490 N   0  0  0  0  0  0  0  0  0  0  0  0
    8.2483  -18.0668   21.3715 C   0  0  0  0  0  0  0  0  0  0  0  0
    9.4127  -18.3479   21.0638 O   0  0  0  0  0  0  0  0  0  0  0  0
    8.4698  -12.3108   19.4556 C   0  0  0  0  0  0  0  0  0  0  0  0
    6.8627  -13.0471   19.8506 S   0  0  0  0  0  0  0  0  0  0  0  0
    7.2061  -14.5712   20.8088 C   0  0  0  0  0  0  0  0  0  0  0  0
    8.5834  -14.5125   21.4088 C   0  0  0  0  0  0  0  0  0  0  0  0
    8.9934  -15.7603   22.1076 C   0  0  2  0  0  0  0  0  0  0  0  0
    7.9840  -16.8074   21.9724 N   0  0  0  0  0  0  0  0  0  0  0  0
    9.3634  -15.5736   23.5307 C   0  0  0  0  0  0  0  0  0  0  0  0
   10.3067  -14.8581   23.9476 O   0  0  0  0  0  0  0  0  0  0  0  0
    8.5899  -16.2579   24.5058 N   0  0  0  0  0  0  0  0  0  0  0  0
    8.8967  -16.2276   25.9264 C   0  0  1  0  0  0  0  0  0  0  0  0
    7.5828  -15.8263   26.6033 C   0  0  0  0  0  0  0  0  0  0  0  0
    7.4630  -14.3594   26.5830 C   0  0  0  0  0  0  0  0  0  0  0  0
    8.5020  -13.4937   26.8459 C   0  0  0  0  0  0  0  0  0  0  0  0
    8.2945  -12.1329   26.7982 C   0  0  0  0  0  0  0  0  0  0  0  0
    7.0459  -11.6062   26.4873 C   0  0  0  0  0  0  0  0  0  0  0  0
    6.0139  -12.4626   26.2264 C   0  0  0  0  0  0  0  0  0  0  0  0
    6.2076  -13.8371   26.2705 C   0  0  0  0  0  0  0  0  0  0  0  0
    9.3468  -17.5663   26.3234 C   0  0  0  0  0  0  0  0  0  0  0  0
    9.4298  -18.5632   25.3823 O   0  0  0  0  0  0  0  0  0  0  0  0
    9.6526  -17.8068   27.5062 O   0  0  0  0  0  0  0  0  0  0  0  0
  2  1  1  1
  2  4  1  0
  3  2  1  0
  4 11  1  0
  4  5  2  0
  6  7  1  0
  8  7  1  0
  9  8  1  0
 10  9  1  1
 11 10  1  0
 12 10  1  0
 12 13  2  0
 14 15  1  0
 14 12  1  0
 16 17  1  0
 15 16  1  1
 17 18  2  0
 19 18  1  0
 20 19  2  0
 21 20  1  0
 22 21  2  0
 22 17  1  0
 23 15  1  0
 24 23  1  0
 25 23  2  0
M  END
$$$$
