AMF.pdb
     RDKit          3D

 25 25  0  0  1  0  0  0  0  0999 V2000
    9.4953  -16.4411   18.3622 C   0  0  0  0  0  0  0  0  0  0  0  0
    8.9714  -17.1451   19.6154 C   0  0  2  0  0  0  0  0  0  0  0  0
    7.5437  -17.2945   19.5643 N   0  0  0  0  0  0  0  0  0  0  0  0
    9.4179  -16.3813   20.8095 C   0  0  0  0  0  0  0  0  0  0  0  0
   10.6254  -16.1548   20.9520 O   0  0  0  0  0  0  0  0  0  0  0  0
    6.2645  -12.6692   26.5113 C   0  0  0  0  0  0  0  0  0  0  0  0
    6.9791  -12.0987   24.9479 S   0  0  0  0  0  0  0  0  0  0  0  0
    8.3197  -13.2746   24.5247 C   0  0  0  0  0  0  0  0  0  0  0  0
    7.9173  -14.1268   23.3533 C   0  0  0  0  0  0  0  0  0  0  0  0
    8.9336  -15.1415   22.9648 C   0  0  2  0  0  0  0  0  0  0  0  0
    8.5109  -15.9024   21.7918 N   0  0  0  0  0  0  0  0  0  0  0  0
    9.3395  -16.0543   24.0597 C   0  0  0  0  0  0  0  0  0  0  0  0
    8.6245  -16.9617   24.5508 O   0  0  0  0  0  0  0  0  0  0  0  0
   10.6430  -15.8932   24.6003 N   0  0  0  0  0  0  0  0  0  0  0  0
   11.2281  -16.8234   25.5518 C   0  0  1  0  0  0  0  0  0  0  0  0
   10.1466  -17.0273   26.6171 C   0  0  0  0  0  0  0  0  0  0  0  0
   10.0941  -15.8354   27.4792 C   0  0  0  0  0  0  0  0  0  0  0  0
   11.0007  -15.5631   28.4803 C   0  0  0  0  0  0  0  0  0  0  0  0
   10.8724  -14.4171   29.2336 C   0  0  0  0  0  0  0  0  0  0  0  0
    9.8367  -13.5181   29.0048 C   0  0  0  0  0  0  0  0  0  0  0  0
    8.9364  -13.7860   28.0127 C   0  0  0  0  0  0  0  0  0  0  0  0
    9.0526  -14.9372   27.2446 C   0  0  0  0  0  0  0  0  0  0  0  0
   11.5520  -18.0626   24.8363 C   0  0  0  0  0  0  0  0  0  0  0  0
   12.3764  -18.9914   25.4228 O   0  0  0  0  0  0  0  0  0  0  0  0
   11.0872  -18.2787   23.7015 O   0  0  0  0  0  0  0  0  0  0  0  0
  2  1  1  6
  2  4  1  0
  3  2  1  0
  4 11  1  0
  4  5  2  0
  6  7  1  0
  8  7  1  0
  9  8  1  0
 10  9  1  1
 11 10  1  0
 12 10  1  0
 12 13  2  0
 14 15  1  0
 14 12  1  0
 16 17  1  0
 15 16  1  1
 17 18  2  0
 19 18  1  0
 20 19  2  0
 21 20  1  0
 22 21  2  0
 22 17  1  0
 23 15  1  0
 24 23  1  0
 25 23  2  0
M  END
$$$$
