AMF.pdb
     RDKit          3D

 25 25  0  0  1  0  0  0  0  0999 V2000
    4.7230  -21.9975   21.1335 C   0  0  0  0  0  0  0  0  0  0  0  0
    5.8127  -20.9257   21.1979 C   0  0  2  0  0  0  0  0  0  0  0  0
    7.1096  -21.4932   20.9539 N   0  0  0  0  0  0  0  0  0  0  0  0
    5.7317  -20.2463   22.5171 C   0  0  0  0  0  0  0  0  0  0  0  0
    4.6633  -19.7185   22.8485 O   0  0  0  0  0  0  0  0  0  0  0  0
    8.2166  -20.2513   28.7064 C   0  0  0  0  0  0  0  0  0  0  0  0
    7.3551  -21.6914   28.0249 S   0  0  0  0  0  0  0  0  0  0  0  0
    6.5960  -21.1495   26.4472 C   0  0  0  0  0  0  0  0  0  0  0  0
    7.4770  -20.1425   25.7617 C   0  0  0  0  0  0  0  0  0  0  0  0
    6.8102  -19.4104   24.6514 C   0  0  2  0  0  0  0  0  0  0  0  0
    6.8337  -20.1806   23.4105 N   0  0  0  0  0  0  0  0  0  0  0  0
    7.3250  -18.0393   24.4237 C   0  0  0  0  0  0  0  0  0  0  0  0
    8.1620  -17.7147   23.5463 O   0  0  0  0  0  0  0  0  0  0  0  0
    6.8338  -17.0050   25.2640 N   0  0  0  0  0  0  0  0  0  0  0  0
    7.2527  -15.6182   25.1433 C   0  0  1  0  0  0  0  0  0  0  0  0
    6.0588  -14.8022   25.6477 C   0  0  0  0  0  0  0  0  0  0  0  0
    6.4350  -13.3798   25.6889 C   0  0  0  0  0  0  0  0  0  0  0  0
    7.1227  -12.7312   24.6866 C   0  0  0  0  0  0  0  0  0  0  0  0
    7.4267  -11.3937   24.8129 C   0  0  0  0  0  0  0  0  0  0  0  0
    7.0513  -10.6743   25.9419 C   0  0  0  0  0  0  0  0  0  0  0  0
    6.3694  -11.3153   26.9373 C   0  0  0  0  0  0  0  0  0  0  0  0
    6.0556  -12.6634   26.8244 C   0  0  0  0  0  0  0  0  0  0  0  0
    8.4502  -15.4310   25.9700 C   0  0  0  0  0  0  0  0  0  0  0  0
    8.6010  -16.1597   27.1243 O   0  0  0  0  0  0  0  0  0  0  0  0
    9.3300  -14.6161   25.6348 O   0  0  0  0  0  0  0  0  0  0  0  0
  2  1  1  1
  2  4  1  0
  3  2  1  0
  4 11  1  0
  4  5  2  0
  6  7  1  0
  8  7  1  0
  9  8  1  0
 10  9  1  1
 11 10  1  0
 12 10  1  0
 12 13  2  0
 14 15  1  0
 14 12  1  0
 16 17  1  0
 15 16  1  1
 17 18  2  0
 19 18  1  0
 20 19  2  0
 21 20  1  0
 22 21  2  0
 22 17  1  0
 23 15  1  0
 24 23  1  0
 25 23  2  0
M  END
$$$$
