AMF.pdb
     RDKit          3D

 25 25  0  0  1  0  0  0  0  0999 V2000
   12.4067  -17.6929   17.9709 C   0  0  0  0  0  0  0  0  0  0  0  0
   11.4593  -18.2313   19.0447 C   0  0  2  0  0  0  0  0  0  0  0  0
   10.2058  -18.6354   18.4712 N   0  0  0  0  0  0  0  0  0  0  0  0
   11.2925  -17.1919   20.0937 C   0  0  0  0  0  0  0  0  0  0  0  0
   12.3002  -16.7563   20.6635 O   0  0  0  0  0  0  0  0  0  0  0  0
    6.3801  -13.9276   18.7160 C   0  0  0  0  0  0  0  0  0  0  0  0
    7.3802  -12.7742   19.6908 S   0  0  0  0  0  0  0  0  0  0  0  0
    8.9322  -13.6534   20.1120 C   0  0  0  0  0  0  0  0  0  0  0  0
    8.6571  -14.7594   21.0925 C   0  0  0  0  0  0  0  0  0  0  0  0
    9.8482  -15.5885   21.4204 C   0  0  2  0  0  0  0  0  0  0  0  0
   10.0209  -16.6806   20.4658 N   0  0  0  0  0  0  0  0  0  0  0  0
    9.8747  -16.1021   22.8104 C   0  0  0  0  0  0  0  0  0  0  0  0
    9.7005  -17.2993   23.1453 O   0  0  0  0  0  0  0  0  0  0  0  0
   10.1172  -15.1672   23.8518 N   0  0  0  0  0  0  0  0  0  0  0  0
   10.1056  -15.5273   25.2601 C   0  0  1  0  0  0  0  0  0  0  0  0
   10.5155  -14.2480   25.9958 C   0  0  0  0  0  0  0  0  0  0  0  0
   10.4785  -14.4977   27.4459 C   0  0  0  0  0  0  0  0  0  0  0  0
    9.3523  -14.3586   28.2273 C   0  0  0  0  0  0  0  0  0  0  0  0
    9.4139  -14.6200   29.5783 C   0  0  0  0  0  0  0  0  0  0  0  0
   10.6003  -15.0257   30.1790 C   0  0  0  0  0  0  0  0  0  0  0  0
   11.7185  -15.1642   29.4063 C   0  0  0  0  0  0  0  0  0  0  0  0
   11.6721  -14.9044   28.0428 C   0  0  0  0  0  0  0  0  0  0  0  0
    8.7485  -15.9640   25.6069 C   0  0  0  0  0  0  0  0  0  0  0  0
    8.5722  -17.0001   26.4910 O   0  0  0  0  0  0  0  0  0  0  0  0
    7.7556  -15.4046   25.1053 O   0  0  0  0  0  0  0  0  0  0  0  0
  2  1  1  6
  2  4  1  0
  3  2  1  0
  4 11  1  0
  4  5  2  0
  6  7  1  0
  8  7  1  0
  9  8  1  0
 10  9  1  6
 11 10  1  0
 12 10  1  0
 12 13  2  0
 14 15  1  0
 14 12  1  0
 16 17  1  0
 15 16  1  1
 17 18  2  0
 19 18  1  0
 20 19  2  0
 21 20  1  0
 22 21  2  0
 22 17  1  0
 23 15  1  0
 24 23  1  0
 25 23  2  0
M  END
$$$$
