AMF.pdb
     RDKit          3D

 25 25  0  0  1  0  0  0  0  0999 V2000
    8.0870  -12.1348   20.3272 C   0  0  0  0  0  0  0  0  0  0  0  0
    8.3260  -13.4664   19.6132 C   0  0  2  0  0  0  0  0  0  0  0  0
    7.3740  -13.6629   18.5555 N   0  0  0  0  0  0  0  0  0  0  0  0
    8.2855  -14.5582   20.6207 C   0  0  0  0  0  0  0  0  0  0  0  0
    7.1986  -15.0906   20.8758 O   0  0  0  0  0  0  0  0  0  0  0  0
    8.6666  -20.4700   20.0511 C   0  0  0  0  0  0  0  0  0  0  0  0
   10.2337  -19.5636   20.1078 S   0  0  0  0  0  0  0  0  0  0  0  0
    9.8072  -17.7913   20.2981 C   0  0  0  0  0  0  0  0  0  0  0  0
   10.2794  -17.2800   21.6306 C   0  0  0  0  0  0  0  0  0  0  0  0
    9.4502  -16.1756   22.1841 C   0  0  2  0  0  0  0  0  0  0  0  0
    9.4467  -15.0126   21.3004 N   0  0  0  0  0  0  0  0  0  0  0  0
    9.8023  -15.7777   23.5678 C   0  0  0  0  0  0  0  0  0  0  0  0
   10.8139  -15.1109   23.8961 O   0  0  0  0  0  0  0  0  0  0  0  0
    8.9264  -16.1812   24.6105 N   0  0  0  0  0  0  0  0  0  0  0  0
    9.2035  -15.9411   26.0172 C   0  0  1  0  0  0  0  0  0  0  0  0
    7.8268  -15.7574   26.6627 C   0  0  0  0  0  0  0  0  0  0  0  0
    7.4019  -14.3584   26.4927 C   0  0  0  0  0  0  0  0  0  0  0  0
    6.1832  -13.9764   25.9761 C   0  0  0  0  0  0  0  0  0  0  0  0
    5.8722  -12.6396   25.8595 C   0  0  0  0  0  0  0  0  0  0  0  0
    6.7705  -11.6550   26.2555 C   0  0  0  0  0  0  0  0  0  0  0  0
    7.9797  -12.0313   26.7680 C   0  0  0  0  0  0  0  0  0  0  0  0
    8.3076  -13.3751   26.8919 C   0  0  0  0  0  0  0  0  0  0  0  0
    9.9201  -17.1074   26.5453 C   0  0  0  0  0  0  0  0  0  0  0  0
   10.1383  -18.1956   25.7365 O   0  0  0  0  0  0  0  0  0  0  0  0
   10.3305  -17.1195   27.7208 O   0  0  0  0  0  0  0  0  0  0  0  0
  2  1  1  1
  2  4  1  0
  3  2  1  0
  4 11  1  0
  4  5  2  0
  6  7  1  0
  8  7  1  0
  9  8  1  0
 10  9  1  6
 11 10  1  0
 12 10  1  0
 12 13  2  0
 14 15  1  0
 14 12  1  0
 16 17  1  0
 15 16  1  1
 17 18  2  0
 19 18  1  0
 20 19  2  0
 21 20  1  0
 22 21  2  0
 22 17  1  0
 23 15  1  0
 24 23  1  0
 25 23  2  0
M  END
$$$$
