AMF.pdb
     RDKit          3D

 25 25  0  0  1  0  0  0  0  0999 V2000
    8.0897  -12.1233   20.0472 C   0  0  0  0  0  0  0  0  0  0  0  0
    8.1693  -13.5642   19.5393 C   0  0  2  0  0  0  0  0  0  0  0  0
    7.3802  -13.7368   18.3515 N   0  0  0  0  0  0  0  0  0  0  0  0
    7.7496  -14.4765   20.6348 C   0  0  0  0  0  0  0  0  0  0  0  0
    6.5906  -14.4001   21.0598 O   0  0  0  0  0  0  0  0  0  0  0  0
    9.4563  -20.2905   20.9269 C   0  0  0  0  0  0  0  0  0  0  0  0
    7.8823  -19.8395   20.1525 S   0  0  0  0  0  0  0  0  0  0  0  0
    7.4976  -18.1340   20.7025 C   0  0  0  0  0  0  0  0  0  0  0  0
    8.3523  -17.7594   21.8812 C   0  0  0  0  0  0  0  0  0  0  0  0
    8.2308  -16.3338   22.2889 C   0  0  2  0  0  0  0  0  0  0  0  0
    8.6285  -15.4317   21.2110 N   0  0  0  0  0  0  0  0  0  0  0  0
    8.9414  -15.9914   23.5438 C   0  0  0  0  0  0  0  0  0  0  0  0
   10.1373  -15.6182   23.6221 O   0  0  0  0  0  0  0  0  0  0  0  0
    8.2136  -16.0920   24.7593 N   0  0  0  0  0  0  0  0  0  0  0  0
    8.8146  -15.8722   26.0646 C   0  0  1  0  0  0  0  0  0  0  0  0
    7.6593  -15.4048   26.9549 C   0  0  0  0  0  0  0  0  0  0  0  0
    7.3311  -14.0098   26.6191 C   0  0  0  0  0  0  0  0  0  0  0  0
    6.1582  -13.6142   26.0141 C   0  0  0  0  0  0  0  0  0  0  0  0
    5.9377  -12.2819   25.7426 C   0  0  0  0  0  0  0  0  0  0  0  0
    6.8826  -11.3155   26.0686 C   0  0  0  0  0  0  0  0  0  0  0  0
    8.0465  -11.7053   26.6685 C   0  0  0  0  0  0  0  0  0  0  0  0
    8.2832  -13.0448   26.9487 C   0  0  0  0  0  0  0  0  0  0  0  0
    9.3947  -17.1413   26.5178 C   0  0  0  0  0  0  0  0  0  0  0  0
   10.2683  -17.1501   27.5775 O   0  0  0  0  0  0  0  0  0  0  0  0
    9.1031  -18.2099   25.9491 O   0  0  0  0  0  0  0  0  0  0  0  0
  2  1  1  1
  2  4  1  0
  3  2  1  0
  4 11  1  0
  4  5  2  0
  6  7  1  0
  8  7  1  0
  9  8  1  0
 10  9  1  6
 11 10  1  0
 12 10  1  0
 12 13  2  0
 14 15  1  0
 14 12  1  0
 16 17  1  0
 15 16  1  1
 17 18  2  0
 19 18  1  0
 20 19  2  0
 21 20  1  0
 22 21  2  0
 22 17  1  0
 23 15  1  0
 24 23  1  0
 25 23  2  0
M  END
$$$$
