AMF.pdb
     RDKit          3D

 25 25  0  0  1  0  0  0  0  0999 V2000
    6.9213  -12.8339   19.1008 C   0  0  0  0  0  0  0  0  0  0  0  0
    8.2591  -13.1456   19.7743 C   0  0  2  0  0  0  0  0  0  0  0  0
    9.2440  -13.5417   18.8066 N   0  0  0  0  0  0  0  0  0  0  0  0
    8.0359  -14.1854   20.8124 C   0  0  0  0  0  0  0  0  0  0  0  0
    7.1315  -14.0150   21.6387 O   0  0  0  0  0  0  0  0  0  0  0  0
   10.3625  -19.5299   18.7602 C   0  0  0  0  0  0  0  0  0  0  0  0
    8.8765  -19.8675   19.7392 S   0  0  0  0  0  0  0  0  0  0  0  0
    8.2354  -18.2431   20.2953 C   0  0  0  0  0  0  0  0  0  0  0  0
    9.0479  -17.7280   21.4507 C   0  0  0  0  0  0  0  0  0  0  0  0
    8.6372  -16.3795   21.9266 C   0  0  2  0  0  0  0  0  0  0  0  0
    8.8214  -15.3660   20.8909 N   0  0  0  0  0  0  0  0  0  0  0  0
    9.2793  -15.9536   23.1927 C   0  0  0  0  0  0  0  0  0  0  0  0
   10.4079  -15.4123   23.2880 O   0  0  0  0  0  0  0  0  0  0  0  0
    8.5627  -16.1733   24.3992 N   0  0  0  0  0  0  0  0  0  0  0  0
    9.1010  -15.8543   25.7113 C   0  0  1  0  0  0  0  0  0  0  0  0
    7.8732  -15.5609   26.5786 C   0  0  0  0  0  0  0  0  0  0  0  0
    7.4053  -14.1938   26.2979 C   0  0  0  0  0  0  0  0  0  0  0  0
    6.2874  -13.8961   25.5498 C   0  0  0  0  0  0  0  0  0  0  0  0
    5.9246  -12.5833   25.3446 C   0  0  0  0  0  0  0  0  0  0  0  0
    6.6693  -11.5390   25.8812 C   0  0  0  0  0  0  0  0  0  0  0  0
    7.7784  -11.8316   26.6234 C   0  0  0  0  0  0  0  0  0  0  0  0
    8.1568  -13.1503   26.8391 C   0  0  0  0  0  0  0  0  0  0  0  0
    9.8595  -17.0167   26.1868 C   0  0  0  0  0  0  0  0  0  0  0  0
   10.7503  -16.8709   27.2219 O   0  0  0  0  0  0  0  0  0  0  0  0
    9.7036  -18.1336   25.6590 O   0  0  0  0  0  0  0  0  0  0  0  0
  2  1  1  6
  2  4  1  0
  3  2  1  0
  4 11  1  0
  4  5  2  0
  6  7  1  0
  8  7  1  0
  9  8  1  0
 10  9  1  6
 11 10  1  0
 12 10  1  0
 12 13  2  0
 14 15  1  0
 14 12  1  0
 16 17  1  0
 15 16  1  1
 17 18  2  0
 19 18  1  0
 20 19  2  0
 21 20  1  0
 22 21  2  0
 22 17  1  0
 23 15  1  0
 24 23  1  0
 25 23  2  0
M  END
$$$$
