AMF.pdb
     RDKit          3D

 25 25  0  0  1  0  0  0  0  0999 V2000
    7.8791  -12.2765   20.6130 C   0  0  0  0  0  0  0  0  0  0  0  0
    7.9534  -13.6277   19.8995 C   0  0  2  0  0  0  0  0  0  0  0  0
    6.8407  -13.8023   19.0079 N   0  0  0  0  0  0  0  0  0  0  0  0
    8.0308  -14.7010   20.9244 C   0  0  0  0  0  0  0  0  0  0  0  0
    6.9788  -15.1461   21.3987 O   0  0  0  0  0  0  0  0  0  0  0  0
   10.3815  -20.8621   20.9880 C   0  0  0  0  0  0  0  0  0  0  0  0
   11.4186  -19.8826   22.1041 S   0  0  0  0  0  0  0  0  0  0  0  0
   10.3410  -18.5808   22.8131 C   0  0  0  0  0  0  0  0  0  0  0  0
   10.2452  -17.4117   21.8728 C   0  0  0  0  0  0  0  0  0  0  0  0
    9.3568  -16.3191   22.3530 C   0  0  2  0  0  0  0  0  0  0  0  0
    9.2661  -15.2342   21.3790 N   0  0  0  0  0  0  0  0  0  0  0  0
    9.7048  -15.7890   23.6926 C   0  0  0  0  0  0  0  0  0  0  0  0
   10.6410  -14.9890   23.9360 O   0  0  0  0  0  0  0  0  0  0  0  0
    8.9171  -16.2182   24.7939 N   0  0  0  0  0  0  0  0  0  0  0  0
    9.1785  -15.8087   26.1640 C   0  0  1  0  0  0  0  0  0  0  0  0
    7.7951  -15.5423   26.7648 C   0  0  0  0  0  0  0  0  0  0  0  0
    7.3805  -14.1724   26.4214 C   0  0  0  0  0  0  0  0  0  0  0  0
    6.4450  -13.8649   25.4578 C   0  0  0  0  0  0  0  0  0  0  0  0
    6.1176  -12.5502   25.2095 C   0  0  0  0  0  0  0  0  0  0  0  0
    6.7163  -11.5138   25.9170 C   0  0  0  0  0  0  0  0  0  0  0  0
    7.6443  -11.8162   26.8730 C   0  0  0  0  0  0  0  0  0  0  0  0
    7.9849  -13.1369   27.1348 C   0  0  0  0  0  0  0  0  0  0  0  0
    9.8827  -16.9041   26.8398 C   0  0  0  0  0  0  0  0  0  0  0  0
    9.9908  -18.1265   26.2232 O   0  0  0  0  0  0  0  0  0  0  0  0
   10.3816  -16.7354   27.9681 O   0  0  0  0  0  0  0  0  0  0  0  0
  2  1  1  1
  2  4  1  0
  3  2  1  0
  4 11  1  0
  4  5  2  0
  6  7  1  0
  8  7  1  0
  9  8  1  0
 10  9  1  6
 11 10  1  0
 12 10  1  0
 12 13  2  0
 14 15  1  0
 14 12  1  0
 16 17  1  0
 15 16  1  1
 17 18  2  0
 19 18  1  0
 20 19  2  0
 21 20  1  0
 22 21  2  0
 22 17  1  0
 23 15  1  0
 24 23  1  0
 25 23  2  0
M  END
$$$$
