GDI.pdb
     RDKit          3D

 21 20  0  0  1  0  0  0  0  0999 V2000
   15.2027  -13.0853  -14.0472 N   0  0  0  0  0  0  0  0  0  0  0  0
   14.6975  -11.7327  -14.1292 C   0  0  0  0  0  0  0  0  0  0  0  0
   15.5161  -10.7820  -13.3399 C   0  0  0  0  0  0  0  0  0  0  0  0
   15.8393  -11.0890  -12.1676 O   0  0  0  0  0  0  0  0  0  0  0  0
   15.9655   -9.5202  -13.8399 N   0  0  0  0  0  0  0  0  0  0  0  0
   16.7214   -8.5889  -13.0722 C   0  0  1  0  0  0  0  0  0  0  0  0
   17.5517   -7.7055  -13.9543 C   0  0  0  0  0  0  0  0  0  0  0  0
   18.3640   -6.7088  -13.2493 C   0  0  0  0  0  0  0  0  0  0  0  0
   19.1189   -7.0576  -12.3125 O   0  0  0  0  0  0  0  0  0  0  0  0
   15.8120   -7.7254  -12.2414 C   0  0  0  0  0  0  0  0  0  0  0  0
   14.9390   -7.0163  -12.7849 O   0  0  0  0  0  0  0  0  0  0  0  0
   18.3165   -5.3825  -13.5962 O   0  0  0  0  0  0  0  0  0  0  0  0
   12.1508   -7.8736   -7.7980 C   0  0  0  0  0  0  0  0  0  0  0  0
   13.2702   -6.9852   -8.2804 C   0  0  0  0  0  0  0  0  0  0  0  0
   14.1667   -7.7952   -9.1967 C   0  0  2  0  0  0  0  0  0  0  0  0
   15.0007   -8.7135   -8.3332 C   0  0  0  0  0  0  0  0  0  0  0  0
   15.1252   -6.8995   -9.9548 C   0  0  2  0  0  0  0  0  0  0  0  0
   15.9383   -7.7094  -10.8375 N   0  0  0  0  0  0  0  0  0  0  0  0
   15.9133   -6.1189   -9.0030 C   0  0  0  0  0  0  0  0  0  0  0  0
   17.2575   -6.3712   -8.8411 O   0  0  0  0  0  0  0  0  0  0  0  0
   15.3793   -5.2156   -8.3260 O   0  0  0  0  0  0  0  0  0  0  0  0
  1  2  1  0
  3  5  1  0
  3  2  1  0
  4  3  2  0
  6  5  1  0
  6  7  1  6
  8  7  1  0
  8 12  1  0
  9  8  2  0
 10  6  1  0
 11 10  2  0
 13 14  1  0
 14 15  1  0
 15 16  1  1
 17 15  1  0
 17 18  1  1
 18 10  1  0
 19 17  1  0
 20 19  1  0
 21 19  2  0
M  END
$$$$
