GDI.pdb
     RDKit          3D

 21 20  0  0  1  0  0  0  0  0999 V2000
   18.3172  -11.2579  -17.4750 N   0  0  0  0  0  0  0  0  0  0  0  0
   17.6286  -10.0224  -17.7768 C   0  0  0  0  0  0  0  0  0  0  0  0
   18.0937   -8.9017  -16.9256 C   0  0  0  0  0  0  0  0  0  0  0  0
   17.3371   -8.4726  -16.0221 O   0  0  0  0  0  0  0  0  0  0  0  0
   19.3687   -8.2719  -17.0736 N   0  0  0  0  0  0  0  0  0  0  0  0
   19.8218   -7.2002  -16.2525 C   0  0  1  0  0  0  0  0  0  0  0  0
   21.2790   -7.3422  -15.9297 C   0  0  0  0  0  0  0  0  0  0  0  0
   21.6116   -8.4498  -15.0282 C   0  0  0  0  0  0  0  0  0  0  0  0
   21.1059   -8.5061  -13.8835 O   0  0  0  0  0  0  0  0  0  0  0  0
   19.6049   -5.8790  -16.9382 C   0  0  0  0  0  0  0  0  0  0  0  0
   20.0398   -5.6842  -18.0929 O   0  0  0  0  0  0  0  0  0  0  0  0
   22.4769   -9.4419  -15.4140 O   0  0  0  0  0  0  0  0  0  0  0  0
   15.4634   -2.1226  -18.3878 C   0  0  0  0  0  0  0  0  0  0  0  0
   16.8592   -2.0845  -17.8173 C   0  0  0  0  0  0  0  0  0  0  0  0
   17.1943   -3.4598  -17.2732 C   0  0  2  0  0  0  0  0  0  0  0  0
   16.3589   -3.6821  -16.0335 C   0  0  0  0  0  0  0  0  0  0  0  0
   18.6482   -3.5423  -16.8549 C   0  0  2  0  0  0  0  0  0  0  0  0
   18.9063   -4.8461  -16.2807 N   0  0  0  0  0  0  0  0  0  0  0  0
   18.9521   -2.4421  -15.9417 C   0  0  0  0  0  0  0  0  0  0  0  0
   19.1137   -2.6807  -14.5950 O   0  0  0  0  0  0  0  0  0  0  0  0
   19.0686   -1.2749  -16.3698 O   0  0  0  0  0  0  0  0  0  0  0  0
  1  2  1  0
  3  5  1  0
  3  2  1  0
  4  3  2  0
  6  5  1  0
  6  7  1  6
  8  7  1  0
  8 12  1  0
  9  8  2  0
 10  6  1  0
 11 10  2  0
 13 14  1  0
 14 15  1  0
 15 16  1  1
 17 15  1  0
 17 18  1  1
 18 10  1  0
 19 17  1  0
 20 19  1  0
 21 19  2  0
M  END
$$$$
