GDI.pdb
     RDKit          3D

 21 20  0  0  1  0  0  0  0  0999 V2000
   13.6339  -12.5695  -12.9502 N   0  0  0  0  0  0  0  0  0  0  0  0
   14.7926  -12.0530  -13.6445 C   0  0  0  0  0  0  0  0  0  0  0  0
   15.4129  -10.9148  -12.9257 C   0  0  0  0  0  0  0  0  0  0  0  0
   15.7183  -11.0553  -11.7174 O   0  0  0  0  0  0  0  0  0  0  0  0
   15.6876   -9.6502  -13.5335 N   0  0  0  0  0  0  0  0  0  0  0  0
   16.2968   -8.5595  -12.8498 C   0  0  1  0  0  0  0  0  0  0  0  0
   16.9827   -7.6329  -13.8084 C   0  0  0  0  0  0  0  0  0  0  0  0
   17.6450   -6.4788  -13.1922 C   0  0  0  0  0  0  0  0  0  0  0  0
   17.6257   -5.3623  -13.7596 O   0  0  0  0  0  0  0  0  0  0  0  0
   15.2700   -7.7800  -12.0747 C   0  0  0  0  0  0  0  0  0  0  0  0
   14.1701   -7.4904  -12.5912 O   0  0  0  0  0  0  0  0  0  0  0  0
   18.2956   -6.5941  -11.9900 O   0  0  0  0  0  0  0  0  0  0  0  0
   12.1200   -7.4792   -7.7201 C   0  0  0  0  0  0  0  0  0  0  0  0
   13.3875   -6.6620   -7.7476 C   0  0  0  0  0  0  0  0  0  0  0  0
   14.3996   -7.3730   -8.6249 C   0  0  2  0  0  0  0  0  0  0  0  0
   15.7202   -7.3847   -7.8900 C   0  0  0  0  0  0  0  0  0  0  0  0
   14.6164   -6.6254   -9.9248 C   0  0  2  0  0  0  0  0  0  0  0  0
   15.5417   -7.3686  -10.7541 N   0  0  0  0  0  0  0  0  0  0  0  0
   15.0708   -5.2674   -9.6319 C   0  0  0  0  0  0  0  0  0  0  0  0
   14.1814   -4.3193   -9.1773 O   0  0  0  0  0  0  0  0  0  0  0  0
   16.2682   -4.9503   -9.7898 O   0  0  0  0  0  0  0  0  0  0  0  0
  1  2  1  0
  3  5  1  0
  3  2  1  0
  4  3  2  0
  6  5  1  0
  6  7  1  6
  8  7  1  0
  8 12  1  0
  9  8  2  0
 10  6  1  0
 11 10  2  0
 13 14  1  0
 14 15  1  0
 15 16  1  1
 17 15  1  0
 17 18  1  6
 18 10  1  0
 19 17  1  0
 20 19  1  0
 21 19  2  0
M  END
$$$$
