GDI.pdb
     RDKit          3D

 21 20  0  0  1  0  0  0  0  0999 V2000
   16.1105  -13.9630  -14.5154 N   0  0  0  0  0  0  0  0  0  0  0  0
   15.4495  -12.8041  -15.0735 C   0  0  0  0  0  0  0  0  0  0  0  0
   16.4143  -11.7652  -15.5058 C   0  0  0  0  0  0  0  0  0  0  0  0
   17.4106  -12.1090  -16.1856 O   0  0  0  0  0  0  0  0  0  0  0  0
   16.2766  -10.3774  -15.1909 N   0  0  0  0  0  0  0  0  0  0  0  0
   17.1184   -9.3585  -15.7215 C   0  0  1  0  0  0  0  0  0  0  0  0
   16.3862   -8.0554  -15.8380 C   0  0  0  0  0  0  0  0  0  0  0  0
   15.1987   -8.0837  -16.6979 C   0  0  0  0  0  0  0  0  0  0  0  0
   15.2819   -8.5013  -17.8760 O   0  0  0  0  0  0  0  0  0  0  0  0
   18.3250   -9.1587  -14.8457 C   0  0  0  0  0  0  0  0  0  0  0  0
   18.2038   -9.0894  -13.6044 O   0  0  0  0  0  0  0  0  0  0  0  0
   13.9795   -7.6570  -16.2362 O   0  0  0  0  0  0  0  0  0  0  0  0
   22.6535  -11.9353  -15.9503 C   0  0  0  0  0  0  0  0  0  0  0  0
   21.5480  -11.1594  -15.2788 C   0  0  0  0  0  0  0  0  0  0  0  0
   21.9305   -9.6921  -15.2636 C   0  0  2  0  0  0  0  0  0  0  0  0
   23.1423   -9.5400  -14.3734 C   0  0  0  0  0  0  0  0  0  0  0  0
   20.8254   -8.8457  -14.6651 C   0  0  2  0  0  0  0  0  0  0  0  0
   19.6071   -9.0475  -15.4210 N   0  0  0  0  0  0  0  0  0  0  0  0
   21.2529   -7.4485  -14.6269 C   0  0  0  0  0  0  0  0  0  0  0  0
   21.8559   -6.9363  -13.4996 O   0  0  0  0  0  0  0  0  0  0  0  0
   21.0772   -6.7032  -15.6133 O   0  0  0  0  0  0  0  0  0  0  0  0
  1  2  1  0
  3  5  1  0
  3  2  1  0
  4  3  2  0
  6  5  1  0
  6  7  1  1
  8  7  1  0
  8 12  1  0
  9  8  2  0
 10  6  1  0
 11 10  2  0
 13 14  1  0
 14 15  1  0
 15 16  1  1
 17 15  1  0
 17 18  1  6
 18 10  1  0
 19 17  1  0
 20 19  1  0
 21 19  2  0
M  END
$$$$
