GDI.pdb
     RDKit          3D

 21 20  0  0  1  0  0  0  0  0999 V2000
   16.1023  -11.8092  -14.2308 N   0  0  0  0  0  0  0  0  0  0  0  0
   16.0241  -11.5085  -15.6433 C   0  0  0  0  0  0  0  0  0  0  0  0
   16.9677  -10.4362  -16.0390 C   0  0  0  0  0  0  0  0  0  0  0  0
   18.0614  -10.7548  -16.5637 O   0  0  0  0  0  0  0  0  0  0  0  0
   16.7038   -9.0429  -15.8567 N   0  0  0  0  0  0  0  0  0  0  0  0
   17.6062   -8.0100  -16.2402 C   0  0  1  0  0  0  0  0  0  0  0  0
   16.8803   -6.7245  -16.5017 C   0  0  0  0  0  0  0  0  0  0  0  0
   17.7053   -5.6454  -17.0541 C   0  0  0  0  0  0  0  0  0  0  0  0
   18.6650   -5.9100  -17.8145 O   0  0  0  0  0  0  0  0  0  0  0  0
   18.6317   -7.7761  -15.1648 C   0  0  0  0  0  0  0  0  0  0  0  0
   18.3120   -7.8367  -13.9588 O   0  0  0  0  0  0  0  0  0  0  0  0
   17.4476   -4.3319  -16.7536 O   0  0  0  0  0  0  0  0  0  0  0  0
   22.9366  -10.5606  -14.5966 C   0  0  0  0  0  0  0  0  0  0  0  0
   21.8223   -9.6102  -14.2362 C   0  0  0  0  0  0  0  0  0  0  0  0
   22.1507   -8.2446  -14.8079 C   0  0  2  0  0  0  0  0  0  0  0  0
   23.3740   -7.7248  -14.0885 C   0  0  0  0  0  0  0  0  0  0  0  0
   21.0276   -7.2605  -14.5512 C   0  0  2  0  0  0  0  0  0  0  0  0
   19.9671   -7.4857  -15.5108 N   0  0  0  0  0  0  0  0  0  0  0  0
   21.5586   -5.8993  -14.5909 C   0  0  0  0  0  0  0  0  0  0  0  0
   21.2800   -5.0750  -15.6584 O   0  0  0  0  0  0  0  0  0  0  0  0
   22.2700   -5.4675  -13.6599 O   0  0  0  0  0  0  0  0  0  0  0  0
  1  2  1  0
  3  5  1  0
  3  2  1  0
  4  3  2  0
  6  5  1  0
  6  7  1  1
  8  7  1  0
  8 12  1  0
  9  8  2  0
 10  6  1  0
 11 10  2  0
 13 14  1  0
 14 15  1  0
 15 16  1  1
 17 15  1  0
 17 18  1  6
 18 10  1  0
 19 17  1  0
 20 19  1  0
 21 19  2  0
M  END
$$$$
