GDI.pdb
     RDKit          3D

 21 20  0  0  1  0  0  0  0  0999 V2000
   15.4338  -13.0946  -17.4145 N   0  0  0  0  0  0  0  0  0  0  0  0
   16.7155  -13.0116  -16.7499 C   0  0  0  0  0  0  0  0  0  0  0  0
   17.2847  -11.6441  -16.8034 C   0  0  0  0  0  0  0  0  0  0  0  0
   18.3795  -11.4659  -17.3889 O   0  0  0  0  0  0  0  0  0  0  0  0
   16.6538  -10.5010  -16.2208 N   0  0  0  0  0  0  0  0  0  0  0  0
   17.1715   -9.1776  -16.3152 C   0  0  1  0  0  0  0  0  0  0  0  0
   16.1020   -8.1572  -16.0647 C   0  0  0  0  0  0  0  0  0  0  0  0
   16.5303   -6.7612  -16.1989 C   0  0  0  0  0  0  0  0  0  0  0  0
   17.2934   -6.4216  -17.1325 O   0  0  0  0  0  0  0  0  0  0  0  0
   18.2804   -8.9703  -15.3201 C   0  0  0  0  0  0  0  0  0  0  0  0
   18.1248   -9.2859  -14.1216 O   0  0  0  0  0  0  0  0  0  0  0  0
   16.1090   -5.8026  -15.3127 O   0  0  0  0  0  0  0  0  0  0  0  0
   21.7844  -10.9258  -14.1615 C   0  0  0  0  0  0  0  0  0  0  0  0
   21.7009  -10.3395  -15.5487 C   0  0  0  0  0  0  0  0  0  0  0  0
   21.8707   -8.8361  -15.4467 C   0  0  2  0  0  0  0  0  0  0  0  0
   23.0168   -8.5640  -14.4997 C   0  0  0  0  0  0  0  0  0  0  0  0
   20.6365   -8.1858  -14.8555 C   0  0  2  0  0  0  0  0  0  0  0  0
   19.5087   -8.4159  -15.7338 N   0  0  0  0  0  0  0  0  0  0  0  0
   20.9020   -6.7677  -14.6212 C   0  0  0  0  0  0  0  0  0  0  0  0
   21.4674   -6.3526  -13.4360 O   0  0  0  0  0  0  0  0  0  0  0  0
   20.6202   -5.9165  -15.4903 O   0  0  0  0  0  0  0  0  0  0  0  0
  1  2  1  0
  3  5  1  0
  3  2  1  0
  4  3  2  0
  6  5  1  0
  6  7  1  1
  8  7  1  0
  8 12  1  0
  9  8  2  0
 10  6  1  0
 11 10  2  0
 13 14  1  0
 14 15  1  0
 15 16  1  1
 17 15  1  0
 17 18  1  6
 18 10  1  0
 19 17  1  0
 20 19  1  0
 21 19  2  0
M  END
$$$$
