GDI.pdb
     RDKit          3D

 21 20  0  0  1  0  0  0  0  0999 V2000
   16.9640  -14.8549  -15.6921 N   0  0  0  0  0  0  0  0  0  0  0  0
   16.4157  -13.6936  -15.0270 C   0  0  0  0  0  0  0  0  0  0  0  0
   17.0842  -12.4402  -15.4503 C   0  0  0  0  0  0  0  0  0  0  0  0
   18.1330  -12.5140  -16.1339 O   0  0  0  0  0  0  0  0  0  0  0  0
   16.5999  -11.1356  -15.1225 N   0  0  0  0  0  0  0  0  0  0  0  0
   17.1609   -9.9314  -15.6359 C   0  0  1  0  0  0  0  0  0  0  0  0
   16.1375   -8.8372  -15.6936 C   0  0  0  0  0  0  0  0  0  0  0  0
   16.5804   -7.6053  -16.3542 C   0  0  0  0  0  0  0  0  0  0  0  0
   17.4486   -7.6493  -17.2561 O   0  0  0  0  0  0  0  0  0  0  0  0
   18.3096   -9.4745  -14.7789 C   0  0  0  0  0  0  0  0  0  0  0  0
   18.2093   -9.4680  -13.5338 O   0  0  0  0  0  0  0  0  0  0  0  0
   16.0588   -6.3861  -16.0028 O   0  0  0  0  0  0  0  0  0  0  0  0
   23.2040  -11.2952  -15.4602 C   0  0  0  0  0  0  0  0  0  0  0  0
   21.9536  -10.7019  -14.8606 C   0  0  0  0  0  0  0  0  0  0  0  0
   21.9160   -9.2226  -15.1921 C   0  0  2  0  0  0  0  0  0  0  0  0
   23.0977   -8.5675  -14.5149 C   0  0  0  0  0  0  0  0  0  0  0  0
   20.6647   -8.5707  -14.6400 C   0  0  2  0  0  0  0  0  0  0  0  0
   19.5132   -9.0483  -15.3764 N   0  0  0  0  0  0  0  0  0  0  0  0
   20.8148   -7.1176  -14.6878 C   0  0  0  0  0  0  0  0  0  0  0  0
   21.4707   -6.4525  -13.6758 O   0  0  0  0  0  0  0  0  0  0  0  0
   20.3515   -6.4622  -15.6444 O   0  0  0  0  0  0  0  0  0  0  0  0
  1  2  1  0
  3  5  1  0
  3  2  1  0
  4  3  2  0
  6  5  1  0
  6  7  1  1
  8  7  1  0
  8 12  1  0
  9  8  2  0
 10  6  1  0
 11 10  2  0
 13 14  1  0
 14 15  1  0
 15 16  1  1
 17 15  1  0
 17 18  1  6
 18 10  1  0
 19 17  1  0
 20 19  1  0
 21 19  2  0
M  END
$$$$
