GDI.pdb
     RDKit          3D

 21 20  0  0  1  0  0  0  0  0999 V2000
   29.1348  -37.5471   -8.5867 N   0  0  0  0  0  0  0  0  0  0  0  0
   29.7204  -37.6127   -7.2660 C   0  0  0  0  0  0  0  0  0  0  0  0
   28.6963  -37.5403   -6.1969 C   0  0  0  0  0  0  0  0  0  0  0  0
   27.5227  -37.2210   -6.5028 O   0  0  0  0  0  0  0  0  0  0  0  0
   28.9684  -37.8158   -4.8206 N   0  0  0  0  0  0  0  0  0  0  0  0
   28.0080  -37.6683   -3.7794 C   0  0  1  0  0  0  0  0  0  0  0  0
   28.3411  -38.5404   -2.6062 C   0  0  0  0  0  0  0  0  0  0  0  0
   27.3277  -38.5718   -1.5467 C   0  0  0  0  0  0  0  0  0  0  0  0
   27.5107  -39.2627   -0.5180 O   0  0  0  0  0  0  0  0  0  0  0  0
   27.9439  -36.2385   -3.3164 C   0  0  0  0  0  0  0  0  0  0  0  0
   28.9640  -35.6675   -2.8763 O   0  0  0  0  0  0  0  0  0  0  0  0
   26.1656  -37.8512   -1.6565 O   0  0  0  0  0  0  0  0  0  0  0  0
   24.8111  -32.7364   -5.9935 C   0  0  0  0  0  0  0  0  0  0  0  0
   25.8835  -33.4647   -5.2224 C   0  0  0  0  0  0  0  0  0  0  0  0
   25.4915  -33.4880   -3.7577 C   0  0  2  0  0  0  0  0  0  0  0  0
   25.3925  -32.0564   -3.2834 C   0  0  0  0  0  0  0  0  0  0  0  0
   26.5552  -34.1660   -2.9183 C   0  0  2  0  0  0  0  0  0  0  0  0
   26.7273  -35.5288   -3.3758 N   0  0  0  0  0  0  0  0  0  0  0  0
   26.1873  -34.0762   -1.5065 C   0  0  0  0  0  0  0  0  0  0  0  0
   25.7980  -35.2026   -0.8163 O   0  0  0  0  0  0  0  0  0  0  0  0
   26.2212  -32.9799   -0.9096 O   0  0  0  0  0  0  0  0  0  0  0  0
  1  2  1  0
  3  5  1  0
  3  2  1  0
  4  3  2  0
  6  5  1  0
  6  7  1  1
  8  7  1  0
  8 12  1  0
  9  8  2  0
 10  6  1  0
 11 10  2  0
 13 14  1  0
 14 15  1  0
 15 16  1  1
 17 15  1  0
 17 18  1  6
 18 10  1  0
 19 17  1  0
 20 19  1  0
 21 19  2  0
M  END
$$$$
