GDI.pdb
     RDKit          3D

 21 20  0  0  1  0  0  0  0  0999 V2000
   16.3727  -10.6504  -16.9209 N   0  0  0  0  0  0  0  0  0  0  0  0
   15.7336   -9.3621  -17.0737 C   0  0  0  0  0  0  0  0  0  0  0  0
   16.7114   -8.2484  -17.0576 C   0  0  0  0  0  0  0  0  0  0  0  0
   17.7252   -8.3215  -17.7923 O   0  0  0  0  0  0  0  0  0  0  0  0
   16.5675   -7.0807  -16.2451 N   0  0  0  0  0  0  0  0  0  0  0  0
   17.4871   -5.9933  -16.2529 C   0  0  1  0  0  0  0  0  0  0  0  0
   16.8238   -4.7184  -15.8257 C   0  0  0  0  0  0  0  0  0  0  0  0
   15.8216   -4.1951  -16.7595 C   0  0  0  0  0  0  0  0  0  0  0  0
   16.1519   -3.8686  -17.9229 O   0  0  0  0  0  0  0  0  0  0  0  0
   18.6427   -6.2699  -15.3305 C   0  0  0  0  0  0  0  0  0  0  0  0
   18.4431   -6.6939  -14.1726 O   0  0  0  0  0  0  0  0  0  0  0  0
   14.5099   -4.0522  -16.3840 O   0  0  0  0  0  0  0  0  0  0  0  0
   22.7565   -8.8023  -17.3930 C   0  0  0  0  0  0  0  0  0  0  0  0
   21.6869   -8.2550  -16.4811 C   0  0  0  0  0  0  0  0  0  0  0  0
   22.1980   -6.9713  -15.8562 C   0  0  2  0  0  0  0  0  0  0  0  0
   23.3695   -7.3241  -14.9689 C   0  0  0  0  0  0  0  0  0  0  0  0
   21.1429   -6.3355  -14.9740 C   0  0  2  0  0  0  0  0  0  0  0  0
   19.9652   -6.0522  -15.7671 N   0  0  0  0  0  0  0  0  0  0  0  0
   21.7016   -5.1478  -14.3308 C   0  0  0  0  0  0  0  0  0  0  0  0
   22.3162   -5.2464  -13.1023 O   0  0  0  0  0  0  0  0  0  0  0  0
   21.6291   -4.0315  -14.8855 O   0  0  0  0  0  0  0  0  0  0  0  0
  1  2  1  0
  3  5  1  0
  3  2  1  0
  4  3  2  0
  6  5  1  0
  6  7  1  1
  8  7  1  0
  8 12  1  0
  9  8  2  0
 10  6  1  0
 11 10  2  0
 13 14  1  0
 14 15  1  0
 15 16  1  1
 17 15  1  0
 17 18  1  6
 18 10  1  0
 19 17  1  0
 20 19  1  0
 21 19  2  0
M  END
$$$$
