GDI.pdb
     RDKit          3D

 21 20  0  0  1  0  0  0  0  0999 V2000
   17.6379  -13.8154  -18.5599 N   0  0  0  0  0  0  0  0  0  0  0  0
   17.2051  -12.4761  -18.8923 C   0  0  0  0  0  0  0  0  0  0  0  0
   18.2233  -11.4574  -18.5423 C   0  0  0  0  0  0  0  0  0  0  0  0
   19.3636  -11.8382  -18.1849 O   0  0  0  0  0  0  0  0  0  0  0  0
   17.9817  -10.0490  -18.5879 N   0  0  0  0  0  0  0  0  0  0  0  0
   18.9875   -9.0661  -18.3632 C   0  0  1  0  0  0  0  0  0  0  0  0
   18.5104   -7.7009  -18.7589 C   0  0  0  0  0  0  0  0  0  0  0  0
   18.3010   -7.5076  -20.1973 C   0  0  0  0  0  0  0  0  0  0  0  0
   19.0994   -8.0055  -21.0242 O   0  0  0  0  0  0  0  0  0  0  0  0
   19.3859   -9.0376  -16.9130 C   0  0  0  0  0  0  0  0  0  0  0  0
   18.5313   -9.2006  -16.0166 O   0  0  0  0  0  0  0  0  0  0  0  0
   17.2349   -6.7832  -20.6669 O   0  0  0  0  0  0  0  0  0  0  0  0
   23.5337  -11.8504  -15.5485 C   0  0  0  0  0  0  0  0  0  0  0  0
   22.2280  -11.0957  -15.5728 C   0  0  0  0  0  0  0  0  0  0  0  0
   22.4872   -9.6710  -15.1227 C   0  0  2  0  0  0  0  0  0  0  0  0
   22.9167   -9.7152  -13.6743 C   0  0  0  0  0  0  0  0  0  0  0  0
   21.2232   -8.8382  -15.1904 C   0  0  2  0  0  0  0  0  0  0  0  0
   20.7322   -8.8260  -16.5524 N   0  0  0  0  0  0  0  0  0  0  0  0
   21.4960   -7.5014  -14.6662 C   0  0  0  0  0  0  0  0  0  0  0  0
   21.6648   -6.4385  -15.5256 O   0  0  0  0  0  0  0  0  0  0  0  0
   21.5794   -7.3063  -13.4357 O   0  0  0  0  0  0  0  0  0  0  0  0
  1  2  1  0
  3  5  1  0
  3  2  1  0
  4  3  2  0
  6  5  1  0
  6  7  1  1
  8  7  1  0
  8 12  1  0
  9  8  2  0
 10  6  1  0
 11 10  2  0
 13 14  1  0
 14 15  1  0
 15 16  1  1
 17 15  1  0
 17 18  1  6
 18 10  1  0
 19 17  1  0
 20 19  1  0
 21 19  2  0
M  END
$$$$
