GDI.pdb
     RDKit          3D

 21 20  0  0  1  0  0  0  0  0999 V2000
   29.1139  -22.0206  -17.1525 N   0  0  0  0  0  0  0  0  0  0  0  0
   28.2779  -22.6927  -16.1826 C   0  0  0  0  0  0  0  0  0  0  0  0
   27.6117  -21.7395  -15.2636 C   0  0  0  0  0  0  0  0  0  0  0  0
   28.3175  -20.9371  -14.6071 O   0  0  0  0  0  0  0  0  0  0  0  0
   26.1955  -21.6782  -15.0775 N   0  0  0  0  0  0  0  0  0  0  0  0
   25.5519  -20.7596  -14.2000 C   0  0  1  0  0  0  0  0  0  0  0  0
   24.2033  -20.3640  -14.7221 C   0  0  0  0  0  0  0  0  0  0  0  0
   24.2229  -19.5403  -15.9352 C   0  0  0  0  0  0  0  0  0  0  0  0
   24.4436  -18.3096  -15.8594 O   0  0  0  0  0  0  0  0  0  0  0  0
   25.3831  -21.3628  -12.8324 C   0  0  0  0  0  0  0  0  0  0  0  0
   25.0458  -22.5586  -12.7034 O   0  0  0  0  0  0  0  0  0  0  0  0
   24.0018  -20.0937  -17.1708 O   0  0  0  0  0  0  0  0  0  0  0  0
   27.1351  -19.9010   -7.1072 C   0  0  0  0  0  0  0  0  0  0  0  0
   26.2178  -20.7330   -7.9683 C   0  0  0  0  0  0  0  0  0  0  0  0
   26.3291  -20.2461   -9.4001 C   0  0  2  0  0  0  0  0  0  0  0  0
   25.8237  -18.8224   -9.4444 C   0  0  0  0  0  0  0  0  0  0  0  0
   25.4496  -21.0631  -10.3247 C   0  0  2  0  0  0  0  0  0  0  0  0
   25.6050  -20.5805  -11.6809 N   0  0  0  0  0  0  0  0  0  0  0  0
   24.0680  -21.0095   -9.8507 C   0  0  0  0  0  0  0  0  0  0  0  0
   23.6738  -21.7665   -8.7699 O   0  0  0  0  0  0  0  0  0  0  0  0
   23.2296  -20.2787  -10.4183 O   0  0  0  0  0  0  0  0  0  0  0  0
  1  2  1  0
  3  5  1  0
  3  2  1  0
  4  3  2  0
  6  5  1  0
  6  7  1  6
  8  7  1  0
  8 12  1  0
  9  8  2  0
 10  6  1  0
 11 10  2  0
 13 14  1  0
 14 15  1  0
 15 16  1  1
 17 15  1  0
 17 18  1  6
 18 10  1  0
 19 17  1  0
 20 19  1  0
 21 19  2  0
M  END
$$$$
