GDI.pdb
     RDKit          3D

 21 20  0  0  1  0  0  0  0  0999 V2000
   16.0878  -13.5368  -15.1258 N   0  0  0  0  0  0  0  0  0  0  0  0
   15.8388  -12.6298  -16.2244 C   0  0  0  0  0  0  0  0  0  0  0  0
   16.9806  -11.7153  -16.4632 C   0  0  0  0  0  0  0  0  0  0  0  0
   18.1384  -12.1940  -16.5210 O   0  0  0  0  0  0  0  0  0  0  0  0
   16.8408  -10.3027  -16.6338 N   0  0  0  0  0  0  0  0  0  0  0  0
   17.9075   -9.4436  -17.0242 C   0  0  1  0  0  0  0  0  0  0  0  0
   17.3886   -8.1433  -17.5607 C   0  0  0  0  0  0  0  0  0  0  0  0
   16.6315   -8.2443  -18.8124 C   0  0  0  0  0  0  0  0  0  0  0  0
   15.5092   -7.6979  -18.9175 O   0  0  0  0  0  0  0  0  0  0  0  0
   18.8126   -9.1586  -15.8571 C   0  0  0  0  0  0  0  0  0  0  0  0
   18.3395   -8.9908  -14.7132 O   0  0  0  0  0  0  0  0  0  0  0  0
   17.1304   -8.9338  -19.8883 O   0  0  0  0  0  0  0  0  0  0  0  0
   23.0908  -12.0917  -15.3242 C   0  0  0  0  0  0  0  0  0  0  0  0
   21.8914  -11.2109  -15.0774 C   0  0  0  0  0  0  0  0  0  0  0  0
   22.3379   -9.7628  -15.1346 C   0  0  2  0  0  0  0  0  0  0  0  0
   23.2582   -9.5167  -13.9612 C   0  0  0  0  0  0  0  0  0  0  0  0
   21.1599   -8.8217  -14.9858 C   0  0  2  0  0  0  0  0  0  0  0  0
   20.2073   -9.0783  -16.0455 N   0  0  0  0  0  0  0  0  0  0  0  0
   21.6421   -7.4420  -14.9685 C   0  0  0  0  0  0  0  0  0  0  0  0
   21.9784   -6.8377  -13.7775 O   0  0  0  0  0  0  0  0  0  0  0  0
   21.7550   -6.7951  -16.0306 O   0  0  0  0  0  0  0  0  0  0  0  0
  1  2  1  0
  3  5  1  0
  3  2  1  0
  4  3  2  0
  6  5  1  0
  6  7  1  1
  8  7  1  0
  8 12  1  0
  9  8  2  0
 10  6  1  0
 11 10  2  0
 13 14  1  0
 14 15  1  0
 15 16  1  1
 17 15  1  0
 17 18  1  6
 18 10  1  0
 19 17  1  0
 20 19  1  0
 21 19  2  0
M  END
$$$$
