YFF.pdb
     RDKit          3D

 35 37  0  0  1  0  0  0  0  0999 V2000
   23.3178  -18.2538  -17.6896 O   0  0  0  0  0  0  0  0  0  0  0  0
   23.4870  -18.8767  -16.4466 C   0  0  0  0  0  0  0  0  0  0  0  0
   23.8954  -18.0815  -15.4019 C   0  0  0  0  0  0  0  0  0  0  0  0
   24.0679  -18.6790  -14.1665 C   0  0  0  0  0  0  0  0  0  0  0  0
   23.8476  -20.0146  -13.9584 C   0  0  0  0  0  0  0  0  0  0  0  0
   24.0580  -20.5811  -12.5901 C   0  0  0  0  0  0  0  0  0  0  0  0
   25.5666  -20.6091  -12.3501 C   0  0  2  0  0  0  0  0  0  0  0  0
   26.1535  -21.5218  -13.3070 N   0  0  0  0  0  0  0  0  0  0  0  0
   25.8880  -20.9795  -10.9595 C   0  0  0  0  0  0  0  0  0  0  0  0
   25.6168  -22.1200  -10.5001 O   0  0  0  0  0  0  0  0  0  0  0  0
   23.4407  -20.7927  -15.0114 C   0  0  0  0  0  0  0  0  0  0  0  0
   23.2552  -20.2316  -16.2707 C   0  0  0  0  0  0  0  0  0  0  0  0
   26.5121  -20.0525  -10.1096 N   0  0  0  0  0  0  0  0  0  0  0  0
   26.8391  -20.3058   -8.7171 C   0  0  1  0  0  0  0  0  0  0  0  0
   27.8080  -19.2391   -8.2539 C   0  0  0  0  0  0  0  0  0  0  0  0
   28.1961  -19.3915   -6.8528 C   0  0  0  0  0  0  0  0  0  0  0  0
   27.8644  -18.4658   -5.8918 C   0  0  0  0  0  0  0  0  0  0  0  0
   28.2212  -18.5917   -4.5731 C   0  0  0  0  0  0  0  0  0  0  0  0
   28.9462  -19.6844   -4.1572 C   0  0  0  0  0  0  0  0  0  0  0  0
   29.2941  -20.6307   -5.0982 C   0  0  0  0  0  0  0  0  0  0  0  0
   28.9218  -20.4855   -6.4367 C   0  0  0  0  0  0  0  0  0  0  0  0
   25.5854  -20.3530   -7.9482 C   0  0  0  0  0  0  0  0  0  0  0  0
   24.6815  -19.5190   -8.1736 O   0  0  0  0  0  0  0  0  0  0  0  0
   25.3606  -21.3324   -6.9421 N   0  0  0  0  0  0  0  0  0  0  0  0
   24.1477  -21.2887   -6.1211 C   0  0  1  0  0  0  0  0  0  0  0  0
   23.4729  -22.6490   -6.1720 C   0  0  0  0  0  0  0  0  0  0  0  0
   22.2451  -22.6913   -5.3514 C   0  0  0  0  0  0  0  0  0  0  0  0
   20.9889  -22.5039   -5.8796 C   0  0  0  0  0  0  0  0  0  0  0  0
   19.8712  -22.5526   -5.0719 C   0  0  0  0  0  0  0  0  0  0  0  0
   19.9581  -22.7872   -3.7207 C   0  0  0  0  0  0  0  0  0  0  0  0
   21.2141  -22.9762   -3.1827 C   0  0  0  0  0  0  0  0  0  0  0  0
   22.3371  -22.9267   -3.9976 C   0  0  0  0  0  0  0  0  0  0  0  0
   24.4332  -20.8692   -4.7412 C   0  0  0  0  0  0  0  0  0  0  0  0
   23.5547  -20.0199   -4.0978 O   0  0  0  0  0  0  0  0  0  0  0  0
   25.4507  -21.2531   -4.1190 O   0  0  0  0  0  0  0  0  0  0  0  0
  2  3  2  0
  2  1  1  0
  4  3  1  0
  5  4  2  0
  6  5  1  0
  7  6  1  0
  7  8  1  6
  9  7  1  0
  9 10  2  0
 11  5  1  0
 11 12  2  0
 12  2  1  0
 13  9  1  0
 14 13  1  0
 14 15  1  1
 16 17  2  0
 16 15  1  0
 18 17  1  0
 19 18  2  0
 20 21  2  0
 20 19  1  0
 21 16  1  0
 22 14  1  0
 23 22  2  0
 24 22  1  0
 25 26  1  1
 25 24  1  0
 26 27  1  0
 27 28  2  0
 27 32  1  0
 28 29  1  0
 29 30  2  0
 31 30  1  0
 32 31  2  0
 33 25  1  0
 34 33  1  0
 35 33  2  0
M  END
$$$$
