YFF.pdb
     RDKit          3D

 35 37  0  0  1  0  0  0  0  0999 V2000
   29.8035  -16.6949  -20.2617 O   0  0  0  0  0  0  0  0  0  0  0  0
   28.9861  -17.3360  -19.3224 C   0  0  0  0  0  0  0  0  0  0  0  0
   27.9902  -18.1468  -19.8138 C   0  0  0  0  0  0  0  0  0  0  0  0
   27.1727  -18.7885  -18.9011 C   0  0  0  0  0  0  0  0  0  0  0  0
   27.3241  -18.6417  -17.5479 C   0  0  0  0  0  0  0  0  0  0  0  0
   26.3963  -19.3720  -16.6297 C   0  0  0  0  0  0  0  0  0  0  0  0
   27.1533  -20.5965  -16.1180 C   0  0  2  0  0  0  0  0  0  0  0  0
   27.2887  -21.5282  -17.2166 N   0  0  0  0  0  0  0  0  0  0  0  0
   26.4808  -21.2032  -14.9545 C   0  0  0  0  0  0  0  0  0  0  0  0
   25.5382  -22.0268  -15.0915 O   0  0  0  0  0  0  0  0  0  0  0  0
   28.3223  -17.8293  -17.0754 C   0  0  0  0  0  0  0  0  0  0  0  0
   29.1669  -17.1654  -17.9591 C   0  0  0  0  0  0  0  0  0  0  0  0
   26.8857  -20.8681  -13.6526 N   0  0  0  0  0  0  0  0  0  0  0  0
   26.1290  -21.1782  -12.4519 C   0  0  1  0  0  0  0  0  0  0  0  0
   26.9979  -20.8749  -11.2501 C   0  0  0  0  0  0  0  0  0  0  0  0
   26.2465  -20.8468   -9.9964 C   0  0  0  0  0  0  0  0  0  0  0  0
   25.9675  -19.6764   -9.3310 C   0  0  0  0  0  0  0  0  0  0  0  0
   25.2653  -19.6314   -8.1532 C   0  0  0  0  0  0  0  0  0  0  0  0
   24.8030  -20.7945   -7.5823 C   0  0  0  0  0  0  0  0  0  0  0  0
   25.0670  -21.9851   -8.2264 C   0  0  0  0  0  0  0  0  0  0  0  0
   25.7837  -22.0114   -9.4250 C   0  0  0  0  0  0  0  0  0  0  0  0
   24.8694  -20.4185  -12.4893 C   0  0  0  0  0  0  0  0  0  0  0  0
   24.8917  -19.1768  -12.6341 O   0  0  0  0  0  0  0  0  0  0  0  0
   23.6053  -21.0584  -12.3671 N   0  0  0  0  0  0  0  0  0  0  0  0
   22.3805  -20.2644  -12.2394 C   0  0  1  0  0  0  0  0  0  0  0  0
   22.2053  -19.4292  -13.4964 C   0  0  0  0  0  0  0  0  0  0  0  0
   21.9430  -20.2644  -14.6865 C   0  0  0  0  0  0  0  0  0  0  0  0
   20.7029  -20.7869  -14.9716 C   0  0  0  0  0  0  0  0  0  0  0  0
   20.5072  -21.5620  -16.0963 C   0  0  0  0  0  0  0  0  0  0  0  0
   21.5270  -21.8450  -16.9728 C   0  0  0  0  0  0  0  0  0  0  0  0
   22.7739  -21.3250  -16.6945 C   0  0  0  0  0  0  0  0  0  0  0  0
   22.9680  -20.5454  -15.5621 C   0  0  0  0  0  0  0  0  0  0  0  0
   21.2054  -21.1066  -11.9721 C   0  0  0  0  0  0  0  0  0  0  0  0
   19.9795  -20.5078  -11.7585 O   0  0  0  0  0  0  0  0  0  0  0  0
   21.2707  -22.3571  -11.9288 O   0  0  0  0  0  0  0  0  0  0  0  0
  2  3  2  0
  2  1  1  0
  4  3  1  0
  5  4  2  0
  6  5  1  0
  7  6  1  0
  7  8  1  6
  9  7  1  0
  9 10  2  0
 11  5  1  0
 11 12  2  0
 12  2  1  0
 13  9  1  0
 14 13  1  0
 14 15  1  1
 16 17  2  0
 16 15  1  0
 18 17  1  0
 19 18  2  0
 20 21  2  0
 20 19  1  0
 21 16  1  0
 22 14  1  0
 23 22  2  0
 24 22  1  0
 25 26  1  6
 25 24  1  0
 26 27  1  0
 27 28  2  0
 27 32  1  0
 28 29  1  0
 29 30  2  0
 31 30  1  0
 32 31  2  0
 33 25  1  0
 34 33  1  0
 35 33  2  0
M  END
$$$$
