YFF.pdb
     RDKit          3D

 35 37  0  0  1  0  0  0  0  0999 V2000
    9.0900  -12.2758  -16.3030 O   0  0  0  0  0  0  0  0  0  0  0  0
   10.0749  -11.9625  -15.3578 C   0  0  0  0  0  0  0  0  0  0  0  0
   10.7219  -10.7585  -15.5082 C   0  0  0  0  0  0  0  0  0  0  0  0
   11.6978  -10.4317  -14.5842 C   0  0  0  0  0  0  0  0  0  0  0  0
   12.0315  -11.2575  -13.5439 C   0  0  0  0  0  0  0  0  0  0  0  0
   13.0994  -10.8276  -12.5888 C   0  0  0  0  0  0  0  0  0  0  0  0
   14.4385  -11.0776  -13.2807 C   0  0  2  0  0  0  0  0  0  0  0  0
   14.6314  -12.5084  -13.3748 N   0  0  0  0  0  0  0  0  0  0  0  0
   15.5477  -10.4127  -12.5725 C   0  0  0  0  0  0  0  0  0  0  0  0
   16.0063  -10.8651  -11.4907 O   0  0  0  0  0  0  0  0  0  0  0  0
   11.3762  -12.4542  -13.4091 C   0  0  0  0  0  0  0  0  0  0  0  0
   10.3880  -12.8216  -14.3165 C   0  0  0  0  0  0  0  0  0  0  0  0
   16.1214   -9.2450  -13.1001 N   0  0  0  0  0  0  0  0  0  0  0  0
   17.2314   -8.5295  -12.4949 C   0  0  1  0  0  0  0  0  0  0  0  0
   18.2644   -8.2581  -13.5676 C   0  0  0  0  0  0  0  0  0  0  0  0
   19.3774   -7.4382  -13.0923 C   0  0  0  0  0  0  0  0  0  0  0  0
   20.3528   -7.9323  -12.2587 C   0  0  0  0  0  0  0  0  0  0  0  0
   21.4032   -7.1772  -11.8018 C   0  0  0  0  0  0  0  0  0  0  0  0
   21.5171   -5.8582  -12.1759 C   0  0  0  0  0  0  0  0  0  0  0  0
   20.5538   -5.3335  -13.0119 C   0  0  0  0  0  0  0  0  0  0  0  0
   19.4913   -6.1178  -13.4670 C   0  0  0  0  0  0  0  0  0  0  0  0
   16.7039   -7.3173  -11.8488 C   0  0  0  0  0  0  0  0  0  0  0  0
   15.8706   -6.6020  -12.4465 O   0  0  0  0  0  0  0  0  0  0  0  0
   17.1135   -6.9254  -10.5447 N   0  0  0  0  0  0  0  0  0  0  0  0
   16.5861   -5.7006   -9.9376 C   0  0  1  0  0  0  0  0  0  0  0  0
   16.2107   -5.9919   -8.4945 C   0  0  0  0  0  0  0  0  0  0  0  0
   14.9680   -6.7842   -8.3927 C   0  0  0  0  0  0  0  0  0  0  0  0
   14.9455   -8.0789   -7.9284 C   0  0  0  0  0  0  0  0  0  0  0  0
   13.7587   -8.7787   -7.8517 C   0  0  0  0  0  0  0  0  0  0  0  0
   12.5598   -8.2240   -8.2300 C   0  0  0  0  0  0  0  0  0  0  0  0
   12.5732   -6.9261   -8.6968 C   0  0  0  0  0  0  0  0  0  0  0  0
   13.7687   -6.2242   -8.7729 C   0  0  0  0  0  0  0  0  0  0  0  0
   17.5354   -4.5827  -10.0425 C   0  0  0  0  0  0  0  0  0  0  0  0
   17.1345   -3.3177   -9.6603 O   0  0  0  0  0  0  0  0  0  0  0  0
   18.7040   -4.7313  -10.4692 O   0  0  0  0  0  0  0  0  0  0  0  0
  2  3  2  0
  2  1  1  0
  4  3  1  0
  5  4  2  0
  6  5  1  0
  7  6  1  0
  7  8  1  1
  9  7  1  0
  9 10  2  0
 11  5  1  0
 11 12  2  0
 12  2  1  0
 13  9  1  0
 14 13  1  0
 14 15  1  6
 16 17  2  0
 16 15  1  0
 18 17  1  0
 19 18  2  0
 20 21  2  0
 20 19  1  0
 21 16  1  0
 22 14  1  0
 23 22  2  0
 24 22  1  0
 25 26  1  1
 25 24  1  0
 26 27  1  0
 27 28  2  0
 27 32  1  0
 28 29  1  0
 29 30  2  0
 31 30  1  0
 32 31  2  0
 33 25  1  0
 34 33  1  0
 35 33  2  0
M  END
$$$$
