YFF.pdb
     RDKit          3D

 35 37  0  0  1  0  0  0  0  0999 V2000
   18.0631  -19.4564  -11.0941 O   0  0  0  0  0  0  0  0  0  0  0  0
   18.8205  -19.2379  -12.2518 C   0  0  0  0  0  0  0  0  0  0  0  0
   19.8340  -20.1303  -12.5107 C   0  0  0  0  0  0  0  0  0  0  0  0
   20.5929  -19.9306  -13.6496 C   0  0  0  0  0  0  0  0  0  0  0  0
   20.3677  -18.8893  -14.5101 C   0  0  0  0  0  0  0  0  0  0  0  0
   21.2356  -18.7459  -15.7200 C   0  0  0  0  0  0  0  0  0  0  0  0
   22.4736  -17.9628  -15.2860 C   0  0  2  0  0  0  0  0  0  0  0  0
   22.0519  -16.6269  -14.9241 N   0  0  0  0  0  0  0  0  0  0  0  0
   23.5063  -17.9536  -16.3383 C   0  0  0  0  0  0  0  0  0  0  0  0
   23.4878  -17.1120  -17.2748 O   0  0  0  0  0  0  0  0  0  0  0  0
   19.3529  -18.0090  -14.2365 C   0  0  0  0  0  0  0  0  0  0  0  0
   18.5656  -18.1733  -13.1015 C   0  0  0  0  0  0  0  0  0  0  0  0
   24.5451  -18.8978  -16.3147 N   0  0  0  0  0  0  0  0  0  0  0  0
   25.6137  -18.9678  -17.2962 C   0  0  1  0  0  0  0  0  0  0  0  0
   26.9314  -18.7588  -16.5811 C   0  0  0  0  0  0  0  0  0  0  0  0
   27.1666  -17.3629  -16.2165 C   0  0  0  0  0  0  0  0  0  0  0  0
   27.6763  -16.4454  -17.1047 C   0  0  0  0  0  0  0  0  0  0  0  0
   27.9048  -15.1323  -16.7796 C   0  0  0  0  0  0  0  0  0  0  0  0
   27.6217  -14.6774  -15.5125 C   0  0  0  0  0  0  0  0  0  0  0  0
   27.1092  -15.5742  -14.5987 C   0  0  0  0  0  0  0  0  0  0  0  0
   26.8831  -16.9077  -14.9479 C   0  0  0  0  0  0  0  0  0  0  0  0
   25.5108  -20.2549  -18.0018 C   0  0  0  0  0  0  0  0  0  0  0  0
   25.3835  -21.3158  -17.3524 O   0  0  0  0  0  0  0  0  0  0  0  0
   25.5490  -20.3360  -19.4209 N   0  0  0  0  0  0  0  0  0  0  0  0
   24.7083  -21.3024  -20.1323 C   0  0  1  0  0  0  0  0  0  0  0  0
   23.2606  -21.0840  -19.7263 C   0  0  0  0  0  0  0  0  0  0  0  0
   22.3398  -21.9905  -20.4426 C   0  0  0  0  0  0  0  0  0  0  0  0
   21.7164  -21.6427  -21.6184 C   0  0  0  0  0  0  0  0  0  0  0  0
   20.8640  -22.5245  -22.2508 C   0  0  0  0  0  0  0  0  0  0  0  0
   20.6008  -23.7742  -21.7436 C   0  0  0  0  0  0  0  0  0  0  0  0
   21.2217  -24.1311  -20.5648 C   0  0  0  0  0  0  0  0  0  0  0  0
   22.0790  -23.2420  -19.9305 C   0  0  0  0  0  0  0  0  0  0  0  0
   24.8881  -21.2191  -21.5892 C   0  0  0  0  0  0  0  0  0  0  0  0
   25.1782  -19.9981  -22.1655 O   0  0  0  0  0  0  0  0  0  0  0  0
   24.7873  -22.2193  -22.3370 O   0  0  0  0  0  0  0  0  0  0  0  0
  2  3  2  0
  2  1  1  0
  4  3  1  0
  5  4  2  0
  6  5  1  0
  7  6  1  0
  7  8  1  6
  9  7  1  0
  9 10  2  0
 11  5  1  0
 11 12  2  0
 12  2  1  0
 13  9  1  0
 14 13  1  0
 14 15  1  1
 16 17  2  0
 16 15  1  0
 18 17  1  0
 19 18  2  0
 20 21  2  0
 20 19  1  0
 21 16  1  0
 22 14  1  0
 23 22  2  0
 24 22  1  0
 25 26  1  6
 25 24  1  0
 26 27  1  0
 27 28  2  0
 27 32  1  0
 28 29  1  0
 29 30  2  0
 31 30  1  0
 32 31  2  0
 33 25  1  0
 34 33  1  0
 35 33  2  0
M  END
$$$$
