YFF.pdb
     RDKit          3D

 35 37  0  0  1  0  0  0  0  0999 V2000
   24.8417  -13.8749  -24.7237 O   0  0  0  0  0  0  0  0  0  0  0  0
   24.2529  -13.3147  -23.5830 C   0  0  0  0  0  0  0  0  0  0  0  0
   24.5099  -11.9864  -23.3380 C   0  0  0  0  0  0  0  0  0  0  0  0
   23.9370  -11.4156  -22.2159 C   0  0  0  0  0  0  0  0  0  0  0  0
   23.1364  -12.1226  -21.3587 C   0  0  0  0  0  0  0  0  0  0  0  0
   22.5563  -11.4284  -20.1674 C   0  0  0  0  0  0  0  0  0  0  0  0
   23.7136  -11.1534  -19.2086 C   0  0  2  0  0  0  0  0  0  0  0  0
   24.2606  -12.4267  -18.7931 N   0  0  0  0  0  0  0  0  0  0  0  0
   23.2846  -10.3320  -18.0617 C   0  0  0  0  0  0  0  0  0  0  0  0
   22.4992  -10.7799  -17.1854 O   0  0  0  0  0  0  0  0  0  0  0  0
   22.8908  -13.4462  -21.6183 C   0  0  0  0  0  0  0  0  0  0  0  0
   23.4474  -14.0592  -22.7361 C   0  0  0  0  0  0  0  0  0  0  0  0
   23.7515   -9.0151  -17.9242 N   0  0  0  0  0  0  0  0  0  0  0  0
   23.4395   -8.1462  -16.8026 C   0  0  1  0  0  0  0  0  0  0  0  0
   24.7395   -7.6276  -16.2261 C   0  0  0  0  0  0  0  0  0  0  0  0
   25.6252   -8.6959  -15.7667 C   0  0  0  0  0  0  0  0  0  0  0  0
   26.7639   -9.0533  -16.4495 C   0  0  0  0  0  0  0  0  0  0  0  0
   27.6056  -10.0539  -16.0341 C   0  0  0  0  0  0  0  0  0  0  0  0
   27.3275  -10.7541  -14.8830 C   0  0  0  0  0  0  0  0  0  0  0  0
   26.1920  -10.4186  -14.1758 C   0  0  0  0  0  0  0  0  0  0  0  0
   25.3466   -9.3967  -14.6143 C   0  0  0  0  0  0  0  0  0  0  0  0
   22.5283   -7.0911  -17.2738 C   0  0  0  0  0  0  0  0  0  0  0  0
   22.7841   -6.4681  -18.3272 O   0  0  0  0  0  0  0  0  0  0  0  0
   21.3451   -6.7510  -16.5622 N   0  0  0  0  0  0  0  0  0  0  0  0
   20.5051   -5.6363  -17.0080 C   0  0  1  0  0  0  0  0  0  0  0  0
   19.3624   -6.1882  -17.8436 C   0  0  0  0  0  0  0  0  0  0  0  0
   18.4525   -5.1231  -18.3130 C   0  0  0  0  0  0  0  0  0  0  0  0
   18.7579   -4.2926  -19.3662 C   0  0  0  0  0  0  0  0  0  0  0  0
   17.8748   -3.3116  -19.7681 C   0  0  0  0  0  0  0  0  0  0  0  0
   16.6653   -3.1199  -19.1446 C   0  0  0  0  0  0  0  0  0  0  0  0
   16.3510   -3.9483  -18.0875 C   0  0  0  0  0  0  0  0  0  0  0  0
   17.2415   -4.9347  -17.6851 C   0  0  0  0  0  0  0  0  0  0  0  0
   20.0193   -4.8290  -15.8793 C   0  0  0  0  0  0  0  0  0  0  0  0
   19.9048   -3.4608  -16.0271 O   0  0  0  0  0  0  0  0  0  0  0  0
   19.7025   -5.3356  -14.7780 O   0  0  0  0  0  0  0  0  0  0  0  0
  2  3  2  0
  2  1  1  0
  4  3  1  0
  5  4  2  0
  6  5  1  0
  7  6  1  0
  7  8  1  1
  9  7  1  0
  9 10  2  0
 11  5  1  0
 11 12  2  0
 12  2  1  0
 13  9  1  0
 14 13  1  0
 14 15  1  6
 16 17  2  0
 16 15  1  0
 18 17  1  0
 19 18  2  0
 20 21  2  0
 20 19  1  0
 21 16  1  0
 22 14  1  0
 23 22  2  0
 24 22  1  0
 25 26  1  1
 25 24  1  0
 26 27  1  0
 27 28  2  0
 27 32  1  0
 28 29  1  0
 29 30  2  0
 31 30  1  0
 32 31  2  0
 33 25  1  0
 34 33  1  0
 35 33  2  0
M  END
$$$$
