YFF.pdb
     RDKit          3D

 35 37  0  0  1  0  0  0  0  0999 V2000
   22.6257  -14.2739  -21.8409 O   0  0  0  0  0  0  0  0  0  0  0  0
   22.3708  -15.2634  -20.8830 C   0  0  0  0  0  0  0  0  0  0  0  0
   22.3135  -16.5626  -21.3296 C   0  0  0  0  0  0  0  0  0  0  0  0
   22.0627  -17.5536  -20.3980 C   0  0  0  0  0  0  0  0  0  0  0  0
   21.8734  -17.2827  -19.0690 C   0  0  0  0  0  0  0  0  0  0  0  0
   21.6068  -18.4142  -18.1277 C   0  0  0  0  0  0  0  0  0  0  0  0
   22.8668  -18.5922  -17.2820 C   0  0  2  0  0  0  0  0  0  0  0  0
   23.9200  -19.0766  -18.1477 N   0  0  0  0  0  0  0  0  0  0  0  0
   22.6299  -19.4919  -16.1381 C   0  0  0  0  0  0  0  0  0  0  0  0
   22.7319  -20.7420  -16.2487 O   0  0  0  0  0  0  0  0  0  0  0  0
   21.9339  -15.9815  -18.6411 C   0  0  0  0  0  0  0  0  0  0  0  0
   22.1839  -14.9543  -19.5451 C   0  0  0  0  0  0  0  0  0  0  0  0
   22.2809  -18.9624  -14.8855 N   0  0  0  0  0  0  0  0  0  0  0  0
   21.9644  -19.7626  -13.7151 C   0  0  1  0  0  0  0  0  0  0  0  0
   22.5002  -19.0497  -12.4920 C   0  0  0  0  0  0  0  0  0  0  0  0
   22.1773  -19.7387  -11.2438 C   0  0  0  0  0  0  0  0  0  0  0  0
   22.9837  -20.7177  -10.7129 C   0  0  0  0  0  0  0  0  0  0  0  0
   22.6957  -21.3756   -9.5440 C   0  0  0  0  0  0  0  0  0  0  0  0
   21.5530  -21.0662   -8.8432 C   0  0  0  0  0  0  0  0  0  0  0  0
   20.7236  -20.0880   -9.3505 C   0  0  0  0  0  0  0  0  0  0  0  0
   21.0333  -19.4288  -10.5424 C   0  0  0  0  0  0  0  0  0  0  0  0
   20.5108  -19.9900  -13.6889 C   0  0  0  0  0  0  0  0  0  0  0  0
   19.7245  -19.0293  -13.8380 O   0  0  0  0  0  0  0  0  0  0  0  0
   19.9593  -21.2869  -13.4994 N   0  0  0  0  0  0  0  0  0  0  0  0
   18.5176  -21.4590  -13.3024 C   0  0  1  0  0  0  0  0  0  0  0  0
   17.9715  -22.3317  -14.4198 C   0  0  0  0  0  0  0  0  0  0  0  0
   16.5167  -22.5542  -14.2907 C   0  0  0  0  0  0  0  0  0  0  0  0
   15.9835  -23.6979  -13.7430 C   0  0  0  0  0  0  0  0  0  0  0  0
   14.6168  -23.8599  -13.6440 C   0  0  0  0  0  0  0  0  0  0  0  0
   13.7356  -22.9005  -14.0813 C   0  0  0  0  0  0  0  0  0  0  0  0
   14.2618  -21.7504  -14.6319 C   0  0  0  0  0  0  0  0  0  0  0  0
   15.6374  -21.5900  -14.7303 C   0  0  0  0  0  0  0  0  0  0  0  0
   18.2065  -22.0091  -11.9748 C   0  0  0  0  0  0  0  0  0  0  0  0
   17.1633  -21.4703  -11.2478 O   0  0  0  0  0  0  0  0  0  0  0  0
   18.8552  -22.9549  -11.4704 O   0  0  0  0  0  0  0  0  0  0  0  0
  2  3  2  0
  2  1  1  0
  4  3  1  0
  5  4  2  0
  6  5  1  0
  7  6  1  0
  7  8  1  6
  9  7  1  0
  9 10  2  0
 11  5  1  0
 11 12  2  0
 12  2  1  0
 13  9  1  0
 14 13  1  0
 14 15  1  1
 16 17  2  0
 16 15  1  0
 18 17  1  0
 19 18  2  0
 20 21  2  0
 20 19  1  0
 21 16  1  0
 22 14  1  0
 23 22  2  0
 24 22  1  0
 25 26  1  6
 25 24  1  0
 26 27  1  0
 27 28  2  0
 27 32  1  0
 28 29  1  0
 29 30  2  0
 31 30  1  0
 32 31  2  0
 33 25  1  0
 34 33  1  0
 35 33  2  0
M  END
$$$$
