YFF.pdb
     RDKit          3D

 35 37  0  0  1  0  0  0  0  0999 V2000
   24.6635  -13.6657  -19.7546 O   0  0  0  0  0  0  0  0  0  0  0  0
   24.5806  -14.7034  -18.8177 C   0  0  0  0  0  0  0  0  0  0  0  0
   23.4083  -15.4214  -18.7855 C   0  0  0  0  0  0  0  0  0  0  0  0
   23.3080  -16.4503  -17.8666 C   0  0  0  0  0  0  0  0  0  0  0  0
   24.3236  -16.7680  -17.0046 C   0  0  0  0  0  0  0  0  0  0  0  0
   24.1327  -17.8964  -16.0415 C   0  0  0  0  0  0  0  0  0  0  0  0
   25.1989  -18.9412  -16.3671 C   0  0  2  0  0  0  0  0  0  0  0  0
   25.0057  -19.3632  -17.7374 N   0  0  0  0  0  0  0  0  0  0  0  0
   25.1538  -20.0744  -15.4249 C   0  0  0  0  0  0  0  0  0  0  0  0
   24.2291  -20.9283  -15.4625 O   0  0  0  0  0  0  0  0  0  0  0  0
   25.4855  -16.0417  -17.0505 C   0  0  0  0  0  0  0  0  0  0  0  0
   25.6280  -14.9985  -17.9596 C   0  0  0  0  0  0  0  0  0  0  0  0
   26.1566  -20.2240  -14.4539 N   0  0  0  0  0  0  0  0  0  0  0  0
   26.2211  -21.3195  -13.5019 C   0  0  1  0  0  0  0  0  0  0  0  0
   27.6163  -21.9049  -13.5434 C   0  0  0  0  0  0  0  0  0  0  0  0
   28.6304  -20.9992  -13.0063 C   0  0  0  0  0  0  0  0  0  0  0  0
   29.1529  -21.1446  -11.7429 C   0  0  0  0  0  0  0  0  0  0  0  0
   30.1035  -20.3037  -11.2221 C   0  0  0  0  0  0  0  0  0  0  0  0
   30.5797  -19.2537  -11.9728 C   0  0  0  0  0  0  0  0  0  0  0  0
   30.0748  -19.0817  -13.2446 C   0  0  0  0  0  0  0  0  0  0  0  0
   29.1069  -19.9481  -13.7580 C   0  0  0  0  0  0  0  0  0  0  0  0
   25.8233  -20.8086  -12.1805 C   0  0  0  0  0  0  0  0  0  0  0  0
   26.0595  -19.6201  -11.8722 O   0  0  0  0  0  0  0  0  0  0  0  0
   25.1657  -21.6326  -11.2262 N   0  0  0  0  0  0  0  0  0  0  0  0
   24.6032  -21.0505  -10.0049 C   0  0  1  0  0  0  0  0  0  0  0  0
   25.3762  -19.7879   -9.6634 C   0  0  0  0  0  0  0  0  0  0  0  0
   26.2164  -19.9589   -8.4603 C   0  0  0  0  0  0  0  0  0  0  0  0
   26.3972  -21.1756   -7.8445 C   0  0  0  0  0  0  0  0  0  0  0  0
   27.1922  -21.2851   -6.7220 C   0  0  0  0  0  0  0  0  0  0  0  0
   27.8321  -20.1999   -6.1734 C   0  0  0  0  0  0  0  0  0  0  0  0
   27.6562  -18.9759   -6.7847 C   0  0  0  0  0  0  0  0  0  0  0  0
   26.8558  -18.8685   -7.9140 C   0  0  0  0  0  0  0  0  0  0  0  0
   23.1612  -20.7934  -10.1326 C   0  0  0  0  0  0  0  0  0  0  0  0
   22.6930  -20.1025  -11.2328 O   0  0  0  0  0  0  0  0  0  0  0  0
   22.3315  -21.1780   -9.2762 O   0  0  0  0  0  0  0  0  0  0  0  0
  2  3  2  0
  2  1  1  0
  4  3  1  0
  5  4  2  0
  6  5  1  0
  7  6  1  0
  7  8  1  6
  9  7  1  0
  9 10  2  0
 11  5  1  0
 11 12  2  0
 12  2  1  0
 13  9  1  0
 14 13  1  0
 14 15  1  1
 16 17  2  0
 16 15  1  0
 18 17  1  0
 19 18  2  0
 20 21  2  0
 20 19  1  0
 21 16  1  0
 22 14  1  0
 23 22  2  0
 24 22  1  0
 25 26  1  6
 25 24  1  0
 26 27  1  0
 27 28  2  0
 27 32  1  0
 28 29  1  0
 29 30  2  0
 31 30  1  0
 32 31  2  0
 33 25  1  0
 34 33  1  0
 35 33  2  0
M  END
$$$$
