YFF.pdb
     RDKit          3D

 35 37  0  0  1  0  0  0  0  0999 V2000
   23.8693  -15.9222  -21.7299 O   0  0  0  0  0  0  0  0  0  0  0  0
   23.4593  -16.8374  -20.7522 C   0  0  0  0  0  0  0  0  0  0  0  0
   22.9589  -16.3165  -19.5822 C   0  0  0  0  0  0  0  0  0  0  0  0
   22.5489  -17.2051  -18.6048 C   0  0  0  0  0  0  0  0  0  0  0  0
   22.6257  -18.5629  -18.7664 C   0  0  0  0  0  0  0  0  0  0  0  0
   22.1604  -19.4538  -17.6586 C   0  0  0  0  0  0  0  0  0  0  0  0
   23.3804  -19.7520  -16.7886 C   0  0  2  0  0  0  0  0  0  0  0  0
   24.3242  -20.5039  -17.5869 N   0  0  0  0  0  0  0  0  0  0  0  0
   23.0051  -20.4649  -15.5537 C   0  0  0  0  0  0  0  0  0  0  0  0
   22.8091  -21.7086  -15.5425 O   0  0  0  0  0  0  0  0  0  0  0  0
   23.1273  -19.0650  -19.9394 C   0  0  0  0  0  0  0  0  0  0  0  0
   23.5509  -18.2062  -20.9484 C   0  0  0  0  0  0  0  0  0  0  0  0
   22.8573  -19.7586  -14.3494 N   0  0  0  0  0  0  0  0  0  0  0  0
   22.4399  -20.3562  -13.0928 C   0  0  1  0  0  0  0  0  0  0  0  0
   22.8827  -19.4498  -11.9643 C   0  0  0  0  0  0  0  0  0  0  0  0
   22.5486  -19.9796  -10.6435 C   0  0  0  0  0  0  0  0  0  0  0  0
   23.4132  -20.7743   -9.9283 C   0  0  0  0  0  0  0  0  0  0  0  0
   23.1159  -21.2813   -8.6887 C   0  0  0  0  0  0  0  0  0  0  0  0
   21.9031  -21.0011   -8.1029 C   0  0  0  0  0  0  0  0  0  0  0  0
   21.0141  -20.2063   -8.7958 C   0  0  0  0  0  0  0  0  0  0  0  0
   21.3343  -19.6989  -10.0572 C   0  0  0  0  0  0  0  0  0  0  0  0
   20.9868  -20.5813  -13.1472 C   0  0  0  0  0  0  0  0  0  0  0  0
   20.2214  -19.6500  -13.4791 O   0  0  0  0  0  0  0  0  0  0  0  0
   20.4125  -21.8436  -12.8328 N   0  0  0  0  0  0  0  0  0  0  0  0
   18.9612  -21.9834  -12.6869 C   0  0  1  0  0  0  0  0  0  0  0  0
   18.4656  -23.0135  -13.6878 C   0  0  0  0  0  0  0  0  0  0  0  0
   18.5290  -22.5141  -15.0767 C   0  0  0  0  0  0  0  0  0  0  0  0
   19.5828  -22.7844  -15.9185 C   0  0  0  0  0  0  0  0  0  0  0  0
   19.5966  -22.2950  -17.2086 C   0  0  0  0  0  0  0  0  0  0  0  0
   18.5731  -21.5254  -17.7071 C   0  0  0  0  0  0  0  0  0  0  0  0
   17.5124  -21.2495  -16.8697 C   0  0  0  0  0  0  0  0  0  0  0  0
   17.5010  -21.7432  -15.5720 C   0  0  0  0  0  0  0  0  0  0  0  0
   18.5783  -22.3280  -11.3099 C   0  0  0  0  0  0  0  0  0  0  0  0
   17.2420  -22.3337  -10.9616 O   0  0  0  0  0  0  0  0  0  0  0  0
   19.4220  -22.6187  -10.4305 O   0  0  0  0  0  0  0  0  0  0  0  0
  2  3  2  0
  2  1  1  0
  4  3  1  0
  5  4  2  0
  6  5  1  0
  7  6  1  0
  7  8  1  6
  9  7  1  0
  9 10  2  0
 11  5  1  0
 11 12  2  0
 12  2  1  0
 13  9  1  0
 14 13  1  0
 14 15  1  1
 16 17  2  0
 16 15  1  0
 18 17  1  0
 19 18  2  0
 20 21  2  0
 20 19  1  0
 21 16  1  0
 22 14  1  0
 23 22  2  0
 24 22  1  0
 25 26  1  6
 25 24  1  0
 26 27  1  0
 27 28  2  0
 27 32  1  0
 28 29  1  0
 29 30  2  0
 31 30  1  0
 32 31  2  0
 33 25  1  0
 34 33  1  0
 35 33  2  0
M  END
$$$$
