YFF.pdb
     RDKit          3D

 35 37  0  0  1  0  0  0  0  0999 V2000
   21.0521  -13.5094  -15.9969 O   0  0  0  0  0  0  0  0  0  0  0  0
   21.9503  -14.5822  -15.9362 C   0  0  0  0  0  0  0  0  0  0  0  0
   22.9631  -14.6000  -16.8661 C   0  0  0  0  0  0  0  0  0  0  0  0
   23.8600  -15.6519  -16.8218 C   0  0  0  0  0  0  0  0  0  0  0  0
   23.7697  -16.6568  -15.8958 C   0  0  0  0  0  0  0  0  0  0  0  0
   24.7817  -17.7580  -15.9177 C   0  0  0  0  0  0  0  0  0  0  0  0
   25.6139  -17.6194  -14.6439 C   0  0  2  0  0  0  0  0  0  0  0  0
   26.3647  -16.3859  -14.7338 N   0  0  0  0  0  0  0  0  0  0  0  0
   26.4884  -18.7884  -14.4371 C   0  0  0  0  0  0  0  0  0  0  0  0
   27.6709  -18.8135  -14.8690 O   0  0  0  0  0  0  0  0  0  0  0  0
   22.7535  -16.6232  -14.9760 C   0  0  0  0  0  0  0  0  0  0  0  0
   21.8298  -15.5832  -14.9855 C   0  0  0  0  0  0  0  0  0  0  0  0
   26.0107  -19.9121  -13.7441 N   0  0  0  0  0  0  0  0  0  0  0  0
   26.7266  -21.1707  -13.6278 C   0  0  1  0  0  0  0  0  0  0  0  0
   26.4150  -21.7724  -12.2743 C   0  0  0  0  0  0  0  0  0  0  0  0
   27.1440  -21.1284  -11.1831 C   0  0  0  0  0  0  0  0  0  0  0  0
   28.4959  -21.2988  -10.9990 C   0  0  0  0  0  0  0  0  0  0  0  0
   29.1957  -20.7037   -9.9800 C   0  0  0  0  0  0  0  0  0  0  0  0
   28.5452  -19.8909   -9.0807 C   0  0  0  0  0  0  0  0  0  0  0  0
   27.1884  -19.7004   -9.2392 C   0  0  0  0  0  0  0  0  0  0  0  0
   26.4925  -20.3147  -10.2829 C   0  0  0  0  0  0  0  0  0  0  0  0
   26.3500  -22.0245  -14.7656 C   0  0  0  0  0  0  0  0  0  0  0  0
   25.1562  -22.0878  -15.1320 O   0  0  0  0  0  0  0  0  0  0  0  0
   27.3131  -22.7913  -15.4773 N   0  0  0  0  0  0  0  0  0  0  0  0
   27.3542  -22.7576  -16.9416 C   0  0  1  0  0  0  0  0  0  0  0  0
   27.4432  -21.3104  -17.3955 C   0  0  0  0  0  0  0  0  0  0  0  0
   27.4707  -21.1905  -18.8678 C   0  0  0  0  0  0  0  0  0  0  0  0
   27.3311  -22.2720  -19.7063 C   0  0  0  0  0  0  0  0  0  0  0  0
   27.3636  -22.1095  -21.0761 C   0  0  0  0  0  0  0  0  0  0  0  0
   27.5344  -20.8773  -21.6600 C   0  0  0  0  0  0  0  0  0  0  0  0
   27.6752  -19.7873  -20.8265 C   0  0  0  0  0  0  0  0  0  0  0  0
   27.6421  -19.9536  -19.4484 C   0  0  0  0  0  0  0  0  0  0  0  0
   28.4556  -23.5698  -17.4789 C   0  0  0  0  0  0  0  0  0  0  0  0
   29.7596  -23.1932  -17.2242 O   0  0  0  0  0  0  0  0  0  0  0  0
   28.2585  -24.5991  -18.1657 O   0  0  0  0  0  0  0  0  0  0  0  0
  2  3  2  0
  2  1  1  0
  4  3  1  0
  5  4  2  0
  6  5  1  0
  7  6  1  0
  7  8  1  6
  9  7  1  0
  9 10  2  0
 11  5  1  0
 11 12  2  0
 12  2  1  0
 13  9  1  0
 14 13  1  0
 14 15  1  1
 16 17  2  0
 16 15  1  0
 18 17  1  0
 19 18  2  0
 20 21  2  0
 20 19  1  0
 21 16  1  0
 22 14  1  0
 23 22  2  0
 24 22  1  0
 25 26  1  1
 25 24  1  0
 26 27  1  0
 27 28  2  0
 27 32  1  0
 28 29  1  0
 29 30  2  0
 31 30  1  0
 32 31  2  0
 33 25  1  0
 34 33  1  0
 35 33  2  0
M  END
$$$$
