YFF.pdb
     RDKit          3D

 35 37  0  0  1  0  0  0  0  0999 V2000
   25.6869  -16.9679  -21.7205 O   0  0  0  0  0  0  0  0  0  0  0  0
   25.3397  -17.6788  -20.5648 C   0  0  0  0  0  0  0  0  0  0  0  0
   25.1373  -19.0318  -20.7030 C   0  0  0  0  0  0  0  0  0  0  0  0
   24.7936  -19.7507  -19.5725 C   0  0  0  0  0  0  0  0  0  0  0  0
   24.6520  -19.1642  -18.3430 C   0  0  0  0  0  0  0  0  0  0  0  0
   24.2777  -20.0151  -17.1711 C   0  0  0  0  0  0  0  0  0  0  0  0
   25.5365  -20.1738  -16.3197 C   0  0  2  0  0  0  0  0  0  0  0  0
   26.4984  -20.9376  -17.0842 N   0  0  0  0  0  0  0  0  0  0  0  0
   25.2365  -20.8005  -15.0192 C   0  0  0  0  0  0  0  0  0  0  0  0
   25.2924  -22.0481  -14.8586 O   0  0  0  0  0  0  0  0  0  0  0  0
   24.8576  -17.8140  -18.2234 C   0  0  0  0  0  0  0  0  0  0  0  0
   25.2046  -17.0537  -19.3354 C   0  0  0  0  0  0  0  0  0  0  0  0
   24.8776  -20.0049  -13.9196 N   0  0  0  0  0  0  0  0  0  0  0  0
   24.5671  -20.5223  -12.5982 C   0  0  1  0  0  0  0  0  0  0  0  0
   25.4435  -19.8102  -11.5901 C   0  0  0  0  0  0  0  0  0  0  0  0
   26.8618  -20.1301  -11.7417 C   0  0  0  0  0  0  0  0  0  0  0  0
   27.6678  -19.4903  -12.6536 C   0  0  0  0  0  0  0  0  0  0  0  0
   28.9999  -19.7785  -12.8105 C   0  0  0  0  0  0  0  0  0  0  0  0
   29.5906  -20.7488  -12.0345 C   0  0  0  0  0  0  0  0  0  0  0  0
   28.8078  -21.4085  -11.1103 C   0  0  0  0  0  0  0  0  0  0  0  0
   27.4530  -21.1015  -10.9646 C   0  0  0  0  0  0  0  0  0  0  0  0
   23.1241  -20.3559  -12.3630 C   0  0  0  0  0  0  0  0  0  0  0  0
   22.5056  -19.4163  -12.9088 O   0  0  0  0  0  0  0  0  0  0  0  0
   22.3951  -21.2431  -11.5243 N   0  0  0  0  0  0  0  0  0  0  0  0
   20.9468  -21.0903  -11.3627 C   0  0  1  0  0  0  0  0  0  0  0  0
   20.6517  -19.6693  -10.9133 C   0  0  0  0  0  0  0  0  0  0  0  0
   19.2028  -19.4247  -10.7596 C   0  0  0  0  0  0  0  0  0  0  0  0
   18.4872  -19.8505   -9.6647 C   0  0  0  0  0  0  0  0  0  0  0  0
   17.1343  -19.5979   -9.5663 C   0  0  0  0  0  0  0  0  0  0  0  0
   16.4468  -18.9187  -10.5432 C   0  0  0  0  0  0  0  0  0  0  0  0
   17.1567  -18.4881  -11.6447 C   0  0  0  0  0  0  0  0  0  0  0  0
   18.5180  -18.7436  -11.7411 C   0  0  0  0  0  0  0  0  0  0  0  0
   20.2173  -21.4402  -12.5903 C   0  0  0  0  0  0  0  0  0  0  0  0
   20.7646  -21.1182  -13.8166 O   0  0  0  0  0  0  0  0  0  0  0  0
   19.1085  -22.0234  -12.5700 O   0  0  0  0  0  0  0  0  0  0  0  0
  2  3  2  0
  2  1  1  0
  4  3  1  0
  5  4  2  0
  6  5  1  0
  7  6  1  0
  7  8  1  6
  9  7  1  0
  9 10  2  0
 11  5  1  0
 11 12  2  0
 12  2  1  0
 13  9  1  0
 14 13  1  0
 14 15  1  1
 16 17  2  0
 16 15  1  0
 18 17  1  0
 19 18  2  0
 20 21  2  0
 20 19  1  0
 21 16  1  0
 22 14  1  0
 23 22  2  0
 24 22  1  0
 25 26  1  6
 25 24  1  0
 26 27  1  0
 27 28  2  0
 27 32  1  0
 28 29  1  0
 29 30  2  0
 31 30  1  0
 32 31  2  0
 33 25  1  0
 34 33  1  0
 35 33  2  0
M  END
$$$$
