YFF.pdb
     RDKit          3D

 35 37  0  0  1  0  0  0  0  0999 V2000
   18.8212  -17.1109  -16.5179 O   0  0  0  0  0  0  0  0  0  0  0  0
   19.4885  -17.9583  -15.6245 C   0  0  0  0  0  0  0  0  0  0  0  0
   18.9602  -19.2151  -15.4455 C   0  0  0  0  0  0  0  0  0  0  0  0
   19.6057  -20.0663  -14.5669 C   0  0  0  0  0  0  0  0  0  0  0  0
   20.7345  -19.6997  -13.8835 C   0  0  0  0  0  0  0  0  0  0  0  0
   21.3706  -20.6817  -12.9517 C   0  0  0  0  0  0  0  0  0  0  0  0
   22.6850  -21.1171  -13.5977 C   0  0  2  0  0  0  0  0  0  0  0  0
   22.3673  -21.9504  -14.7369 N   0  0  0  0  0  0  0  0  0  0  0  0
   23.5620  -21.8055  -12.6329 C   0  0  0  0  0  0  0  0  0  0  0  0
   23.2550  -22.9238  -12.1422 O   0  0  0  0  0  0  0  0  0  0  0  0
   21.2476  -18.4427  -14.0740 C   0  0  0  0  0  0  0  0  0  0  0  0
   20.6293  -17.5552  -14.9488 C   0  0  0  0  0  0  0  0  0  0  0  0
   24.7740  -21.2173  -12.2378 N   0  0  0  0  0  0  0  0  0  0  0  0
   25.4927  -21.5552  -11.0214 C   0  0  1  0  0  0  0  0  0  0  0  0
   26.9422  -21.8052  -11.3788 C   0  0  0  0  0  0  0  0  0  0  0  0
   27.5476  -20.6954  -12.1127 C   0  0  0  0  0  0  0  0  0  0  0  0
   26.8905  -20.0358  -13.1244 C   0  0  0  0  0  0  0  0  0  0  0  0
   27.4435  -18.9937  -13.8247 C   0  0  0  0  0  0  0  0  0  0  0  0
   28.7151  -18.5617  -13.5265 C   0  0  0  0  0  0  0  0  0  0  0  0
   29.4001  -19.2036  -12.5162 C   0  0  0  0  0  0  0  0  0  0  0  0
   28.8207  -20.2630  -11.8140 C   0  0  0  0  0  0  0  0  0  0  0  0
   25.2927  -20.4694  -10.0486 C   0  0  0  0  0  0  0  0  0  0  0  0
   24.1727  -20.3030   -9.5183 O   0  0  0  0  0  0  0  0  0  0  0  0
   26.3475  -19.5890   -9.6820 N   0  0  0  0  0  0  0  0  0  0  0  0
   26.7650  -19.4729   -8.2824 C   0  0  1  0  0  0  0  0  0  0  0  0
   27.2566  -20.8286   -7.8041 C   0  0  0  0  0  0  0  0  0  0  0  0
   27.7492  -20.7817   -6.4121 C   0  0  0  0  0  0  0  0  0  0  0  0
   28.3787  -21.8452   -5.8081 C   0  0  0  0  0  0  0  0  0  0  0  0
   28.8215  -21.7532   -4.5045 C   0  0  0  0  0  0  0  0  0  0  0  0
   28.6574  -20.6113   -3.7579 C   0  0  0  0  0  0  0  0  0  0  0  0
   28.0272  -19.5399   -4.3558 C   0  0  0  0  0  0  0  0  0  0  0  0
   27.5826  -19.6351   -5.6677 C   0  0  0  0  0  0  0  0  0  0  0  0
   27.7793  -18.4248   -8.0969 C   0  0  0  0  0  0  0  0  0  0  0  0
   27.4658  -17.3055   -7.3514 O   0  0  0  0  0  0  0  0  0  0  0  0
   28.9272  -18.5053   -8.5926 O   0  0  0  0  0  0  0  0  0  0  0  0
  2  3  2  0
  2  1  1  0
  4  3  1  0
  5  4  2  0
  6  5  1  0
  7  6  1  0
  7  8  1  6
  9  7  1  0
  9 10  2  0
 11  5  1  0
 11 12  2  0
 12  2  1  0
 13  9  1  0
 14 13  1  0
 14 15  1  6
 16 17  2  0
 16 15  1  0
 18 17  1  0
 19 18  2  0
 20 21  2  0
 20 19  1  0
 21 16  1  0
 22 14  1  0
 23 22  2  0
 24 22  1  0
 25 26  1  6
 25 24  1  0
 26 27  1  0
 27 28  2  0
 27 32  1  0
 28 29  1  0
 29 30  2  0
 31 30  1  0
 32 31  2  0
 33 25  1  0
 34 33  1  0
 35 33  2  0
M  END
$$$$
