YFF.pdb
     RDKit          3D

 35 37  0  0  1  0  0  0  0  0999 V2000
   36.6236  -32.6699    0.1130 O   0  0  0  0  0  0  0  0  0  0  0  0
   36.7346  -31.7226    1.1387 C   0  0  0  0  0  0  0  0  0  0  0  0
   37.2797  -32.1512    2.3260 C   0  0  0  0  0  0  0  0  0  0  0  0
   37.3974  -31.2298    3.3508 C   0  0  0  0  0  0  0  0  0  0  0  0
   36.9940  -29.9277    3.2187 C   0  0  0  0  0  0  0  0  0  0  0  0
   37.1569  -28.9956    4.3772 C   0  0  0  0  0  0  0  0  0  0  0  0
   38.1405  -27.9120    3.9383 C   0  0  2  0  0  0  0  0  0  0  0  0
   39.4302  -28.5358    3.7364 N   0  0  0  0  0  0  0  0  0  0  0  0
   38.2035  -26.8087    4.9144 C   0  0  0  0  0  0  0  0  0  0  0  0
   38.8376  -26.9194    5.9965 O   0  0  0  0  0  0  0  0  0  0  0  0
   36.4526  -29.5174    2.0278 C   0  0  0  0  0  0  0  0  0  0  0  0
   36.3162  -30.4121    0.9714 C   0  0  0  0  0  0  0  0  0  0  0  0
   37.5472  -25.5959    4.6505 N   0  0  0  0  0  0  0  0  0  0  0  0
   37.5541  -24.4479    5.5406 C   0  0  1  0  0  0  0  0  0  0  0  0
   38.2125  -23.2908    4.8201 C   0  0  0  0  0  0  0  0  0  0  0  0
   39.6647  -23.4297    4.7272 C   0  0  0  0  0  0  0  0  0  0  0  0
   40.5105  -23.0055    5.7249 C   0  0  0  0  0  0  0  0  0  0  0  0
   41.8753  -23.1264    5.6541 C   0  0  0  0  0  0  0  0  0  0  0  0
   42.4597  -23.6947    4.5459 C   0  0  0  0  0  0  0  0  0  0  0  0
   41.6373  -24.1302    3.5280 C   0  0  0  0  0  0  0  0  0  0  0  0
   40.2496  -23.9987    3.6177 C   0  0  0  0  0  0  0  0  0  0  0  0
   36.1702  -24.1822    5.9643 C   0  0  0  0  0  0  0  0  0  0  0  0
   35.2193  -24.4456    5.1964 O   0  0  0  0  0  0  0  0  0  0  0  0
   35.8709  -23.6293    7.2398 N   0  0  0  0  0  0  0  0  0  0  0  0
   34.9380  -24.3083    8.1429 C   0  0  1  0  0  0  0  0  0  0  0  0
   35.4512  -25.7130    8.4113 C   0  0  0  0  0  0  0  0  0  0  0  0
   34.6048  -26.4381    9.3810 C   0  0  0  0  0  0  0  0  0  0  0  0
   34.8472  -26.4287   10.7350 C   0  0  0  0  0  0  0  0  0  0  0  0
   34.0275  -27.1222   11.6016 C   0  0  0  0  0  0  0  0  0  0  0  0
   32.9454  -27.8450   11.1601 C   0  0  0  0  0  0  0  0  0  0  0  0
   32.6950  -27.8598    9.8038 C   0  0  0  0  0  0  0  0  0  0  0  0
   33.5214  -27.1611    8.9339 C   0  0  0  0  0  0  0  0  0  0  0  0
   34.7302  -23.5531    9.3872 C   0  0  0  0  0  0  0  0  0  0  0  0
   33.4472  -23.2017    9.7580 O   0  0  0  0  0  0  0  0  0  0  0  0
   35.6779  -23.2111   10.1320 O   0  0  0  0  0  0  0  0  0  0  0  0
  2  3  2  0
  2  1  1  0
  4  3  1  0
  5  4  2  0
  6  5  1  0
  7  6  1  0
  7  8  1  1
  9  7  1  0
  9 10  2  0
 11  5  1  0
 11 12  2  0
 12  2  1  0
 13  9  1  0
 14 13  1  0
 14 15  1  6
 16 17  2  0
 16 15  1  0
 18 17  1  0
 19 18  2  0
 20 21  2  0
 20 19  1  0
 21 16  1  0
 22 14  1  0
 23 22  2  0
 24 22  1  0
 25 26  1  1
 25 24  1  0
 26 27  1  0
 27 28  2  0
 27 32  1  0
 28 29  1  0
 29 30  2  0
 31 30  1  0
 32 31  2  0
 33 25  1  0
 34 33  1  0
 35 33  2  0
M  END
$$$$
