VVN.pdb
     RDKit          3D

 23 22  0  0  1  0  0  0  0  0999 V2000
    9.0583  -13.5178   19.6386 C   0  0  0  0  0  0  0  0  0  0  0  0
    7.6808  -13.7844   20.1421 C   0  0  2  0  0  0  0  0  0  0  0  0
    7.0630  -12.4832   20.6087 C   0  0  0  0  0  0  0  0  0  0  0  0
    7.5972  -14.8397   21.1999 C   0  0  2  0  0  0  0  0  0  0  0  0
    6.2008  -15.1875   21.3654 N   0  0  0  0  0  0  0  0  0  0  0  0
    8.1676  -14.4794   22.4849 C   0  0  0  0  0  0  0  0  0  0  0  0
    9.3691  -14.1672   22.6908 O   0  0  0  0  0  0  0  0  0  0  0  0
    6.2924  -12.2715   25.1431 C   0  0  0  0  0  0  0  0  0  0  0  0
    6.7623  -13.5356   25.7592 C   0  0  2  0  0  0  0  0  0  0  0  0
    7.2784  -13.2723   27.1735 C   0  0  0  0  0  0  0  0  0  0  0  0
    7.8651  -14.1667   24.9732 C   0  0  2  0  0  0  0  0  0  0  0  0
    7.3282  -14.4671   23.6315 N   0  0  0  0  0  0  0  0  0  0  0  0
    8.3324  -15.4390   25.5289 C   0  0  0  0  0  0  0  0  0  0  0  0
    7.5527  -16.4542   25.5950 O   0  0  0  0  0  0  0  0  0  0  0  0
   13.2340  -18.5655   26.8058 N   0  0  0  0  0  0  0  0  0  0  0  0
   11.9249  -18.5521   26.2693 C   0  0  0  0  0  0  0  0  0  0  0  0
   11.2846  -19.6301   26.2316 O   0  0  0  0  0  0  0  0  0  0  0  0
   11.3379  -17.2936   25.7693 C   0  0  0  0  0  0  0  0  0  0  0  0
   10.0470  -16.9399   26.5072 C   0  0  2  0  0  0  0  0  0  0  0  0
    9.6363  -15.6168   26.0070 N   0  0  0  0  0  0  0  0  0  0  0  0
   10.3016  -16.8167   27.9522 C   0  0  0  0  0  0  0  0  0  0  0  0
   10.5052  -15.5649   28.5332 O   0  0  0  0  0  0  0  0  0  0  0  0
   10.3511  -17.8009   28.7289 O   0  0  0  0  0  0  0  0  0  0  0  0
  2  1  1  1
  2  3  1  0
  2  4  1  0
  4  6  1  0
  4  5  1  1
  6 12  1  0
  6  7  2  0
  9  8  1  6
  9 11  1  0
 10  9  1  0
 11 13  1  0
 11 12  1  6
 13 14  2  0
 15 16  1  0
 16 17  2  0
 18 16  1  0
 19 18  1  6
 19 21  1  0
 20 13  1  0
 20 19  1  0
 21 22  1  0
 23 21  2  0
M  END
$$$$
