VVN.pdb
     RDKit          3D

 23 22  0  0  1  0  0  0  0  0999 V2000
    6.9629  -17.4692   20.8644 C   0  0  0  0  0  0  0  0  0  0  0  0
    7.6301  -16.8241   22.0310 C   0  0  2  0  0  0  0  0  0  0  0  0
    7.2383  -17.5595   23.2952 C   0  0  0  0  0  0  0  0  0  0  0  0
    7.3833  -15.3533   22.1552 C   0  0  2  0  0  0  0  0  0  0  0  0
    7.7717  -14.7346   20.9043 N   0  0  0  0  0  0  0  0  0  0  0  0
    8.0641  -14.6988   23.2573 C   0  0  0  0  0  0  0  0  0  0  0  0
    9.2993  -14.4675   23.3208 O   0  0  0  0  0  0  0  0  0  0  0  0
    6.4348  -11.7214   25.4531 C   0  0  0  0  0  0  0  0  0  0  0  0
    6.9121  -12.8623   26.2711 C   0  0  2  0  0  0  0  0  0  0  0  0
    7.5178  -12.3554   27.5796 C   0  0  0  0  0  0  0  0  0  0  0  0
    7.9511  -13.6665   25.5600 C   0  0  2  0  0  0  0  0  0  0  0  0
    7.3037  -14.2687   24.3780 N   0  0  0  0  0  0  0  0  0  0  0  0
    8.4834  -14.7767   26.3538 C   0  0  0  0  0  0  0  0  0  0  0  0
    7.7208  -15.7281   26.7491 O   0  0  0  0  0  0  0  0  0  0  0  0
   12.4775  -16.0335   24.5418 N   0  0  0  0  0  0  0  0  0  0  0  0
   11.6506  -16.7109   25.4687 C   0  0  0  0  0  0  0  0  0  0  0  0
   10.8838  -17.6066   25.0407 O   0  0  0  0  0  0  0  0  0  0  0  0
   11.6983  -16.3628   26.9022 C   0  0  0  0  0  0  0  0  0  0  0  0
   10.3084  -16.0458   27.4532 C   0  0  2  0  0  0  0  0  0  0  0  0
    9.8333  -14.8626   26.7157 N   0  0  0  0  0  0  0  0  0  0  0  0
   10.3935  -15.6849   28.8782 C   0  0  0  0  0  0  0  0  0  0  0  0
   10.2384  -14.3598   29.2856 O   0  0  0  0  0  0  0  0  0  0  0  0
   10.6055  -16.5217   29.7888 O   0  0  0  0  0  0  0  0  0  0  0  0
  2  1  1  6
  2  3  1  0
  2  4  1  0
  4  6  1  0
  4  5  1  6
  6 12  1  0
  6  7  2  0
  9  8  1  6
  9 11  1  0
 10  9  1  0
 11 13  1  0
 11 12  1  6
 13 14  2  0
 15 16  1  0
 16 17  2  0
 18 16  1  0
 19 18  1  6
 19 21  1  0
 20 13  1  0
 20 19  1  0
 21 22  1  0
 23 21  2  0
M  END
$$$$
