VVN.pdb
     RDKit          3D

 23 22  0  0  1  0  0  0  0  0999 V2000
    8.1908  -19.4216   16.1435 C   0  0  0  0  0  0  0  0  0  0  0  0
    8.6934  -18.6088   17.2876 C   0  0  2  0  0  0  0  0  0  0  0  0
    8.0275  -19.0823   18.5623 C   0  0  0  0  0  0  0  0  0  0  0  0
    8.5491  -17.1296   17.1122 C   0  0  2  0  0  0  0  0  0  0  0  0
    9.2433  -16.7608   15.8954 N   0  0  0  0  0  0  0  0  0  0  0  0
    9.0336  -16.3218   18.2163 C   0  0  0  0  0  0  0  0  0  0  0  0
   10.2403  -16.1739   18.5408 O   0  0  0  0  0  0  0  0  0  0  0  0
    7.4309  -12.7521   19.3176 C   0  0  0  0  0  0  0  0  0  0  0  0
    7.4661  -13.7700   20.3952 C   0  0  2  0  0  0  0  0  0  0  0  0
    7.7370  -13.1015   21.7427 C   0  0  0  0  0  0  0  0  0  0  0  0
    8.5283  -14.7950   20.1642 C   0  0  2  0  0  0  0  0  0  0  0  0
    8.0944  -15.6234   19.0223 N   0  0  0  0  0  0  0  0  0  0  0  0
    8.7211  -15.7094   21.2924 C   0  0  0  0  0  0  0  0  0  0  0  0
    7.9592  -16.7278   21.4517 O   0  0  0  0  0  0  0  0  0  0  0  0
   11.8263  -19.6168   22.4611 N   0  0  0  0  0  0  0  0  0  0  0  0
   12.2239  -18.2747   22.6671 C   0  0  0  0  0  0  0  0  0  0  0  0
   13.2225  -18.0531   23.3930 O   0  0  0  0  0  0  0  0  0  0  0  0
   11.4734  -17.1708   22.0372 C   0  0  0  0  0  0  0  0  0  0  0  0
   10.3111  -16.7055   22.9139 C   0  0  2  0  0  0  0  0  0  0  0  0
    9.7341  -15.5286   22.2418 N   0  0  0  0  0  0  0  0  0  0  0  0
   10.8057  -16.2746   24.2321 C   0  0  0  0  0  0  0  0  0  0  0  0
   10.9144  -17.1862   25.2825 O   0  0  0  0  0  0  0  0  0  0  0  0
   11.1496  -15.0950   24.4865 O   0  0  0  0  0  0  0  0  0  0  0  0
  2  1  1  6
  2  3  1  0
  2  4  1  0
  4  6  1  0
  4  5  1  6
  6 12  1  0
  6  7  2  0
  9  8  1  6
  9 11  1  0
 10  9  1  0
 11 13  1  0
 11 12  1  6
 13 14  2  0
 15 16  1  0
 16 17  2  0
 18 16  1  0
 19 18  1  6
 19 21  1  0
 20 13  1  0
 20 19  1  0
 21 22  1  0
 23 21  2  0
M  END
$$$$
