VVN.pdb
     RDKit          3D

 23 22  0  0  1  0  0  0  0  0999 V2000
    7.0920  -13.2160   21.2423 C   0  0  0  0  0  0  0  0  0  0  0  0
    7.8563  -14.4870   21.0920 C   0  0  2  0  0  0  0  0  0  0  0  0
    7.2678  -15.2871   19.9491 C   0  0  0  0  0  0  0  0  0  0  0  0
    7.9541  -15.3068   22.3401 C   0  0  2  0  0  0  0  0  0  0  0  0
    6.6321  -15.8211   22.6336 N   0  0  0  0  0  0  0  0  0  0  0  0
    8.4781  -14.6120   23.5017 C   0  0  0  0  0  0  0  0  0  0  0  0
    9.6651  -14.2205   23.6465 O   0  0  0  0  0  0  0  0  0  0  0  0
    5.7400  -13.6521   26.5650 C   0  0  0  0  0  0  0  0  0  0  0  0
    6.9548  -12.8341   26.3333 C   0  0  2  0  0  0  0  0  0  0  0  0
    6.6587  -11.7252   25.3241 C   0  0  0  0  0  0  0  0  0  0  0  0
    8.0888  -13.6511   25.8051 C   0  0  2  0  0  0  0  0  0  0  0  0
    7.6058  -14.3327   24.5882 N   0  0  0  0  0  0  0  0  0  0  0  0
    8.5354  -14.7028   26.7219 C   0  0  0  0  0  0  0  0  0  0  0  0
    8.1853  -14.6933   27.9549 O   0  0  0  0  0  0  0  0  0  0  0  0
    9.3526  -19.3310   28.5611 N   0  0  0  0  0  0  0  0  0  0  0  0
    8.1542  -18.8944   27.9487 C   0  0  0  0  0  0  0  0  0  0  0  0
    7.1247  -19.5983   28.0833 O   0  0  0  0  0  0  0  0  0  0  0  0
    8.1289  -17.6391   27.1728 C   0  0  0  0  0  0  0  0  0  0  0  0
    9.4910  -16.9457   27.1756 C   0  0  2  0  0  0  0  0  0  0  0  0
    9.3522  -15.7625   26.3093 N   0  0  0  0  0  0  0  0  0  0  0  0
   10.5124  -17.8233   26.5801 C   0  0  0  0  0  0  0  0  0  0  0  0
   11.1066  -17.4962   25.3611 O   0  0  0  0  0  0  0  0  0  0  0  0
   10.9006  -18.8897   27.1154 O   0  0  0  0  0  0  0  0  0  0  0  0
  2  1  1  1
  2  3  1  0
  2  4  1  0
  4  6  1  0
  4  5  1  1
  6 12  1  0
  6  7  2  0
  9  8  1  6
  9 11  1  0
 10  9  1  0
 11 13  1  0
 11 12  1  6
 13 14  2  0
 15 16  1  0
 16 17  2  0
 18 16  1  0
 19 18  1  6
 19 21  1  0
 20 13  1  0
 20 19  1  0
 21 22  1  0
 23 21  2  0
M  END
$$$$
