VVN.pdb
     RDKit          3D

 23 22  0  0  1  0  0  0  0  0999 V2000
    7.4709  -17.9525   22.6930 C   0  0  0  0  0  0  0  0  0  0  0  0
    6.2651  -17.0769   22.7301 C   0  0  2  0  0  0  0  0  0  0  0  0
    5.2496  -17.5890   21.7306 C   0  0  0  0  0  0  0  0  0  0  0  0
    6.5456  -15.6209   22.5276 C   0  0  2  0  0  0  0  0  0  0  0  0
    6.9426  -15.4371   21.1467 N   0  0  0  0  0  0  0  0  0  0  0  0
    7.5517  -15.0528   23.4060 C   0  0  0  0  0  0  0  0  0  0  0  0
    8.7933  -15.0678   23.2030 O   0  0  0  0  0  0  0  0  0  0  0  0
    6.1469  -13.1410   26.8626 C   0  0  0  0  0  0  0  0  0  0  0  0
    7.4399  -12.7245   26.2681 C   0  0  2  0  0  0  0  0  0  0  0  0
    7.2185  -11.5909   25.2672 C   0  0  0  0  0  0  0  0  0  0  0  0
    8.1166  -13.8486   25.5534 C   0  0  2  0  0  0  0  0  0  0  0  0
    7.1367  -14.4172   24.6074 N   0  0  0  0  0  0  0  0  0  0  0  0
    8.5292  -14.9442   26.4340 C   0  0  0  0  0  0  0  0  0  0  0  0
    7.7036  -15.8655   26.7693 O   0  0  0  0  0  0  0  0  0  0  0  0
   10.5593  -17.3514   25.2630 N   0  0  0  0  0  0  0  0  0  0  0  0
   11.7239  -17.1776   26.0473 C   0  0  0  0  0  0  0  0  0  0  0  0
   12.8231  -17.5542   25.5748 O   0  0  0  0  0  0  0  0  0  0  0  0
   11.6345  -16.5664   27.3878 C   0  0  0  0  0  0  0  0  0  0  0  0
   10.1916  -16.2231   27.7571 C   0  0  2  0  0  0  0  0  0  0  0  0
    9.8279  -15.0480   26.9468 N   0  0  0  0  0  0  0  0  0  0  0  0
   10.1050  -15.8372   29.1754 C   0  0  0  0  0  0  0  0  0  0  0  0
    9.9690  -14.4975   29.5398 O   0  0  0  0  0  0  0  0  0  0  0  0
   10.1476  -16.6646   30.1178 O   0  0  0  0  0  0  0  0  0  0  0  0
  2  1  1  6
  2  3  1  0
  2  4  1  0
  4  6  1  0
  4  5  1  6
  6 12  1  0
  6  7  2  0
  9  8  1  6
  9 11  1  0
 10  9  1  0
 11 13  1  0
 11 12  1  6
 13 14  2  0
 15 16  1  0
 16 17  2  0
 18 16  1  0
 19 18  1  6
 19 21  1  0
 20 13  1  0
 20 19  1  0
 21 22  1  0
 23 21  2  0
M  END
$$$$
