VVN.pdb
     RDKit          3D

 23 22  0  0  1  0  0  0  0  0999 V2000
    9.3812  -19.4763   18.2924 C   0  0  0  0  0  0  0  0  0  0  0  0
    8.0961  -18.8696   17.8424 C   0  0  2  0  0  0  0  0  0  0  0  0
    7.4937  -19.7340   16.7550 C   0  0  0  0  0  0  0  0  0  0  0  0
    8.1991  -17.4404   17.4107 C   0  0  2  0  0  0  0  0  0  0  0  0
    8.9636  -17.4061   16.1807 N   0  0  0  0  0  0  0  0  0  0  0  0
    8.7919  -16.5383   18.3809 C   0  0  0  0  0  0  0  0  0  0  0  0
   10.0160  -16.2605   18.4697 O   0  0  0  0  0  0  0  0  0  0  0  0
    6.9868  -13.1099   19.8438 C   0  0  0  0  0  0  0  0  0  0  0  0
    7.3749  -14.1363   20.8410 C   0  0  2  0  0  0  0  0  0  0  0  0
    7.8145  -13.4665   22.1426 C   0  0  0  0  0  0  0  0  0  0  0  0
    8.4999  -14.9918   20.3568 C   0  0  2  0  0  0  0  0  0  0  0  0
    7.9494  -15.8954   19.3276 N   0  0  0  0  0  0  0  0  0  0  0  0
    9.0796  -15.8474   21.3949 C   0  0  0  0  0  0  0  0  0  0  0  0
    8.4884  -16.9217   21.7682 O   0  0  0  0  0  0  0  0  0  0  0  0
   13.5252  -18.6831   22.8220 N   0  0  0  0  0  0  0  0  0  0  0  0
   13.2842  -17.3764   23.3080 C   0  0  0  0  0  0  0  0  0  0  0  0
   13.7763  -17.0515   24.4151 O   0  0  0  0  0  0  0  0  0  0  0  0
   12.4717  -16.4276   22.5218 C   0  0  0  0  0  0  0  0  0  0  0  0
   10.9788  -16.5929   22.8046 C   0  0  2  0  0  0  0  0  0  0  0  0
   10.2939  -15.5480   22.0244 N   0  0  0  0  0  0  0  0  0  0  0  0
   10.6984  -16.3486   24.2293 C   0  0  0  0  0  0  0  0  0  0  0  0
   10.0732  -15.1704   24.6382 O   0  0  0  0  0  0  0  0  0  0  0  0
   10.9961  -17.1603   25.1386 O   0  0  0  0  0  0  0  0  0  0  0  0
  2  1  1  6
  2  3  1  0
  2  4  1  0
  4  6  1  0
  4  5  1  6
  6 12  1  0
  6  7  2  0
  9  8  1  6
  9 11  1  0
 10  9  1  0
 11 13  1  0
 11 12  1  6
 13 14  2  0
 15 16  1  0
 16 17  2  0
 18 16  1  0
 19 18  1  1
 19 21  1  0
 20 13  1  0
 20 19  1  0
 21 22  1  0
 23 21  2  0
M  END
$$$$
