VVN.pdb
     RDKit          3D

 23 22  0  0  1  0  0  0  0  0999 V2000
    7.9471  -19.4710   16.0074 C   0  0  0  0  0  0  0  0  0  0  0  0
    8.5576  -18.7528   17.1622 C   0  0  2  0  0  0  0  0  0  0  0  0
    7.9808  -19.3033   18.4494 C   0  0  0  0  0  0  0  0  0  0  0  0
    8.4381  -17.2622   17.1029 C   0  0  2  0  0  0  0  0  0  0  0  0
    9.0852  -16.8168   15.8859 N   0  0  0  0  0  0  0  0  0  0  0  0
    8.9891  -16.5480   18.2400 C   0  0  0  0  0  0  0  0  0  0  0  0
   10.2095  -16.4758   18.5375 O   0  0  0  0  0  0  0  0  0  0  0  0
    7.1842  -13.0944   19.5304 C   0  0  0  0  0  0  0  0  0  0  0  0
    7.5008  -14.0801   20.5919 C   0  0  2  0  0  0  0  0  0  0  0  0
    7.9125  -13.3587   21.8748 C   0  0  0  0  0  0  0  0  0  0  0  0
    8.6149  -14.9932   20.1953 C   0  0  2  0  0  0  0  0  0  0  0  0
    8.1054  -15.8595   19.1142 N   0  0  0  0  0  0  0  0  0  0  0  0
    9.0575  -15.8852   21.2698 C   0  0  0  0  0  0  0  0  0  0  0  0
    8.2773  -16.7872   21.7395 O   0  0  0  0  0  0  0  0  0  0  0  0
   11.5246  -18.5974   20.9984 N   0  0  0  0  0  0  0  0  0  0  0  0
   12.5563  -17.9473   21.7158 C   0  0  0  0  0  0  0  0  0  0  0  0
   13.7461  -18.2324   21.4395 O   0  0  0  0  0  0  0  0  0  0  0  0
   12.2274  -16.9593   22.7619 C   0  0  0  0  0  0  0  0  0  0  0  0
   10.7182  -16.7560   22.8925 C   0  0  2  0  0  0  0  0  0  0  0  0
   10.3374  -15.8075   21.8318 N   0  0  0  0  0  0  0  0  0  0  0  0
   10.3963  -16.1362   24.1887 C   0  0  0  0  0  0  0  0  0  0  0  0
   10.4360  -14.7502   24.3425 O   0  0  0  0  0  0  0  0  0  0  0  0
   10.0763  -16.7961   25.2068 O   0  0  0  0  0  0  0  0  0  0  0  0
  2  1  1  6
  2  3  1  0
  2  4  1  0
  4  6  1  0
  4  5  1  6
  6 12  1  0
  6  7  2  0
  9  8  1  6
  9 11  1  0
 10  9  1  0
 11 13  1  0
 11 12  1  6
 13 14  2  0
 15 16  1  0
 16 17  2  0
 18 16  1  0
 19 18  1  1
 19 21  1  0
 20 13  1  0
 20 19  1  0
 21 22  1  0
 23 21  2  0
M  END
$$$$
