VVN.pdb
     RDKit          3D

 23 22  0  0  1  0  0  0  0  0999 V2000
    7.6277  -12.3707   21.0121 C   0  0  0  0  0  0  0  0  0  0  0  0
    8.0839  -13.7482   20.6706 C   0  0  2  0  0  0  0  0  0  0  0  0
    7.3548  -14.2185   19.4297 C   0  0  0  0  0  0  0  0  0  0  0  0
    7.9619  -14.7393   21.7852 C   0  0  2  0  0  0  0  0  0  0  0  0
    6.5508  -14.9378   22.0452 N   0  0  0  0  0  0  0  0  0  0  0  0
    8.6406  -14.3782   23.0163 C   0  0  0  0  0  0  0  0  0  0  0  0
    9.8691  -14.1310   23.1294 O   0  0  0  0  0  0  0  0  0  0  0  0
    6.1900  -13.7298   26.2646 C   0  0  0  0  0  0  0  0  0  0  0  0
    7.5505  -13.1408   26.2882 C   0  0  2  0  0  0  0  0  0  0  0  0
    7.5248  -11.7315   25.6974 C   0  0  0  0  0  0  0  0  0  0  0  0
    8.5277  -13.9547   25.5040 C   0  0  2  0  0  0  0  0  0  0  0  0
    7.8858  -14.2862   24.2168 N   0  0  0  0  0  0  0  0  0  0  0  0
    8.8755  -15.2295   26.1363 C   0  0  0  0  0  0  0  0  0  0  0  0
    7.9919  -16.1423   26.3066 O   0  0  0  0  0  0  0  0  0  0  0  0
   10.3720  -18.1254   24.7631 N   0  0  0  0  0  0  0  0  0  0  0  0
   11.6546  -17.9128   25.3213 C   0  0  0  0  0  0  0  0  0  0  0  0
   12.6594  -18.2665   24.6590 O   0  0  0  0  0  0  0  0  0  0  0  0
   11.7936  -17.2888   26.6516 C   0  0  0  0  0  0  0  0  0  0  0  0
   10.4450  -16.8263   27.2024 C   0  0  2  0  0  0  0  0  0  0  0  0
   10.1717  -15.5202   26.5786 N   0  0  0  0  0  0  0  0  0  0  0  0
   10.5303  -16.6219   28.6580 C   0  0  0  0  0  0  0  0  0  0  0  0
   10.7225  -15.3449   29.1858 O   0  0  0  0  0  0  0  0  0  0  0  0
   10.4392  -17.5560   29.4909 O   0  0  0  0  0  0  0  0  0  0  0  0
  2  1  1  1
  2  3  1  0
  2  4  1  0
  4  6  1  0
  4  5  1  1
  6 12  1  0
  6  7  2  0
  9  8  1  6
  9 11  1  0
 10  9  1  0
 11 13  1  0
 11 12  1  6
 13 14  2  0
 15 16  1  0
 16 17  2  0
 18 16  1  0
 19 18  1  6
 19 21  1  0
 20 13  1  0
 20 19  1  0
 21 22  1  0
 23 21  2  0
M  END
$$$$
