VVN.pdb
     RDKit          3D

 23 22  0  0  1  0  0  0  0  0999 V2000
    8.7239  -19.5798   18.3725 C   0  0  0  0  0  0  0  0  0  0  0  0
    7.6248  -18.7355   17.8236 C   0  0  2  0  0  0  0  0  0  0  0  0
    6.9089  -19.5021   16.7316 C   0  0  0  0  0  0  0  0  0  0  0  0
    8.0552  -17.3827   17.3500 C   0  0  2  0  0  0  0  0  0  0  0  0
    8.9410  -17.5733   16.2198 N   0  0  0  0  0  0  0  0  0  0  0  0
    8.7053  -16.5520   18.3469 C   0  0  0  0  0  0  0  0  0  0  0  0
    9.9472  -16.4632   18.5286 O   0  0  0  0  0  0  0  0  0  0  0  0
    7.2749  -12.9003   19.5325 C   0  0  0  0  0  0  0  0  0  0  0  0
    7.4972  -13.8755   20.6271 C   0  0  2  0  0  0  0  0  0  0  0  0
    7.9923  -13.1558   21.8813 C   0  0  0  0  0  0  0  0  0  0  0  0
    8.5077  -14.9122   20.2581 C   0  0  2  0  0  0  0  0  0  0  0  0
    7.9032  -15.7572   19.2096 N   0  0  0  0  0  0  0  0  0  0  0  0
    8.8634  -15.8083   21.3611 C   0  0  0  0  0  0  0  0  0  0  0  0
    8.0091  -16.6365   21.8378 O   0  0  0  0  0  0  0  0  0  0  0  0
   13.3171  -17.0792   21.0390 N   0  0  0  0  0  0  0  0  0  0  0  0
   12.3771  -17.6646   21.9197 C   0  0  0  0  0  0  0  0  0  0  0  0
   11.9532  -18.8162   21.6600 O   0  0  0  0  0  0  0  0  0  0  0  0
   11.9142  -16.9276   23.1118 C   0  0  0  0  0  0  0  0  0  0  0  0
   10.4023  -16.7051   23.0866 C   0  0  2  0  0  0  0  0  0  0  0  0
   10.1364  -15.8142   21.9442 N   0  0  0  0  0  0  0  0  0  0  0  0
    9.9673  -16.0114   24.3104 C   0  0  0  0  0  0  0  0  0  0  0  0
    9.8384  -14.6225   24.3317 O   0  0  0  0  0  0  0  0  0  0  0  0
    9.6942  -16.6081   25.3799 O   0  0  0  0  0  0  0  0  0  0  0  0
  2  1  1  6
  2  3  1  0
  2  4  1  0
  4  6  1  0
  4  5  1  6
  6 12  1  0
  6  7  2  0
  9  8  1  6
  9 11  1  0
 10  9  1  0
 11 13  1  0
 11 12  1  6
 13 14  2  0
 15 16  1  0
 16 17  2  0
 18 16  1  0
 19 18  1  1
 19 21  1  0
 20 13  1  0
 20 19  1  0
 21 22  1  0
 23 21  2  0
M  END
$$$$
