VVN.pdb
     RDKit          3D

 23 22  0  0  1  0  0  0  0  0999 V2000
    8.7542  -17.3159   21.8897 C   0  0  0  0  0  0  0  0  0  0  0  0
    7.4687  -16.5656   21.8095 C   0  0  2  0  0  0  0  0  0  0  0  0
    6.7534  -16.9430   20.5295 C   0  0  0  0  0  0  0  0  0  0  0  0
    7.6040  -15.0812   21.9430 C   0  0  2  0  0  0  0  0  0  0  0  0
    8.3183  -14.5978   20.7792 N   0  0  0  0  0  0  0  0  0  0  0  0
    8.2673  -14.6227   23.1499 C   0  0  0  0  0  0  0  0  0  0  0  0
    9.5030  -14.4208   23.2743 O   0  0  0  0  0  0  0  0  0  0  0  0
    6.4003  -12.0290   25.6622 C   0  0  0  0  0  0  0  0  0  0  0  0
    6.9915  -13.2078   26.3400 C   0  0  2  0  0  0  0  0  0  0  0  0
    7.5614  -12.8031   27.6991 C   0  0  0  0  0  0  0  0  0  0  0  0
    8.0936  -13.8211   25.5391 C   0  0  2  0  0  0  0  0  0  0  0  0
    7.4870  -14.3698   24.3104 N   0  0  0  0  0  0  0  0  0  0  0  0
    8.7586  -14.9404   26.2106 C   0  0  0  0  0  0  0  0  0  0  0  0
    8.1126  -16.0066   26.5088 O   0  0  0  0  0  0  0  0  0  0  0  0
   12.0099  -17.5916   24.8875 N   0  0  0  0  0  0  0  0  0  0  0  0
   12.3374  -16.3359   25.4512 C   0  0  0  0  0  0  0  0  0  0  0  0
   12.7690  -15.4355   24.6921 O   0  0  0  0  0  0  0  0  0  0  0  0
   12.1707  -16.1036   26.8992 C   0  0  0  0  0  0  0  0  0  0  0  0
   10.6958  -16.0446   27.2958 C   0  0  2  0  0  0  0  0  0  0  0  0
   10.1154  -14.9115   26.5549 N   0  0  0  0  0  0  0  0  0  0  0  0
   10.5644  -15.7577   28.7340 C   0  0  0  0  0  0  0  0  0  0  0  0
   10.6342  -16.7872   29.6728 O   0  0  0  0  0  0  0  0  0  0  0  0
   10.3856  -14.6033   29.1923 O   0  0  0  0  0  0  0  0  0  0  0  0
  2  1  1  6
  2  3  1  0
  2  4  1  0
  4  6  1  0
  4  5  1  6
  6 12  1  0
  6  7  2  0
  9  8  1  6
  9 11  1  0
 10  9  1  0
 11 13  1  0
 11 12  1  6
 13 14  2  0
 15 16  1  0
 16 17  2  0
 18 16  1  0
 19 18  1  6
 19 21  1  0
 20 13  1  0
 20 19  1  0
 21 22  1  0
 23 21  2  0
M  END
$$$$
