VVN.pdb
     RDKit          3D

 23 22  0  0  1  0  0  0  0  0999 V2000
    7.8182  -12.9202   27.2357 C   0  0  0  0  0  0  0  0  0  0  0  0
    7.1478  -12.2102   26.1094 C   0  0  2  0  0  0  0  0  0  0  0  0
    6.4564  -10.9739   26.6442 C   0  0  0  0  0  0  0  0  0  0  0  0
    6.2100  -13.0579   25.3084 C   0  0  2  0  0  0  0  0  0  0  0  0
    5.1560  -13.5068   26.1950 N   0  0  0  0  0  0  0  0  0  0  0  0
    6.8138  -14.2006   24.6479 C   0  0  0  0  0  0  0  0  0  0  0  0
    6.8453  -15.3746   25.0994 O   0  0  0  0  0  0  0  0  0  0  0  0
    8.8397  -13.4862   21.0240 C   0  0  0  0  0  0  0  0  0  0  0  0
    8.0410  -14.7256   21.1814 C   0  0  2  0  0  0  0  0  0  0  0  0
    6.6193  -14.5051   20.6657 C   0  0  0  0  0  0  0  0  0  0  0  0
    7.9546  -15.1597   22.6084 C   0  0  2  0  0  0  0  0  0  0  0  0
    7.4318  -14.0162   23.3816 N   0  0  0  0  0  0  0  0  0  0  0  0
    9.2497  -15.5047   23.1996 C   0  0  0  0  0  0  0  0  0  0  0  0
   10.0373  -14.5928   23.6369 O   0  0  0  0  0  0  0  0  0  0  0  0
   10.0645  -17.1919   26.4325 N   0  0  0  0  0  0  0  0  0  0  0  0
   10.4304  -18.4304   25.8547 C   0  0  0  0  0  0  0  0  0  0  0  0
   10.2701  -19.4747   26.5308 O   0  0  0  0  0  0  0  0  0  0  0  0
   10.9864  -18.4793   24.4883 C   0  0  0  0  0  0  0  0  0  0  0  0
   11.0409  -17.0913   23.8506 C   0  0  2  0  0  0  0  0  0  0  0  0
    9.6914  -16.8276   23.3227 N   0  0  0  0  0  0  0  0  0  0  0  0
   11.9782  -17.0870   22.7151 C   0  0  0  0  0  0  0  0  0  0  0  0
   13.2761  -16.5988   22.8673 O   0  0  0  0  0  0  0  0  0  0  0  0
   11.6771  -17.5090   21.5723 O   0  0  0  0  0  0  0  0  0  0  0  0
  2  1  1  1
  2  3  1  0
  2  4  1  0
  4  6  1  0
  4  5  1  1
  6 12  1  0
  6  7  2  0
  9  8  1  1
  9 11  1  0
 10  9  1  0
 11 13  1  0
 11 12  1  1
 13 14  2  0
 15 16  1  0
 16 17  2  0
 18 16  1  0
 19 18  1  6
 19 21  1  0
 20 13  1  0
 20 19  1  0
 21 22  1  0
 23 21  2  0
M  END
$$$$
