EAI.pdb
     RDKit          3D

 23 22  0  0  1  0  0  0  0  0999 V2000
    8.7260  -17.3603   19.2420 N   0  0  0  0  0  0  0  0  0  0  0  0
    9.1761  -17.9883   20.4505 C   0  0  1  0  0  0  0  0  0  0  0  0
   10.6390  -17.7879   20.6344 C   0  0  0  0  0  0  0  0  0  0  0  0
   11.5253  -18.2096   19.5284 C   0  0  0  0  0  0  0  0  0  0  0  0
   12.9623  -18.0128   19.7107 C   0  0  0  0  0  0  0  0  0  0  0  0
   13.6663  -17.9639   18.6434 O   0  0  0  0  0  0  0  0  0  0  0  0
    8.4103  -17.4567   21.6074 C   0  0  0  0  0  0  0  0  0  0  0  0
    8.0282  -16.2326   21.5229 O   0  0  0  0  0  0  0  0  0  0  0  0
   13.6495  -17.8708   20.8847 O   0  0  0  0  0  0  0  0  0  0  0  0
    6.6176  -18.5503   24.6546 C   0  0  0  0  0  0  0  0  0  0  0  0
    7.2814  -17.4966   23.8057 C   0  0  2  0  0  0  0  0  0  0  0  0
    8.0677  -18.1528   22.7740 N   0  0  0  0  0  0  0  0  0  0  0  0
    8.1162  -16.5660   24.6123 C   0  0  0  0  0  0  0  0  0  0  0  0
    9.3505  -16.7225   24.5972 O   0  0  0  0  0  0  0  0  0  0  0  0
    5.7358  -11.7987   26.0232 C   0  0  0  0  0  0  0  0  0  0  0  0
    6.7059  -12.8440   25.6019 C   0  0  0  0  0  0  0  0  0  0  0  0
    7.5225  -13.4809   26.6571 C   0  0  2  0  0  0  0  0  0  0  0  0
    8.1873  -12.5058   27.6059 C   0  0  0  0  0  0  0  0  0  0  0  0
    8.3606  -14.6475   26.2660 C   0  0  2  0  0  0  0  0  0  0  0  0
    7.5784  -15.5198   25.3902 N   0  0  0  0  0  0  0  0  0  0  0  0
    9.0259  -15.3924   27.3237 C   0  0  0  0  0  0  0  0  0  0  0  0
    8.4682  -16.4111   27.8757 O   0  0  0  0  0  0  0  0  0  0  0  0
   10.2786  -15.1094   27.8338 O   0  0  0  0  0  0  0  0  0  0  0  0
  2  3  1  0
  2  1  1  6
  4  5  1  0
  4  3  1  0
  5  6  2  0
  7  2  1  0
  8  7  2  0
  9  5  1  0
 11 10  1  1
 11 12  1  0
 12  7  1  0
 13 11  1  0
 13 20  1  0
 14 13  2  0
 16 15  1  0
 17 18  1  6
 17 16  1  0
 19 20  1  1
 19 17  1  0
 21 23  1  0
 21 19  1  0
 22 21  2  0
M  END
$$$$
