EAI.pdb
     RDKit          3D

 23 22  0  0  1  0  0  0  0  0999 V2000
    7.2488  -17.9000   19.0416 N   0  0  0  0  0  0  0  0  0  0  0  0
    8.0662  -18.2829   20.1564 C   0  0  1  0  0  0  0  0  0  0  0  0
    9.4617  -17.7989   19.9764 C   0  0  0  0  0  0  0  0  0  0  0  0
   10.2810  -18.4626   18.9397 C   0  0  0  0  0  0  0  0  0  0  0  0
   11.7031  -18.1269   18.8945 C   0  0  0  0  0  0  0  0  0  0  0  0
   12.3529  -18.5535   17.8781 O   0  0  0  0  0  0  0  0  0  0  0  0
    7.4738  -17.7616   21.4153 C   0  0  0  0  0  0  0  0  0  0  0  0
    6.8204  -16.6589   21.3229 O   0  0  0  0  0  0  0  0  0  0  0  0
   12.4269  -17.4081   19.8056 O   0  0  0  0  0  0  0  0  0  0  0  0
    6.3847  -18.7915   24.7398 C   0  0  0  0  0  0  0  0  0  0  0  0
    6.9066  -17.7173   23.8204 C   0  0  2  0  0  0  0  0  0  0  0  0
    7.5584  -18.3486   22.6846 N   0  0  0  0  0  0  0  0  0  0  0  0
    7.8248  -16.7763   24.5167 C   0  0  0  0  0  0  0  0  0  0  0  0
    9.0501  -16.9615   24.4044 O   0  0  0  0  0  0  0  0  0  0  0  0
    5.4845  -12.0684   26.2088 C   0  0  0  0  0  0  0  0  0  0  0  0
    6.4612  -13.0307   25.6331 C   0  0  0  0  0  0  0  0  0  0  0  0
    7.4356  -13.6482   26.5579 C   0  0  2  0  0  0  0  0  0  0  0  0
    8.1935  -12.6587   27.4179 C   0  0  0  0  0  0  0  0  0  0  0  0
    8.2484  -14.7831   26.0408 C   0  0  2  0  0  0  0  0  0  0  0  0
    7.3754  -15.6893   25.2949 N   0  0  0  0  0  0  0  0  0  0  0  0
    9.0974  -15.4965   26.9823 C   0  0  0  0  0  0  0  0  0  0  0  0
   10.3093  -15.1264   27.2018 O   0  0  0  0  0  0  0  0  0  0  0  0
    8.7191  -16.6016   27.7206 O   0  0  0  0  0  0  0  0  0  0  0  0
  2  3  1  0
  2  1  1  6
  4  5  1  0
  4  3  1  0
  5  6  2  0
  7  2  1  0
  8  7  2  0
  9  5  1  0
 11 10  1  1
 11 12  1  0
 12  7  1  0
 13 11  1  0
 13 20  1  0
 14 13  2  0
 16 15  1  0
 17 18  1  6
 17 16  1  0
 19 20  1  1
 19 17  1  0
 21 23  1  0
 21 19  1  0
 22 21  2  0
M  END
$$$$
