EAI.pdb
     RDKit          3D

 23 22  0  0  1  0  0  0  0  0999 V2000
   11.9376  -18.2695   20.3099 N   0  0  0  0  0  0  0  0  0  0  0  0
   10.8333  -17.3732   20.1241 C   0  0  1  0  0  0  0  0  0  0  0  0
   10.0949  -17.7000   18.8744 C   0  0  0  0  0  0  0  0  0  0  0  0
   10.4136  -18.9844   18.2148 C   0  0  0  0  0  0  0  0  0  0  0  0
    9.6077  -19.3583   17.0538 C   0  0  0  0  0  0  0  0  0  0  0  0
    9.8729  -20.4917   16.5226 O   0  0  0  0  0  0  0  0  0  0  0  0
    9.9379  -17.4280   21.3085 C   0  0  0  0  0  0  0  0  0  0  0  0
   10.1693  -18.3678   22.1539 O   0  0  0  0  0  0  0  0  0  0  0  0
    8.5999  -18.6455   16.4649 O   0  0  0  0  0  0  0  0  0  0  0  0
    8.0755  -18.1922   23.1755 C   0  0  0  0  0  0  0  0  0  0  0  0
    8.1111  -16.7282   22.8189 C   0  0  2  0  0  0  0  0  0  0  0  0
    8.8726  -16.5632   21.5917 N   0  0  0  0  0  0  0  0  0  0  0  0
    8.6679  -15.8937   23.9175 C   0  0  0  0  0  0  0  0  0  0  0  0
    9.9041  -15.8514   24.0531 O   0  0  0  0  0  0  0  0  0  0  0  0
    5.5778  -11.7170   26.7134 C   0  0  0  0  0  0  0  0  0  0  0  0
    6.2817  -13.0156   26.5411 C   0  0  0  0  0  0  0  0  0  0  0  0
    7.5793  -12.9986   25.8327 C   0  0  2  0  0  0  0  0  0  0  0  0
    7.5590  -12.2612   24.5102 C   0  0  0  0  0  0  0  0  0  0  0  0
    8.3820  -14.2523   25.8408 C   0  0  2  0  0  0  0  0  0  0  0  0
    7.8658  -15.1515   24.8090 N   0  0  0  0  0  0  0  0  0  0  0  0
    8.5683  -14.9328   27.1131 C   0  0  0  0  0  0  0  0  0  0  0  0
    8.0078  -16.0650   27.3532 O   0  0  0  0  0  0  0  0  0  0  0  0
    9.3363  -14.4672   28.1633 O   0  0  0  0  0  0  0  0  0  0  0  0
  2  3  1  0
  2  1  1  1
  4  5  1  0
  4  3  1  0
  5  6  2  0
  7  2  1  0
  8  7  2  0
  9  5  1  0
 11 10  1  1
 11 12  1  0
 12  7  1  0
 13 11  1  0
 13 20  1  0
 14 13  2  0
 16 15  1  0
 17 18  1  6
 17 16  1  0
 19 20  1  6
 19 17  1  0
 21 23  1  0
 21 19  1  0
 22 21  2  0
M  END
$$$$
