EAI.pdb
     RDKit          3D

 23 22  0  0  1  0  0  0  0  0999 V2000
    7.1224  -19.7747   21.9601 N   0  0  0  0  0  0  0  0  0  0  0  0
    6.5714  -18.6448   22.6509 C   0  0  1  0  0  0  0  0  0  0  0  0
    6.5821  -18.8707   24.1215 C   0  0  0  0  0  0  0  0  0  0  0  0
    6.3238  -20.2465   24.5979 C   0  0  0  0  0  0  0  0  0  0  0  0
    7.0856  -20.7069   25.7576 C   0  0  0  0  0  0  0  0  0  0  0  0
    8.1400  -21.3875   25.5077 O   0  0  0  0  0  0  0  0  0  0  0  0
    7.3275  -17.4181   22.2892 C   0  0  0  0  0  0  0  0  0  0  0  0
    8.5906  -17.5627   22.1012 O   0  0  0  0  0  0  0  0  0  0  0  0
    6.8118  -20.4969   27.0811 O   0  0  0  0  0  0  0  0  0  0  0  0
    6.8684  -13.9228   21.1711 C   0  0  0  0  0  0  0  0  0  0  0  0
    7.6852  -15.0220   21.8004 C   0  0  2  0  0  0  0  0  0  0  0  0
    6.8033  -16.1279   22.1357 N   0  0  0  0  0  0  0  0  0  0  0  0
    8.4402  -14.5513   22.9929 C   0  0  0  0  0  0  0  0  0  0  0  0
    9.3858  -13.7624   22.8145 O   0  0  0  0  0  0  0  0  0  0  0  0
    6.2751  -11.7565   26.2335 C   0  0  0  0  0  0  0  0  0  0  0  0
    7.2082  -12.6327   25.4767 C   0  0  0  0  0  0  0  0  0  0  0  0
    8.0643  -13.5514   26.2570 C   0  0  2  0  0  0  0  0  0  0  0  0
    8.7712  -12.9024   27.4286 C   0  0  0  0  0  0  0  0  0  0  0  0
    8.8810  -14.5386   25.4990 C   0  0  2  0  0  0  0  0  0  0  0  0
    8.1374  -14.9545   24.3099 N   0  0  0  0  0  0  0  0  0  0  0  0
    9.4237  -15.6750   26.2273 C   0  0  0  0  0  0  0  0  0  0  0  0
    8.7720  -16.7792   26.3240 O   0  0  0  0  0  0  0  0  0  0  0  0
   10.6478  -15.7026   26.8680 O   0  0  0  0  0  0  0  0  0  0  0  0
  2  3  1  0
  2  1  1  6
  4  5  1  0
  4  3  1  0
  5  6  2  0
  7  2  1  0
  8  7  2  0
  9  5  1  0
 11 10  1  1
 11 12  1  0
 12  7  1  0
 13 11  1  0
 13 20  1  0
 14 13  2  0
 16 15  1  0
 17 18  1  6
 17 16  1  0
 19 20  1  6
 19 17  1  0
 21 23  1  0
 21 19  1  0
 22 21  2  0
M  END
$$$$
