EAI.pdb
     RDKit          3D

 23 22  0  0  1  0  0  0  0  0999 V2000
   10.1988  -17.8412   19.8391 N   0  0  0  0  0  0  0  0  0  0  0  0
    9.5123  -16.5877   19.7173 C   0  0  1  0  0  0  0  0  0  0  0  0
    8.7263  -16.5388   18.4549 C   0  0  0  0  0  0  0  0  0  0  0  0
    7.8197  -17.6733   18.1764 C   0  0  0  0  0  0  0  0  0  0  0  0
    7.0765  -17.6423   16.9179 C   0  0  0  0  0  0  0  0  0  0  0  0
    7.3743  -16.6973   16.1083 O   0  0  0  0  0  0  0  0  0  0  0  0
    8.6415  -16.3752   20.9022 C   0  0  0  0  0  0  0  0  0  0  0  0
    8.0740  -15.2258   20.9927 O   0  0  0  0  0  0  0  0  0  0  0  0
    6.1011  -18.5032   16.4958 O   0  0  0  0  0  0  0  0  0  0  0  0
    6.9752  -18.1470   23.6846 C   0  0  0  0  0  0  0  0  0  0  0  0
    7.5653  -16.9074   23.0624 C   0  0  2  0  0  0  0  0  0  0  0  0
    8.3814  -17.2974   21.9244 N   0  0  0  0  0  0  0  0  0  0  0  0
    8.3481  -16.1040   24.0397 C   0  0  0  0  0  0  0  0  0  0  0  0
    9.5886  -16.1081   23.9422 O   0  0  0  0  0  0  0  0  0  0  0  0
    5.9261  -11.7094   26.1166 C   0  0  0  0  0  0  0  0  0  0  0  0
    6.8980  -12.7123   25.6059 C   0  0  0  0  0  0  0  0  0  0  0  0
    7.6529  -13.4996   26.6040 C   0  0  2  0  0  0  0  0  0  0  0  0
    8.2805  -12.6725   27.7064 C   0  0  0  0  0  0  0  0  0  0  0  0
    8.4958  -14.6186   26.1005 C   0  0  2  0  0  0  0  0  0  0  0  0
    7.7547  -15.3414   25.0669 N   0  0  0  0  0  0  0  0  0  0  0  0
    9.0858  -15.5194   27.0785 C   0  0  0  0  0  0  0  0  0  0  0  0
    8.4531  -16.5576   27.4973 O   0  0  0  0  0  0  0  0  0  0  0  0
   10.3385  -15.3753   27.6439 O   0  0  0  0  0  0  0  0  0  0  0  0
  2  3  1  0
  2  1  1  1
  4  5  1  0
  4  3  1  0
  5  6  2  0
  7  2  1  0
  8  7  2  0
  9  5  1  0
 11 10  1  1
 11 12  1  0
 12  7  1  0
 13 11  1  0
 13 20  1  0
 14 13  2  0
 16 15  1  0
 17 18  1  6
 17 16  1  0
 19 20  1  6
 19 17  1  0
 21 23  1  0
 21 19  1  0
 22 21  2  0
M  END
$$$$
