EAI.pdb
     RDKit          3D

 23 22  0  0  1  0  0  0  0  0999 V2000
    9.0275  -13.5945   18.2978 N   0  0  0  0  0  0  0  0  0  0  0  0
    9.5695  -14.6392   19.1177 C   0  0  1  0  0  0  0  0  0  0  0  0
   10.9499  -14.3001   19.5577 C   0  0  0  0  0  0  0  0  0  0  0  0
   12.0650  -14.7456   18.6950 C   0  0  0  0  0  0  0  0  0  0  0  0
   13.4228  -14.4655   19.1588 C   0  0  0  0  0  0  0  0  0  0  0  0
   13.7820  -15.0465   20.2408 O   0  0  0  0  0  0  0  0  0  0  0  0
    8.6770  -14.8779   20.2813 C   0  0  0  0  0  0  0  0  0  0  0  0
    8.1361  -13.8372   20.8067 O   0  0  0  0  0  0  0  0  0  0  0  0
   14.3611  -13.6590   18.5759 O   0  0  0  0  0  0  0  0  0  0  0  0
    6.9662  -17.5880   22.1482 C   0  0  0  0  0  0  0  0  0  0  0  0
    7.4879  -16.1804   22.0127 C   0  0  2  0  0  0  0  0  0  0  0  0
    8.3705  -16.1168   20.8593 N   0  0  0  0  0  0  0  0  0  0  0  0
    8.1751  -15.7126   23.2464 C   0  0  0  0  0  0  0  0  0  0  0  0
    9.4187  -15.7449   23.2732 O   0  0  0  0  0  0  0  0  0  0  0  0
    7.4221  -11.4391   27.5224 C   0  0  0  0  0  0  0  0  0  0  0  0
    8.0309  -12.7489   27.1685 C   0  0  0  0  0  0  0  0  0  0  0  0
    7.4583  -13.4775   26.0165 C   0  0  2  0  0  0  0  0  0  0  0  0
    5.9449  -13.5280   25.9995 C   0  0  0  0  0  0  0  0  0  0  0  0
    8.1338  -14.7356   25.5956 C   0  0  2  0  0  0  0  0  0  0  0  0
    7.4882  -15.2364   24.3824 N   0  0  0  0  0  0  0  0  0  0  0  0
    8.3066  -15.7812   26.5922 C   0  0  0  0  0  0  0  0  0  0  0  0
    9.1493  -15.6533   27.5551 O   0  0  0  0  0  0  0  0  0  0  0  0
    7.6158  -16.9775   26.6231 O   0  0  0  0  0  0  0  0  0  0  0  0
  2  3  1  0
  2  1  1  1
  4  5  1  0
  4  3  1  0
  5  6  2  0
  7  2  1  0
  8  7  2  0
  9  5  1  0
 11 10  1  1
 11 12  1  0
 12  7  1  0
 13 11  1  0
 13 20  1  0
 14 13  2  0
 16 15  1  0
 17 18  1  1
 17 16  1  0
 19 20  1  6
 19 17  1  0
 21 23  1  0
 21 19  1  0
 22 21  2  0
M  END
$$$$
