EAI.pdb
     RDKit          3D

 23 22  0  0  1  0  0  0  0  0999 V2000
   10.2584  -19.5690   20.2834 N   0  0  0  0  0  0  0  0  0  0  0  0
   10.7884  -18.2736   20.5968 C   0  0  1  0  0  0  0  0  0  0  0  0
   11.2219  -17.5691   19.3600 C   0  0  0  0  0  0  0  0  0  0  0  0
   11.6866  -18.4042   18.2316 C   0  0  0  0  0  0  0  0  0  0  0  0
   12.4903  -17.7490   17.2011 C   0  0  0  0  0  0  0  0  0  0  0  0
   12.5661  -18.3515   16.0749 O   0  0  0  0  0  0  0  0  0  0  0  0
    9.7735  -17.4824   21.3393 C   0  0  0  0  0  0  0  0  0  0  0  0
   10.1142  -16.2888   21.6721 O   0  0  0  0  0  0  0  0  0  0  0  0
   13.1710  -16.5661   17.2909 O   0  0  0  0  0  0  0  0  0  0  0  0
    6.2659  -17.6745   22.6011 C   0  0  0  0  0  0  0  0  0  0  0  0
    7.5892  -16.9865   22.3840 C   0  0  2  0  0  0  0  0  0  0  0  0
    8.4912  -17.9070   21.7115 N   0  0  0  0  0  0  0  0  0  0  0  0
    8.1781  -16.4830   23.6541 C   0  0  0  0  0  0  0  0  0  0  0  0
    9.1636  -17.0818   24.1216 O   0  0  0  0  0  0  0  0  0  0  0  0
    6.2760  -11.5511   25.1805 C   0  0  0  0  0  0  0  0  0  0  0  0
    7.1187  -12.7352   24.8660 C   0  0  0  0  0  0  0  0  0  0  0  0
    7.5000  -13.6180   25.9891 C   0  0  2  0  0  0  0  0  0  0  0  0
    8.0841  -12.8922   27.1830 C   0  0  0  0  0  0  0  0  0  0  0  0
    8.1611  -14.9089   25.6534 C   0  0  2  0  0  0  0  0  0  0  0  0
    7.6752  -15.3649   24.3512 N   0  0  0  0  0  0  0  0  0  0  0  0
    8.1282  -15.9692   26.6489 C   0  0  0  0  0  0  0  0  0  0  0  0
    7.1080  -16.7429   26.7671 O   0  0  0  0  0  0  0  0  0  0  0  0
    9.1431  -16.2595   27.5407 O   0  0  0  0  0  0  0  0  0  0  0  0
  2  3  1  0
  2  1  1  6
  4  5  1  0
  4  3  1  0
  5  6  2  0
  7  2  1  0
  8  7  2  0
  9  5  1  0
 11 10  1  1
 11 12  1  0
 12  7  1  0
 13 11  1  0
 13 20  1  0
 14 13  2  0
 16 15  1  0
 17 18  1  1
 17 16  1  0
 19 20  1  6
 19 17  1  0
 21 23  1  0
 21 19  1  0
 22 21  2  0
M  END
$$$$
