EAI.pdb
     RDKit          3D

 23 22  0  0  1  0  0  0  0  0999 V2000
    7.0109  -20.2242   22.6838 N   0  0  0  0  0  0  0  0  0  0  0  0
    6.4793  -19.0704   23.3499 C   0  0  1  0  0  0  0  0  0  0  0  0
    6.5770  -19.2237   24.8267 C   0  0  0  0  0  0  0  0  0  0  0  0
    7.7751  -19.9073   25.3594 C   0  0  0  0  0  0  0  0  0  0  0  0
    7.9068  -19.9905   26.8130 C   0  0  0  0  0  0  0  0  0  0  0  0
    8.9641  -20.5610   27.2533 O   0  0  0  0  0  0  0  0  0  0  0  0
    7.1914  -17.8514   22.8869 C   0  0  0  0  0  0  0  0  0  0  0  0
    8.4705  -17.9384   22.7988 O   0  0  0  0  0  0  0  0  0  0  0  0
    7.0385  -19.5297   27.7639 O   0  0  0  0  0  0  0  0  0  0  0  0
    6.5672  -14.5140   21.3828 C   0  0  0  0  0  0  0  0  0  0  0  0
    7.4449  -15.5374   22.0566 C   0  0  2  0  0  0  0  0  0  0  0  0
    6.6101  -16.6244   22.5411 N   0  0  0  0  0  0  0  0  0  0  0  0
    8.2572  -14.9481   23.1549 C   0  0  0  0  0  0  0  0  0  0  0  0
    9.1672  -14.1557   22.8512 O   0  0  0  0  0  0  0  0  0  0  0  0
    5.9815  -12.0877   26.2616 C   0  0  0  0  0  0  0  0  0  0  0  0
    6.9466  -12.9499   25.5291 C   0  0  0  0  0  0  0  0  0  0  0  0
    7.9615  -13.6687   26.3287 C   0  0  2  0  0  0  0  0  0  0  0  0
    8.6916  -12.8032   27.3342 C   0  0  0  0  0  0  0  0  0  0  0  0
    8.8124  -14.6650   25.6220 C   0  0  2  0  0  0  0  0  0  0  0  0
    8.0467  -15.2431   24.5179 N   0  0  0  0  0  0  0  0  0  0  0  0
    9.4712  -15.6862   26.4217 C   0  0  0  0  0  0  0  0  0  0  0  0
    8.8941  -16.8053   26.6828 O   0  0  0  0  0  0  0  0  0  0  0  0
   10.7368  -15.5814   26.9664 O   0  0  0  0  0  0  0  0  0  0  0  0
  2  3  1  0
  2  1  1  6
  4  5  1  0
  4  3  1  0
  5  6  2  0
  7  2  1  0
  8  7  2  0
  9  5  1  0
 11 10  1  1
 11 12  1  0
 12  7  1  0
 13 11  1  0
 13 20  1  0
 14 13  2  0
 16 15  1  0
 17 18  1  6
 17 16  1  0
 19 20  1  6
 19 17  1  0
 21 23  1  0
 21 19  1  0
 22 21  2  0
M  END
$$$$
