EAI.pdb
     RDKit          3D

 23 22  0  0  1  0  0  0  0  0999 V2000
    9.2077  -18.5466   19.4603 N   0  0  0  0  0  0  0  0  0  0  0  0
    8.8920  -17.1474   19.4521 C   0  0  1  0  0  0  0  0  0  0  0  0
    8.0729  -16.7999   18.2595 C   0  0  0  0  0  0  0  0  0  0  0  0
    7.7331  -17.8964   17.3275 C   0  0  0  0  0  0  0  0  0  0  0  0
    7.7770  -17.5965   15.8974 C   0  0  0  0  0  0  0  0  0  0  0  0
    8.6505  -18.2331   15.2126 O   0  0  0  0  0  0  0  0  0  0  0  0
    8.1915  -16.7837   20.7109 C   0  0  0  0  0  0  0  0  0  0  0  0
    7.7897  -15.5668   20.8075 O   0  0  0  0  0  0  0  0  0  0  0  0
    6.9952  -16.7191   15.1977 O   0  0  0  0  0  0  0  0  0  0  0  0
    6.6345  -18.3431   23.6968 C   0  0  0  0  0  0  0  0  0  0  0  0
    7.1220  -17.1551   22.9078 C   0  0  2  0  0  0  0  0  0  0  0  0
    7.9292  -17.6302   21.7960 N   0  0  0  0  0  0  0  0  0  0  0  0
    7.8772  -16.1896   23.7510 C   0  0  0  0  0  0  0  0  0  0  0  0
    9.1199  -16.2529   23.7453 O   0  0  0  0  0  0  0  0  0  0  0  0
    6.9209  -10.8438   26.8146 C   0  0  0  0  0  0  0  0  0  0  0  0
    7.7331  -12.0680   26.5843 C   0  0  0  0  0  0  0  0  0  0  0  0
    7.1314  -13.1406   25.7637 C   0  0  2  0  0  0  0  0  0  0  0  0
    5.6697  -13.4060   26.0575 C   0  0  0  0  0  0  0  0  0  0  0  0
    7.9531  -14.3568   25.5144 C   0  0  2  0  0  0  0  0  0  0  0  0
    7.2554  -15.2105   24.5532 N   0  0  0  0  0  0  0  0  0  0  0  0
    8.4247  -15.1074   26.6679 C   0  0  0  0  0  0  0  0  0  0  0  0
    9.4459  -14.7185   27.3457 O   0  0  0  0  0  0  0  0  0  0  0  0
    7.8559  -16.2702   27.1514 O   0  0  0  0  0  0  0  0  0  0  0  0
  2  3  1  0
  2  1  1  1
  4  5  1  0
  4  3  1  0
  5  6  2  0
  7  2  1  0
  8  7  2  0
  9  5  1  0
 11 10  1  1
 11 12  1  0
 12  7  1  0
 13 11  1  0
 13 20  1  0
 14 13  2  0
 16 15  1  0
 17 18  1  1
 17 16  1  0
 19 20  1  6
 19 17  1  0
 21 23  1  0
 21 19  1  0
 22 21  2  0
M  END
$$$$
