EAI.pdb
     RDKit          3D

 23 22  0  0  1  0  0  0  0  0999 V2000
    7.4983  -13.7935   18.7246 N   0  0  0  0  0  0  0  0  0  0  0  0
    8.6257  -14.0857   19.5618 C   0  0  1  0  0  0  0  0  0  0  0  0
    9.3841  -12.8445   19.8752 C   0  0  0  0  0  0  0  0  0  0  0  0
   10.3463  -12.3635   18.8607 C   0  0  0  0  0  0  0  0  0  0  0  0
   11.4442  -13.2596   18.5022 C   0  0  0  0  0  0  0  0  0  0  0  0
   12.5362  -13.1038   19.1506 O   0  0  0  0  0  0  0  0  0  0  0  0
    8.1674  -14.7641   20.8017 C   0  0  0  0  0  0  0  0  0  0  0  0
    7.1295  -14.2658   21.3727 O   0  0  0  0  0  0  0  0  0  0  0  0
   11.4479  -14.2495   17.5584 O   0  0  0  0  0  0  0  0  0  0  0  0
    8.4572  -17.9007   22.6890 C   0  0  0  0  0  0  0  0  0  0  0  0
    8.1942  -16.4175   22.6384 C   0  0  2  0  0  0  0  0  0  0  0  0
    8.7522  -15.8844   21.4064 N   0  0  0  0  0  0  0  0  0  0  0  0
    8.7353  -15.7080   23.8289 C   0  0  0  0  0  0  0  0  0  0  0  0
    9.9008  -15.2756   23.7744 O   0  0  0  0  0  0  0  0  0  0  0  0
    5.8719  -11.9450   25.8066 C   0  0  0  0  0  0  0  0  0  0  0  0
    6.9155  -12.9430   25.4513 C   0  0  0  0  0  0  0  0  0  0  0  0
    7.5119  -13.7273   26.5536 C   0  0  2  0  0  0  0  0  0  0  0  0
    7.8833  -12.9087   27.7723 C   0  0  0  0  0  0  0  0  0  0  0  0
    8.4882  -14.7905   26.1894 C   0  0  2  0  0  0  0  0  0  0  0  0
    7.9944  -15.5031   25.0113 N   0  0  0  0  0  0  0  0  0  0  0  0
    8.9223  -15.7030   27.2359 C   0  0  0  0  0  0  0  0  0  0  0  0
    8.3144  -16.8167   27.4453 O   0  0  0  0  0  0  0  0  0  0  0  0
    9.9911  -15.4931   28.0863 O   0  0  0  0  0  0  0  0  0  0  0  0
  2  3  1  0
  2  1  1  6
  4  5  1  0
  4  3  1  0
  5  6  2  0
  7  2  1  0
  8  7  2  0
  9  5  1  0
 11 10  1  1
 11 12  1  0
 12  7  1  0
 13 11  1  0
 13 20  1  0
 14 13  2  0
 16 15  1  0
 17 18  1  1
 17 16  1  0
 19 20  1  6
 19 17  1  0
 21 23  1  0
 21 19  1  0
 22 21  2  0
M  END
$$$$
