EAI.pdb
     RDKit          3D

 23 22  0  0  1  0  0  0  0  0999 V2000
    8.6771  -13.4336   18.2927 N   0  0  0  0  0  0  0  0  0  0  0  0
    9.1937  -14.5052   19.0941 C   0  0  1  0  0  0  0  0  0  0  0  0
   10.6024  -14.2349   19.4893 C   0  0  0  0  0  0  0  0  0  0  0  0
   11.6547  -14.5305   18.4933 C   0  0  0  0  0  0  0  0  0  0  0  0
   13.0361  -14.2405   18.8735 C   0  0  0  0  0  0  0  0  0  0  0  0
   13.2144  -13.7929   20.0589 O   0  0  0  0  0  0  0  0  0  0  0  0
    8.3286  -14.7027   20.2858 C   0  0  0  0  0  0  0  0  0  0  0  0
    7.8404  -13.6392   20.8171 O   0  0  0  0  0  0  0  0  0  0  0  0
   14.1659  -14.3917   18.1176 O   0  0  0  0  0  0  0  0  0  0  0  0
    6.5506  -17.3132   22.2184 C   0  0  0  0  0  0  0  0  0  0  0  0
    7.1704  -15.9463   22.0802 C   0  0  2  0  0  0  0  0  0  0  0  0
    7.9965  -15.9251   20.8843 N   0  0  0  0  0  0  0  0  0  0  0  0
    7.9521  -15.5573   23.2848 C   0  0  0  0  0  0  0  0  0  0  0  0
    9.1872  -15.7056   23.2555 O   0  0  0  0  0  0  0  0  0  0  0  0
    6.1273  -11.2731   25.8730 C   0  0  0  0  0  0  0  0  0  0  0  0
    6.9082  -12.3982   25.2936 C   0  0  0  0  0  0  0  0  0  0  0  0
    7.4334  -13.4160   26.2287 C   0  0  2  0  0  0  0  0  0  0  0  0
    8.1064  -12.8450   27.4592 C   0  0  0  0  0  0  0  0  0  0  0  0
    8.1058  -14.6066   25.6401 C   0  0  2  0  0  0  0  0  0  0  0  0
    7.3635  -15.0310   24.4533 N   0  0  0  0  0  0  0  0  0  0  0  0
    8.4071  -15.7233   26.5225 C   0  0  0  0  0  0  0  0  0  0  0  0
    7.5537  -16.6637   26.7248 O   0  0  0  0  0  0  0  0  0  0  0  0
    9.5914  -15.8997   27.2121 O   0  0  0  0  0  0  0  0  0  0  0  0
  2  3  1  0
  2  1  1  1
  4  5  1  0
  4  3  1  0
  5  6  2  0
  7  2  1  0
  8  7  2  0
  9  5  1  0
 11 10  1  1
 11 12  1  0
 12  7  1  0
 13 11  1  0
 13 20  1  0
 14 13  2  0
 16 15  1  0
 17 18  1  1
 17 16  1  0
 19 20  1  6
 19 17  1  0
 21 23  1  0
 21 19  1  0
 22 21  2  0
M  END
$$$$
