EAI.pdb
     RDKit          3D

 23 22  0  0  1  0  0  0  0  0999 V2000
    9.8571  -14.4962   18.5216 N   0  0  0  0  0  0  0  0  0  0  0  0
    8.9831  -13.5599   19.1672 C   0  0  1  0  0  0  0  0  0  0  0  0
    7.9098  -13.1149   18.2377 C   0  0  0  0  0  0  0  0  0  0  0  0
    7.1296  -14.1661   17.5500 C   0  0  0  0  0  0  0  0  0  0  0  0
    7.6985  -14.7288   16.3266 C   0  0  0  0  0  0  0  0  0  0  0  0
    7.3249  -14.1885   15.2286 O   0  0  0  0  0  0  0  0  0  0  0  0
    8.4124  -14.1708   20.3954 C   0  0  0  0  0  0  0  0  0  0  0  0
    7.6642  -13.4120   21.1137 O   0  0  0  0  0  0  0  0  0  0  0  0
    8.5860  -15.7629   16.2100 O   0  0  0  0  0  0  0  0  0  0  0  0
    7.8584  -17.4660   21.9857 C   0  0  0  0  0  0  0  0  0  0  0  0
    7.9016  -15.9599   22.0222 C   0  0  2  0  0  0  0  0  0  0  0  0
    8.6096  -15.4828   20.8456 N   0  0  0  0  0  0  0  0  0  0  0  0
    8.5209  -15.4437   23.2726 C   0  0  0  0  0  0  0  0  0  0  0  0
    9.7476  -15.2349   23.2767 O   0  0  0  0  0  0  0  0  0  0  0  0
    5.9864  -11.5602   25.5911 C   0  0  0  0  0  0  0  0  0  0  0  0
    6.9789  -12.5727   25.1426 C   0  0  0  0  0  0  0  0  0  0  0  0
    7.4926  -13.5189   26.1559 C   0  0  2  0  0  0  0  0  0  0  0  0
    7.9427  -12.8676   27.4468 C   0  0  0  0  0  0  0  0  0  0  0  0
    8.3580  -14.6323   25.6788 C   0  0  2  0  0  0  0  0  0  0  0  0
    7.7880  -15.1810   24.4485 N   0  0  0  0  0  0  0  0  0  0  0  0
    8.7096  -15.6760   26.6293 C   0  0  0  0  0  0  0  0  0  0  0  0
    7.9527  -16.7004   26.8065 O   0  0  0  0  0  0  0  0  0  0  0  0
    9.8466  -15.6917   27.4144 O   0  0  0  0  0  0  0  0  0  0  0  0
  2  3  1  0
  2  1  1  6
  4  5  1  0
  4  3  1  0
  5  6  2  0
  7  2  1  0
  8  7  2  0
  9  5  1  0
 11 10  1  1
 11 12  1  0
 12  7  1  0
 13 11  1  0
 13 20  1  0
 14 13  2  0
 16 15  1  0
 17 18  1  1
 17 16  1  0
 19 20  1  6
 19 17  1  0
 21 23  1  0
 21 19  1  0
 22 21  2  0
M  END
$$$$
