EAI.pdb
     RDKit          3D

 23 22  0  0  1  0  0  0  0  0999 V2000
    9.6690  -14.9394   18.9563 N   0  0  0  0  0  0  0  0  0  0  0  0
    8.7869  -14.0616   19.6696 C   0  0  1  0  0  0  0  0  0  0  0  0
    7.6205  -13.6875   18.8248 C   0  0  0  0  0  0  0  0  0  0  0  0
    7.9047  -13.1332   17.4838 C   0  0  0  0  0  0  0  0  0  0  0  0
    8.1586  -14.0873   16.4057 C   0  0  0  0  0  0  0  0  0  0  0  0
    9.2320  -13.9078   15.7327 O   0  0  0  0  0  0  0  0  0  0  0  0
    8.3505  -14.7079   20.9342 C   0  0  0  0  0  0  0  0  0  0  0  0
    7.5563  -14.0242   21.6782 O   0  0  0  0  0  0  0  0  0  0  0  0
    7.3899  -15.1537   16.0279 O   0  0  0  0  0  0  0  0  0  0  0  0
    8.4440  -17.9547   22.7426 C   0  0  0  0  0  0  0  0  0  0  0  0
    8.2049  -16.4687   22.6623 C   0  0  2  0  0  0  0  0  0  0  0  0
    8.7182  -15.9794   21.3933 N   0  0  0  0  0  0  0  0  0  0  0  0
    8.8093  -15.7376   23.8084 C   0  0  0  0  0  0  0  0  0  0  0  0
    9.9878  -15.3527   23.7028 O   0  0  0  0  0  0  0  0  0  0  0  0
    5.8886  -11.9922   25.8032 C   0  0  0  0  0  0  0  0  0  0  0  0
    6.9511  -12.9585   25.4177 C   0  0  0  0  0  0  0  0  0  0  0  0
    7.6801  -13.6408   26.5082 C   0  0  2  0  0  0  0  0  0  0  0  0
    8.1330  -12.7242   27.6253 C   0  0  0  0  0  0  0  0  0  0  0  0
    8.6586  -14.6952   26.1248 C   0  0  2  0  0  0  0  0  0  0  0  0
    8.1140  -15.4612   25.0039 N   0  0  0  0  0  0  0  0  0  0  0  0
    9.1745  -15.5590   27.1755 C   0  0  0  0  0  0  0  0  0  0  0  0
    8.6069  -16.6773   27.4596 O   0  0  0  0  0  0  0  0  0  0  0  0
   10.2856  -15.2946   27.9535 O   0  0  0  0  0  0  0  0  0  0  0  0
  2  3  1  0
  2  1  1  6
  4  5  1  0
  4  3  1  0
  5  6  2  0
  7  2  1  0
  8  7  2  0
  9  5  1  0
 11 10  1  1
 11 12  1  0
 12  7  1  0
 13 11  1  0
 13 20  1  0
 14 13  2  0
 16 15  1  0
 17 18  1  6
 17 16  1  0
 19 20  1  6
 19 17  1  0
 21 23  1  0
 21 19  1  0
 22 21  2  0
M  END
$$$$
