IAH.pdb
     RDKit          3D

 24 24  0  0  1  0  0  0  0  0999 V2000
    6.3379  -10.4830   26.5244 C   0  0  0  0  0  0  0  0  0  0  0  0
    7.3101  -11.5836   26.8375 C   0  0  0  0  0  0  0  0  0  0  0  0
    7.0034  -12.8874   26.1411 C   0  0  2  0  0  0  0  0  0  0  0  0
    5.6340  -13.4251   26.4869 C   0  0  0  0  0  0  0  0  0  0  0  0
    8.0693  -13.9253   26.3336 C   0  0  2  0  0  0  0  0  0  0  0  0
    9.4016  -13.4140   26.1955 N   0  0  0  0  0  0  0  0  0  0  0  0
    7.8655  -15.0470   25.3971 C   0  0  0  0  0  0  0  0  0  0  0  0
    6.9514  -15.8681   25.6099 O   0  0  0  0  0  0  0  0  0  0  0  0
    8.6157  -15.8565   21.9069 C   0  0  0  0  0  0  0  0  0  0  0  0
    8.6586  -16.2702   23.3472 C   0  0  2  0  0  0  0  0  0  0  0  0
    8.7075  -15.1813   24.2675 N   0  0  0  0  0  0  0  0  0  0  0  0
    9.8338  -17.1517   23.5766 C   0  0  0  0  0  0  0  0  0  0  0  0
    9.9719  -18.1729   22.8603 O   0  0  0  0  0  0  0  0  0  0  0  0
   10.8061  -16.8857   24.5728 N   0  0  0  0  0  0  0  0  0  0  0  0
   11.9626  -17.7695   24.6753 C   0  0  1  0  0  0  0  0  0  0  0  0
   13.2399  -16.9917   24.6699 C   0  0  0  0  0  0  0  0  0  0  0  0
   13.4072  -16.2872   23.3966 C   0  0  0  0  0  0  0  0  0  0  0  0
   12.4937  -15.4732   22.7726 C   0  0  0  0  0  0  0  0  0  0  0  0
   13.0475  -15.0498   21.5943 N   0  0  0  0  0  0  0  0  0  0  0  0
   14.2683  -15.5868   21.4928 C   0  0  0  0  0  0  0  0  0  0  0  0
   14.4805  -16.3332   22.5839 N   0  0  0  0  0  0  0  0  0  0  0  0
   11.8247  -18.6309   25.8515 C   0  0  0  0  0  0  0  0  0  0  0  0
   10.7825  -18.5693   26.5619 O   0  0  0  0  0  0  0  0  0  0  0  0
   12.7889  -19.5246   26.2306 O   0  0  0  0  0  0  0  0  0  0  0  0
  1  2  1  0
  2  3  1  0
  3  5  1  0
  3  4  1  1
  5  7  1  0
  5  6  1  6
  7  8  2  0
  7 11  1  0
 10  9  1  6
 11 10  1  0
 12 14  1  0
 12 10  1  0
 13 12  2  0
 15 14  1  0
 15 22  1  0
 15 16  1  1
 16 17  1  0
 17 18  2  0
 18 19  1  0
 20 19  1  0
 21 17  1  0
 21 20  2  0
 22 24  1  0
 23 22  2  0
M  END
$$$$
