IAH.pdb
     RDKit          3D

 24 24  0  0  1  0  0  0  0  0999 V2000
    6.0851  -11.4759   26.2772 C   0  0  0  0  0  0  0  0  0  0  0  0
    5.7066  -12.7395   25.5598 C   0  0  0  0  0  0  0  0  0  0  0  0
    6.8875  -13.5736   25.1253 C   0  0  2  0  0  0  0  0  0  0  0  0
    7.8902  -12.7864   24.3136 C   0  0  0  0  0  0  0  0  0  0  0  0
    6.4911  -14.8437   24.4324 C   0  0  2  0  0  0  0  0  0  0  0  0
    5.4645  -15.5752   25.1155 N   0  0  0  0  0  0  0  0  0  0  0  0
    7.6708  -15.7070   24.2331 C   0  0  0  0  0  0  0  0  0  0  0  0
    7.8763  -16.6579   25.0133 O   0  0  0  0  0  0  0  0  0  0  0  0
   10.4348  -15.8059   21.6163 C   0  0  0  0  0  0  0  0  0  0  0  0
    9.7073  -16.2357   22.8547 C   0  0  2  0  0  0  0  0  0  0  0  0
    8.5572  -15.4491   23.1604 N   0  0  0  0  0  0  0  0  0  0  0  0
   10.6378  -16.2047   24.0141 C   0  0  0  0  0  0  0  0  0  0  0  0
   11.7143  -16.8458   23.9419 O   0  0  0  0  0  0  0  0  0  0  0  0
   10.3585  -15.4798   25.1993 N   0  0  0  0  0  0  0  0  0  0  0  0
   11.2237  -15.6733   26.3582 C   0  0  1  0  0  0  0  0  0  0  0  0
   10.8148  -14.7885   27.4923 C   0  0  0  0  0  0  0  0  0  0  0  0
   11.3773  -15.2767   28.7536 C   0  0  0  0  0  0  0  0  0  0  0  0
   12.1919  -16.3682   28.9313 C   0  0  0  0  0  0  0  0  0  0  0  0
   12.4561  -16.4789   30.2701 N   0  0  0  0  0  0  0  0  0  0  0  0
   11.8228  -15.4845   30.9018 C   0  0  0  0  0  0  0  0  0  0  0  0
   11.1728  -14.7614   29.9814 N   0  0  0  0  0  0  0  0  0  0  0  0
   11.2525  -17.0913   26.7232 C   0  0  0  0  0  0  0  0  0  0  0  0
   10.1997  -17.7847   26.6503 O   0  0  0  0  0  0  0  0  0  0  0  0
   12.3899  -17.7225   27.1475 O   0  0  0  0  0  0  0  0  0  0  0  0
  1  2  1  0
  2  3  1  0
  3  5  1  0
  3  4  1  6
  5  7  1  0
  5  6  1  1
  7  8  2  0
  7 11  1  0
 10  9  1  6
 11 10  1  0
 12 14  1  0
 12 10  1  0
 13 12  2  0
 15 14  1  0
 15 22  1  0
 15 16  1  1
 16 17  1  0
 17 18  2  0
 18 19  1  0
 20 19  1  0
 21 17  1  0
 21 20  2  0
 22 24  1  0
 23 22  2  0
M  END
$$$$
