IAH.pdb
     RDKit          3D

 24 24  0  0  1  0  0  0  0  0999 V2000
    6.1283  -11.2737   26.7416 C   0  0  0  0  0  0  0  0  0  0  0  0
    5.7474  -12.5939   26.1360 C   0  0  0  0  0  0  0  0  0  0  0  0
    6.9258  -13.4243   25.6881 C   0  0  2  0  0  0  0  0  0  0  0  0
    7.8155  -12.6938   24.7090 C   0  0  0  0  0  0  0  0  0  0  0  0
    6.5337  -14.7781   25.1743 C   0  0  2  0  0  0  0  0  0  0  0  0
    5.5129  -15.4155   25.9537 N   0  0  0  0  0  0  0  0  0  0  0  0
    7.7171  -15.6550   25.0889 C   0  0  0  0  0  0  0  0  0  0  0  0
    8.1418  -16.2174   26.1177 O   0  0  0  0  0  0  0  0  0  0  0  0
    9.8262  -16.9196   22.1875 C   0  0  0  0  0  0  0  0  0  0  0  0
    9.4591  -16.7325   23.6290 C   0  0  2  0  0  0  0  0  0  0  0  0
    8.3588  -15.8500   23.8428 N   0  0  0  0  0  0  0  0  0  0  0  0
   10.6384  -16.2278   24.3810 C   0  0  0  0  0  0  0  0  0  0  0  0
   10.5633  -15.1071   24.9409 O   0  0  0  0  0  0  0  0  0  0  0  0
   11.8457  -16.9616   24.4916 N   0  0  0  0  0  0  0  0  0  0  0  0
   12.4663  -17.0937   25.8056 C   0  0  1  0  0  0  0  0  0  0  0  0
   11.4609  -17.4828   26.8420 C   0  0  0  0  0  0  0  0  0  0  0  0
   10.8809  -16.2922   27.4679 C   0  0  0  0  0  0  0  0  0  0  0  0
   11.4568  -15.0503   27.5806 C   0  0  0  0  0  0  0  0  0  0  0  0
   10.5834  -14.2448   28.2608 N   0  0  0  0  0  0  0  0  0  0  0  0
    9.4988  -14.9681   28.5600 C   0  0  0  0  0  0  0  0  0  0  0  0
    9.6837  -16.2038   28.0789 N   0  0  0  0  0  0  0  0  0  0  0  0
   13.5950  -18.0237   25.7288 C   0  0  0  0  0  0  0  0  0  0  0  0
   13.8005  -18.6829   24.6715 O   0  0  0  0  0  0  0  0  0  0  0  0
   14.4633  -18.2198   26.7678 O   0  0  0  0  0  0  0  0  0  0  0  0
  1  2  1  0
  2  3  1  0
  3  5  1  0
  3  4  1  6
  5  7  1  0
  5  6  1  1
  7  8  2  0
  7 11  1  0
 10  9  1  6
 11 10  1  0
 12 14  1  0
 12 10  1  0
 13 12  2  0
 15 14  1  0
 15 22  1  0
 15 16  1  1
 16 17  1  0
 17 18  2  0
 18 19  1  0
 20 19  1  0
 21 17  1  0
 21 20  2  0
 22 24  1  0
 23 22  2  0
M  END
$$$$
