IAH.pdb
     RDKit          3D

 24 24  0  0  1  0  0  0  0  0999 V2000
    7.7344  -11.7853   26.8037 C   0  0  0  0  0  0  0  0  0  0  0  0
    7.1511  -13.1564   26.9898 C   0  0  0  0  0  0  0  0  0  0  0  0
    7.4119  -14.0940   25.8358 C   0  0  2  0  0  0  0  0  0  0  0  0
    7.0257  -13.4984   24.5017 C   0  0  0  0  0  0  0  0  0  0  0  0
    6.8069  -15.4529   26.0301 C   0  0  2  0  0  0  0  0  0  0  0  0
    7.1084  -16.0402   27.3028 N   0  0  0  0  0  0  0  0  0  0  0  0
    7.2320  -16.3613   24.9480 C   0  0  0  0  0  0  0  0  0  0  0  0
    8.2427  -17.0748   25.1050 O   0  0  0  0  0  0  0  0  0  0  0  0
    5.5794  -17.4892   21.7306 C   0  0  0  0  0  0  0  0  0  0  0  0
    6.7199  -17.3537   22.6942 C   0  0  2  0  0  0  0  0  0  0  0  0
    6.4908  -16.4150   23.7437 N   0  0  0  0  0  0  0  0  0  0  0  0
    7.9508  -16.9647   21.9562 C   0  0  0  0  0  0  0  0  0  0  0  0
    8.3378  -17.6857   21.0047 O   0  0  0  0  0  0  0  0  0  0  0  0
    8.7062  -15.8112   22.2839 N   0  0  0  0  0  0  0  0  0  0  0  0
    9.8908  -15.5020   21.4902 C   0  0  1  0  0  0  0  0  0  0  0  0
    9.8356  -14.1058   20.9573 C   0  0  0  0  0  0  0  0  0  0  0  0
    8.8481  -14.0055   19.8801 C   0  0  0  0  0  0  0  0  0  0  0  0
    8.1330  -12.8923   19.5111 C   0  0  0  0  0  0  0  0  0  0  0  0
    7.3040  -13.2504   18.4821 N   0  0  0  0  0  0  0  0  0  0  0  0
    7.5009  -14.5476   18.2225 C   0  0  0  0  0  0  0  0  0  0  0  0
    8.4344  -14.9988   19.0696 N   0  0  0  0  0  0  0  0  0  0  0  0
   11.0970  -15.7641   22.2783 C   0  0  0  0  0  0  0  0  0  0  0  0
   10.9983  -16.1868   23.4640 O   0  0  0  0  0  0  0  0  0  0  0  0
   12.3587  -15.5729   21.7846 O   0  0  0  0  0  0  0  0  0  0  0  0
  1  2  1  0
  2  3  1  0
  3  5  1  0
  3  4  1  6
  5  7  1  0
  5  6  1  1
  7  8  2  0
  7 11  1  0
 10  9  1  6
 11 10  1  0
 12 14  1  0
 12 10  1  0
 13 12  2  0
 15 14  1  0
 15 22  1  0
 15 16  1  1
 16 17  1  0
 17 18  2  0
 18 19  1  0
 20 19  1  0
 21 17  1  0
 21 20  2  0
 22 24  1  0
 23 22  2  0
M  END
$$$$
