IAH.pdb
     RDKit          3D

 24 24  0  0  1  0  0  0  0  0999 V2000
    7.8188  -11.9907   27.0647 C   0  0  0  0  0  0  0  0  0  0  0  0
    7.2048  -13.3569   27.1700 C   0  0  0  0  0  0  0  0  0  0  0  0
    7.5648  -14.2790   26.0303 C   0  0  2  0  0  0  0  0  0  0  0  0
    7.2271  -13.6944   24.6783 C   0  0  0  0  0  0  0  0  0  0  0  0
    7.0055  -15.6618   26.1896 C   0  0  2  0  0  0  0  0  0  0  0  0
    7.2611  -16.2410   27.4760 N   0  0  0  0  0  0  0  0  0  0  0  0
    7.5249  -16.5485   25.1308 C   0  0  0  0  0  0  0  0  0  0  0  0
    8.6038  -17.1489   25.3055 O   0  0  0  0  0  0  0  0  0  0  0  0
    6.0289  -17.8862   21.9127 C   0  0  0  0  0  0  0  0  0  0  0  0
    7.1315  -17.6360   22.8971 C   0  0  2  0  0  0  0  0  0  0  0  0
    6.7958  -16.7096   23.9287 N   0  0  0  0  0  0  0  0  0  0  0  0
    8.3376  -17.1456   22.1790 C   0  0  0  0  0  0  0  0  0  0  0  0
    8.8455  -17.8685   21.2877 O   0  0  0  0  0  0  0  0  0  0  0  0
    8.9383  -15.8932   22.4602 N   0  0  0  0  0  0  0  0  0  0  0  0
   10.1769  -15.5414   21.7738 C   0  0  1  0  0  0  0  0  0  0  0  0
   10.1132  -14.1537   21.2201 C   0  0  0  0  0  0  0  0  0  0  0  0
    9.2940  -14.1218   20.0063 C   0  0  0  0  0  0  0  0  0  0  0  0
    8.7782  -15.1973   19.3251 C   0  0  0  0  0  0  0  0  0  0  0  0
    8.1043  -14.7169   18.2345 N   0  0  0  0  0  0  0  0  0  0  0  0
    8.2007  -13.3829   18.2413 C   0  0  0  0  0  0  0  0  0  0  0  0
    8.9203  -13.0287   19.3134 N   0  0  0  0  0  0  0  0  0  0  0  0
   11.3156  -15.7451   22.6719 C   0  0  0  0  0  0  0  0  0  0  0  0
   11.1330  -16.2228   23.8265 O   0  0  0  0  0  0  0  0  0  0  0  0
   12.6012  -15.4402   22.3165 O   0  0  0  0  0  0  0  0  0  0  0  0
  1  2  1  0
  2  3  1  0
  3  5  1  0
  3  4  1  6
  5  7  1  0
  5  6  1  1
  7  8  2  0
  7 11  1  0
 10  9  1  6
 11 10  1  0
 12 14  1  0
 12 10  1  0
 13 12  2  0
 15 14  1  0
 15 22  1  0
 15 16  1  1
 16 17  1  0
 17 18  2  0
 18 19  1  0
 20 19  1  0
 21 17  1  0
 21 20  2  0
 22 24  1  0
 23 22  2  0
M  END
$$$$
