IAH.pdb
     RDKit          3D

 24 24  0  0  1  0  0  0  0  0999 V2000
    8.6180  -11.9362   18.5833 C   0  0  0  0  0  0  0  0  0  0  0  0
    8.0005  -13.2163   19.0675 C   0  0  0  0  0  0  0  0  0  0  0  0
    8.7369  -13.8528   20.2214 C   0  0  2  0  0  0  0  0  0  0  0  0
   10.1983  -14.0920   19.9196 C   0  0  0  0  0  0  0  0  0  0  0  0
    8.0690  -15.0932   20.7368 C   0  0  2  0  0  0  0  0  0  0  0  0
    6.6672  -14.9291   20.9892 N   0  0  0  0  0  0  0  0  0  0  0  0
    8.7443  -15.5668   21.9600 C   0  0  0  0  0  0  0  0  0  0  0  0
    8.4243  -15.0858   23.0651 O   0  0  0  0  0  0  0  0  0  0  0  0
   10.1625  -18.2715   23.5833 C   0  0  0  0  0  0  0  0  0  0  0  0
   10.5762  -16.9754   22.9535 C   0  0  2  0  0  0  0  0  0  0  0  0
    9.7473  -16.5611   21.8690 N   0  0  0  0  0  0  0  0  0  0  0  0
   11.9809  -17.0798   22.4775 C   0  0  0  0  0  0  0  0  0  0  0  0
   12.2599  -17.9341   21.6015 O   0  0  0  0  0  0  0  0  0  0  0  0
   13.0196  -16.2529   22.9734 N   0  0  0  0  0  0  0  0  0  0  0  0
   14.3474  -16.3651   22.3788 C   0  0  1  0  0  0  0  0  0  0  0  0
   14.7910  -15.0612   21.7962 C   0  0  0  0  0  0  0  0  0  0  0  0
   14.1896  -14.8568   20.4763 C   0  0  0  0  0  0  0  0  0  0  0  0
   13.3541  -15.7147   19.8036 C   0  0  0  0  0  0  0  0  0  0  0  0
   13.0547  -15.1446   18.5954 N   0  0  0  0  0  0  0  0  0  0  0  0
   13.6871  -13.9683   18.5233 C   0  0  0  0  0  0  0  0  0  0  0  0
   14.3710  -13.7993   19.6618 N   0  0  0  0  0  0  0  0  0  0  0  0
   15.2885  -16.8981   23.3661 C   0  0  0  0  0  0  0  0  0  0  0  0
   16.4897  -17.1145   23.0424 O   0  0  0  0  0  0  0  0  0  0  0  0
   14.9271  -17.1790   24.6555 O   0  0  0  0  0  0  0  0  0  0  0  0
  1  2  1  0
  2  3  1  0
  3  5  1  0
  3  4  1  6
  5  7  1  0
  5  6  1  1
  7  8  2  0
  7 11  1  0
 10  9  1  6
 11 10  1  0
 12 14  1  0
 12 10  1  0
 13 12  2  0
 15 14  1  0
 15 22  1  0
 15 16  1  1
 16 17  1  0
 17 18  2  0
 18 19  1  0
 20 19  1  0
 21 17  1  0
 21 20  2  0
 22 24  1  0
 23 22  2  0
M  END
$$$$
