IAH.pdb
     RDKit          3D

 24 24  0  0  1  0  0  0  0  0999 V2000
    6.7038  -10.6667   26.1956 C   0  0  0  0  0  0  0  0  0  0  0  0
    5.9871  -11.9354   25.8328 C   0  0  0  0  0  0  0  0  0  0  0  0
    6.9079  -13.0838   25.4976 C   0  0  2  0  0  0  0  0  0  0  0  0
    7.9248  -12.7258   24.4387 C   0  0  0  0  0  0  0  0  0  0  0  0
    6.1759  -14.3478   25.1559 C   0  0  2  0  0  0  0  0  0  0  0  0
    5.1347  -14.6786   26.0844 N   0  0  0  0  0  0  0  0  0  0  0  0
    7.1233  -15.4736   25.0465 C   0  0  0  0  0  0  0  0  0  0  0  0
    7.5943  -15.9843   26.0821 O   0  0  0  0  0  0  0  0  0  0  0  0
    8.4225  -17.5289   22.1228 C   0  0  0  0  0  0  0  0  0  0  0  0
    8.3668  -17.0651   23.5474 C   0  0  2  0  0  0  0  0  0  0  0  0
    7.4886  -15.9632   23.7700 N   0  0  0  0  0  0  0  0  0  0  0  0
    9.7329  -16.6961   24.0040 C   0  0  0  0  0  0  0  0  0  0  0  0
   10.2722  -15.6682   23.5269 O   0  0  0  0  0  0  0  0  0  0  0  0
   10.4522  -17.4587   24.9576 N   0  0  0  0  0  0  0  0  0  0  0  0
   11.7892  -17.0180   25.3414 C   0  0  1  0  0  0  0  0  0  0  0  0
   12.0226  -17.2105   26.8059 C   0  0  0  0  0  0  0  0  0  0  0  0
   11.2023  -16.2792   27.5838 C   0  0  0  0  0  0  0  0  0  0  0  0
   10.4885  -15.2062   27.1085 C   0  0  0  0  0  0  0  0  0  0  0  0
    9.8943  -14.5926   28.1785 N   0  0  0  0  0  0  0  0  0  0  0  0
   10.2313  -15.2668   29.2834 C   0  0  0  0  0  0  0  0  0  0  0  0
   11.0213  -16.2844   28.9187 N   0  0  0  0  0  0  0  0  0  0  0  0
   12.7899  -17.6919   24.5112 C   0  0  0  0  0  0  0  0  0  0  0  0
   12.4624  -18.6908   23.8116 O   0  0  0  0  0  0  0  0  0  0  0  0
   14.0947  -17.2846   24.4492 O   0  0  0  0  0  0  0  0  0  0  0  0
  1  2  1  0
  2  3  1  0
  3  5  1  0
  3  4  1  6
  5  7  1  0
  5  6  1  1
  7  8  2  0
  7 11  1  0
 10  9  1  6
 11 10  1  0
 12 14  1  0
 12 10  1  0
 13 12  2  0
 15 14  1  0
 15 22  1  0
 15 16  1  1
 16 17  1  0
 17 18  2  0
 18 19  1  0
 20 19  1  0
 21 17  1  0
 21 20  2  0
 22 24  1  0
 23 22  2  0
M  END
$$$$
