IAH.pdb
     RDKit          3D

 24 24  0  0  1  0  0  0  0  0999 V2000
    6.2683  -11.2540   26.8071 C   0  0  0  0  0  0  0  0  0  0  0  0
    5.8624  -12.5957   26.2690 C   0  0  0  0  0  0  0  0  0  0  0  0
    7.0068  -13.3976   25.6977 C   0  0  2  0  0  0  0  0  0  0  0  0
    7.7543  -12.6562   24.6136 C   0  0  0  0  0  0  0  0  0  0  0  0
    6.6007  -14.7703   25.2492 C   0  0  2  0  0  0  0  0  0  0  0  0
    5.8019  -15.4759   26.2081 N   0  0  0  0  0  0  0  0  0  0  0  0
    7.7927  -15.5698   24.9075 C   0  0  0  0  0  0  0  0  0  0  0  0
    8.4282  -16.1451   25.8132 O   0  0  0  0  0  0  0  0  0  0  0  0
    9.5258  -16.4242   21.6261 C   0  0  0  0  0  0  0  0  0  0  0  0
    9.3290  -16.4323   23.1123 C   0  0  2  0  0  0  0  0  0  0  0  0
    8.2037  -15.6770   23.5575 N   0  0  0  0  0  0  0  0  0  0  0  0
   10.5537  -15.9160   23.7789 C   0  0  0  0  0  0  0  0  0  0  0  0
   10.5345  -14.7592   24.2655 O   0  0  0  0  0  0  0  0  0  0  0  0
   11.7438  -16.6777   23.8877 N   0  0  0  0  0  0  0  0  0  0  0  0
   12.4616  -16.6765   25.1580 C   0  0  1  0  0  0  0  0  0  0  0  0
   11.6103  -17.2202   26.2608 C   0  0  0  0  0  0  0  0  0  0  0  0
   11.0617  -16.1304   27.0714 C   0  0  0  0  0  0  0  0  0  0  0  0
   11.1160  -14.7853   26.7989 C   0  0  0  0  0  0  0  0  0  0  0  0
   10.5088  -14.1246   27.8329 N   0  0  0  0  0  0  0  0  0  0  0  0
   10.0912  -15.0351   28.7191 C   0  0  0  0  0  0  0  0  0  0  0  0
   10.4277  -16.2449   28.2544 N   0  0  0  0  0  0  0  0  0  0  0  0
   13.7300  -17.3936   25.0106 C   0  0  0  0  0  0  0  0  0  0  0  0
   14.5550  -17.4225   25.9661 O   0  0  0  0  0  0  0  0  0  0  0  0
   14.0770  -18.0537   23.8634 O   0  0  0  0  0  0  0  0  0  0  0  0
  1  2  1  0
  2  3  1  0
  3  5  1  0
  3  4  1  6
  5  7  1  0
  5  6  1  1
  7  8  2  0
  7 11  1  0
 10  9  1  6
 11 10  1  0
 12 14  1  0
 12 10  1  0
 13 12  2  0
 15 14  1  0
 15 22  1  0
 15 16  1  1
 16 17  1  0
 17 18  2  0
 18 19  1  0
 20 19  1  0
 21 17  1  0
 21 20  2  0
 22 24  1  0
 23 22  2  0
M  END
$$$$
