IAH.pdb
     RDKit          3D

 24 24  0  0  1  0  0  0  0  0999 V2000
    8.1512  -11.5426   19.5627 C   0  0  0  0  0  0  0  0  0  0  0  0
    8.3294  -12.9384   19.0387 C   0  0  0  0  0  0  0  0  0  0  0  0
    8.4608  -13.9852   20.1185 C   0  0  2  0  0  0  0  0  0  0  0  0
    9.5804  -13.6853   21.0883 C   0  0  0  0  0  0  0  0  0  0  0  0
    8.5562  -15.3818   19.5793 C   0  0  2  0  0  0  0  0  0  0  0  0
    7.5396  -15.6984   18.6191 N   0  0  0  0  0  0  0  0  0  0  0  0
    8.5216  -16.3596   20.6836 C   0  0  0  0  0  0  0  0  0  0  0  0
    7.4390  -16.6114   21.2489 O   0  0  0  0  0  0  0  0  0  0  0  0
   10.8614  -19.0406   21.8442 C   0  0  0  0  0  0  0  0  0  0  0  0
    9.7847  -18.0250   22.0829 C   0  0  2  0  0  0  0  0  0  0  0  0
    9.7149  -17.0022   21.0910 N   0  0  0  0  0  0  0  0  0  0  0  0
    9.9816  -17.3954   23.4154 C   0  0  0  0  0  0  0  0  0  0  0  0
   10.9279  -16.5849   23.5666 O   0  0  0  0  0  0  0  0  0  0  0  0
    9.1432  -17.6733   24.5237 N   0  0  0  0  0  0  0  0  0  0  0  0
    9.3917  -16.9760   25.7811 C   0  0  1  0  0  0  0  0  0  0  0  0
    8.1109  -16.5576   26.4299 C   0  0  0  0  0  0  0  0  0  0  0  0
    7.5440  -15.3937   25.7446 C   0  0  0  0  0  0  0  0  0  0  0  0
    8.1232  -14.6601   24.7381 C   0  0  0  0  0  0  0  0  0  0  0  0
    7.2634  -13.6457   24.4125 N   0  0  0  0  0  0  0  0  0  0  0  0
    6.1838  -13.7492   25.1952 C   0  0  0  0  0  0  0  0  0  0  0  0
    6.3584  -14.8065   25.9979 N   0  0  0  0  0  0  0  0  0  0  0  0
   10.2266  -17.8069   26.6513 C   0  0  0  0  0  0  0  0  0  0  0  0
   10.1439  -19.0656   26.5932 O   0  0  0  0  0  0  0  0  0  0  0  0
   11.1171  -17.2784   27.5457 O   0  0  0  0  0  0  0  0  0  0  0  0
  1  2  1  0
  2  3  1  0
  3  5  1  0
  3  4  1  6
  5  7  1  0
  5  6  1  6
  7  8  2  0
  7 11  1  0
 10  9  1  6
 11 10  1  0
 12 14  1  0
 12 10  1  0
 13 12  2  0
 15 14  1  0
 15 22  1  0
 15 16  1  1
 16 17  1  0
 17 18  2  0
 18 19  1  0
 20 19  1  0
 21 17  1  0
 21 20  2  0
 22 24  1  0
 23 22  2  0
M  END
$$$$
