IAH.pdb
     RDKit          3D

 24 24  0  0  1  0  0  0  0  0999 V2000
    7.7376  -11.6445   26.7598 C   0  0  0  0  0  0  0  0  0  0  0  0
    6.9249  -12.9054   26.8251 C   0  0  0  0  0  0  0  0  0  0  0  0
    7.3576  -13.9639   25.8395 C   0  0  2  0  0  0  0  0  0  0  0  0
    7.4178  -13.4490   24.4199 C   0  0  0  0  0  0  0  0  0  0  0  0
    6.5522  -15.2258   25.9358 C   0  0  2  0  0  0  0  0  0  0  0  0
    6.3978  -15.7086   27.2770 N   0  0  0  0  0  0  0  0  0  0  0  0
    7.1489  -16.2787   25.0919 C   0  0  0  0  0  0  0  0  0  0  0  0
    8.0798  -16.9750   25.5430 O   0  0  0  0  0  0  0  0  0  0  0  0
    6.0202  -17.9474   21.9095 C   0  0  0  0  0  0  0  0  0  0  0  0
    7.0446  -17.5749   22.9388 C   0  0  2  0  0  0  0  0  0  0  0  0
    6.6604  -16.4891   23.7804 N   0  0  0  0  0  0  0  0  0  0  0  0
    8.3261  -17.2360   22.2651 C   0  0  0  0  0  0  0  0  0  0  0  0
    8.8529  -18.0859   21.5066 O   0  0  0  0  0  0  0  0  0  0  0  0
    8.9781  -15.9907   22.4445 N   0  0  0  0  0  0  0  0  0  0  0  0
   10.2262  -15.7449   21.7296 C   0  0  1  0  0  0  0  0  0  0  0  0
   10.2571  -14.3650   21.1539 C   0  0  0  0  0  0  0  0  0  0  0  0
    9.1718  -14.1875   20.1864 C   0  0  0  0  0  0  0  0  0  0  0  0
    8.5815  -15.1582   19.4144 C   0  0  0  0  0  0  0  0  0  0  0  0
    7.6363  -14.5519   18.6313 N   0  0  0  0  0  0  0  0  0  0  0  0
    7.6422  -13.2440   18.9110 C   0  0  0  0  0  0  0  0  0  0  0  0
    8.5713  -13.0292   19.8508 N   0  0  0  0  0  0  0  0  0  0  0  0
   11.3635  -16.0209   22.6099 C   0  0  0  0  0  0  0  0  0  0  0  0
   11.1675  -16.4547   23.7795 O   0  0  0  0  0  0  0  0  0  0  0  0
   12.6618  -15.8315   22.2217 O   0  0  0  0  0  0  0  0  0  0  0  0
  1  2  1  0
  2  3  1  0
  3  5  1  0
  3  4  1  6
  5  7  1  0
  5  6  1  1
  7  8  2  0
  7 11  1  0
 10  9  1  6
 11 10  1  0
 12 14  1  0
 12 10  1  0
 13 12  2  0
 15 14  1  0
 15 22  1  0
 15 16  1  1
 16 17  1  0
 17 18  2  0
 18 19  1  0
 20 19  1  0
 21 17  1  0
 21 20  2  0
 22 24  1  0
 23 22  2  0
M  END
$$$$
