IAH.pdb
     RDKit          3D

 24 24  0  0  1  0  0  0  0  0999 V2000
    6.9651  -11.1136   26.5221 C   0  0  0  0  0  0  0  0  0  0  0  0
    7.4925  -12.3559   27.1802 C   0  0  0  0  0  0  0  0  0  0  0  0
    7.7544  -13.4921   26.2213 C   0  0  2  0  0  0  0  0  0  0  0  0
    8.8212  -13.1618   25.2032 C   0  0  0  0  0  0  0  0  0  0  0  0
    6.5086  -14.0124   25.5671 C   0  0  2  0  0  0  0  0  0  0  0  0
    5.4727  -14.3582   26.4959 N   0  0  0  0  0  0  0  0  0  0  0  0
    6.8255  -15.1757   24.7168 C   0  0  0  0  0  0  0  0  0  0  0  0
    6.8695  -16.3144   25.2233 O   0  0  0  0  0  0  0  0  0  0  0  0
    6.9998  -15.6960   20.9843 C   0  0  0  0  0  0  0  0  0  0  0  0
    7.3130  -16.0466   22.4079 C   0  0  2  0  0  0  0  0  0  0  0  0
    7.0760  -14.9898   23.3364 N   0  0  0  0  0  0  0  0  0  0  0  0
    8.7327  -16.4755   22.5137 C   0  0  0  0  0  0  0  0  0  0  0  0
    9.1272  -17.4372   21.8104 O   0  0  0  0  0  0  0  0  0  0  0  0
    9.6604  -15.8418   23.3776 N   0  0  0  0  0  0  0  0  0  0  0  0
   11.0242  -16.3569   23.4387 C   0  0  1  0  0  0  0  0  0  0  0  0
   12.0241  -15.2689   23.2086 C   0  0  0  0  0  0  0  0  0  0  0  0
   12.0379  -14.8734   21.7983 C   0  0  0  0  0  0  0  0  0  0  0  0
   11.3147  -15.4321   20.7729 C   0  0  0  0  0  0  0  0  0  0  0  0
   11.6540  -14.7795   19.6183 N   0  0  0  0  0  0  0  0  0  0  0  0
   12.5609  -13.8442   19.9212 C   0  0  0  0  0  0  0  0  0  0  0  0
   12.7892  -13.9052   21.2390 N   0  0  0  0  0  0  0  0  0  0  0  0
   11.2307  -17.0625   24.7053 C   0  0  0  0  0  0  0  0  0  0  0  0
   12.3544  -17.5753   24.9677 O   0  0  0  0  0  0  0  0  0  0  0  0
   10.2459  -17.1970   25.6456 O   0  0  0  0  0  0  0  0  0  0  0  0
  1  2  1  0
  2  3  1  0
  3  5  1  0
  3  4  1  6
  5  7  1  0
  5  6  1  1
  7  8  2  0
  7 11  1  0
 10  9  1  6
 11 10  1  0
 12 14  1  0
 12 10  1  0
 13 12  2  0
 15 14  1  0
 15 22  1  0
 15 16  1  1
 16 17  1  0
 17 18  2  0
 18 19  1  0
 20 19  1  0
 21 17  1  0
 21 20  2  0
 22 24  1  0
 23 22  2  0
M  END
$$$$
