IAH.pdb
     RDKit          3D

 24 24  0  0  1  0  0  0  0  0999 V2000
    8.4895  -11.5242   19.2846 C   0  0  0  0  0  0  0  0  0  0  0  0
    8.5400  -12.9309   18.7618 C   0  0  0  0  0  0  0  0  0  0  0  0
    8.7101  -13.9773   19.8366 C   0  0  2  0  0  0  0  0  0  0  0  0
    9.9301  -13.7378   20.6957 C   0  0  0  0  0  0  0  0  0  0  0  0
    8.6745  -15.3802   19.3065 C   0  0  2  0  0  0  0  0  0  0  0  0
    7.6663  -15.5930   18.3096 N   0  0  0  0  0  0  0  0  0  0  0  0
    8.4935  -16.3401   20.4123 C   0  0  0  0  0  0  0  0  0  0  0  0
    7.3439  -16.5991   20.8203 O   0  0  0  0  0  0  0  0  0  0  0  0
   10.5469  -19.0943   21.7855 C   0  0  0  0  0  0  0  0  0  0  0  0
    9.5623  -17.9822   21.9896 C   0  0  2  0  0  0  0  0  0  0  0  0
    9.6237  -16.9574   20.9992 N   0  0  0  0  0  0  0  0  0  0  0  0
    9.7702  -17.3737   23.3302 C   0  0  0  0  0  0  0  0  0  0  0  0
   10.6717  -16.5116   23.4690 O   0  0  0  0  0  0  0  0  0  0  0  0
    8.9909  -17.7278   24.4597 N   0  0  0  0  0  0  0  0  0  0  0  0
    9.1774  -16.9822   25.7000 C   0  0  1  0  0  0  0  0  0  0  0  0
    7.8641  -16.5909   26.2987 C   0  0  0  0  0  0  0  0  0  0  0  0
    7.3368  -15.3923   25.6424 C   0  0  0  0  0  0  0  0  0  0  0  0
    7.9795  -14.5989   24.7236 C   0  0  0  0  0  0  0  0  0  0  0  0
    7.1359  -13.5717   24.3958 N   0  0  0  0  0  0  0  0  0  0  0  0
    6.0043  -13.7256   25.0920 C   0  0  0  0  0  0  0  0  0  0  0  0
    6.1309  -14.8266   25.8433 N   0  0  0  0  0  0  0  0  0  0  0  0
   10.0161  -17.7537   26.6199 C   0  0  0  0  0  0  0  0  0  0  0  0
   10.3603  -18.9322   26.3247 O   0  0  0  0  0  0  0  0  0  0  0  0
   10.4607  -17.2516   27.8125 O   0  0  0  0  0  0  0  0  0  0  0  0
  1  2  1  0
  2  3  1  0
  3  5  1  0
  3  4  1  6
  5  7  1  0
  5  6  1  6
  7  8  2  0
  7 11  1  0
 10  9  1  6
 11 10  1  0
 12 14  1  0
 12 10  1  0
 13 12  2  0
 15 14  1  0
 15 22  1  0
 15 16  1  1
 16 17  1  0
 17 18  2  0
 18 19  1  0
 20 19  1  0
 21 17  1  0
 21 20  2  0
 22 24  1  0
 23 22  2  0
M  END
$$$$
