IAH.pdb
     RDKit          3D

 24 24  0  0  1  0  0  0  0  0999 V2000
    7.7631  -11.7412   26.8105 C   0  0  0  0  0  0  0  0  0  0  0  0
    7.0575  -13.0632   26.9057 C   0  0  0  0  0  0  0  0  0  0  0  0
    7.4097  -14.0259   25.7976 C   0  0  2  0  0  0  0  0  0  0  0  0
    7.2005  -13.4343   24.4228 C   0  0  0  0  0  0  0  0  0  0  0  0
    6.7333  -15.3579   25.9346 C   0  0  2  0  0  0  0  0  0  0  0  0
    6.8504  -15.9304   27.2439 N   0  0  0  0  0  0  0  0  0  0  0  0
    7.2552  -16.3022   24.9283 C   0  0  0  0  0  0  0  0  0  0  0  0
    8.2436  -17.0109   25.2039 O   0  0  0  0  0  0  0  0  0  0  0  0
    5.8374  -17.5820   21.6618 C   0  0  0  0  0  0  0  0  0  0  0  0
    6.9090  -17.4077   22.6957 C   0  0  2  0  0  0  0  0  0  0  0  0
    6.6309  -16.3957   23.6618 N   0  0  0  0  0  0  0  0  0  0  0  0
    8.1999  -17.0972   22.0264 C   0  0  0  0  0  0  0  0  0  0  0  0
    8.6417  -17.8967   21.1656 O   0  0  0  0  0  0  0  0  0  0  0  0
    8.9534  -15.9337   22.3211 N   0  0  0  0  0  0  0  0  0  0  0  0
   10.1911  -15.6967   21.5856 C   0  0  1  0  0  0  0  0  0  0  0  0
   10.2626  -14.2888   21.0864 C   0  0  0  0  0  0  0  0  0  0  0  0
    9.3122  -14.0831   19.9910 C   0  0  0  0  0  0  0  0  0  0  0  0
    8.6196  -15.0482   19.3013 C   0  0  0  0  0  0  0  0  0  0  0  0
    7.8699  -14.4202   18.3433 N   0  0  0  0  0  0  0  0  0  0  0  0
    8.0926  -13.1048   18.4379 C   0  0  0  0  0  0  0  0  0  0  0  0
    8.9644  -12.9066   19.4346 N   0  0  0  0  0  0  0  0  0  0  0  0
   11.3391  -16.0659   22.4165 C   0  0  0  0  0  0  0  0  0  0  0  0
   11.1565  -16.5600   23.5641 O   0  0  0  0  0  0  0  0  0  0  0  0
   12.6334  -15.9025   22.0038 O   0  0  0  0  0  0  0  0  0  0  0  0
  1  2  1  0
  2  3  1  0
  3  5  1  0
  3  4  1  6
  5  7  1  0
  5  6  1  1
  7  8  2  0
  7 11  1  0
 10  9  1  6
 11 10  1  0
 12 14  1  0
 12 10  1  0
 13 12  2  0
 15 14  1  0
 15 22  1  0
 15 16  1  1
 16 17  1  0
 17 18  2  0
 18 19  1  0
 20 19  1  0
 21 17  1  0
 21 20  2  0
 22 24  1  0
 23 22  2  0
M  END
$$$$
