LQH.pdb
     RDKit          3D

 28 28  0  0  1  0  0  0  0  0999 V2000
   20.7257  -15.5498    2.1301 C   0  0  0  0  0  0  0  0  0  0  0  0
   19.8497  -16.3590    1.2266 C   0  0  1  0  0  0  0  0  0  0  0  0
   20.3838  -16.4017   -0.1977 C   0  0  0  0  0  0  0  0  0  0  0  0
   19.7454  -17.7623    1.7139 C   0  0  0  0  0  0  0  0  0  0  0  0
   18.3529  -18.0933    2.1821 C   0  0  2  0  0  0  0  0  0  0  0  0
   17.3387  -17.4115    1.4466 N   0  0  0  0  0  0  0  0  0  0  0  0
   18.2987  -17.8154    3.6398 C   0  0  0  0  0  0  0  0  0  0  0  0
   19.2936  -17.2703    4.1776 O   0  0  0  0  0  0  0  0  0  0  0  0
   14.1678  -14.9858    6.4425 N   0  0  0  0  0  0  0  0  0  0  0  0
   14.9595  -15.2117    7.5713 C   0  0  0  0  0  0  0  0  0  0  0  0
   14.7888  -14.5977    8.6358 O   0  0  0  0  0  0  0  0  0  0  0  0
   16.0575  -16.2455    7.4706 C   0  0  0  0  0  0  0  0  0  0  0  0
   16.0883  -16.7288    6.0558 C   0  0  0  0  0  0  0  0  0  0  0  0
   17.1986  -17.7346    5.8518 C   0  0  2  0  0  0  0  0  0  0  0  0
   17.1847  -18.1374    4.4310 N   0  0  0  0  0  0  0  0  0  0  0  0
   16.9329  -18.9566    6.6118 C   0  0  0  0  0  0  0  0  0  0  0  0
   16.4343  -20.0034    6.0729 O   0  0  0  0  0  0  0  0  0  0  0  0
   17.2284  -19.0381    7.9984 N   0  0  0  0  0  0  0  0  0  0  0  0
   17.5387  -20.3489    8.5890 C   0  0  1  0  0  0  0  0  0  0  0  0
   18.7267  -20.8586    7.7882 C   0  0  0  0  0  0  0  0  0  0  0  0
   18.3942  -22.0931    7.0310 C   0  0  0  0  0  0  0  0  0  0  0  0
   17.1858  -22.7634    6.9617 C   0  0  0  0  0  0  0  0  0  0  0  0
   17.2974  -23.8386    6.1689 N   0  0  0  0  0  0  0  0  0  0  0  0
   18.5621  -23.8724    5.7246 C   0  0  0  0  0  0  0  0  0  0  0  0
   19.2286  -22.8094    6.2502 N   0  0  0  0  0  0  0  0  0  0  0  0
   17.8262  -20.2247   10.0083 C   0  0  0  0  0  0  0  0  0  0  0  0
   18.1588  -19.1004   10.4644 O   0  0  0  0  0  0  0  0  0  0  0  0
   17.7562  -21.2760   10.9004 O   0  0  0  0  0  0  0  0  0  0  0  0
  2  1  1  1
  2  4  1  0
  3  2  1  0
  5  6  1  6
  5  4  1  0
  7  5  1  0
  8  7  2  0
  9 10  1  0
 10 12  1  0
 11 10  2  0
 12 13  1  0
 14 13  1  6
 14 15  1  0
 15  7  1  0
 16 14  1  0
 16 17  2  0
 18 16  1  0
 19 20  1  6
 19 18  1  0
 20 21  1  0
 21 22  2  0
 21 25  1  0
 22 23  1  0
 23 24  1  0
 25 24  2  0
 26 19  1  0
 27 26  2  0
 28 26  1  0
M  END
$$$$
