LQH.pdb
     RDKit          3D

 28 28  0  0  1  0  0  0  0  0999 V2000
   27.9192  -21.2398   -9.9916 C   0  0  0  0  0  0  0  0  0  0  0  0
   26.4721  -21.0114  -10.2952 C   0  0  1  0  0  0  0  0  0  0  0  0
   25.9365  -19.7610   -9.6130 C   0  0  0  0  0  0  0  0  0  0  0  0
   26.2608  -20.8541  -11.7608 C   0  0  0  0  0  0  0  0  0  0  0  0
   24.8003  -20.7400  -12.1098 C   0  0  2  0  0  0  0  0  0  0  0  0
   23.9680  -21.5832  -11.3157 N   0  0  0  0  0  0  0  0  0  0  0  0
   24.6718  -21.0026  -13.5657 C   0  0  0  0  0  0  0  0  0  0  0  0
   25.3232  -20.2800  -14.3591 O   0  0  0  0  0  0  0  0  0  0  0  0
   25.6577  -25.8454  -16.1021 N   0  0  0  0  0  0  0  0  0  0  0  0
   26.5188  -24.7497  -16.2016 C   0  0  0  0  0  0  0  0  0  0  0  0
   27.7441  -24.8792  -16.3475 O   0  0  0  0  0  0  0  0  0  0  0  0
   25.9155  -23.3660  -16.1263 C   0  0  0  0  0  0  0  0  0  0  0  0
   24.4515  -23.5298  -15.8691 C   0  0  0  0  0  0  0  0  0  0  0  0
   23.8068  -22.2006  -15.5472 C   0  0  2  0  0  0  0  0  0  0  0  0
   23.8551  -22.0209  -14.0821 N   0  0  0  0  0  0  0  0  0  0  0  0
   22.3859  -22.2191  -15.8967 C   0  0  0  0  0  0  0  0  0  0  0  0
   21.9764  -22.4392  -17.0877 O   0  0  0  0  0  0  0  0  0  0  0  0
   21.3849  -21.9986  -14.9137 N   0  0  0  0  0  0  0  0  0  0  0  0
   19.9712  -21.9922  -15.3197 C   0  0  1  0  0  0  0  0  0  0  0  0
   19.2410  -22.6795  -14.1766 C   0  0  0  0  0  0  0  0  0  0  0  0
   19.1435  -21.8061  -12.9784 C   0  0  0  0  0  0  0  0  0  0  0  0
   19.8451  -20.6475  -12.6961 C   0  0  0  0  0  0  0  0  0  0  0  0
   19.4656  -20.1541  -11.5088 N   0  0  0  0  0  0  0  0  0  0  0  0
   18.5279  -20.9784  -11.0197 C   0  0  0  0  0  0  0  0  0  0  0  0
   18.3328  -21.9836  -11.9153 N   0  0  0  0  0  0  0  0  0  0  0  0
   19.5037  -20.6360  -15.5540 C   0  0  0  0  0  0  0  0  0  0  0  0
   20.3111  -19.6820  -15.4100 O   0  0  0  0  0  0  0  0  0  0  0  0
   18.2127  -20.3236  -15.9302 O   0  0  0  0  0  0  0  0  0  0  0  0
  2  1  1  6
  2  4  1  0
  3  2  1  0
  5  6  1  1
  5  4  1  0
  7  5  1  0
  8  7  2  0
  9 10  1  0
 10 12  1  0
 11 10  2  0
 12 13  1  0
 14 13  1  1
 14 15  1  0
 15  7  1  0
 16 14  1  0
 16 17  2  0
 18 16  1  0
 19 20  1  1
 19 18  1  0
 20 21  1  0
 21 22  2  0
 21 25  1  0
 22 23  1  0
 23 24  1  0
 25 24  2  0
 26 19  1  0
 27 26  2  0
 28 26  1  0
M  END
$$$$
