LQH.pdb
     RDKit          3D

 28 28  0  0  1  0  0  0  0  0999 V2000
   26.8425  -16.1064  -19.1583 C   0  0  0  0  0  0  0  0  0  0  0  0
   27.6948  -16.7055  -18.0844 C   0  0  1  0  0  0  0  0  0  0  0  0
   28.4138  -15.6421  -17.2671 C   0  0  0  0  0  0  0  0  0  0  0  0
   26.8680  -17.5154  -17.1474 C   0  0  0  0  0  0  0  0  0  0  0  0
   27.6843  -18.5641  -16.4392 C   0  0  2  0  0  0  0  0  0  0  0  0
   28.3518  -19.4519  -17.3340 N   0  0  0  0  0  0  0  0  0  0  0  0
   26.7789  -19.2654  -15.4938 C   0  0  0  0  0  0  0  0  0  0  0  0
   26.0007  -20.1369  -15.9530 O   0  0  0  0  0  0  0  0  0  0  0  0
   27.2088  -21.7776  -11.0658 N   0  0  0  0  0  0  0  0  0  0  0  0
   25.9380  -21.5194  -10.5460 C   0  0  0  0  0  0  0  0  0  0  0  0
   25.3356  -22.3336   -9.8295 O   0  0  0  0  0  0  0  0  0  0  0  0
   25.2918  -20.1947  -10.8810 C   0  0  0  0  0  0  0  0  0  0  0  0
   26.2078  -19.4746  -11.8183 C   0  0  0  0  0  0  0  0  0  0  0  0
   25.8695  -19.7937  -13.2570 C   0  0  2  0  0  0  0  0  0  0  0  0
   26.7623  -18.9911  -14.1172 N   0  0  0  0  0  0  0  0  0  0  0  0
   24.5112  -19.3530  -13.5768 C   0  0  0  0  0  0  0  0  0  0  0  0
   24.2387  -18.1425  -13.8854 O   0  0  0  0  0  0  0  0  0  0  0  0
   23.4219  -20.2642  -13.5664 N   0  0  0  0  0  0  0  0  0  0  0  0
   22.0740  -19.7731  -13.8910 C   0  0  1  0  0  0  0  0  0  0  0  0
   22.1101  -19.5165  -15.3894 C   0  0  0  0  0  0  0  0  0  0  0  0
   20.7813  -19.1057  -15.9121 C   0  0  0  0  0  0  0  0  0  0  0  0
   19.6125  -18.8723  -15.2094 C   0  0  0  0  0  0  0  0  0  0  0  0
   18.6298  -18.5186  -16.0497 N   0  0  0  0  0  0  0  0  0  0  0  0
   19.1477  -18.5202  -17.2866 C   0  0  0  0  0  0  0  0  0  0  0  0
   20.4574  -18.8777  -17.2014 N   0  0  0  0  0  0  0  0  0  0  0  0
   21.0613  -20.7430  -13.5087 C   0  0  0  0  0  0  0  0  0  0  0  0
   21.4282  -21.8733  -13.0958 O   0  0  0  0  0  0  0  0  0  0  0  0
   19.7037  -20.4996  -13.5698 O   0  0  0  0  0  0  0  0  0  0  0  0
  2  1  1  6
  2  4  1  0
  3  2  1  0
  5  6  1  6
  5  4  1  0
  7  5  1  0
  8  7  2  0
  9 10  1  0
 10 12  1  0
 11 10  2  0
 12 13  1  0
 14 13  1  1
 14 15  1  0
 15  7  1  0
 16 14  1  0
 16 17  2  0
 18 16  1  0
 19 20  1  6
 19 18  1  0
 20 21  1  0
 21 22  2  0
 21 25  1  0
 22 23  1  0
 23 24  1  0
 25 24  2  0
 26 19  1  0
 27 26  2  0
 28 26  1  0
M  END
$$$$
