LQH.pdb
     RDKit          3D

 28 28  0  0  1  0  0  0  0  0999 V2000
   25.4320  -14.1610  -17.6336 C   0  0  0  0  0  0  0  0  0  0  0  0
   24.2808  -14.2132  -16.6794 C   0  0  1  0  0  0  0  0  0  0  0  0
   24.6946  -13.8338  -15.2650 C   0  0  0  0  0  0  0  0  0  0  0  0
   23.2036  -13.2766  -17.1033 C   0  0  0  0  0  0  0  0  0  0  0  0
   21.9682  -13.4182  -16.2538 C   0  0  2  0  0  0  0  0  0  0  0  0
   21.4093  -14.7299  -16.2937 N   0  0  0  0  0  0  0  0  0  0  0  0
   21.0123  -12.3668  -16.6849 C   0  0  0  0  0  0  0  0  0  0  0  0
   20.7644  -12.2562  -17.9106 O   0  0  0  0  0  0  0  0  0  0  0  0
   15.6022  -11.9689  -15.9554 N   0  0  0  0  0  0  0  0  0  0  0  0
   16.3128  -11.9216  -14.7534 C   0  0  0  0  0  0  0  0  0  0  0  0
   15.7960  -12.2155  -13.6644 O   0  0  0  0  0  0  0  0  0  0  0  0
   17.7617  -11.4944  -14.8039 C   0  0  0  0  0  0  0  0  0  0  0  0
   18.0482  -11.0491  -16.2024 C   0  0  0  0  0  0  0  0  0  0  0  0
   19.4480  -10.4889  -16.3157 C   0  0  2  0  0  0  0  0  0  0  0  0
   20.3814  -11.4997  -15.7789 N   0  0  0  0  0  0  0  0  0  0  0  0
   19.6032   -9.3129  -15.4588 C   0  0  0  0  0  0  0  0  0  0  0  0
   20.3289   -9.3235  -14.4062 O   0  0  0  0  0  0  0  0  0  0  0  0
   18.9524   -8.0887  -15.7667 N   0  0  0  0  0  0  0  0  0  0  0  0
   19.4484   -6.8422  -15.1638 C   0  0  1  0  0  0  0  0  0  0  0  0
   20.8969   -6.7472  -15.6168 C   0  0  0  0  0  0  0  0  0  0  0  0
   21.5260   -5.4696  -15.1929 C   0  0  0  0  0  0  0  0  0  0  0  0
   21.4158   -4.8149  -13.9790 C   0  0  0  0  0  0  0  0  0  0  0  0
   22.1401   -3.6870  -13.9938 N   0  0  0  0  0  0  0  0  0  0  0  0
   22.7172   -3.6037  -15.2013 C   0  0  0  0  0  0  0  0  0  0  0  0
   22.3426   -4.6894  -15.9302 N   0  0  0  0  0  0  0  0  0  0  0  0
   18.6485   -5.7053  -15.5880 C   0  0  0  0  0  0  0  0  0  0  0  0
   18.4300   -4.7767  -14.7678 O   0  0  0  0  0  0  0  0  0  0  0  0
   18.1061   -5.5770  -16.8510 O   0  0  0  0  0  0  0  0  0  0  0  0
  2  1  1  6
  2  4  1  0
  3  2  1  0
  5  6  1  6
  5  4  1  0
  7  5  1  0
  8  7  2  0
  9 10  1  0
 10 12  1  0
 11 10  2  0
 12 13  1  0
 14 13  1  1
 14 15  1  0
 15  7  1  0
 16 14  1  0
 16 17  2  0
 18 16  1  0
 19 20  1  6
 19 18  1  0
 20 21  1  0
 21 22  2  0
 21 25  1  0
 22 23  1  0
 23 24  1  0
 25 24  2  0
 26 19  1  0
 27 26  2  0
 28 26  1  0
M  END
$$$$
