LQH.pdb
     RDKit          3D

 28 28  0  0  1  0  0  0  0  0999 V2000
   27.8322  -17.2641  -16.9709 C   0  0  0  0  0  0  0  0  0  0  0  0
   27.4568  -18.2386  -18.0424 C   0  0  1  0  0  0  0  0  0  0  0  0
   28.6594  -18.6673  -18.8704 C   0  0  0  0  0  0  0  0  0  0  0  0
   26.8537  -19.4646  -17.4503 C   0  0  0  0  0  0  0  0  0  0  0  0
   27.6938  -20.0207  -16.3309 C   0  0  2  0  0  0  0  0  0  0  0  0
   28.6314  -21.0020  -16.7696 N   0  0  0  0  0  0  0  0  0  0  0  0
   26.7639  -20.5304  -15.2914 C   0  0  0  0  0  0  0  0  0  0  0  0
   26.3531  -21.7126  -15.3905 O   0  0  0  0  0  0  0  0  0  0  0  0
   26.9676  -21.5512  -10.3757 N   0  0  0  0  0  0  0  0  0  0  0  0
   25.6311  -21.3256  -10.0366 C   0  0  0  0  0  0  0  0  0  0  0  0
   25.0519  -21.9741   -9.1517 O   0  0  0  0  0  0  0  0  0  0  0  0
   24.8825  -20.2482  -10.7871 C   0  0  0  0  0  0  0  0  0  0  0  0
   25.7910  -19.7362  -11.8590 C   0  0  0  0  0  0  0  0  0  0  0  0
   25.4700  -20.3754  -13.1910 C   0  0  2  0  0  0  0  0  0  0  0  0
   26.3317  -19.7448  -14.2113 N   0  0  0  0  0  0  0  0  0  0  0  0
   24.0957  -20.0707  -13.5910 C   0  0  0  0  0  0  0  0  0  0  0  0
   23.6974  -18.8772  -13.8186 O   0  0  0  0  0  0  0  0  0  0  0  0
   23.1326  -21.1015  -13.7541 N   0  0  0  0  0  0  0  0  0  0  0  0
   21.7406  -20.7392  -14.0616 C   0  0  1  0  0  0  0  0  0  0  0  0
   21.1385  -22.0021  -14.6574 C   0  0  0  0  0  0  0  0  0  0  0  0
   21.1123  -21.9547  -16.1423 C   0  0  0  0  0  0  0  0  0  0  0  0
   21.3758  -20.8823  -16.9759 C   0  0  0  0  0  0  0  0  0  0  0  0
   21.2444  -21.2496  -18.2584 N   0  0  0  0  0  0  0  0  0  0  0  0
   20.8994  -22.5453  -18.2652 C   0  0  0  0  0  0  0  0  0  0  0  0
   20.8193  -22.9733  -16.9764 N   0  0  0  0  0  0  0  0  0  0  0  0
   21.0441  -20.2909  -12.8673 C   0  0  0  0  0  0  0  0  0  0  0  0
   20.0529  -19.5265  -12.9934 O   0  0  0  0  0  0  0  0  0  0  0  0
   21.4054  -20.6556  -11.5857 O   0  0  0  0  0  0  0  0  0  0  0  0
  2  1  1  1
  2  4  1  0
  3  2  1  0
  5  6  1  6
  5  4  1  0
  7  5  1  0
  8  7  2  0
  9 10  1  0
 10 12  1  0
 11 10  2  0
 12 13  1  0
 14 13  1  1
 14 15  1  0
 15  7  1  0
 16 14  1  0
 16 17  2  0
 18 16  1  0
 19 20  1  1
 19 18  1  0
 20 21  1  0
 21 22  2  0
 21 25  1  0
 22 23  1  0
 23 24  1  0
 25 24  2  0
 26 19  1  0
 27 26  2  0
 28 26  1  0
M  END
$$$$
