LQH.pdb
     RDKit          3D

 28 28  0  0  1  0  0  0  0  0999 V2000
   19.3048  -34.4300  -14.1930 C   0  0  0  0  0  0  0  0  0  0  0  0
   20.5214  -35.1555  -13.7113 C   0  0  1  0  0  0  0  0  0  0  0  0
   21.7962  -34.3656  -13.9695 C   0  0  0  0  0  0  0  0  0  0  0  0
   20.4355  -35.4118  -12.2470 C   0  0  0  0  0  0  0  0  0  0  0  0
   21.5822  -36.2549  -11.7550 C   0  0  2  0  0  0  0  0  0  0  0  0
   21.6733  -37.5155  -12.4159 N   0  0  0  0  0  0  0  0  0  0  0  0
   21.4384  -36.3808  -10.2823 C   0  0  0  0  0  0  0  0  0  0  0  0
   20.4525  -37.0158   -9.8342 O   0  0  0  0  0  0  0  0  0  0  0  0
   24.6623  -38.2626   -6.6928 N   0  0  0  0  0  0  0  0  0  0  0  0
   23.5688  -38.4323   -5.8398 C   0  0  0  0  0  0  0  0  0  0  0  0
   23.6849  -38.8992   -4.6962 O   0  0  0  0  0  0  0  0  0  0  0  0
   22.2046  -38.0261   -6.3481 C   0  0  0  0  0  0  0  0  0  0  0  0
   22.3618  -37.6268   -7.7806 C   0  0  0  0  0  0  0  0  0  0  0  0
   22.2054  -36.1320   -7.9457 C   0  0  2  0  0  0  0  0  0  0  0  0
   22.3574  -35.8202   -9.3813 N   0  0  0  0  0  0  0  0  0  0  0  0
   23.2922  -35.4225   -7.2698 C   0  0  0  0  0  0  0  0  0  0  0  0
   24.5127  -35.5314   -7.6351 O   0  0  0  0  0  0  0  0  0  0  0  0
   23.0353  -34.5635   -6.1685 N   0  0  0  0  0  0  0  0  0  0  0  0
   24.1643  -33.9004   -5.4984 C   0  0  1  0  0  0  0  0  0  0  0  0
   23.7621  -32.4356   -5.4286 C   0  0  0  0  0  0  0  0  0  0  0  0
   23.9165  -31.7568   -6.7413 C   0  0  0  0  0  0  0  0  0  0  0  0
   24.3557  -32.2882   -7.9408 C   0  0  0  0  0  0  0  0  0  0  0  0
   24.3515  -31.3457   -8.8940 N   0  0  0  0  0  0  0  0  0  0  0  0
   23.9155  -30.2117   -8.3266 C   0  0  0  0  0  0  0  0  0  0  0  0
   23.6511  -30.4634   -7.0162 N   0  0  0  0  0  0  0  0  0  0  0  0
   24.4062  -34.4825   -4.1887 C   0  0  0  0  0  0  0  0  0  0  0  0
   23.4859  -35.1390   -3.6367 O   0  0  0  0  0  0  0  0  0  0  0  0
   25.5979  -34.3599   -3.5026 O   0  0  0  0  0  0  0  0  0  0  0  0
  2  1  1  1
  2  4  1  0
  3  2  1  0
  5  6  1  6
  5  4  1  0
  7  5  1  0
  8  7  2  0
  9 10  1  0
 10 12  1  0
 11 10  2  0
 12 13  1  0
 14 13  1  6
 14 15  1  0
 15  7  1  0
 16 14  1  0
 16 17  2  0
 18 16  1  0
 19 20  1  1
 19 18  1  0
 20 21  1  0
 21 22  2  0
 21 25  1  0
 22 23  1  0
 23 24  1  0
 25 24  2  0
 26 19  1  0
 27 26  2  0
 28 26  1  0
M  END
$$$$
