LQH.pdb
     RDKit          3D

 28 28  0  0  1  0  0  0  0  0999 V2000
   29.7255  -20.5907  -19.6760 C   0  0  0  0  0  0  0  0  0  0  0  0
   28.8314  -21.3645  -18.7592 C   0  0  1  0  0  0  0  0  0  0  0  0
   29.1860  -22.8441  -18.7314 C   0  0  0  0  0  0  0  0  0  0  0  0
   28.9326  -20.8478  -17.3663 C   0  0  0  0  0  0  0  0  0  0  0  0
   28.0720  -21.6321  -16.4113 C   0  0  2  0  0  0  0  0  0  0  0  0
   27.9545  -23.0087  -16.7658 N   0  0  0  0  0  0  0  0  0  0  0  0
   26.7606  -20.9404  -16.3277 C   0  0  0  0  0  0  0  0  0  0  0  0
   26.7525  -19.7131  -16.0637 O   0  0  0  0  0  0  0  0  0  0  0  0
   22.2088  -21.3122  -19.9787 N   0  0  0  0  0  0  0  0  0  0  0  0
   21.6335  -20.3860  -19.1052 C   0  0  0  0  0  0  0  0  0  0  0  0
   20.5994  -19.7609  -19.3870 O   0  0  0  0  0  0  0  0  0  0  0  0
   22.3110  -20.1520  -17.7745 C   0  0  0  0  0  0  0  0  0  0  0  0
   23.5482  -20.9915  -17.7489 C   0  0  0  0  0  0  0  0  0  0  0  0
   24.2948  -20.8150  -16.4461 C   0  0  2  0  0  0  0  0  0  0  0  0
   25.5404  -21.6039  -16.5315 N   0  0  0  0  0  0  0  0  0  0  0  0
   23.5366  -21.3922  -15.3355 C   0  0  0  0  0  0  0  0  0  0  0  0
   24.0098  -22.3178  -14.5911 O   0  0  0  0  0  0  0  0  0  0  0  0
   22.2271  -20.9382  -15.0258 N   0  0  0  0  0  0  0  0  0  0  0  0
   21.8094  -20.8625  -13.6176 C   0  0  1  0  0  0  0  0  0  0  0  0
   22.7232  -19.8143  -13.0025 C   0  0  0  0  0  0  0  0  0  0  0  0
   23.7190  -20.4209  -12.0815 C   0  0  0  0  0  0  0  0  0  0  0  0
   23.9392  -21.7595  -11.8096 C   0  0  0  0  0  0  0  0  0  0  0  0
   24.9316  -21.8938  -10.9185 N   0  0  0  0  0  0  0  0  0  0  0  0
   25.3561  -20.6597  -10.6106 C   0  0  0  0  0  0  0  0  0  0  0  0
   24.6171  -19.7640  -11.3193 N   0  0  0  0  0  0  0  0  0  0  0  0
   20.4016  -20.5170  -13.5107 C   0  0  0  0  0  0  0  0  0  0  0  0
   19.7432  -20.9489  -12.5297 O   0  0  0  0  0  0  0  0  0  0  0  0
   19.7318  -19.7338  -14.4294 O   0  0  0  0  0  0  0  0  0  0  0  0
  2  1  1  6
  2  4  1  0
  3  2  1  0
  5  6  1  6
  5  4  1  0
  7  5  1  0
  8  7  2  0
  9 10  1  0
 10 12  1  0
 11 10  2  0
 12 13  1  0
 14 13  1  6
 14 15  1  0
 15  7  1  0
 16 14  1  0
 16 17  2  0
 18 16  1  0
 19 20  1  1
 19 18  1  0
 20 21  1  0
 21 22  2  0
 21 25  1  0
 22 23  1  0
 23 24  1  0
 25 24  2  0
 26 19  1  0
 27 26  2  0
 28 26  1  0
M  END
$$$$
