LQH.pdb
     RDKit          3D

 28 28  0  0  1  0  0  0  0  0999 V2000
   16.6467  -12.8187  -12.1868 C   0  0  0  0  0  0  0  0  0  0  0  0
   15.8710  -12.3439  -10.9987 C   0  0  1  0  0  0  0  0  0  0  0  0
   16.4553  -12.8610   -9.6922 C   0  0  0  0  0  0  0  0  0  0  0  0
   15.8649  -10.8562  -10.9352 C   0  0  0  0  0  0  0  0  0  0  0  0
   14.7417  -10.3341  -10.0786 C   0  0  2  0  0  0  0  0  0  0  0  0
   13.4674  -10.8588  -10.4466 N   0  0  0  0  0  0  0  0  0  0  0  0
   14.7964   -8.8512  -10.1333 C   0  0  0  0  0  0  0  0  0  0  0  0
   14.4399   -8.2826  -11.1943 O   0  0  0  0  0  0  0  0  0  0  0  0
   13.4881   -5.0178   -5.8579 N   0  0  0  0  0  0  0  0  0  0  0  0
   14.0258   -4.0484   -6.7082 C   0  0  0  0  0  0  0  0  0  0  0  0
   13.8685   -2.8332   -6.5135 O   0  0  0  0  0  0  0  0  0  0  0  0
   14.8243   -4.5184   -7.9024 C   0  0  0  0  0  0  0  0  0  0  0  0
   14.8919   -6.0108   -7.8358 C   0  0  0  0  0  0  0  0  0  0  0  0
   15.1959   -6.5997   -9.1948 C   0  0  2  0  0  0  0  0  0  0  0  0
   15.2287   -8.0691   -9.0506 N   0  0  0  0  0  0  0  0  0  0  0  0
   16.5378   -6.2155   -9.6343 C   0  0  0  0  0  0  0  0  0  0  0  0
   17.5806   -6.4438   -8.9305 O   0  0  0  0  0  0  0  0  0  0  0  0
   16.7452   -5.5707  -10.8825 N   0  0  0  0  0  0  0  0  0  0  0  0
   18.1203   -5.3058  -11.3323 C   0  0  1  0  0  0  0  0  0  0  0  0
   18.5308   -6.5680  -12.0742 C   0  0  0  0  0  0  0  0  0  0  0  0
   19.8211   -6.3935  -12.7902 C   0  0  0  0  0  0  0  0  0  0  0  0
   20.6441   -5.2820  -12.8263 C   0  0  0  0  0  0  0  0  0  0  0  0
   21.7200   -5.5269  -13.5876 N   0  0  0  0  0  0  0  0  0  0  0  0
   21.6035   -6.7822  -14.0443 C   0  0  0  0  0  0  0  0  0  0  0  0
   20.4471   -7.3086  -13.5582 N   0  0  0  0  0  0  0  0  0  0  0  0
   18.1744   -4.1173  -12.1672 C   0  0  0  0  0  0  0  0  0  0  0  0
   17.0993   -3.6366  -12.6096 O   0  0  0  0  0  0  0  0  0  0  0  0
   19.3462   -3.4729  -12.5101 O   0  0  0  0  0  0  0  0  0  0  0  0
  2  1  1  6
  2  4  1  0
  3  2  1  0
  5  6  1  6
  5  4  1  0
  7  5  1  0
  8  7  2  0
  9 10  1  0
 10 12  1  0
 11 10  2  0
 12 13  1  0
 14 13  1  1
 14 15  1  0
 15  7  1  0
 16 14  1  0
 16 17  2  0
 18 16  1  0
 19 20  1  6
 19 18  1  0
 20 21  1  0
 21 22  2  0
 21 25  1  0
 22 23  1  0
 23 24  1  0
 25 24  2  0
 26 19  1  0
 27 26  2  0
 28 26  1  0
M  END
$$$$
