LQH.pdb
     RDKit          3D

 28 28  0  0  1  0  0  0  0  0999 V2000
   26.0685  -24.5932  -15.6819 C   0  0  0  0  0  0  0  0  0  0  0  0
   26.2850  -23.3332  -14.9046 C   0  0  1  0  0  0  0  0  0  0  0  0
   27.1128  -22.3193  -15.6808 C   0  0  0  0  0  0  0  0  0  0  0  0
   24.9834  -22.6931  -14.5676 C   0  0  0  0  0  0  0  0  0  0  0  0
   25.1661  -21.4483  -13.7400 C   0  0  2  0  0  0  0  0  0  0  0  0
   25.6063  -21.7201  -12.4107 N   0  0  0  0  0  0  0  0  0  0  0  0
   23.8868  -20.6957  -13.7850 C   0  0  0  0  0  0  0  0  0  0  0  0
   23.0786  -20.8411  -12.8354 O   0  0  0  0  0  0  0  0  0  0  0  0
   22.3078  -15.9446  -17.3645 N   0  0  0  0  0  0  0  0  0  0  0  0
   21.0487  -16.1996  -16.8155 C   0  0  0  0  0  0  0  0  0  0  0  0
   20.0608  -15.4906  -17.0618 O   0  0  0  0  0  0  0  0  0  0  0  0
   20.9067  -17.3868  -15.8908 C   0  0  0  0  0  0  0  0  0  0  0  0
   22.2396  -18.0611  -15.8209 C   0  0  0  0  0  0  0  0  0  0  0  0
   22.2166  -19.2035  -14.8308 C   0  0  2  0  0  0  0  0  0  0  0  0
   23.5516  -19.8350  -14.8421 N   0  0  0  0  0  0  0  0  0  0  0  0
   21.2836  -20.2436  -15.2658 C   0  0  0  0  0  0  0  0  0  0  0  0
   21.6725  -21.3094  -15.8553 O   0  0  0  0  0  0  0  0  0  0  0  0
   19.8868  -20.1174  -15.0422 N   0  0  0  0  0  0  0  0  0  0  0  0
   19.0369  -21.3150  -15.1255 C   0  0  1  0  0  0  0  0  0  0  0  0
   19.5485  -22.2257  -14.0204 C   0  0  0  0  0  0  0  0  0  0  0  0
   18.7610  -23.4826  -13.9311 C   0  0  0  0  0  0  0  0  0  0  0  0
   18.8277  -24.6017  -14.7420 C   0  0  0  0  0  0  0  0  0  0  0  0
   17.9490  -25.5259  -14.3288 N   0  0  0  0  0  0  0  0  0  0  0  0
   17.3150  -25.0192  -13.2614 C   0  0  0  0  0  0  0  0  0  0  0  0
   17.8103  -23.7753  -13.0204 N   0  0  0  0  0  0  0  0  0  0  0  0
   17.6341  -20.9689  -14.9678 C   0  0  0  0  0  0  0  0  0  0  0  0
   16.7828  -21.8937  -14.9144 O   0  0  0  0  0  0  0  0  0  0  0  0
   17.1697  -19.6724  -14.8709 O   0  0  0  0  0  0  0  0  0  0  0  0
  2  1  1  6
  2  4  1  0
  3  2  1  0
  5  6  1  1
  5  4  1  0
  7  5  1  0
  8  7  2  0
  9 10  1  0
 10 12  1  0
 11 10  2  0
 12 13  1  0
 14 13  1  6
 14 15  1  0
 15  7  1  0
 16 14  1  0
 16 17  2  0
 18 16  1  0
 19 20  1  1
 19 18  1  0
 20 21  1  0
 21 22  2  0
 21 25  1  0
 22 23  1  0
 23 24  1  0
 25 24  2  0
 26 19  1  0
 27 26  2  0
 28 26  1  0
M  END
$$$$
