LQH.pdb
     RDKit          3D

 28 28  0  0  1  0  0  0  0  0999 V2000
   29.2044  -21.2005   -9.1313 C   0  0  0  0  0  0  0  0  0  0  0  0
   27.7295  -20.9617   -9.2106 C   0  0  1  0  0  0  0  0  0  0  0  0
   27.2857  -19.8265   -8.2995 C   0  0  0  0  0  0  0  0  0  0  0  0
   27.3277  -20.6107  -10.6009 C   0  0  0  0  0  0  0  0  0  0  0  0
   25.8341  -20.4760  -10.7379 C   0  0  2  0  0  0  0  0  0  0  0  0
   25.1185  -21.5619  -10.1520 N   0  0  0  0  0  0  0  0  0  0  0  0
   25.5369  -20.2970  -12.1818 C   0  0  0  0  0  0  0  0  0  0  0  0
   25.9919  -19.2798  -12.7599 O   0  0  0  0  0  0  0  0  0  0  0  0
   26.7301  -23.7753  -16.4767 N   0  0  0  0  0  0  0  0  0  0  0  0
   26.0013  -22.8958  -17.2812 C   0  0  0  0  0  0  0  0  0  0  0  0
   26.0313  -22.9495  -18.5204 O   0  0  0  0  0  0  0  0  0  0  0  0
   25.1523  -21.8490  -16.5972 C   0  0  0  0  0  0  0  0  0  0  0  0
   25.3316  -22.0213  -15.1227 C   0  0  0  0  0  0  0  0  0  0  0  0
   24.5711  -20.9619  -14.3578 C   0  0  2  0  0  0  0  0  0  0  0  0
   24.7722  -21.2164  -12.9169 N   0  0  0  0  0  0  0  0  0  0  0  0
   23.1317  -21.0953  -14.5857 C   0  0  0  0  0  0  0  0  0  0  0  0
   22.4084  -21.9218  -13.9311 O   0  0  0  0  0  0  0  0  0  0  0  0
   22.4639  -20.2962  -15.5513 N   0  0  0  0  0  0  0  0  0  0  0  0
   21.0165  -20.4695  -15.7473 C   0  0  1  0  0  0  0  0  0  0  0  0
   20.4789  -19.0558  -15.9038 C   0  0  0  0  0  0  0  0  0  0  0  0
   20.1777  -18.4303  -14.5901 C   0  0  0  0  0  0  0  0  0  0  0  0
   20.2559  -18.9930  -13.3286 C   0  0  0  0  0  0  0  0  0  0  0  0
   19.8993  -18.0960  -12.3984 N   0  0  0  0  0  0  0  0  0  0  0  0
   19.5914  -16.9605  -13.0419 C   0  0  0  0  0  0  0  0  0  0  0  0
   19.7614  -17.1654  -14.3759 N   0  0  0  0  0  0  0  0  0  0  0  0
   20.7451  -21.3079  -16.9032 C   0  0  0  0  0  0  0  0  0  0  0  0
   19.5596  -21.6613  -17.1320 O   0  0  0  0  0  0  0  0  0  0  0  0
   21.7184  -21.7468  -17.7784 O   0  0  0  0  0  0  0  0  0  0  0  0
  2  1  1  6
  2  4  1  0
  3  2  1  0
  5  6  1  6
  5  4  1  0
  7  5  1  0
  8  7  2  0
  9 10  1  0
 10 12  1  0
 11 10  2  0
 12 13  1  0
 14 13  1  6
 14 15  1  0
 15  7  1  0
 16 14  1  0
 16 17  2  0
 18 16  1  0
 19 20  1  6
 19 18  1  0
 20 21  1  0
 21 22  2  0
 21 25  1  0
 22 23  1  0
 23 24  1  0
 25 24  2  0
 26 19  1  0
 27 26  2  0
 28 26  1  0
M  END
$$$$
