LQH.pdb
     RDKit          3D

 28 28  0  0  1  0  0  0  0  0999 V2000
  -28.8612  -43.8323    4.8281 C   0  0  0  0  0  0  0  0  0  0  0  0
  -27.5533  -44.2201    4.2136 C   0  0  1  0  0  0  0  0  0  0  0  0
  -27.7388  -44.9594    2.8965 C   0  0  0  0  0  0  0  0  0  0  0  0
  -26.7213  -43.0150    3.9437 C   0  0  0  0  0  0  0  0  0  0  0  0
  -26.2951  -42.3293    5.2150 C   0  0  2  0  0  0  0  0  0  0  0  0
  -27.2649  -42.4284    6.2561 N   0  0  0  0  0  0  0  0  0  0  0  0
  -25.9573  -40.9254    4.8683 C   0  0  0  0  0  0  0  0  0  0  0  0
  -26.8059  -40.2492    4.2369 O   0  0  0  0  0  0  0  0  0  0  0  0
  -25.6407  -40.0094    1.4941 N   0  0  0  0  0  0  0  0  0  0  0  0
  -25.6941  -39.8142    2.8765 C   0  0  0  0  0  0  0  0  0  0  0  0
  -25.1315  -40.5772    3.6770 O   0  0  0  0  0  0  0  0  0  0  0  0
  -26.4702  -38.6251    3.3942 C   0  0  0  0  0  0  0  0  0  0  0  0
  -25.9206  -38.2852    4.7428 C   0  0  0  0  0  0  0  0  0  0  0  0
  -24.5506  -38.8942    4.9378 C   0  0  2  0  0  0  0  0  0  0  0  0
  -24.7340  -40.3325    5.2183 N   0  0  0  0  0  0  0  0  0  0  0  0
  -23.9043  -38.3387    6.1275 C   0  0  0  0  0  0  0  0  0  0  0  0
  -24.4932  -37.5097    6.9027 O   0  0  0  0  0  0  0  0  0  0  0  0
  -22.5796  -38.7067    6.4831 N   0  0  0  0  0  0  0  0  0  0  0  0
  -22.0227  -38.2332    7.7595 C   0  0  1  0  0  0  0  0  0  0  0  0
  -21.5395  -36.8214    7.4666 C   0  0  0  0  0  0  0  0  0  0  0  0
  -20.0841  -36.6706    7.7248 C   0  0  0  0  0  0  0  0  0  0  0  0
  -19.0341  -36.7726    6.8296 C   0  0  0  0  0  0  0  0  0  0  0  0
  -17.8679  -36.5696    7.4586 N   0  0  0  0  0  0  0  0  0  0  0  0
  -18.1499  -36.3376    8.7488 C   0  0  0  0  0  0  0  0  0  0  0  0
  -19.4992  -36.3994    8.9095 N   0  0  0  0  0  0  0  0  0  0  0  0
  -23.0233  -38.2803    8.8127 C   0  0  0  0  0  0  0  0  0  0  0  0
  -22.7435  -37.7931    9.9383 O   0  0  0  0  0  0  0  0  0  0  0  0
  -24.2787  -38.8326    8.6544 O   0  0  0  0  0  0  0  0  0  0  0  0
  2  1  1  6
  2  4  1  0
  3  2  1  0
  5  6  1  1
  5  4  1  0
  7  5  1  0
  8  7  2  0
  9 10  1  0
 10 12  1  0
 11 10  2  0
 12 13  1  0
 14 13  1  1
 14 15  1  0
 15  7  1  0
 16 14  1  0
 16 17  2  0
 18 16  1  0
 19 20  1  6
 19 18  1  0
 20 21  1  0
 21 22  2  0
 21 25  1  0
 22 23  1  0
 23 24  1  0
 25 24  2  0
 26 19  1  0
 27 26  2  0
 28 26  1  0
M  END
$$$$
