LQH.pdb
     RDKit          3D

 28 28  0  0  1  0  0  0  0  0999 V2000
   18.8537  -15.7455  -17.6977 C   0  0  0  0  0  0  0  0  0  0  0  0
   19.7904  -14.8427  -18.4365 C   0  0  1  0  0  0  0  0  0  0  0  0
   19.0803  -14.0515  -19.5253 C   0  0  0  0  0  0  0  0  0  0  0  0
   20.4232  -13.8669  -17.5065 C   0  0  0  0  0  0  0  0  0  0  0  0
   21.3666  -12.9372  -18.2229 C   0  0  2  0  0  0  0  0  0  0  0  0
   22.3958  -13.6230  -18.9335 N   0  0  0  0  0  0  0  0  0  0  0  0
   21.8944  -11.9811  -17.2166 C   0  0  0  0  0  0  0  0  0  0  0  0
   21.1451  -11.6445  -16.2673 O   0  0  0  0  0  0  0  0  0  0  0  0
   27.7647  -10.6012  -16.2722 N   0  0  0  0  0  0  0  0  0  0  0  0
   27.1889  -11.7422  -15.7078 C   0  0  0  0  0  0  0  0  0  0  0  0
   27.8701  -12.6668  -15.2383 O   0  0  0  0  0  0  0  0  0  0  0  0
   25.6806  -11.8334  -15.6782 C   0  0  0  0  0  0  0  0  0  0  0  0
   25.1440  -10.5385  -16.1993 C   0  0  0  0  0  0  0  0  0  0  0  0
   23.6320  -10.5429  -16.2057 C   0  0  2  0  0  0  0  0  0  0  0  0
   23.1898  -11.4449  -17.2883 N   0  0  0  0  0  0  0  0  0  0  0  0
   23.1144   -9.2200  -16.5571 C   0  0  0  0  0  0  0  0  0  0  0  0
   23.1008   -8.7874  -17.7602 O   0  0  0  0  0  0  0  0  0  0  0  0
   22.5896   -8.3495  -15.5653 N   0  0  0  0  0  0  0  0  0  0  0  0
   21.9938   -7.0697  -15.9781 C   0  0  1  0  0  0  0  0  0  0  0  0
   20.8722   -7.4579  -16.9287 C   0  0  0  0  0  0  0  0  0  0  0  0
   20.1444   -6.2678  -17.4402 C   0  0  0  0  0  0  0  0  0  0  0  0
   20.6237   -4.9864  -17.6467 C   0  0  0  0  0  0  0  0  0  0  0  0
   19.6484   -4.1979  -18.1200 N   0  0  0  0  0  0  0  0  0  0  0  0
   18.5447   -4.9524  -18.2224 C   0  0  0  0  0  0  0  0  0  0  0  0
   18.8480   -6.2122  -17.8083 N   0  0  0  0  0  0  0  0  0  0  0  0
   21.5228   -6.3197  -14.8256 C   0  0  0  0  0  0  0  0  0  0  0  0
   21.3127   -6.9324  -13.7471 O   0  0  0  0  0  0  0  0  0  0  0  0
   21.2887   -4.9592  -14.8387 O   0  0  0  0  0  0  0  0  0  0  0  0
  2  1  1  1
  2  4  1  0
  3  2  1  0
  5  6  1  1
  5  4  1  0
  7  5  1  0
  8  7  2  0
  9 10  1  0
 10 12  1  0
 11 10  2  0
 12 13  1  0
 14 13  1  6
 14 15  1  0
 15  7  1  0
 16 14  1  0
 16 17  2  0
 18 16  1  0
 19 20  1  6
 19 18  1  0
 20 21  1  0
 21 22  2  0
 21 25  1  0
 22 23  1  0
 23 24  1  0
 25 24  2  0
 26 19  1  0
 27 26  2  0
 28 26  1  0
M  END
$$$$
