LQH.pdb
     RDKit          3D

 28 28  0  0  1  0  0  0  0  0999 V2000
   20.4691  -11.5962    6.1420 C   0  0  0  0  0  0  0  0  0  0  0  0
   19.1233  -12.0449    5.6665 C   0  0  1  0  0  0  0  0  0  0  0  0
   19.0627  -12.1585    4.1502 C   0  0  0  0  0  0  0  0  0  0  0  0
   18.7825  -13.3783    6.2350 C   0  0  0  0  0  0  0  0  0  0  0  0
   17.4549  -13.8815    5.7329 C   0  0  2  0  0  0  0  0  0  0  0  0
   16.3542  -13.0858    6.1684 N   0  0  0  0  0  0  0  0  0  0  0  0
   17.3389  -15.3049    6.1399 C   0  0  0  0  0  0  0  0  0  0  0  0
   16.9957  -15.5587    7.3206 O   0  0  0  0  0  0  0  0  0  0  0  0
   17.1538  -20.1183    2.4060 N   0  0  0  0  0  0  0  0  0  0  0  0
   15.9727  -19.4505    2.7389 C   0  0  0  0  0  0  0  0  0  0  0  0
   14.9423  -19.5422    2.0539 O   0  0  0  0  0  0  0  0  0  0  0  0
   15.9717  -18.5909    3.9821 C   0  0  0  0  0  0  0  0  0  0  0  0
   17.3395  -18.6696    4.5813 C   0  0  0  0  0  0  0  0  0  0  0  0
   17.4623  -17.7460    5.7721 C   0  0  2  0  0  0  0  0  0  0  0  0
   17.5970  -16.3675    5.2596 N   0  0  0  0  0  0  0  0  0  0  0  0
   18.6976  -18.0164    6.5086 C   0  0  0  0  0  0  0  0  0  0  0  0
   19.7513  -17.3070    6.3625 O   0  0  0  0  0  0  0  0  0  0  0  0
   18.7797  -19.0882    7.4367 N   0  0  0  0  0  0  0  0  0  0  0  0
   20.0206  -19.2788    8.2031 C   0  0  1  0  0  0  0  0  0  0  0  0
   20.1914  -17.9852    8.9839 C   0  0  0  0  0  0  0  0  0  0  0  0
   21.3547  -18.0459    9.9064 C   0  0  0  0  0  0  0  0  0  0  0  0
   22.3334  -19.0195    9.9976 C   0  0  0  0  0  0  0  0  0  0  0  0
   23.2109  -18.7052   10.9611 N   0  0  0  0  0  0  0  0  0  0  0  0
   22.8125  -17.5410   11.4941 C   0  0  0  0  0  0  0  0  0  0  0  0
   21.6824  -17.1408   10.8512 N   0  0  0  0  0  0  0  0  0  0  0  0
   19.9272  -20.4481    9.0613 C   0  0  0  0  0  0  0  0  0  0  0  0
   18.7987  -20.7918    9.4985 O   0  0  0  0  0  0  0  0  0  0  0  0
   21.0124  -21.2167    9.4321 O   0  0  0  0  0  0  0  0  0  0  0  0
  2  1  1  6
  2  4  1  0
  3  2  1  0
  5  6  1  1
  5  4  1  0
  7  5  1  0
  8  7  2  0
  9 10  1  0
 10 12  1  0
 11 10  2  0
 12 13  1  0
 14 13  1  6
 14 15  1  0
 15  7  1  0
 16 14  1  0
 16 17  2  0
 18 16  1  0
 19 20  1  1
 19 18  1  0
 20 21  1  0
 21 22  2  0
 21 25  1  0
 22 23  1  0
 23 24  1  0
 25 24  2  0
 26 19  1  0
 27 26  2  0
 28 26  1  0
M  END
$$$$
