ELK.pdb
     RDKit          3D

 27 26  0  0  1  0  0  0  0  0999 V2000
    9.1937  -15.2723   20.7972 N   0  0  0  0  0  0  0  0  0  0  0  0
    8.4197  -15.9169   21.8801 C   0  0  1  0  0  0  0  0  0  0  0  0
    8.7898  -17.3769   21.8197 C   0  0  0  0  0  0  0  0  0  0  0  0
    9.1285  -17.8280   20.4432 C   0  0  0  0  0  0  0  0  0  0  0  0
    9.2405  -19.3372   20.5211 C   0  0  0  0  0  0  0  0  0  0  0  0
    8.2378  -20.0392   20.7906 O   0  0  0  0  0  0  0  0  0  0  0  0
    8.8384  -15.3688   23.1895 C   0  0  0  0  0  0  0  0  0  0  0  0
   10.0558  -15.2511   23.4456 O   0  0  0  0  0  0  0  0  0  0  0  0
   10.4508  -19.9544   20.2957 O   0  0  0  0  0  0  0  0  0  0  0  0
    7.8366  -11.5035   25.7109 C   0  0  0  0  0  0  0  0  0  0  0  0
    6.6616  -12.4699   25.4830 C   0  0  2  0  0  0  0  0  0  0  0  0
    5.4766  -11.7920   26.1200 C   0  0  0  0  0  0  0  0  0  0  0  0
    7.0560  -13.7591   26.1125 C   0  0  0  0  0  0  0  0  0  0  0  0
    8.1578  -14.5095   25.4479 C   0  0  2  0  0  0  0  0  0  0  0  0
    7.8358  -14.9847   24.1357 N   0  0  0  0  0  0  0  0  0  0  0  0
    8.7202  -15.5733   26.3183 C   0  0  0  0  0  0  0  0  0  0  0  0
    7.9908  -16.5131   26.7220 O   0  0  0  0  0  0  0  0  0  0  0  0
   10.0839  -15.5770   26.7272 N   0  0  0  0  0  0  0  0  0  0  0  0
   10.6596  -16.6125   27.5602 C   0  0  1  0  0  0  0  0  0  0  0  0
   12.1114  -16.8698   27.1986 C   0  0  0  0  0  0  0  0  0  0  0  0
   12.2978  -17.1886   25.7593 C   0  0  0  0  0  0  0  0  0  0  0  0
   13.7460  -17.4545   25.4720 C   0  0  0  0  0  0  0  0  0  0  0  0
   14.0047  -17.6267   24.0118 C   0  0  0  0  0  0  0  0  0  0  0  0
   15.4332  -17.7004   23.7198 N   0  0  0  0  0  0  0  0  0  0  0  0
   10.6337  -16.1755   28.9774 C   0  0  0  0  0  0  0  0  0  0  0  0
   11.0585  -16.9445   29.8716 O   0  0  0  0  0  0  0  0  0  0  0  0
   10.1554  -14.9402   29.3631 O   0  0  0  0  0  0  0  0  0  0  0  0
  2  1  1  6
  2  3  1  0
  3  4  1  0
  4  5  1  0
  5  6  2  0
  7  2  1  0
  7  8  2  0
  9  5  1  0
 11 10  1  1
 11 13  1  0
 12 11  1  0
 14 13  1  1
 14 15  1  0
 15  7  1  0
 16 18  1  0
 16 14  1  0
 17 16  2  0
 19 18  1  0
 19 25  1  0
 19 20  1  6
 21 20  1  0
 22 21  1  0
 23 22  1  0
 24 23  1  0
 25 26  2  0
 25 27  1  0
M  END
$$$$
