ELK.pdb
     RDKit          3D

 27 26  0  0  1  0  0  0  0  0999 V2000
    7.9200  -14.1669   20.3504 N   0  0  0  0  0  0  0  0  0  0  0  0
    7.2726  -15.0016   21.3856 C   0  0  1  0  0  0  0  0  0  0  0  0
    7.4338  -16.4228   20.9098 C   0  0  0  0  0  0  0  0  0  0  0  0
    6.6796  -16.6993   19.6576 C   0  0  0  0  0  0  0  0  0  0  0  0
    6.8410  -18.1837   19.3998 C   0  0  0  0  0  0  0  0  0  0  0  0
    6.3613  -19.0261   20.1943 O   0  0  0  0  0  0  0  0  0  0  0  0
    7.9835  -14.8425   22.6738 C   0  0  0  0  0  0  0  0  0  0  0  0
    9.2313  -14.7755   22.6830 O   0  0  0  0  0  0  0  0  0  0  0  0
    7.5196  -18.6233   18.2850 O   0  0  0  0  0  0  0  0  0  0  0  0
    8.1281  -11.6699   25.7212 C   0  0  0  0  0  0  0  0  0  0  0  0
    6.8024  -12.4495   25.6872 C   0  0  2  0  0  0  0  0  0  0  0  0
    5.8788  -11.6778   26.5933 C   0  0  0  0  0  0  0  0  0  0  0  0
    7.1196  -13.8285   26.1471 C   0  0  0  0  0  0  0  0  0  0  0  0
    7.8370  -14.7007   25.1759 C   0  0  2  0  0  0  0  0  0  0  0  0
    7.2228  -14.7689   23.8838 N   0  0  0  0  0  0  0  0  0  0  0  0
    8.1359  -16.0427   25.7374 C   0  0  0  0  0  0  0  0  0  0  0  0
    7.2141  -16.7482   26.2177 O   0  0  0  0  0  0  0  0  0  0  0  0
    9.4541  -16.5803   25.7574 N   0  0  0  0  0  0  0  0  0  0  0  0
    9.7790  -17.8627   26.3471 C   0  0  1  0  0  0  0  0  0  0  0  0
   11.0006  -18.4798   25.6902 C   0  0  0  0  0  0  0  0  0  0  0  0
   10.7265  -18.9748   24.3162 C   0  0  0  0  0  0  0  0  0  0  0  0
   12.0102  -19.1226   23.5543 C   0  0  0  0  0  0  0  0  0  0  0  0
   11.7733  -19.4142   22.1093 C   0  0  0  0  0  0  0  0  0  0  0  0
   13.0013  -19.3080   21.3270 N   0  0  0  0  0  0  0  0  0  0  0  0
   10.1026  -17.6766   27.7826 C   0  0  0  0  0  0  0  0  0  0  0  0
   10.2013  -16.5181   28.2511 O   0  0  0  0  0  0  0  0  0  0  0  0
   10.3035  -18.7383   28.6404 O   0  0  0  0  0  0  0  0  0  0  0  0
  2  1  1  6
  2  3  1  0
  3  4  1  0
  4  5  1  0
  5  6  2  0
  7  2  1  0
  7  8  2  0
  9  5  1  0
 11 10  1  1
 11 13  1  0
 12 11  1  0
 14 13  1  1
 14 15  1  0
 15  7  1  0
 16 18  1  0
 16 14  1  0
 17 16  2  0
 19 18  1  0
 19 25  1  0
 19 20  1  6
 21 20  1  0
 22 21  1  0
 23 22  1  0
 24 23  1  0
 25 26  2  0
 25 27  1  0
M  END
$$$$
