ELK.pdb
     RDKit          3D

 27 26  0  0  1  0  0  0  0  0999 V2000
    8.8392  -15.1983   19.6511 N   0  0  0  0  0  0  0  0  0  0  0  0
    8.0552  -15.7529   20.7759 C   0  0  1  0  0  0  0  0  0  0  0  0
    8.3132  -17.2378   20.7475 C   0  0  0  0  0  0  0  0  0  0  0  0
    7.7324  -17.8998   19.5485 C   0  0  0  0  0  0  0  0  0  0  0  0
    7.5319  -19.3507   19.9368 C   0  0  0  0  0  0  0  0  0  0  0  0
    8.3529  -19.9312   20.6851 O   0  0  0  0  0  0  0  0  0  0  0  0
    8.5563  -15.2025   22.0550 C   0  0  0  0  0  0  0  0  0  0  0  0
    9.7669  -15.3190   22.3420 O   0  0  0  0  0  0  0  0  0  0  0  0
    6.4408  -20.0485   19.4688 O   0  0  0  0  0  0  0  0  0  0  0  0
    6.0101  -12.2562   26.8940 C   0  0  0  0  0  0  0  0  0  0  0  0
    7.2823  -12.9393   26.3635 C   0  0  2  0  0  0  0  0  0  0  0  0
    8.3773  -11.9250   26.5677 C   0  0  0  0  0  0  0  0  0  0  0  0
    7.0071  -13.2834   24.9424 C   0  0  0  0  0  0  0  0  0  0  0  0
    7.9857  -14.1905   24.2804 C   0  0  2  0  0  0  0  0  0  0  0  0
    7.6396  -14.5469   22.9370 N   0  0  0  0  0  0  0  0  0  0  0  0
    8.3147  -15.3721   25.1177 C   0  0  0  0  0  0  0  0  0  0  0  0
    7.4175  -16.1906   25.4390 O   0  0  0  0  0  0  0  0  0  0  0  0
    9.6350  -15.6263   25.5857 N   0  0  0  0  0  0  0  0  0  0  0  0
   10.0286  -16.8714   26.2124 C   0  0  1  0  0  0  0  0  0  0  0  0
   11.3260  -17.3993   25.6271 C   0  0  0  0  0  0  0  0  0  0  0  0
   11.1133  -18.5182   24.6728 C   0  0  0  0  0  0  0  0  0  0  0  0
   12.4219  -18.9445   24.0759 C   0  0  0  0  0  0  0  0  0  0  0  0
   12.2552  -20.0658   23.1044 C   0  0  0  0  0  0  0  0  0  0  0  0
   13.4795  -20.3143   22.3489 N   0  0  0  0  0  0  0  0  0  0  0  0
   10.2639  -16.6417   27.6587 C   0  0  0  0  0  0  0  0  0  0  0  0
   10.5875  -17.6034   28.3950 O   0  0  0  0  0  0  0  0  0  0  0  0
   10.1409  -15.3969   28.2409 O   0  0  0  0  0  0  0  0  0  0  0  0
  2  1  1  6
  2  3  1  0
  3  4  1  0
  4  5  1  0
  5  6  2  0
  7  2  1  0
  7  8  2  0
  9  5  1  0
 11 10  1  6
 11 13  1  0
 12 11  1  0
 14 13  1  1
 14 15  1  0
 15  7  1  0
 16 18  1  0
 16 14  1  0
 17 16  2  0
 19 18  1  0
 19 25  1  0
 19 20  1  6
 21 20  1  0
 22 21  1  0
 23 22  1  0
 24 23  1  0
 25 26  2  0
 25 27  1  0
M  END
$$$$
