ELK.pdb
     RDKit          3D

 27 26  0  0  1  0  0  0  0  0999 V2000
    9.4266  -18.3047   20.0561 N   0  0  0  0  0  0  0  0  0  0  0  0
   10.7796  -18.1309   20.6276 C   0  0  1  0  0  0  0  0  0  0  0  0
   11.6682  -17.8023   19.4551 C   0  0  0  0  0  0  0  0  0  0  0  0
   11.5949  -18.8219   18.3742 C   0  0  0  0  0  0  0  0  0  0  0  0
   12.9980  -18.9258   17.8114 C   0  0  0  0  0  0  0  0  0  0  0  0
   13.7289  -17.9112   17.7260 O   0  0  0  0  0  0  0  0  0  0  0  0
   10.7830  -16.9884   21.5681 C   0  0  0  0  0  0  0  0  0  0  0  0
   11.8396  -16.6840   22.1618 O   0  0  0  0  0  0  0  0  0  0  0  0
   13.4854  -20.1416   17.3864 O   0  0  0  0  0  0  0  0  0  0  0  0
    8.2619  -13.4158   19.7784 C   0  0  0  0  0  0  0  0  0  0  0  0
    7.8148  -14.1236   21.0690 C   0  0  2  0  0  0  0  0  0  0  0  0
    6.5020  -13.4773   21.4274 C   0  0  0  0  0  0  0  0  0  0  0  0
    8.9057  -13.9114   22.0583 C   0  0  0  0  0  0  0  0  0  0  0  0
    9.4927  -15.1371   22.6681 C   0  0  2  0  0  0  0  0  0  0  0  0
    9.5715  -16.2556   21.7770 N   0  0  0  0  0  0  0  0  0  0  0  0
    8.8545  -15.4832   23.9637 C   0  0  0  0  0  0  0  0  0  0  0  0
    8.8092  -14.6392   24.8930 O   0  0  0  0  0  0  0  0  0  0  0  0
    8.2768  -16.7613   24.2073 N   0  0  0  0  0  0  0  0  0  0  0  0
    7.7725  -17.1703   25.5020 C   0  0  1  0  0  0  0  0  0  0  0  0
    6.6441  -18.1763   25.3634 C   0  0  0  0  0  0  0  0  0  0  0  0
    7.0364  -19.3762   24.5796 C   0  0  0  0  0  0  0  0  0  0  0  0
    5.8697  -20.3095   24.4443 C   0  0  0  0  0  0  0  0  0  0  0  0
    6.2032  -21.5063   23.6164 C   0  0  0  0  0  0  0  0  0  0  0  0
    5.0981  -22.4592   23.5721 N   0  0  0  0  0  0  0  0  0  0  0  0
    8.8572  -17.8337   26.2657 C   0  0  0  0  0  0  0  0  0  0  0  0
    9.9442  -18.0959   25.6989 O   0  0  0  0  0  0  0  0  0  0  0  0
    8.7224  -18.1814   27.5940 O   0  0  0  0  0  0  0  0  0  0  0  0
  2  1  1  6
  2  3  1  0
  3  4  1  0
  4  5  1  0
  5  6  2  0
  7  2  1  0
  7  8  2  0
  9  5  1  0
 11 10  1  6
 11 13  1  0
 12 11  1  0
 14 13  1  6
 14 15  1  0
 15  7  1  0
 16 18  1  0
 16 14  1  0
 17 16  2  0
 19 18  1  0
 19 25  1  0
 19 20  1  6
 21 20  1  0
 22 21  1  0
 23 22  1  0
 24 23  1  0
 25 26  2  0
 25 27  1  0
M  END
$$$$
