ELK.pdb
     RDKit          3D

 27 26  0  0  1  0  0  0  0  0999 V2000
    7.6947  -17.3328   21.7211 N   0  0  0  0  0  0  0  0  0  0  0  0
    9.1043  -16.9075   21.5812 C   0  0  1  0  0  0  0  0  0  0  0  0
    9.2202  -16.3673   20.1788 C   0  0  0  0  0  0  0  0  0  0  0  0
    9.3658  -17.4406   19.1590 C   0  0  0  0  0  0  0  0  0  0  0  0
   10.8545  -17.5687   18.9068 C   0  0  0  0  0  0  0  0  0  0  0  0
   11.5129  -18.4997   19.4273 O   0  0  0  0  0  0  0  0  0  0  0  0
    9.3967  -15.8197   22.5410 C   0  0  0  0  0  0  0  0  0  0  0  0
   10.5150  -15.2626   22.5167 O   0  0  0  0  0  0  0  0  0  0  0  0
   11.5010  -16.6592   18.0999 O   0  0  0  0  0  0  0  0  0  0  0  0
    6.1981  -12.7758   26.9025 C   0  0  0  0  0  0  0  0  0  0  0  0
    7.5820  -12.9635   26.2574 C   0  0  2  0  0  0  0  0  0  0  0  0
    8.0068  -11.5774   25.8477 C   0  0  0  0  0  0  0  0  0  0  0  0
    7.3892  -13.9159   25.1306 C   0  0  0  0  0  0  0  0  0  0  0  0
    8.6270  -14.4612   24.5068 C   0  0  2  0  0  0  0  0  0  0  0  0
    8.3883  -15.4291   23.4784 N   0  0  0  0  0  0  0  0  0  0  0  0
    9.6071  -14.9326   25.5180 C   0  0  0  0  0  0  0  0  0  0  0  0
   10.0959  -14.1281   26.3499 O   0  0  0  0  0  0  0  0  0  0  0  0
   10.0297  -16.2902   25.5897 N   0  0  0  0  0  0  0  0  0  0  0  0
   10.9389  -16.7857   26.6025 C   0  0  1  0  0  0  0  0  0  0  0  0
   10.2861  -17.8595   27.4542 C   0  0  0  0  0  0  0  0  0  0  0  0
   11.1766  -18.3571   28.5346 C   0  0  0  0  0  0  0  0  0  0  0  0
   10.4944  -19.4484   29.3054 C   0  0  0  0  0  0  0  0  0  0  0  0
   11.3104  -19.9066   30.4686 C   0  0  0  0  0  0  0  0  0  0  0  0
   10.5823  -20.8622   31.2980 N   0  0  0  0  0  0  0  0  0  0  0  0
   12.1163  -17.4049   25.9465 C   0  0  0  0  0  0  0  0  0  0  0  0
   11.9466  -18.2326   25.0204 O   0  0  0  0  0  0  0  0  0  0  0  0
   13.4119  -17.1067   26.3153 O   0  0  0  0  0  0  0  0  0  0  0  0
  2  1  1  1
  2  3  1  0
  3  4  1  0
  4  5  1  0
  5  6  2  0
  7  2  1  0
  7  8  2  0
  9  5  1  0
 11 10  1  6
 11 13  1  0
 12 11  1  0
 14 13  1  1
 14 15  1  0
 15  7  1  0
 16 18  1  0
 16 14  1  0
 17 16  2  0
 19 18  1  0
 19 25  1  0
 19 20  1  6
 21 20  1  0
 22 21  1  0
 23 22  1  0
 24 23  1  0
 25 26  2  0
 25 27  1  0
M  END
$$$$
