ELK.pdb
     RDKit          3D

 27 26  0  0  1  0  0  0  0  0999 V2000
    7.4856  -17.2362   22.8974 N   0  0  0  0  0  0  0  0  0  0  0  0
    8.8570  -16.8148   22.5384 C   0  0  1  0  0  0  0  0  0  0  0  0
    8.7273  -16.1352   21.1992 C   0  0  0  0  0  0  0  0  0  0  0  0
    8.1224  -17.0155   20.1636 C   0  0  0  0  0  0  0  0  0  0  0  0
    8.1506  -16.2157   18.8768 C   0  0  0  0  0  0  0  0  0  0  0  0
    9.2317  -15.7714   18.4242 O   0  0  0  0  0  0  0  0  0  0  0  0
    9.3549  -15.8342   23.5287 C   0  0  0  0  0  0  0  0  0  0  0  0
   10.4953  -15.3432   23.3877 O   0  0  0  0  0  0  0  0  0  0  0  0
    6.9833  -15.9683   18.1895 O   0  0  0  0  0  0  0  0  0  0  0  0
    7.7642  -11.9260   24.7771 C   0  0  0  0  0  0  0  0  0  0  0  0
    6.9537  -13.0890   25.3745 C   0  0  2  0  0  0  0  0  0  0  0  0
    5.7677  -12.4334   26.0326 C   0  0  0  0  0  0  0  0  0  0  0  0
    7.8710  -13.7991   26.3061 C   0  0  0  0  0  0  0  0  0  0  0  0
    8.9580  -14.6021   25.6796 C   0  0  2  0  0  0  0  0  0  0  0  0
    8.5157  -15.4693   24.6290 N   0  0  0  0  0  0  0  0  0  0  0  0
    9.7917  -15.3054   26.6875 C   0  0  0  0  0  0  0  0  0  0  0  0
   10.2145  -14.6923   27.6991 O   0  0  0  0  0  0  0  0  0  0  0  0
   10.1433  -16.6787   26.5561 N   0  0  0  0  0  0  0  0  0  0  0  0
   10.9690  -17.3815   27.5164 C   0  0  1  0  0  0  0  0  0  0  0  0
   10.2910  -18.6485   28.0062 C   0  0  0  0  0  0  0  0  0  0  0  0
   11.1199  -19.4045   28.9806 C   0  0  0  0  0  0  0  0  0  0  0  0
   10.4383  -20.6879   29.3530 C   0  0  0  0  0  0  0  0  0  0  0  0
   11.1782  -21.4258   30.4192 C   0  0  0  0  0  0  0  0  0  0  0  0
   10.4918  -22.6560   30.8024 N   0  0  0  0  0  0  0  0  0  0  0  0
   12.2394  -17.7890   26.8683 C   0  0  0  0  0  0  0  0  0  0  0  0
   13.1969  -18.1845   27.5742 O   0  0  0  0  0  0  0  0  0  0  0  0
   12.4186  -17.7521   25.5008 O   0  0  0  0  0  0  0  0  0  0  0  0
  2  1  1  1
  2  3  1  0
  3  4  1  0
  4  5  1  0
  5  6  2  0
  7  2  1  0
  7  8  2  0
  9  5  1  0
 11 10  1  1
 11 13  1  0
 12 11  1  0
 14 13  1  1
 14 15  1  0
 15  7  1  0
 16 18  1  0
 16 14  1  0
 17 16  2  0
 19 18  1  0
 19 25  1  0
 19 20  1  6
 21 20  1  0
 22 21  1  0
 23 22  1  0
 24 23  1  0
 25 26  2  0
 25 27  1  0
M  END
$$$$
