ELK.pdb
     RDKit          3D

 27 26  0  0  1  0  0  0  0  0999 V2000
   11.4871  -17.4781   17.5356 N   0  0  0  0  0  0  0  0  0  0  0  0
   10.5885  -17.7689   18.6737 C   0  0  1  0  0  0  0  0  0  0  0  0
   11.0711  -19.0810   19.2374 C   0  0  0  0  0  0  0  0  0  0  0  0
   12.4427  -19.4332   18.7816 C   0  0  0  0  0  0  0  0  0  0  0  0
   12.6926  -20.8419   19.2809 C   0  0  0  0  0  0  0  0  0  0  0  0
   13.8601  -21.2869   19.3800 O   0  0  0  0  0  0  0  0  0  0  0  0
   10.7336  -16.7195   19.7070 C   0  0  0  0  0  0  0  0  0  0  0  0
   11.8766  -16.3685   20.0703 O   0  0  0  0  0  0  0  0  0  0  0  0
   11.6344  -21.6502   19.6321 O   0  0  0  0  0  0  0  0  0  0  0  0
    8.5876  -12.6724   19.6928 C   0  0  0  0  0  0  0  0  0  0  0  0
    7.7265  -13.8515   20.1774 C   0  0  2  0  0  0  0  0  0  0  0  0
    6.3442  -13.2759   20.3432 C   0  0  0  0  0  0  0  0  0  0  0  0
    8.3560  -14.3360   21.4354 C   0  0  0  0  0  0  0  0  0  0  0  0
    9.6126  -15.1218   21.2859 C   0  0  2  0  0  0  0  0  0  0  0  0
    9.5574  -16.1285   20.2686 N   0  0  0  0  0  0  0  0  0  0  0  0
   10.1059  -15.6482   22.5839 C   0  0  0  0  0  0  0  0  0  0  0  0
   10.2638  -14.8759   23.5620 O   0  0  0  0  0  0  0  0  0  0  0  0
   10.4167  -17.0242   22.7757 N   0  0  0  0  0  0  0  0  0  0  0  0
   10.9174  -17.5578   24.0257 C   0  0  1  0  0  0  0  0  0  0  0  0
   10.8952  -19.0757   24.0275 C   0  0  0  0  0  0  0  0  0  0  0  0
   11.3284  -19.6558   25.3251 C   0  0  0  0  0  0  0  0  0  0  0  0
   11.4581  -21.1457   25.2079 C   0  0  0  0  0  0  0  0  0  0  0  0
   11.8643  -21.7756   26.4990 C   0  0  0  0  0  0  0  0  0  0  0  0
   13.2419  -21.4460   26.8526 N   0  0  0  0  0  0  0  0  0  0  0  0
   12.3293  -17.1418   24.2082 C   0  0  0  0  0  0  0  0  0  0  0  0
   12.8353  -17.1504   25.3552 O   0  0  0  0  0  0  0  0  0  0  0  0
   13.1249  -16.7388   23.1556 O   0  0  0  0  0  0  0  0  0  0  0  0
  2  1  1  6
  2  3  1  0
  3  4  1  0
  4  5  1  0
  5  6  2  0
  7  2  1  0
  7  8  2  0
  9  5  1  0
 11 10  1  1
 11 13  1  0
 12 11  1  0
 14 13  1  1
 14 15  1  0
 15  7  1  0
 16 18  1  0
 16 14  1  0
 17 16  2  0
 19 18  1  0
 19 25  1  0
 19 20  1  6
 21 20  1  0
 22 21  1  0
 23 22  1  0
 24 23  1  0
 25 26  2  0
 25 27  1  0
M  END
$$$$
