ELK.pdb
     RDKit          3D

 27 26  0  0  1  0  0  0  0  0999 V2000
    8.5111  -14.1626   20.0552 N   0  0  0  0  0  0  0  0  0  0  0  0
    7.4805  -14.4543   21.0750 C   0  0  1  0  0  0  0  0  0  0  0  0
    6.9223  -15.8041   20.7026 C   0  0  0  0  0  0  0  0  0  0  0  0
    7.9103  -16.9028   20.8756 C   0  0  0  0  0  0  0  0  0  0  0  0
    7.1808  -18.1753   20.4953 C   0  0  0  0  0  0  0  0  0  0  0  0
    6.5807  -18.2644   19.3985 O   0  0  0  0  0  0  0  0  0  0  0  0
    8.1101  -14.5465   22.4110 C   0  0  0  0  0  0  0  0  0  0  0  0
    9.3278  -14.8127   22.4997 O   0  0  0  0  0  0  0  0  0  0  0  0
    7.1700  -19.2508   21.3553 O   0  0  0  0  0  0  0  0  0  0  0  0
    8.1585  -11.6634   26.2292 C   0  0  0  0  0  0  0  0  0  0  0  0
    6.8168  -12.2932   25.8172 C   0  0  2  0  0  0  0  0  0  0  0  0
    5.8054  -11.6954   26.7603 C   0  0  0  0  0  0  0  0  0  0  0  0
    6.9932  -13.7652   25.9423 C   0  0  0  0  0  0  0  0  0  0  0  0
    7.8354  -14.4208   24.9032 C   0  0  2  0  0  0  0  0  0  0  0  0
    7.3069  -14.3279   23.5753 N   0  0  0  0  0  0  0  0  0  0  0  0
    8.2078  -15.8099   25.2735 C   0  0  0  0  0  0  0  0  0  0  0  0
    7.3181  -16.6499   25.5580 O   0  0  0  0  0  0  0  0  0  0  0  0
    9.5626  -16.2447   25.3226 N   0  0  0  0  0  0  0  0  0  0  0  0
    9.9513  -17.5891   25.6959 C   0  0  1  0  0  0  0  0  0  0  0  0
   11.2908  -17.9661   25.0892 C   0  0  0  0  0  0  0  0  0  0  0  0
   11.7873  -19.2834   25.5646 C   0  0  0  0  0  0  0  0  0  0  0  0
   13.1289  -19.5785   24.9619 C   0  0  0  0  0  0  0  0  0  0  0  0
   13.6522  -20.9110   25.3856 C   0  0  0  0  0  0  0  0  0  0  0  0
   14.9915  -21.1589   24.8601 N   0  0  0  0  0  0  0  0  0  0  0  0
   10.1024  -17.6666   27.1694 C   0  0  0  0  0  0  0  0  0  0  0  0
    9.7043  -18.6860   27.7810 O   0  0  0  0  0  0  0  0  0  0  0  0
   10.6706  -16.6510   27.9104 O   0  0  0  0  0  0  0  0  0  0  0  0
  2  1  1  6
  2  3  1  0
  3  4  1  0
  4  5  1  0
  5  6  2  0
  7  2  1  0
  7  8  2  0
  9  5  1  0
 11 10  1  1
 11 13  1  0
 12 11  1  0
 14 13  1  1
 14 15  1  0
 15  7  1  0
 16 18  1  0
 16 14  1  0
 17 16  2  0
 19 18  1  0
 19 25  1  0
 19 20  1  6
 21 20  1  0
 22 21  1  0
 23 22  1  0
 24 23  1  0
 25 26  2  0
 25 27  1  0
M  END
$$$$
