ELK.pdb
     RDKit          3D

 27 26  0  0  1  0  0  0  0  0999 V2000
   10.0351  -17.1201   17.3898 N   0  0  0  0  0  0  0  0  0  0  0  0
   10.6044  -17.7216   18.6152 C   0  0  1  0  0  0  0  0  0  0  0  0
   12.0286  -18.0689   18.2640 C   0  0  0  0  0  0  0  0  0  0  0  0
   12.1248  -19.0120   17.1175 C   0  0  0  0  0  0  0  0  0  0  0  0
   13.5754  -19.4468   17.0635 C   0  0  0  0  0  0  0  0  0  0  0  0
   14.2722  -19.4780   18.1049 O   0  0  0  0  0  0  0  0  0  0  0  0
   10.6086  -16.7233   19.7076 C   0  0  0  0  0  0  0  0  0  0  0  0
   11.6948  -16.3753   20.2181 O   0  0  0  0  0  0  0  0  0  0  0  0
   14.1444  -19.8134   15.8642 O   0  0  0  0  0  0  0  0  0  0  0  0
    8.8534  -12.6262   19.7746 C   0  0  0  0  0  0  0  0  0  0  0  0
    7.8133  -13.7459   19.9502 C   0  0  2  0  0  0  0  0  0  0  0  0
    6.4802  -13.0486   19.8714 C   0  0  0  0  0  0  0  0  0  0  0  0
    8.1074  -14.3840   21.2618 C   0  0  0  0  0  0  0  0  0  0  0  0
    9.2675  -15.3176   21.2974 C   0  0  2  0  0  0  0  0  0  0  0  0
    9.3640  -16.1772   20.1559 N   0  0  0  0  0  0  0  0  0  0  0  0
    9.3539  -16.0603   22.5805 C   0  0  0  0  0  0  0  0  0  0  0  0
    8.3161  -16.5238   23.1155 O   0  0  0  0  0  0  0  0  0  0  0  0
   10.5916  -16.2767   23.2499 N   0  0  0  0  0  0  0  0  0  0  0  0
   10.7074  -17.0368   24.4774 C   0  0  1  0  0  0  0  0  0  0  0  0
   11.3109  -18.4067   24.2248 C   0  0  0  0  0  0  0  0  0  0  0  0
   11.2987  -19.2722   25.4326 C   0  0  0  0  0  0  0  0  0  0  0  0
   12.0349  -20.5505   25.1600 C   0  0  0  0  0  0  0  0  0  0  0  0
   11.9990  -21.4776   26.3297 C   0  0  0  0  0  0  0  0  0  0  0  0
   12.6982  -22.7285   26.0511 N   0  0  0  0  0  0  0  0  0  0  0  0
   11.6134  -16.3266   25.4126 C   0  0  0  0  0  0  0  0  0  0  0  0
   11.7234  -16.7284   26.5950 O   0  0  0  0  0  0  0  0  0  0  0  0
   12.3532  -15.2252   25.0345 O   0  0  0  0  0  0  0  0  0  0  0  0
  2  1  1  6
  2  3  1  0
  3  4  1  0
  4  5  1  0
  5  6  2  0
  7  2  1  0
  7  8  2  0
  9  5  1  0
 11 10  1  1
 11 13  1  0
 12 11  1  0
 14 13  1  1
 14 15  1  0
 15  7  1  0
 16 18  1  0
 16 14  1  0
 17 16  2  0
 19 18  1  0
 19 25  1  0
 19 20  1  6
 21 20  1  0
 22 21  1  0
 23 22  1  0
 24 23  1  0
 25 26  2  0
 25 27  1  0
M  END
$$$$
