HII.pdb
     RDKit          3D

 27 27  0  0  1  0  0  0  0  0999 V2000
   12.2442  -17.2857   19.2909 N   0  0  0  0  0  0  0  0  0  0  0  0
   11.1669  -17.6892   20.1693 C   0  0  1  0  0  0  0  0  0  0  0  0
   11.3900  -19.0187   20.8315 C   0  0  0  0  0  0  0  0  0  0  0  0
   11.3921  -20.1714   19.9141 C   0  0  0  0  0  0  0  0  0  0  0  0
   10.5895  -20.4211   18.8289 C   0  0  0  0  0  0  0  0  0  0  0  0
   10.9491  -21.6113   18.2958 N   0  0  0  0  0  0  0  0  0  0  0  0
   11.9543  -22.0917   19.0345 C   0  0  0  0  0  0  0  0  0  0  0  0
   12.2425  -21.2390   20.0216 N   0  0  0  0  0  0  0  0  0  0  0  0
   10.9022  -16.6099   21.1373 C   0  0  0  0  0  0  0  0  0  0  0  0
   11.8352  -15.8998   21.5682 O   0  0  0  0  0  0  0  0  0  0  0  0
    6.5913  -13.5427   20.5803 C   0  0  0  0  0  0  0  0  0  0  0  0
    8.0440  -13.9648   20.8591 C   0  0  0  0  0  0  0  0  0  0  0  0
    8.0212  -14.6830   22.1619 C   0  0  2  0  0  0  0  0  0  0  0  0
    7.4050  -13.7778   23.2069 C   0  0  0  0  0  0  0  0  0  0  0  0
    9.3302  -15.2895   22.5946 C   0  0  2  0  0  0  0  0  0  0  0  0
    9.5978  -16.3470   21.6034 N   0  0  0  0  0  0  0  0  0  0  0  0
    9.2994  -15.9322   23.9178 C   0  0  0  0  0  0  0  0  0  0  0  0
    9.0062  -17.1523   24.0029 O   0  0  0  0  0  0  0  0  0  0  0  0
   10.8780  -12.8401   28.2023 C   0  0  0  0  0  0  0  0  0  0  0  0
   10.9293  -13.9428   27.1948 C   0  0  0  0  0  0  0  0  0  0  0  0
    9.8492  -14.9307   27.4927 C   0  0  2  0  0  0  0  0  0  0  0  0
   10.1014  -15.5654   28.8206 C   0  0  0  0  0  0  0  0  0  0  0  0
    9.7375  -15.9955   26.4012 C   0  0  2  0  0  0  0  0  0  0  0  0
    9.5823  -15.2760   25.1518 N   0  0  0  0  0  0  0  0  0  0  0  0
    8.6349  -16.9086   26.6841 C   0  0  0  0  0  0  0  0  0  0  0  0
    8.8336  -17.9924   27.2798 O   0  0  0  0  0  0  0  0  0  0  0  0
    7.3358  -16.6216   26.3114 O   0  0  0  0  0  0  0  0  0  0  0  0
  2  1  1  1
  3  2  1  0
  3  4  1  0
  4  5  2  0
  5  6  1  0
  7  6  1  0
  8  4  1  0
  8  7  2  0
  9 10  2  0
  9  2  1  0
 12 11  1  0
 13 12  1  0
 13 14  1  1
 15 13  1  0
 15 16  1  6
 16  9  1  0
 17 15  1  0
 18 17  2  0
 19 20  1  0
 21 22  1  1
 21 20  1  0
 23 21  1  0
 23 24  1  6
 24 17  1  0
 25 27  1  0
 25 23  1  0
 26 25  2  0
M  END
$$$$
