HII.pdb
     RDKit          3D

 27 27  0  0  1  0  0  0  0  0999 V2000
   12.3889  -17.2087   19.3488 N   0  0  0  0  0  0  0  0  0  0  0  0
   11.2786  -17.6179   20.1823 C   0  0  1  0  0  0  0  0  0  0  0  0
   11.4829  -18.9444   20.8563 C   0  0  0  0  0  0  0  0  0  0  0  0
   11.4807  -20.1040   19.9478 C   0  0  0  0  0  0  0  0  0  0  0  0
   10.7078  -20.3382   18.8378 C   0  0  0  0  0  0  0  0  0  0  0  0
   11.0485  -21.5431   18.3257 N   0  0  0  0  0  0  0  0  0  0  0  0
   12.0131  -22.0477   19.1015 C   0  0  0  0  0  0  0  0  0  0  0  0
   12.2939  -21.1961   20.0917 N   0  0  0  0  0  0  0  0  0  0  0  0
   10.9662  -16.5384   21.1357 C   0  0  0  0  0  0  0  0  0  0  0  0
   11.8819  -15.9256   21.7243 O   0  0  0  0  0  0  0  0  0  0  0  0
    6.7792  -13.2948   20.2244 C   0  0  0  0  0  0  0  0  0  0  0  0
    8.1996  -13.7308   20.6228 C   0  0  0  0  0  0  0  0  0  0  0  0
    8.0569  -14.4814   21.8995 C   0  0  2  0  0  0  0  0  0  0  0  0
    7.3857  -13.5862   22.9190 C   0  0  0  0  0  0  0  0  0  0  0  0
    9.3119  -15.1360   22.4143 C   0  0  2  0  0  0  0  0  0  0  0  0
    9.6344  -16.1665   21.4112 N   0  0  0  0  0  0  0  0  0  0  0  0
    9.1587  -15.8213   23.7073 C   0  0  0  0  0  0  0  0  0  0  0  0
    8.8370  -17.0369   23.7254 O   0  0  0  0  0  0  0  0  0  0  0  0
   10.6453  -12.9921   28.1756 C   0  0  0  0  0  0  0  0  0  0  0  0
   10.6289  -14.0686   27.1391 C   0  0  0  0  0  0  0  0  0  0  0  0
    9.4271  -14.9312   27.3459 C   0  0  2  0  0  0  0  0  0  0  0  0
    9.5206  -15.6133   28.6709 C   0  0  0  0  0  0  0  0  0  0  0  0
    9.2654  -15.9572   26.2239 C   0  0  2  0  0  0  0  0  0  0  0  0
    9.3497  -15.2124   24.9826 N   0  0  0  0  0  0  0  0  0  0  0  0
    8.0131  -16.6912   26.3745 C   0  0  0  0  0  0  0  0  0  0  0  0
    6.9280  -16.1984   25.9893 O   0  0  0  0  0  0  0  0  0  0  0  0
    7.9689  -17.9497   26.9429 O   0  0  0  0  0  0  0  0  0  0  0  0
  2  1  1  1
  3  2  1  0
  3  4  1  0
  4  5  2  0
  5  6  1  0
  7  6  1  0
  8  4  1  0
  8  7  2  0
  9 10  2  0
  9  2  1  0
 12 11  1  0
 13 12  1  0
 13 14  1  1
 15 13  1  0
 15 16  1  6
 16  9  1  0
 17 15  1  0
 18 17  2  0
 19 20  1  0
 21 22  1  1
 21 20  1  0
 23 21  1  0
 23 24  1  6
 24 17  1  0
 25 27  1  0
 25 23  1  0
 26 25  2  0
M  END
$$$$
