HII.pdb
     RDKit          3D

 27 27  0  0  1  0  0  0  0  0999 V2000
   12.8475  -16.8948   19.6611 N   0  0  0  0  0  0  0  0  0  0  0  0
   11.8149  -17.4757   20.4924 C   0  0  1  0  0  0  0  0  0  0  0  0
   12.2136  -18.7720   21.1377 C   0  0  0  0  0  0  0  0  0  0  0  0
   12.3314  -19.9110   20.2109 C   0  0  0  0  0  0  0  0  0  0  0  0
   12.1392  -19.9506   18.8522 C   0  0  0  0  0  0  0  0  0  0  0  0
   12.3478  -21.2180   18.4275 N   0  0  0  0  0  0  0  0  0  0  0  0
   12.6629  -21.9512   19.4999 C   0  0  0  0  0  0  0  0  0  0  0  0
   12.6601  -21.1839   20.5935 N   0  0  0  0  0  0  0  0  0  0  0  0
   11.3589  -16.4713   21.4699 C   0  0  0  0  0  0  0  0  0  0  0  0
   12.1677  -15.6663   21.9782 O   0  0  0  0  0  0  0  0  0  0  0  0
    6.6637  -14.1689   20.5928 C   0  0  0  0  0  0  0  0  0  0  0  0
    8.1478  -14.2956   20.9772 C   0  0  0  0  0  0  0  0  0  0  0  0
    8.1733  -14.9706   22.3028 C   0  0  2  0  0  0  0  0  0  0  0  0
    7.3852  -14.1366   23.2900 C   0  0  0  0  0  0  0  0  0  0  0  0
    9.5369  -15.3632   22.8080 C   0  0  2  0  0  0  0  0  0  0  0  0
   10.0062  -16.3883   21.8586 N   0  0  0  0  0  0  0  0  0  0  0  0
    9.5412  -15.9757   24.1459 C   0  0  0  0  0  0  0  0  0  0  0  0
    9.2487  -17.1928   24.2665 O   0  0  0  0  0  0  0  0  0  0  0  0
   10.4803  -12.6217   28.3815 C   0  0  0  0  0  0  0  0  0  0  0  0
   10.6788  -13.6892   27.3546 C   0  0  0  0  0  0  0  0  0  0  0  0
    9.8263  -14.8665   27.6991 C   0  0  2  0  0  0  0  0  0  0  0  0
   10.2186  -15.3955   29.0393 C   0  0  0  0  0  0  0  0  0  0  0  0
    9.9208  -15.9648   26.6396 C   0  0  2  0  0  0  0  0  0  0  0  0
    9.8587  -15.2922   25.3564 N   0  0  0  0  0  0  0  0  0  0  0  0
    8.8634  -16.9529   26.8270 C   0  0  0  0  0  0  0  0  0  0  0  0
    7.6950  -16.7269   26.4364 O   0  0  0  0  0  0  0  0  0  0  0  0
    9.1012  -18.1693   27.4374 O   0  0  0  0  0  0  0  0  0  0  0  0
  2  1  1  1
  3  2  1  0
  3  4  1  0
  4  5  2  0
  5  6  1  0
  7  6  1  0
  8  4  1  0
  8  7  2  0
  9 10  2  0
  9  2  1  0
 12 11  1  0
 13 12  1  0
 13 14  1  1
 15 13  1  0
 15 16  1  6
 16  9  1  0
 17 15  1  0
 18 17  2  0
 19 20  1  0
 21 22  1  1
 21 20  1  0
 23 21  1  0
 23 24  1  6
 24 17  1  0
 25 27  1  0
 25 23  1  0
 26 25  2  0
M  END
$$$$
