HII.pdb
     RDKit          3D

 27 27  0  0  1  0  0  0  0  0999 V2000
   10.0531  -16.2548   19.5229 N   0  0  0  0  0  0  0  0  0  0  0  0
    9.9444  -17.0115   20.7520 C   0  0  1  0  0  0  0  0  0  0  0  0
   10.9125  -18.1558   20.8472 C   0  0  0  0  0  0  0  0  0  0  0  0
   10.7507  -19.1878   19.8084 C   0  0  0  0  0  0  0  0  0  0  0  0
    9.9661  -20.3142   19.8157 C   0  0  0  0  0  0  0  0  0  0  0  0
   10.1494  -20.9707   18.6472 N   0  0  0  0  0  0  0  0  0  0  0  0
   11.0298  -20.2671   17.9283 C   0  0  0  0  0  0  0  0  0  0  0  0
   11.4103  -19.1822   18.6085 N   0  0  0  0  0  0  0  0  0  0  0  0
   10.0404  -16.0894   21.8976 C   0  0  0  0  0  0  0  0  0  0  0  0
   10.9393  -15.2230   21.9425 O   0  0  0  0  0  0  0  0  0  0  0  0
    5.9880  -13.3664   25.1908 C   0  0  0  0  0  0  0  0  0  0  0  0
    7.5054  -13.6185   25.1842 C   0  0  0  0  0  0  0  0  0  0  0  0
    7.7276  -14.7688   24.2672 C   0  0  2  0  0  0  0  0  0  0  0  0
    6.8264  -15.9096   24.6888 C   0  0  0  0  0  0  0  0  0  0  0  0
    9.1634  -15.1818   24.0760 C   0  0  2  0  0  0  0  0  0  0  0  0
    9.1280  -16.1558   22.9704 N   0  0  0  0  0  0  0  0  0  0  0  0
    9.7645  -15.8613   25.2344 C   0  0  0  0  0  0  0  0  0  0  0  0
   10.2364  -17.0183   25.0927 O   0  0  0  0  0  0  0  0  0  0  0  0
   10.0962  -12.8805   29.7683 C   0  0  0  0  0  0  0  0  0  0  0  0
   10.6269  -13.6984   28.6356 C   0  0  0  0  0  0  0  0  0  0  0  0
   10.3088  -15.1376   28.8781 C   0  0  2  0  0  0  0  0  0  0  0  0
   11.1239  -15.6463   30.0212 C   0  0  0  0  0  0  0  0  0  0  0  0
   10.5443  -15.9887   27.6300 C   0  0  2  0  0  0  0  0  0  0  0  0
    9.8647  -15.3080   26.5449 N   0  0  0  0  0  0  0  0  0  0  0  0
   10.0738  -17.3538   27.8418 C   0  0  0  0  0  0  0  0  0  0  0  0
    8.8549  -17.6328   27.7700 O   0  0  0  0  0  0  0  0  0  0  0  0
   10.9429  -18.3890   28.1281 O   0  0  0  0  0  0  0  0  0  0  0  0
  2  1  1  6
  3  2  1  0
  3  4  1  0
  4  5  2  0
  5  6  1  0
  7  6  1  0
  8  4  1  0
  8  7  2  0
  9 10  2  0
  9  2  1  0
 12 11  1  0
 13 12  1  0
 13 14  1  1
 15 13  1  0
 15 16  1  6
 16  9  1  0
 17 15  1  0
 18 17  2  0
 19 20  1  0
 21 22  1  1
 21 20  1  0
 23 21  1  0
 23 24  1  6
 24 17  1  0
 25 27  1  0
 25 23  1  0
 26 25  2  0
M  END
$$$$
