HII.pdb
     RDKit          3D

 27 27  0  0  1  0  0  0  0  0999 V2000
    9.2986  -19.1797   19.6743 N   0  0  0  0  0  0  0  0  0  0  0  0
    8.5290  -18.5686   20.7370 C   0  0  1  0  0  0  0  0  0  0  0  0
    8.3600  -19.4453   21.9447 C   0  0  0  0  0  0  0  0  0  0  0  0
    7.6876  -20.7299   21.6843 C   0  0  0  0  0  0  0  0  0  0  0  0
    7.2499  -21.2575   20.4950 C   0  0  0  0  0  0  0  0  0  0  0  0
    6.6810  -22.4594   20.7438 N   0  0  0  0  0  0  0  0  0  0  0  0
    6.7632  -22.6745   22.0605 C   0  0  0  0  0  0  0  0  0  0  0  0
    7.3686  -21.6422   22.6542 N   0  0  0  0  0  0  0  0  0  0  0  0
    9.1144  -17.2565   21.0650 C   0  0  0  0  0  0  0  0  0  0  0  0
   10.3469  -17.0711   20.9794 O   0  0  0  0  0  0  0  0  0  0  0  0
    6.5666  -12.9481   19.3352 C   0  0  0  0  0  0  0  0  0  0  0  0
    7.7590  -13.8610   19.6683 C   0  0  0  0  0  0  0  0  0  0  0  0
    7.8563  -13.8857   21.1527 C   0  0  2  0  0  0  0  0  0  0  0  0
    8.0157  -12.4666   21.6547 C   0  0  0  0  0  0  0  0  0  0  0  0
    8.8740  -14.8384   21.7232 C   0  0  2  0  0  0  0  0  0  0  0  0
    8.3081  -16.1779   21.4824 N   0  0  0  0  0  0  0  0  0  0  0  0
    9.0863  -14.7110   23.1737 C   0  0  0  0  0  0  0  0  0  0  0  0
    9.6876  -13.7012   23.6213 O   0  0  0  0  0  0  0  0  0  0  0  0
    7.5622  -11.7824   26.4305 C   0  0  0  0  0  0  0  0  0  0  0  0
    8.4903  -12.9355   26.2248 C   0  0  0  0  0  0  0  0  0  0  0  0
    7.7206  -14.0943   25.6809 C   0  0  2  0  0  0  0  0  0  0  0  0
    6.5327  -14.3588   26.5461 C   0  0  0  0  0  0  0  0  0  0  0  0
    8.5891  -15.3472   25.5634 C   0  0  2  0  0  0  0  0  0  0  0  0
    8.6567  -15.6586   24.1488 N   0  0  0  0  0  0  0  0  0  0  0  0
    8.0386  -16.4322   26.3693 C   0  0  0  0  0  0  0  0  0  0  0  0
    8.0491  -16.3738   27.6204 O   0  0  0  0  0  0  0  0  0  0  0  0
    7.4868  -17.5608   25.7942 O   0  0  0  0  0  0  0  0  0  0  0  0
  2  1  1  6
  3  2  1  0
  3  4  1  0
  4  5  2  0
  5  6  1  0
  7  6  1  0
  8  4  1  0
  8  7  2  0
  9 10  2  0
  9  2  1  0
 12 11  1  0
 13 12  1  0
 13 14  1  6
 15 13  1  0
 15 16  1  1
 16  9  1  0
 17 15  1  0
 18 17  2  0
 19 20  1  0
 21 22  1  1
 21 20  1  0
 23 21  1  0
 23 24  1  6
 24 17  1  0
 25 27  1  0
 25 23  1  0
 26 25  2  0
M  END
$$$$
