HII.pdb
     RDKit          3D

 27 27  0  0  1  0  0  0  0  0999 V2000
    8.9449  -18.8294   19.8183 N   0  0  0  0  0  0  0  0  0  0  0  0
    8.1954  -18.5291   21.0196 C   0  0  1  0  0  0  0  0  0  0  0  0
    8.1340  -19.6681   21.9967 C   0  0  0  0  0  0  0  0  0  0  0  0
    7.3701  -20.8386   21.5314 C   0  0  0  0  0  0  0  0  0  0  0  0
    6.7645  -21.0563   20.3189 C   0  0  0  0  0  0  0  0  0  0  0  0
    6.1694  -22.2708   20.3500 N   0  0  0  0  0  0  0  0  0  0  0  0
    6.4000  -22.7971   21.5569 C   0  0  0  0  0  0  0  0  0  0  0  0
    7.1252  -21.9500   22.2926 N   0  0  0  0  0  0  0  0  0  0  0  0
    8.7228  -17.2918   21.6219 C   0  0  0  0  0  0  0  0  0  0  0  0
    9.9398  -17.0188   21.5506 O   0  0  0  0  0  0  0  0  0  0  0  0
    6.9778  -12.7878   20.2674 C   0  0  0  0  0  0  0  0  0  0  0  0
    7.8932  -13.9237   20.7553 C   0  0  0  0  0  0  0  0  0  0  0  0
    7.6645  -14.0359   22.2211 C   0  0  2  0  0  0  0  0  0  0  0  0
    7.8981  -12.6818   22.8561 C   0  0  0  0  0  0  0  0  0  0  0  0
    8.4004  -15.1539   22.9118 C   0  0  2  0  0  0  0  0  0  0  0  0
    7.8770  -16.3846   22.2922 N   0  0  0  0  0  0  0  0  0  0  0  0
    8.1455  -15.2532   24.3576 C   0  0  0  0  0  0  0  0  0  0  0  0
    7.4257  -16.1881   24.7929 O   0  0  0  0  0  0  0  0  0  0  0  0
   10.5786  -18.1153   26.1650 C   0  0  0  0  0  0  0  0  0  0  0  0
    9.4731  -17.1101   26.1350 C   0  0  0  0  0  0  0  0  0  0  0  0
    9.9711  -15.8160   26.6905 C   0  0  2  0  0  0  0  0  0  0  0  0
   10.5243  -16.0370   28.0598 C   0  0  0  0  0  0  0  0  0  0  0  0
    8.8738  -14.7516   26.7200 C   0  0  2  0  0  0  0  0  0  0  0  0
    8.6587  -14.3574   25.3412 N   0  0  0  0  0  0  0  0  0  0  0  0
    9.2569  -13.6415   27.5864 C   0  0  0  0  0  0  0  0  0  0  0  0
   10.0773  -12.7774   27.2003 O   0  0  0  0  0  0  0  0  0  0  0  0
    8.7373  -13.4955   28.8581 O   0  0  0  0  0  0  0  0  0  0  0  0
  2  1  1  6
  3  2  1  0
  3  4  1  0
  4  5  2  0
  5  6  1  0
  7  6  1  0
  8  4  1  0
  8  7  2  0
  9 10  2  0
  9  2  1  0
 12 11  1  0
 13 12  1  0
 13 14  1  1
 15 13  1  0
 15 16  1  6
 16  9  1  0
 17 15  1  0
 18 17  2  0
 19 20  1  0
 21 22  1  1
 21 20  1  0
 23 21  1  0
 23 24  1  6
 24 17  1  0
 25 27  1  0
 25 23  1  0
 26 25  2  0
M  END
$$$$
