HII.pdb
     RDKit          3D

 27 27  0  0  1  0  0  0  0  0999 V2000
   10.4035  -16.3110   19.8365 N   0  0  0  0  0  0  0  0  0  0  0  0
    9.6930  -16.8750   20.9644 C   0  0  1  0  0  0  0  0  0  0  0  0
   10.0294  -18.3135   21.2352 C   0  0  0  0  0  0  0  0  0  0  0  0
    9.4648  -19.2710   20.2684 C   0  0  0  0  0  0  0  0  0  0  0  0
    9.7785  -19.4585   18.9452 C   0  0  0  0  0  0  0  0  0  0  0  0
    8.9920  -20.4437   18.4547 N   0  0  0  0  0  0  0  0  0  0  0  0
    8.2054  -20.8599   19.4521 C   0  0  0  0  0  0  0  0  0  0  0  0
    8.4712  -20.1660   20.5623 N   0  0  0  0  0  0  0  0  0  0  0  0
    9.8941  -16.0130   22.1427 C   0  0  0  0  0  0  0  0  0  0  0  0
   10.9240  -15.3142   22.2505 O   0  0  0  0  0  0  0  0  0  0  0  0
    5.8640  -13.1253   24.1469 C   0  0  0  0  0  0  0  0  0  0  0  0
    7.2757  -13.5143   23.6756 C   0  0  0  0  0  0  0  0  0  0  0  0
    7.7713  -14.5237   24.6498 C   0  0  2  0  0  0  0  0  0  0  0  0
    7.6428  -13.9566   26.0473 C   0  0  0  0  0  0  0  0  0  0  0  0
    9.1349  -15.0941   24.3602 C   0  0  2  0  0  0  0  0  0  0  0  0
    8.9380  -15.9506   23.1769 N   0  0  0  0  0  0  0  0  0  0  0  0
    9.6810  -15.9469   25.4277 C   0  0  0  0  0  0  0  0  0  0  0  0
    9.8423  -17.1754   25.2122 O   0  0  0  0  0  0  0  0  0  0  0  0
   10.7118  -13.3702   30.0194 C   0  0  0  0  0  0  0  0  0  0  0  0
   11.2156  -14.1915   28.8769 C   0  0  0  0  0  0  0  0  0  0  0  0
   10.7062  -15.5889   29.0145 C   0  0  2  0  0  0  0  0  0  0  0  0
   11.5045  -16.3150   30.0466 C   0  0  0  0  0  0  0  0  0  0  0  0
   10.7411  -16.3392   27.6828 C   0  0  2  0  0  0  0  0  0  0  0  0
   10.0574  -15.4913   26.7254 N   0  0  0  0  0  0  0  0  0  0  0  0
   10.1372  -17.6605   27.8206 C   0  0  0  0  0  0  0  0  0  0  0  0
   10.8460  -18.6751   28.0129 O   0  0  0  0  0  0  0  0  0  0  0  0
    8.7706  -17.8496   27.7460 O   0  0  0  0  0  0  0  0  0  0  0  0
  2  1  1  6
  3  2  1  0
  3  4  1  0
  4  5  2  0
  5  6  1  0
  7  6  1  0
  8  4  1  0
  8  7  2  0
  9 10  2  0
  9  2  1  0
 12 11  1  0
 13 12  1  0
 13 14  1  1
 15 13  1  0
 15 16  1  6
 16  9  1  0
 17 15  1  0
 18 17  2  0
 19 20  1  0
 21 22  1  1
 21 20  1  0
 23 21  1  0
 23 24  1  6
 24 17  1  0
 25 27  1  0
 25 23  1  0
 26 25  2  0
M  END
$$$$
