HII.pdb
     RDKit          3D

 27 27  0  0  1  0  0  0  0  0999 V2000
    8.1644  -16.6393   20.9702 N   0  0  0  0  0  0  0  0  0  0  0  0
    7.5825  -16.9648   22.2549 C   0  0  1  0  0  0  0  0  0  0  0  0
    7.3879  -18.4374   22.4769 C   0  0  0  0  0  0  0  0  0  0  0  0
    6.5199  -19.1002   21.4882 C   0  0  0  0  0  0  0  0  0  0  0  0
    5.3099  -18.6948   20.9824 C   0  0  0  0  0  0  0  0  0  0  0  0
    4.8767  -19.6312   20.1075 N   0  0  0  0  0  0  0  0  0  0  0  0
    5.7982  -20.5988   20.0702 C   0  0  0  0  0  0  0  0  0  0  0  0
    6.8043  -20.3022   20.8975 N   0  0  0  0  0  0  0  0  0  0  0  0
    8.3779  -16.3299   23.3208 C   0  0  0  0  0  0  0  0  0  0  0  0
    9.6253  -16.3094   23.2564 O   0  0  0  0  0  0  0  0  0  0  0  0
    6.1520  -12.2570   26.0792 C   0  0  0  0  0  0  0  0  0  0  0  0
    7.1921  -13.0610   25.2805 C   0  0  0  0  0  0  0  0  0  0  0  0
    7.6546  -14.1482   26.1847 C   0  0  2  0  0  0  0  0  0  0  0  0
    8.2416  -13.5268   27.4339 C   0  0  0  0  0  0  0  0  0  0  0  0
    8.5504  -15.1825   25.5551 C   0  0  2  0  0  0  0  0  0  0  0  0
    7.7607  -15.7305   24.4377 N   0  0  0  0  0  0  0  0  0  0  0  0
    8.8975  -16.3093   26.4354 C   0  0  0  0  0  0  0  0  0  0  0  0
    7.9893  -17.0847   26.8297 O   0  0  0  0  0  0  0  0  0  0  0  0
   12.4235  -19.6440   25.0380 C   0  0  0  0  0  0  0  0  0  0  0  0
   11.2561  -18.9629   25.6759 C   0  0  0  0  0  0  0  0  0  0  0  0
   11.6398  -18.5124   27.0474 C   0  0  2  0  0  0  0  0  0  0  0  0
   12.0574  -19.6904   27.8644 C   0  0  0  0  0  0  0  0  0  0  0  0
   10.5020  -17.7578   27.7356 C   0  0  2  0  0  0  0  0  0  0  0  0
   10.2130  -16.6120   26.8952 N   0  0  0  0  0  0  0  0  0  0  0  0
   10.8754  -17.3959   29.0992 C   0  0  0  0  0  0  0  0  0  0  0  0
   11.3545  -16.2678   29.3573 O   0  0  0  0  0  0  0  0  0  0  0  0
   10.7187  -18.2724   30.1556 O   0  0  0  0  0  0  0  0  0  0  0  0
  2  1  1  6
  3  2  1  0
  3  4  1  0
  4  5  2  0
  5  6  1  0
  7  6  1  0
  8  4  1  0
  8  7  2  0
  9 10  2  0
  9  2  1  0
 12 11  1  0
 13 12  1  0
 13 14  1  1
 15 13  1  0
 15 16  1  6
 16  9  1  0
 17 15  1  0
 18 17  2  0
 19 20  1  0
 21 22  1  1
 21 20  1  0
 23 21  1  0
 23 24  1  6
 24 17  1  0
 25 27  1  0
 25 23  1  0
 26 25  2  0
M  END
$$$$
