HII.pdb
     RDKit          3D

 27 27  0  0  1  0  0  0  0  0999 V2000
    9.9339  -13.5941   20.6452 N   0  0  0  0  0  0  0  0  0  0  0  0
    8.7290  -14.0060   21.3333 C   0  0  1  0  0  0  0  0  0  0  0  0
    8.0137  -15.1492   20.6722 C   0  0  0  0  0  0  0  0  0  0  0  0
    7.6084  -14.8990   19.2781 C   0  0  0  0  0  0  0  0  0  0  0  0
    7.7876  -13.7768   18.5081 C   0  0  0  0  0  0  0  0  0  0  0  0
    7.2394  -14.0007   17.2918 N   0  0  0  0  0  0  0  0  0  0  0  0
    6.7298  -15.2364   17.3054 C   0  0  0  0  0  0  0  0  0  0  0  0
    6.9396  -15.8029   18.4969 N   0  0  0  0  0  0  0  0  0  0  0  0
    9.0477  -14.2764   22.7465 C   0  0  0  0  0  0  0  0  0  0  0  0
   10.1957  -14.6380   23.0812 O   0  0  0  0  0  0  0  0  0  0  0  0
    5.9364  -11.5458   26.2771 C   0  0  0  0  0  0  0  0  0  0  0  0
    7.1877  -12.0497   25.5378 C   0  0  0  0  0  0  0  0  0  0  0  0
    7.3285  -13.4861   25.8988 C   0  0  2  0  0  0  0  0  0  0  0  0
    7.4041  -13.6050   27.4059 C   0  0  0  0  0  0  0  0  0  0  0  0
    8.4250  -14.2328   25.1855 C   0  0  2  0  0  0  0  0  0  0  0  0
    8.0746  -14.1366   23.7571 N   0  0  0  0  0  0  0  0  0  0  0  0
    8.5071  -15.6641   25.5171 C   0  0  0  0  0  0  0  0  0  0  0  0
    7.5133  -16.4039   25.3011 O   0  0  0  0  0  0  0  0  0  0  0  0
   12.2458  -18.6428   23.7917 C   0  0  0  0  0  0  0  0  0  0  0  0
   10.9689  -18.0848   24.3318 C   0  0  0  0  0  0  0  0  0  0  0  0
   10.9246  -18.3013   25.8091 C   0  0  2  0  0  0  0  0  0  0  0  0
   11.0278  -19.7611   26.1061 C   0  0  0  0  0  0  0  0  0  0  0  0
    9.6565  -17.7153   26.4305 C   0  0  2  0  0  0  0  0  0  0  0  0
    9.6487  -16.3088   26.0779 N   0  0  0  0  0  0  0  0  0  0  0  0
    9.6327  -17.9512   27.8705 C   0  0  0  0  0  0  0  0  0  0  0  0
   10.0981  -17.1056   28.6688 O   0  0  0  0  0  0  0  0  0  0  0  0
    9.1013  -19.1057   28.4121 O   0  0  0  0  0  0  0  0  0  0  0  0
  2  1  1  6
  3  2  1  0
  3  4  1  0
  4  5  2  0
  5  6  1  0
  7  6  1  0
  8  4  1  0
  8  7  2  0
  9 10  2  0
  9  2  1  0
 12 11  1  0
 13 12  1  0
 13 14  1  1
 15 13  1  0
 15 16  1  6
 16  9  1  0
 17 15  1  0
 18 17  2  0
 19 20  1  0
 21 22  1  6
 21 20  1  0
 23 21  1  0
 23 24  1  1
 24 17  1  0
 25 27  1  0
 25 23  1  0
 26 25  2  0
M  END
$$$$
