HII.pdb
     RDKit          3D

 27 27  0  0  1  0  0  0  0  0999 V2000
   12.4907  -16.9476   19.4334 N   0  0  0  0  0  0  0  0  0  0  0  0
   11.5640  -17.5385   20.3752 C   0  0  1  0  0  0  0  0  0  0  0  0
   12.0679  -18.8032   21.0094 C   0  0  0  0  0  0  0  0  0  0  0  0
   12.2586  -19.9270   20.0762 C   0  0  0  0  0  0  0  0  0  0  0  0
   11.3424  -20.8381   19.6127 C   0  0  0  0  0  0  0  0  0  0  0  0
   11.9761  -21.6967   18.7813 N   0  0  0  0  0  0  0  0  0  0  0  0
   13.2597  -21.3273   18.7291 C   0  0  0  0  0  0  0  0  0  0  0  0
   13.4580  -20.2577   19.5045 N   0  0  0  0  0  0  0  0  0  0  0  0
   11.1702  -16.5229   21.3680 C   0  0  0  0  0  0  0  0  0  0  0  0
   12.0174  -15.7383   21.8448 O   0  0  0  0  0  0  0  0  0  0  0  0
    6.5572  -13.8783   20.7896 C   0  0  0  0  0  0  0  0  0  0  0  0
    8.0422  -14.1454   21.0892 C   0  0  0  0  0  0  0  0  0  0  0  0
    8.0722  -14.9354   22.3495 C   0  0  2  0  0  0  0  0  0  0  0  0
    7.3103  -14.1797   23.4170 C   0  0  0  0  0  0  0  0  0  0  0  0
    9.4349  -15.3928   22.7996 C   0  0  2  0  0  0  0  0  0  0  0  0
    9.8356  -16.4061   21.8072 N   0  0  0  0  0  0  0  0  0  0  0  0
    9.4573  -16.0441   24.1188 C   0  0  0  0  0  0  0  0  0  0  0  0
    9.3027  -17.2900   24.1928 O   0  0  0  0  0  0  0  0  0  0  0  0
   10.6193  -12.7836   28.3666 C   0  0  0  0  0  0  0  0  0  0  0  0
   10.7524  -13.8545   27.3327 C   0  0  0  0  0  0  0  0  0  0  0  0
    9.8757  -15.0058   27.7027 C   0  0  2  0  0  0  0  0  0  0  0  0
   10.3339  -15.5899   28.9983 C   0  0  0  0  0  0  0  0  0  0  0  0
    9.8522  -16.0750   26.6100 C   0  0  2  0  0  0  0  0  0  0  0  0
    9.6459  -15.3688   25.3605 N   0  0  0  0  0  0  0  0  0  0  0  0
    8.8236  -17.0723   26.8879 C   0  0  0  0  0  0  0  0  0  0  0  0
    7.6233  -16.8552   26.6033 O   0  0  0  0  0  0  0  0  0  0  0  0
    9.1246  -18.2879   27.4714 O   0  0  0  0  0  0  0  0  0  0  0  0
  2  1  1  6
  3  2  1  0
  3  4  1  0
  4  5  2  0
  5  6  1  0
  7  6  1  0
  8  4  1  0
  8  7  2  0
  9 10  2  0
  9  2  1  0
 12 11  1  0
 13 12  1  0
 13 14  1  1
 15 13  1  0
 15 16  1  6
 16  9  1  0
 17 15  1  0
 18 17  2  0
 19 20  1  0
 21 22  1  1
 21 20  1  0
 23 21  1  0
 23 24  1  6
 24 17  1  0
 25 27  1  0
 25 23  1  0
 26 25  2  0
M  END
$$$$
