HII.pdb
     RDKit          3D

 27 27  0  0  1  0  0  0  0  0999 V2000
    8.8996  -15.0875   20.3105 N   0  0  0  0  0  0  0  0  0  0  0  0
    8.1164  -15.6055   21.4119 C   0  0  1  0  0  0  0  0  0  0  0  0
    7.9337  -17.0959   21.3779 C   0  0  0  0  0  0  0  0  0  0  0  0
    7.2322  -17.6037   20.1861 C   0  0  0  0  0  0  0  0  0  0  0  0
    6.8291  -16.9291   19.0606 C   0  0  0  0  0  0  0  0  0  0  0  0
    6.2119  -17.8052   18.2349 N   0  0  0  0  0  0  0  0  0  0  0  0
    6.2307  -18.9996   18.8349 C   0  0  0  0  0  0  0  0  0  0  0  0
    6.8429  -18.9056   20.0185 N   0  0  0  0  0  0  0  0  0  0  0  0
    8.6961  -15.1332   22.6818 C   0  0  0  0  0  0  0  0  0  0  0  0
    9.9310  -14.9874   22.8014 O   0  0  0  0  0  0  0  0  0  0  0  0
    5.8289  -11.7996   25.8268 C   0  0  0  0  0  0  0  0  0  0  0  0
    6.9865  -12.4150   25.0221 C   0  0  0  0  0  0  0  0  0  0  0  0
    7.4036  -13.6334   25.7672 C   0  0  2  0  0  0  0  0  0  0  0  0
    7.7570  -13.2405   27.1856 C   0  0  0  0  0  0  0  0  0  0  0  0
    8.4596  -14.4753   25.1004 C   0  0  2  0  0  0  0  0  0  0  0  0
    7.8814  -14.8333   23.7927 N   0  0  0  0  0  0  0  0  0  0  0  0
    8.7697  -15.7335   25.7973 C   0  0  0  0  0  0  0  0  0  0  0  0
    7.8540  -16.5747   25.9857 O   0  0  0  0  0  0  0  0  0  0  0  0
   13.2230  -18.1339   24.5496 C   0  0  0  0  0  0  0  0  0  0  0  0
   11.8280  -17.7708   24.9441 C   0  0  0  0  0  0  0  0  0  0  0  0
   11.7156  -17.7996   26.4333 C   0  0  2  0  0  0  0  0  0  0  0  0
   12.0553  -19.1639   26.9363 C   0  0  0  0  0  0  0  0  0  0  0  0
   10.3217  -17.3849   26.9051 C   0  0  2  0  0  0  0  0  0  0  0  0
   10.0563  -16.0975   26.2930 N   0  0  0  0  0  0  0  0  0  0  0  0
   10.2592  -17.3567   28.3629 C   0  0  0  0  0  0  0  0  0  0  0  0
   10.4560  -16.2933   28.9949 O   0  0  0  0  0  0  0  0  0  0  0  0
    9.9829  -18.4898   29.1035 O   0  0  0  0  0  0  0  0  0  0  0  0
  2  1  1  6
  3  2  1  0
  3  4  1  0
  4  5  2  0
  5  6  1  0
  7  6  1  0
  8  4  1  0
  8  7  2  0
  9 10  2  0
  9  2  1  0
 12 11  1  0
 13 12  1  0
 13 14  1  1
 15 13  1  0
 15 16  1  6
 16  9  1  0
 17 15  1  0
 18 17  2  0
 19 20  1  0
 21 22  1  6
 21 20  1  0
 23 21  1  0
 23 24  1  6
 24 17  1  0
 25 27  1  0
 25 23  1  0
 26 25  2  0
M  END
$$$$
