HII.pdb
     RDKit          3D

 27 27  0  0  1  0  0  0  0  0999 V2000
    6.8698  -20.4355   23.6082 N   0  0  0  0  0  0  0  0  0  0  0  0
    7.0871  -19.2005   24.3311 C   0  0  1  0  0  0  0  0  0  0  0  0
    7.7624  -19.3864   25.6598 C   0  0  0  0  0  0  0  0  0  0  0  0
    7.1190  -20.3723   26.5453 C   0  0  0  0  0  0  0  0  0  0  0  0
    5.8044  -20.4707   26.9281 C   0  0  0  0  0  0  0  0  0  0  0  0
    5.6795  -21.5295   27.7608 N   0  0  0  0  0  0  0  0  0  0  0  0
    6.8913  -22.0779   27.8932 C   0  0  0  0  0  0  0  0  0  0  0  0
    7.7819  -21.3963   27.1673 N   0  0  0  0  0  0  0  0  0  0  0  0
    7.7999  -18.2492   23.4599 C   0  0  0  0  0  0  0  0  0  0  0  0
    8.6921  -18.6465   22.6810 O   0  0  0  0  0  0  0  0  0  0  0  0
    5.8507  -14.1595   20.7253 C   0  0  0  0  0  0  0  0  0  0  0  0
    6.8395  -15.2854   21.0728 C   0  0  0  0  0  0  0  0  0  0  0  0
    7.5655  -14.8342   22.2906 C   0  0  2  0  0  0  0  0  0  0  0  0
    8.2943  -13.5457   21.9746 C   0  0  0  0  0  0  0  0  0  0  0  0
    8.4404  -15.8689   22.9485 C   0  0  2  0  0  0  0  0  0  0  0  0
    7.4993  -16.8719   23.4781 N   0  0  0  0  0  0  0  0  0  0  0  0
    9.2291  -15.3699   24.0861 C   0  0  0  0  0  0  0  0  0  0  0  0
   10.3185  -14.7805   23.8684 O   0  0  0  0  0  0  0  0  0  0  0  0
    7.2064  -12.0604   27.0595 C   0  0  0  0  0  0  0  0  0  0  0  0
    8.1677  -12.9320   26.3180 C   0  0  0  0  0  0  0  0  0  0  0  0
    8.7386  -13.9434   27.2574 C   0  0  2  0  0  0  0  0  0  0  0  0
    9.4829  -13.2496   28.3504 C   0  0  0  0  0  0  0  0  0  0  0  0
    9.6482  -14.9381   26.5357 C   0  0  2  0  0  0  0  0  0  0  0  0
    8.8570  -15.4970   25.4568 N   0  0  0  0  0  0  0  0  0  0  0  0
   10.1512  -15.9438   27.4659 C   0  0  0  0  0  0  0  0  0  0  0  0
    9.5462  -17.0282   27.6301 O   0  0  0  0  0  0  0  0  0  0  0  0
   11.3054  -15.7471   28.1993 O   0  0  0  0  0  0  0  0  0  0  0  0
  2  1  1  6
  3  2  1  0
  3  4  1  0
  4  5  2  0
  5  6  1  0
  7  6  1  0
  8  4  1  0
  8  7  2  0
  9 10  2  0
  9  2  1  0
 12 11  1  0
 13 12  1  0
 13 14  1  6
 15 13  1  0
 15 16  1  1
 16  9  1  0
 17 15  1  0
 18 17  2  0
 19 20  1  0
 21 22  1  1
 21 20  1  0
 23 21  1  0
 23 24  1  6
 24 17  1  0
 25 27  1  0
 25 23  1  0
 26 25  2  0
M  END
$$$$
