HII.pdb
     RDKit          3D

 27 27  0  0  1  0  0  0  0  0999 V2000
    7.1242  -17.7466   20.9632 N   0  0  0  0  0  0  0  0  0  0  0  0
    7.1009  -17.7550   22.4104 C   0  0  1  0  0  0  0  0  0  0  0  0
    7.4403  -19.0874   23.0147 C   0  0  0  0  0  0  0  0  0  0  0  0
    6.5368  -20.1860   22.6312 C   0  0  0  0  0  0  0  0  0  0  0  0
    5.4287  -20.1586   21.8214 C   0  0  0  0  0  0  0  0  0  0  0  0
    4.9079  -21.4060   21.7668 N   0  0  0  0  0  0  0  0  0  0  0  0
    5.6762  -22.1925   22.5271 C   0  0  0  0  0  0  0  0  0  0  0  0
    6.6703  -21.4785   23.0626 N   0  0  0  0  0  0  0  0  0  0  0  0
    7.9589  -16.6677   22.9141 C   0  0  0  0  0  0  0  0  0  0  0  0
    9.0540  -16.4173   22.3676 O   0  0  0  0  0  0  0  0  0  0  0  0
    5.3504  -12.8302   25.7654 C   0  0  0  0  0  0  0  0  0  0  0  0
    6.2285  -13.4441   24.6616 C   0  0  0  0  0  0  0  0  0  0  0  0
    7.4613  -13.9293   25.3386 C   0  0  2  0  0  0  0  0  0  0  0  0
    8.1409  -12.7569   26.0129 C   0  0  0  0  0  0  0  0  0  0  0  0
    8.3932  -14.7495   24.4857 C   0  0  2  0  0  0  0  0  0  0  0  0
    7.5737  -15.8825   24.0199 N   0  0  0  0  0  0  0  0  0  0  0  0
    9.5453  -15.3139   25.2062 C   0  0  0  0  0  0  0  0  0  0  0  0
   10.7088  -14.9838   24.8613 O   0  0  0  0  0  0  0  0  0  0  0  0
   10.3319  -13.7185   29.6928 C   0  0  0  0  0  0  0  0  0  0  0  0
    9.8442  -14.8383   28.8316 C   0  0  0  0  0  0  0  0  0  0  0  0
   10.9290  -15.2388   27.8860 C   0  0  2  0  0  0  0  0  0  0  0  0
   11.1804  -14.1341   26.9133 C   0  0  0  0  0  0  0  0  0  0  0  0
   10.5900  -16.5355   27.1502 C   0  0  2  0  0  0  0  0  0  0  0  0
    9.4589  -16.2294   26.2960 N   0  0  0  0  0  0  0  0  0  0  0  0
   10.3240  -17.6114   28.0996 C   0  0  0  0  0  0  0  0  0  0  0  0
    9.1748  -18.0954   28.2181 O   0  0  0  0  0  0  0  0  0  0  0  0
   11.3174  -18.1389   28.9018 O   0  0  0  0  0  0  0  0  0  0  0  0
  2  1  1  6
  3  2  1  0
  3  4  1  0
  4  5  2  0
  5  6  1  0
  7  6  1  0
  8  4  1  0
  8  7  2  0
  9 10  2  0
  9  2  1  0
 12 11  1  0
 13 12  1  0
 13 14  1  6
 15 13  1  0
 15 16  1  1
 16  9  1  0
 17 15  1  0
 18 17  2  0
 19 20  1  0
 21 22  1  6
 21 20  1  0
 23 21  1  0
 23 24  1  1
 24 17  1  0
 25 27  1  0
 25 23  1  0
 26 25  2  0
M  END
$$$$
