HII.pdb
     RDKit          3D

 27 27  0  0  1  0  0  0  0  0999 V2000
    9.5162  -17.8021   20.1757 N   0  0  0  0  0  0  0  0  0  0  0  0
    8.3317  -17.0389   19.8448 C   0  0  1  0  0  0  0  0  0  0  0  0
    7.4855  -17.6663   18.7743 C   0  0  0  0  0  0  0  0  0  0  0  0
    8.2172  -18.0439   17.5528 C   0  0  0  0  0  0  0  0  0  0  0  0
    9.2611  -17.4049   16.9313 C   0  0  0  0  0  0  0  0  0  0  0  0
    9.6031  -18.1145   15.8315 N   0  0  0  0  0  0  0  0  0  0  0  0
    8.7885  -19.1726   15.7703 C   0  0  0  0  0  0  0  0  0  0  0  0
    7.9390  -19.1540   16.8011 N   0  0  0  0  0  0  0  0  0  0  0  0
    7.5743  -16.7625   21.0785 C   0  0  0  0  0  0  0  0  0  0  0  0
    6.4514  -16.2177   21.0262 O   0  0  0  0  0  0  0  0  0  0  0  0
    6.4297  -19.7010   25.9682 C   0  0  0  0  0  0  0  0  0  0  0  0
    6.3970  -18.2404   25.4870 C   0  0  0  0  0  0  0  0  0  0  0  0
    7.1613  -18.2102   24.2109 C   0  0  2  0  0  0  0  0  0  0  0  0
    8.4711  -18.9424   24.4096 C   0  0  0  0  0  0  0  0  0  0  0  0
    7.3265  -16.8514   23.5823 C   0  0  2  0  0  0  0  0  0  0  0  0
    8.0894  -17.1018   22.3463 N   0  0  0  0  0  0  0  0  0  0  0  0
    8.1037  -15.8952   24.3864 C   0  0  0  0  0  0  0  0  0  0  0  0
    8.4234  -14.7868   23.8857 O   0  0  0  0  0  0  0  0  0  0  0  0
    6.4302  -12.3907   25.6981 C   0  0  0  0  0  0  0  0  0  0  0  0
    7.5738  -13.3268   25.4762 C   0  0  0  0  0  0  0  0  0  0  0  0
    7.8451  -14.0784   26.7382 C   0  0  2  0  0  0  0  0  0  0  0  0
    8.1075  -13.1158   27.8493 C   0  0  0  0  0  0  0  0  0  0  0  0
    9.0164  -15.0484   26.5802 C   0  0  2  0  0  0  0  0  0  0  0  0
    8.5399  -16.1185   25.7256 N   0  0  0  0  0  0  0  0  0  0  0  0
    9.4802  -15.5118   27.8840 C   0  0  0  0  0  0  0  0  0  0  0  0
    8.9151  -16.4662   28.4660 O   0  0  0  0  0  0  0  0  0  0  0  0
   10.5522  -14.9247   28.5281 O   0  0  0  0  0  0  0  0  0  0  0  0
  2  1  1  1
  3  2  1  0
  3  4  1  0
  4  5  2  0
  5  6  1  0
  7  6  1  0
  8  4  1  0
  8  7  2  0
  9 10  2  0
  9  2  1  0
 12 11  1  0
 13 12  1  0
 13 14  1  1
 15 13  1  0
 15 16  1  6
 16  9  1  0
 17 15  1  0
 18 17  2  0
 19 20  1  0
 21 22  1  1
 21 20  1  0
 23 21  1  0
 23 24  1  6
 24 17  1  0
 25 27  1  0
 25 23  1  0
 26 25  2  0
M  END
$$$$
