HII.pdb
     RDKit          3D

 27 27  0  0  1  0  0  0  0  0999 V2000
    9.5264  -19.3647   19.7470 N   0  0  0  0  0  0  0  0  0  0  0  0
    8.9231  -18.8356   20.9516 C   0  0  1  0  0  0  0  0  0  0  0  0
    9.0993  -19.7163   22.1553 C   0  0  0  0  0  0  0  0  0  0  0  0
    8.5408  -21.0722   22.0139 C   0  0  0  0  0  0  0  0  0  0  0  0
    7.9154  -21.6474   20.9358 C   0  0  0  0  0  0  0  0  0  0  0  0
    7.5601  -22.9091   21.2704 N   0  0  0  0  0  0  0  0  0  0  0  0
    7.9562  -23.1139   22.5306 C   0  0  0  0  0  0  0  0  0  0  0  0
    8.5531  -22.0169   23.0049 N   0  0  0  0  0  0  0  0  0  0  0  0
    9.4126  -17.4636   21.1751 C   0  0  0  0  0  0  0  0  0  0  0  0
   10.6372  -17.2169   21.1689 O   0  0  0  0  0  0  0  0  0  0  0  0
    7.1697  -12.0829   19.9151 C   0  0  0  0  0  0  0  0  0  0  0  0
    8.3017  -12.7148   20.7430 C   0  0  0  0  0  0  0  0  0  0  0  0
    8.0362  -14.1787   20.7533 C   0  0  2  0  0  0  0  0  0  0  0  0
    6.5875  -14.4089   21.1269 C   0  0  0  0  0  0  0  0  0  0  0  0
    8.9997  -15.0100   21.5591 C   0  0  2  0  0  0  0  0  0  0  0  0
    8.5211  -16.3950   21.4010 N   0  0  0  0  0  0  0  0  0  0  0  0
    9.0061  -14.7146   23.0006 C   0  0  0  0  0  0  0  0  0  0  0  0
    9.3688  -13.5765   23.3940 O   0  0  0  0  0  0  0  0  0  0  0  0
    6.6784  -11.8983   25.4192 C   0  0  0  0  0  0  0  0  0  0  0  0
    7.7996  -12.8518   25.1596 C   0  0  0  0  0  0  0  0  0  0  0  0
    7.3463  -14.2399   25.4739 C   0  0  2  0  0  0  0  0  0  0  0  0
    6.6990  -14.2643   26.8193 C   0  0  0  0  0  0  0  0  0  0  0  0
    8.5009  -15.2406   25.4153 C   0  0  2  0  0  0  0  0  0  0  0  0
    8.6246  -15.6310   24.0243 N   0  0  0  0  0  0  0  0  0  0  0  0
    8.2534  -16.3648   26.3122 C   0  0  0  0  0  0  0  0  0  0  0  0
    7.6277  -17.3762   25.9189 O   0  0  0  0  0  0  0  0  0  0  0  0
    8.6935  -16.3641   27.6218 O   0  0  0  0  0  0  0  0  0  0  0  0
  2  1  1  6
  3  2  1  0
  3  4  1  0
  4  5  2  0
  5  6  1  0
  7  6  1  0
  8  4  1  0
  8  7  2  0
  9 10  2  0
  9  2  1  0
 12 11  1  0
 13 12  1  0
 13 14  1  1
 15 13  1  0
 15 16  1  1
 16  9  1  0
 17 15  1  0
 18 17  2  0
 19 20  1  0
 21 22  1  1
 21 20  1  0
 23 21  1  0
 23 24  1  6
 24 17  1  0
 25 27  1  0
 25 23  1  0
 26 25  2  0
M  END
$$$$
