EPT.pdb
     RDKit          3D

 24 24  0  0  1  0  0  0  0  0999 V2000
    8.4767  -14.2939   21.1578 N   0  0  0  0  0  0  0  0  0  0  0  0
    7.6703  -14.6605   22.3264 C   0  0  1  0  0  0  0  0  0  0  0  0
    7.2698  -16.0871   22.1220 C   0  0  0  0  0  0  0  0  0  0  0  0
    6.6771  -16.3813   20.7705 C   0  0  0  0  0  0  0  0  0  0  0  0
    6.4356  -17.8017   20.5082 C   0  0  0  0  0  0  0  0  0  0  0  0
    5.8126  -18.6084   21.2171 O   0  0  0  0  0  0  0  0  0  0  0  0
    8.3628  -14.3787   23.5933 C   0  0  0  0  0  0  0  0  0  0  0  0
    9.5250  -14.8130   23.7544 O   0  0  0  0  0  0  0  0  0  0  0  0
    6.9667  -18.3247   19.3169 O   0  0  0  0  0  0  0  0  0  0  0  0
    7.8090  -13.6347   24.6794 N   0  0  0  0  0  0  0  0  0  0  0  0
    6.6915  -12.7314   24.4634 C   0  0  0  0  0  0  0  0  0  0  0  0
    6.4803  -12.0133   25.7813 C   0  0  0  0  0  0  0  0  0  0  0  0
    6.9460  -13.0664   26.7495 C   0  0  0  0  0  0  0  0  0  0  0  0
    8.1780  -13.5903   26.0485 C   0  0  1  0  0  0  0  0  0  0  0  0
    8.5406  -14.8701   26.6756 C   0  0  0  0  0  0  0  0  0  0  0  0
    8.0253  -15.9784   26.5092 O   0  0  0  0  0  0  0  0  0  0  0  0
   11.9424  -17.7496   28.0897 C   0  0  0  0  0  0  0  0  0  0  0  0
   11.4769  -16.4398   27.5010 C   0  0  1  0  0  0  0  0  0  0  0  0
   11.3174  -16.5854   26.1237 O   0  0  0  0  0  0  0  0  0  0  0  0
   10.1774  -16.0365   28.1757 C   0  0  2  0  0  0  0  0  0  0  0  0
    9.6415  -14.8190   27.6047 N   0  0  0  0  0  0  0  0  0  0  0  0
   10.4911  -15.7764   29.5990 C   0  0  0  0  0  0  0  0  0  0  0  0
   10.6440  -14.6103   30.0581 O   0  0  0  0  0  0  0  0  0  0  0  0
   10.6272  -16.8346   30.4805 O   0  0  0  0  0  0  0  0  0  0  0  0
  2  1  1  6
  2  3  1  0
  3  4  1  0
  4  5  1  0
  5  9  1  0
  6  5  2  0
  7  2  1  0
  7 10  1  0
  8  7  2  0
 10 14  1  0
 11 10  1  0
 11 12  1  0
 12 13  1  0
 14 13  1  0
 14 15  1  1
 15 21  1  0
 16 15  2  0
 18 17  1  1
 19 18  1  0
 20 21  1  6
 20 22  1  0
 20 18  1  0
 22 24  1  0
 23 22  2  0
M  END
$$$$
