EPT.pdb
     RDKit          3D

 24 24  0  0  1  0  0  0  0  0999 V2000
   11.1891  -16.4127   19.6692 N   0  0  0  0  0  0  0  0  0  0  0  0
   10.1663  -16.8543   20.6227 C   0  0  1  0  0  0  0  0  0  0  0  0
   10.4670  -18.2897   20.9171 C   0  0  0  0  0  0  0  0  0  0  0  0
   10.6080  -19.1604   19.6980 C   0  0  0  0  0  0  0  0  0  0  0  0
   11.0409  -20.5314   19.9764 C   0  0  0  0  0  0  0  0  0  0  0  0
   11.2491  -21.4417   19.1581 O   0  0  0  0  0  0  0  0  0  0  0  0
   10.0844  -15.9762   21.8002 C   0  0  0  0  0  0  0  0  0  0  0  0
   11.1442  -15.6234   22.3637 O   0  0  0  0  0  0  0  0  0  0  0  0
   11.2484  -20.8684   21.3248 O   0  0  0  0  0  0  0  0  0  0  0  0
    8.8708  -15.4809   22.3673 N   0  0  0  0  0  0  0  0  0  0  0  0
    7.6504  -15.4368   21.5800 C   0  0  0  0  0  0  0  0  0  0  0  0
    6.6288  -14.7217   22.4414 C   0  0  0  0  0  0  0  0  0  0  0  0
    7.1056  -15.1064   23.8154 C   0  0  0  0  0  0  0  0  0  0  0  0
    8.6022  -14.9643   23.6610 C   0  0  1  0  0  0  0  0  0  0  0  0
    9.2374  -15.6565   24.7924 C   0  0  0  0  0  0  0  0  0  0  0  0
    9.5471  -16.8467   24.8867 O   0  0  0  0  0  0  0  0  0  0  0  0
   11.3899  -13.4023   27.6479 C   0  0  0  0  0  0  0  0  0  0  0  0
   10.3663  -14.3669   28.1961 C   0  0  1  0  0  0  0  0  0  0  0  0
    9.2143  -13.6646   28.5472 O   0  0  0  0  0  0  0  0  0  0  0  0
   10.0791  -15.4234   27.1434 C   0  0  2  0  0  0  0  0  0  0  0  0
    9.5353  -14.8340   25.9382 N   0  0  0  0  0  0  0  0  0  0  0  0
    9.0579  -16.3330   27.7104 C   0  0  0  0  0  0  0  0  0  0  0  0
    7.8753  -16.3838   27.2712 O   0  0  0  0  0  0  0  0  0  0  0  0
    9.3867  -17.1699   28.7626 O   0  0  0  0  0  0  0  0  0  0  0  0
  2  1  1  6
  2  3  1  0
  3  4  1  0
  4  5  1  0
  5  9  1  0
  6  5  2  0
  7  2  1  0
  7 10  1  0
  8  7  2  0
 10 14  1  0
 11 10  1  0
 11 12  1  0
 12 13  1  0
 14 13  1  0
 14 15  1  1
 15 21  1  0
 16 15  2  0
 18 17  1  6
 19 18  1  0
 20 21  1  6
 20 22  1  0
 20 18  1  0
 22 24  1  0
 23 22  2  0
M  END
$$$$
