EPT.pdb
     RDKit          3D

 24 24  0  0  1  0  0  0  0  0999 V2000
   10.2837  -15.6158   15.7022 N   0  0  0  0  0  0  0  0  0  0  0  0
    9.1360  -15.7470   16.6053 C   0  0  1  0  0  0  0  0  0  0  0  0
    8.5655  -17.1069   16.3549 C   0  0  0  0  0  0  0  0  0  0  0  0
    7.5353  -17.5461   17.3600 C   0  0  0  0  0  0  0  0  0  0  0  0
    6.9937  -18.8870   17.1298 C   0  0  0  0  0  0  0  0  0  0  0  0
    7.4803  -19.7919   16.4325 O   0  0  0  0  0  0  0  0  0  0  0  0
    9.4913  -15.4636   18.0045 C   0  0  0  0  0  0  0  0  0  0  0  0
   10.3424  -16.1869   18.5684 O   0  0  0  0  0  0  0  0  0  0  0  0
    5.7809  -19.1982   17.7679 O   0  0  0  0  0  0  0  0  0  0  0  0
    8.9352  -14.4095   18.7915 N   0  0  0  0  0  0  0  0  0  0  0  0
    8.1092  -13.3843   18.1768 C   0  0  0  0  0  0  0  0  0  0  0  0
    7.8336  -12.3677   19.2666 C   0  0  0  0  0  0  0  0  0  0  0  0
    7.8668  -13.2500   20.4847 C   0  0  0  0  0  0  0  0  0  0  0  0
    9.0530  -14.1347   20.1783 C   0  0  1  0  0  0  0  0  0  0  0  0
    8.9972  -15.2899   21.0865 C   0  0  0  0  0  0  0  0  0  0  0  0
    8.0680  -16.0816   21.2636 O   0  0  0  0  0  0  0  0  0  0  0  0
   10.9477  -18.2968   21.1047 C   0  0  0  0  0  0  0  0  0  0  0  0
   11.3436  -17.6192   22.3942 C   0  0  1  0  0  0  0  0  0  0  0  0
   12.5680  -16.9761   22.2188 O   0  0  0  0  0  0  0  0  0  0  0  0
   10.2493  -16.6423   22.7876 C   0  0  2  0  0  0  0  0  0  0  0  0
   10.1842  -15.5245   21.8701 N   0  0  0  0  0  0  0  0  0  0  0  0
   10.5989  -16.1168   24.1267 C   0  0  0  0  0  0  0  0  0  0  0  0
   11.0425  -14.9479   24.3026 O   0  0  0  0  0  0  0  0  0  0  0  0
   10.4428  -16.9174   25.2449 O   0  0  0  0  0  0  0  0  0  0  0  0
  2  1  1  6
  2  3  1  0
  3  4  1  0
  4  5  1  0
  5  9  1  0
  6  5  2  0
  7  2  1  0
  7 10  1  0
  8  7  2  0
 10 14  1  0
 11 10  1  0
 11 12  1  0
 12 13  1  0
 14 13  1  0
 14 15  1  1
 15 21  1  0
 16 15  2  0
 18 17  1  6
 19 18  1  0
 20 21  1  6
 20 22  1  0
 20 18  1  0
 22 24  1  0
 23 22  2  0
M  END
$$$$
