EPT.pdb
     RDKit          3D

 24 24  0  0  1  0  0  0  0  0999 V2000
    8.6294  -14.3238   21.2569 N   0  0  0  0  0  0  0  0  0  0  0  0
    7.6237  -14.3643   22.3232 C   0  0  1  0  0  0  0  0  0  0  0  0
    6.8198  -15.6035   22.0873 C   0  0  0  0  0  0  0  0  0  0  0  0
    7.6312  -16.8685   22.0111 C   0  0  0  0  0  0  0  0  0  0  0  0
    6.8393  -18.0912   21.8618 C   0  0  0  0  0  0  0  0  0  0  0  0
    7.2110  -19.2620   22.0419 O   0  0  0  0  0  0  0  0  0  0  0  0
    8.2241  -14.2513   23.6615 C   0  0  0  0  0  0  0  0  0  0  0  0
    9.2976  -14.8508   23.8929 O   0  0  0  0  0  0  0  0  0  0  0  0
    5.4993  -17.9335   21.4687 O   0  0  0  0  0  0  0  0  0  0  0  0
    7.6736  -13.4987   24.7432 N   0  0  0  0  0  0  0  0  0  0  0  0
    6.5859  -12.5627   24.5149 C   0  0  0  0  0  0  0  0  0  0  0  0
    6.3732  -11.8471   25.8339 C   0  0  0  0  0  0  0  0  0  0  0  0
    6.7928  -12.9189   26.8026 C   0  0  0  0  0  0  0  0  0  0  0  0
    8.0210  -13.4732   26.1185 C   0  0  1  0  0  0  0  0  0  0  0  0
    8.3367  -14.7666   26.7429 C   0  0  0  0  0  0  0  0  0  0  0  0
    7.6623  -15.7994   26.7500 O   0  0  0  0  0  0  0  0  0  0  0  0
   10.9921  -17.0173   26.0192 C   0  0  0  0  0  0  0  0  0  0  0  0
   11.2961  -16.6008   27.4379 C   0  0  1  0  0  0  0  0  0  0  0  0
   12.3112  -15.6453   27.4294 O   0  0  0  0  0  0  0  0  0  0  0  0
   10.0249  -16.0617   28.0707 C   0  0  2  0  0  0  0  0  0  0  0  0
    9.5992  -14.8324   27.4357 N   0  0  0  0  0  0  0  0  0  0  0  0
   10.3393  -15.7619   29.4860 C   0  0  0  0  0  0  0  0  0  0  0  0
   10.3906  -14.5830   29.9349 O   0  0  0  0  0  0  0  0  0  0  0  0
   10.5905  -16.7957   30.3713 O   0  0  0  0  0  0  0  0  0  0  0  0
  2  1  1  6
  2  3  1  0
  3  4  1  0
  4  5  1  0
  5  9  1  0
  6  5  2  0
  7  2  1  0
  7 10  1  0
  8  7  2  0
 10 14  1  0
 11 10  1  0
 11 12  1  0
 12 13  1  0
 14 13  1  0
 14 15  1  1
 15 21  1  0
 16 15  2  0
 18 17  1  6
 19 18  1  0
 20 21  1  6
 20 22  1  0
 20 18  1  0
 22 24  1  0
 23 22  2  0
M  END
$$$$
