EPT.pdb
     RDKit          3D

 24 24  0  0  1  0  0  0  0  0999 V2000
   11.5851  -15.2743   16.7045 N   0  0  0  0  0  0  0  0  0  0  0  0
   10.4119  -15.6324   17.5080 C   0  0  1  0  0  0  0  0  0  0  0  0
   10.5207  -17.1015   17.7677 C   0  0  0  0  0  0  0  0  0  0  0  0
   10.3820  -17.9637   16.5423 C   0  0  0  0  0  0  0  0  0  0  0  0
   10.6457  -19.3866   16.7666 C   0  0  0  0  0  0  0  0  0  0  0  0
   10.8181  -19.9639   17.8522 O   0  0  0  0  0  0  0  0  0  0  0  0
   10.2791  -14.7914   18.7078 C   0  0  0  0  0  0  0  0  0  0  0  0
   11.2494  -14.7037   19.4926 O   0  0  0  0  0  0  0  0  0  0  0  0
   10.7138  -20.2052   15.6264 O   0  0  0  0  0  0  0  0  0  0  0  0
    9.1107  -14.0498   19.0605 N   0  0  0  0  0  0  0  0  0  0  0  0
    8.0873  -13.7659   18.0688 C   0  0  0  0  0  0  0  0  0  0  0  0
    7.0956  -12.8448   18.7507 C   0  0  0  0  0  0  0  0  0  0  0  0
    7.2282  -13.3013   20.1780 C   0  0  0  0  0  0  0  0  0  0  0  0
    8.7249  -13.4720   20.2975 C   0  0  1  0  0  0  0  0  0  0  0  0
    8.9907  -14.2650   21.5070 C   0  0  0  0  0  0  0  0  0  0  0  0
    8.6717  -14.0162   22.6723 O   0  0  0  0  0  0  0  0  0  0  0  0
   10.1264  -18.7517   23.1234 C   0  0  0  0  0  0  0  0  0  0  0  0
    9.9697  -17.8487   21.9239 C   0  0  1  0  0  0  0  0  0  0  0  0
    8.8012  -18.1870   21.2430 O   0  0  0  0  0  0  0  0  0  0  0  0
    9.9432  -16.4066   22.3995 C   0  0  2  0  0  0  0  0  0  0  0  0
    9.7187  -15.4919   21.3002 N   0  0  0  0  0  0  0  0  0  0  0  0
   11.2764  -16.1155   22.9736 C   0  0  0  0  0  0  0  0  0  0  0  0
   12.1740  -15.5043   22.3294 O   0  0  0  0  0  0  0  0  0  0  0  0
   11.5755  -16.5180   24.2636 O   0  0  0  0  0  0  0  0  0  0  0  0
  2  1  1  1
  2  3  1  0
  3  4  1  0
  4  5  1  0
  5  9  1  0
  6  5  2  0
  7  2  1  0
  7 10  1  0
  8  7  2  0
 10 14  1  0
 11 10  1  0
 11 12  1  0
 12 13  1  0
 14 13  1  0
 14 15  1  1
 15 21  1  0
 16 15  2  0
 18 17  1  1
 19 18  1  0
 20 21  1  6
 20 22  1  0
 20 18  1  0
 22 24  1  0
 23 22  2  0
M  END
$$$$
