EPT.pdb
     RDKit          3D

 24 24  0  0  1  0  0  0  0  0999 V2000
   10.0846  -16.7316   16.3272 N   0  0  0  0  0  0  0  0  0  0  0  0
    8.9830  -16.1578   17.1066 C   0  0  1  0  0  0  0  0  0  0  0  0
    7.9387  -17.2250   17.1950 C   0  0  0  0  0  0  0  0  0  0  0  0
    7.4699  -17.7510   15.8654 C   0  0  0  0  0  0  0  0  0  0  0  0
    6.4591  -18.8072   15.9511 C   0  0  0  0  0  0  0  0  0  0  0  0
    5.9237  -19.2631   16.9743 O   0  0  0  0  0  0  0  0  0  0  0  0
    9.4356  -15.6145   18.3966 C   0  0  0  0  0  0  0  0  0  0  0  0
   10.3848  -16.1761   18.9874 O   0  0  0  0  0  0  0  0  0  0  0  0
    6.0376  -19.3800   14.7390 O   0  0  0  0  0  0  0  0  0  0  0  0
    8.8711  -14.4749   19.0466 N   0  0  0  0  0  0  0  0  0  0  0  0
    8.0586  -13.5267   18.3036 C   0  0  0  0  0  0  0  0  0  0  0  0
    7.7698  -12.3896   19.2631 C   0  0  0  0  0  0  0  0  0  0  0  0
    7.7806  -13.1241   20.5760 C   0  0  0  0  0  0  0  0  0  0  0  0
    8.9682  -14.0406   20.3937 C   0  0  1  0  0  0  0  0  0  0  0  0
    8.8939  -15.0822   21.4292 C   0  0  0  0  0  0  0  0  0  0  0  0
    7.8946  -15.6568   21.8681 O   0  0  0  0  0  0  0  0  0  0  0  0
    9.4053  -18.2978   21.6535 C   0  0  0  0  0  0  0  0  0  0  0  0
   10.5276  -17.8399   22.5533 C   0  0  1  0  0  0  0  0  0  0  0  0
   11.7239  -17.8491   21.8375 O   0  0  0  0  0  0  0  0  0  0  0  0
   10.1983  -16.4524   23.0758 C   0  0  2  0  0  0  0  0  0  0  0  0
   10.1546  -15.4808   22.0036 N   0  0  0  0  0  0  0  0  0  0  0  0
   11.2894  -16.0674   23.9994 C   0  0  0  0  0  0  0  0  0  0  0  0
   11.3949  -16.5470   25.1626 O   0  0  0  0  0  0  0  0  0  0  0  0
   12.2430  -15.1487   23.5967 O   0  0  0  0  0  0  0  0  0  0  0  0
  2  1  1  1
  2  3  1  0
  3  4  1  0
  4  5  1  0
  5  9  1  0
  6  5  2  0
  7  2  1  0
  7 10  1  0
  8  7  2  0
 10 14  1  0
 11 10  1  0
 11 12  1  0
 12 13  1  0
 14 13  1  0
 14 15  1  1
 15 21  1  0
 16 15  2  0
 18 17  1  6
 19 18  1  0
 20 21  1  6
 20 22  1  0
 20 18  1  0
 22 24  1  0
 23 22  2  0
M  END
$$$$
