EPT.pdb
     RDKit          3D

 24 24  0  0  1  0  0  0  0  0999 V2000
    9.9016  -16.0800   16.1460 N   0  0  0  0  0  0  0  0  0  0  0  0
    8.8136  -15.6841   17.0458 C   0  0  1  0  0  0  0  0  0  0  0  0
    7.7482  -16.7222   16.8891 C   0  0  0  0  0  0  0  0  0  0  0  0
    8.0899  -18.0616   17.4837 C   0  0  0  0  0  0  0  0  0  0  0  0
    7.0110  -19.0497   17.4175 C   0  0  0  0  0  0  0  0  0  0  0  0
    6.9949  -20.1889   17.9110 O   0  0  0  0  0  0  0  0  0  0  0  0
    9.2801  -15.4669   18.4241 C   0  0  0  0  0  0  0  0  0  0  0  0
   10.2272  -16.1608   18.8561 O   0  0  0  0  0  0  0  0  0  0  0  0
    5.8524  -18.6759   16.7156 O   0  0  0  0  0  0  0  0  0  0  0  0
    8.7315  -14.5099   19.3312 N   0  0  0  0  0  0  0  0  0  0  0  0
    7.8027  -13.4951   18.8634 C   0  0  0  0  0  0  0  0  0  0  0  0
    7.5598  -12.5804   20.0472 C   0  0  0  0  0  0  0  0  0  0  0  0
    7.7405  -13.5461   21.1864 C   0  0  0  0  0  0  0  0  0  0  0  0
    8.9455  -14.3310   20.7222 C   0  0  1  0  0  0  0  0  0  0  0  0
    9.0277  -15.5512   21.5389 C   0  0  0  0  0  0  0  0  0  0  0  0
    8.2095  -16.4698   21.6292 O   0  0  0  0  0  0  0  0  0  0  0  0
   11.3368  -18.2121   21.3987 C   0  0  0  0  0  0  0  0  0  0  0  0
   11.5894  -17.6710   22.7851 C   0  0  1  0  0  0  0  0  0  0  0  0
   12.7663  -16.9238   22.7800 O   0  0  0  0  0  0  0  0  0  0  0  0
   10.3953  -16.8320   23.2060 C   0  0  2  0  0  0  0  0  0  0  0  0
   10.2208  -15.6880   22.3364 N   0  0  0  0  0  0  0  0  0  0  0  0
   10.6770  -16.3321   24.5707 C   0  0  0  0  0  0  0  0  0  0  0  0
   10.8638  -15.1087   24.8203 O   0  0  0  0  0  0  0  0  0  0  0  0
   10.7433  -17.2193   25.6310 O   0  0  0  0  0  0  0  0  0  0  0  0
  2  1  1  6
  2  3  1  0
  3  4  1  0
  4  5  1  0
  5  9  1  0
  6  5  2  0
  7  2  1  0
  7 10  1  0
  8  7  2  0
 10 14  1  0
 11 10  1  0
 11 12  1  0
 12 13  1  0
 14 13  1  0
 14 15  1  1
 15 21  1  0
 16 15  2  0
 18 17  1  6
 19 18  1  0
 20 21  1  6
 20 22  1  0
 20 18  1  0
 22 24  1  0
 23 22  2  0
M  END
$$$$
