EPT.pdb
     RDKit          3D

 24 24  0  0  1  0  0  0  0  0999 V2000
    8.2965  -14.3746   21.2169 N   0  0  0  0  0  0  0  0  0  0  0  0
    7.4288  -14.4772   22.3945 C   0  0  1  0  0  0  0  0  0  0  0  0
    6.7627  -15.8133   22.3027 C   0  0  0  0  0  0  0  0  0  0  0  0
    6.3539  -16.2124   20.9106 C   0  0  0  0  0  0  0  0  0  0  0  0
    6.2506  -17.6575   20.6976 C   0  0  0  0  0  0  0  0  0  0  0  0
    6.9305  -18.3620   19.9340 O   0  0  0  0  0  0  0  0  0  0  0  0
    8.1563  -14.2237   23.6478 C   0  0  0  0  0  0  0  0  0  0  0  0
    9.2902  -14.7301   23.7994 O   0  0  0  0  0  0  0  0  0  0  0  0
    5.2700  -18.3383   21.4391 O   0  0  0  0  0  0  0  0  0  0  0  0
    7.6674  -13.4307   24.7303 N   0  0  0  0  0  0  0  0  0  0  0  0
    6.5778  -12.4913   24.5260 C   0  0  0  0  0  0  0  0  0  0  0  0
    6.4379  -11.7312   25.8297 C   0  0  0  0  0  0  0  0  0  0  0  0
    6.8961  -12.7755   26.8109 C   0  0  0  0  0  0  0  0  0  0  0  0
    8.0835  -13.3644   26.0850 C   0  0  1  0  0  0  0  0  0  0  0  0
    8.4187  -14.6402   26.7350 C   0  0  0  0  0  0  0  0  0  0  0  0
    7.7599  -15.6826   26.7631 O   0  0  0  0  0  0  0  0  0  0  0  0
   11.8923  -17.6717   27.9117 C   0  0  0  0  0  0  0  0  0  0  0  0
   11.4934  -16.3229   27.3636 C   0  0  1  0  0  0  0  0  0  0  0  0
   11.3948  -16.4015   25.9752 O   0  0  0  0  0  0  0  0  0  0  0  0
   10.1759  -15.9099   27.9962 C   0  0  2  0  0  0  0  0  0  0  0  0
    9.6821  -14.6732   27.4284 N   0  0  0  0  0  0  0  0  0  0  0  0
   10.4393  -15.6811   29.4349 C   0  0  0  0  0  0  0  0  0  0  0  0
   10.5422  -14.5245   29.9306 O   0  0  0  0  0  0  0  0  0  0  0  0
   10.5822  -16.7595   30.2906 O   0  0  0  0  0  0  0  0  0  0  0  0
  2  1  1  6
  2  3  1  0
  3  4  1  0
  4  5  1  0
  5  9  1  0
  6  5  2  0
  7  2  1  0
  7 10  1  0
  8  7  2  0
 10 14  1  0
 11 10  1  0
 11 12  1  0
 12 13  1  0
 14 13  1  0
 14 15  1  1
 15 21  1  0
 16 15  2  0
 18 17  1  1
 19 18  1  0
 20 21  1  6
 20 22  1  0
 20 18  1  0
 22 24  1  0
 23 22  2  0
M  END
$$$$
