EPT.pdb
     RDKit          3D

 24 24  0  0  1  0  0  0  0  0999 V2000
   10.1171  -16.0392   15.8214 N   0  0  0  0  0  0  0  0  0  0  0  0
    9.0367  -15.5329   16.6738 C   0  0  1  0  0  0  0  0  0  0  0  0
    7.8982  -16.4893   16.5111 C   0  0  0  0  0  0  0  0  0  0  0  0
    8.1917  -17.8924   16.9688 C   0  0  0  0  0  0  0  0  0  0  0  0
    7.0715  -18.5627   17.6324 C   0  0  0  0  0  0  0  0  0  0  0  0
    6.9931  -18.9110   18.8215 O   0  0  0  0  0  0  0  0  0  0  0  0
    9.4767  -15.3113   18.0601 C   0  0  0  0  0  0  0  0  0  0  0  0
   10.4084  -16.0110   18.5157 O   0  0  0  0  0  0  0  0  0  0  0  0
    5.9471  -18.8508   16.8403 O   0  0  0  0  0  0  0  0  0  0  0  0
    8.9184  -14.3437   18.9498 N   0  0  0  0  0  0  0  0  0  0  0  0
    8.0144  -13.3190   18.4555 C   0  0  0  0  0  0  0  0  0  0  0  0
    7.7543  -12.3965   19.6295 C   0  0  0  0  0  0  0  0  0  0  0  0
    7.8944  -13.3598   20.7765 C   0  0  0  0  0  0  0  0  0  0  0  0
    9.1003  -14.1619   20.3450 C   0  0  1  0  0  0  0  0  0  0  0  0
    9.1467  -15.3797   21.1681 C   0  0  0  0  0  0  0  0  0  0  0  0
    8.3548  -16.3253   21.1833 O   0  0  0  0  0  0  0  0  0  0  0  0
   10.9062  -18.0458   20.7938 C   0  0  0  0  0  0  0  0  0  0  0  0
   11.5067  -17.5900   22.1016 C   0  0  1  0  0  0  0  0  0  0  0  0
   12.7030  -16.9199   21.8498 O   0  0  0  0  0  0  0  0  0  0  0  0
   10.5045  -16.6983   22.8137 C   0  0  2  0  0  0  0  0  0  0  0  0
   10.2642  -15.4776   22.0734 N   0  0  0  0  0  0  0  0  0  0  0  0
   11.1004  -16.3334   24.1189 C   0  0  0  0  0  0  0  0  0  0  0  0
   11.5486  -15.1783   24.3612 O   0  0  0  0  0  0  0  0  0  0  0  0
   11.1810  -17.2764   25.1287 O   0  0  0  0  0  0  0  0  0  0  0  0
  2  1  1  6
  2  3  1  0
  3  4  1  0
  4  5  1  0
  5  9  1  0
  6  5  2  0
  7  2  1  0
  7 10  1  0
  8  7  2  0
 10 14  1  0
 11 10  1  0
 11 12  1  0
 12 13  1  0
 14 13  1  0
 14 15  1  1
 15 21  1  0
 16 15  2  0
 18 17  1  6
 19 18  1  0
 20 21  1  6
 20 22  1  0
 20 18  1  0
 22 24  1  0
 23 22  2  0
M  END
$$$$
