EPT.pdb
     RDKit          3D

 24 24  0  0  1  0  0  0  0  0999 V2000
    9.9048  -15.4484   15.4113 N   0  0  0  0  0  0  0  0  0  0  0  0
    8.8270  -15.2833   16.3917 C   0  0  1  0  0  0  0  0  0  0  0  0
    7.9167  -16.4558   16.2075 C   0  0  0  0  0  0  0  0  0  0  0  0
    8.5263  -17.7824   16.5719 C   0  0  0  0  0  0  0  0  0  0  0  0
    7.5911  -18.7384   17.1685 C   0  0  0  0  0  0  0  0  0  0  0  0
    7.6395  -19.2388   18.3037 O   0  0  0  0  0  0  0  0  0  0  0  0
    9.3390  -15.0951   17.7579 C   0  0  0  0  0  0  0  0  0  0  0  0
   10.3750  -15.7060   18.1026 O   0  0  0  0  0  0  0  0  0  0  0  0
    6.5071  -19.1448   16.3719 O   0  0  0  0  0  0  0  0  0  0  0  0
    8.7409  -14.2556   18.7464 N   0  0  0  0  0  0  0  0  0  0  0  0
    7.7112  -13.2984   18.3790 C   0  0  0  0  0  0  0  0  0  0  0  0
    7.4308  -12.4925   19.6315 C   0  0  0  0  0  0  0  0  0  0  0  0
    7.7346  -13.5140   20.6933 C   0  0  0  0  0  0  0  0  0  0  0  0
    8.9867  -14.1540   20.1399 C   0  0  1  0  0  0  0  0  0  0  0  0
    9.2036  -15.4151   20.8648 C   0  0  0  0  0  0  0  0  0  0  0  0
    8.6408  -16.5003   20.7004 O   0  0  0  0  0  0  0  0  0  0  0  0
   12.2796  -18.2396   23.1678 C   0  0  0  0  0  0  0  0  0  0  0  0
   11.9809  -16.9981   22.3627 C   0  0  1  0  0  0  0  0  0  0  0  0
   12.1871  -17.2662   21.0103 O   0  0  0  0  0  0  0  0  0  0  0  0
   10.5493  -16.5718   22.6372 C   0  0  2  0  0  0  0  0  0  0  0  0
   10.2046  -15.3737   21.9013 N   0  0  0  0  0  0  0  0  0  0  0  0
   10.4586  -16.2643   24.0825 C   0  0  0  0  0  0  0  0  0  0  0  0
   10.5853  -15.0931   24.5365 O   0  0  0  0  0  0  0  0  0  0  0  0
   10.2268  -17.2819   24.9916 O   0  0  0  0  0  0  0  0  0  0  0  0
  2  1  1  6
  2  3  1  0
  3  4  1  0
  4  5  1  0
  5  9  1  0
  6  5  2  0
  7  2  1  0
  7 10  1  0
  8  7  2  0
 10 14  1  0
 11 10  1  0
 11 12  1  0
 12 13  1  0
 14 13  1  0
 14 15  1  1
 15 21  1  0
 16 15  2  0
 18 17  1  1
 19 18  1  0
 20 21  1  6
 20 22  1  0
 20 18  1  0
 22 24  1  0
 23 22  2  0
M  END
$$$$
