TLH.pdb
     RDKit          3D

 26 26  0  0  1  0  0  0  0  0999 V2000
   19.6962  -14.0632  -20.5109 C   0  0  0  0  0  0  0  0  0  0  0  0
   20.1494  -13.0986  -19.4638 C   0  0  1  0  0  0  0  0  0  0  0  0
   19.1430  -12.3656  -18.8867 O   0  0  0  0  0  0  0  0  0  0  0  0
   21.0065  -13.7618  -18.4084 C   0  0  2  0  0  0  0  0  0  0  0  0
   20.1947  -14.7476  -17.7220 N   0  0  0  0  0  0  0  0  0  0  0  0
   21.4932  -12.7834  -17.4030 C   0  0  0  0  0  0  0  0  0  0  0  0
   20.7912  -12.5032  -16.3761 O   0  0  0  0  0  0  0  0  0  0  0  0
   25.2570  -10.2130  -14.3221 C   0  0  0  0  0  0  0  0  0  0  0  0
   25.4049  -10.1279  -15.7998 C   0  0  1  0  0  0  0  0  0  0  0  0
   26.8953  -10.3832  -16.0959 C   0  0  0  0  0  0  0  0  0  0  0  0
   24.6528  -11.1679  -16.5262 C   0  0  0  0  0  0  0  0  0  0  0  0
   23.1709  -11.1020  -16.5242 C   0  0  2  0  0  0  0  0  0  0  0  0
   22.7269  -12.1128  -17.5045 N   0  0  0  0  0  0  0  0  0  0  0  0
   22.5387   -9.8526  -16.9023 C   0  0  0  0  0  0  0  0  0  0  0  0
   22.5629   -9.3990  -18.0713 O   0  0  0  0  0  0  0  0  0  0  0  0
   21.8452   -9.0810  -15.9283 N   0  0  0  0  0  0  0  0  0  0  0  0
   21.2284   -7.7705  -16.3084 C   0  0  1  0  0  0  0  0  0  0  0  0
   19.7587   -8.0500  -16.3507 C   0  0  0  0  0  0  0  0  0  0  0  0
   18.8744   -6.8968  -16.4769 C   0  0  0  0  0  0  0  0  0  0  0  0
   18.4625   -6.1292  -17.5334 C   0  0  0  0  0  0  0  0  0  0  0  0
   17.5814   -5.1982  -17.1156 N   0  0  0  0  0  0  0  0  0  0  0  0
   17.4396   -5.3786  -15.8124 C   0  0  0  0  0  0  0  0  0  0  0  0
   18.1914   -6.3771  -15.4021 N   0  0  0  0  0  0  0  0  0  0  0  0
   21.5527   -6.8989  -15.1618 C   0  0  0  0  0  0  0  0  0  0  0  0
   22.0562   -7.3926  -13.9926 O   0  0  0  0  0  0  0  0  0  0  0  0
   21.3712   -5.6653  -15.2347 O   0  0  0  0  0  0  0  0  0  0  0  0
  2  1  1  6
  2  4  1  0
  3  2  1  0
  4  6  1  0
  4  5  1  1
  6  7  2  0
  9  8  1  1
 10  9  1  0
 11  9  1  0
 12 11  1  6
 12 14  1  0
 13 12  1  0
 13  6  1  0
 14 15  2  0
 16 17  1  0
 16 14  1  0
 17 24  1  0
 17 18  1  1
 19 18  1  0
 20 19  2  0
 21 22  1  0
 21 20  1  0
 22 23  2  0
 23 19  1  0
 24 26  2  0
 24 25  1  0
M  END
$$$$
