TLH.pdb
     RDKit          3D

 26 26  0  0  1  0  0  0  0  0999 V2000
   27.0835  -18.6513  -16.4340 C   0  0  0  0  0  0  0  0  0  0  0  0
   26.3589  -19.2824  -15.2899 C   0  0  1  0  0  0  0  0  0  0  0  0
   25.1048  -19.7492  -15.5940 O   0  0  0  0  0  0  0  0  0  0  0  0
   27.1837  -20.3547  -14.6129 C   0  0  2  0  0  0  0  0  0  0  0  0
   27.4093  -21.4211  -15.5689 N   0  0  0  0  0  0  0  0  0  0  0  0
   26.4790  -20.9287  -13.4386 C   0  0  0  0  0  0  0  0  0  0  0  0
   25.9032  -22.0636  -13.5171 O   0  0  0  0  0  0  0  0  0  0  0  0
   26.4427  -21.9444   -8.0099 C   0  0  0  0  0  0  0  0  0  0  0  0
   25.9005  -20.6451   -8.4901 C   0  0  1  0  0  0  0  0  0  0  0  0
   26.4355  -19.5739   -7.5203 C   0  0  0  0  0  0  0  0  0  0  0  0
   26.3815  -20.2680   -9.8323 C   0  0  0  0  0  0  0  0  0  0  0  0
   25.7436  -20.8955  -11.0154 C   0  0  2  0  0  0  0  0  0  0  0  0
   26.3963  -20.2837  -12.1899 N   0  0  0  0  0  0  0  0  0  0  0  0
   24.3153  -20.7220  -11.1981 C   0  0  0  0  0  0  0  0  0  0  0  0
   23.4690  -21.0511  -10.3330 O   0  0  0  0  0  0  0  0  0  0  0  0
   23.8146  -20.1501  -12.4012 N   0  0  0  0  0  0  0  0  0  0  0  0
   22.3616  -19.8093  -12.5229 C   0  0  1  0  0  0  0  0  0  0  0  0
   22.3194  -18.7253  -13.5541 C   0  0  0  0  0  0  0  0  0  0  0  0
   20.9999  -18.2410  -13.9440 C   0  0  0  0  0  0  0  0  0  0  0  0
   19.7303  -18.4795  -13.4898 C   0  0  0  0  0  0  0  0  0  0  0  0
   18.8442  -17.7244  -14.1699 N   0  0  0  0  0  0  0  0  0  0  0  0
   19.5477  -17.0186  -15.0404 C   0  0  0  0  0  0  0  0  0  0  0  0
   20.8281  -17.3005  -14.9328 N   0  0  0  0  0  0  0  0  0  0  0  0
   21.7667  -21.0502  -13.0574 C   0  0  0  0  0  0  0  0  0  0  0  0
   20.4905  -21.4324  -12.7584 O   0  0  0  0  0  0  0  0  0  0  0  0
   22.4287  -21.7948  -13.8107 O   0  0  0  0  0  0  0  0  0  0  0  0
  2  1  1  6
  2  4  1  0
  3  2  1  0
  4  6  1  0
  4  5  1  6
  6  7  2  0
  9  8  1  1
 10  9  1  0
 11  9  1  0
 12 11  1  1
 12 14  1  0
 13 12  1  0
 13  6  1  0
 14 15  2  0
 16 17  1  0
 16 14  1  0
 17 24  1  0
 17 18  1  6
 19 18  1  0
 20 19  2  0
 21 22  1  0
 21 20  1  0
 22 23  2  0
 23 19  1  0
 24 26  2  0
 24 25  1  0
M  END
$$$$
