TLH.pdb
     RDKit          3D

 26 26  0  0  1  0  0  0  0  0999 V2000
   26.3549  -10.4255  -15.1144 C   0  0  0  0  0  0  0  0  0  0  0  0
   26.3272  -11.5863  -16.0547 C   0  0  1  0  0  0  0  0  0  0  0  0
   27.4568  -12.3652  -16.0360 O   0  0  0  0  0  0  0  0  0  0  0  0
   25.0857  -12.4331  -15.8807 C   0  0  2  0  0  0  0  0  0  0  0  0
   25.1729  -13.5547  -16.7953 N   0  0  0  0  0  0  0  0  0  0  0  0
   23.8526  -11.6705  -16.2014 C   0  0  0  0  0  0  0  0  0  0  0  0
   23.5294  -11.4371  -17.4125 O   0  0  0  0  0  0  0  0  0  0  0  0
   18.8822  -12.8125  -15.1770 C   0  0  0  0  0  0  0  0  0  0  0  0
   20.1085  -12.2175  -15.7728 C   0  0  1  0  0  0  0  0  0  0  0  0
   19.6939  -11.6784  -17.1554 C   0  0  0  0  0  0  0  0  0  0  0  0
   20.6290  -11.0638  -15.0158 C   0  0  0  0  0  0  0  0  0  0  0  0
   21.8012  -10.3328  -15.5559 C   0  0  2  0  0  0  0  0  0  0  0  0
   22.9754  -11.1640  -15.2236 N   0  0  0  0  0  0  0  0  0  0  0  0
   22.0767   -9.0037  -15.0450 C   0  0  0  0  0  0  0  0  0  0  0  0
   22.5247   -8.7920  -13.8928 O   0  0  0  0  0  0  0  0  0  0  0  0
   21.8444   -7.8628  -15.8632 N   0  0  0  0  0  0  0  0  0  0  0  0
   22.2403   -6.5009  -15.3831 C   0  0  1  0  0  0  0  0  0  0  0  0
   22.5436   -5.7392  -16.6352 C   0  0  0  0  0  0  0  0  0  0  0  0
   23.8083   -6.0404  -17.2969 C   0  0  0  0  0  0  0  0  0  0  0  0
   24.8965   -6.8005  -16.9607 C   0  0  0  0  0  0  0  0  0  0  0  0
   25.7971   -6.7918  -17.9640 N   0  0  0  0  0  0  0  0  0  0  0  0
   25.2813   -6.0365  -18.9203 C   0  0  0  0  0  0  0  0  0  0  0  0
   24.1036   -5.5760  -18.5574 N   0  0  0  0  0  0  0  0  0  0  0  0
   21.0043   -5.9902  -14.7578 C   0  0  0  0  0  0  0  0  0  0  0  0
   19.8461   -6.7130  -14.7397 O   0  0  0  0  0  0  0  0  0  0  0  0
   20.9876   -4.8631  -14.2196 O   0  0  0  0  0  0  0  0  0  0  0  0
  2  1  1  1
  2  4  1  0
  3  2  1  0
  4  6  1  0
  4  5  1  6
  6  7  2  0
  9  8  1  1
 10  9  1  0
 11  9  1  0
 12 11  1  1
 12 14  1  0
 13 12  1  0
 13  6  1  0
 14 15  2  0
 16 17  1  0
 16 14  1  0
 17 24  1  0
 17 18  1  6
 19 18  1  0
 20 19  2  0
 21 22  1  0
 21 20  1  0
 22 23  2  0
 23 19  1  0
 24 26  2  0
 24 25  1  0
M  END
$$$$
