TLH.pdb
     RDKit          3D

 26 26  0  0  1  0  0  0  0  0999 V2000
   30.0012  -33.0101  -16.3878 C   0  0  0  0  0  0  0  0  0  0  0  0
   31.2728  -32.2713  -16.6512 C   0  0  1  0  0  0  0  0  0  0  0  0
   32.3304  -32.6535  -15.8647 O   0  0  0  0  0  0  0  0  0  0  0  0
   31.6540  -32.2936  -18.1150 C   0  0  2  0  0  0  0  0  0  0  0  0
   32.9308  -31.6219  -18.2589 N   0  0  0  0  0  0  0  0  0  0  0  0
   30.6583  -31.5770  -18.9518 C   0  0  0  0  0  0  0  0  0  0  0  0
   30.8039  -30.3385  -19.2175 O   0  0  0  0  0  0  0  0  0  0  0  0
   28.8591  -29.9409  -22.9944 C   0  0  0  0  0  0  0  0  0  0  0  0
   28.0767  -31.1864  -22.7722 C   0  0  1  0  0  0  0  0  0  0  0  0
   28.2528  -32.0352  -24.0460 C   0  0  0  0  0  0  0  0  0  0  0  0
   28.5810  -32.0052  -21.6541 C   0  0  0  0  0  0  0  0  0  0  0  0
   28.5057  -31.4511  -20.2801 C   0  0  2  0  0  0  0  0  0  0  0  0
   29.5152  -32.1915  -19.4973 N   0  0  0  0  0  0  0  0  0  0  0  0
   27.2530  -31.5708  -19.5592 C   0  0  0  0  0  0  0  0  0  0  0  0
   26.1329  -31.4152  -20.1017 O   0  0  0  0  0  0  0  0  0  0  0  0
   27.2562  -31.8833  -18.1709 N   0  0  0  0  0  0  0  0  0  0  0  0
   25.9642  -31.9846  -17.4208 C   0  0  1  0  0  0  0  0  0  0  0  0
   26.2846  -32.8531  -16.2448 C   0  0  0  0  0  0  0  0  0  0  0  0
   25.2540  -32.9771  -15.2200 C   0  0  0  0  0  0  0  0  0  0  0  0
   23.8894  -32.8638  -15.2294 C   0  0  0  0  0  0  0  0  0  0  0  0
   23.3927  -33.1299  -14.0045 N   0  0  0  0  0  0  0  0  0  0  0  0
   24.4319  -33.4085  -13.2342 C   0  0  0  0  0  0  0  0  0  0  0  0
   25.5496  -33.3273  -13.9232 N   0  0  0  0  0  0  0  0  0  0  0  0
   25.7179  -30.5966  -16.9824 C   0  0  0  0  0  0  0  0  0  0  0  0
   26.7044  -29.6528  -16.9674 O   0  0  0  0  0  0  0  0  0  0  0  0
   24.5795  -30.2450  -16.6077 O   0  0  0  0  0  0  0  0  0  0  0  0
  2  1  1  6
  2  4  1  0
  3  2  1  0
  4  6  1  0
  4  5  1  1
  6  7  2  0
  9  8  1  6
 10  9  1  0
 11  9  1  0
 12 11  1  6
 12 14  1  0
 13 12  1  0
 13  6  1  0
 14 15  2  0
 16 17  1  0
 16 14  1  0
 17 24  1  0
 17 18  1  1
 19 18  1  0
 20 19  2  0
 21 22  1  0
 21 20  1  0
 22 23  2  0
 23 19  1  0
 24 26  2  0
 24 25  1  0
M  END
$$$$
