TLH.pdb
     RDKit          3D

 26 26  0  0  1  0  0  0  0  0999 V2000
   24.1338   -9.4803  -21.6375 C   0  0  0  0  0  0  0  0  0  0  0  0
   23.2502   -9.6211  -20.4410 C   0  0  1  0  0  0  0  0  0  0  0  0
   23.2984  -10.8514  -19.8352 O   0  0  0  0  0  0  0  0  0  0  0  0
   23.4725   -8.5150  -19.4332 C   0  0  2  0  0  0  0  0  0  0  0  0
   24.8036   -8.6698  -18.8798 N   0  0  0  0  0  0  0  0  0  0  0  0
   22.4968   -8.5869  -18.3161 C   0  0  0  0  0  0  0  0  0  0  0  0
   21.2431   -8.5982  -18.5480 O   0  0  0  0  0  0  0  0  0  0  0  0
   23.9680  -10.9581  -13.5621 C   0  0  0  0  0  0  0  0  0  0  0  0
   23.2512  -10.5389  -14.7964 C   0  0  1  0  0  0  0  0  0  0  0  0
   22.1069  -11.5522  -14.9914 C   0  0  0  0  0  0  0  0  0  0  0  0
   22.6170   -9.2121  -14.6853 C   0  0  0  0  0  0  0  0  0  0  0  0
   21.8867   -8.6756  -15.8597 C   0  0  2  0  0  0  0  0  0  0  0  0
   22.8707   -8.6463  -16.9600 N   0  0  0  0  0  0  0  0  0  0  0  0
   21.3268   -7.3408  -15.7690 C   0  0  0  0  0  0  0  0  0  0  0  0
   22.0117   -6.2996  -15.9100 O   0  0  0  0  0  0  0  0  0  0  0  0
   19.9377   -7.1659  -15.5140 N   0  0  0  0  0  0  0  0  0  0  0  0
   19.3394   -5.7933  -15.5230 C   0  0  1  0  0  0  0  0  0  0  0  0
   19.5373   -5.3110  -16.9260 C   0  0  0  0  0  0  0  0  0  0  0  0
   18.8903   -4.0541  -17.2856 C   0  0  0  0  0  0  0  0  0  0  0  0
   17.8274   -3.7301  -18.0858 C   0  0  0  0  0  0  0  0  0  0  0  0
   17.5962   -2.4028  -18.0362 N   0  0  0  0  0  0  0  0  0  0  0  0
   18.5018   -1.8979  -17.2139 C   0  0  0  0  0  0  0  0  0  0  0  0
   19.2839   -2.8493  -16.7515 N   0  0  0  0  0  0  0  0  0  0  0  0
   17.9082   -6.0465  -15.2640 C   0  0  0  0  0  0  0  0  0  0  0  0
   17.0499   -5.0526  -14.8903 O   0  0  0  0  0  0  0  0  0  0  0  0
   17.4386   -7.1978  -15.3829 O   0  0  0  0  0  0  0  0  0  0  0  0
  2  1  1  6
  2  4  1  0
  3  2  1  0
  4  6  1  0
  4  5  1  1
  6  7  2  0
  9  8  1  1
 10  9  1  0
 11  9  1  0
 12 11  1  1
 12 14  1  0
 13 12  1  0
 13  6  1  0
 14 15  2  0
 16 17  1  0
 16 14  1  0
 17 24  1  0
 17 18  1  6
 19 18  1  0
 20 19  2  0
 21 22  1  0
 21 20  1  0
 22 23  2  0
 23 19  1  0
 24 26  2  0
 24 25  1  0
M  END
$$$$
