TLH.pdb
     RDKit          3D

 26 26  0  0  1  0  0  0  0  0999 V2000
   26.6189  -17.8909  -16.2481 C   0  0  0  0  0  0  0  0  0  0  0  0
   27.3156  -19.1255  -16.7199 C   0  0  1  0  0  0  0  0  0  0  0  0
   28.3757  -18.8987  -17.5612 O   0  0  0  0  0  0  0  0  0  0  0  0
   27.7202  -20.0266  -15.5740 C   0  0  2  0  0  0  0  0  0  0  0  0
   28.4189  -21.1711  -16.1253 N   0  0  0  0  0  0  0  0  0  0  0  0
   26.5389  -20.5239  -14.8242 C   0  0  0  0  0  0  0  0  0  0  0  0
   25.8013  -21.4439  -15.3095 O   0  0  0  0  0  0  0  0  0  0  0  0
   26.3747  -20.2684   -9.2606 C   0  0  0  0  0  0  0  0  0  0  0  0
   26.2380  -20.7910  -10.6466 C   0  0  1  0  0  0  0  0  0  0  0  0
   25.8212  -22.2679  -10.5076 C   0  0  0  0  0  0  0  0  0  0  0  0
   25.1717  -20.1294  -11.4213 C   0  0  0  0  0  0  0  0  0  0  0  0
   24.9709  -20.5300  -12.8354 C   0  0  2  0  0  0  0  0  0  0  0  0
   26.1565  -20.0329  -13.5614 N   0  0  0  0  0  0  0  0  0  0  0  0
   23.8101  -20.0158  -13.5365 C   0  0  0  0  0  0  0  0  0  0  0  0
   23.7757  -18.8772  -14.0612 O   0  0  0  0  0  0  0  0  0  0  0  0
   22.6390  -20.8149  -13.6588 N   0  0  0  0  0  0  0  0  0  0  0  0
   21.5039  -20.3569  -14.5213 C   0  0  1  0  0  0  0  0  0  0  0  0
   21.9308  -20.7054  -15.9129 C   0  0  0  0  0  0  0  0  0  0  0  0
   20.9470  -20.5047  -16.9711 C   0  0  0  0  0  0  0  0  0  0  0  0
   19.6883  -19.9667  -17.0056 C   0  0  0  0  0  0  0  0  0  0  0  0
   19.2167  -19.9688  -18.2687 N   0  0  0  0  0  0  0  0  0  0  0  0
   20.1675  -20.5004  -19.0199 C   0  0  0  0  0  0  0  0  0  0  0  0
   21.2063  -20.8286  -18.2824 N   0  0  0  0  0  0  0  0  0  0  0  0
   20.3854  -21.2213  -14.0955 C   0  0  0  0  0  0  0  0  0  0  0  0
   19.0812  -20.8893  -14.3261 O   0  0  0  0  0  0  0  0  0  0  0  0
   20.6090  -22.2979  -13.5031 O   0  0  0  0  0  0  0  0  0  0  0  0
  2  1  1  1
  2  4  1  0
  3  2  1  0
  4  6  1  0
  4  5  1  6
  6  7  2  0
  9  8  1  1
 10  9  1  0
 11  9  1  0
 12 11  1  1
 12 14  1  0
 13 12  1  0
 13  6  1  0
 14 15  2  0
 16 17  1  0
 16 14  1  0
 17 24  1  0
 17 18  1  6
 19 18  1  0
 20 19  2  0
 21 22  1  0
 21 20  1  0
 22 23  2  0
 23 19  1  0
 24 26  2  0
 24 25  1  0
M  END
$$$$
