TLH.pdb
     RDKit          3D

 26 26  0  0  1  0  0  0  0  0999 V2000
   21.5219  -13.7777  -20.6581 C   0  0  0  0  0  0  0  0  0  0  0  0
   21.5872  -12.6310  -19.7026 C   0  0  1  0  0  0  0  0  0  0  0  0
   20.3908  -11.9931  -19.4911 O   0  0  0  0  0  0  0  0  0  0  0  0
   22.2316  -13.0172  -18.3895 C   0  0  2  0  0  0  0  0  0  0  0  0
   21.3868  -14.0039  -17.7455 N   0  0  0  0  0  0  0  0  0  0  0  0
   22.3588  -11.8522  -17.4776 C   0  0  0  0  0  0  0  0  0  0  0  0
   21.4842  -11.6345  -16.5757 O   0  0  0  0  0  0  0  0  0  0  0  0
   27.3385  -10.2486  -16.0922 C   0  0  0  0  0  0  0  0  0  0  0  0
   25.8909  -10.5554  -15.9396 C   0  0  1  0  0  0  0  0  0  0  0  0
   25.6150  -10.5728  -14.4238 C   0  0  0  0  0  0  0  0  0  0  0  0
   25.0081   -9.5214  -16.5109 C   0  0  0  0  0  0  0  0  0  0  0  0
   23.5537   -9.8004  -16.5967 C   0  0  2  0  0  0  0  0  0  0  0  0
   23.4206  -10.9298  -17.5382 N   0  0  0  0  0  0  0  0  0  0  0  0
   22.6806   -8.7498  -17.0840 C   0  0  0  0  0  0  0  0  0  0  0  0
   22.6579   -8.3787  -18.2818 O   0  0  0  0  0  0  0  0  0  0  0  0
   21.7910   -8.0902  -16.1904 N   0  0  0  0  0  0  0  0  0  0  0  0
   20.8550   -7.0393  -16.7019 C   0  0  1  0  0  0  0  0  0  0  0  0
   19.5045   -7.4866  -16.2370 C   0  0  0  0  0  0  0  0  0  0  0  0
   18.3965   -6.5626  -16.4526 C   0  0  0  0  0  0  0  0  0  0  0  0
   18.2944   -5.3213  -17.0216 C   0  0  0  0  0  0  0  0  0  0  0  0
   17.0093   -4.9138  -17.0199 N   0  0  0  0  0  0  0  0  0  0  0  0
   16.3111   -5.8872  -16.4579 C   0  0  0  0  0  0  0  0  0  0  0  0
   17.1024   -6.8790  -16.1105 N   0  0  0  0  0  0  0  0  0  0  0  0
   21.2746   -5.8276  -15.9704 C   0  0  0  0  0  0  0  0  0  0  0  0
   22.2623   -5.8524  -15.0280 O   0  0  0  0  0  0  0  0  0  0  0  0
   20.7263   -4.7291  -16.2004 O   0  0  0  0  0  0  0  0  0  0  0  0
  2  1  1  6
  2  4  1  0
  3  2  1  0
  4  6  1  0
  4  5  1  1
  6  7  2  0
  9  8  1  1
 10  9  1  0
 11  9  1  0
 12 11  1  6
 12 14  1  0
 13 12  1  0
 13  6  1  0
 14 15  2  0
 16 17  1  0
 16 14  1  0
 17 24  1  0
 17 18  1  1
 19 18  1  0
 20 19  2  0
 21 22  1  0
 21 20  1  0
 22 23  2  0
 23 19  1  0
 24 26  2  0
 24 25  1  0
M  END
$$$$
