TLH.pdb
     RDKit          3D

 26 26  0  0  1  0  0  0  0  0999 V2000
   12.2532  -16.6541    5.3190 C   0  0  0  0  0  0  0  0  0  0  0  0
   12.1387  -17.5914    4.1611 C   0  0  1  0  0  0  0  0  0  0  0  0
   10.8687  -17.7299    3.6601 O   0  0  0  0  0  0  0  0  0  0  0  0
   13.1199  -17.2599    3.0583 C   0  0  2  0  0  0  0  0  0  0  0  0
   12.9038  -18.1904    1.9676 N   0  0  0  0  0  0  0  0  0  0  0  0
   14.5259  -17.4017    3.5146 C   0  0  0  0  0  0  0  0  0  0  0  0
   15.1306  -18.5201    3.4184 O   0  0  0  0  0  0  0  0  0  0  0  0
   18.2603  -13.4123    3.0249 C   0  0  0  0  0  0  0  0  0  0  0  0
   17.6155  -14.7522    3.0667 C   0  0  1  0  0  0  0  0  0  0  0  0
   18.6485  -15.7420    2.4945 C   0  0  0  0  0  0  0  0  0  0  0  0
   17.3096  -15.2144    4.4334 C   0  0  0  0  0  0  0  0  0  0  0  0
   16.6379  -16.5259    4.6038 C   0  0  2  0  0  0  0  0  0  0  0  0
   15.2732  -16.3457    4.0699 N   0  0  0  0  0  0  0  0  0  0  0  0
   16.4910  -17.0528    5.9471 C   0  0  0  0  0  0  0  0  0  0  0  0
   15.6555  -16.6077    6.7698 O   0  0  0  0  0  0  0  0  0  0  0  0
   17.3133  -18.1284    6.3851 N   0  0  0  0  0  0  0  0  0  0  0  0
   17.1634  -18.6717    7.7724 C   0  0  1  0  0  0  0  0  0  0  0  0
   16.6938  -20.0785    7.5716 C   0  0  0  0  0  0  0  0  0  0  0  0
   15.2532  -20.3028    7.6180 C   0  0  0  0  0  0  0  0  0  0  0  0
   14.1808  -19.5135    7.9373 C   0  0  0  0  0  0  0  0  0  0  0  0
   13.0322  -20.1981    7.7644 N   0  0  0  0  0  0  0  0  0  0  0  0
   13.3776  -21.4030    7.3403 C   0  0  0  0  0  0  0  0  0  0  0  0
   14.6860  -21.4982    7.2424 N   0  0  0  0  0  0  0  0  0  0  0  0
   18.5455  -18.6606    8.2911 C   0  0  0  0  0  0  0  0  0  0  0  0
   19.6066  -18.2706    7.5254 O   0  0  0  0  0  0  0  0  0  0  0  0
   18.7825  -19.0142    9.4654 O   0  0  0  0  0  0  0  0  0  0  0  0
  2  1  1  1
  2  4  1  0
  3  2  1  0
  4  6  1  0
  4  5  1  6
  6  7  2  0
  9  8  1  1
 10  9  1  0
 11  9  1  0
 12 11  1  1
 12 14  1  0
 13 12  1  0
 13  6  1  0
 14 15  2  0
 16 17  1  0
 16 14  1  0
 17 24  1  0
 17 18  1  6
 19 18  1  0
 20 19  2  0
 21 22  1  0
 21 20  1  0
 22 23  2  0
 23 19  1  0
 24 26  2  0
 24 25  1  0
M  END
$$$$
