TLH.pdb
     RDKit          3D

 26 26  0  0  1  0  0  0  0  0999 V2000
   20.8892  -10.7865  -20.3659 C   0  0  0  0  0  0  0  0  0  0  0  0
   20.5953  -11.9299  -19.4503 C   0  0  1  0  0  0  0  0  0  0  0  0
   20.1156  -13.0541  -20.0741 O   0  0  0  0  0  0  0  0  0  0  0  0
   21.7720  -12.2674  -18.5613 C   0  0  2  0  0  0  0  0  0  0  0  0
   21.3910  -13.3784  -17.7113 N   0  0  0  0  0  0  0  0  0  0  0  0
   22.1453  -11.1252  -17.6889 C   0  0  0  0  0  0  0  0  0  0  0  0
   21.3537  -10.7194  -16.7755 O   0  0  0  0  0  0  0  0  0  0  0  0
   27.2997  -10.3629  -16.0563 C   0  0  0  0  0  0  0  0  0  0  0  0
   25.8169  -10.4566  -16.1289 C   0  0  1  0  0  0  0  0  0  0  0  0
   25.3144  -10.4225  -14.6726 C   0  0  0  0  0  0  0  0  0  0  0  0
   25.1888   -9.3105  -16.8123 C   0  0  0  0  0  0  0  0  0  0  0  0
   23.7108   -9.2826  -16.9354 C   0  0  2  0  0  0  0  0  0  0  0  0
   23.3625  -10.4268  -17.8011 N   0  0  0  0  0  0  0  0  0  0  0  0
   23.0932   -8.1117  -17.5280 C   0  0  0  0  0  0  0  0  0  0  0  0
   23.2531   -7.7866  -18.7287 O   0  0  0  0  0  0  0  0  0  0  0  0
   22.2561   -7.2718  -16.7413 N   0  0  0  0  0  0  0  0  0  0  0  0
   21.5762   -6.0925  -17.3652 C   0  0  1  0  0  0  0  0  0  0  0  0
   20.1172   -6.3484  -17.1503 C   0  0  0  0  0  0  0  0  0  0  0  0
   19.2076   -5.2453  -17.4394 C   0  0  0  0  0  0  0  0  0  0  0  0
   19.1454   -4.3029  -18.4309 C   0  0  0  0  0  0  0  0  0  0  0  0
   18.0545   -3.5277  -18.2672 N   0  0  0  0  0  0  0  0  0  0  0  0
   17.4373   -3.9775  -17.1866 C   0  0  0  0  0  0  0  0  0  0  0  0
   18.0939   -4.9947  -16.6721 N   0  0  0  0  0  0  0  0  0  0  0  0
   22.0276   -4.9613  -16.5310 C   0  0  0  0  0  0  0  0  0  0  0  0
   22.8587   -5.1328  -15.4613 O   0  0  0  0  0  0  0  0  0  0  0  0
   21.6537   -3.7977  -16.7883 O   0  0  0  0  0  0  0  0  0  0  0  0
  2  1  1  6
  2  4  1  0
  3  2  1  0
  4  6  1  0
  4  5  1  1
  6  7  2  0
  9  8  1  1
 10  9  1  0
 11  9  1  0
 12 11  1  6
 12 14  1  0
 13 12  1  0
 13  6  1  0
 14 15  2  0
 16 17  1  0
 16 14  1  0
 17 24  1  0
 17 18  1  1
 19 18  1  0
 20 19  2  0
 21 22  1  0
 21 20  1  0
 22 23  2  0
 23 19  1  0
 24 26  2  0
 24 25  1  0
M  END
$$$$
