TLH.pdb
     RDKit          3D

 26 26  0  0  1  0  0  0  0  0999 V2000
   30.9653  -22.3092  -12.6360 C   0  0  0  0  0  0  0  0  0  0  0  0
   29.8416  -21.5611  -11.9958 C   0  0  1  0  0  0  0  0  0  0  0  0
   30.1860  -20.3323  -11.4912 O   0  0  0  0  0  0  0  0  0  0  0  0
   28.6368  -21.4522  -12.9042 C   0  0  2  0  0  0  0  0  0  0  0  0
   29.0920  -21.0028  -14.2053 N   0  0  0  0  0  0  0  0  0  0  0  0
   27.6522  -20.4651  -12.3931 C   0  0  0  0  0  0  0  0  0  0  0  0
   27.1822  -19.5601  -13.1584 O   0  0  0  0  0  0  0  0  0  0  0  0
   23.6463  -22.5128  -12.9727 C   0  0  0  0  0  0  0  0  0  0  0  0
   24.6344  -21.4471  -12.6555 C   0  0  1  0  0  0  0  0  0  0  0  0
   23.9228  -20.1084  -12.9304 C   0  0  0  0  0  0  0  0  0  0  0  0
   25.0350  -21.4211  -11.2363 C   0  0  0  0  0  0  0  0  0  0  0  0
   25.7596  -20.2313  -10.7266 C   0  0  2  0  0  0  0  0  0  0  0  0
   27.1787  -20.4544  -11.0673 N   0  0  0  0  0  0  0  0  0  0  0  0
   25.7134  -19.9571   -9.3031 C   0  0  0  0  0  0  0  0  0  0  0  0
   24.7320  -20.2522   -8.5802 O   0  0  0  0  0  0  0  0  0  0  0  0
   26.8176  -19.3291   -8.6618 N   0  0  0  0  0  0  0  0  0  0  0  0
   26.7967  -19.1016   -7.1819 C   0  0  1  0  0  0  0  0  0  0  0  0
   27.0421  -20.4561   -6.5944 C   0  0  0  0  0  0  0  0  0  0  0  0
   27.5221  -20.4975   -5.2176 C   0  0  0  0  0  0  0  0  0  0  0  0
   27.7473  -19.5418   -4.2631 C   0  0  0  0  0  0  0  0  0  0  0  0
   28.1477  -20.1196   -3.1126 N   0  0  0  0  0  0  0  0  0  0  0  0
   28.1730  -21.4229   -3.3400 C   0  0  0  0  0  0  0  0  0  0  0  0
   27.8076  -21.6808   -4.5772 N   0  0  0  0  0  0  0  0  0  0  0  0
   27.9636  -18.2255   -6.9579 C   0  0  0  0  0  0  0  0  0  0  0  0
   28.0466  -17.3849   -5.8851 O   0  0  0  0  0  0  0  0  0  0  0  0
   28.9218  -18.2321   -7.7591 O   0  0  0  0  0  0  0  0  0  0  0  0
  2  1  1  6
  2  4  1  0
  3  2  1  0
  4  6  1  0
  4  5  1  6
  6  7  2  0
  9  8  1  1
 10  9  1  0
 11  9  1  0
 12 11  1  1
 12 14  1  0
 13 12  1  0
 13  6  1  0
 14 15  2  0
 16 17  1  0
 16 14  1  0
 17 24  1  0
 17 18  1  1
 19 18  1  0
 20 19  2  0
 21 22  1  0
 21 20  1  0
 22 23  2  0
 23 19  1  0
 24 26  2  0
 24 25  1  0
M  END
$$$$
