TLH.pdb
     RDKit          3D

 26 26  0  0  1  0  0  0  0  0999 V2000
   42.8164   -8.3529   -4.0170 C   0  0  0  0  0  0  0  0  0  0  0  0
   43.9123   -9.0129   -4.7887 C   0  0  1  0  0  0  0  0  0  0  0  0
   44.9944   -9.3930   -4.0353 O   0  0  0  0  0  0  0  0  0  0  0  0
   43.4067  -10.1668   -5.6263 C   0  0  2  0  0  0  0  0  0  0  0  0
   44.5320  -10.7268   -6.3488 N   0  0  0  0  0  0  0  0  0  0  0  0
   42.3957   -9.7222   -6.6188 C   0  0  0  0  0  0  0  0  0  0  0  0
   42.7567   -9.2037   -7.7264 O   0  0  0  0  0  0  0  0  0  0  0  0
   39.4503  -12.1422   -8.1609 C   0  0  0  0  0  0  0  0  0  0  0  0
   38.4380  -11.0535   -8.1059 C   0  0  1  0  0  0  0  0  0  0  0  0
   37.1325  -11.7079   -7.6144 C   0  0  0  0  0  0  0  0  0  0  0  0
   38.7654   -9.9959   -7.1316 C   0  0  0  0  0  0  0  0  0  0  0  0
   40.0151   -9.2198   -7.3219 C   0  0  2  0  0  0  0  0  0  0  0  0
   41.0069   -9.8359   -6.4182 N   0  0  0  0  0  0  0  0  0  0  0  0
   39.9972   -7.8029   -7.0129 C   0  0  0  0  0  0  0  0  0  0  0  0
   39.8920   -7.3577   -5.8451 O   0  0  0  0  0  0  0  0  0  0  0  0
   40.1068   -6.8436   -8.0583 N   0  0  0  0  0  0  0  0  0  0  0  0
   40.1463   -5.3820   -7.7354 C   0  0  1  0  0  0  0  0  0  0  0  0
   41.4268   -4.9017   -8.3434 C   0  0  0  0  0  0  0  0  0  0  0  0
   41.9321   -3.6146   -7.8787 C   0  0  0  0  0  0  0  0  0  0  0  0
   41.5464   -2.7442   -6.8945 C   0  0  0  0  0  0  0  0  0  0  0  0
   42.3980   -1.7005   -6.8375 N   0  0  0  0  0  0  0  0  0  0  0  0
   43.3091   -1.9122   -7.7736 C   0  0  0  0  0  0  0  0  0  0  0  0
   43.0626   -3.0376   -8.4086 N   0  0  0  0  0  0  0  0  0  0  0  0
   38.9905   -4.8404   -8.4772 C   0  0  0  0  0  0  0  0  0  0  0  0
   38.2302   -5.6150   -9.3056 O   0  0  0  0  0  0  0  0  0  0  0  0
   38.6736   -3.6376   -8.3628 O   0  0  0  0  0  0  0  0  0  0  0  0
  2  1  1  1
  2  4  1  0
  3  2  1  0
  4  6  1  0
  4  5  1  6
  6  7  2  0
  9  8  1  1
 10  9  1  0
 11  9  1  0
 12 11  1  1
 12 14  1  0
 13 12  1  0
 13  6  1  0
 14 15  2  0
 16 17  1  0
 16 14  1  0
 17 24  1  0
 17 18  1  6
 19 18  1  0
 20 19  2  0
 21 22  1  0
 21 20  1  0
 22 23  2  0
 23 19  1  0
 24 26  2  0
 24 25  1  0
M  END
$$$$
