TLH.pdb
     RDKit          3D

 26 26  0  0  1  0  0  0  0  0999 V2000
   28.3277  -17.5326  -15.9463 C   0  0  0  0  0  0  0  0  0  0  0  0
   27.1544  -18.3499  -15.5130 C   0  0  1  0  0  0  0  0  0  0  0  0
   26.3052  -18.7150  -16.5272 O   0  0  0  0  0  0  0  0  0  0  0  0
   27.5675  -19.5543  -14.6960 C   0  0  2  0  0  0  0  0  0  0  0  0
   28.2471  -20.4847  -15.5761 N   0  0  0  0  0  0  0  0  0  0  0  0
   26.3928  -20.2478  -14.1093 C   0  0  0  0  0  0  0  0  0  0  0  0
   25.9137  -21.2934  -14.6598 O   0  0  0  0  0  0  0  0  0  0  0  0
   26.0539  -20.2520   -8.7645 C   0  0  0  0  0  0  0  0  0  0  0  0
   26.0572  -20.5305  -10.2257 C   0  0  1  0  0  0  0  0  0  0  0  0
   26.3894  -22.0277  -10.3749 C   0  0  0  0  0  0  0  0  0  0  0  0
   24.7432  -20.3306  -10.8647 C   0  0  0  0  0  0  0  0  0  0  0  0
   24.6232  -20.5621  -12.3250 C   0  0  2  0  0  0  0  0  0  0  0  0
   25.7405  -19.8169  -12.9385 N   0  0  0  0  0  0  0  0  0  0  0  0
   23.4142  -20.1201  -12.9932 C   0  0  0  0  0  0  0  0  0  0  0  0
   23.2560  -18.9518  -13.4210 O   0  0  0  0  0  0  0  0  0  0  0  0
   22.3379  -21.0290  -13.1947 N   0  0  0  0  0  0  0  0  0  0  0  0
   21.0807  -20.5677  -13.8646 C   0  0  1  0  0  0  0  0  0  0  0  0
   20.6376  -21.7458  -14.6744 C   0  0  0  0  0  0  0  0  0  0  0  0
   21.2993  -21.9459  -15.9590 C   0  0  0  0  0  0  0  0  0  0  0  0
   22.2017  -21.2149  -16.6844 C   0  0  0  0  0  0  0  0  0  0  0  0
   22.5458  -21.8814  -17.8048 N   0  0  0  0  0  0  0  0  0  0  0  0
   21.8692  -23.0184  -17.7839 C   0  0  0  0  0  0  0  0  0  0  0  0
   21.1214  -23.0884  -16.7038 N   0  0  0  0  0  0  0  0  0  0  0  0
   20.1574  -20.3447  -12.7345 C   0  0  0  0  0  0  0  0  0  0  0  0
   18.9952  -19.6416  -12.8727 O   0  0  0  0  0  0  0  0  0  0  0  0
   20.4217  -20.8027  -11.6028 O   0  0  0  0  0  0  0  0  0  0  0  0
  2  1  1  6
  2  4  1  0
  3  2  1  0
  4  6  1  0
  4  5  1  6
  6  7  2  0
  9  8  1  1
 10  9  1  0
 11  9  1  0
 12 11  1  1
 12 14  1  0
 13 12  1  0
 13  6  1  0
 14 15  2  0
 16 17  1  0
 16 14  1  0
 17 24  1  0
 17 18  1  6
 19 18  1  0
 20 19  2  0
 21 22  1  0
 21 20  1  0
 22 23  2  0
 23 19  1  0
 24 26  2  0
 24 25  1  0
M  END
$$$$
