TLH.pdb
     RDKit          3D

 26 26  0  0  1  0  0  0  0  0999 V2000
   22.5906  -13.7894  -19.7788 C   0  0  0  0  0  0  0  0  0  0  0  0
   22.5474  -14.9963  -18.8992 C   0  0  1  0  0  0  0  0  0  0  0  0
   22.1183  -16.1423  -19.5203 O   0  0  0  0  0  0  0  0  0  0  0  0
   23.8601  -15.2298  -18.1844 C   0  0  2  0  0  0  0  0  0  0  0  0
   23.7047  -16.3847  -17.3218 N   0  0  0  0  0  0  0  0  0  0  0  0
   24.2379  -14.0692  -17.3387 C   0  0  0  0  0  0  0  0  0  0  0  0
   23.5626  -13.7768  -16.2974 O   0  0  0  0  0  0  0  0  0  0  0  0
   29.4273  -12.2874  -17.0688 C   0  0  0  0  0  0  0  0  0  0  0  0
   28.0401  -12.6615  -16.6832 C   0  0  1  0  0  0  0  0  0  0  0  0
   28.0162  -12.6854  -15.1427 C   0  0  0  0  0  0  0  0  0  0  0  0
   27.0280  -11.6729  -17.0994 C   0  0  0  0  0  0  0  0  0  0  0  0
   25.5964  -11.9844  -16.8674 C   0  0  2  0  0  0  0  0  0  0  0  0
   25.3350  -13.2310  -17.6141 N   0  0  0  0  0  0  0  0  0  0  0  0
   24.6043  -11.0223  -17.3074 C   0  0  0  0  0  0  0  0  0  0  0  0
   24.2988  -10.8558  -18.5124 O   0  0  0  0  0  0  0  0  0  0  0  0
   23.9217  -10.2154  -16.3546 N   0  0  0  0  0  0  0  0  0  0  0  0
   22.9051   -9.2143  -16.8089 C   0  0  1  0  0  0  0  0  0  0  0  0
   21.7993   -9.3268  -15.8066 C   0  0  0  0  0  0  0  0  0  0  0  0
   20.7564   -8.3083  -15.8624 C   0  0  0  0  0  0  0  0  0  0  0  0
   19.8236   -7.9573  -16.8013 C   0  0  0  0  0  0  0  0  0  0  0  0
   19.0440   -6.9622  -16.3323 N   0  0  0  0  0  0  0  0  0  0  0  0
   19.4802   -6.6914  -15.1127 C   0  0  0  0  0  0  0  0  0  0  0  0
   20.4937   -7.4710  -14.8034 N   0  0  0  0  0  0  0  0  0  0  0  0
   23.6079   -7.9251  -16.6558 C   0  0  0  0  0  0  0  0  0  0  0  0
   23.1156   -6.7622  -17.1749 O   0  0  0  0  0  0  0  0  0  0  0  0
   24.6905   -7.8655  -16.0356 O   0  0  0  0  0  0  0  0  0  0  0  0
  2  1  1  6
  2  4  1  0
  3  2  1  0
  4  6  1  0
  4  5  1  1
  6  7  2  0
  9  8  1  1
 10  9  1  0
 11  9  1  0
 12 11  1  6
 12 14  1  0
 13 12  1  0
 13  6  1  0
 14 15  2  0
 16 17  1  0
 16 14  1  0
 17 24  1  0
 17 18  1  1
 19 18  1  0
 20 19  2  0
 21 22  1  0
 21 20  1  0
 22 23  2  0
 23 19  1  0
 24 26  2  0
 24 25  1  0
M  END
$$$$
