TLH.pdb
     RDKit          3D

 26 26  0  0  1  0  0  0  0  0999 V2000
   15.2553   -7.2931  -15.9679 C   0  0  0  0  0  0  0  0  0  0  0  0
   15.4674   -8.6656  -16.5188 C   0  0  1  0  0  0  0  0  0  0  0  0
   15.0252   -8.8404  -17.8060 O   0  0  0  0  0  0  0  0  0  0  0  0
   16.9020   -9.1238  -16.3748 C   0  0  2  0  0  0  0  0  0  0  0  0
   16.9976  -10.4755  -16.8905 N   0  0  0  0  0  0  0  0  0  0  0  0
   17.3322   -9.1402  -14.9537 C   0  0  0  0  0  0  0  0  0  0  0  0
   16.8062   -9.9538  -14.1248 O   0  0  0  0  0  0  0  0  0  0  0  0
   22.5474   -8.4734  -13.5386 C   0  0  0  0  0  0  0  0  0  0  0  0
   21.1293   -8.9118  -13.6354 C   0  0  1  0  0  0  0  0  0  0  0  0
   21.0308  -10.2219  -12.8304 C   0  0  0  0  0  0  0  0  0  0  0  0
   20.1796   -7.9699  -13.0143 C   0  0  0  0  0  0  0  0  0  0  0  0
   18.7370   -8.3152  -13.0146 C   0  0  2  0  0  0  0  0  0  0  0  0
   18.3218   -8.2859  -14.4312 N   0  0  0  0  0  0  0  0  0  0  0  0
   17.8231   -7.4472  -12.2971 C   0  0  0  0  0  0  0  0  0  0  0  0
   17.5509   -6.2811  -12.6699 O   0  0  0  0  0  0  0  0  0  0  0  0
   17.1829   -7.9086  -11.1129 N   0  0  0  0  0  0  0  0  0  0  0  0
   16.1983   -7.0331  -10.4014 C   0  0  1  0  0  0  0  0  0  0  0  0
   15.1915   -7.9871   -9.8390 C   0  0  0  0  0  0  0  0  0  0  0  0
   14.1874   -7.4280   -8.9407 C   0  0  0  0  0  0  0  0  0  0  0  0
   13.9742   -6.1815   -8.4156 C   0  0  0  0  0  0  0  0  0  0  0  0
   12.8523   -6.1780   -7.6680 N   0  0  0  0  0  0  0  0  0  0  0  0
   12.3649   -7.4070   -7.7229 C   0  0  0  0  0  0  0  0  0  0  0  0
   13.1316   -8.1726   -8.4688 N   0  0  0  0  0  0  0  0  0  0  0  0
   17.0004   -6.4342   -9.3164 C   0  0  0  0  0  0  0  0  0  0  0  0
   18.3049   -6.7762   -9.1025 O   0  0  0  0  0  0  0  0  0  0  0  0
   16.4961   -5.5836   -8.5534 O   0  0  0  0  0  0  0  0  0  0  0  0
  2  1  1  6
  2  4  1  0
  3  2  1  0
  4  6  1  0
  4  5  1  1
  6  7  2  0
  9  8  1  1
 10  9  1  0
 11  9  1  0
 12 11  1  6
 12 14  1  0
 13 12  1  0
 13  6  1  0
 14 15  2  0
 16 17  1  0
 16 14  1  0
 17 24  1  0
 17 18  1  1
 19 18  1  0
 20 19  2  0
 21 22  1  0
 21 20  1  0
 22 23  2  0
 23 19  1  0
 24 26  2  0
 24 25  1  0
M  END
$$$$
