TLH.pdb
     RDKit          3D

 26 26  0  0  1  0  0  0  0  0999 V2000
   23.8887  -34.3742    7.8520 C   0  0  0  0  0  0  0  0  0  0  0  0
   23.9427  -34.7070    6.3964 C   0  0  1  0  0  0  0  0  0  0  0  0
   22.8906  -35.4621    5.9424 O   0  0  0  0  0  0  0  0  0  0  0  0
   24.1349  -33.4778    5.5359 C   0  0  2  0  0  0  0  0  0  0  0  0
   24.0180  -33.8768    4.1469 N   0  0  0  0  0  0  0  0  0  0  0  0
   25.4781  -32.8759    5.7319 C   0  0  0  0  0  0  0  0  0  0  0  0
   26.5245  -33.4710    5.3116 O   0  0  0  0  0  0  0  0  0  0  0  0
   29.2787  -28.9755    5.9820 C   0  0  0  0  0  0  0  0  0  0  0  0
   28.0796  -28.7965    6.8439 C   0  0  1  0  0  0  0  0  0  0  0  0
   27.6257  -27.3372    6.6474 C   0  0  0  0  0  0  0  0  0  0  0  0
   26.9393  -29.6434    6.4471 C   0  0  0  0  0  0  0  0  0  0  0  0
   27.0383  -31.1085    6.6572 C   0  0  2  0  0  0  0  0  0  0  0  0
   25.6907  -31.6422    6.3759 N   0  0  0  0  0  0  0  0  0  0  0  0
   27.4077  -31.5898    7.9746 C   0  0  0  0  0  0  0  0  0  0  0  0
   26.5694  -31.9860    8.8190 O   0  0  0  0  0  0  0  0  0  0  0  0
   28.7770  -31.6332    8.3599 N   0  0  0  0  0  0  0  0  0  0  0  0
   29.1738  -32.2792    9.6511 C   0  0  1  0  0  0  0  0  0  0  0  0
   28.5236  -33.6265    9.6076 C   0  0  0  0  0  0  0  0  0  0  0  0
   27.3113  -33.7965   10.4009 C   0  0  0  0  0  0  0  0  0  0  0  0
   26.4988  -32.9340   11.0872 C   0  0  0  0  0  0  0  0  0  0  0  0
   25.4553  -33.6022   11.6185 N   0  0  0  0  0  0  0  0  0  0  0  0
   25.6086  -34.8694   11.2698 C   0  0  0  0  0  0  0  0  0  0  0  0
   26.6980  -35.0189   10.5477 N   0  0  0  0  0  0  0  0  0  0  0  0
   30.6388  -32.4115    9.5269 C   0  0  0  0  0  0  0  0  0  0  0  0
   31.3142  -32.0027    8.4129 O   0  0  0  0  0  0  0  0  0  0  0  0
   31.3092  -32.9099   10.4555 O   0  0  0  0  0  0  0  0  0  0  0  0
  2  1  1  1
  2  4  1  0
  3  2  1  0
  4  6  1  0
  4  5  1  6
  6  7  2  0
  9  8  1  6
 10  9  1  0
 11  9  1  0
 12 11  1  1
 12 14  1  0
 13 12  1  0
 13  6  1  0
 14 15  2  0
 16 17  1  0
 16 14  1  0
 17 24  1  0
 17 18  1  6
 19 18  1  0
 20 19  2  0
 21 22  1  0
 21 20  1  0
 22 23  2  0
 23 19  1  0
 24 26  2  0
 24 25  1  0
M  END
$$$$
