TLH.pdb
     RDKit          3D

 26 26  0  0  1  0  0  0  0  0999 V2000
   18.6125  -14.7786  -20.3528 C   0  0  0  0  0  0  0  0  0  0  0  0
   19.0885  -14.1257  -19.0961 C   0  0  1  0  0  0  0  0  0  0  0  0
   19.4034  -14.9959  -18.0827 O   0  0  0  0  0  0  0  0  0  0  0  0
   20.2245  -13.1592  -19.3490 C   0  0  2  0  0  0  0  0  0  0  0  0
   21.3658  -13.9183  -19.8216 N   0  0  0  0  0  0  0  0  0  0  0  0
   20.6250  -12.4472  -18.1090 C   0  0  0  0  0  0  0  0  0  0  0  0
   19.7531  -11.8640  -17.3841 O   0  0  0  0  0  0  0  0  0  0  0  0
   25.0763  -14.0563  -15.2634 C   0  0  0  0  0  0  0  0  0  0  0  0
   23.7214  -13.6161  -15.6916 C   0  0  1  0  0  0  0  0  0  0  0  0
   22.7988  -13.8280  -14.4759 C   0  0  0  0  0  0  0  0  0  0  0  0
   23.6479  -12.1812  -16.0241 C   0  0  0  0  0  0  0  0  0  0  0  0
   22.3412  -11.6170  -16.4419 C   0  0  2  0  0  0  0  0  0  0  0  0
   21.9550  -12.3651  -17.6548 N   0  0  0  0  0  0  0  0  0  0  0  0
   22.2795  -10.2095  -16.7861 C   0  0  0  0  0  0  0  0  0  0  0  0
   22.9049   -9.7128  -17.7532 O   0  0  0  0  0  0  0  0  0  0  0  0
   21.4780   -9.3213  -16.0156 N   0  0  0  0  0  0  0  0  0  0  0  0
   21.4683   -7.8567  -16.3267 C   0  0  1  0  0  0  0  0  0  0  0  0
   20.2623   -7.6689  -17.1930 C   0  0  0  0  0  0  0  0  0  0  0  0
   19.9299   -6.2989  -17.5677 C   0  0  0  0  0  0  0  0  0  0  0  0
   20.5304   -5.0864  -17.3573 C   0  0  0  0  0  0  0  0  0  0  0  0
   19.8321   -4.1096  -17.9705 N   0  0  0  0  0  0  0  0  0  0  0  0
   18.8055   -4.7004  -18.5605 C   0  0  0  0  0  0  0  0  0  0  0  0
   18.8338   -5.9973  -18.3419 N   0  0  0  0  0  0  0  0  0  0  0  0
   21.2546   -7.2318  -15.0063 C   0  0  0  0  0  0  0  0  0  0  0  0
   21.1383   -7.9692  -13.8631 O   0  0  0  0  0  0  0  0  0  0  0  0
   21.1738   -5.9898  -14.9007 O   0  0  0  0  0  0  0  0  0  0  0  0
  2  1  1  6
  2  4  1  0
  3  2  1  0
  4  6  1  0
  4  5  1  1
  6  7  2  0
  9  8  1  1
 10  9  1  0
 11  9  1  0
 12 11  1  6
 12 14  1  0
 13 12  1  0
 13  6  1  0
 14 15  2  0
 16 17  1  0
 16 14  1  0
 17 24  1  0
 17 18  1  6
 19 18  1  0
 20 19  2  0
 21 22  1  0
 21 20  1  0
 22 23  2  0
 23 19  1  0
 24 26  2  0
 24 25  1  0
M  END
$$$$
