LDI.pdb
     RDKit          3D

 25 24  0  0  1  0  0  0  0  0999 V2000
   28.3636  -17.2947  -19.7987 C   0  0  0  0  0  0  0  0  0  0  0  0
   26.9521  -16.7588  -19.8407 C   0  0  2  0  0  0  0  0  0  0  0  0
   26.8537  -15.6351  -20.8459 C   0  0  0  0  0  0  0  0  0  0  0  0
   26.4474  -16.3721  -18.4771 C   0  0  0  0  0  0  0  0  0  0  0  0
   26.6091  -17.5717  -17.5493 C   0  0  2  0  0  0  0  0  0  0  0  0
   26.2004  -18.7484  -18.3447 N   0  0  0  0  0  0  0  0  0  0  0  0
   25.6660  -17.4871  -16.4104 C   0  0  0  0  0  0  0  0  0  0  0  0
   25.7050  -16.4997  -15.6488 O   0  0  0  0  0  0  0  0  0  0  0  0
   24.6983  -18.5001  -16.1419 N   0  0  0  0  0  0  0  0  0  0  0  0
   23.7417  -18.4146  -15.0794 C   0  0  1  0  0  0  0  0  0  0  0  0
   22.3739  -18.1032  -15.6806 C   0  0  0  0  0  0  0  0  0  0  0  0
   22.0160  -18.9602  -16.8243 C   0  0  0  0  0  0  0  0  0  0  0  0
   22.8933  -19.7259  -17.3044 O   0  0  0  0  0  0  0  0  0  0  0  0
   23.6488  -19.6679  -14.2608 C   0  0  0  0  0  0  0  0  0  0  0  0
   23.7682  -20.7890  -14.8435 O   0  0  0  0  0  0  0  0  0  0  0  0
   20.7606  -18.9853  -17.4167 O   0  0  0  0  0  0  0  0  0  0  0  0
   26.1711  -20.0970   -9.5334 C   0  0  0  0  0  0  0  0  0  0  0  0
   25.4734  -20.4529  -10.8281 C   0  0  0  0  0  0  0  0  0  0  0  0
   23.9663  -20.5117  -10.6398 C   0  0  2  0  0  0  0  0  0  0  0  0
   23.7458  -21.7482   -9.7490 C   0  0  0  0  0  0  0  0  0  0  0  0
   23.3135  -20.7701  -11.9777 C   0  0  2  0  0  0  0  0  0  0  0  0
   23.4435  -19.6652  -12.8944 N   0  0  0  0  0  0  0  0  0  0  0  0
   21.8782  -20.9867  -11.8026 C   0  0  0  0  0  0  0  0  0  0  0  0
   21.3568  -22.2704  -11.8040 O   0  0  0  0  0  0  0  0  0  0  0  0
   21.0496  -20.0378  -11.6444 O   0  0  0  0  0  0  0  0  0  0  0  0
  2  1  1  1
  2  3  1  0
  4  5  1  0
  4  2  1  0
  5  7  1  0
  5  6  1  6
  7  8  2  0
  9  7  1  0
  9 10  1  0
 10 14  1  0
 10 11  1  6
 12 11  1  0
 13 12  2  0
 14 15  2  0
 16 12  1  0
 18 19  1  0
 18 17  1  0
 19 21  1  0
 19 20  1  1
 21 23  1  0
 21 22  1  6
 22 14  1  0
 23 25  2  0
 23 24  1  0
M  END
$$$$
