LDI.pdb
     RDKit          3D

 25 24  0  0  1  0  0  0  0  0999 V2000
   17.3575    4.4323  -18.7934 C   0  0  0  0  0  0  0  0  0  0  0  0
   17.8827    3.0448  -18.5094 C   0  0  2  0  0  0  0  0  0  0  0  0
   17.2749    2.0529  -19.4735 C   0  0  0  0  0  0  0  0  0  0  0  0
   17.7019    2.6496  -17.0691 C   0  0  0  0  0  0  0  0  0  0  0  0
   18.3050    1.2624  -16.8745 C   0  0  2  0  0  0  0  0  0  0  0  0
   17.1574    0.3323  -16.8262 N   0  0  0  0  0  0  0  0  0  0  0  0
   18.9816    1.1622  -15.5607 C   0  0  0  0  0  0  0  0  0  0  0  0
   18.3037    1.1902  -14.5137 O   0  0  0  0  0  0  0  0  0  0  0  0
   20.3966    1.0317  -15.4371 N   0  0  0  0  0  0  0  0  0  0  0  0
   21.0724    0.9357  -14.1781 C   0  0  1  0  0  0  0  0  0  0  0  0
   21.8385   -0.3836  -14.1368 C   0  0  0  0  0  0  0  0  0  0  0  0
   20.9789   -1.5674  -13.9629 C   0  0  0  0  0  0  0  0  0  0  0  0
   20.0641   -1.5289  -13.0979 O   0  0  0  0  0  0  0  0  0  0  0  0
   22.0229    2.0681  -13.9257 C   0  0  0  0  0  0  0  0  0  0  0  0
   22.7538    2.4769  -14.8793 O   0  0  0  0  0  0  0  0  0  0  0  0
   21.1064   -2.7382  -14.6982 O   0  0  0  0  0  0  0  0  0  0  0  0
   20.6323    5.7867  -10.0633 C   0  0  0  0  0  0  0  0  0  0  0  0
   21.2063    5.1779  -11.3240 C   0  0  0  0  0  0  0  0  0  0  0  0
   22.5264    4.4790  -11.0428 C   0  0  2  0  0  0  0  0  0  0  0  0
   23.5026    5.6286  -10.7317 C   0  0  0  0  0  0  0  0  0  0  0  0
   22.9950    3.7884  -12.3023 C   0  0  2  0  0  0  0  0  0  0  0  0
   22.1415    2.6973  -12.7013 N   0  0  0  0  0  0  0  0  0  0  0  0
   24.3223    3.2115  -12.0945 C   0  0  0  0  0  0  0  0  0  0  0  0
   24.4586    1.9042  -11.6562 O   0  0  0  0  0  0  0  0  0  0  0  0
   25.3967    3.8571  -12.2970 O   0  0  0  0  0  0  0  0  0  0  0  0
  2  1  1  1
  2  3  1  0
  4  5  1  0
  4  2  1  0
  5  7  1  0
  5  6  1  1
  7  8  2  0
  9  7  1  0
  9 10  1  0
 10 14  1  0
 10 11  1  6
 12 11  1  0
 13 12  2  0
 14 15  2  0
 16 12  1  0
 18 19  1  0
 18 17  1  0
 19 21  1  0
 19 20  1  6
 21 23  1  0
 21 22  1  1
 22 14  1  0
 23 25  2  0
 23 24  1  0
M  END
$$$$
