LDI.pdb
     RDKit          3D

 25 24  0  0  1  0  0  0  0  0999 V2000
   27.1678  -19.9057   -7.5307 C   0  0  0  0  0  0  0  0  0  0  0  0
   27.5715  -20.9707   -8.5228 C   0  0  2  0  0  0  0  0  0  0  0  0
   28.9941  -21.4086   -8.2635 C   0  0  0  0  0  0  0  0  0  0  0  0
   27.3396  -20.5424   -9.9463 C   0  0  0  0  0  0  0  0  0  0  0  0
   25.8949  -20.0709  -10.0746 C   0  0  2  0  0  0  0  0  0  0  0  0
   25.0964  -21.0059   -9.2545 N   0  0  0  0  0  0  0  0  0  0  0  0
   25.4145  -20.2196  -11.4677 C   0  0  0  0  0  0  0  0  0  0  0  0
   26.2227  -20.1218  -12.4131 O   0  0  0  0  0  0  0  0  0  0  0  0
   24.0468  -20.4754  -11.7820 N   0  0  0  0  0  0  0  0  0  0  0  0
   23.5564  -20.6036  -13.1214 C   0  0  1  0  0  0  0  0  0  0  0  0
   22.2008  -21.3033  -13.0780 C   0  0  0  0  0  0  0  0  0  0  0  0
   21.5829  -21.4895  -14.4024 C   0  0  0  0  0  0  0  0  0  0  0  0
   20.9730  -20.5203  -14.9270 O   0  0  0  0  0  0  0  0  0  0  0  0
   23.4126  -19.2896  -13.8302 C   0  0  0  0  0  0  0  0  0  0  0  0
   22.8313  -18.3329  -13.2325 O   0  0  0  0  0  0  0  0  0  0  0  0
   21.6288  -22.6745  -15.1244 O   0  0  0  0  0  0  0  0  0  0  0  0
   27.8260  -17.1839  -15.7154 C   0  0  0  0  0  0  0  0  0  0  0  0
   26.4093  -17.3739  -15.2188 C   0  0  0  0  0  0  0  0  0  0  0  0
   25.4563  -17.6436  -16.3717 C   0  0  2  0  0  0  0  0  0  0  0  0
   25.4859  -16.3439  -17.1970 C   0  0  0  0  0  0  0  0  0  0  0  0
   24.0601  -17.8240  -15.8234 C   0  0  2  0  0  0  0  0  0  0  0  0
   23.8881  -19.0635  -15.1077 N   0  0  0  0  0  0  0  0  0  0  0  0
   23.0903  -17.8481  -16.9173 C   0  0  0  0  0  0  0  0  0  0  0  0
   22.5466  -16.6683  -17.3993 O   0  0  0  0  0  0  0  0  0  0  0  0
   22.7004  -18.9211  -17.4728 O   0  0  0  0  0  0  0  0  0  0  0  0
  2  1  1  1
  2  3  1  0
  4  5  1  0
  4  2  1  0
  5  7  1  0
  5  6  1  1
  7  8  2  0
  9  7  1  0
  9 10  1  0
 10 14  1  0
 10 11  1  1
 12 11  1  0
 13 12  2  0
 14 15  2  0
 16 12  1  0
 18 19  1  0
 18 17  1  0
 19 21  1  0
 19 20  1  6
 21 23  1  0
 21 22  1  6
 22 14  1  0
 23 25  2  0
 23 24  1  0
M  END
$$$$
