LDI.pdb
     RDKit          3D

 25 24  0  0  1  0  0  0  0  0999 V2000
   29.0519  -18.3781  -17.9385 C   0  0  0  0  0  0  0  0  0  0  0  0
   27.7252  -17.8255  -17.4738 C   0  0  2  0  0  0  0  0  0  0  0  0
   27.3084  -16.6695  -18.3529 C   0  0  0  0  0  0  0  0  0  0  0  0
   27.7331  -17.4767  -16.0103 C   0  0  0  0  0  0  0  0  0  0  0  0
   27.9459  -18.7598  -15.2139 C   0  0  2  0  0  0  0  0  0  0  0  0
   27.5921  -19.8622  -16.1326 N   0  0  0  0  0  0  0  0  0  0  0  0
   26.9971  -18.8386  -14.0793 C   0  0  0  0  0  0  0  0  0  0  0  0
   27.0001  -17.9445  -13.2092 O   0  0  0  0  0  0  0  0  0  0  0  0
   26.0639  -19.9077  -13.9354 N   0  0  0  0  0  0  0  0  0  0  0  0
   25.1347  -20.0021  -12.8497 C   0  0  1  0  0  0  0  0  0  0  0  0
   23.8693  -20.6922  -13.3514 C   0  0  0  0  0  0  0  0  0  0  0  0
   22.8124  -20.8144  -12.3322 C   0  0  0  0  0  0  0  0  0  0  0  0
   22.7772  -19.9751  -11.3937 O   0  0  0  0  0  0  0  0  0  0  0  0
   25.6738  -20.7544  -11.6694 C   0  0  0  0  0  0  0  0  0  0  0  0
   26.2157  -21.8858  -11.8612 O   0  0  0  0  0  0  0  0  0  0  0  0
   21.8370  -21.8024  -12.3354 O   0  0  0  0  0  0  0  0  0  0  0  0
   28.5820  -19.8509   -6.4211 C   0  0  0  0  0  0  0  0  0  0  0  0
   27.5897  -20.6980   -7.1874 C   0  0  0  0  0  0  0  0  0  0  0  0
   27.0710  -19.9614   -8.4116 C   0  0  2  0  0  0  0  0  0  0  0  0
   26.2814  -18.7740   -7.8303 C   0  0  0  0  0  0  0  0  0  0  0  0
   26.1037  -20.8563   -9.1505 C   0  0  2  0  0  0  0  0  0  0  0  0
   25.6153  -20.2737  -10.3753 N   0  0  0  0  0  0  0  0  0  0  0  0
   24.9253  -21.1129   -8.3239 C   0  0  0  0  0  0  0  0  0  0  0  0
   23.6993  -20.5611   -8.6591 O   0  0  0  0  0  0  0  0  0  0  0  0
   24.9563  -21.8351   -7.2801 O   0  0  0  0  0  0  0  0  0  0  0  0
  2  1  1  6
  2  3  1  0
  4  5  1  0
  4  2  1  0
  5  7  1  0
  5  6  1  6
  7  8  2  0
  9  7  1  0
  9 10  1  0
 10 14  1  0
 10 11  1  6
 12 11  1  0
 13 12  2  0
 14 15  2  0
 16 12  1  0
 18 19  1  0
 18 17  1  0
 19 21  1  0
 19 20  1  1
 21 23  1  0
 21 22  1  6
 22 14  1  0
 23 25  2  0
 23 24  1  0
M  END
$$$$
