LDI.pdb
     RDKit          3D

 25 24  0  0  1  0  0  0  0  0999 V2000
   28.9169  -19.8826   -6.1479 C   0  0  0  0  0  0  0  0  0  0  0  0
   27.8361  -19.5864   -7.1606 C   0  0  2  0  0  0  0  0  0  0  0  0
   27.4297  -18.1337   -7.0754 C   0  0  0  0  0  0  0  0  0  0  0  0
   26.6700  -20.5297   -7.0435 C   0  0  0  0  0  0  0  0  0  0  0  0
   25.6657  -20.1871   -8.1390 C   0  0  2  0  0  0  0  0  0  0  0  0
   24.5200  -21.0963   -7.9275 N   0  0  0  0  0  0  0  0  0  0  0  0
   26.2153  -20.5089   -9.4762 C   0  0  0  0  0  0  0  0  0  0  0  0
   27.0567  -21.4224   -9.5942 O   0  0  0  0  0  0  0  0  0  0  0  0
   25.8178  -19.8105  -10.6547 N   0  0  0  0  0  0  0  0  0  0  0  0
   26.1778  -20.2269  -11.9769 C   0  0  1  0  0  0  0  0  0  0  0  0
   25.7133  -21.6669  -12.1766 C   0  0  0  0  0  0  0  0  0  0  0  0
   26.0200  -22.2131  -13.5101 C   0  0  0  0  0  0  0  0  0  0  0  0
   27.0878  -21.8602  -14.0774 O   0  0  0  0  0  0  0  0  0  0  0  0
   25.5895  -19.3634  -13.0530 C   0  0  0  0  0  0  0  0  0  0  0  0
   24.3267  -19.2729  -13.1422 O   0  0  0  0  0  0  0  0  0  0  0  0
   25.2041  -23.1044  -14.1939 O   0  0  0  0  0  0  0  0  0  0  0  0
   26.2067  -14.5963  -15.3869 C   0  0  0  0  0  0  0  0  0  0  0  0
   26.6408  -15.7183  -16.3046 C   0  0  0  0  0  0  0  0  0  0  0  0
   27.1473  -16.9109  -15.5100 C   0  0  2  0  0  0  0  0  0  0  0  0
   27.7651  -17.8374  -16.5735 C   0  0  0  0  0  0  0  0  0  0  0  0
   25.9690  -17.6238  -14.8886 C   0  0  2  0  0  0  0  0  0  0  0  0
   26.3566  -18.6521  -13.9557 N   0  0  0  0  0  0  0  0  0  0  0  0
   25.1820  -18.2904  -15.9249 C   0  0  0  0  0  0  0  0  0  0  0  0
   24.1647  -17.6133  -16.5781 O   0  0  0  0  0  0  0  0  0  0  0  0
   25.3788  -19.4945  -16.2759 O   0  0  0  0  0  0  0  0  0  0  0  0
  2  1  1  1
  2  3  1  0
  4  5  1  0
  4  2  1  0
  5  7  1  0
  5  6  1  1
  7  8  2  0
  9  7  1  0
  9 10  1  0
 10 14  1  0
 10 11  1  6
 12 11  1  0
 13 12  2  0
 14 15  2  0
 16 12  1  0
 18 19  1  0
 18 17  1  0
 19 21  1  0
 19 20  1  6
 21 23  1  0
 21 22  1  1
 22 14  1  0
 23 25  2  0
 23 24  1  0
M  END
$$$$
