LDI.pdb
     RDKit          3D

 25 24  0  0  1  0  0  0  0  0999 V2000
   15.3047  -15.4620  -13.7674 C   0  0  0  0  0  0  0  0  0  0  0  0
   14.8891  -15.4314  -15.2192 C   0  0  2  0  0  0  0  0  0  0  0  0
   15.1468  -16.7749  -15.8608 C   0  0  0  0  0  0  0  0  0  0  0  0
   15.5217  -14.2916  -15.9703 C   0  0  0  0  0  0  0  0  0  0  0  0
   15.1180  -12.9878  -15.2898 C   0  0  2  0  0  0  0  0  0  0  0  0
   13.6821  -12.8094  -15.5909 N   0  0  0  0  0  0  0  0  0  0  0  0
   15.8209  -11.8359  -15.9002 C   0  0  0  0  0  0  0  0  0  0  0  0
   15.4537  -11.4081  -17.0132 O   0  0  0  0  0  0  0  0  0  0  0  0
   16.9158  -11.1820  -15.2613 N   0  0  0  0  0  0  0  0  0  0  0  0
   17.6231  -10.0801  -15.8413 C   0  0  1  0  0  0  0  0  0  0  0  0
   16.6224   -8.9717  -16.1564 C   0  0  0  0  0  0  0  0  0  0  0  0
   17.2335   -7.7641  -16.7384 C   0  0  0  0  0  0  0  0  0  0  0  0
   18.0170   -7.8938  -17.7161 O   0  0  0  0  0  0  0  0  0  0  0  0
   18.7033   -9.5344  -14.9553 C   0  0  0  0  0  0  0  0  0  0  0  0
   18.4283   -9.2773  -13.7434 O   0  0  0  0  0  0  0  0  0  0  0  0
   17.0008   -6.4744  -16.2800 O   0  0  0  0  0  0  0  0  0  0  0  0
   23.1902  -12.1850  -15.3621 C   0  0  0  0  0  0  0  0  0  0  0  0
   22.0801  -11.3073  -14.8266 C   0  0  0  0  0  0  0  0  0  0  0  0
   22.3770   -9.8372  -15.0730 C   0  0  2  0  0  0  0  0  0  0  0  0
   23.5514   -9.5262  -14.1268 C   0  0  0  0  0  0  0  0  0  0  0  0
   21.1869   -9.0153  -14.6358 C   0  0  2  0  0  0  0  0  0  0  0  0
   19.9931   -9.3000  -15.3920 N   0  0  0  0  0  0  0  0  0  0  0  0
   21.4611   -7.5923  -14.8292 C   0  0  0  0  0  0  0  0  0  0  0  0
   22.0084   -6.8374  -13.8043 O   0  0  0  0  0  0  0  0  0  0  0  0
   21.2198   -6.9827  -15.9165 O   0  0  0  0  0  0  0  0  0  0  0  0
  2  1  1  1
  2  3  1  0
  4  5  1  0
  4  2  1  0
  5  7  1  0
  5  6  1  6
  7  8  2  0
  9  7  1  0
  9 10  1  0
 10 14  1  0
 10 11  1  1
 12 11  1  0
 13 12  2  0
 14 15  2  0
 16 12  1  0
 18 19  1  0
 18 17  1  0
 19 21  1  0
 19 20  1  1
 21 23  1  0
 21 22  1  6
 22 14  1  0
 23 25  2  0
 23 24  1  0
M  END
$$$$
