LDI.pdb
     RDKit          3D

 25 24  0  0  1  0  0  0  0  0999 V2000
   20.5810  -24.4744  -12.3914 C   0  0  0  0  0  0  0  0  0  0  0  0
   19.4682  -23.4543  -12.3418 C   0  0  2  0  0  0  0  0  0  0  0  0
   20.0412  -22.0580  -12.4112 C   0  0  0  0  0  0  0  0  0  0  0  0
   18.5595  -23.6576  -11.1601 C   0  0  0  0  0  0  0  0  0  0  0  0
   18.0301  -25.0872  -11.2041 C   0  0  2  0  0  0  0  0  0  0  0  0
   17.1492  -25.1495  -12.3891 N   0  0  0  0  0  0  0  0  0  0  0  0
   17.1731  -25.3675  -10.0291 C   0  0  0  0  0  0  0  0  0  0  0  0
   16.2075  -24.6188   -9.7769 O   0  0  0  0  0  0  0  0  0  0  0  0
   17.4052  -26.4742   -9.1597 N   0  0  0  0  0  0  0  0  0  0  0  0
   16.6236  -26.7336   -7.9879 C   0  0  1  0  0  0  0  0  0  0  0  0
   15.8673  -28.0440   -8.1883 C   0  0  0  0  0  0  0  0  0  0  0  0
   14.8996  -28.3437   -7.1185 C   0  0  0  0  0  0  0  0  0  0  0  0
   15.1691  -29.2611   -6.2986 O   0  0  0  0  0  0  0  0  0  0  0  0
   17.4426  -26.8215   -6.7345 C   0  0  0  0  0  0  0  0  0  0  0  0
   18.6126  -27.3084   -6.8015 O   0  0  0  0  0  0  0  0  0  0  0  0
   13.6953  -27.6744   -6.9468 O   0  0  0  0  0  0  0  0  0  0  0  0
   16.8941  -25.0843   -0.7169 C   0  0  0  0  0  0  0  0  0  0  0  0
   17.5753  -25.8780   -1.8103 C   0  0  0  0  0  0  0  0  0  0  0  0
   16.8444  -25.7258   -3.1342 C   0  0  2  0  0  0  0  0  0  0  0  0
   15.5321  -26.5056   -2.9318 C   0  0  0  0  0  0  0  0  0  0  0  0
   17.6413  -26.4141   -4.2176 C   0  0  2  0  0  0  0  0  0  0  0  0
   16.9878  -26.3922   -5.5024 N   0  0  0  0  0  0  0  0  0  0  0  0
   17.8315  -27.8244   -3.8821 C   0  0  0  0  0  0  0  0  0  0  0  0
   16.9904  -28.7909   -4.4095 O   0  0  0  0  0  0  0  0  0  0  0  0
   18.7518  -28.2336   -3.1091 O   0  0  0  0  0  0  0  0  0  0  0  0
  2  1  1  1
  2  3  1  0
  4  5  1  0
  4  2  1  0
  5  7  1  0
  5  6  1  6
  7  8  2  0
  9  7  1  0
  9 10  1  0
 10 14  1  0
 10 11  1  6
 12 11  1  0
 13 12  2  0
 14 15  2  0
 16 12  1  0
 18 19  1  0
 18 17  1  0
 19 21  1  0
 19 20  1  1
 21 23  1  0
 21 22  1  6
 22 14  1  0
 23 25  2  0
 23 24  1  0
M  END
$$$$
