LDI.pdb
     RDKit          3D

 25 24  0  0  1  0  0  0  0  0999 V2000
   28.6540  -17.2589  -16.2520 C   0  0  0  0  0  0  0  0  0  0  0  0
   27.1727  -17.2927  -15.9587 C   0  0  2  0  0  0  0  0  0  0  0  0
   26.4659  -16.2045  -16.7326 C   0  0  0  0  0  0  0  0  0  0  0  0
   26.8816  -17.2473  -14.4834 C   0  0  0  0  0  0  0  0  0  0  0  0
   27.6100  -18.4092  -13.8161 C   0  0  2  0  0  0  0  0  0  0  0  0
   27.6199  -19.4991  -14.8142 N   0  0  0  0  0  0  0  0  0  0  0  0
   26.8436  -18.9125  -12.6529 C   0  0  0  0  0  0  0  0  0  0  0  0
   26.3036  -18.1028  -11.8724 O   0  0  0  0  0  0  0  0  0  0  0  0
   26.6916  -20.3046  -12.3816 N   0  0  0  0  0  0  0  0  0  0  0  0
   25.9143  -20.8152  -11.2924 C   0  0  1  0  0  0  0  0  0  0  0  0
   25.3374  -22.1683  -11.6991 C   0  0  0  0  0  0  0  0  0  0  0  0
   24.5274  -22.1261  -12.9290 C   0  0  0  0  0  0  0  0  0  0  0  0
   23.5726  -21.3074  -12.9966 O   0  0  0  0  0  0  0  0  0  0  0  0
   26.6995  -20.9729  -10.0243 C   0  0  0  0  0  0  0  0  0  0  0  0
   27.8360  -21.5353  -10.0748 O   0  0  0  0  0  0  0  0  0  0  0  0
   24.7475  -22.9352  -14.0355 O   0  0  0  0  0  0  0  0  0  0  0  0
   29.5059  -20.3005   -5.6634 C   0  0  0  0  0  0  0  0  0  0  0  0
   28.0769  -19.8112   -5.5724 C   0  0  0  0  0  0  0  0  0  0  0  0
   27.5159  -19.4995   -6.9502 C   0  0  2  0  0  0  0  0  0  0  0  0
   26.4611  -18.4083   -6.6895 C   0  0  0  0  0  0  0  0  0  0  0  0
   26.8082  -20.7241   -7.4814 C   0  0  2  0  0  0  0  0  0  0  0  0
   26.2486  -20.5298   -8.7956 N   0  0  0  0  0  0  0  0  0  0  0  0
   25.6877  -21.0741   -6.6099 C   0  0  0  0  0  0  0  0  0  0  0  0
   25.9164  -21.6325   -5.3626 O   0  0  0  0  0  0  0  0  0  0  0  0
   24.4742  -20.8926   -6.9365 O   0  0  0  0  0  0  0  0  0  0  0  0
  2  1  1  1
  2  3  1  0
  4  5  1  0
  4  2  1  0
  5  7  1  0
  5  6  1  6
  7  8  2  0
  9  7  1  0
  9 10  1  0
 10 14  1  0
 10 11  1  6
 12 11  1  0
 13 12  2  0
 14 15  2  0
 16 12  1  0
 18 19  1  0
 18 17  1  0
 19 21  1  0
 19 20  1  1
 21 23  1  0
 21 22  1  6
 22 14  1  0
 23 25  2  0
 23 24  1  0
M  END
$$$$
