LDI.pdb
     RDKit          3D

 25 24  0  0  1  0  0  0  0  0999 V2000
   28.9978  -17.2172  -16.5880 C   0  0  0  0  0  0  0  0  0  0  0  0
   27.5293  -17.4715  -16.3425 C   0  0  2  0  0  0  0  0  0  0  0  0
   26.6931  -16.5815  -17.2320 C   0  0  0  0  0  0  0  0  0  0  0  0
   27.1652  -17.3554  -14.8873 C   0  0  0  0  0  0  0  0  0  0  0  0
   27.5344  -18.6637  -14.1960 C   0  0  2  0  0  0  0  0  0  0  0  0
   27.0989  -19.7364  -15.1147 N   0  0  0  0  0  0  0  0  0  0  0  0
   26.7553  -18.8379  -12.9484 C   0  0  0  0  0  0  0  0  0  0  0  0
   26.7685  -17.9402  -12.0822 O   0  0  0  0  0  0  0  0  0  0  0  0
   25.9767  -20.0046  -12.6896 N   0  0  0  0  0  0  0  0  0  0  0  0
   25.1370  -20.1526  -11.5388 C   0  0  1  0  0  0  0  0  0  0  0  0
   23.9369  -21.0148  -11.9203 C   0  0  0  0  0  0  0  0  0  0  0  0
   23.1022  -20.4365  -12.9877 C   0  0  0  0  0  0  0  0  0  0  0  0
   22.4076  -19.4183  -12.7278 O   0  0  0  0  0  0  0  0  0  0  0  0
   25.8386  -20.7718  -10.3667 C   0  0  0  0  0  0  0  0  0  0  0  0
   26.5558  -21.8013  -10.5574 O   0  0  0  0  0  0  0  0  0  0  0  0
   23.0285  -20.9406  -14.2792 O   0  0  0  0  0  0  0  0  0  0  0  0
   28.4482  -18.1294   -6.4146 C   0  0  0  0  0  0  0  0  0  0  0  0
   27.9588  -19.2208   -7.3413 C   0  0  0  0  0  0  0  0  0  0  0  0
   26.6598  -19.8269   -6.8357 C   0  0  2  0  0  0  0  0  0  0  0  0
   27.0645  -20.5624   -5.5448 C   0  0  0  0  0  0  0  0  0  0  0  0
   26.1755  -20.8534   -7.8329 C   0  0  2  0  0  0  0  0  0  0  0  0
   25.7480  -20.2729   -9.0813 N   0  0  0  0  0  0  0  0  0  0  0  0
   25.0163  -21.5656   -7.2975 C   0  0  0  0  0  0  0  0  0  0  0  0
   23.7338  -21.2057   -7.6788 O   0  0  0  0  0  0  0  0  0  0  0  0
   25.1148  -22.5276   -6.4747 O   0  0  0  0  0  0  0  0  0  0  0  0
  2  1  1  1
  2  3  1  0
  4  5  1  0
  4  2  1  0
  5  7  1  0
  5  6  1  6
  7  8  2  0
  9  7  1  0
  9 10  1  0
 10 14  1  0
 10 11  1  6
 12 11  1  0
 13 12  2  0
 14 15  2  0
 16 12  1  0
 18 19  1  0
 18 17  1  0
 19 21  1  0
 19 20  1  1
 21 23  1  0
 21 22  1  6
 22 14  1  0
 23 25  2  0
 23 24  1  0
M  END
$$$$
