LDI.pdb
     RDKit          3D

 25 24  0  0  1  0  0  0  0  0999 V2000
   16.5668  -16.3781  -17.6107 C   0  0  0  0  0  0  0  0  0  0  0  0
   16.7333  -15.2781  -18.6323 C   0  0  2  0  0  0  0  0  0  0  0  0
   16.7304  -15.8605  -20.0265 C   0  0  0  0  0  0  0  0  0  0  0  0
   17.9386  -14.4209  -18.3570 C   0  0  0  0  0  0  0  0  0  0  0  0
   17.7485  -13.7495  -17.0010 C   0  0  2  0  0  0  0  0  0  0  0  0
   16.2883  -13.7141  -16.7753 N   0  0  0  0  0  0  0  0  0  0  0  0
   18.2007  -12.3397  -17.0436 C   0  0  0  0  0  0  0  0  0  0  0  0
   19.3722  -12.0773  -17.3831 O   0  0  0  0  0  0  0  0  0  0  0  0
   17.3421  -11.2507  -16.7097 N   0  0  0  0  0  0  0  0  0  0  0  0
   17.7458   -9.8784  -16.7801 C   0  0  1  0  0  0  0  0  0  0  0  0
   16.4953   -9.0072  -16.8607 C   0  0  0  0  0  0  0  0  0  0  0  0
   16.7787   -7.5697  -17.0146 C   0  0  0  0  0  0  0  0  0  0  0  0
   17.8561   -7.2212  -17.5662 O   0  0  0  0  0  0  0  0  0  0  0  0
   18.5779   -9.4428  -15.6107 C   0  0  0  0  0  0  0  0  0  0  0  0
   18.1587   -9.6859  -14.4377 O   0  0  0  0  0  0  0  0  0  0  0  0
   15.9280   -6.5577  -16.5905 O   0  0  0  0  0  0  0  0  0  0  0  0
   23.9236  -10.6052  -13.6954 C   0  0  0  0  0  0  0  0  0  0  0  0
   22.8982   -9.4928  -13.7277 C   0  0  0  0  0  0  0  0  0  0  0  0
   21.8889   -9.7105  -14.8430 C   0  0  2  0  0  0  0  0  0  0  0  0
   22.7102   -9.5361  -16.1338 C   0  0  0  0  0  0  0  0  0  0  0  0
   20.8529   -8.6120  -14.7896 C   0  0  2  0  0  0  0  0  0  0  0  0
   19.7883   -8.7902  -15.7452 N   0  0  0  0  0  0  0  0  0  0  0  0
   21.4698   -7.3242  -15.1034 C   0  0  0  0  0  0  0  0  0  0  0  0
   22.1665   -6.6243  -14.1315 O   0  0  0  0  0  0  0  0  0  0  0  0
   21.4043   -6.7872  -16.2521 O   0  0  0  0  0  0  0  0  0  0  0  0
  2  1  1  1
  2  3  1  0
  4  5  1  0
  4  2  1  0
  5  7  1  0
  5  6  1  6
  7  8  2  0
  9  7  1  0
  9 10  1  0
 10 14  1  0
 10 11  1  1
 12 11  1  0
 13 12  2  0
 14 15  2  0
 16 12  1  0
 18 19  1  0
 18 17  1  0
 19 21  1  0
 19 20  1  6
 21 23  1  0
 21 22  1  6
 22 14  1  0
 23 25  2  0
 23 24  1  0
M  END
$$$$
