KHH.pdb
     RDKit          3D

 30 31  0  0  1  0  0  0  0  0999 V2000
   16.5691  -13.3526    5.3262 N   0  0  0  0  0  0  0  0  0  0  0  0
   17.7270  -14.2361    5.2433 C   0  0  1  0  0  0  0  0  0  0  0  0
   18.8233  -13.5965    6.0203 C   0  0  0  0  0  0  0  0  0  0  0  0
   19.4741  -12.4418    5.3326 C   0  0  0  0  0  0  0  0  0  0  0  0
   20.6070  -11.9028    6.1825 C   0  0  0  0  0  0  0  0  0  0  0  0
   21.3262  -10.7638    5.4926 C   0  0  0  0  0  0  0  0  0  0  0  0
   22.3481  -10.1908    6.3135 N   0  0  0  0  0  0  0  0  0  0  0  0
   17.3529  -15.5886    5.6471 C   0  0  0  0  0  0  0  0  0  0  0  0
   16.3573  -15.8132    6.4158 O   0  0  0  0  0  0  0  0  0  0  0  0
   18.1193  -16.6958    5.1716 N   0  0  0  0  0  0  0  0  0  0  0  0
   17.8370  -18.0330    5.6426 C   0  0  1  0  0  0  0  0  0  0  0  0
   17.9527  -19.0479    4.5127 C   0  0  0  0  0  0  0  0  0  0  0  0
   16.7595  -19.0919    3.6642 C   0  0  0  0  0  0  0  0  0  0  0  0
   15.5877  -18.4069    3.8966 C   0  0  0  0  0  0  0  0  0  0  0  0
   14.7526  -18.7129    2.9000 N   0  0  0  0  0  0  0  0  0  0  0  0
   15.3759  -19.5554    2.0767 C   0  0  0  0  0  0  0  0  0  0  0  0
   16.5963  -19.7896    2.5360 N   0  0  0  0  0  0  0  0  0  0  0  0
   18.8413  -18.4186    6.6618 C   0  0  0  0  0  0  0  0  0  0  0  0
   20.0454  -18.1410    6.4262 O   0  0  0  0  0  0  0  0  0  0  0  0
   18.4248  -19.0656    7.8286 N   0  0  0  0  0  0  0  0  0  0  0  0
   19.4375  -19.3974    8.8633 C   0  0  1  0  0  0  0  0  0  0  0  0
   19.7474  -18.1106    9.5249 C   0  0  0  0  0  0  0  0  0  0  0  0
   21.1517  -17.6721    9.5336 C   0  0  0  0  0  0  0  0  0  0  0  0
   22.2352  -18.2316    8.9198 C   0  0  0  0  0  0  0  0  0  0  0  0
   23.3538  -17.4613    9.1280 N   0  0  0  0  0  0  0  0  0  0  0  0
   22.9235  -16.4390    9.8698 C   0  0  0  0  0  0  0  0  0  0  0  0
   21.6268  -16.5275   10.1304 N   0  0  0  0  0  0  0  0  0  0  0  0
   18.7957  -20.3987    9.7727 C   0  0  0  0  0  0  0  0  0  0  0  0
   19.5069  -20.9491   10.8613 O   0  0  0  0  0  0  0  0  0  0  0  0
   17.6392  -20.7998    9.6390 O   0  0  0  0  0  0  0  0  0  0  0  0
  2  1  1  1
  2  3  1  0
  3  4  1  0
  4  5  1  0
  5  6  1  0
  7  6  1  0
  8  2  1  0
  8  9  2  0
 10  8  1  0
 11 10  1  0
 11 12  1  6
 13 12  1  0
 14 13  2  0
 15 16  1  0
 15 14  1  0
 16 17  2  0
 17 13  1  0
 18 11  1  0
 19 18  2  0
 20 18  1  0
 21 20  1  0
 21 28  1  0
 21 22  1  1
 23 24  2  0
 23 22  1  0
 25 24  1  0
 26 27  2  0
 26 25  1  0
 27 23  1  0
 28 29  1  0
 30 28  2  0
M  END
$$$$
