KHH.pdb
     RDKit          3D

 30 31  0  0  1  0  0  0  0  0999 V2000
   24.7515  -13.8116  -19.0352 N   0  0  0  0  0  0  0  0  0  0  0  0
   24.1537  -12.5717  -19.5186 C   0  0  1  0  0  0  0  0  0  0  0  0
   22.7867  -12.9038  -20.0039 C   0  0  0  0  0  0  0  0  0  0  0  0
   22.5406  -14.3630  -20.2034 C   0  0  0  0  0  0  0  0  0  0  0  0
   21.1518  -14.5829  -20.7682 C   0  0  0  0  0  0  0  0  0  0  0  0
   20.8726  -16.0520  -21.0010 C   0  0  0  0  0  0  0  0  0  0  0  0
   19.5792  -16.2749  -21.5703 N   0  0  0  0  0  0  0  0  0  0  0  0
   24.2407  -11.5407  -18.4881 C   0  0  0  0  0  0  0  0  0  0  0  0
   24.2327  -11.8275  -17.2430 O   0  0  0  0  0  0  0  0  0  0  0  0
   24.3377  -10.1705  -18.8785 N   0  0  0  0  0  0  0  0  0  0  0  0
   24.4723   -9.1358  -17.8781 C   0  0  1  0  0  0  0  0  0  0  0  0
   25.2964   -7.9680  -18.4047 C   0  0  0  0  0  0  0  0  0  0  0  0
   26.7271   -8.2722  -18.4834 C   0  0  0  0  0  0  0  0  0  0  0  0
   27.3206   -9.4399  -18.0586 C   0  0  0  0  0  0  0  0  0  0  0  0
   28.6286   -9.3244  -18.3035 N   0  0  0  0  0  0  0  0  0  0  0  0
   28.8457   -8.1326  -18.8591 C   0  0  0  0  0  0  0  0  0  0  0  0
   27.6936   -7.4884  -18.9711 N   0  0  0  0  0  0  0  0  0  0  0  0
   23.1335   -8.5933  -17.5473 C   0  0  0  0  0  0  0  0  0  0  0  0
   22.1664   -8.9512  -18.2679 O   0  0  0  0  0  0  0  0  0  0  0  0
   22.9928   -7.7187  -16.4662 N   0  0  0  0  0  0  0  0  0  0  0  0
   21.6400   -7.5026  -15.8919 C   0  0  1  0  0  0  0  0  0  0  0  0
   21.2114   -8.8329  -15.4059 C   0  0  0  0  0  0  0  0  0  0  0  0
   19.9873   -8.8970  -14.5925 C   0  0  0  0  0  0  0  0  0  0  0  0
   19.0855   -7.9118  -14.3098 C   0  0  0  0  0  0  0  0  0  0  0  0
   18.0433   -8.4152  -13.5692 N   0  0  0  0  0  0  0  0  0  0  0  0
   18.3345   -9.7083  -13.4165 C   0  0  0  0  0  0  0  0  0  0  0  0
   19.4760  -10.0321  -14.0076 N   0  0  0  0  0  0  0  0  0  0  0  0
   21.8043   -6.4909  -14.8006 C   0  0  0  0  0  0  0  0  0  0  0  0
   20.7275   -5.6650  -14.4104 O   0  0  0  0  0  0  0  0  0  0  0  0
   22.8568   -6.3138  -14.1864 O   0  0  0  0  0  0  0  0  0  0  0  0
  2  1  1  1
  2  3  1  0
  3  4  1  0
  4  5  1  0
  5  6  1  0
  7  6  1  0
  8  2  1  0
  8  9  2  0
 10  8  1  0
 11 10  1  0
 11 12  1  6
 13 12  1  0
 14 13  2  0
 15 16  1  0
 15 14  1  0
 16 17  2  0
 17 13  1  0
 18 11  1  0
 19 18  2  0
 20 18  1  0
 21 20  1  0
 21 28  1  0
 21 22  1  1
 23 24  2  0
 23 22  1  0
 25 24  1  0
 26 27  2  0
 26 25  1  0
 27 23  1  0
 28 29  1  0
 30 28  2  0
M  END
$$$$
