KHH.pdb
     RDKit          3D

 30 31  0  0  1  0  0  0  0  0999 V2000
   27.0938  -19.3488  -17.6672 N   0  0  0  0  0  0  0  0  0  0  0  0
   27.6443  -18.8583  -16.4084 C   0  0  1  0  0  0  0  0  0  0  0  0
   28.7686  -17.9443  -16.7477 C   0  0  0  0  0  0  0  0  0  0  0  0
   29.0471  -17.8258  -18.2100 C   0  0  0  0  0  0  0  0  0  0  0  0
   30.3334  -18.5493  -18.5539 C   0  0  0  0  0  0  0  0  0  0  0  0
   30.7390  -18.3089  -19.9920 C   0  0  0  0  0  0  0  0  0  0  0  0
   29.7682  -18.8030  -20.9194 N   0  0  0  0  0  0  0  0  0  0  0  0
   26.5793  -18.2939  -15.5840 C   0  0  0  0  0  0  0  0  0  0  0  0
   26.8087  -17.8028  -14.4269 O   0  0  0  0  0  0  0  0  0  0  0  0
   25.2406  -18.2884  -16.0813 N   0  0  0  0  0  0  0  0  0  0  0  0
   24.1605  -17.7897  -15.2602 C   0  0  1  0  0  0  0  0  0  0  0  0
   23.2870  -16.8133  -16.0372 C   0  0  0  0  0  0  0  0  0  0  0  0
   23.9263  -15.5098  -16.2316 C   0  0  0  0  0  0  0  0  0  0  0  0
   24.7156  -14.8610  -15.3083 C   0  0  0  0  0  0  0  0  0  0  0  0
   25.1021  -13.7101  -15.8654 N   0  0  0  0  0  0  0  0  0  0  0  0
   24.5762  -13.6408  -17.0880 C   0  0  0  0  0  0  0  0  0  0  0  0
   23.8604  -14.7319  -17.3163 N   0  0  0  0  0  0  0  0  0  0  0  0
   23.2841  -18.9162  -14.8616 C   0  0  0  0  0  0  0  0  0  0  0  0
   23.0782  -19.8217  -15.7103 O   0  0  0  0  0  0  0  0  0  0  0  0
   22.7260  -18.9346  -13.5802 N   0  0  0  0  0  0  0  0  0  0  0  0
   21.8793  -20.0892  -13.1850 C   0  0  1  0  0  0  0  0  0  0  0  0
   22.3587  -20.4750  -11.8392 C   0  0  0  0  0  0  0  0  0  0  0  0
   23.6668  -21.1420  -11.7494 C   0  0  0  0  0  0  0  0  0  0  0  0
   24.5667  -21.4156  -12.7389 C   0  0  0  0  0  0  0  0  0  0  0  0
   25.6982  -21.9896  -12.2114 N   0  0  0  0  0  0  0  0  0  0  0  0
   25.4618  -22.0525  -10.8997 C   0  0  0  0  0  0  0  0  0  0  0  0
   24.2711  -21.5607  -10.5869 N   0  0  0  0  0  0  0  0  0  0  0  0
   20.4655  -19.5968  -13.1985 C   0  0  0  0  0  0  0  0  0  0  0  0
   19.3826  -20.5026  -13.1699 O   0  0  0  0  0  0  0  0  0  0  0  0
   20.1579  -18.4050  -13.2345 O   0  0  0  0  0  0  0  0  0  0  0  0
  2  1  1  6
  2  3  1  0
  3  4  1  0
  4  5  1  0
  5  6  1  0
  7  6  1  0
  8  2  1  0
  8  9  2  0
 10  8  1  0
 11 10  1  0
 11 12  1  6
 13 12  1  0
 14 13  2  0
 15 16  1  0
 15 14  1  0
 16 17  2  0
 17 13  1  0
 18 11  1  0
 19 18  2  0
 20 18  1  0
 21 20  1  0
 21 28  1  0
 21 22  1  1
 23 24  2  0
 23 22  1  0
 25 24  1  0
 26 27  2  0
 26 25  1  0
 27 23  1  0
 28 29  1  0
 30 28  2  0
M  END
$$$$
