KHH.pdb
     RDKit          3D

 30 31  0  0  1  0  0  0  0  0999 V2000
   23.4354  -11.4793  -19.5328 N   0  0  0  0  0  0  0  0  0  0  0  0
   23.8101  -10.2364  -18.8670 C   0  0  1  0  0  0  0  0  0  0  0  0
   24.2686   -9.2939  -19.9234 C   0  0  0  0  0  0  0  0  0  0  0  0
   25.5499   -9.6836  -20.5838 C   0  0  0  0  0  0  0  0  0  0  0  0
   25.9783   -8.6079  -21.5614 C   0  0  0  0  0  0  0  0  0  0  0  0
   27.3116   -8.9348  -22.1985 C   0  0  0  0  0  0  0  0  0  0  0  0
   27.3427  -10.2570  -22.7438 N   0  0  0  0  0  0  0  0  0  0  0  0
   22.7144   -9.7740  -18.0198 C   0  0  0  0  0  0  0  0  0  0  0  0
   21.5568   -9.5139  -18.4943 O   0  0  0  0  0  0  0  0  0  0  0  0
   22.9382   -9.6059  -16.6195 N   0  0  0  0  0  0  0  0  0  0  0  0
   21.8711   -9.1423  -15.7617 C   0  0  1  0  0  0  0  0  0  0  0  0
   22.1711   -9.4475  -14.2998 C   0  0  0  0  0  0  0  0  0  0  0  0
   21.0379   -9.1633  -13.4161 C   0  0  0  0  0  0  0  0  0  0  0  0
   19.8326   -8.6261  -13.8094 C   0  0  0  0  0  0  0  0  0  0  0  0
   19.0745   -8.5248  -12.7142 N   0  0  0  0  0  0  0  0  0  0  0  0
   19.7766   -8.9801  -11.6770 C   0  0  0  0  0  0  0  0  0  0  0  0
   20.9710   -9.3696  -12.0973 N   0  0  0  0  0  0  0  0  0  0  0  0
   21.7561   -7.6689  -15.8710 C   0  0  0  0  0  0  0  0  0  0  0  0
   22.8203   -7.0100  -15.9972 O   0  0  0  0  0  0  0  0  0  0  0  0
   20.4929   -7.0719  -15.8309 N   0  0  0  0  0  0  0  0  0  0  0  0
   20.3857   -5.6081  -16.0589 C   0  0  1  0  0  0  0  0  0  0  0  0
   20.9131   -5.3916  -17.4244 C   0  0  0  0  0  0  0  0  0  0  0  0
   20.8294   -4.0309  -17.9772 C   0  0  0  0  0  0  0  0  0  0  0  0
   20.4719   -2.8677  -17.3585 C   0  0  0  0  0  0  0  0  0  0  0  0
   20.5967   -1.8075  -18.2237 N   0  0  0  0  0  0  0  0  0  0  0  0
   21.0330   -2.3526  -19.3608 C   0  0  0  0  0  0  0  0  0  0  0  0
   21.1833   -3.6653  -19.2551 N   0  0  0  0  0  0  0  0  0  0  0  0
   18.9350   -5.2665  -15.9162 C   0  0  0  0  0  0  0  0  0  0  0  0
   18.5294   -3.9599  -15.5666 O   0  0  0  0  0  0  0  0  0  0  0  0
   18.0228   -6.0756  -16.0883 O   0  0  0  0  0  0  0  0  0  0  0  0
  2  1  1  6
  2  3  1  0
  3  4  1  0
  4  5  1  0
  5  6  1  0
  7  6  1  0
  8  2  1  0
  8  9  2  0
 10  8  1  0
 11 10  1  0
 11 12  1  1
 13 12  1  0
 14 13  2  0
 15 16  1  0
 15 14  1  0
 16 17  2  0
 17 13  1  0
 18 11  1  0
 19 18  2  0
 20 18  1  0
 21 20  1  0
 21 28  1  0
 21 22  1  6
 23 24  2  0
 23 22  1  0
 25 24  1  0
 26 27  2  0
 26 25  1  0
 27 23  1  0
 28 29  1  0
 30 28  2  0
M  END
$$$$
