KHH.pdb
     RDKit          3D

 30 31  0  0  1  0  0  0  0  0999 V2000
   14.9083  -23.5782   -3.9204 N   0  0  0  0  0  0  0  0  0  0  0  0
   14.7748  -24.1978   -2.6065 C   0  0  1  0  0  0  0  0  0  0  0  0
   15.6247  -25.4194   -2.6091 C   0  0  0  0  0  0  0  0  0  0  0  0
   15.4983  -26.2560   -3.8395 C   0  0  0  0  0  0  0  0  0  0  0  0
   14.4185  -27.3017   -3.6476 C   0  0  0  0  0  0  0  0  0  0  0  0
   14.2942  -28.2010   -4.8585 C   0  0  0  0  0  0  0  0  0  0  0  0
   13.2404  -29.1582   -4.7176 N   0  0  0  0  0  0  0  0  0  0  0  0
   15.0558  -23.2175   -1.5614 C   0  0  0  0  0  0  0  0  0  0  0  0
   16.1105  -22.4964   -1.5774 O   0  0  0  0  0  0  0  0  0  0  0  0
   14.1277  -23.0565   -0.4880 N   0  0  0  0  0  0  0  0  0  0  0  0
   14.3405  -22.0345    0.5118 C   0  0  1  0  0  0  0  0  0  0  0  0
   13.0284  -21.3644    0.8986 C   0  0  0  0  0  0  0  0  0  0  0  0
   12.5707  -20.3937   -0.0983 C   0  0  0  0  0  0  0  0  0  0  0  0
   13.2411  -20.0576   -1.2533 C   0  0  0  0  0  0  0  0  0  0  0  0
   12.4975  -19.1450   -1.8846 N   0  0  0  0  0  0  0  0  0  0  0  0
   11.4057  -18.9185   -1.1546 C   0  0  0  0  0  0  0  0  0  0  0  0
   11.4445  -19.6747   -0.0676 N   0  0  0  0  0  0  0  0  0  0  0  0
   14.8775  -22.6561    1.7452 C   0  0  0  0  0  0  0  0  0  0  0  0
   14.5828  -23.8589    1.9663 O   0  0  0  0  0  0  0  0  0  0  0  0
   15.6782  -21.8994    2.6054 N   0  0  0  0  0  0  0  0  0  0  0  0
   16.2105  -22.5393    3.8356 C   0  0  1  0  0  0  0  0  0  0  0  0
   17.6800  -22.3954    3.7392 C   0  0  0  0  0  0  0  0  0  0  0  0
   18.4340  -23.5094    3.1437 C   0  0  0  0  0  0  0  0  0  0  0  0
   17.9800  -24.7128    2.6859 C   0  0  0  0  0  0  0  0  0  0  0  0
   19.0119  -25.4371    2.1394 N   0  0  0  0  0  0  0  0  0  0  0  0
   20.0818  -24.6517    2.2760 C   0  0  0  0  0  0  0  0  0  0  0  0
   19.7810  -23.5029    2.8651 N   0  0  0  0  0  0  0  0  0  0  0  0
   15.6104  -21.7958    4.9884 C   0  0  0  0  0  0  0  0  0  0  0  0
   15.6925  -22.3074    6.3019 O   0  0  0  0  0  0  0  0  0  0  0  0
   15.0219  -20.7201    4.8751 O   0  0  0  0  0  0  0  0  0  0  0  0
  2  1  1  6
  2  3  1  0
  3  4  1  0
  4  5  1  0
  5  6  1  0
  7  6  1  0
  8  2  1  0
  8  9  2  0
 10  8  1  0
 11 10  1  0
 11 12  1  1
 13 12  1  0
 14 13  2  0
 15 16  1  0
 15 14  1  0
 16 17  2  0
 17 13  1  0
 18 11  1  0
 19 18  2  0
 20 18  1  0
 21 20  1  0
 21 28  1  0
 21 22  1  6
 23 24  2  0
 23 22  1  0
 25 24  1  0
 26 27  2  0
 26 25  1  0
 27 23  1  0
 28 29  1  0
 30 28  2  0
M  END
$$$$
