KHH.pdb
     RDKit          3D

 30 31  0  0  1  0  0  0  0  0999 V2000
   23.8717  -17.4710  -19.5002 N   0  0  0  0  0  0  0  0  0  0  0  0
   23.1325  -16.3367  -18.9570 C   0  0  1  0  0  0  0  0  0  0  0  0
   22.7706  -15.4594  -20.1032 C   0  0  0  0  0  0  0  0  0  0  0  0
   22.2112  -16.1849  -21.2825 C   0  0  0  0  0  0  0  0  0  0  0  0
   20.7213  -16.3956  -21.1036 C   0  0  0  0  0  0  0  0  0  0  0  0
   20.1195  -17.1351  -22.2789 C   0  0  0  0  0  0  0  0  0  0  0  0
   18.7337  -17.4306  -22.0820 N   0  0  0  0  0  0  0  0  0  0  0  0
   22.0252  -16.8115  -18.1319 C   0  0  0  0  0  0  0  0  0  0  0  0
   21.5231  -17.9770  -18.2806 O   0  0  0  0  0  0  0  0  0  0  0  0
   21.4843  -15.9516  -17.1282 N   0  0  0  0  0  0  0  0  0  0  0  0
   20.3708  -16.3891  -16.3169 C   0  0  1  0  0  0  0  0  0  0  0  0
   20.8018  -16.6228  -14.8748 C   0  0  0  0  0  0  0  0  0  0  0  0
   21.4385  -17.9270  -14.6763 C   0  0  0  0  0  0  0  0  0  0  0  0
   22.7789  -18.1955  -14.8418 C   0  0  0  0  0  0  0  0  0  0  0  0
   22.9543  -19.4908  -14.5667 N   0  0  0  0  0  0  0  0  0  0  0  0
   21.7716  -20.0125  -14.2421 C   0  0  0  0  0  0  0  0  0  0  0  0
   20.8463  -19.0668  -14.3070 N   0  0  0  0  0  0  0  0  0  0  0  0
   19.3385  -15.3265  -16.2829 C   0  0  0  0  0  0  0  0  0  0  0  0
   19.7168  -14.1561  -16.0188 O   0  0  0  0  0  0  0  0  0  0  0  0
   18.0043  -15.6539  -16.5403 N   0  0  0  0  0  0  0  0  0  0  0  0
   16.9730  -14.5904  -16.4333 C   0  0  1  0  0  0  0  0  0  0  0  0
   16.4618  -14.4101  -17.8102 C   0  0  0  0  0  0  0  0  0  0  0  0
   17.2270  -13.5325  -18.7094 C   0  0  0  0  0  0  0  0  0  0  0  0
   18.4260  -13.7578  -19.3221 C   0  0  0  0  0  0  0  0  0  0  0  0
   18.7526  -12.7012  -20.1376 N   0  0  0  0  0  0  0  0  0  0  0  0
   17.7355  -11.8479  -20.0041 C   0  0  0  0  0  0  0  0  0  0  0  0
   16.8132  -12.3036  -19.1682 N   0  0  0  0  0  0  0  0  0  0  0  0
   15.9427  -15.1002  -15.4741 C   0  0  0  0  0  0  0  0  0  0  0  0
   15.0876  -14.2099  -14.7886 O   0  0  0  0  0  0  0  0  0  0  0  0
   15.7742  -16.2941  -15.2238 O   0  0  0  0  0  0  0  0  0  0  0  0
  2  1  1  6
  2  3  1  0
  3  4  1  0
  4  5  1  0
  5  6  1  0
  7  6  1  0
  8  2  1  0
  8  9  2  0
 10  8  1  0
 11 10  1  0
 11 12  1  1
 13 12  1  0
 14 13  2  0
 15 16  1  0
 15 14  1  0
 16 17  2  0
 17 13  1  0
 18 11  1  0
 19 18  2  0
 20 18  1  0
 21 20  1  0
 21 28  1  0
 21 22  1  6
 23 24  2  0
 23 22  1  0
 25 24  1  0
 26 27  2  0
 26 25  1  0
 27 23  1  0
 28 29  1  0
 30 28  2  0
M  END
$$$$
