KHH.pdb
     RDKit          3D

 30 31  0  0  1  0  0  0  0  0999 V2000
   28.0722  -15.1667  -18.9586 N   0  0  0  0  0  0  0  0  0  0  0  0
   27.7264  -13.9048  -19.6037 C   0  0  1  0  0  0  0  0  0  0  0  0
   26.4061  -14.0964  -20.2630 C   0  0  0  0  0  0  0  0  0  0  0  0
   26.4862  -14.5334  -21.6886 C   0  0  0  0  0  0  0  0  0  0  0  0
   25.1021  -14.5496  -22.3052 C   0  0  0  0  0  0  0  0  0  0  0  0
   25.1403  -15.0152  -23.7448 C   0  0  0  0  0  0  0  0  0  0  0  0
   23.8312  -15.1607  -24.3030 N   0  0  0  0  0  0  0  0  0  0  0  0
   27.8148  -12.8110  -18.6403 C   0  0  0  0  0  0  0  0  0  0  0  0
   27.4542  -12.9523  -17.4227 O   0  0  0  0  0  0  0  0  0  0  0  0
   28.3184  -11.5446  -19.0669 N   0  0  0  0  0  0  0  0  0  0  0  0
   28.4659  -10.4628  -18.1196 C   0  0  1  0  0  0  0  0  0  0  0  0
   29.7731   -9.7133  -18.3425 C   0  0  0  0  0  0  0  0  0  0  0  0
   30.9537  -10.5402  -18.0811 C   0  0  0  0  0  0  0  0  0  0  0  0
   30.9418  -11.7916  -17.5066 C   0  0  0  0  0  0  0  0  0  0  0  0
   32.2107  -12.2042  -17.4438 N   0  0  0  0  0  0  0  0  0  0  0  0
   32.9860  -11.2500  -17.9581 C   0  0  0  0  0  0  0  0  0  0  0  0
   32.2276  -10.2359  -18.3473 N   0  0  0  0  0  0  0  0  0  0  0  0
   27.3754   -9.4797  -18.3206 C   0  0  0  0  0  0  0  0  0  0  0  0
   27.1741   -9.0655  -19.4912 O   0  0  0  0  0  0  0  0  0  0  0  0
   26.6213   -9.0538  -17.2236 N   0  0  0  0  0  0  0  0  0  0  0  0
   25.4437   -8.1800  -17.4606 C   0  0  1  0  0  0  0  0  0  0  0  0
   24.5437   -8.9736  -18.3264 C   0  0  0  0  0  0  0  0  0  0  0  0
   23.2010   -8.4323  -18.5879 C   0  0  0  0  0  0  0  0  0  0  0  0
   22.6798   -7.2158  -18.2530 C   0  0  0  0  0  0  0  0  0  0  0  0
   21.4059   -7.0872  -18.7517 N   0  0  0  0  0  0  0  0  0  0  0  0
   21.1769   -8.2382  -19.3868 C   0  0  0  0  0  0  0  0  0  0  0  0
   22.2147   -9.0596  -19.3128 N   0  0  0  0  0  0  0  0  0  0  0  0
   24.8662   -7.8796  -16.1123 C   0  0  0  0  0  0  0  0  0  0  0  0
   25.2017   -8.6664  -14.9888 O   0  0  0  0  0  0  0  0  0  0  0  0
   24.0828   -6.9546  -15.8957 O   0  0  0  0  0  0  0  0  0  0  0  0
  2  1  1  1
  2  3  1  0
  3  4  1  0
  4  5  1  0
  5  6  1  0
  7  6  1  0
  8  2  1  0
  8  9  2  0
 10  8  1  0
 11 10  1  0
 11 12  1  6
 13 12  1  0
 14 13  2  0
 15 16  1  0
 15 14  1  0
 16 17  2  0
 17 13  1  0
 18 11  1  0
 19 18  2  0
 20 18  1  0
 21 20  1  0
 21 28  1  0
 21 22  1  6
 23 24  2  0
 23 22  1  0
 25 24  1  0
 26 27  2  0
 26 25  1  0
 27 23  1  0
 28 29  1  0
 30 28  2  0
M  END
$$$$
