KHH.pdb
     RDKit          3D

 30 31  0  0  1  0  0  0  0  0999 V2000
   26.9005  -22.4421  -18.0752 N   0  0  0  0  0  0  0  0  0  0  0  0
   25.4933  -22.6913  -18.3683 C   0  0  1  0  0  0  0  0  0  0  0  0
   25.1935  -22.0355  -19.6700 C   0  0  0  0  0  0  0  0  0  0  0  0
   24.8552  -20.5847  -19.5661 C   0  0  0  0  0  0  0  0  0  0  0  0
   23.3511  -20.4026  -19.5434 C   0  0  0  0  0  0  0  0  0  0  0  0
   22.9697  -18.9448  -19.4029 C   0  0  0  0  0  0  0  0  0  0  0  0
   21.5619  -18.7358  -19.5475 N   0  0  0  0  0  0  0  0  0  0  0  0
   25.2120  -24.1218  -18.2856 C   0  0  0  0  0  0  0  0  0  0  0  0
   24.8464  -24.7986  -19.3059 O   0  0  0  0  0  0  0  0  0  0  0  0
   25.3480  -24.7882  -17.0300 N   0  0  0  0  0  0  0  0  0  0  0  0
   25.0569  -26.1998  -16.9192 C   0  0  1  0  0  0  0  0  0  0  0  0
   26.0325  -26.8882  -15.9734 C   0  0  0  0  0  0  0  0  0  0  0  0
   27.3473  -27.1135  -16.5788 C   0  0  0  0  0  0  0  0  0  0  0  0
   27.6754  -26.8647  -17.8928 C   0  0  0  0  0  0  0  0  0  0  0  0
   28.9595  -27.2001  -18.0445 N   0  0  0  0  0  0  0  0  0  0  0  0
   29.4170  -27.6411  -16.8731 C   0  0  0  0  0  0  0  0  0  0  0  0
   28.4416  -27.5909  -15.9781 N   0  0  0  0  0  0  0  0  0  0  0  0
   23.7059  -26.3800  -16.3375 C   0  0  0  0  0  0  0  0  0  0  0  0
   23.2705  -25.4709  -15.5848 O   0  0  0  0  0  0  0  0  0  0  0  0
   22.9744  -27.5322  -16.6389 N   0  0  0  0  0  0  0  0  0  0  0  0
   21.5740  -27.6378  -16.1552 C   0  0  1  0  0  0  0  0  0  0  0  0
   20.8773  -26.4682  -16.7353 C   0  0  0  0  0  0  0  0  0  0  0  0
   19.4132  -26.4147  -16.6019 C   0  0  0  0  0  0  0  0  0  0  0  0
   18.5815  -27.2213  -15.8798 C   0  0  0  0  0  0  0  0  0  0  0  0
   17.2842  -26.7784  -15.9746 N   0  0  0  0  0  0  0  0  0  0  0  0
   17.3544  -25.7008  -16.7583 C   0  0  0  0  0  0  0  0  0  0  0  0
   18.5965  -25.4529  -17.1494 N   0  0  0  0  0  0  0  0  0  0  0  0
   21.0559  -28.9511  -16.6536 C   0  0  0  0  0  0  0  0  0  0  0  0
   19.8897  -29.5259  -16.1026 O   0  0  0  0  0  0  0  0  0  0  0  0
   21.5936  -29.6013  -17.5504 O   0  0  0  0  0  0  0  0  0  0  0  0
  2  1  1  6
  2  3  1  0
  3  4  1  0
  4  5  1  0
  5  6  1  0
  7  6  1  0
  8  2  1  0
  8  9  2  0
 10  8  1  0
 11 10  1  0
 11 12  1  1
 13 12  1  0
 14 13  2  0
 15 16  1  0
 15 14  1  0
 16 17  2  0
 17 13  1  0
 18 11  1  0
 19 18  2  0
 20 18  1  0
 21 20  1  0
 21 28  1  0
 21 22  1  6
 23 24  2  0
 23 22  1  0
 25 24  1  0
 26 27  2  0
 26 25  1  0
 27 23  1  0
 28 29  1  0
 30 28  2  0
M  END
$$$$
