KHH.pdb
     RDKit          3D

 30 31  0  0  1  0  0  0  0  0999 V2000
   16.2639  -20.8072    1.0746 N   0  0  0  0  0  0  0  0  0  0  0  0
   15.5921  -20.2679    2.2518 C   0  0  1  0  0  0  0  0  0  0  0  0
   14.8241  -21.3835    2.8683 C   0  0  0  0  0  0  0  0  0  0  0  0
   14.8078  -22.6404    2.0622 C   0  0  0  0  0  0  0  0  0  0  0  0
   13.4169  -22.8875    1.5139 C   0  0  0  0  0  0  0  0  0  0  0  0
   13.3347  -24.2096    0.7820 C   0  0  0  0  0  0  0  0  0  0  0  0
   12.0529  -24.4191    0.1823 N   0  0  0  0  0  0  0  0  0  0  0  0
   16.5596  -19.5954    3.1144 C   0  0  0  0  0  0  0  0  0  0  0  0
   17.5912  -20.1964    3.5696 O   0  0  0  0  0  0  0  0  0  0  0  0
   16.3509  -18.2262    3.4622 N   0  0  0  0  0  0  0  0  0  0  0  0
   17.3482  -17.5076    4.2228 C   0  0  1  0  0  0  0  0  0  0  0  0
   17.5740  -16.1137    3.6517 C   0  0  0  0  0  0  0  0  0  0  0  0
   18.7451  -16.0419    2.7747 C   0  0  0  0  0  0  0  0  0  0  0  0
   19.6286  -17.0707    2.5352 C   0  0  0  0  0  0  0  0  0  0  0  0
   20.5489  -16.6050    1.6864 N   0  0  0  0  0  0  0  0  0  0  0  0
   20.2538  -15.3361    1.4055 C   0  0  0  0  0  0  0  0  0  0  0  0
   19.1583  -14.9881    2.0641 N   0  0  0  0  0  0  0  0  0  0  0  0
   16.8689  -17.3225    5.6128 C   0  0  0  0  0  0  0  0  0  0  0  0
   15.6368  -17.1339    5.7831 O   0  0  0  0  0  0  0  0  0  0  0  0
   17.7844  -17.3630    6.6682 N   0  0  0  0  0  0  0  0  0  0  0  0
   17.2950  -17.1223    8.0498 C   0  0  1  0  0  0  0  0  0  0  0  0
   17.8605  -18.2267    8.8561 C   0  0  0  0  0  0  0  0  0  0  0  0
   17.1143  -19.4941    8.8903 C   0  0  0  0  0  0  0  0  0  0  0  0
   15.7853  -19.7201    8.6751 C   0  0  0  0  0  0  0  0  0  0  0  0
   15.5132  -21.0657    8.7330 N   0  0  0  0  0  0  0  0  0  0  0  0
   16.6934  -21.6358    8.9831 C   0  0  0  0  0  0  0  0  0  0  0  0
   17.6651  -20.7397    9.0827 N   0  0  0  0  0  0  0  0  0  0  0  0
   17.8034  -15.7709    8.4454 C   0  0  0  0  0  0  0  0  0  0  0  0
   18.5396  -14.9793    7.5370 O   0  0  0  0  0  0  0  0  0  0  0  0
   17.6208  -15.2708    9.5558 O   0  0  0  0  0  0  0  0  0  0  0  0
  2  1  1  6
  2  3  1  0
  3  4  1  0
  4  5  1  0
  5  6  1  0
  7  6  1  0
  8  2  1  0
  8  9  2  0
 10  8  1  0
 11 10  1  0
 11 12  1  6
 13 12  1  0
 14 13  2  0
 15 16  1  0
 15 14  1  0
 16 17  2  0
 17 13  1  0
 18 11  1  0
 19 18  2  0
 20 18  1  0
 21 20  1  0
 21 28  1  0
 21 22  1  1
 23 24  2  0
 23 22  1  0
 25 24  1  0
 26 27  2  0
 26 25  1  0
 27 23  1  0
 28 29  1  0
 30 28  2  0
M  END
$$$$
