KHH.pdb
     RDKit          3D

 30 31  0  0  1  0  0  0  0  0999 V2000
   33.9436  -29.6407  -21.2783 N   0  0  0  0  0  0  0  0  0  0  0  0
   33.3070  -30.3563  -20.1779 C   0  0  1  0  0  0  0  0  0  0  0  0
   34.1678  -30.1715  -18.9781 C   0  0  0  0  0  0  0  0  0  0  0  0
   35.3657  -31.0621  -18.9355 C   0  0  0  0  0  0  0  0  0  0  0  0
   35.0753  -32.2825  -18.0855 C   0  0  0  0  0  0  0  0  0  0  0  0
   36.2678  -33.2122  -18.0219 C   0  0  0  0  0  0  0  0  0  0  0  0
   36.0598  -34.3005  -17.1171 N   0  0  0  0  0  0  0  0  0  0  0  0
   31.9156  -29.9333  -20.0461 C   0  0  0  0  0  0  0  0  0  0  0  0
   31.5191  -28.7831  -20.4366 O   0  0  0  0  0  0  0  0  0  0  0  0
   30.9666  -30.8279  -19.4643 N   0  0  0  0  0  0  0  0  0  0  0  0
   29.5666  -30.4715  -19.4120 C   0  0  1  0  0  0  0  0  0  0  0  0
   28.6833  -31.7116  -19.4567 C   0  0  0  0  0  0  0  0  0  0  0  0
   28.5804  -32.2877  -20.7996 C   0  0  0  0  0  0  0  0  0  0  0  0
   28.7092  -31.5908  -21.9803 C   0  0  0  0  0  0  0  0  0  0  0  0
   28.5504  -32.4711  -22.9724 N   0  0  0  0  0  0  0  0  0  0  0  0
   28.3310  -33.6707  -22.4349 C   0  0  0  0  0  0  0  0  0  0  0  0
   28.3481  -33.5656  -21.1144 N   0  0  0  0  0  0  0  0  0  0  0  0
   29.2786  -29.7935  -18.1261 C   0  0  0  0  0  0  0  0  0  0  0  0
   29.8782  -30.2101  -17.1017 O   0  0  0  0  0  0  0  0  0  0  0  0
   28.3677  -28.7339  -18.0952 N   0  0  0  0  0  0  0  0  0  0  0  0
   28.1836  -27.9852  -16.8256 C   0  0  1  0  0  0  0  0  0  0  0  0
   28.5082  -26.5801  -17.1570 C   0  0  0  0  0  0  0  0  0  0  0  0
   29.9273  -26.1924  -17.1567 C   0  0  0  0  0  0  0  0  0  0  0  0
   31.0374  -26.9781  -17.0379 C   0  0  0  0  0  0  0  0  0  0  0  0
   32.1762  -26.2189  -17.1596 N   0  0  0  0  0  0  0  0  0  0  0  0
   31.7313  -24.9760  -17.3532 C   0  0  0  0  0  0  0  0  0  0  0  0
   30.4070  -24.9191  -17.3583 N   0  0  0  0  0  0  0  0  0  0  0  0
   26.7570  -28.1907  -16.4205 C   0  0  0  0  0  0  0  0  0  0  0  0
   26.3377  -27.9444  -15.0948 O   0  0  0  0  0  0  0  0  0  0  0  0
   25.8773  -28.5767  -17.1908 O   0  0  0  0  0  0  0  0  0  0  0  0
  2  1  1  6
  2  3  1  0
  3  4  1  0
  4  5  1  0
  5  6  1  0
  7  6  1  0
  8  2  1  0
  8  9  2  0
 10  8  1  0
 11 10  1  0
 11 12  1  1
 13 12  1  0
 14 13  2  0
 15 16  1  0
 15 14  1  0
 16 17  2  0
 17 13  1  0
 18 11  1  0
 19 18  2  0
 20 18  1  0
 21 20  1  0
 21 28  1  0
 21 22  1  6
 23 24  2  0
 23 22  1  0
 25 24  1  0
 26 27  2  0
 26 25  1  0
 27 23  1  0
 28 29  1  0
 30 28  2  0
M  END
$$$$
