KHH.pdb
     RDKit          3D

 30 31  0  0  1  0  0  0  0  0999 V2000
   46.4616  -15.8967   -7.1821 N   0  0  0  0  0  0  0  0  0  0  0  0
   45.8993  -15.1871   -8.3260 C   0  0  1  0  0  0  0  0  0  0  0  0
   44.7509  -15.9936   -8.8214 C   0  0  0  0  0  0  0  0  0  0  0  0
   45.1310  -17.3153   -9.4032 C   0  0  0  0  0  0  0  0  0  0  0  0
   43.8936  -18.0461   -9.8838 C   0  0  0  0  0  0  0  0  0  0  0  0
   44.2357  -19.4104  -10.4427 C   0  0  0  0  0  0  0  0  0  0  0  0
   43.0695  -20.1912  -10.7198 N   0  0  0  0  0  0  0  0  0  0  0  0
   45.6074  -13.8037   -7.9610 C   0  0  0  0  0  0  0  0  0  0  0  0
   45.3332  -13.4653   -6.7598 O   0  0  0  0  0  0  0  0  0  0  0  0
   45.6279  -12.7960   -8.9727 N   0  0  0  0  0  0  0  0  0  0  0  0
   45.4107  -11.4099   -8.6247 C   0  0  1  0  0  0  0  0  0  0  0  0
   46.1813  -10.4835   -9.5565 C   0  0  0  0  0  0  0  0  0  0  0  0
   47.5856  -10.3285   -9.1696 C   0  0  0  0  0  0  0  0  0  0  0  0
   48.0803  -10.4499   -7.8902 C   0  0  0  0  0  0  0  0  0  0  0  0
   49.3973  -10.2380   -7.9594 N   0  0  0  0  0  0  0  0  0  0  0  0
   49.7147   -9.9937   -9.2306 C   0  0  0  0  0  0  0  0  0  0  0  0
   48.6175  -10.0474   -9.9710 N   0  0  0  0  0  0  0  0  0  0  0  0
   43.9758  -11.0791   -8.7914 C   0  0  0  0  0  0  0  0  0  0  0  0
   43.2929  -11.8163   -9.5483 O   0  0  0  0  0  0  0  0  0  0  0  0
   43.4394   -9.9800   -8.1148 N   0  0  0  0  0  0  0  0  0  0  0  0
   41.9787   -9.7264   -8.2065 C   0  0  1  0  0  0  0  0  0  0  0  0
   41.3673  -10.6344   -7.2108 C   0  0  0  0  0  0  0  0  0  0  0  0
   39.9278  -10.4835   -6.9476 C   0  0  0  0  0  0  0  0  0  0  0  0
   38.9951   -9.7612   -7.6345 C   0  0  0  0  0  0  0  0  0  0  0  0
   37.7473   -9.9514   -7.0914 N   0  0  0  0  0  0  0  0  0  0  0  0
   37.9484  -10.7945   -6.0769 C   0  0  0  0  0  0  0  0  0  0  0  0
   39.2247  -11.1327   -5.9595 N   0  0  0  0  0  0  0  0  0  0  0  0
   41.7842   -8.2755   -7.8926 C   0  0  0  0  0  0  0  0  0  0  0  0
   40.5681   -7.6253   -8.1960 O   0  0  0  0  0  0  0  0  0  0  0  0
   42.6442   -7.5699   -7.3645 O   0  0  0  0  0  0  0  0  0  0  0  0
  2  1  1  1
  2  3  1  0
  3  4  1  0
  4  5  1  0
  5  6  1  0
  7  6  1  0
  8  2  1  0
  8  9  2  0
 10  8  1  0
 11 10  1  0
 11 12  1  6
 13 12  1  0
 14 13  2  0
 15 16  1  0
 15 14  1  0
 16 17  2  0
 17 13  1  0
 18 11  1  0
 19 18  2  0
 20 18  1  0
 21 20  1  0
 21 28  1  0
 21 22  1  1
 23 24  2  0
 23 22  1  0
 25 24  1  0
 26 27  2  0
 26 25  1  0
 27 23  1  0
 28 29  1  0
 30 28  2  0
M  END
$$$$
