KHH.pdb
     RDKit          3D

 30 31  0  0  1  0  0  0  0  0999 V2000
   24.6875  -13.5132  -19.0200 N   0  0  0  0  0  0  0  0  0  0  0  0
   23.4158  -14.0974  -18.6081 C   0  0  1  0  0  0  0  0  0  0  0  0
   22.5014  -14.0291  -19.7802 C   0  0  0  0  0  0  0  0  0  0  0  0
   22.0730  -12.6468  -20.1485 C   0  0  0  0  0  0  0  0  0  0  0  0
   21.3351  -12.0062  -18.9904 C   0  0  0  0  0  0  0  0  0  0  0  0
   20.8493  -10.6165  -19.3414 C   0  0  0  0  0  0  0  0  0  0  0  0
   21.8245   -9.8700  -20.0751 N   0  0  0  0  0  0  0  0  0  0  0  0
   23.6370  -15.4234  -18.0377 C   0  0  0  0  0  0  0  0  0  0  0  0
   23.1631  -16.4793  -18.5789 O   0  0  0  0  0  0  0  0  0  0  0  0
   24.4048  -15.5484  -16.8402 N   0  0  0  0  0  0  0  0  0  0  0  0
   24.5817  -16.8422  -16.2201 C   0  0  1  0  0  0  0  0  0  0  0  0
   25.9081  -16.9162  -15.4749 C   0  0  0  0  0  0  0  0  0  0  0  0
   27.0508  -17.1220  -16.3681 C   0  0  0  0  0  0  0  0  0  0  0  0
   26.9792  -17.2799  -17.7342 C   0  0  0  0  0  0  0  0  0  0  0  0
   28.2300  -17.4407  -18.1745 N   0  0  0  0  0  0  0  0  0  0  0  0
   29.0518  -17.3858  -17.1267 C   0  0  0  0  0  0  0  0  0  0  0  0
   28.3408  -17.1923  -16.0258 N   0  0  0  0  0  0  0  0  0  0  0  0
   23.5174  -17.0545  -15.2110 C   0  0  0  0  0  0  0  0  0  0  0  0
   23.3289  -16.1438  -14.3639 O   0  0  0  0  0  0  0  0  0  0  0  0
   22.7729  -18.2371  -15.2337 N   0  0  0  0  0  0  0  0  0  0  0  0
   21.5876  -18.3537  -14.3461 C   0  0  1  0  0  0  0  0  0  0  0  0
   20.6012  -17.3962  -14.8936 C   0  0  0  0  0  0  0  0  0  0  0  0
   19.2488  -17.4087  -14.3148 C   0  0  0  0  0  0  0  0  0  0  0  0
   18.7539  -16.6971  -13.2601 C   0  0  0  0  0  0  0  0  0  0  0  0
   17.4147  -16.9562  -13.0942 N   0  0  0  0  0  0  0  0  0  0  0  0
   17.1196  -17.8270  -14.0612 C   0  0  0  0  0  0  0  0  0  0  0  0
   18.1776  -18.1193  -14.8044 N   0  0  0  0  0  0  0  0  0  0  0  0
   21.1435  -19.7814  -14.4247 C   0  0  0  0  0  0  0  0  0  0  0  0
   20.3136  -20.3378  -13.4269 O   0  0  0  0  0  0  0  0  0  0  0  0
   21.4610  -20.5461  -15.3361 O   0  0  0  0  0  0  0  0  0  0  0  0
  2  1  1  6
  2  3  1  0
  3  4  1  0
  4  5  1  0
  5  6  1  0
  7  6  1  0
  8  2  1  0
  8  9  2  0
 10  8  1  0
 11 10  1  0
 11 12  1  1
 13 12  1  0
 14 13  2  0
 15 16  1  0
 15 14  1  0
 16 17  2  0
 17 13  1  0
 18 11  1  0
 19 18  2  0
 20 18  1  0
 21 20  1  0
 21 28  1  0
 21 22  1  6
 23 24  2  0
 23 22  1  0
 25 24  1  0
 26 27  2  0
 26 25  1  0
 27 23  1  0
 28 29  1  0
 30 28  2  0
M  END
$$$$
