KHH.pdb
     RDKit          3D

 30 31  0  0  1  0  0  0  0  0999 V2000
   20.6685  -13.8248  -20.5524 N   0  0  0  0  0  0  0  0  0  0  0  0
   21.4919  -13.1475  -19.5567 C   0  0  1  0  0  0  0  0  0  0  0  0
   22.6304  -12.5209  -20.2817 C   0  0  0  0  0  0  0  0  0  0  0  0
   23.0839  -13.2756  -21.4878 C   0  0  0  0  0  0  0  0  0  0  0  0
   24.5956  -13.2373  -21.5861 C   0  0  0  0  0  0  0  0  0  0  0  0
   25.0898  -13.9440  -22.8298 C   0  0  0  0  0  0  0  0  0  0  0  0
   26.5177  -14.0140  -22.8829 N   0  0  0  0  0  0  0  0  0  0  0  0
   20.6662  -12.2510  -18.7524 C   0  0  0  0  0  0  0  0  0  0  0  0
   19.7656  -11.5107  -19.2754 O   0  0  0  0  0  0  0  0  0  0  0  0
   20.8675  -12.1967  -17.3397 N   0  0  0  0  0  0  0  0  0  0  0  0
   20.0657  -11.3136  -16.5231 C   0  0  1  0  0  0  0  0  0  0  0  0
   19.6288  -12.0025  -15.2367 C   0  0  0  0  0  0  0  0  0  0  0  0
   18.5338  -12.9530  -15.4450 C   0  0  0  0  0  0  0  0  0  0  0  0
   17.9057  -13.1982  -16.6457 C   0  0  0  0  0  0  0  0  0  0  0  0
   16.9704  -14.1235  -16.4149 N   0  0  0  0  0  0  0  0  0  0  0  0
   17.0110  -14.4449  -15.1221 C   0  0  0  0  0  0  0  0  0  0  0  0
   17.9594  -13.7366  -14.5273 N   0  0  0  0  0  0  0  0  0  0  0  0
   20.8785  -10.1418  -16.1201 C   0  0  0  0  0  0  0  0  0  0  0  0
   22.1296  -10.2468  -16.1988 O   0  0  0  0  0  0  0  0  0  0  0  0
   20.2398   -8.9811  -15.6746 N   0  0  0  0  0  0  0  0  0  0  0  0
   21.0594   -7.7722  -15.4042 C   0  0  1  0  0  0  0  0  0  0  0  0
   21.7673   -7.4954  -16.6738 C   0  0  0  0  0  0  0  0  0  0  0  0
   22.5619   -6.2599  -16.7533 C   0  0  0  0  0  0  0  0  0  0  0  0
   22.9014   -5.3859  -15.7610 C   0  0  0  0  0  0  0  0  0  0  0  0
   23.7166   -4.3956  -16.2537 N   0  0  0  0  0  0  0  0  0  0  0  0
   23.8586   -4.6911  -17.5471 C   0  0  0  0  0  0  0  0  0  0  0  0
   23.1912   -5.7867  -17.8811 N   0  0  0  0  0  0  0  0  0  0  0  0
   20.0991   -6.6945  -15.0070 C   0  0  0  0  0  0  0  0  0  0  0  0
   20.5183   -5.6096  -14.2063 O   0  0  0  0  0  0  0  0  0  0  0  0
   18.9137   -6.6794  -15.3402 O   0  0  0  0  0  0  0  0  0  0  0  0
  2  1  1  6
  2  3  1  0
  3  4  1  0
  4  5  1  0
  5  6  1  0
  7  6  1  0
  8  2  1  0
  8  9  2  0
 10  8  1  0
 11 10  1  0
 11 12  1  1
 13 12  1  0
 14 13  2  0
 15 16  1  0
 15 14  1  0
 16 17  2  0
 17 13  1  0
 18 11  1  0
 19 18  2  0
 20 18  1  0
 21 20  1  0
 21 28  1  0
 21 22  1  6
 23 24  2  0
 23 22  1  0
 25 24  1  0
 26 27  2  0
 26 25  1  0
 27 23  1  0
 28 29  1  0
 30 28  2  0
M  END
$$$$
