PRK.pdb
     RDKit          3D

 28 28  0  0  1  0  0  0  0  0999 V2000
   11.5489  -17.3360   18.7739 N   0  0  0  0  0  0  0  0  0  0  0  0
   12.1980  -17.5949   17.4953 C   0  0  0  0  0  0  0  0  0  0  0  0
   13.4068  -16.7276   17.4169 C   0  0  0  0  0  0  0  0  0  0  0  0
   13.2889  -15.8567   18.6594 C   0  0  0  0  0  0  0  0  0  0  0  0
   12.5902  -16.7865   19.6249 C   0  0  1  0  0  0  0  0  0  0  0  0
   12.0206  -16.0843   20.7972 C   0  0  0  0  0  0  0  0  0  0  0  0
   12.7632  -15.5532   21.6813 O   0  0  0  0  0  0  0  0  0  0  0  0
    7.7597  -12.6144   18.1320 N   0  0  0  0  0  0  0  0  0  0  0  0
    7.4545  -13.9778   18.0158 C   0  0  0  0  0  0  0  0  0  0  0  0
    7.6772  -14.6597   16.9516 N   0  0  0  0  0  0  0  0  0  0  0  0
    6.8610  -14.6735   19.1322 N   0  0  0  0  0  0  0  0  0  0  0  0
    6.7227  -14.0196   20.4146 C   0  0  0  0  0  0  0  0  0  0  0  0
    8.0982  -13.8381   21.0752 C   0  0  0  0  0  0  0  0  0  0  0  0
    8.4302  -15.1525   21.7290 C   0  0  0  0  0  0  0  0  0  0  0  0
    9.9243  -15.2900   21.9998 C   0  0  2  0  0  0  0  0  0  0  0  0
   10.6227  -15.9855   20.9603 N   0  0  0  0  0  0  0  0  0  0  0  0
   10.0342  -15.9384   23.3163 C   0  0  0  0  0  0  0  0  0  0  0  0
   10.0372  -17.1997   23.3377 O   0  0  0  0  0  0  0  0  0  0  0  0
    7.5375  -15.6751   16.8399 N   0  0  0  0  0  0  0  0  0  0  0  0
   10.1392  -15.2430   24.5185 C   0  0  2  0  0  0  0  0  0  0  0  0
   10.2614  -15.9431   25.8573 C   0  0  0  0  0  0  0  0  0  0  0  0
   10.5304  -14.8534   26.8380 C   0  0  0  0  0  0  0  0  0  0  0  0
   10.6290  -15.1555   28.2508 C   0  0  0  0  0  0  0  0  0  0  0  0
   10.9074  -14.1928   29.3186 C   0  0  0  0  0  0  0  0  0  0  0  0
   10.9075  -15.0170   30.6609 N   0  0  0  0  0  0  0  0  0  0  0  0
   11.1875  -14.1477   31.7565 C   0  0  0  0  0  0  0  0  0  0  0  0
    8.9362  -16.5452   26.0902 O   0  0  0  0  0  0  0  0  0  0  0  0
    7.8821  -15.9768   25.5982 O   0  0  0  0  0  0  0  0  0  0  0  0
  1  5  1  0
  2  1  1  0
  2  3  1  0
  3  4  1  0
  5  6  1  1
  5  4  1  0
  6  7  2  0
  9 11  1  0
  9  8  1  0
 10  9  2  0
 12 13  1  0
 12 11  1  0
 13 14  1  0
 15 14  1  6
 16 15  1  0
 16  6  1  0
 17 18  2  0
 17 15  1  0
 19 17  1  0
 20 19  1  0
 20 26  1  0
 20 21  1  6
 22 21  1  0
 23 22  1  0
 24 23  1  0
 24 25  1  0
 26 28  1  0
 27 26  2  0
M  END
$$$$
