PRK.pdb
     RDKit          3D

 28 28  0  0  1  0  0  0  0  0999 V2000
    8.4736  -14.6528   18.2916 N   0  0  0  0  0  0  0  0  0  0  0  0
    8.0381  -13.8868   17.1310 C   0  0  0  0  0  0  0  0  0  0  0  0
    7.3803  -12.6459   17.6280 C   0  0  0  0  0  0  0  0  0  0  0  0
    7.3343  -12.8581   19.1343 C   0  0  0  0  0  0  0  0  0  0  0  0
    8.5781  -13.6842   19.3693 C   0  0  1  0  0  0  0  0  0  0  0  0
    8.5943  -14.3445   20.6943 C   0  0  0  0  0  0  0  0  0  0  0  0
    8.6101  -13.6728   21.7732 O   0  0  0  0  0  0  0  0  0  0  0  0
    9.8198  -19.0310   17.8401 N   0  0  0  0  0  0  0  0  0  0  0  0
   10.8078  -19.8865   18.3478 C   0  0  0  0  0  0  0  0  0  0  0  0
   11.8223  -20.2729   17.6633 N   0  0  0  0  0  0  0  0  0  0  0  0
   10.7040  -20.3707   19.7032 N   0  0  0  0  0  0  0  0  0  0  0  0
    9.6353  -19.9162   20.5650 C   0  0  0  0  0  0  0  0  0  0  0  0
    9.7037  -18.3918   20.7459 C   0  0  0  0  0  0  0  0  0  0  0  0
    8.6237  -18.0338   21.7310 C   0  0  0  0  0  0  0  0  0  0  0  0
    8.5683  -16.5326   21.9916 C   0  0  2  0  0  0  0  0  0  0  0  0
    8.5900  -15.7520   20.7907 N   0  0  0  0  0  0  0  0  0  0  0  0
    9.6891  -16.2428   22.9003 C   0  0  0  0  0  0  0  0  0  0  0  0
   10.8362  -16.1430   22.3851 O   0  0  0  0  0  0  0  0  0  0  0  0
   12.5898  -20.8733   18.0001 N   0  0  0  0  0  0  0  0  0  0  0  0
    9.5498  -16.0702   24.2753 C   0  0  2  0  0  0  0  0  0  0  0  0
   10.7116  -15.6887   25.1709 C   0  0  0  0  0  0  0  0  0  0  0  0
   10.0874  -15.0121   26.3433 C   0  0  0  0  0  0  0  0  0  0  0  0
   10.5817  -15.2712   27.6795 C   0  0  0  0  0  0  0  0  0  0  0  0
   10.1009  -14.6417   28.9112 C   0  0  0  0  0  0  0  0  0  0  0  0
   11.0323  -15.1723   30.0655 N   0  0  0  0  0  0  0  0  0  0  0  0
   10.6156  -14.6158   31.3109 C   0  0  0  0  0  0  0  0  0  0  0  0
   11.3201  -16.9718   25.5663 O   0  0  0  0  0  0  0  0  0  0  0  0
   12.5555  -16.9995   25.9523 O   0  0  0  0  0  0  0  0  0  0  0  0
  1  5  1  0
  2  1  1  0
  2  3  1  0
  3  4  1  0
  5  6  1  1
  5  4  1  0
  6  7  2  0
  9 11  1  0
  9  8  1  0
 10  9  2  0
 12 13  1  0
 12 11  1  0
 13 14  1  0
 15 14  1  6
 16 15  1  0
 16  6  1  0
 17 18  2  0
 17 15  1  0
 19 17  1  0
 20 19  1  0
 20 26  1  0
 20 21  1  1
 22 21  1  0
 23 22  1  0
 24 23  1  0
 24 25  1  0
 26 28  1  0
 27 26  2  0
M  END
$$$$
