PRK.pdb
     RDKit          3D

 28 28  0  0  1  0  0  0  0  0999 V2000
    8.1973  -19.9760   26.6892 N   0  0  0  0  0  0  0  0  0  0  0  0
    7.7686  -20.0788   28.0780 C   0  0  0  0  0  0  0  0  0  0  0  0
    6.6570  -19.1081   28.2822 C   0  0  0  0  0  0  0  0  0  0  0  0
    6.6138  -18.3493   26.9637 C   0  0  0  0  0  0  0  0  0  0  0  0
    7.0629  -19.4072   25.9819 C   0  0  1  0  0  0  0  0  0  0  0  0
    7.4637  -18.8491   24.6706 C   0  0  0  0  0  0  0  0  0  0  0  0
    7.5785  -19.5846   23.6404 O   0  0  0  0  0  0  0  0  0  0  0  0
    8.3281  -11.8120   19.2842 N   0  0  0  0  0  0  0  0  0  0  0  0
    8.0143  -13.1145   18.8710 C   0  0  0  0  0  0  0  0  0  0  0  0
    8.0218  -13.4827   17.6416 N   0  0  0  0  0  0  0  0  0  0  0  0
    7.6631  -14.1098   19.8550 N   0  0  0  0  0  0  0  0  0  0  0  0
    7.7962  -13.8250   21.2666 C   0  0  0  0  0  0  0  0  0  0  0  0
    8.6917  -14.8745   21.9433 C   0  0  0  0  0  0  0  0  0  0  0  0
    7.8368  -15.5568   22.9771 C   0  0  0  0  0  0  0  0  0  0  0  0
    8.4827  -16.8385   23.4913 C   0  0  2  0  0  0  0  0  0  0  0  0
    7.7283  -17.4702   24.5323 N   0  0  0  0  0  0  0  0  0  0  0  0
    9.8462  -16.4636   23.8993 C   0  0  0  0  0  0  0  0  0  0  0  0
    9.9590  -15.7131   24.9069 O   0  0  0  0  0  0  0  0  0  0  0  0
    7.7747  -14.4183   17.2858 N   0  0  0  0  0  0  0  0  0  0  0  0
   10.9985  -16.8923   23.2449 C   0  0  2  0  0  0  0  0  0  0  0  0
   12.3867  -16.6788   23.8146 C   0  0  0  0  0  0  0  0  0  0  0  0
   12.9281  -18.0505   24.0323 C   0  0  0  0  0  0  0  0  0  0  0  0
   13.9766  -18.2715   25.0064 C   0  0  0  0  0  0  0  0  0  0  0  0
   14.6161  -19.5545   25.3052 C   0  0  0  0  0  0  0  0  0  0  0  0
   15.5810  -19.2890   26.5217 N   0  0  0  0  0  0  0  0  0  0  0  0
   16.1804  -20.5158   26.9340 C   0  0  0  0  0  0  0  0  0  0  0  0
   13.1292  -15.9833   22.7478 O   0  0  0  0  0  0  0  0  0  0  0  0
   12.7107  -16.0604   21.5251 O   0  0  0  0  0  0  0  0  0  0  0  0
  1  5  1  0
  2  1  1  0
  2  3  1  0
  3  4  1  0
  5  6  1  6
  5  4  1  0
  6  7  2  0
  9 11  1  0
  9  8  1  0
 10  9  2  0
 12 13  1  0
 12 11  1  0
 13 14  1  0
 15 14  1  1
 16 15  1  0
 16  6  1  0
 17 18  2  0
 17 15  1  0
 19 17  1  0
 20 19  1  0
 20 26  1  0
 20 21  1  6
 22 21  1  0
 23 22  1  0
 24 23  1  0
 24 25  1  0
 26 28  1  0
 27 26  2  0
M  END
$$$$
