PRK.pdb
     RDKit          3D

 28 28  0  0  1  0  0  0  0  0999 V2000
    5.3787  -12.6079   26.8010 N   0  0  0  0  0  0  0  0  0  0  0  0
    5.3295  -11.3952   27.6073 C   0  0  0  0  0  0  0  0  0  0  0  0
    6.6248  -10.6807   27.4306 C   0  0  0  0  0  0  0  0  0  0  0  0
    7.4506  -11.6597   26.6086 C   0  0  0  0  0  0  0  0  0  0  0  0
    6.3862  -12.3498   25.7866 C   0  0  1  0  0  0  0  0  0  0  0  0
    6.8601  -13.6041   25.1591 C   0  0  0  0  0  0  0  0  0  0  0  0
    6.8987  -14.6986   25.8040 O   0  0  0  0  0  0  0  0  0  0  0  0
    8.6048  -15.3756   16.7571 N   0  0  0  0  0  0  0  0  0  0  0  0
    8.4175  -14.1764   17.4589 C   0  0  0  0  0  0  0  0  0  0  0  0
    8.2392  -13.0445   16.8810 N   0  0  0  0  0  0  0  0  0  0  0  0
    8.4201  -14.1867   18.9019 N   0  0  0  0  0  0  0  0  0  0  0  0
    9.1397  -15.2101   19.6271 C   0  0  0  0  0  0  0  0  0  0  0  0
    8.3108  -15.7032   20.8234 C   0  0  0  0  0  0  0  0  0  0  0  0
    7.8861  -14.4731   21.5795 C   0  0  0  0  0  0  0  0  0  0  0  0
    7.7938  -14.7325   23.0790 C   0  0  2  0  0  0  0  0  0  0  0  0
    7.2828  -13.6136   23.8130 N   0  0  0  0  0  0  0  0  0  0  0  0
    9.1437  -15.1423   23.4980 C   0  0  0  0  0  0  0  0  0  0  0  0
   10.0191  -14.2379   23.5823 O   0  0  0  0  0  0  0  0  0  0  0  0
    8.1176  -12.1347   17.3507 N   0  0  0  0  0  0  0  0  0  0  0  0
    9.4968  -16.4538   23.8066 C   0  0  2  0  0  0  0  0  0  0  0  0
   10.8410  -16.8166   24.4058 C   0  0  0  0  0  0  0  0  0  0  0  0
   10.5908  -18.0621   25.1855 C   0  0  0  0  0  0  0  0  0  0  0  0
   11.2647  -18.2756   26.4494 C   0  0  0  0  0  0  0  0  0  0  0  0
   11.1901  -19.4863   27.2698 C   0  0  0  0  0  0  0  0  0  0  0  0
   12.0318  -19.1875   28.5673 N   0  0  0  0  0  0  0  0  0  0  0  0
   11.8616  -20.2498   29.5037 C   0  0  0  0  0  0  0  0  0  0  0  0
   11.7099  -17.0875   23.2462 O   0  0  0  0  0  0  0  0  0  0  0  0
   12.9569  -16.7420   23.2893 O   0  0  0  0  0  0  0  0  0  0  0  0
  1  5  1  0
  2  1  1  0
  2  3  1  0
  3  4  1  0
  5  6  1  1
  5  4  1  0
  6  7  2  0
  9 11  1  0
  9  8  1  0
 10  9  2  0
 12 13  1  0
 12 11  1  0
 13 14  1  0
 15 14  1  6
 16 15  1  0
 16  6  1  0
 17 18  2  0
 17 15  1  0
 19 17  1  0
 20 19  1  0
 20 26  1  0
 20 21  1  6
 22 21  1  0
 23 22  1  0
 24 23  1  0
 24 25  1  0
 26 28  1  0
 27 26  2  0
M  END
$$$$
