PRK.pdb
     RDKit          3D

 28 28  0  0  1  0  0  0  0  0999 V2000
    7.2092  -22.1485   21.3371 N   0  0  0  0  0  0  0  0  0  0  0  0
    6.6157  -23.4252   20.9615 C   0  0  0  0  0  0  0  0  0  0  0  0
    7.5177  -24.0687   19.9656 C   0  0  0  0  0  0  0  0  0  0  0  0
    8.5580  -22.9915   19.6941 C   0  0  0  0  0  0  0  0  0  0  0  0
    8.6222  -22.2796   21.0260 C   0  0  1  0  0  0  0  0  0  0  0  0
    9.2865  -20.9589   20.9465 C   0  0  0  0  0  0  0  0  0  0  0  0
   10.5464  -20.8387   21.0628 O   0  0  0  0  0  0  0  0  0  0  0  0
    7.9655  -13.3359   20.7248 N   0  0  0  0  0  0  0  0  0  0  0  0
    8.3143  -13.0778   19.3916 C   0  0  0  0  0  0  0  0  0  0  0  0
    8.8082  -11.9605   18.9980 N   0  0  0  0  0  0  0  0  0  0  0  0
    8.1198  -14.1009   18.3927 N   0  0  0  0  0  0  0  0  0  0  0  0
    7.6029  -15.3996   18.7633 C   0  0  0  0  0  0  0  0  0  0  0  0
    8.6553  -16.1891   19.5572 C   0  0  0  0  0  0  0  0  0  0  0  0
    8.0589  -17.5463   19.8168 C   0  0  0  0  0  0  0  0  0  0  0  0
    9.0258  -18.4573   20.5650 C   0  0  2  0  0  0  0  0  0  0  0  0
    8.5266  -19.7892   20.7347 N   0  0  0  0  0  0  0  0  0  0  0  0
    9.3179  -17.7736   21.8351 C   0  0  0  0  0  0  0  0  0  0  0  0
    8.4104  -17.7757   22.7113 O   0  0  0  0  0  0  0  0  0  0  0  0
    9.0319  -11.7040   18.0248 N   0  0  0  0  0  0  0  0  0  0  0  0
   10.5261  -17.1405   22.1167 C   0  0  2  0  0  0  0  0  0  0  0  0
   11.0089  -16.8984   23.5329 C   0  0  0  0  0  0  0  0  0  0  0  0
   11.1781  -18.2583   24.1193 C   0  0  0  0  0  0  0  0  0  0  0  0
   11.7900  -18.4167   25.4222 C   0  0  0  0  0  0  0  0  0  0  0  0
   12.1169  -19.6888   26.0697 C   0  0  0  0  0  0  0  0  0  0  0  0
   12.7889  -19.3188   27.4455 N   0  0  0  0  0  0  0  0  0  0  0  0
   13.0569  -20.5098   28.1831 C   0  0  0  0  0  0  0  0  0  0  0  0
   12.3118  -16.2266   23.3775 O   0  0  0  0  0  0  0  0  0  0  0  0
   12.9922  -16.3989   22.2896 O   0  0  0  0  0  0  0  0  0  0  0  0
  1  5  1  0
  2  1  1  0
  2  3  1  0
  3  4  1  0
  5  6  1  6
  5  4  1  0
  6  7  2  0
  9 11  1  0
  9  8  1  0
 10  9  2  0
 12 13  1  0
 12 11  1  0
 13 14  1  0
 15 14  1  1
 16 15  1  0
 16  6  1  0
 17 18  2  0
 17 15  1  0
 19 17  1  0
 20 19  1  0
 20 26  1  0
 20 21  1  6
 22 21  1  0
 23 22  1  0
 24 23  1  0
 24 25  1  0
 26 28  1  0
 27 26  2  0
M  END
$$$$
