PRK.pdb
     RDKit          3D

 28 28  0  0  1  0  0  0  0  0999 V2000
    7.9186  -19.9661   20.3895 N   0  0  0  0  0  0  0  0  0  0  0  0
    6.8155  -20.6739   19.7530 C   0  0  0  0  0  0  0  0  0  0  0  0
    6.1975  -19.7508   18.7603 C   0  0  0  0  0  0  0  0  0  0  0  0
    6.9247  -18.4373   19.0097 C   0  0  0  0  0  0  0  0  0  0  0  0
    8.2874  -18.9168   19.4549 C   0  0  1  0  0  0  0  0  0  0  0  0
    9.0882  -17.8594   20.1124 C   0  0  0  0  0  0  0  0  0  0  0  0
   10.3523  -17.8084   19.9908 O   0  0  0  0  0  0  0  0  0  0  0  0
    9.5361  -13.4647   17.6642 N   0  0  0  0  0  0  0  0  0  0  0  0
    8.1951  -13.5367   17.2613 C   0  0  0  0  0  0  0  0  0  0  0  0
    7.8273  -13.4952   16.0324 N   0  0  0  0  0  0  0  0  0  0  0  0
    7.1575  -13.6646   18.2560 N   0  0  0  0  0  0  0  0  0  0  0  0
    7.3581  -13.1570   19.5951 C   0  0  0  0  0  0  0  0  0  0  0  0
    8.6704  -13.6987   20.1831 C   0  0  0  0  0  0  0  0  0  0  0  0
    8.2941  -14.4645   21.4228 C   0  0  0  0  0  0  0  0  0  0  0  0
    9.0857  -15.7612   21.5508 C   0  0  2  0  0  0  0  0  0  0  0  0
    8.4581  -16.8703   20.8967 N   0  0  0  0  0  0  0  0  0  0  0  0
    9.2852  -15.9673   22.9943 C   0  0  0  0  0  0  0  0  0  0  0  0
    8.3215  -16.4582   23.6437 O   0  0  0  0  0  0  0  0  0  0  0  0
    6.8554  -13.4949   15.6886 N   0  0  0  0  0  0  0  0  0  0  0  0
   10.4649  -15.6590   23.6674 C   0  0  2  0  0  0  0  0  0  0  0  0
   11.0827  -16.5855   24.6958 C   0  0  0  0  0  0  0  0  0  0  0  0
   11.1247  -17.9207   24.0345 C   0  0  0  0  0  0  0  0  0  0  0  0
   10.9592  -19.1259   24.8200 C   0  0  0  0  0  0  0  0  0  0  0  0
   11.0456  -20.4985   24.3172 C   0  0  0  0  0  0  0  0  0  0  0  0
   10.8670  -21.4352   25.5710 N   0  0  0  0  0  0  0  0  0  0  0  0
   10.7558  -22.7914   25.1435 C   0  0  0  0  0  0  0  0  0  0  0  0
   12.4436  -16.0601   24.9073 O   0  0  0  0  0  0  0  0  0  0  0  0
   13.2148  -16.6211   25.7830 O   0  0  0  0  0  0  0  0  0  0  0  0
  1  5  1  0
  2  1  1  0
  2  3  1  0
  3  4  1  0
  5  6  1  1
  5  4  1  0
  6  7  2  0
  9 11  1  0
  9  8  1  0
 10  9  2  0
 12 13  1  0
 12 11  1  0
 13 14  1  0
 15 14  1  1
 16 15  1  0
 16  6  1  0
 17 18  2  0
 17 15  1  0
 19 17  1  0
 20 19  1  0
 20 26  1  0
 20 21  1  1
 22 21  1  0
 23 22  1  0
 24 23  1  0
 24 25  1  0
 26 28  1  0
 27 26  2  0
M  END
$$$$
