PRK.pdb
     RDKit          3D

 28 28  0  0  1  0  0  0  0  0999 V2000
    8.8904  -14.3655   18.4934 N   0  0  0  0  0  0  0  0  0  0  0  0
    8.6386  -13.4136   17.4193 C   0  0  0  0  0  0  0  0  0  0  0  0
    7.7741  -12.3308   17.9669 C   0  0  0  0  0  0  0  0  0  0  0  0
    7.4312  -12.8338   19.3617 C   0  0  0  0  0  0  0  0  0  0  0  0
    8.6708  -13.6206   19.7212 C   0  0  1  0  0  0  0  0  0  0  0  0
    8.4698  -14.5238   20.8769 C   0  0  0  0  0  0  0  0  0  0  0  0
    8.1555  -14.0774   22.0246 O   0  0  0  0  0  0  0  0  0  0  0  0
   11.1719  -21.1844   21.5194 N   0  0  0  0  0  0  0  0  0  0  0  0
   10.2616  -22.0542   22.1362 C   0  0  0  0  0  0  0  0  0  0  0  0
   10.6218  -23.0443   22.8690 N   0  0  0  0  0  0  0  0  0  0  0  0
    8.8447  -21.8488   21.9557 N   0  0  0  0  0  0  0  0  0  0  0  0
    8.3572  -20.7053   21.2168 C   0  0  0  0  0  0  0  0  0  0  0  0
    8.7028  -19.4027   21.9551 C   0  0  0  0  0  0  0  0  0  0  0  0
    8.0799  -18.2874   21.1594 C   0  0  0  0  0  0  0  0  0  0  0  0
    8.4254  -16.9184   21.7347 C   0  0  2  0  0  0  0  0  0  0  0  0
    8.6221  -15.9185   20.7279 N   0  0  0  0  0  0  0  0  0  0  0  0
    9.6042  -17.1298   22.5901 C   0  0  0  0  0  0  0  0  0  0  0  0
   10.7245  -17.2102   22.0158 O   0  0  0  0  0  0  0  0  0  0  0  0
    9.9966  -23.6536   23.4175 N   0  0  0  0  0  0  0  0  0  0  0  0
    9.5479  -17.2378   23.9775 C   0  0  2  0  0  0  0  0  0  0  0  0
   10.7688  -17.0641   24.8589 C   0  0  0  0  0  0  0  0  0  0  0  0
   10.2257  -16.8500   26.2303 C   0  0  0  0  0  0  0  0  0  0  0  0
   10.2789  -15.5356   26.8358 C   0  0  0  0  0  0  0  0  0  0  0  0
    9.7424  -15.1714   28.1488 C   0  0  0  0  0  0  0  0  0  0  0  0
    9.9447  -13.6154   28.2871 N   0  0  0  0  0  0  0  0  0  0  0  0
    9.3938  -13.1691   29.5248 C   0  0  0  0  0  0  0  0  0  0  0  0
   11.4835  -18.3503   24.7708 O   0  0  0  0  0  0  0  0  0  0  0  0
   10.8200  -19.4323   24.5154 O   0  0  0  0  0  0  0  0  0  0  0  0
  1  5  1  0
  2  1  1  0
  2  3  1  0
  3  4  1  0
  5  6  1  1
  5  4  1  0
  6  7  2  0
  9 11  1  0
  9  8  1  0
 10  9  2  0
 12 13  1  0
 12 11  1  0
 13 14  1  0
 15 14  1  6
 16 15  1  0
 16  6  1  0
 17 18  2  0
 17 15  1  0
 19 17  1  0
 20 19  1  0
 20 26  1  0
 20 21  1  1
 22 21  1  0
 23 22  1  0
 24 23  1  0
 24 25  1  0
 26 28  1  0
 27 26  2  0
M  END
$$$$
