PRK.pdb
     RDKit          3D

 28 28  0  0  1  0  0  0  0  0999 V2000
    3.5661  -19.1284   22.1907 N   0  0  0  0  0  0  0  0  0  0  0  0
    2.4920  -19.6823   21.3766 C   0  0  0  0  0  0  0  0  0  0  0  0
    3.1052  -20.6206   20.3952 C   0  0  0  0  0  0  0  0  0  0  0  0
    4.5983  -20.4211   20.6119 C   0  0  0  0  0  0  0  0  0  0  0  0
    4.6557  -20.0834   22.0842 C   0  0  1  0  0  0  0  0  0  0  0  0
    5.9463  -19.4839   22.4920 C   0  0  0  0  0  0  0  0  0  0  0  0
    6.9939  -20.1896   22.6328 O   0  0  0  0  0  0  0  0  0  0  0  0
    8.4110  -12.4657   17.5420 N   0  0  0  0  0  0  0  0  0  0  0  0
    8.0094  -12.6785   18.8683 C   0  0  0  0  0  0  0  0  0  0  0  0
    7.6077  -11.7357   19.6408 N   0  0  0  0  0  0  0  0  0  0  0  0
    8.0385  -14.0129   19.4169 N   0  0  0  0  0  0  0  0  0  0  0  0
    7.6339  -14.2531   20.7843 C   0  0  0  0  0  0  0  0  0  0  0  0
    7.6182  -15.7605   21.0821 C   0  0  0  0  0  0  0  0  0  0  0  0
    7.1561  -15.9055   22.5070 C   0  0  0  0  0  0  0  0  0  0  0  0
    7.2405  -17.3502   22.9866 C   0  0  2  0  0  0  0  0  0  0  0  0
    6.0446  -18.0974   22.7344 N   0  0  0  0  0  0  0  0  0  0  0  0
    7.5978  -17.2782   24.4125 C   0  0  0  0  0  0  0  0  0  0  0  0
    6.7221  -16.8312   25.2029 O   0  0  0  0  0  0  0  0  0  0  0  0
    7.3059  -11.8401   20.6211 N   0  0  0  0  0  0  0  0  0  0  0  0
    8.8296  -17.6768   24.9258 C   0  0  2  0  0  0  0  0  0  0  0  0
    9.2001  -17.5008   26.3850 C   0  0  0  0  0  0  0  0  0  0  0  0
   10.2489  -18.5283   26.6421 C   0  0  0  0  0  0  0  0  0  0  0  0
   10.0053  -19.9153   26.3044 C   0  0  0  0  0  0  0  0  0  0  0  0
   10.9879  -20.9995   26.3617 C   0  0  0  0  0  0  0  0  0  0  0  0
   10.2117  -22.3136   25.9718 N   0  0  0  0  0  0  0  0  0  0  0  0
   11.1076  -23.4233   25.9940 C   0  0  0  0  0  0  0  0  0  0  0  0
    9.7637  -16.1413   26.4695 O   0  0  0  0  0  0  0  0  0  0  0  0
   10.1586  -15.5464   25.3895 O   0  0  0  0  0  0  0  0  0  0  0  0
  1  5  1  0
  2  1  1  0
  2  3  1  0
  3  4  1  0
  5  6  1  6
  5  4  1  0
  6  7  2  0
  9 11  1  0
  9  8  1  0
 10  9  2  0
 12 13  1  0
 12 11  1  0
 13 14  1  0
 15 14  1  1
 16 15  1  0
 16  6  1  0
 17 18  2  0
 17 15  1  0
 19 17  1  0
 20 19  1  0
 20 26  1  0
 20 21  1  6
 22 21  1  0
 23 22  1  0
 24 23  1  0
 24 25  1  0
 26 28  1  0
 27 26  2  0
M  END
$$$$
