PRK.pdb
     RDKit          3D

 28 28  0  0  1  0  0  0  0  0999 V2000
    8.8273  -14.5498   18.4223 N   0  0  0  0  0  0  0  0  0  0  0  0
    8.3896  -13.7216   17.3062 C   0  0  0  0  0  0  0  0  0  0  0  0
    7.3793  -12.7580   17.8259 C   0  0  0  0  0  0  0  0  0  0  0  0
    7.1681  -13.2184   19.2611 C   0  0  0  0  0  0  0  0  0  0  0  0
    8.5300  -13.7720   19.6128 C   0  0  1  0  0  0  0  0  0  0  0  0
    8.5159  -14.6193   20.8267 C   0  0  0  0  0  0  0  0  0  0  0  0
    8.1720  -14.1556   21.9590 O   0  0  0  0  0  0  0  0  0  0  0  0
   11.0104  -18.6151   17.4940 N   0  0  0  0  0  0  0  0  0  0  0  0
   12.1167  -19.2481   18.0780 C   0  0  0  0  0  0  0  0  0  0  0  0
   13.2766  -19.2833   17.5298 N   0  0  0  0  0  0  0  0  0  0  0  0
   11.9725  -19.8991   19.3577 N   0  0  0  0  0  0  0  0  0  0  0  0
   10.7357  -19.7933   20.0996 C   0  0  0  0  0  0  0  0  0  0  0  0
   10.4524  -18.3275   20.4637 C   0  0  0  0  0  0  0  0  0  0  0  0
    9.2495  -18.3411   21.3682 C   0  0  0  0  0  0  0  0  0  0  0  0
    8.8615  -16.9368   21.8174 C   0  0  2  0  0  0  0  0  0  0  0  0
    8.8863  -15.9787   20.7528 N   0  0  0  0  0  0  0  0  0  0  0  0
    9.7710  -16.6059   22.9261 C   0  0  0  0  0  0  0  0  0  0  0  0
   10.9024  -16.1382   22.6218 O   0  0  0  0  0  0  0  0  0  0  0  0
   14.1108  -19.7611   17.9025 N   0  0  0  0  0  0  0  0  0  0  0  0
    9.4500  -16.7742   24.2709 C   0  0  1  0  0  0  0  0  0  0  0  0
   10.4019  -16.3993   25.3893 C   0  0  0  0  0  0  0  0  0  0  0  0
    9.5400  -15.7817   26.4370 C   0  0  0  0  0  0  0  0  0  0  0  0
   10.0656  -15.5495   27.7662 C   0  0  0  0  0  0  0  0  0  0  0  0
   10.4257  -14.2483   28.3332 C   0  0  0  0  0  0  0  0  0  0  0  0
   11.0132  -14.5430   29.7648 N   0  0  0  0  0  0  0  0  0  0  0  0
   11.4080  -13.3190   30.3815 C   0  0  0  0  0  0  0  0  0  0  0  0
   10.9596  -17.6816   25.8555 O   0  0  0  0  0  0  0  0  0  0  0  0
   10.2643  -18.7655   25.7222 O   0  0  0  0  0  0  0  0  0  0  0  0
  1  5  1  0
  2  1  1  0
  2  3  1  0
  3  4  1  0
  5  6  1  1
  5  4  1  0
  6  7  2  0
  9 11  1  0
  9  8  1  0
 10  9  2  0
 12 13  1  0
 12 11  1  0
 13 14  1  0
 15 14  1  6
 16 15  1  0
 16  6  1  0
 17 18  2  0
 17 15  1  0
 19 17  1  0
 20 19  1  0
 20 26  1  0
 20 21  1  1
 22 21  1  0
 23 22  1  0
 24 23  1  0
 24 25  1  0
 26 28  1  0
 27 26  2  0
M  END
$$$$
