PRK.pdb
     RDKit          3D

 28 28  0  0  1  0  0  0  0  0999 V2000
    7.3864  -21.3489   23.4976 N   0  0  0  0  0  0  0  0  0  0  0  0
    6.9083  -22.2113   24.5704 C   0  0  0  0  0  0  0  0  0  0  0  0
    6.4930  -21.3372   25.7032 C   0  0  0  0  0  0  0  0  0  0  0  0
    6.9278  -19.9515   25.2485 C   0  0  0  0  0  0  0  0  0  0  0  0
    6.7751  -20.0551   23.7482 C   0  0  1  0  0  0  0  0  0  0  0  0
    7.4732  -18.9730   23.0179 C   0  0  0  0  0  0  0  0  0  0  0  0
    8.4040  -19.2214   22.1889 O   0  0  0  0  0  0  0  0  0  0  0  0
    8.8220  -14.3568   18.5109 N   0  0  0  0  0  0  0  0  0  0  0  0
    8.5468  -13.0397   18.9051 C   0  0  0  0  0  0  0  0  0  0  0  0
    9.0114  -12.0115   18.2935 N   0  0  0  0  0  0  0  0  0  0  0  0
    7.7023  -12.7997   20.0503 N   0  0  0  0  0  0  0  0  0  0  0  0
    7.0668  -13.9022   20.7374 C   0  0  0  0  0  0  0  0  0  0  0  0
    7.5942  -14.0129   22.1764 C   0  0  0  0  0  0  0  0  0  0  0  0
    6.9076  -15.2043   22.7881 C   0  0  0  0  0  0  0  0  0  0  0  0
    7.7516  -16.4685   22.6693 C   0  0  2  0  0  0  0  0  0  0  0  0
    7.1148  -17.6244   23.2263 N   0  0  0  0  0  0  0  0  0  0  0  0
    9.0423  -16.1484   23.2998 C   0  0  0  0  0  0  0  0  0  0  0  0
    9.7237  -15.2239   22.7779 O   0  0  0  0  0  0  0  0  0  0  0  0
    8.8407  -11.0263   18.5448 N   0  0  0  0  0  0  0  0  0  0  0  0
    9.5387  -16.7986   24.4270 C   0  0  1  0  0  0  0  0  0  0  0  0
   10.8386  -16.3954   25.0943 C   0  0  0  0  0  0  0  0  0  0  0  0
   10.5723  -16.5109   26.5564 C   0  0  0  0  0  0  0  0  0  0  0  0
   10.1238  -15.3563   27.3066 C   0  0  0  0  0  0  0  0  0  0  0  0
   10.1842  -15.1997   28.7613 C   0  0  0  0  0  0  0  0  0  0  0  0
    9.5196  -13.8072   29.0787 N   0  0  0  0  0  0  0  0  0  0  0  0
    9.4930  -13.5999   30.4897 C   0  0  0  0  0  0  0  0  0  0  0  0
   11.8170  -17.4073   24.6562 O   0  0  0  0  0  0  0  0  0  0  0  0
   11.3979  -18.5170   24.1376 O   0  0  0  0  0  0  0  0  0  0  0  0
  1  5  1  0
  2  1  1  0
  2  3  1  0
  3  4  1  0
  5  6  1  6
  5  4  1  0
  6  7  2  0
  9 11  1  0
  9  8  1  0
 10  9  2  0
 12 13  1  0
 12 11  1  0
 13 14  1  0
 15 14  1  1
 16 15  1  0
 16  6  1  0
 17 18  2  0
 17 15  1  0
 19 17  1  0
 20 19  1  0
 20 26  1  0
 20 21  1  6
 22 21  1  0
 23 22  1  0
 24 23  1  0
 24 25  1  0
 26 28  1  0
 27 26  2  0
M  END
$$$$
