PRK.pdb
     RDKit          3D

 28 28  0  0  1  0  0  0  0  0999 V2000
    8.4053  -14.8798   18.3026 N   0  0  0  0  0  0  0  0  0  0  0  0
    8.3820  -14.1845   17.0223 C   0  0  0  0  0  0  0  0  0  0  0  0
    7.9057  -12.7948   17.2700 C   0  0  0  0  0  0  0  0  0  0  0  0
    7.5113  -12.8209   18.7397 C   0  0  0  0  0  0  0  0  0  0  0  0
    8.4846  -13.8304   19.3042 C   0  0  1  0  0  0  0  0  0  0  0  0
    8.0946  -14.3261   20.6435 C   0  0  0  0  0  0  0  0  0  0  0  0
    8.0461  -13.5537   21.6517 O   0  0  0  0  0  0  0  0  0  0  0  0
    3.2919  -20.0148   22.9574 N   0  0  0  0  0  0  0  0  0  0  0  0
    2.6177  -19.2861   21.9674 C   0  0  0  0  0  0  0  0  0  0  0  0
    1.3434  -19.1348   21.9512 N   0  0  0  0  0  0  0  0  0  0  0  0
    3.3688  -18.6648   20.9033 N   0  0  0  0  0  0  0  0  0  0  0  0
    4.8147  -18.6866   20.9160 C   0  0  0  0  0  0  0  0  0  0  0  0
    5.3542  -17.8183   22.0634 C   0  0  0  0  0  0  0  0  0  0  0  0
    6.8432  -17.7302   21.8632 C   0  0  0  0  0  0  0  0  0  0  0  0
    7.3587  -16.3086   22.0576 C   0  0  2  0  0  0  0  0  0  0  0  0
    7.7615  -15.6839   20.8331 N   0  0  0  0  0  0  0  0  0  0  0  0
    8.4411  -16.4078   23.0497 C   0  0  0  0  0  0  0  0  0  0  0  0
    9.5510  -16.8524   22.6474 O   0  0  0  0  0  0  0  0  0  0  0  0
    0.7986  -18.6452   21.2257 N   0  0  0  0  0  0  0  0  0  0  0  0
    8.3071  -16.0369   24.3855 C   0  0  2  0  0  0  0  0  0  0  0  0
    9.4739  -16.0385   25.3530 C   0  0  0  0  0  0  0  0  0  0  0  0
    8.9686  -15.3351   26.5661 C   0  0  0  0  0  0  0  0  0  0  0  0
    9.7622  -15.3141   27.7772 C   0  0  0  0  0  0  0  0  0  0  0  0
    9.4147  -14.6238   29.0211 C   0  0  0  0  0  0  0  0  0  0  0  0
   10.6252  -14.8553   30.0021 N   0  0  0  0  0  0  0  0  0  0  0  0
   10.4055  -14.1330   31.2123 C   0  0  0  0  0  0  0  0  0  0  0  0
    9.7259  -17.4628   25.6374 O   0  0  0  0  0  0  0  0  0  0  0  0
   10.9358  -17.8632   25.8655 O   0  0  0  0  0  0  0  0  0  0  0  0
  1  5  1  0
  2  1  1  0
  2  3  1  0
  3  4  1  0
  5  6  1  1
  5  4  1  0
  6  7  2  0
  9 11  1  0
  9  8  1  0
 10  9  2  0
 12 13  1  0
 12 11  1  0
 13 14  1  0
 15 14  1  6
 16 15  1  0
 16  6  1  0
 17 18  2  0
 17 15  1  0
 19 17  1  0
 20 19  1  0
 20 26  1  0
 20 21  1  6
 22 21  1  0
 23 22  1  0
 24 23  1  0
 24 25  1  0
 26 28  1  0
 27 26  2  0
M  END
$$$$
