PRK.pdb
     RDKit          3D

 28 28  0  0  1  0  0  0  0  0999 V2000
    8.3417  -15.0038   18.8545 N   0  0  0  0  0  0  0  0  0  0  0  0
    8.3022  -14.3089   17.5744 C   0  0  0  0  0  0  0  0  0  0  0  0
    7.9004  -12.8985   17.8366 C   0  0  0  0  0  0  0  0  0  0  0  0
    7.5610  -12.9055   19.3202 C   0  0  0  0  0  0  0  0  0  0  0  0
    8.5072  -13.9586   19.8499 C   0  0  1  0  0  0  0  0  0  0  0  0
    8.1457  -14.4350   21.2042 C   0  0  0  0  0  0  0  0  0  0  0  0
    8.1489  -13.6551   22.2077 O   0  0  0  0  0  0  0  0  0  0  0  0
    8.5789  -20.3287   26.0002 N   0  0  0  0  0  0  0  0  0  0  0  0
    7.2589  -20.7956   26.0720 C   0  0  0  0  0  0  0  0  0  0  0  0
    6.7645  -21.3470   27.1202 N   0  0  0  0  0  0  0  0  0  0  0  0
    6.3917  -20.6617   24.9263 N   0  0  0  0  0  0  0  0  0  0  0  0
    6.8586  -20.0050   23.7255 C   0  0  0  0  0  0  0  0  0  0  0  0
    6.8082  -18.4785   23.8947 C   0  0  0  0  0  0  0  0  0  0  0  0
    7.2935  -17.8927   22.5962 C   0  0  0  0  0  0  0  0  0  0  0  0
    7.3197  -16.3688   22.6359 C   0  0  2  0  0  0  0  0  0  0  0  0
    7.7825  -15.7821   21.4138 N   0  0  0  0  0  0  0  0  0  0  0  0
    8.1397  -16.0131   23.8051 C   0  0  0  0  0  0  0  0  0  0  0  0
    9.3863  -16.1781   23.7049 O   0  0  0  0  0  0  0  0  0  0  0  0
    5.7838  -21.6383   27.2486 N   0  0  0  0  0  0  0  0  0  0  0  0
    7.6195  -15.5070   24.9938 C   0  0  2  0  0  0  0  0  0  0  0  0
    8.4983  -14.9522   26.0972 C   0  0  0  0  0  0  0  0  0  0  0  0
    7.5967  -14.0846   26.9073 C   0  0  0  0  0  0  0  0  0  0  0  0
    7.2233  -12.7721   26.4229 C   0  0  0  0  0  0  0  0  0  0  0  0
    6.2152  -11.8912   27.0162 C   0  0  0  0  0  0  0  0  0  0  0  0
    6.2025  -10.5856   26.1349 N   0  0  0  0  0  0  0  0  0  0  0  0
    5.1657   -9.7150   26.5838 C   0  0  0  0  0  0  0  0  0  0  0  0
    8.9252  -16.1333   26.8691 O   0  0  0  0  0  0  0  0  0  0  0  0
    9.7942  -15.9944   27.8186 O   0  0  0  0  0  0  0  0  0  0  0  0
  1  5  1  0
  2  1  1  0
  2  3  1  0
  3  4  1  0
  5  6  1  1
  5  4  1  0
  6  7  2  0
  9 11  1  0
  9  8  1  0
 10  9  2  0
 12 13  1  0
 12 11  1  0
 13 14  1  0
 15 14  1  6
 16 15  1  0
 16  6  1  0
 17 18  2  0
 17 15  1  0
 19 17  1  0
 20 19  1  0
 20 26  1  0
 20 21  1  6
 22 21  1  0
 23 22  1  0
 24 23  1  0
 24 25  1  0
 26 28  1  0
 27 26  2  0
M  END
$$$$
