WAA.pdb
     RDKit          3D

 25 26  0  0  1  0  0  0  0  0999 V2000
    6.4443  -17.9336   23.9502 N   0  0  0  0  0  0  0  0  0  0  0  0
    6.6934  -16.5097   23.6753 C   0  0  1  0  0  0  0  0  0  0  0  0
    7.5559  -16.0240   24.8094 C   0  0  0  0  0  0  0  0  0  0  0  0
    6.8871  -15.0694   25.7101 C   0  0  0  0  0  0  0  0  0  0  0  0
    5.8130  -15.3748   26.5412 C   0  0  0  0  0  0  0  0  0  0  0  0
    5.4610  -14.2722   27.2164 N   0  0  0  0  0  0  0  0  0  0  0  0
    6.2520  -13.2259   26.8790 C   0  0  0  0  0  0  0  0  0  0  0  0
    6.2895  -11.9125   27.2859 C   0  0  0  0  0  0  0  0  0  0  0  0
    7.2320  -11.0635   26.7507 C   0  0  0  0  0  0  0  0  0  0  0  0
    8.1181  -11.5550   25.8157 C   0  0  0  0  0  0  0  0  0  0  0  0
    8.0759  -12.8812   25.4087 C   0  0  0  0  0  0  0  0  0  0  0  0
    7.1414  -13.7338   25.9360 C   0  0  0  0  0  0  0  0  0  0  0  0
    7.3907  -16.4299   22.3664 C   0  0  0  0  0  0  0  0  0  0  0  0
    7.8750  -17.4621   21.8304 O   0  0  0  0  0  0  0  0  0  0  0  0
    7.9854  -13.8565   19.7262 C   0  0  0  0  0  0  0  0  0  0  0  0
    8.1897  -15.2087   20.3459 C   0  0  2  0  0  0  0  0  0  0  0  0
    7.5462  -15.2003   21.6585 N   0  0  0  0  0  0  0  0  0  0  0  0
    9.6379  -15.5300   20.5067 C   0  0  0  0  0  0  0  0  0  0  0  0
   10.3975  -15.6058   19.5090 O   0  0  0  0  0  0  0  0  0  0  0  0
   12.0511  -15.6206   23.3105 C   0  0  0  0  0  0  0  0  0  0  0  0
   11.6221  -16.0619   21.9120 C   0  0  2  0  0  0  0  0  0  0  0  0
   10.2155  -15.7618   21.7870 N   0  0  0  0  0  0  0  0  0  0  0  0
   11.9117  -17.4991   21.7587 C   0  0  0  0  0  0  0  0  0  0  0  0
   10.9768  -18.3110   21.6224 O   0  0  0  0  0  0  0  0  0  0  0  0
   13.2172  -17.9389   21.7668 O   0  0  0  0  0  0  0  0  0  0  0  0
  2  1  1  1
  2  3  1  0
  2 13  1  0
  4  3  1  0
  4  5  2  0
  6  5  1  0
  7  6  1  0
  8  7  2  0
  9  8  1  0
 10  9  2  0
 10 11  1  0
 11 12  2  0
 12  7  1  0
 12  4  1  0
 13 14  2  0
 16 15  1  1
 17 13  1  0
 17 16  1  0
 18 16  1  0
 18 19  2  0
 21 20  1  1
 21 23  1  0
 21 22  1  0
 22 18  1  0
 23 25  1  0
 24 23  2  0
M  END
$$$$
