WAA.pdb
     RDKit          3D

 25 26  0  0  1  0  0  0  0  0999 V2000
    6.7008  -17.8719   24.2196 N   0  0  0  0  0  0  0  0  0  0  0  0
    7.4978  -16.6863   23.8675 C   0  0  1  0  0  0  0  0  0  0  0  0
    7.9526  -16.1014   25.1778 C   0  0  0  0  0  0  0  0  0  0  0  0
    7.0715  -15.0454   25.7054 C   0  0  0  0  0  0  0  0  0  0  0  0
    5.8676  -15.2679   26.3677 C   0  0  0  0  0  0  0  0  0  0  0  0
    5.3348  -14.0858   26.7061 N   0  0  0  0  0  0  0  0  0  0  0  0
    6.1271  -13.0649   26.3007 C   0  0  0  0  0  0  0  0  0  0  0  0
    6.0196  -11.6979   26.4086 C   0  0  0  0  0  0  0  0  0  0  0  0
    7.0095  -10.8966   25.8855 C   0  0  0  0  0  0  0  0  0  0  0  0
    8.0882  -11.4888   25.2637 C   0  0  0  0  0  0  0  0  0  0  0  0
    8.1917  -12.8688   25.1577 C   0  0  0  0  0  0  0  0  0  0  0  0
    7.2115  -13.6746   25.6756 C   0  0  0  0  0  0  0  0  0  0  0  0
    8.6367  -17.1529   23.0361 C   0  0  0  0  0  0  0  0  0  0  0  0
    9.0095  -18.3559   23.0712 O   0  0  0  0  0  0  0  0  0  0  0  0
   11.0124  -15.7231   20.5302 C   0  0  0  0  0  0  0  0  0  0  0  0
   10.5885  -16.7511   21.5391 C   0  0  2  0  0  0  0  0  0  0  0  0
    9.3566  -16.2780   22.1681 N   0  0  0  0  0  0  0  0  0  0  0  0
   11.6304  -16.9603   22.5864 C   0  0  0  0  0  0  0  0  0  0  0  0
   12.7838  -17.3534   22.2809 O   0  0  0  0  0  0  0  0  0  0  0  0
   12.2454  -15.9966   26.0632 C   0  0  0  0  0  0  0  0  0  0  0  0
   12.3479  -17.0568   24.9677 C   0  0  2  0  0  0  0  0  0  0  0  0
   11.3640  -16.7247   23.9648 N   0  0  0  0  0  0  0  0  0  0  0  0
   12.1203  -18.3833   25.5689 C   0  0  0  0  0  0  0  0  0  0  0  0
   11.1426  -19.0681   25.2129 O   0  0  0  0  0  0  0  0  0  0  0  0
   12.9913  -18.8606   26.5236 O   0  0  0  0  0  0  0  0  0  0  0  0
  2  1  1  1
  2  3  1  0
  2 13  1  0
  4  3  1  0
  4  5  2  0
  6  5  1  0
  7  6  1  0
  8  7  2  0
  9  8  1  0
 10  9  2  0
 10 11  1  0
 11 12  2  0
 12  7  1  0
 12  4  1  0
 13 14  2  0
 16 15  1  6
 17 13  1  0
 17 16  1  0
 18 16  1  0
 18 19  2  0
 21 20  1  1
 21 23  1  0
 21 22  1  0
 22 18  1  0
 23 25  1  0
 24 23  2  0
M  END
$$$$
