WAA.pdb
     RDKit          3D

 25 26  0  0  1  0  0  0  0  0999 V2000
    6.7957  -17.9824   23.6877 N   0  0  0  0  0  0  0  0  0  0  0  0
    6.8120  -16.5299   23.4527 C   0  0  1  0  0  0  0  0  0  0  0  0
    7.6462  -15.9503   24.5636 C   0  0  0  0  0  0  0  0  0  0  0  0
    6.9024  -15.0691   25.4801 C   0  0  0  0  0  0  0  0  0  0  0  0
    5.8367  -15.4686   26.2816 C   0  0  0  0  0  0  0  0  0  0  0  0
    5.4030  -14.4126   26.9831 N   0  0  0  0  0  0  0  0  0  0  0  0
    6.1302  -13.3076   26.6923 C   0  0  0  0  0  0  0  0  0  0  0  0
    6.0761  -12.0079   27.1392 C   0  0  0  0  0  0  0  0  0  0  0  0
    6.9705  -11.0840   26.6475 C   0  0  0  0  0  0  0  0  0  0  0  0
    7.9018  -11.4881   25.7146 C   0  0  0  0  0  0  0  0  0  0  0  0
    7.9521  -12.8009   25.2670 C   0  0  0  0  0  0  0  0  0  0  0  0
    7.0661  -13.7277   25.7510 C   0  0  0  0  0  0  0  0  0  0  0  0
    7.4230  -16.3071   22.1175 C   0  0  0  0  0  0  0  0  0  0  0  0
    7.8877  -17.2713   21.4528 O   0  0  0  0  0  0  0  0  0  0  0  0
    7.8446  -13.4533   19.7389 C   0  0  0  0  0  0  0  0  0  0  0  0
    8.0241  -14.8824   20.1628 C   0  0  2  0  0  0  0  0  0  0  0  0
    7.5142  -15.0111   21.5268 N   0  0  0  0  0  0  0  0  0  0  0  0
    9.4583  -15.2929   20.1297 C   0  0  0  0  0  0  0  0  0  0  0  0
   10.0967  -15.3238   19.0482 O   0  0  0  0  0  0  0  0  0  0  0  0
   12.1524  -15.8439   22.6169 C   0  0  0  0  0  0  0  0  0  0  0  0
   11.5329  -16.0990   21.2437 C   0  0  2  0  0  0  0  0  0  0  0  0
   10.1582  -15.6635   21.3126 N   0  0  0  0  0  0  0  0  0  0  0  0
   11.6587  -17.5330   20.9258 C   0  0  0  0  0  0  0  0  0  0  0  0
   10.6377  -18.2389   20.8215 O   0  0  0  0  0  0  0  0  0  0  0  0
   12.9071  -18.0869   20.7452 O   0  0  0  0  0  0  0  0  0  0  0  0
  2  1  1  1
  2  3  1  0
  2 13  1  0
  4  3  1  0
  4  5  2  0
  6  5  1  0
  7  6  1  0
  8  7  2  0
  9  8  1  0
 10  9  2  0
 10 11  1  0
 11 12  2  0
 12  7  1  0
 12  4  1  0
 13 14  2  0
 16 15  1  1
 17 13  1  0
 17 16  1  0
 18 16  1  0
 18 19  2  0
 21 20  1  1
 21 23  1  0
 21 22  1  0
 22 18  1  0
 23 25  1  0
 24 23  2  0
M  END
$$$$
