WAA.pdb
     RDKit          3D

 25 26  0  0  1  0  0  0  0  0999 V2000
    6.0903  -17.9559   23.6259 N   0  0  0  0  0  0  0  0  0  0  0  0
    6.4424  -16.5357   23.4701 C   0  0  1  0  0  0  0  0  0  0  0  0
    7.3135  -16.2033   24.6518 C   0  0  0  0  0  0  0  0  0  0  0  0
    6.7457  -15.1858   25.5528 C   0  0  0  0  0  0  0  0  0  0  0  0
    5.6400  -15.3771   26.3765 C   0  0  0  0  0  0  0  0  0  0  0  0
    5.4043  -14.2456   27.0545 N   0  0  0  0  0  0  0  0  0  0  0  0
    6.3052  -13.2891   26.7262 C   0  0  0  0  0  0  0  0  0  0  0  0
    6.4811  -11.9888   27.1390 C   0  0  0  0  0  0  0  0  0  0  0  0
    7.5126  -11.2441   26.6129 C   0  0  0  0  0  0  0  0  0  0  0  0
    8.3465  -11.8243   25.6808 C   0  0  0  0  0  0  0  0  0  0  0  0
    8.1644  -13.1369   25.2677 C   0  0  0  0  0  0  0  0  0  0  0  0
    7.1406  -13.8861   25.7861 C   0  0  0  0  0  0  0  0  0  0  0  0
    7.1693  -16.4014   22.1819 C   0  0  0  0  0  0  0  0  0  0  0  0
    7.6682  -17.4103   21.6156 O   0  0  0  0  0  0  0  0  0  0  0  0
    7.8169  -13.7237   19.6613 C   0  0  0  0  0  0  0  0  0  0  0  0
    8.0169  -15.0968   20.2347 C   0  0  2  0  0  0  0  0  0  0  0  0
    7.3381  -15.1438   21.5285 N   0  0  0  0  0  0  0  0  0  0  0  0
    9.4631  -15.4122   20.4227 C   0  0  0  0  0  0  0  0  0  0  0  0
   10.2403  -15.4916   19.4389 O   0  0  0  0  0  0  0  0  0  0  0  0
   11.8132  -15.2494   23.2449 C   0  0  0  0  0  0  0  0  0  0  0  0
   11.4414  -15.8195   21.8770 C   0  0  2  0  0  0  0  0  0  0  0  0
   10.0190  -15.6342   21.7143 N   0  0  0  0  0  0  0  0  0  0  0  0
   11.8380  -17.2386   21.8311 C   0  0  0  0  0  0  0  0  0  0  0  0
   10.9677  -18.1248   21.7368 O   0  0  0  0  0  0  0  0  0  0  0  0
   13.1714  -17.5789   21.8929 O   0  0  0  0  0  0  0  0  0  0  0  0
  2  1  1  1
  2  3  1  0
  2 13  1  0
  4  3  1  0
  4  5  2  0
  6  5  1  0
  7  6  1  0
  8  7  2  0
  9  8  1  0
 10  9  2  0
 10 11  1  0
 11 12  2  0
 12  7  1  0
 12  4  1  0
 13 14  2  0
 16 15  1  1
 17 13  1  0
 17 16  1  0
 18 16  1  0
 18 19  2  0
 21 20  1  1
 21 23  1  0
 21 22  1  0
 22 18  1  0
 23 25  1  0
 24 23  2  0
M  END
$$$$
