WAA.pdb
     RDKit          3D

 25 26  0  0  1  0  0  0  0  0999 V2000
    6.9997  -17.5270   24.3400 N   0  0  0  0  0  0  0  0  0  0  0  0
    7.9737  -16.4256   24.2835 C   0  0  1  0  0  0  0  0  0  0  0  0
    7.9315  -15.7787   25.6421 C   0  0  0  0  0  0  0  0  0  0  0  0
    6.8192  -14.8305   25.8246 C   0  0  0  0  0  0  0  0  0  0  0  0
    5.5513  -15.1679   26.2898 C   0  0  0  0  0  0  0  0  0  0  0  0
    4.7964  -14.0615   26.3300 N   0  0  0  0  0  0  0  0  0  0  0  0
    5.4985  -12.9820   25.9104 C   0  0  0  0  0  0  0  0  0  0  0  0
    5.1754  -11.6522   25.7721 C   0  0  0  0  0  0  0  0  0  0  0  0
    6.1242  -10.7684   25.3093 C   0  0  0  0  0  0  0  0  0  0  0  0
    7.3801  -11.2424   24.9946 C   0  0  0  0  0  0  0  0  0  0  0  0
    7.7008  -12.5854   25.1360 C   0  0  0  0  0  0  0  0  0  0  0  0
    6.7631  -13.4725   25.5962 C   0  0  0  0  0  0  0  0  0  0  0  0
    9.2999  -17.0258   23.9890 C   0  0  0  0  0  0  0  0  0  0  0  0
    9.5460  -18.2241   24.2906 O   0  0  0  0  0  0  0  0  0  0  0  0
   12.5629  -15.9566   22.5134 C   0  0  0  0  0  0  0  0  0  0  0  0
   11.7170  -16.7974   23.4256 C   0  0  2  0  0  0  0  0  0  0  0  0
   10.3479  -16.2893   23.3594 N   0  0  0  0  0  0  0  0  0  0  0  0
   12.1990  -16.7389   24.8364 C   0  0  0  0  0  0  0  0  0  0  0  0
   13.3815  -17.0466   25.1285 O   0  0  0  0  0  0  0  0  0  0  0  0
   11.1408  -15.1323   27.9572 C   0  0  0  0  0  0  0  0  0  0  0  0
   11.8380  -16.2993   27.2595 C   0  0  2  0  0  0  0  0  0  0  0  0
   11.3465  -16.3350   25.9025 N   0  0  0  0  0  0  0  0  0  0  0  0
   11.5456  -17.5387   28.0020 C   0  0  0  0  0  0  0  0  0  0  0  0
   10.9192  -18.4623   27.4485 O   0  0  0  0  0  0  0  0  0  0  0  0
   11.9670  -17.6703   29.3069 O   0  0  0  0  0  0  0  0  0  0  0  0
  2  1  1  1
  2  3  1  0
  2 13  1  0
  4  3  1  0
  4  5  2  0
  6  5  1  0
  7  6  1  0
  8  7  2  0
  9  8  1  0
 10  9  2  0
 10 11  1  0
 11 12  2  0
 12  7  1  0
 12  4  1  0
 13 14  2  0
 16 15  1  6
 17 13  1  0
 17 16  1  0
 18 16  1  0
 18 19  2  0
 21 20  1  1
 21 23  1  0
 21 22  1  0
 22 18  1  0
 23 25  1  0
 24 23  2  0
M  END
$$$$
