WAA.pdb
     RDKit          3D

 25 26  0  0  1  0  0  0  0  0999 V2000
    8.2036  -15.9934   23.0606 N   0  0  0  0  0  0  0  0  0  0  0  0
    9.2570  -16.2175   24.0632 C   0  0  1  0  0  0  0  0  0  0  0  0
    8.5350  -16.5726   25.3354 C   0  0  0  0  0  0  0  0  0  0  0  0
    7.4793  -15.6188   25.7166 C   0  0  0  0  0  0  0  0  0  0  0  0
    6.1411  -15.9470   25.9147 C   0  0  0  0  0  0  0  0  0  0  0  0
    5.4685  -14.8378   26.2507 N   0  0  0  0  0  0  0  0  0  0  0  0
    6.2944  -13.7651   26.2896 C   0  0  0  0  0  0  0  0  0  0  0  0
    6.0879  -12.4357   26.5759 C   0  0  0  0  0  0  0  0  0  0  0  0
    7.1494  -11.5600   26.5325 C   0  0  0  0  0  0  0  0  0  0  0  0
    8.3982  -12.0413   26.2012 C   0  0  0  0  0  0  0  0  0  0  0  0
    8.6010  -13.3838   25.9132 C   0  0  0  0  0  0  0  0  0  0  0  0
    7.5505  -14.2631   25.9541 C   0  0  0  0  0  0  0  0  0  0  0  0
   10.1045  -17.3325   23.5691 C   0  0  0  0  0  0  0  0  0  0  0  0
   10.6787  -18.1115   24.3758 O   0  0  0  0  0  0  0  0  0  0  0  0
   10.8436  -19.0183   20.3425 C   0  0  0  0  0  0  0  0  0  0  0  0
   11.1769  -18.6791   21.7667 C   0  0  2  0  0  0  0  0  0  0  0  0
   10.3096  -17.5765   22.1779 N   0  0  0  0  0  0  0  0  0  0  0  0
   12.6036  -18.2695   21.9181 C   0  0  0  0  0  0  0  0  0  0  0  0
   13.5337  -19.1009   21.7696 O   0  0  0  0  0  0  0  0  0  0  0  0
   14.4711  -15.1148   21.8388 C   0  0  0  0  0  0  0  0  0  0  0  0
   14.3587  -16.5550   22.3363 C   0  0  2  0  0  0  0  0  0  0  0  0
   12.9684  -16.9303   22.2340 N   0  0  0  0  0  0  0  0  0  0  0  0
   14.8638  -16.6196   23.7197 C   0  0  0  0  0  0  0  0  0  0  0  0
   14.0970  -16.9403   24.6475 O   0  0  0  0  0  0  0  0  0  0  0  0
   16.1838  -16.3243   23.9808 O   0  0  0  0  0  0  0  0  0  0  0  0
  2  1  1  6
  2  3  1  0
  2 13  1  0
  4  3  1  0
  4  5  2  0
  6  5  1  0
  7  6  1  0
  8  7  2  0
  9  8  1  0
 10  9  2  0
 10 11  1  0
 11 12  2  0
 12  7  1  0
 12  4  1  0
 13 14  2  0
 16 15  1  6
 17 13  1  0
 17 16  1  0
 18 16  1  0
 18 19  2  0
 21 20  1  1
 21 23  1  0
 21 22  1  0
 22 18  1  0
 23 25  1  0
 24 23  2  0
M  END
$$$$
