WAA.pdb
     RDKit          3D

 25 26  0  0  1  0  0  0  0  0999 V2000
    6.8373  -17.4761   24.1869 N   0  0  0  0  0  0  0  0  0  0  0  0
    7.8794  -16.4395   24.1196 C   0  0  1  0  0  0  0  0  0  0  0  0
    7.8593  -15.7585   25.4619 C   0  0  0  0  0  0  0  0  0  0  0  0
    6.7816  -14.7668   25.6193 C   0  0  0  0  0  0  0  0  0  0  0  0
    5.4332  -15.0726   25.7802 C   0  0  0  0  0  0  0  0  0  0  0  0
    4.7409  -13.9309   25.8932 N   0  0  0  0  0  0  0  0  0  0  0  0
    5.5631  -12.8575   25.8155 C   0  0  0  0  0  0  0  0  0  0  0  0
    5.3393  -11.5016   25.8748 C   0  0  0  0  0  0  0  0  0  0  0  0
    6.4020  -10.6335   25.7623 C   0  0  0  0  0  0  0  0  0  0  0  0
    7.6693  -11.1489   25.5919 C   0  0  0  0  0  0  0  0  0  0  0  0
    7.8895  -12.5180   25.5328 C   0  0  0  0  0  0  0  0  0  0  0  0
    6.8381  -13.3899   25.6441 C   0  0  0  0  0  0  0  0  0  0  0  0
    9.1692  -17.1285   23.8595 C   0  0  0  0  0  0  0  0  0  0  0  0
    9.3033  -18.3576   24.1021 O   0  0  0  0  0  0  0  0  0  0  0  0
   12.5614  -16.3596   22.5324 C   0  0  0  0  0  0  0  0  0  0  0  0
   11.6342  -17.0304   23.5044 C   0  0  2  0  0  0  0  0  0  0  0  0
   10.3055  -16.4464   23.3298 N   0  0  0  0  0  0  0  0  0  0  0  0
   12.0784  -16.8370   24.9156 C   0  0  0  0  0  0  0  0  0  0  0  0
   13.1509  -17.3429   25.3304 O   0  0  0  0  0  0  0  0  0  0  0  0
   11.2108  -14.4525   27.5936 C   0  0  0  0  0  0  0  0  0  0  0  0
   11.8397  -15.7735   27.1532 C   0  0  2  0  0  0  0  0  0  0  0  0
   11.3124  -16.0769   25.8439 N   0  0  0  0  0  0  0  0  0  0  0  0
   11.5142  -16.8093   28.1502 C   0  0  0  0  0  0  0  0  0  0  0  0
   11.9424  -16.7073   29.3155 O   0  0  0  0  0  0  0  0  0  0  0  0
   10.7367  -17.8874   27.7883 O   0  0  0  0  0  0  0  0  0  0  0  0
  2  1  1  1
  2  3  1  0
  2 13  1  0
  4  3  1  0
  4  5  2  0
  6  5  1  0
  7  6  1  0
  8  7  2  0
  9  8  1  0
 10  9  2  0
 10 11  1  0
 11 12  2  0
 12  7  1  0
 12  4  1  0
 13 14  2  0
 16 15  1  6
 17 13  1  0
 17 16  1  0
 18 16  1  0
 18 19  2  0
 21 20  1  1
 21 23  1  0
 21 22  1  0
 22 18  1  0
 23 25  1  0
 24 23  2  0
M  END
$$$$
