WAA.pdb
     RDKit          3D

 25 26  0  0  1  0  0  0  0  0999 V2000
    7.0945  -17.4769   23.8287 N   0  0  0  0  0  0  0  0  0  0  0  0
    8.1003  -16.4419   24.1150 C   0  0  1  0  0  0  0  0  0  0  0  0
    7.8246  -15.9891   25.5238 C   0  0  0  0  0  0  0  0  0  0  0  0
    6.8635  -14.8772   25.6231 C   0  0  0  0  0  0  0  0  0  0  0  0
    5.4935  -15.0221   25.8220 C   0  0  0  0  0  0  0  0  0  0  0  0
    4.9308  -13.8066   25.8615 N   0  0  0  0  0  0  0  0  0  0  0  0
    5.8624  -12.8374   25.6972 C   0  0  0  0  0  0  0  0  0  0  0  0
    5.7875  -11.4644   25.6622 C   0  0  0  0  0  0  0  0  0  0  0  0
    6.9352  -10.7273   25.4749 C   0  0  0  0  0  0  0  0  0  0  0  0
    8.1358  -11.3885   25.3263 C   0  0  0  0  0  0  0  0  0  0  0  0
    8.2058  -12.7742   25.3625 C   0  0  0  0  0  0  0  0  0  0  0  0
    7.0688  -13.5163   25.5488 C   0  0  0  0  0  0  0  0  0  0  0  0
    9.4360  -17.0775   23.9814 C   0  0  0  0  0  0  0  0  0  0  0  0
    9.6140  -18.2789   24.3163 O   0  0  0  0  0  0  0  0  0  0  0  0
   12.8732  -16.1589   22.8601 C   0  0  0  0  0  0  0  0  0  0  0  0
   11.9105  -16.8796   23.7591 C   0  0  2  0  0  0  0  0  0  0  0  0
   10.5691  -16.3728   23.4749 N   0  0  0  0  0  0  0  0  0  0  0  0
   12.2283  -16.6584   25.2000 C   0  0  0  0  0  0  0  0  0  0  0  0
   13.2799  -17.1212   25.7082 O   0  0  0  0  0  0  0  0  0  0  0  0
   11.1163  -14.4000   27.8812 C   0  0  0  0  0  0  0  0  0  0  0  0
   11.6744  -15.7562   27.4526 C   0  0  2  0  0  0  0  0  0  0  0  0
   11.3608  -15.9191   26.0529 N   0  0  0  0  0  0  0  0  0  0  0  0
   11.0715  -16.8048   28.2952 C   0  0  0  0  0  0  0  0  0  0  0  0
   11.2610  -16.7989   29.5264 O   0  0  0  0  0  0  0  0  0  0  0  0
   10.2999  -17.7883   27.7164 O   0  0  0  0  0  0  0  0  0  0  0  0
  2  1  1  1
  2  3  1  0
  2 13  1  0
  4  3  1  0
  4  5  2  0
  6  5  1  0
  7  6  1  0
  8  7  2  0
  9  8  1  0
 10  9  2  0
 10 11  1  0
 11 12  2  0
 12  7  1  0
 12  4  1  0
 13 14  2  0
 16 15  1  6
 17 13  1  0
 17 16  1  0
 18 16  1  0
 18 19  2  0
 21 20  1  1
 21 23  1  0
 21 22  1  0
 22 18  1  0
 23 25  1  0
 24 23  2  0
M  END
$$$$
