WAA.pdb
     RDKit          3D

 25 26  0  0  1  0  0  0  0  0999 V2000
    6.8070  -18.9221   24.8261 N   0  0  0  0  0  0  0  0  0  0  0  0
    6.6634  -17.4751   24.6009 C   0  0  1  0  0  0  0  0  0  0  0  0
    7.4220  -16.8146   25.7207 C   0  0  0  0  0  0  0  0  0  0  0  0
    6.9356  -15.4680   26.0672 C   0  0  0  0  0  0  0  0  0  0  0  0
    5.6097  -15.1447   26.3411 C   0  0  0  0  0  0  0  0  0  0  0  0
    5.5312  -13.8355   26.6158 N   0  0  0  0  0  0  0  0  0  0  0  0
    6.7511  -13.2520   26.5401 C   0  0  0  0  0  0  0  0  0  0  0  0
    7.1834  -11.9602   26.7305 C   0  0  0  0  0  0  0  0  0  0  0  0
    8.5192  -11.6630   26.5792 C   0  0  0  0  0  0  0  0  0  0  0  0
    9.3930  -12.6735   26.2385 C   0  0  0  0  0  0  0  0  0  0  0  0
    8.9514  -13.9754   26.0476 C   0  0  0  0  0  0  0  0  0  0  0  0
    7.6238  -14.2810   26.1963 C   0  0  0  0  0  0  0  0  0  0  0  0
    7.2532  -17.1762   23.2710 C   0  0  0  0  0  0  0  0  0  0  0  0
    7.8919  -18.0577   22.6367 O   0  0  0  0  0  0  0  0  0  0  0  0
    7.1889  -14.3756   20.8033 C   0  0  0  0  0  0  0  0  0  0  0  0
    7.7010  -15.6881   21.3224 C   0  0  2  0  0  0  0  0  0  0  0  0
    7.1295  -15.8962   22.6518 N   0  0  0  0  0  0  0  0  0  0  0  0
    9.1901  -15.7025   21.4160 C   0  0  0  0  0  0  0  0  0  0  0  0
    9.9032  -15.5420   20.3942 O   0  0  0  0  0  0  0  0  0  0  0  0
   11.7085  -15.4169   24.0936 C   0  0  0  0  0  0  0  0  0  0  0  0
   11.3025  -15.9292   22.7126 C   0  0  2  0  0  0  0  0  0  0  0  0
    9.8603  -15.8965   22.6568 N   0  0  0  0  0  0  0  0  0  0  0  0
   11.8469  -17.2871   22.5317 C   0  0  0  0  0  0  0  0  0  0  0  0
   11.0752  -18.2469   22.3452 O   0  0  0  0  0  0  0  0  0  0  0  0
   13.2092  -17.4889   22.5697 O   0  0  0  0  0  0  0  0  0  0  0  0
  2  1  1  1
  2  3  1  0
  2 13  1  0
  4  3  1  0
  4  5  2  0
  6  5  1  0
  7  6  1  0
  8  7  2  0
  9  8  1  0
 10  9  2  0
 10 11  1  0
 11 12  2  0
 12  7  1  0
 12  4  1  0
 13 14  2  0
 16 15  1  1
 17 13  1  0
 17 16  1  0
 18 16  1  0
 18 19  2  0
 21 20  1  1
 21 23  1  0
 21 22  1  0
 22 18  1  0
 23 25  1  0
 24 23  2  0
M  END
$$$$
