WAA.pdb
     RDKit          3D

 25 26  0  0  1  0  0  0  0  0999 V2000
    6.5980  -18.3065   24.0031 N   0  0  0  0  0  0  0  0  0  0  0  0
    6.7044  -16.8532   23.7991 C   0  0  1  0  0  0  0  0  0  0  0  0
    7.5146  -16.3405   24.9595 C   0  0  0  0  0  0  0  0  0  0  0  0
    6.8784  -15.2365   25.6987 C   0  0  0  0  0  0  0  0  0  0  0  0
    5.7240  -15.3522   26.4677 C   0  0  0  0  0  0  0  0  0  0  0  0
    5.4323  -14.1547   26.9935 N   0  0  0  0  0  0  0  0  0  0  0  0
    6.3418  -13.2258   26.6137 C   0  0  0  0  0  0  0  0  0  0  0  0
    6.4762  -11.8836   26.8829 C   0  0  0  0  0  0  0  0  0  0  0  0
    7.5313  -11.1854   26.3398 C   0  0  0  0  0  0  0  0  0  0  0  0
    8.4301  -11.8537   25.5358 C   0  0  0  0  0  0  0  0  0  0  0  0
    8.2898  -13.2082   25.2674 C   0  0  0  0  0  0  0  0  0  0  0  0
    7.2430  -13.9116   25.8037 C   0  0  0  0  0  0  0  0  0  0  0  0
    7.3900  -16.6405   22.4988 C   0  0  0  0  0  0  0  0  0  0  0  0
    7.9960  -17.5861   21.9279 O   0  0  0  0  0  0  0  0  0  0  0  0
    7.7689  -13.8846   20.0019 C   0  0  0  0  0  0  0  0  0  0  0  0
    8.0851  -15.2442   20.5548 C   0  0  2  0  0  0  0  0  0  0  0  0
    7.3982  -15.3752   21.8385 N   0  0  0  0  0  0  0  0  0  0  0  0
    9.5516  -15.4315   20.7568 C   0  0  0  0  0  0  0  0  0  0  0  0
   10.3540  -15.3322   19.7953 O   0  0  0  0  0  0  0  0  0  0  0  0
   11.8607  -15.7644   23.6512 C   0  0  0  0  0  0  0  0  0  0  0  0
   11.5080  -16.0056   22.1842 C   0  0  2  0  0  0  0  0  0  0  0  0
   10.0990  -15.7277   22.0370 N   0  0  0  0  0  0  0  0  0  0  0  0
   11.8517  -17.3962   21.8363 C   0  0  0  0  0  0  0  0  0  0  0  0
   13.0382  -17.7731   21.8793 O   0  0  0  0  0  0  0  0  0  0  0  0
   10.8575  -18.2744   21.4646 O   0  0  0  0  0  0  0  0  0  0  0  0
  2  1  1  1
  2  3  1  0
  2 13  1  0
  4  3  1  0
  4  5  2  0
  6  5  1  0
  7  6  1  0
  8  7  2  0
  9  8  1  0
 10  9  2  0
 10 11  1  0
 11 12  2  0
 12  7  1  0
 12  4  1  0
 13 14  2  0
 16 15  1  1
 17 13  1  0
 17 16  1  0
 18 16  1  0
 18 19  2  0
 21 20  1  1
 21 23  1  0
 21 22  1  0
 22 18  1  0
 23 25  1  0
 24 23  2  0
M  END
$$$$
