WAA.pdb
     RDKit          3D

 25 26  0  0  1  0  0  0  0  0999 V2000
    6.7713  -17.3658   24.4626 N   0  0  0  0  0  0  0  0  0  0  0  0
    7.9453  -16.4878   24.3365 C   0  0  1  0  0  0  0  0  0  0  0  0
    7.9942  -15.6926   25.6137 C   0  0  0  0  0  0  0  0  0  0  0  0
    6.9224  -14.6904   25.7420 C   0  0  0  0  0  0  0  0  0  0  0  0
    5.6025  -14.9729   26.0821 C   0  0  0  0  0  0  0  0  0  0  0  0
    4.9071  -13.8277   26.1060 N   0  0  0  0  0  0  0  0  0  0  0  0
    5.6998  -12.7744   25.7955 C   0  0  0  0  0  0  0  0  0  0  0  0
    5.4615  -11.4240   25.6885 C   0  0  0  0  0  0  0  0  0  0  0  0
    6.4931  -10.5784   25.3474 C   0  0  0  0  0  0  0  0  0  0  0  0
    7.7446  -11.1105   25.1206 C   0  0  0  0  0  0  0  0  0  0  0  0
    7.9796  -12.4740   25.2300 C   0  0  0  0  0  0  0  0  0  0  0  0
    6.9591  -13.3235   25.5693 C   0  0  0  0  0  0  0  0  0  0  0  0
    9.1341  -17.3633   24.1750 C   0  0  0  0  0  0  0  0  0  0  0  0
    9.2582  -18.4138   24.8594 O   0  0  0  0  0  0  0  0  0  0  0  0
   12.4162  -17.1063   22.3948 C   0  0  0  0  0  0  0  0  0  0  0  0
   11.5362  -17.5355   23.5331 C   0  0  2  0  0  0  0  0  0  0  0  0
   10.1808  -17.0660   23.2513 N   0  0  0  0  0  0  0  0  0  0  0  0
   11.9970  -16.9664   24.8331 C   0  0  0  0  0  0  0  0  0  0  0  0
   12.9121  -16.1066   24.8739 O   0  0  0  0  0  0  0  0  0  0  0  0
   10.8823  -15.8597   27.8432 C   0  0  0  0  0  0  0  0  0  0  0  0
   11.9275  -16.8427   27.3180 C   0  0  2  0  0  0  0  0  0  0  0  0
   11.4236  -17.3698   26.0720 N   0  0  0  0  0  0  0  0  0  0  0  0
   12.1441  -17.8910   28.3315 C   0  0  0  0  0  0  0  0  0  0  0  0
   11.7824  -19.0609   28.1035 O   0  0  0  0  0  0  0  0  0  0  0  0
   12.7466  -17.5715   29.5285 O   0  0  0  0  0  0  0  0  0  0  0  0
  2  1  1  1
  2  3  1  0
  2 13  1  0
  4  3  1  0
  4  5  2  0
  6  5  1  0
  7  6  1  0
  8  7  2  0
  9  8  1  0
 10  9  2  0
 10 11  1  0
 11 12  2  0
 12  7  1  0
 12  4  1  0
 13 14  2  0
 16 15  1  6
 17 13  1  0
 17 16  1  0
 18 16  1  0
 18 19  2  0
 21 20  1  1
 21 23  1  0
 21 22  1  0
 22 18  1  0
 23 25  1  0
 24 23  2  0
M  END
$$$$
