WAA.pdb
     RDKit          3D

 25 26  0  0  1  0  0  0  0  0999 V2000
    7.2256  -17.6018   22.1228 N   0  0  0  0  0  0  0  0  0  0  0  0
    7.6940  -16.6116   23.1051 C   0  0  1  0  0  0  0  0  0  0  0  0
    6.8033  -16.7818   24.3067 C   0  0  0  0  0  0  0  0  0  0  0  0
    6.5709  -15.5413   25.0662 C   0  0  0  0  0  0  0  0  0  0  0  0
    5.8617  -15.4583   26.2610 C   0  0  0  0  0  0  0  0  0  0  0  0
    5.8490  -14.1821   26.6692 N   0  0  0  0  0  0  0  0  0  0  0  0
    6.5213  -13.3902   25.8001 C   0  0  0  0  0  0  0  0  0  0  0  0
    6.7840  -12.0402   25.7759 C   0  0  0  0  0  0  0  0  0  0  0  0
    7.5123  -11.5098   24.7349 C   0  0  0  0  0  0  0  0  0  0  0  0
    7.9614  -12.3504   23.7386 C   0  0  0  0  0  0  0  0  0  0  0  0
    7.6935  -13.7119   23.7680 C   0  0  0  0  0  0  0  0  0  0  0  0
    6.9696  -14.2491   24.8003 C   0  0  0  0  0  0  0  0  0  0  0  0
    9.1125  -16.9301   23.4088 C   0  0  0  0  0  0  0  0  0  0  0  0
    9.4716  -18.1158   23.6383 O   0  0  0  0  0  0  0  0  0  0  0  0
   12.4352  -15.4996   22.9863 C   0  0  0  0  0  0  0  0  0  0  0  0
   11.4886  -16.3054   23.8283 C   0  0  2  0  0  0  0  0  0  0  0  0
   10.1266  -15.9269   23.4556 N   0  0  0  0  0  0  0  0  0  0  0  0
   11.6916  -16.0523   25.2846 C   0  0  0  0  0  0  0  0  0  0  0  0
   12.7668  -16.3695   25.8518 O   0  0  0  0  0  0  0  0  0  0  0  0
   10.0421  -14.0667   27.9298 C   0  0  0  0  0  0  0  0  0  0  0  0
   10.8858  -15.2676   27.5049 C   0  0  2  0  0  0  0  0  0  0  0  0
   10.6841  -15.4453   26.0865 N   0  0  0  0  0  0  0  0  0  0  0  0
   10.4664  -16.4430   28.2895 C   0  0  0  0  0  0  0  0  0  0  0  0
    9.9213  -17.4081   27.7211 O   0  0  0  0  0  0  0  0  0  0  0  0
   10.6796  -16.4690   29.6503 O   0  0  0  0  0  0  0  0  0  0  0  0
  2  1  1  6
  2  3  1  0
  2 13  1  0
  4  3  1  0
  4  5  2  0
  6  5  1  0
  7  6  1  0
  8  7  2  0
  9  8  1  0
 10  9  2  0
 10 11  1  0
 11 12  2  0
 12  7  1  0
 12  4  1  0
 13 14  2  0
 16 15  1  6
 17 13  1  0
 17 16  1  0
 18 16  1  0
 18 19  2  0
 21 20  1  1
 21 23  1  0
 21 22  1  0
 22 18  1  0
 23 25  1  0
 24 23  2  0
M  END
$$$$
