WAA.pdb
     RDKit          3D

 25 26  0  0  1  0  0  0  0  0999 V2000
    8.1769  -17.7713   24.1333 N   0  0  0  0  0  0  0  0  0  0  0  0
    7.6479  -16.7372   23.2301 C   0  0  1  0  0  0  0  0  0  0  0  0
    8.2138  -15.4354   23.7308 C   0  0  0  0  0  0  0  0  0  0  0  0
    7.4819  -14.8581   24.8714 C   0  0  0  0  0  0  0  0  0  0  0  0
    6.7303  -15.5872   25.7885 C   0  0  0  0  0  0  0  0  0  0  0  0
    6.2067  -14.7428   26.6876 N   0  0  0  0  0  0  0  0  0  0  0  0
    6.5708  -13.4659   26.4206 C   0  0  0  0  0  0  0  0  0  0  0  0
    6.2966  -12.2670   27.0364 C   0  0  0  0  0  0  0  0  0  0  0  0
    6.8222  -11.1038   26.5203 C   0  0  0  0  0  0  0  0  0  0  0  0
    7.6136  -11.1719   25.3933 C   0  0  0  0  0  0  0  0  0  0  0  0
    7.8871  -12.3845   24.7758 C   0  0  0  0  0  0  0  0  0  0  0  0
    7.3686  -13.5475   25.2825 C   0  0  0  0  0  0  0  0  0  0  0  0
    8.1211  -17.0650   21.8610 C   0  0  0  0  0  0  0  0  0  0  0  0
    9.2861  -17.5052   21.6703 O   0  0  0  0  0  0  0  0  0  0  0  0
    6.6869  -17.5080   18.4737 C   0  0  0  0  0  0  0  0  0  0  0  0
    7.8405  -17.2149   19.3890 C   0  0  2  0  0  0  0  0  0  0  0  0
    7.2951  -16.9014   20.7086 N   0  0  0  0  0  0  0  0  0  0  0  0
    8.6530  -16.0618   18.9025 C   0  0  0  0  0  0  0  0  0  0  0  0
    9.2744  -16.1236   17.8124 O   0  0  0  0  0  0  0  0  0  0  0  0
    8.9537  -12.4754   19.7878 C   0  0  0  0  0  0  0  0  0  0  0  0
    9.5095  -13.7357   19.1266 C   0  0  2  0  0  0  0  0  0  0  0  0
    8.7571  -14.8527   19.6465 N   0  0  0  0  0  0  0  0  0  0  0  0
   10.9496  -13.8326   19.4263 C   0  0  0  0  0  0  0  0  0  0  0  0
   11.7367  -12.9762   18.9806 O   0  0  0  0  0  0  0  0  0  0  0  0
   11.4194  -14.8717   20.1992 O   0  0  0  0  0  0  0  0  0  0  0  0
  2  1  1  1
  2  3  1  0
  2 13  1  0
  4  3  1  0
  4  5  2  0
  6  5  1  0
  7  6  1  0
  8  7  2  0
  9  8  1  0
 10  9  2  0
 10 11  1  0
 11 12  2  0
 12  7  1  0
 12  4  1  0
 13 14  2  0
 16 15  1  6
 17 13  1  0
 17 16  1  0
 18 16  1  0
 18 19  2  0
 21 20  1  1
 21 23  1  0
 21 22  1  0
 22 18  1  0
 23 25  1  0
 24 23  2  0
M  END
$$$$
