WAA.pdb
     RDKit          3D

 25 26  0  0  1  0  0  0  0  0999 V2000
    6.5943  -18.4271   24.1869 N   0  0  0  0  0  0  0  0  0  0  0  0
    6.7216  -16.9800   23.9529 C   0  0  1  0  0  0  0  0  0  0  0  0
    7.5227  -16.4520   25.1128 C   0  0  0  0  0  0  0  0  0  0  0  0
    6.8424  -15.3993   25.8867 C   0  0  0  0  0  0  0  0  0  0  0  0
    5.6672  -15.5753   26.6117 C   0  0  0  0  0  0  0  0  0  0  0  0
    5.3360  -14.4120   27.1882 N   0  0  0  0  0  0  0  0  0  0  0  0
    6.2383  -13.4484   26.8854 C   0  0  0  0  0  0  0  0  0  0  0  0
    6.3378  -12.1197   27.2267 C   0  0  0  0  0  0  0  0  0  0  0  0
    7.3951  -11.3755   26.7537 C   0  0  0  0  0  0  0  0  0  0  0  0
    8.3313  -11.9850   25.9456 C   0  0  0  0  0  0  0  0  0  0  0  0
    8.2260  -13.3262   25.6043 C   0  0  0  0  0  0  0  0  0  0  0  0
    7.1773  -14.0752   26.0706 C   0  0  0  0  0  0  0  0  0  0  0  0
    7.4269  -16.8042   22.6578 C   0  0  0  0  0  0  0  0  0  0  0  0
    8.0235  -17.7708   22.1127 O   0  0  0  0  0  0  0  0  0  0  0  0
    7.8934  -14.1019   20.1174 C   0  0  0  0  0  0  0  0  0  0  0  0
    8.1790  -15.4552   20.7016 C   0  0  2  0  0  0  0  0  0  0  0  0
    7.4655  -15.5521   21.9738 N   0  0  0  0  0  0  0  0  0  0  0  0
    9.6384  -15.6595   20.9357 C   0  0  0  0  0  0  0  0  0  0  0  0
   10.4619  -15.5791   19.9904 O   0  0  0  0  0  0  0  0  0  0  0  0
   11.9271  -15.7368   23.8185 C   0  0  0  0  0  0  0  0  0  0  0  0
   11.5628  -16.2142   22.4135 C   0  0  2  0  0  0  0  0  0  0  0  0
   10.1551  -15.9514   22.2296 N   0  0  0  0  0  0  0  0  0  0  0  0
   11.8926  -17.6463   22.2990 C   0  0  0  0  0  0  0  0  0  0  0  0
   10.9820  -18.4854   22.1636 O   0  0  0  0  0  0  0  0  0  0  0  0
   13.2087  -18.0511   22.3422 O   0  0  0  0  0  0  0  0  0  0  0  0
  2  1  1  1
  2  3  1  0
  2 13  1  0
  4  3  1  0
  4  5  2  0
  6  5  1  0
  7  6  1  0
  8  7  2  0
  9  8  1  0
 10  9  2  0
 10 11  1  0
 11 12  2  0
 12  7  1  0
 12  4  1  0
 13 14  2  0
 16 15  1  1
 17 13  1  0
 17 16  1  0
 18 16  1  0
 18 19  2  0
 21 20  1  1
 21 23  1  0
 21 22  1  0
 22 18  1  0
 23 25  1  0
 24 23  2  0
M  END
$$$$
