HSQ.pdb
     RDKit          3D

 26 26  0  0  1  0  0  0  0  0999 V2000
    8.6711  -16.6532   19.6310 N   0  0  0  0  0  0  0  0  0  0  0  0
    8.2347  -15.6617   20.5777 C   0  0  1  0  0  0  0  0  0  0  0  0
    7.1002  -14.8789   19.9726 C   0  0  0  0  0  0  0  0  0  0  0  0
    7.5119  -14.2583   18.6922 C   0  0  0  0  0  0  0  0  0  0  0  0
    7.4089  -14.7948   17.4318 C   0  0  0  0  0  0  0  0  0  0  0  0
    7.8883  -13.9359   16.5157 N   0  0  0  0  0  0  0  0  0  0  0  0
    8.2983  -12.8464   17.1991 C   0  0  0  0  0  0  0  0  0  0  0  0
    8.0688  -13.0451   18.5176 N   0  0  0  0  0  0  0  0  0  0  0  0
    7.9086  -16.2216   21.8932 C   0  0  0  0  0  0  0  0  0  0  0  0
    6.7915  -16.0149   22.4160 O   0  0  0  0  0  0  0  0  0  0  0  0
    9.6253  -19.5986   23.4292 O   0  0  0  0  0  0  0  0  0  0  0  0
    8.4629  -19.0685   23.9428 C   0  0  0  0  0  0  0  0  0  0  0  0
    8.4693  -17.5357   23.9459 C   0  0  2  0  0  0  0  0  0  0  0  0
    8.8292  -17.0262   22.6523 N   0  0  0  0  0  0  0  0  0  0  0  0
    9.5000  -17.1579   24.9786 C   0  0  0  0  0  0  0  0  0  0  0  0
   10.7089  -17.1219   24.6407 O   0  0  0  0  0  0  0  0  0  0  0  0
   10.4102  -12.7106   28.1647 N   0  0  0  0  0  0  0  0  0  0  0  0
    9.1107  -13.0197   27.6197 C   0  0  0  0  0  0  0  0  0  0  0  0
    8.4939  -12.0469   27.1559 O   0  0  0  0  0  0  0  0  0  0  0  0
    8.6627  -14.4084   27.6686 C   0  0  0  0  0  0  0  0  0  0  0  0
    9.5677  -15.4267   28.2253 C   0  0  0  0  0  0  0  0  0  0  0  0
   10.1439  -16.4515   27.3243 C   0  0  2  0  0  0  0  0  0  0  0  0
    9.1612  -16.8452   26.3010 N   0  0  0  0  0  0  0  0  0  0  0  0
   10.7199  -17.6565   27.9026 C   0  0  0  0  0  0  0  0  0  0  0  0
   11.8494  -17.6002   28.7456 O   0  0  0  0  0  0  0  0  0  0  0  0
   10.2596  -18.8036   27.6873 O   0  0  0  0  0  0  0  0  0  0  0  0
  2  1  1  6
  3  2  1  0
  4  5  2  0
  4  3  1  0
  6  5  1  0
  7  8  2  0
  7  6  1  0
  8  4  1  0
  9 10  2  0
  9  2  1  0
 11 12  1  0
 13 14  1  0
 13 12  1  6
 14  9  1  0
 15 13  1  0
 16 15  2  0
 18 20  1  0
 18 17  1  0
 19 18  2  0
 22 21  1  1
 21 20  1  0
 22 23  1  0
 23 15  1  0
 24 25  1  0
 24 22  1  0
 26 24  2  0
M  END
$$$$
