HSQ.pdb
     RDKit          3D

 26 26  0  0  1  0  0  0  0  0999 V2000
   13.1650  -17.5999   19.0691 N   0  0  0  0  0  0  0  0  0  0  0  0
   12.0902  -18.0069   19.9345 C   0  0  1  0  0  0  0  0  0  0  0  0
   12.3037  -19.4432   20.3311 C   0  0  0  0  0  0  0  0  0  0  0  0
   11.9396  -20.3560   19.2228 C   0  0  0  0  0  0  0  0  0  0  0  0
   11.4450  -20.0153   17.9874 C   0  0  0  0  0  0  0  0  0  0  0  0
   11.2329  -21.1169   17.2468 N   0  0  0  0  0  0  0  0  0  0  0  0
   11.5954  -22.1642   18.0174 C   0  0  0  0  0  0  0  0  0  0  0  0
   12.0231  -21.6996   19.2140 N   0  0  0  0  0  0  0  0  0  0  0  0
   11.9033  -17.1155   21.0836 C   0  0  0  0  0  0  0  0  0  0  0  0
   12.8770  -16.5203   21.5950 O   0  0  0  0  0  0  0  0  0  0  0  0
    8.1491  -16.6446   22.8604 O   0  0  0  0  0  0  0  0  0  0  0  0
    9.0501  -15.6282   23.0865 C   0  0  0  0  0  0  0  0  0  0  0  0
   10.5013  -16.0736   22.8735 C   0  0  2  0  0  0  0  0  0  0  0  0
   10.6190  -16.8718   21.6856 N   0  0  0  0  0  0  0  0  0  0  0  0
   10.8391  -16.8816   24.1001 C   0  0  0  0  0  0  0  0  0  0  0  0
   10.2870  -17.9982   24.2591 O   0  0  0  0  0  0  0  0  0  0  0  0
   11.5765  -13.1075   28.5876 N   0  0  0  0  0  0  0  0  0  0  0  0
   10.8062  -14.1546   29.2131 C   0  0  0  0  0  0  0  0  0  0  0  0
   10.6642  -14.0364   30.4411 O   0  0  0  0  0  0  0  0  0  0  0  0
   10.2864  -15.2210   28.3621 C   0  0  0  0  0  0  0  0  0  0  0  0
   10.7448  -15.3017   26.9659 C   0  0  0  0  0  0  0  0  0  0  0  0
   11.4899  -16.5011   26.5183 C   0  0  2  0  0  0  0  0  0  0  0  0
   11.7454  -16.4348   25.0699 N   0  0  0  0  0  0  0  0  0  0  0  0
   10.9622  -17.8196   26.8368 C   0  0  0  0  0  0  0  0  0  0  0  0
   11.2016  -18.4249   28.0881 O   0  0  0  0  0  0  0  0  0  0  0  0
   10.2770  -18.4930   26.0299 O   0  0  0  0  0  0  0  0  0  0  0  0
  2  1  1  1
  3  2  1  0
  4  5  2  0
  4  3  1  0
  6  5  1  0
  7  8  2  0
  7  6  1  0
  8  4  1  0
  9 10  2  0
  9  2  1  0
 11 12  1  0
 13 14  1  0
 13 12  1  1
 14  9  1  0
 15 13  1  0
 16 15  2  0
 18 20  1  0
 18 17  1  0
 19 18  2  0
 22 21  1  6
 21 20  1  0
 22 23  1  0
 23 15  1  0
 24 25  1  0
 24 22  1  0
 26 24  2  0
M  END
$$$$
