HSQ.pdb
     RDKit          3D

 26 26  0  0  1  0  0  0  0  0999 V2000
    8.4569  -16.8586   19.4183 N   0  0  0  0  0  0  0  0  0  0  0  0
    9.0134  -16.0403   20.4626 C   0  0  1  0  0  0  0  0  0  0  0  0
    8.1061  -14.8611   20.6909 C   0  0  0  0  0  0  0  0  0  0  0  0
    7.9487  -14.0689   19.4492 C   0  0  0  0  0  0  0  0  0  0  0  0
    8.5674  -12.8850   19.1287 C   0  0  0  0  0  0  0  0  0  0  0  0
    8.1742  -12.4638   17.9143 N   0  0  0  0  0  0  0  0  0  0  0  0
    7.2999  -13.3868   17.4605 C   0  0  0  0  0  0  0  0  0  0  0  0
    7.1656  -14.3579   18.3930 N   0  0  0  0  0  0  0  0  0  0  0  0
    9.3039  -16.7875   21.6904 C   0  0  0  0  0  0  0  0  0  0  0  0
    8.4072  -17.0003   22.5357 O   0  0  0  0  0  0  0  0  0  0  0  0
   13.1808  -18.1776   22.6491 O   0  0  0  0  0  0  0  0  0  0  0  0
   12.1064  -18.9688   22.9895 C   0  0  0  0  0  0  0  0  0  0  0  0
   10.8099  -18.1644   23.1365 C   0  0  2  0  0  0  0  0  0  0  0  0
   10.6080  -17.3128   21.9980 N   0  0  0  0  0  0  0  0  0  0  0  0
   11.0030  -17.3500   24.3899 C   0  0  0  0  0  0  0  0  0  0  0  0
   11.4341  -16.1751   24.2866 O   0  0  0  0  0  0  0  0  0  0  0  0
    8.9273  -13.7189   27.2518 N   0  0  0  0  0  0  0  0  0  0  0  0
    9.2760  -14.2978   28.5264 C   0  0  0  0  0  0  0  0  0  0  0  0
    9.3469  -13.4887   29.4657 O   0  0  0  0  0  0  0  0  0  0  0  0
    9.5062  -15.7384   28.5817 C   0  0  0  0  0  0  0  0  0  0  0  0
    9.5834  -16.4936   27.3209 C   0  0  0  0  0  0  0  0  0  0  0  0
   10.8809  -17.0745   26.9048 C   0  0  2  0  0  0  0  0  0  0  0  0
   10.7201  -17.8533   25.6658 N   0  0  0  0  0  0  0  0  0  0  0  0
   11.6360  -17.8720   27.8599 C   0  0  0  0  0  0  0  0  0  0  0  0
   12.2444  -17.2857   28.9893 O   0  0  0  0  0  0  0  0  0  0  0  0
   11.7959  -19.1104   27.7384 O   0  0  0  0  0  0  0  0  0  0  0  0
  2  1  1  6
  3  2  1  0
  4  5  2  0
  4  3  1  0
  6  5  1  0
  7  8  2  0
  7  6  1  0
  8  4  1  0
  9 10  2  0
  9  2  1  0
 11 12  1  0
 13 14  1  0
 13 12  1  6
 14  9  1  0
 15 13  1  0
 16 15  2  0
 18 20  1  0
 18 17  1  0
 19 18  2  0
 22 21  1  1
 21 20  1  0
 22 23  1  0
 23 15  1  0
 24 25  1  0
 24 22  1  0
 26 24  2  0
M  END
$$$$
