HSQ.pdb
     RDKit          3D

 26 26  0  0  1  0  0  0  0  0999 V2000
    7.1337  -16.6547   20.7695 N   0  0  0  0  0  0  0  0  0  0  0  0
    7.6072  -15.7878   21.8155 C   0  0  1  0  0  0  0  0  0  0  0  0
    7.0169  -14.4177   21.6148 C   0  0  0  0  0  0  0  0  0  0  0  0
    7.4609  -13.8359   20.3270 C   0  0  0  0  0  0  0  0  0  0  0  0
    8.3104  -14.3969   19.4047 C   0  0  0  0  0  0  0  0  0  0  0  0
    8.4796  -13.5700   18.3586 N   0  0  0  0  0  0  0  0  0  0  0  0
    7.7322  -12.4763   18.6184 C   0  0  0  0  0  0  0  0  0  0  0  0
    7.1163  -12.6408   19.8119 N   0  0  0  0  0  0  0  0  0  0  0  0
    7.3729  -16.3226   23.1606 C   0  0  0  0  0  0  0  0  0  0  0  0
    6.6717  -15.6948   23.9841 O   0  0  0  0  0  0  0  0  0  0  0  0
    8.0045  -20.3102   24.2497 O   0  0  0  0  0  0  0  0  0  0  0  0
    7.2265  -19.4598   25.0031 C   0  0  0  0  0  0  0  0  0  0  0  0
    7.7348  -18.0141   24.9669 C   0  0  2  0  0  0  0  0  0  0  0  0
    7.9207  -17.5743   23.6125 N   0  0  0  0  0  0  0  0  0  0  0  0
    9.0478  -18.0499   25.7059 C   0  0  0  0  0  0  0  0  0  0  0  0
   10.1011  -18.2629   25.0564 O   0  0  0  0  0  0  0  0  0  0  0  0
    9.4582  -12.9865   28.4376 N   0  0  0  0  0  0  0  0  0  0  0  0
    9.8524  -14.2249   29.0640 C   0  0  0  0  0  0  0  0  0  0  0  0
   10.3011  -14.1080   30.2159 O   0  0  0  0  0  0  0  0  0  0  0  0
    9.6902  -15.4582   28.2998 C   0  0  0  0  0  0  0  0  0  0  0  0
   10.5473  -16.6105   28.6219 C   0  0  0  0  0  0  0  0  0  0  0  0
   10.4092  -17.8566   27.8331 C   0  0  2  0  0  0  0  0  0  0  0  0
    9.1384  -17.8545   27.0898 N   0  0  0  0  0  0  0  0  0  0  0  0
   10.5504  -19.1385   28.5078 C   0  0  0  0  0  0  0  0  0  0  0  0
   11.7429  -19.4920   29.1729 O   0  0  0  0  0  0  0  0  0  0  0  0
    9.6375  -19.9987   28.5355 O   0  0  0  0  0  0  0  0  0  0  0  0
  2  1  1  6
  3  2  1  0
  4  5  2  0
  4  3  1  0
  6  5  1  0
  7  8  2  0
  7  6  1  0
  8  4  1  0
  9 10  2  0
  9  2  1  0
 11 12  1  0
 13 14  1  0
 13 12  1  6
 14  9  1  0
 15 13  1  0
 16 15  2  0
 18 20  1  0
 18 17  1  0
 19 18  2  0
 22 21  1  1
 21 20  1  0
 22 23  1  0
 23 15  1  0
 24 25  1  0
 24 22  1  0
 26 24  2  0
M  END
$$$$
