HSQ.pdb
     RDKit          3D

 26 26  0  0  1  0  0  0  0  0999 V2000
   10.2156  -19.4159   14.2064 N   0  0  0  0  0  0  0  0  0  0  0  0
   11.4489  -18.8587   14.6944 C   0  0  1  0  0  0  0  0  0  0  0  0
   11.7246  -17.5733   13.9612 C   0  0  0  0  0  0  0  0  0  0  0  0
   11.7734  -17.8008   12.4983 C   0  0  0  0  0  0  0  0  0  0  0  0
   12.7376  -18.4744   11.7886 C   0  0  0  0  0  0  0  0  0  0  0  0
   12.4414  -18.4738   10.4775 N   0  0  0  0  0  0  0  0  0  0  0  0
   11.2811  -17.7953   10.3539 C   0  0  0  0  0  0  0  0  0  0  0  0
   10.8791  -17.3889   11.5802 N   0  0  0  0  0  0  0  0  0  0  0  0
   11.4778  -18.7056   16.1525 C   0  0  0  0  0  0  0  0  0  0  0  0
   12.4883  -18.2431   16.7260 O   0  0  0  0  0  0  0  0  0  0  0  0
    9.2110  -19.2777   20.4695 O   0  0  0  0  0  0  0  0  0  0  0  0
    9.1818  -19.4363   19.1019 C   0  0  0  0  0  0  0  0  0  0  0  0
   10.4716  -18.9539   18.4286 C   0  0  2  0  0  0  0  0  0  0  0  0
   10.3732  -19.0685   17.0005 N   0  0  0  0  0  0  0  0  0  0  0  0
   11.5487  -19.8598   18.9680 C   0  0  0  0  0  0  0  0  0  0  0  0
   11.6911  -20.9988   18.4590 O   0  0  0  0  0  0  0  0  0  0  0  0
   17.2588  -19.1939   18.7245 N   0  0  0  0  0  0  0  0  0  0  0  0
   17.2780  -20.2209   19.7375 C   0  0  0  0  0  0  0  0  0  0  0  0
   18.4096  -20.6269   20.0484 O   0  0  0  0  0  0  0  0  0  0  0  0
   15.9986  -20.6692   20.2795 C   0  0  0  0  0  0  0  0  0  0  0  0
   14.7766  -19.9354   19.9129 C   0  0  0  0  0  0  0  0  0  0  0  0
   13.4876  -20.3247   20.5302 C   0  0  2  0  0  0  0  0  0  0  0  0
   12.3971  -19.4799   20.0155 N   0  0  0  0  0  0  0  0  0  0  0  0
   13.3875  -20.3790   21.9811 C   0  0  0  0  0  0  0  0  0  0  0  0
   14.1037  -21.3341   22.7324 O   0  0  0  0  0  0  0  0  0  0  0  0
   12.6654  -19.5965   22.6447 O   0  0  0  0  0  0  0  0  0  0  0  0
  2  1  1  6
  3  2  1  0
  4  5  2  0
  4  3  1  0
  6  5  1  0
  7  8  2  0
  7  6  1  0
  8  4  1  0
  9 10  2  0
  9  2  1  0
 11 12  1  0
 13 14  1  0
 13 12  1  1
 14  9  1  0
 15 13  1  0
 16 15  2  0
 18 20  1  0
 18 17  1  0
 19 18  2  0
 22 21  1  1
 21 20  1  0
 22 23  1  0
 23 15  1  0
 24 25  1  0
 24 22  1  0
 26 24  2  0
M  END
$$$$
