HSQ.pdb
     RDKit          3D

 26 26  0  0  1  0  0  0  0  0999 V2000
   12.5570  -18.7789   19.5096 N   0  0  0  0  0  0  0  0  0  0  0  0
   12.6479  -17.3700   19.7859 C   0  0  1  0  0  0  0  0  0  0  0  0
   12.5499  -16.6135   18.4882 C   0  0  0  0  0  0  0  0  0  0  0  0
   13.5697  -17.0868   17.5238 C   0  0  0  0  0  0  0  0  0  0  0  0
   14.9193  -16.8314   17.5413 C   0  0  0  0  0  0  0  0  0  0  0  0
   15.5238  -17.4303   16.5008 N   0  0  0  0  0  0  0  0  0  0  0  0
   14.5512  -18.0705   15.8179 C   0  0  0  0  0  0  0  0  0  0  0  0
   13.3685  -17.8603   16.4405 N   0  0  0  0  0  0  0  0  0  0  0  0
   11.6825  -16.9139   20.7909 C   0  0  0  0  0  0  0  0  0  0  0  0
   11.6649  -15.7203   21.1639 O   0  0  0  0  0  0  0  0  0  0  0  0
    8.9912  -19.5228   22.8985 O   0  0  0  0  0  0  0  0  0  0  0  0
    8.6134  -18.2421   22.5621 C   0  0  0  0  0  0  0  0  0  0  0  0
    9.8122  -17.2997   22.4059 C   0  0  2  0  0  0  0  0  0  0  0  0
   10.7145  -17.7871   21.4006 N   0  0  0  0  0  0  0  0  0  0  0  0
   10.4716  -17.2890   23.7611 C   0  0  0  0  0  0  0  0  0  0  0  0
   11.5241  -17.9538   23.9261 O   0  0  0  0  0  0  0  0  0  0  0  0
   10.3502  -14.1380   30.5819 N   0  0  0  0  0  0  0  0  0  0  0  0
    9.9272  -14.2380   29.2063 C   0  0  0  0  0  0  0  0  0  0  0  0
    9.1425  -13.3500   28.8352 O   0  0  0  0  0  0  0  0  0  0  0  0
   10.4491  -15.3451   28.4104 C   0  0  0  0  0  0  0  0  0  0  0  0
   10.0197  -15.4755   27.0087 C   0  0  0  0  0  0  0  0  0  0  0  0
   10.5262  -16.6087   26.2004 C   0  0  2  0  0  0  0  0  0  0  0  0
    9.9556  -16.5659   24.8438 N   0  0  0  0  0  0  0  0  0  0  0  0
   10.3905  -17.9619   26.7187 C   0  0  0  0  0  0  0  0  0  0  0  0
   11.3642  -18.5243   27.5702 O   0  0  0  0  0  0  0  0  0  0  0  0
    9.4178  -18.7041   26.4411 O   0  0  0  0  0  0  0  0  0  0  0  0
  2  1  1  6
  3  2  1  0
  4  5  2  0
  4  3  1  0
  6  5  1  0
  7  8  2  0
  7  6  1  0
  8  4  1  0
  9 10  2  0
  9  2  1  0
 11 12  1  0
 13 14  1  0
 13 12  1  1
 14  9  1  0
 15 13  1  0
 16 15  2  0
 18 20  1  0
 18 17  1  0
 19 18  2  0
 22 21  1  1
 21 20  1  0
 22 23  1  0
 23 15  1  0
 24 25  1  0
 24 22  1  0
 26 24  2  0
M  END
$$$$
