HSQ.pdb
     RDKit          3D

 26 26  0  0  1  0  0  0  0  0999 V2000
    7.9965  -16.6893   20.0705 N   0  0  0  0  0  0  0  0  0  0  0  0
    9.3852  -16.4345   20.3467 C   0  0  1  0  0  0  0  0  0  0  0  0
   10.0188  -15.8233   19.1257 C   0  0  0  0  0  0  0  0  0  0  0  0
    9.5825  -16.5266   17.8973 C   0  0  0  0  0  0  0  0  0  0  0  0
    8.8163  -17.6636   17.8122 C   0  0  0  0  0  0  0  0  0  0  0  0
    8.6267  -18.0065   16.5265 N   0  0  0  0  0  0  0  0  0  0  0  0
    9.2770  -17.0808   15.7900 C   0  0  0  0  0  0  0  0  0  0  0  0
    9.8550  -16.1856   16.6238 N   0  0  0  0  0  0  0  0  0  0  0  0
    9.5976  -15.6417   21.5618 C   0  0  0  0  0  0  0  0  0  0  0  0
   10.7163  -15.1408   21.8100 O   0  0  0  0  0  0  0  0  0  0  0  0
    6.4878  -15.3181   24.4750 O   0  0  0  0  0  0  0  0  0  0  0  0
    7.7072  -14.7261   24.7175 C   0  0  0  0  0  0  0  0  0  0  0  0
    8.8461  -15.3880   23.9337 C   0  0  2  0  0  0  0  0  0  0  0  0
    8.5591  -15.3929   22.5266 N   0  0  0  0  0  0  0  0  0  0  0  0
    8.9175  -16.7935   24.4730 C   0  0  0  0  0  0  0  0  0  0  0  0
    8.6060  -17.7471   23.7177 O   0  0  0  0  0  0  0  0  0  0  0  0
   12.3156  -19.5206   22.9336 N   0  0  0  0  0  0  0  0  0  0  0  0
   12.9779  -19.7927   24.1860 C   0  0  0  0  0  0  0  0  0  0  0  0
   13.8728  -20.6516   24.1279 O   0  0  0  0  0  0  0  0  0  0  0  0
   12.5394  -19.0517   25.3651 C   0  0  0  0  0  0  0  0  0  0  0  0
   11.4613  -18.0604   25.2198 C   0  0  0  0  0  0  0  0  0  0  0  0
   10.2959  -18.1215   26.1320 C   0  0  2  0  0  0  0  0  0  0  0  0
    9.3179  -17.0772   25.7847 N   0  0  0  0  0  0  0  0  0  0  0  0
   10.5219  -18.0864   27.5694 C   0  0  0  0  0  0  0  0  0  0  0  0
   10.6118  -19.2715   28.3288 O   0  0  0  0  0  0  0  0  0  0  0  0
   10.6435  -17.0173   28.2147 O   0  0  0  0  0  0  0  0  0  0  0  0
  2  1  1  6
  3  2  1  0
  4  5  2  0
  4  3  1  0
  6  5  1  0
  7  8  2  0
  7  6  1  0
  8  4  1  0
  9 10  2  0
  9  2  1  0
 11 12  1  0
 13 14  1  0
 13 12  1  1
 14  9  1  0
 15 13  1  0
 16 15  2  0
 18 20  1  0
 18 17  1  0
 19 18  2  0
 22 21  1  6
 21 20  1  0
 22 23  1  0
 23 15  1  0
 24 25  1  0
 24 22  1  0
 26 24  2  0
M  END
$$$$
