HSQ.pdb
     RDKit          3D

 26 26  0  0  1  0  0  0  0  0999 V2000
    9.8908  -17.7059   17.6958 N   0  0  0  0  0  0  0  0  0  0  0  0
   10.6931  -17.5274   18.8766 C   0  0  1  0  0  0  0  0  0  0  0  0
   11.7133  -16.4526   18.6125 C   0  0  0  0  0  0  0  0  0  0  0  0
   12.7592  -16.9358   17.6815 C   0  0  0  0  0  0  0  0  0  0  0  0
   13.6729  -17.9384   17.8980 C   0  0  0  0  0  0  0  0  0  0  0  0
   14.4638  -18.0929   16.8222 N   0  0  0  0  0  0  0  0  0  0  0  0
   14.0493  -17.1821   15.9162 C   0  0  0  0  0  0  0  0  0  0  0  0
   13.0163  -16.4827   16.4401 N   0  0  0  0  0  0  0  0  0  0  0  0
    9.8986  -17.2808   20.0842 C   0  0  0  0  0  0  0  0  0  0  0  0
    9.0928  -16.3258   20.1343 O   0  0  0  0  0  0  0  0  0  0  0  0
    8.7396  -20.2115   22.6022 O   0  0  0  0  0  0  0  0  0  0  0  0
    8.1525  -18.9661   22.6210 C   0  0  0  0  0  0  0  0  0  0  0  0
    9.1673  -17.8368   22.4103 C   0  0  2  0  0  0  0  0  0  0  0  0
    9.9905  -18.1005   21.2635 N   0  0  0  0  0  0  0  0  0  0  0  0
    9.9916  -17.8206   23.6719 C   0  0  0  0  0  0  0  0  0  0  0  0
   11.0778  -18.4503   23.6921 O   0  0  0  0  0  0  0  0  0  0  0  0
    9.8121  -13.3378   28.1193 N   0  0  0  0  0  0  0  0  0  0  0  0
   10.6500  -14.3250   28.7555 C   0  0  0  0  0  0  0  0  0  0  0  0
   11.1349  -13.9754   29.8439 O   0  0  0  0  0  0  0  0  0  0  0  0
   10.8400  -15.6013   28.0726 C   0  0  0  0  0  0  0  0  0  0  0  0
   10.1908  -15.8120   26.7687 C   0  0  0  0  0  0  0  0  0  0  0  0
   10.3713  -17.1068   26.0724 C   0  0  2  0  0  0  0  0  0  0  0  0
    9.5926  -17.1300   24.8231 N   0  0  0  0  0  0  0  0  0  0  0  0
   10.1178  -18.3413   26.8005 C   0  0  0  0  0  0  0  0  0  0  0  0
   11.1141  -18.9430   27.5971 O   0  0  0  0  0  0  0  0  0  0  0  0
    9.0169  -18.9418   26.7621 O   0  0  0  0  0  0  0  0  0  0  0  0
  2  1  1  6
  3  2  1  0
  4  5  2  0
  4  3  1  0
  6  5  1  0
  7  8  2  0
  7  6  1  0
  8  4  1  0
  9 10  2  0
  9  2  1  0
 11 12  1  0
 13 14  1  0
 13 12  1  1
 14  9  1  0
 15 13  1  0
 16 15  2  0
 18 20  1  0
 18 17  1  0
 19 18  2  0
 22 21  1  1
 21 20  1  0
 22 23  1  0
 23 15  1  0
 24 25  1  0
 24 22  1  0
 26 24  2  0
M  END
$$$$
