HSQ.pdb
     RDKit          3D

 26 26  0  0  1  0  0  0  0  0999 V2000
    9.3907  -15.1573   13.5049 N   0  0  0  0  0  0  0  0  0  0  0  0
    8.9359  -15.6788   14.7662 C   0  0  1  0  0  0  0  0  0  0  0  0
    9.2117  -17.1581   14.8077 C   0  0  0  0  0  0  0  0  0  0  0  0
    8.3434  -17.8832   13.8515 C   0  0  0  0  0  0  0  0  0  0  0  0
    8.6761  -18.3374   12.5985 C   0  0  0  0  0  0  0  0  0  0  0  0
    7.6248  -18.9494   12.0268 N   0  0  0  0  0  0  0  0  0  0  0  0
    6.6176  -18.8835   12.9230 C   0  0  0  0  0  0  0  0  0  0  0  0
    7.0564  -18.2368   14.0275 N   0  0  0  0  0  0  0  0  0  0  0  0
    9.4836  -14.9600   15.9210 C   0  0  0  0  0  0  0  0  0  0  0  0
   10.7120  -14.7454   16.0155 O   0  0  0  0  0  0  0  0  0  0  0  0
    7.2340  -14.1830   19.3623 O   0  0  0  0  0  0  0  0  0  0  0  0
    8.1564  -13.2150   19.0331 C   0  0  0  0  0  0  0  0  0  0  0  0
    9.2458  -13.7400   18.0912 C   0  0  2  0  0  0  0  0  0  0  0  0
    8.6651  -14.4655   16.9964 N   0  0  0  0  0  0  0  0  0  0  0  0
   10.0912  -14.6462   18.9489 C   0  0  0  0  0  0  0  0  0  0  0  0
    9.8678  -15.8816   18.9256 O   0  0  0  0  0  0  0  0  0  0  0  0
   16.2771  -14.1692   18.1770 N   0  0  0  0  0  0  0  0  0  0  0  0
   15.4839  -14.0052   19.3708 C   0  0  0  0  0  0  0  0  0  0  0  0
   16.0535  -13.4081   20.2986 O   0  0  0  0  0  0  0  0  0  0  0  0
   14.1275  -14.5454   19.3686 C   0  0  0  0  0  0  0  0  0  0  0  0
   13.3570  -14.5334   20.6225 C   0  0  0  0  0  0  0  0  0  0  0  0
   11.9597  -15.0249   20.6166 C   0  0  2  0  0  0  0  0  0  0  0  0
   11.1168  -14.1631   19.7713 N   0  0  0  0  0  0  0  0  0  0  0  0
   11.2806  -15.2369   21.8863 C   0  0  0  0  0  0  0  0  0  0  0  0
   11.7031  -16.2353   22.7886 O   0  0  0  0  0  0  0  0  0  0  0  0
   10.2890  -14.5600   22.2507 O   0  0  0  0  0  0  0  0  0  0  0  0
  2  1  1  6
  3  2  1  0
  4  5  2  0
  4  3  1  0
  6  5  1  0
  7  8  2  0
  7  6  1  0
  8  4  1  0
  9 10  2  0
  9  2  1  0
 11 12  1  0
 13 14  1  0
 13 12  1  1
 14  9  1  0
 15 13  1  0
 16 15  2  0
 18 20  1  0
 18 17  1  0
 19 18  2  0
 22 21  1  1
 21 20  1  0
 22 23  1  0
 23 15  1  0
 24 25  1  0
 24 22  1  0
 26 24  2  0
M  END
$$$$
