HSQ.pdb
     RDKit          3D

 26 26  0  0  1  0  0  0  0  0999 V2000
    9.4224  -16.8142   18.8916 N   0  0  0  0  0  0  0  0  0  0  0  0
   10.3270  -15.8092   19.3829 C   0  0  1  0  0  0  0  0  0  0  0  0
   10.5389  -14.7788   18.3062 C   0  0  0  0  0  0  0  0  0  0  0  0
    9.2429  -14.2640   17.8068 C   0  0  0  0  0  0  0  0  0  0  0  0
    8.5695  -13.1437   18.2291 C   0  0  0  0  0  0  0  0  0  0  0  0
    7.4237  -12.9979   17.5416 N   0  0  0  0  0  0  0  0  0  0  0  0
    7.3693  -14.0328   16.6767 C   0  0  0  0  0  0  0  0  0  0  0  0
    8.4731  -14.7980   16.8400 N   0  0  0  0  0  0  0  0  0  0  0  0
    9.9058  -15.2264   20.6608 C   0  0  0  0  0  0  0  0  0  0  0  0
   10.6113  -14.3677   21.2343 O   0  0  0  0  0  0  0  0  0  0  0  0
    6.6186  -16.7286   22.9423 O   0  0  0  0  0  0  0  0  0  0  0  0
    6.9163  -15.3853   22.9996 C   0  0  0  0  0  0  0  0  0  0  0  0
    8.3761  -15.0928   22.6349 C   0  0  2  0  0  0  0  0  0  0  0  0
    8.6830  -15.5941   21.3246 N   0  0  0  0  0  0  0  0  0  0  0  0
    9.1855  -15.8065   23.6871 C   0  0  0  0  0  0  0  0  0  0  0  0
    9.8788  -16.7968   23.3475 O   0  0  0  0  0  0  0  0  0  0  0  0
   10.4197  -13.5479   29.5397 N   0  0  0  0  0  0  0  0  0  0  0  0
   10.9636  -14.8818   29.6171 C   0  0  0  0  0  0  0  0  0  0  0  0
   11.5101  -15.1614   30.6966 O   0  0  0  0  0  0  0  0  0  0  0  0
   10.8220  -15.7456   28.4486 C   0  0  0  0  0  0  0  0  0  0  0  0
   10.0985  -15.2357   27.2728 C   0  0  0  0  0  0  0  0  0  0  0  0
    9.9467  -16.1065   26.0842 C   0  0  2  0  0  0  0  0  0  0  0  0
    9.1940  -15.4074   25.0295 N   0  0  0  0  0  0  0  0  0  0  0  0
    9.3834  -17.4380   26.2518 C   0  0  0  0  0  0  0  0  0  0  0  0
   10.2040  -18.5573   26.5030 O   0  0  0  0  0  0  0  0  0  0  0  0
    8.1530  -17.6720   26.1791 O   0  0  0  0  0  0  0  0  0  0  0  0
  2  1  1  6
  3  2  1  0
  4  5  2  0
  4  3  1  0
  6  5  1  0
  7  8  2  0
  7  6  1  0
  8  4  1  0
  9 10  2  0
  9  2  1  0
 11 12  1  0
 13 14  1  0
 13 12  1  1
 14  9  1  0
 15 13  1  0
 16 15  2  0
 18 20  1  0
 18 17  1  0
 19 18  2  0
 22 21  1  1
 21 20  1  0
 22 23  1  0
 23 15  1  0
 24 25  1  0
 24 22  1  0
 26 24  2  0
M  END
$$$$
