HSQ.pdb
     RDKit          3D

 26 26  0  0  1  0  0  0  0  0999 V2000
    7.1693  -17.1614   19.5057 N   0  0  0  0  0  0  0  0  0  0  0  0
    8.5555  -16.7767   19.4899 C   0  0  1  0  0  0  0  0  0  0  0  0
    8.7512  -15.6275   20.4423 C   0  0  0  0  0  0  0  0  0  0  0  0
    8.1781  -14.3794   19.8873 C   0  0  0  0  0  0  0  0  0  0  0  0
    7.4741  -14.2307   18.7172 C   0  0  0  0  0  0  0  0  0  0  0  0
    7.1154  -12.9467   18.5453 N   0  0  0  0  0  0  0  0  0  0  0  0
    7.5949  -12.2756   19.6139 C   0  0  0  0  0  0  0  0  0  0  0  0
    8.2382  -13.1467   20.4250 N   0  0  0  0  0  0  0  0  0  0  0  0
    9.4694  -17.8950   19.7439 C   0  0  0  0  0  0  0  0  0  0  0  0
    9.3264  -18.6199   20.7528 O   0  0  0  0  0  0  0  0  0  0  0  0
   13.2013  -20.6696   18.1975 O   0  0  0  0  0  0  0  0  0  0  0  0
   12.4886  -19.4987   18.0658 C   0  0  0  0  0  0  0  0  0  0  0  0
   11.4407  -19.3233   19.1707 C   0  0  2  0  0  0  0  0  0  0  0  0
   10.5651  -18.2252   18.8712 N   0  0  0  0  0  0  0  0  0  0  0  0
   12.2402  -19.0490   20.4185 C   0  0  0  0  0  0  0  0  0  0  0  0
   12.4347  -17.8568   20.7615 O   0  0  0  0  0  0  0  0  0  0  0  0
   11.1681  -21.2765   25.8182 N   0  0  0  0  0  0  0  0  0  0  0  0
   12.5059  -20.8085   26.0879 C   0  0  0  0  0  0  0  0  0  0  0  0
   12.8672  -20.9128   27.2713 O   0  0  0  0  0  0  0  0  0  0  0  0
   13.2793  -20.2719   24.9718 C   0  0  0  0  0  0  0  0  0  0  0  0
   12.7831  -20.4764   23.6015 C   0  0  0  0  0  0  0  0  0  0  0  0
   13.4967  -19.8372   22.4717 C   0  0  2  0  0  0  0  0  0  0  0  0
   12.7748  -20.0730   21.2104 N   0  0  0  0  0  0  0  0  0  0  0  0
   14.9051  -20.1402   22.2643 C   0  0  0  0  0  0  0  0  0  0  0  0
   15.8795  -19.1209   22.2314 O   0  0  0  0  0  0  0  0  0  0  0  0
   15.3343  -21.3074   22.0986 O   0  0  0  0  0  0  0  0  0  0  0  0
  2  1  1  1
  3  2  1  0
  4  5  2  0
  4  3  1  0
  6  5  1  0
  7  8  2  0
  7  6  1  0
  8  4  1  0
  9 10  2  0
  9  2  1  0
 11 12  1  0
 13 14  1  0
 13 12  1  6
 14  9  1  0
 15 13  1  0
 16 15  2  0
 18 20  1  0
 18 17  1  0
 19 18  2  0
 22 21  1  1
 21 20  1  0
 22 23  1  0
 23 15  1  0
 24 25  1  0
 24 22  1  0
 26 24  2  0
M  END
$$$$
