HSQ.pdb
     RDKit          3D

 26 26  0  0  1  0  0  0  0  0999 V2000
    8.1984  -18.0111   18.0056 N   0  0  0  0  0  0  0  0  0  0  0  0
    9.3264  -17.5568   18.7743 C   0  0  1  0  0  0  0  0  0  0  0  0
   10.2168  -16.7287   17.8868 C   0  0  0  0  0  0  0  0  0  0  0  0
   10.8723  -17.5736   16.8619 C   0  0  0  0  0  0  0  0  0  0  0  0
   12.1917  -17.9519   16.8093 C   0  0  0  0  0  0  0  0  0  0  0  0
   12.4171  -18.7198   15.7293 N   0  0  0  0  0  0  0  0  0  0  0  0
   11.2323  -18.8298   15.0918 C   0  0  0  0  0  0  0  0  0  0  0  0
   10.2985  -18.1341   15.7807 N   0  0  0  0  0  0  0  0  0  0  0  0
    8.9442  -16.8657   20.0098 C   0  0  0  0  0  0  0  0  0  0  0  0
    8.6541  -15.6493   19.9974 O   0  0  0  0  0  0  0  0  0  0  0  0
    7.4941  -18.9242   23.1799 O   0  0  0  0  0  0  0  0  0  0  0  0
    7.2934  -17.5623   23.1467 C   0  0  0  0  0  0  0  0  0  0  0  0
    8.4434  -16.8172   22.4596 C   0  0  2  0  0  0  0  0  0  0  0  0
    8.8789  -17.5240   21.2878 N   0  0  0  0  0  0  0  0  0  0  0  0
    9.5386  -16.7637   23.4936 C   0  0  0  0  0  0  0  0  0  0  0  0
   10.5231  -17.5335   23.3714 O   0  0  0  0  0  0  0  0  0  0  0  0
    9.0598  -13.2884   28.8628 N   0  0  0  0  0  0  0  0  0  0  0  0
   10.1503  -14.1790   29.1771 C   0  0  0  0  0  0  0  0  0  0  0  0
   10.6058  -14.0619   30.3263 O   0  0  0  0  0  0  0  0  0  0  0  0
   10.5982  -15.1026   28.1389 C   0  0  0  0  0  0  0  0  0  0  0  0
    9.9478  -15.0564   26.8194 C   0  0  0  0  0  0  0  0  0  0  0  0
   10.3392  -16.0429   25.7861 C   0  0  2  0  0  0  0  0  0  0  0  0
    9.5005  -15.8880   24.5859 N   0  0  0  0  0  0  0  0  0  0  0  0
   10.3879  -17.4539   26.1395 C   0  0  0  0  0  0  0  0  0  0  0  0
    9.2323  -18.2617   26.1021 O   0  0  0  0  0  0  0  0  0  0  0  0
   11.4423  -18.0307   26.4994 O   0  0  0  0  0  0  0  0  0  0  0  0
  2  1  1  6
  3  2  1  0
  4  5  2  0
  4  3  1  0
  6  5  1  0
  7  8  2  0
  7  6  1  0
  8  4  1  0
  9 10  2  0
  9  2  1  0
 11 12  1  0
 13 14  1  0
 13 12  1  1
 14  9  1  0
 15 13  1  0
 16 15  2  0
 18 20  1  0
 18 17  1  0
 19 18  2  0
 22 21  1  1
 21 20  1  0
 22 23  1  0
 23 15  1  0
 24 25  1  0
 24 22  1  0
 26 24  2  0
M  END
$$$$
