SVI.pdb
     RDKit          3D

 22 21  0  0  1  0  0  0  0  0999 V2000
   11.9055  -18.8193   21.2085 O   0  0  0  0  0  0  0  0  0  0  0  0
   12.1081  -17.5729   20.6436 C   0  0  0  0  0  0  0  0  0  0  0  0
   10.9837  -17.2967   19.6695 C   0  0  2  0  0  0  0  0  0  0  0  0
   11.4915  -16.8657   18.3876 N   0  0  0  0  0  0  0  0  0  0  0  0
   10.1042  -16.2299   20.2112 C   0  0  0  0  0  0  0  0  0  0  0  0
    9.7152  -15.2622   19.4906 O   0  0  0  0  0  0  0  0  0  0  0  0
    7.7888  -15.5566   19.6997 C   0  0  0  0  0  0  0  0  0  0  0  0
    7.3676  -15.4293   21.1484 C   0  0  1  0  0  0  0  0  0  0  0  0
    6.7244  -16.7548   21.5429 C   0  0  0  0  0  0  0  0  0  0  0  0
    8.6287  -15.3162   22.0163 C   0  0  2  0  0  0  0  0  0  0  0  0
    9.6473  -16.2271   21.5605 N   0  0  0  0  0  0  0  0  0  0  0  0
    8.2934  -15.5512   23.4605 C   0  0  0  0  0  0  0  0  0  0  0  0
    8.6817  -16.5924   24.0229 O   0  0  0  0  0  0  0  0  0  0  0  0
    6.7902  -11.2743   27.7607 C   0  0  0  0  0  0  0  0  0  0  0  0
    7.4173  -12.6343   27.4089 C   0  0  0  0  0  0  0  0  0  0  0  0
    7.0861  -13.0063   25.9870 C   0  0  2  0  0  0  0  0  0  0  0  0
    5.5808  -13.0823   25.8787 C   0  0  0  0  0  0  0  0  0  0  0  0
    7.8227  -14.2069   25.5673 C   0  0  2  0  0  0  0  0  0  0  0  0
    7.5514  -14.6335   24.2100 N   0  0  0  0  0  0  0  0  0  0  0  0
    7.5423  -15.3743   26.4252 C   0  0  0  0  0  0  0  0  0  0  0  0
    7.9790  -15.5331   27.5869 O   0  0  0  0  0  0  0  0  0  0  0  0
    6.7296  -16.4401   25.9829 O   0  0  0  0  0  0  0  0  0  0  0  0
  2  1  1  0
  3  4  1  6
  3  2  1  0
  5  3  1  0
  6  5  2  0
  8  7  1  6
  8 10  1  0
  9  8  1  0
 10 11  1  6
 10 12  1  0
 11  5  1  0
 12 19  1  0
 13 12  2  0
 15 14  1  0
 16 15  1  0
 16 17  1  1
 18 16  1  0
 18 19  1  6
 20 18  1  0
 20 22  1  0
 21 20  2  0
M  END
$$$$
