SVI.pdb
     RDKit          3D

 22 21  0  0  1  0  0  0  0  0999 V2000
   12.0981  -18.5006   22.7002 O   0  0  0  0  0  0  0  0  0  0  0  0
   11.6093  -18.7032   21.4221 C   0  0  0  0  0  0  0  0  0  0  0  0
   11.7927  -17.4282   20.6282 C   0  0  2  0  0  0  0  0  0  0  0  0
   13.1841  -17.0458   20.5600 N   0  0  0  0  0  0  0  0  0  0  0  0
   11.0318  -16.3263   21.2698 C   0  0  0  0  0  0  0  0  0  0  0  0
   11.6141  -15.4211   21.9396 O   0  0  0  0  0  0  0  0  0  0  0  0
    6.6168  -15.9883   21.3417 C   0  0  0  0  0  0  0  0  0  0  0  0
    7.5771  -14.8684   21.0012 C   0  0  1  0  0  0  0  0  0  0  0  0
    7.0016  -13.5904   21.6026 C   0  0  0  0  0  0  0  0  0  0  0  0
    8.8958  -15.1105   21.7489 C   0  0  2  0  0  0  0  0  0  0  0  0
    9.6145  -16.2184   21.1738 N   0  0  0  0  0  0  0  0  0  0  0  0
    8.6363  -15.3286   23.2113 C   0  0  0  0  0  0  0  0  0  0  0  0
    8.9941  -16.3931   23.7496 O   0  0  0  0  0  0  0  0  0  0  0  0
    6.9064  -10.8434   26.1785 C   0  0  0  0  0  0  0  0  0  0  0  0
    7.7980  -12.0730   25.9342 C   0  0  0  0  0  0  0  0  0  0  0  0
    6.9698  -13.3310   25.9748 C   0  0  2  0  0  0  0  0  0  0  0  0
    6.4657  -13.4946   27.3900 C   0  0  0  0  0  0  0  0  0  0  0  0
    7.7110  -14.4723   25.4199 C   0  0  2  0  0  0  0  0  0  0  0  0
    7.9992  -14.3695   24.0042 N   0  0  0  0  0  0  0  0  0  0  0  0
    6.9999  -15.7528   25.5990 C   0  0  0  0  0  0  0  0  0  0  0  0
    6.0236  -16.1337   24.9154 O   0  0  0  0  0  0  0  0  0  0  0  0
    7.3821  -16.6795   26.5925 O   0  0  0  0  0  0  0  0  0  0  0  0
  2  1  1  0
  3  4  1  1
  3  2  1  0
  5  3  1  0
  6  5  2  0
  8  7  1  1
  8 10  1  0
  9  8  1  0
 10 11  1  6
 10 12  1  0
 11  5  1  0
 12 19  1  0
 13 12  2  0
 15 14  1  0
 16 15  1  0
 16 17  1  1
 18 16  1  0
 18 19  1  6
 20 18  1  0
 20 22  1  0
 21 20  2  0
M  END
$$$$
