SVI.pdb
     RDKit          3D

 22 21  0  0  1  0  0  0  0  0999 V2000
   12.2149  -18.7984   21.9120 O   0  0  0  0  0  0  0  0  0  0  0  0
   11.3438  -18.7992   20.8374 C   0  0  0  0  0  0  0  0  0  0  0  0
   11.2706  -17.3963   20.2753 C   0  0  2  0  0  0  0  0  0  0  0  0
   12.5556  -16.9593   19.7807 N   0  0  0  0  0  0  0  0  0  0  0  0
   10.8288  -16.4555   21.3358 C   0  0  0  0  0  0  0  0  0  0  0  0
   11.6427  -15.6655   21.9020 O   0  0  0  0  0  0  0  0  0  0  0  0
    7.2529  -14.3760   24.0508 C   0  0  0  0  0  0  0  0  0  0  0  0
    7.6146  -15.1749   22.8165 C   0  0  1  0  0  0  0  0  0  0  0  0
    7.5387  -14.2194   21.6301 C   0  0  0  0  0  0  0  0  0  0  0  0
    9.0909  -15.5842   22.9140 C   0  0  2  0  0  0  0  0  0  0  0  0
    9.4768  -16.3825   21.7789 N   0  0  0  0  0  0  0  0  0  0  0  0
    9.3498  -16.3080   24.2033 C   0  0  0  0  0  0  0  0  0  0  0  0
    9.1741  -17.5394   24.2660 O   0  0  0  0  0  0  0  0  0  0  0  0
    9.8733  -13.4226   29.1689 C   0  0  0  0  0  0  0  0  0  0  0  0
    9.4151  -14.3794   28.0548 C   0  0  0  0  0  0  0  0  0  0  0  0
   10.5437  -15.2968   27.6617 C   0  0  2  0  0  0  0  0  0  0  0  0
   11.7307  -14.4291   27.3130 C   0  0  0  0  0  0  0  0  0  0  0  0
   10.1173  -16.2496   26.6272 C   0  0  2  0  0  0  0  0  0  0  0  0
    9.7868  -15.6442   25.3535 N   0  0  0  0  0  0  0  0  0  0  0  0
    8.9305  -17.0297   27.0277 C   0  0  0  0  0  0  0  0  0  0  0  0
    8.9153  -17.9062   27.9206 O   0  0  0  0  0  0  0  0  0  0  0  0
    7.6758  -16.8387   26.4104 O   0  0  0  0  0  0  0  0  0  0  0  0
  2  1  1  0
  3  4  1  1
  3  2  1  0
  5  3  1  0
  6  5  2  0
  8  7  1  1
  8 10  1  0
  9  8  1  0
 10 11  1  6
 10 12  1  0
 11  5  1  0
 12 19  1  0
 13 12  2  0
 15 14  1  0
 16 15  1  0
 16 17  1  6
 18 16  1  0
 18 19  1  6
 20 18  1  0
 20 22  1  0
 21 20  2  0
M  END
$$$$
