SVI.pdb
     RDKit          3D

 22 21  0  0  1  0  0  0  0  0999 V2000
   13.1774  -19.4925   21.4090 O   0  0  0  0  0  0  0  0  0  0  0  0
   12.5389  -18.3916   21.9511 C   0  0  0  0  0  0  0  0  0  0  0  0
   12.0018  -17.5409   20.8210 C   0  0  2  0  0  0  0  0  0  0  0  0
   13.0718  -16.9229   20.0725 N   0  0  0  0  0  0  0  0  0  0  0  0
   11.1319  -16.4706   21.3711 C   0  0  0  0  0  0  0  0  0  0  0  0
   11.6193  -15.4226   21.8918 O   0  0  0  0  0  0  0  0  0  0  0  0
    6.7456  -16.5853   21.2247 C   0  0  0  0  0  0  0  0  0  0  0  0
    7.6021  -15.3631   20.9701 C   0  0  1  0  0  0  0  0  0  0  0  0
    6.8469  -14.1649   21.5359 C   0  0  0  0  0  0  0  0  0  0  0  0
    8.8779  -15.4749   21.8164 C   0  0  2  0  0  0  0  0  0  0  0  0
    9.7099  -16.5536   21.3484 N   0  0  0  0  0  0  0  0  0  0  0  0
    8.5310  -15.6436   23.2672 C   0  0  0  0  0  0  0  0  0  0  0  0
    8.8066  -16.7103   23.8478 O   0  0  0  0  0  0  0  0  0  0  0  0
    6.9908  -10.9634   26.0553 C   0  0  0  0  0  0  0  0  0  0  0  0
    7.8005  -12.2409   25.7742 C   0  0  0  0  0  0  0  0  0  0  0  0
    6.9203  -13.4553   25.9178 C   0  0  2  0  0  0  0  0  0  0  0  0
    6.4513  -13.5062   27.3534 C   0  0  0  0  0  0  0  0  0  0  0  0
    7.5950  -14.6616   25.4182 C   0  0  2  0  0  0  0  0  0  0  0  0
    7.9012  -14.6352   24.0028 N   0  0  0  0  0  0  0  0  0  0  0  0
    6.8053  -15.8880   25.6416 C   0  0  0  0  0  0  0  0  0  0  0  0
    5.8009  -16.2262   24.9766 O   0  0  0  0  0  0  0  0  0  0  0  0
    7.1364  -16.8065   26.6607 O   0  0  0  0  0  0  0  0  0  0  0  0
  2  1  1  0
  3  4  1  1
  3  2  1  0
  5  3  1  0
  6  5  2  0
  8  7  1  1
  8 10  1  0
  9  8  1  0
 10 11  1  6
 10 12  1  0
 11  5  1  0
 12 19  1  0
 13 12  2  0
 15 14  1  0
 16 15  1  0
 16 17  1  1
 18 16  1  0
 18 19  1  6
 20 18  1  0
 20 22  1  0
 21 20  2  0
M  END
$$$$
