SVI.pdb
     RDKit          3D

 22 21  0  0  1  0  0  0  0  0999 V2000
    7.5590  -19.9488   21.4039 O   0  0  0  0  0  0  0  0  0  0  0  0
    8.5408  -18.9743   21.3962 C   0  0  0  0  0  0  0  0  0  0  0  0
    8.1771  -17.9320   20.3614 C   0  0  2  0  0  0  0  0  0  0  0  0
    8.6367  -18.3129   19.0460 N   0  0  0  0  0  0  0  0  0  0  0  0
    8.7999  -16.6327   20.7206 C   0  0  0  0  0  0  0  0  0  0  0  0
   10.0493  -16.4452   20.6158 O   0  0  0  0  0  0  0  0  0  0  0  0
    7.6314  -13.4675   19.3407 C   0  0  0  0  0  0  0  0  0  0  0  0
    7.8405  -13.1184   20.7991 C   0  0  1  0  0  0  0  0  0  0  0  0
    6.4695  -13.1553   21.4664 C   0  0  0  0  0  0  0  0  0  0  0  0
    8.6445  -14.2459   21.4616 C   0  0  2  0  0  0  0  0  0  0  0  0
    8.0403  -15.5272   21.2005 N   0  0  0  0  0  0  0  0  0  0  0  0
    8.7795  -13.9966   22.9357 C   0  0  0  0  0  0  0  0  0  0  0  0
    9.1197  -12.8698   23.3426 O   0  0  0  0  0  0  0  0  0  0  0  0
    6.3208  -11.6732   25.8989 C   0  0  0  0  0  0  0  0  0  0  0  0
    7.5371  -12.5195   25.4852 C   0  0  0  0  0  0  0  0  0  0  0  0
    7.2549  -13.9813   25.7160 C   0  0  2  0  0  0  0  0  0  0  0  0
    6.7982  -14.1327   27.1485 C   0  0  0  0  0  0  0  0  0  0  0  0
    8.3986  -14.8124   25.3141 C   0  0  2  0  0  0  0  0  0  0  0  0
    8.5346  -14.9946   23.8837 N   0  0  0  0  0  0  0  0  0  0  0  0
    8.3477  -16.1680   25.8946 C   0  0  0  0  0  0  0  0  0  0  0  0
    7.7077  -17.1306   25.4157 O   0  0  0  0  0  0  0  0  0  0  0  0
    9.0436  -16.4931   27.0787 O   0  0  0  0  0  0  0  0  0  0  0  0
  2  1  1  0
  3  4  1  6
  3  2  1  0
  5  3  1  0
  6  5  2  0
  8  7  1  6
  8 10  1  0
  9  8  1  0
 10 11  1  1
 10 12  1  0
 11  5  1  0
 12 19  1  0
 13 12  2  0
 15 14  1  0
 16 15  1  0
 16 17  1  1
 18 16  1  0
 18 19  1  6
 20 18  1  0
 20 22  1  0
 21 20  2  0
M  END
$$$$
