SVI.pdb
     RDKit          3D

 22 21  0  0  1  0  0  0  0  0999 V2000
    9.2541  -15.2056   18.8935 O   0  0  0  0  0  0  0  0  0  0  0  0
    9.6642  -16.4505   19.3358 C   0  0  0  0  0  0  0  0  0  0  0  0
    8.4396  -17.3119   19.5541 C   0  0  2  0  0  0  0  0  0  0  0  0
    7.4483  -17.0879   18.5275 N   0  0  0  0  0  0  0  0  0  0  0  0
    7.8338  -16.9943   20.8720 C   0  0  0  0  0  0  0  0  0  0  0  0
    6.9229  -16.1204   20.9894 O   0  0  0  0  0  0  0  0  0  0  0  0
    6.6122  -18.4300   25.3742 C   0  0  0  0  0  0  0  0  0  0  0  0
    7.2955  -18.7350   24.0580 C   0  0  1  0  0  0  0  0  0  0  0  0
    6.2835  -19.4795   23.1933 C   0  0  0  0  0  0  0  0  0  0  0  0
    7.5592  -17.4119   23.3256 C   0  0  2  0  0  0  0  0  0  0  0  0
    8.2339  -17.6449   22.0745 N   0  0  0  0  0  0  0  0  0  0  0  0
    8.3408  -16.4756   24.2008 C   0  0  0  0  0  0  0  0  0  0  0  0
    9.5857  -16.5074   24.1819 O   0  0  0  0  0  0  0  0  0  0  0  0
    5.7055  -11.9314   26.1543 C   0  0  0  0  0  0  0  0  0  0  0  0
    6.7955  -12.8074   25.5130 C   0  0  0  0  0  0  0  0  0  0  0  0
    7.4766  -13.6422   26.5661 C   0  0  2  0  0  0  0  0  0  0  0  0
    8.1168  -12.6922   27.5516 C   0  0  0  0  0  0  0  0  0  0  0  0
    8.3710  -14.6373   25.9579 C   0  0  2  0  0  0  0  0  0  0  0  0
    7.7168  -15.5558   25.0488 N   0  0  0  0  0  0  0  0  0  0  0  0
    9.0549  -15.4754   26.9616 C   0  0  0  0  0  0  0  0  0  0  0  0
    8.5572  -16.4795   27.5179 O   0  0  0  0  0  0  0  0  0  0  0  0
   10.3719  -15.1966   27.3856 O   0  0  0  0  0  0  0  0  0  0  0  0
  2  1  1  0
  3  4  1  6
  3  2  1  0
  5  3  1  0
  6  5  2  0
  8  7  1  1
  8 10  1  0
  9  8  1  0
 10 11  1  6
 10 12  1  0
 11  5  1  0
 12 19  1  0
 13 12  2  0
 15 14  1  0
 16 15  1  0
 16 17  1  1
 18 16  1  0
 18 19  1  6
 20 18  1  0
 20 22  1  0
 21 20  2  0
M  END
$$$$
