SVI.pdb
     RDKit          3D

 22 21  0  0  1  0  0  0  0  0999 V2000
    8.6701  -16.1296   17.8356 O   0  0  0  0  0  0  0  0  0  0  0  0
    7.6564  -16.0763   18.7754 C   0  0  0  0  0  0  0  0  0  0  0  0
    7.6388  -17.3819   19.5399 C   0  0  2  0  0  0  0  0  0  0  0  0
    6.8467  -18.3801   18.8594 N   0  0  0  0  0  0  0  0  0  0  0  0
    7.0618  -17.1624   20.8904 C   0  0  0  0  0  0  0  0  0  0  0  0
    5.8193  -16.9745   21.0577 O   0  0  0  0  0  0  0  0  0  0  0  0
    6.2327  -19.1132   23.3064 C   0  0  0  0  0  0  0  0  0  0  0  0
    7.0750  -18.1798   24.1499 C   0  0  1  0  0  0  0  0  0  0  0  0
    8.4563  -18.8150   24.2722 C   0  0  0  0  0  0  0  0  0  0  0  0
    7.2953  -16.8777   23.3672 C   0  0  2  0  0  0  0  0  0  0  0  0
    7.8601  -17.1493   22.0703 N   0  0  0  0  0  0  0  0  0  0  0  0
    8.1601  -15.9346   24.1522 C   0  0  0  0  0  0  0  0  0  0  0  0
    9.3986  -15.9885   24.0330 O   0  0  0  0  0  0  0  0  0  0  0  0
    5.8651  -11.3096   26.8110 C   0  0  0  0  0  0  0  0  0  0  0  0
    6.4294  -12.7285   26.6240 C   0  0  0  0  0  0  0  0  0  0  0  0
    7.7212  -12.6755   25.8504 C   0  0  2  0  0  0  0  0  0  0  0  0
    7.4250  -12.0220   24.5204 C   0  0  0  0  0  0  0  0  0  0  0  0
    8.3578  -13.9987   25.7895 C   0  0  2  0  0  0  0  0  0  0  0  0
    7.6216  -14.9841   25.0246 N   0  0  0  0  0  0  0  0  0  0  0  0
    8.5655  -14.5914   27.1248 C   0  0  0  0  0  0  0  0  0  0  0  0
    7.9638  -15.5957   27.5660 O   0  0  0  0  0  0  0  0  0  0  0  0
    9.4938  -14.0493   28.0393 O   0  0  0  0  0  0  0  0  0  0  0  0
  2  1  1  0
  3  4  1  6
  3  2  1  0
  5  3  1  0
  6  5  2  0
  8  7  1  6
  8 10  1  0
  9  8  1  0
 10 11  1  6
 10 12  1  0
 11  5  1  0
 12 19  1  0
 13 12  2  0
 15 14  1  0
 16 15  1  0
 16 17  1  6
 18 16  1  0
 18 19  1  6
 20 18  1  0
 20 22  1  0
 21 20  2  0
M  END
$$$$
