SVI.pdb
     RDKit          3D

 22 21  0  0  1  0  0  0  0  0999 V2000
   11.5197  -18.5873   22.4260 O   0  0  0  0  0  0  0  0  0  0  0  0
   12.3652  -18.2462   21.3857 C   0  0  0  0  0  0  0  0  0  0  0  0
   11.5358  -17.6664   20.2608 C   0  0  2  0  0  0  0  0  0  0  0  0
   12.3620  -17.2894   19.1374 N   0  0  0  0  0  0  0  0  0  0  0  0
   10.8150  -16.4606   20.7417 C   0  0  0  0  0  0  0  0  0  0  0  0
   11.3869  -15.3315   20.8142 O   0  0  0  0  0  0  0  0  0  0  0  0
    6.4546  -16.1508   21.4170 C   0  0  0  0  0  0  0  0  0  0  0  0
    7.4418  -15.1087   20.9356 C   0  0  1  0  0  0  0  0  0  0  0  0
    6.9363  -13.7563   21.4272 C   0  0  0  0  0  0  0  0  0  0  0  0
    8.7778  -15.3296   21.6587 C   0  0  2  0  0  0  0  0  0  0  0  0
    9.4499  -16.4966   21.1475 N   0  0  0  0  0  0  0  0  0  0  0  0
    8.5608  -15.4305   23.1407 C   0  0  0  0  0  0  0  0  0  0  0  0
    8.9954  -16.4183   23.7624 O   0  0  0  0  0  0  0  0  0  0  0  0
    7.0393  -11.2244   27.5150 C   0  0  0  0  0  0  0  0  0  0  0  0
    7.6239  -12.5978   27.1428 C   0  0  0  0  0  0  0  0  0  0  0  0
    7.3381  -12.9089   25.6966 C   0  0  2  0  0  0  0  0  0  0  0  0
    5.8369  -12.9749   25.5368 C   0  0  0  0  0  0  0  0  0  0  0  0
    8.0852  -14.0935   25.2510 C   0  0  2  0  0  0  0  0  0  0  0  0
    7.8798  -14.4445   23.8609 N   0  0  0  0  0  0  0  0  0  0  0  0
    7.7520  -15.3016   26.0300 C   0  0  0  0  0  0  0  0  0  0  0  0
    8.2722  -15.6171   27.1233 O   0  0  0  0  0  0  0  0  0  0  0  0
    6.7848  -16.2272   25.5833 O   0  0  0  0  0  0  0  0  0  0  0  0
  2  1  1  0
  3  4  1  6
  3  2  1  0
  5  3  1  0
  6  5  2  0
  8  7  1  1
  8 10  1  0
  9  8  1  0
 10 11  1  6
 10 12  1  0
 11  5  1  0
 12 19  1  0
 13 12  2  0
 15 14  1  0
 16 15  1  0
 16 17  1  1
 18 16  1  0
 18 19  1  6
 20 18  1  0
 20 22  1  0
 21 20  2  0
M  END
$$$$
