SVI.pdb
     RDKit          3D

 22 21  0  0  1  0  0  0  0  0999 V2000
    6.8494  -18.8730   24.3604 O   0  0  0  0  0  0  0  0  0  0  0  0
    5.7226  -18.4005   23.7118 C   0  0  0  0  0  0  0  0  0  0  0  0
    6.0203  -18.3122   22.2310 C   0  0  2  0  0  0  0  0  0  0  0  0
    6.5218  -19.5664   21.7189 N   0  0  0  0  0  0  0  0  0  0  0  0
    7.0413  -17.2618   21.9883 C   0  0  0  0  0  0  0  0  0  0  0  0
    8.2544  -17.5554   21.7660 O   0  0  0  0  0  0  0  0  0  0  0  0
    8.1192  -12.5797   20.8352 C   0  0  0  0  0  0  0  0  0  0  0  0
    7.0631  -13.6490   21.0184 C   0  0  1  0  0  0  0  0  0  0  0  0
    6.6618  -14.1215   19.6249 C   0  0  0  0  0  0  0  0  0  0  0  0
    7.7122  -14.8680   21.6887 C   0  0  2  0  0  0  0  0  0  0  0  0
    6.7250  -15.8727   21.9899 N   0  0  0  0  0  0  0  0  0  0  0  0
    8.4601  -14.4512   22.9217 C   0  0  0  0  0  0  0  0  0  0  0  0
    9.5155  -13.7990   22.8126 O   0  0  0  0  0  0  0  0  0  0  0  0
    6.0668  -11.6872   26.3240 C   0  0  0  0  0  0  0  0  0  0  0  0
    7.0812  -12.4590   25.4626 C   0  0  0  0  0  0  0  0  0  0  0  0
    7.7806  -13.5026   26.2944 C   0  0  2  0  0  0  0  0  0  0  0  0
    8.4869  -12.7840   27.4206 C   0  0  0  0  0  0  0  0  0  0  0  0
    8.6209  -14.3716   25.4585 C   0  0  2  0  0  0  0  0  0  0  0  0
    8.0118  -14.7713   24.2067 N   0  0  0  0  0  0  0  0  0  0  0  0
    9.0031  -15.6216   26.1433 C   0  0  0  0  0  0  0  0  0  0  0  0
    8.4725  -16.7379   25.9487 O   0  0  0  0  0  0  0  0  0  0  0  0
   10.0350  -15.6531   27.1056 O   0  0  0  0  0  0  0  0  0  0  0  0
  2  1  1  0
  3  4  1  1
  3  2  1  0
  5  3  1  0
  6  5  2  0
  8  7  1  6
  8 10  1  0
  9  8  1  0
 10 11  1  1
 10 12  1  0
 11  5  1  0
 12 19  1  0
 13 12  2  0
 15 14  1  0
 16 15  1  0
 16 17  1  1
 18 16  1  0
 18 19  1  6
 20 18  1  0
 20 22  1  0
 21 20  2  0
M  END
$$$$
