SVI.pdb
     RDKit          3D

 22 21  0  0  1  0  0  0  0  0999 V2000
   14.1064  -16.7126   19.8850 O   0  0  0  0  0  0  0  0  0  0  0  0
   13.1223  -16.1536   20.6802 C   0  0  0  0  0  0  0  0  0  0  0  0
   11.8168  -16.8673   20.4048 C   0  0  2  0  0  0  0  0  0  0  0  0
   11.2653  -16.4819   19.1265 N   0  0  0  0  0  0  0  0  0  0  0  0
   10.8312  -16.5325   21.4639 C   0  0  0  0  0  0  0  0  0  0  0  0
   10.2020  -15.4319   21.4595 O   0  0  0  0  0  0  0  0  0  0  0  0
    7.8220  -18.4858   22.5344 C   0  0  0  0  0  0  0  0  0  0  0  0
    8.6038  -18.2371   23.8068 C   0  0  1  0  0  0  0  0  0  0  0  0
    9.4835  -19.4619   24.0352 C   0  0  0  0  0  0  0  0  0  0  0  0
    9.5792  -17.0770   23.5629 C   0  0  2  0  0  0  0  0  0  0  0  0
   10.5342  -17.4177   22.5398 N   0  0  0  0  0  0  0  0  0  0  0  0
   10.2641  -16.6908   24.8416 C   0  0  0  0  0  0  0  0  0  0  0  0
   11.4400  -17.0474   25.0441 O   0  0  0  0  0  0  0  0  0  0  0  0
    8.4159  -12.1582   27.2792 C   0  0  0  0  0  0  0  0  0  0  0  0
    9.3699  -13.2285   26.7214 C   0  0  0  0  0  0  0  0  0  0  0  0
    9.5140  -14.3595   27.7064 C   0  0  2  0  0  0  0  0  0  0  0  0
   10.1640  -13.7964   28.9490 C   0  0  0  0  0  0  0  0  0  0  0  0
   10.1877  -15.5134   27.0945 C   0  0  2  0  0  0  0  0  0  0  0  0
    9.6241  -15.9354   25.8287 N   0  0  0  0  0  0  0  0  0  0  0  0
   10.1748  -16.7056   27.9639 C   0  0  0  0  0  0  0  0  0  0  0  0
   11.0519  -16.9860   28.8110 O   0  0  0  0  0  0  0  0  0  0  0  0
    9.1325  -17.6553   27.9031 O   0  0  0  0  0  0  0  0  0  0  0  0
  2  1  1  0
  3  4  1  6
  3  2  1  0
  5  3  1  0
  6  5  2  0
  8  7  1  6
  8 10  1  0
  9  8  1  0
 10 11  1  6
 10 12  1  0
 11  5  1  0
 12 19  1  0
 13 12  2  0
 15 14  1  0
 16 15  1  0
 16 17  1  1
 18 16  1  0
 18 19  1  6
 20 18  1  0
 20 22  1  0
 21 20  2  0
M  END
$$$$
