SVI.pdb
     RDKit          3D

 22 21  0  0  1  0  0  0  0  0999 V2000
    9.5300  -14.1370   19.4058 O   0  0  0  0  0  0  0  0  0  0  0  0
    9.5066  -15.5199   19.3804 C   0  0  0  0  0  0  0  0  0  0  0  0
    8.0645  -15.9772   19.3525 C   0  0  2  0  0  0  0  0  0  0  0  0
    7.2906  -15.2209   18.3954 N   0  0  0  0  0  0  0  0  0  0  0  0
    7.4577  -15.7987   20.6959 C   0  0  0  0  0  0  0  0  0  0  0  0
    6.6969  -14.8182   20.9546 O   0  0  0  0  0  0  0  0  0  0  0  0
    7.3680  -18.9935   22.9006 C   0  0  0  0  0  0  0  0  0  0  0  0
    6.6223  -17.8939   23.6268 C   0  0  1  0  0  0  0  0  0  0  0  0
    7.1124  -17.9029   25.0711 C   0  0  0  0  0  0  0  0  0  0  0  0
    7.0683  -16.5406   23.0556 C   0  0  2  0  0  0  0  0  0  0  0  0
    7.6901  -16.7086   21.7672 N   0  0  0  0  0  0  0  0  0  0  0  0
    7.9859  -15.8430   24.0173 C   0  0  0  0  0  0  0  0  0  0  0  0
    9.2188  -15.9747   23.9001 O   0  0  0  0  0  0  0  0  0  0  0  0
    5.8857  -11.7052   27.5385 C   0  0  0  0  0  0  0  0  0  0  0  0
    6.3986  -13.0633   27.0293 C   0  0  0  0  0  0  0  0  0  0  0  0
    7.6375  -12.8701   26.1939 C   0  0  2  0  0  0  0  0  0  0  0  0
    7.2494  -12.0333   24.9970 C   0  0  0  0  0  0  0  0  0  0  0  0
    8.2834  -14.1565   25.8974 C   0  0  2  0  0  0  0  0  0  0  0  0
    7.5035  -15.0394   25.0546 N   0  0  0  0  0  0  0  0  0  0  0  0
    8.5980  -14.9284   27.1151 C   0  0  0  0  0  0  0  0  0  0  0  0
    8.0755  -16.0215   27.4273 O   0  0  0  0  0  0  0  0  0  0  0  0
    9.5481  -14.4742   28.0548 O   0  0  0  0  0  0  0  0  0  0  0  0
  2  1  1  0
  3  4  1  6
  3  2  1  0
  5  3  1  0
  6  5  2  0
  8  7  1  6
  8 10  1  0
  9  8  1  0
 10 11  1  6
 10 12  1  0
 11  5  1  0
 12 19  1  0
 13 12  2  0
 15 14  1  0
 16 15  1  0
 16 17  1  6
 18 16  1  0
 18 19  1  6
 20 18  1  0
 20 22  1  0
 21 20  2  0
M  END
$$$$
