SVI.pdb
     RDKit          3D

 22 21  0  0  1  0  0  0  0  0999 V2000
    9.4049  -11.8945   18.1531 O   0  0  0  0  0  0  0  0  0  0  0  0
    8.7319  -12.5008   19.1986 C   0  0  0  0  0  0  0  0  0  0  0  0
    8.6552  -13.9869   18.9252 C   0  0  2  0  0  0  0  0  0  0  0  0
    7.5869  -14.2985   18.0042 N   0  0  0  0  0  0  0  0  0  0  0  0
    8.4108  -14.7167   20.1951 C   0  0  0  0  0  0  0  0  0  0  0  0
    7.2566  -14.7708   20.7168 O   0  0  0  0  0  0  0  0  0  0  0  0
    9.7473  -18.1654   23.4227 C   0  0  0  0  0  0  0  0  0  0  0  0
   10.0546  -17.4160   22.1436 C   0  0  1  0  0  0  0  0  0  0  0  0
    9.5672  -18.2863   20.9899 C   0  0  0  0  0  0  0  0  0  0  0  0
    9.1833  -16.1530   22.0952 C   0  0  2  0  0  0  0  0  0  0  0  0
    9.4471  -15.3945   20.8994 N   0  0  0  0  0  0  0  0  0  0  0  0
    9.3969  -15.3218   23.3268 C   0  0  0  0  0  0  0  0  0  0  0  0
   10.4392  -14.6504   23.4452 O   0  0  0  0  0  0  0  0  0  0  0  0
    6.4003  -11.7382   27.1449 C   0  0  0  0  0  0  0  0  0  0  0  0
    7.5594  -12.7412   27.0139 C   0  0  0  0  0  0  0  0  0  0  0  0
    7.3731  -13.5919   25.7845 C   0  0  2  0  0  0  0  0  0  0  0  0
    6.0400  -14.2911   25.9165 C   0  0  0  0  0  0  0  0  0  0  0  0
    8.5363  -14.4617   25.5599 C   0  0  2  0  0  0  0  0  0  0  0  0
    8.4579  -15.2710   24.3612 N   0  0  0  0  0  0  0  0  0  0  0  0
    8.7651  -15.4032   26.6730 C   0  0  0  0  0  0  0  0  0  0  0  0
    9.1057  -15.0760   27.8316 O   0  0  0  0  0  0  0  0  0  0  0  0
    8.6110  -16.7963   26.5079 O   0  0  0  0  0  0  0  0  0  0  0  0
  2  1  1  0
  3  4  1  6
  3  2  1  0
  5  3  1  0
  6  5  2  0
  8  7  1  1
  8 10  1  0
  9  8  1  0
 10 11  1  6
 10 12  1  0
 11  5  1  0
 12 19  1  0
 13 12  2  0
 15 14  1  0
 16 15  1  0
 16 17  1  1
 18 16  1  0
 18 19  1  6
 20 18  1  0
 20 22  1  0
 21 20  2  0
M  END
$$$$
