SVI.pdb
     RDKit          3D

 22 21  0  0  1  0  0  0  0  0999 V2000
   11.8406  -18.2885   22.6751 O   0  0  0  0  0  0  0  0  0  0  0  0
   12.8306  -17.6474   21.9522 C   0  0  0  0  0  0  0  0  0  0  0  0
   12.1958  -16.9818   20.7508 C   0  0  2  0  0  0  0  0  0  0  0  0
   13.1792  -16.2867   19.9530 N   0  0  0  0  0  0  0  0  0  0  0  0
   11.1769  -16.0010   21.2033 C   0  0  0  0  0  0  0  0  0  0  0  0
   11.5079  -14.8760   21.6848 O   0  0  0  0  0  0  0  0  0  0  0  0
    6.8525  -16.8189   21.3208 C   0  0  0  0  0  0  0  0  0  0  0  0
    7.4606  -15.4984   20.8980 C   0  0  1  0  0  0  0  0  0  0  0  0
    6.5597  -14.3974   21.4480 C   0  0  0  0  0  0  0  0  0  0  0  0
    8.8028  -15.3237   21.6221 C   0  0  2  0  0  0  0  0  0  0  0  0
    9.7782  -16.2601   21.1254 N   0  0  0  0  0  0  0  0  0  0  0  0
    8.6196  -15.4624   23.1056 C   0  0  0  0  0  0  0  0  0  0  0  0
    9.1659  -16.4046   23.7096 O   0  0  0  0  0  0  0  0  0  0  0  0
    6.4749  -10.9845   25.7897 C   0  0  0  0  0  0  0  0  0  0  0  0
    7.4772  -12.1180   25.5117 C   0  0  0  0  0  0  0  0  0  0  0  0
    6.8397  -13.4544   25.7901 C   0  0  2  0  0  0  0  0  0  0  0  0
    6.5087  -13.4989   27.2639 C   0  0  0  0  0  0  0  0  0  0  0  0
    7.6720  -14.5550   25.2842 C   0  0  2  0  0  0  0  0  0  0  0  0
    7.8482  -14.5621   23.8465 N   0  0  0  0  0  0  0  0  0  0  0  0
    7.1327  -15.8830   25.6351 C   0  0  0  0  0  0  0  0  0  0  0  0
    6.1417  -16.4215   25.0934 O   0  0  0  0  0  0  0  0  0  0  0  0
    7.7163  -16.6755   26.6466 O   0  0  0  0  0  0  0  0  0  0  0  0
  2  1  1  0
  3  4  1  1
  3  2  1  0
  5  3  1  0
  6  5  2  0
  8  7  1  1
  8 10  1  0
  9  8  1  0
 10 11  1  6
 10 12  1  0
 11  5  1  0
 12 19  1  0
 13 12  2  0
 15 14  1  0
 16 15  1  0
 16 17  1  1
 18 16  1  0
 18 19  1  6
 20 18  1  0
 20 22  1  0
 21 20  2  0
M  END
$$$$
