YTT.pdb
     RDKit          3D

 27 27  0  0  1  0  0  0  0  0999 V2000
   28.5971  -19.8937   -4.0786 O   0  0  0  0  0  0  0  0  0  0  0  0
   28.3660  -19.8777   -5.4588 C   0  0  0  0  0  0  0  0  0  0  0  0
   29.4257  -19.7371   -6.3341 C   0  0  0  0  0  0  0  0  0  0  0  0
   29.1975  -19.7213   -7.6985 C   0  0  0  0  0  0  0  0  0  0  0  0
   27.9299  -19.8424   -8.2402 C   0  0  0  0  0  0  0  0  0  0  0  0
   27.6588  -19.8290   -9.6801 C   0  0  0  0  0  0  0  0  0  0  0  0
   26.8412  -21.0401  -10.0444 C   0  0  2  0  0  0  0  0  0  0  0  0
   27.6775  -22.2024   -9.9738 N   0  0  0  0  0  0  0  0  0  0  0  0
   26.2763  -20.9546  -11.4119 C   0  0  0  0  0  0  0  0  0  0  0  0
   27.0345  -21.3421  -12.3514 O   0  0  0  0  0  0  0  0  0  0  0  0
   26.8743  -19.9834   -7.3351 C   0  0  0  0  0  0  0  0  0  0  0  0
   27.0831  -20.0013   -5.9710 C   0  0  0  0  0  0  0  0  0  0  0  0
   25.8531  -22.6743  -13.4948 C   0  0  0  0  0  0  0  0  0  0  0  0
   24.4633  -22.0258  -13.5393 C   0  0  1  0  0  0  0  0  0  0  0  0
   23.6805  -22.7259  -12.6307 O   0  0  0  0  0  0  0  0  0  0  0  0
   24.5418  -20.5754  -13.1106 C   0  0  2  0  0  0  0  0  0  0  0  0
   24.9972  -20.4865  -11.7172 N   0  0  0  0  0  0  0  0  0  0  0  0
   23.1804  -19.9749  -13.1931 C   0  0  0  0  0  0  0  0  0  0  0  0
   22.4637  -19.8677  -12.1468 O   0  0  0  0  0  0  0  0  0  0  0  0
   22.0262  -16.5707  -15.3839 C   0  0  0  0  0  0  0  0  0  0  0  0
   21.2214  -17.8165  -15.5519 C   0  0  1  0  0  0  0  0  0  0  0  0
   21.6087  -18.5077  -16.6976 O   0  0  0  0  0  0  0  0  0  0  0  0
   21.3342  -18.7700  -14.3834 C   0  0  2  0  0  0  0  0  0  0  0  0
   22.5818  -19.4894  -14.3798 N   0  0  0  0  0  0  0  0  0  0  0  0
   20.2255  -19.7379  -14.4555 C   0  0  0  0  0  0  0  0  0  0  0  0
   20.4178  -20.9305  -14.7841 O   0  0  0  0  0  0  0  0  0  0  0  0
   18.9428  -19.3323  -14.1564 O   0  0  0  0  0  0  0  0  0  0  0  0
  2  1  1  0
  3  2  2  0
  4  3  1  0
  5  4  2  0
  5 11  1  0
  6  5  1  0
  7  6  1  0
  7  9  1  0
  7  8  1  6
  9 17  1  0
 10  9  2  0
 11 12  2  0
 12  2  1  0
 14 13  1  1
 14 15  1  0
 16 14  1  0
 16 17  1  1
 18 24  1  0
 18 16  1  0
 19 18  2  0
 21 20  1  1
 21 23  1  0
 22 21  1  0
 23 24  1  6
 23 25  1  0
 25 27  1  0
 26 25  2  0
M  END
$$$$
