YTT.pdb
     RDKit          3D

 27 27  0  0  1  0  0  0  0  0999 V2000
   19.2899  -16.2576  -20.6456 O   0  0  0  0  0  0  0  0  0  0  0  0
   20.1646  -17.1206  -19.9758 C   0  0  0  0  0  0  0  0  0  0  0  0
   20.5642  -18.2995  -20.5752 C   0  0  0  0  0  0  0  0  0  0  0  0
   21.4289  -19.1528  -19.9132 C   0  0  0  0  0  0  0  0  0  0  0  0
   21.9236  -18.8752  -18.6510 C   0  0  0  0  0  0  0  0  0  0  0  0
   22.8400  -19.7598  -17.9267 C   0  0  0  0  0  0  0  0  0  0  0  0
   24.2415  -19.2185  -18.0308 C   0  0  2  0  0  0  0  0  0  0  0  0
   24.7868  -19.5856  -19.3049 N   0  0  0  0  0  0  0  0  0  0  0  0
   25.1347  -19.7453  -16.9720 C   0  0  0  0  0  0  0  0  0  0  0  0
   25.7737  -20.8021  -17.2593 O   0  0  0  0  0  0  0  0  0  0  0  0
   21.5052  -17.6771  -18.0653 C   0  0  0  0  0  0  0  0  0  0  0  0
   20.6432  -16.8139  -18.7107 C   0  0  0  0  0  0  0  0  0  0  0  0
   28.2072  -19.0673  -16.2585 C   0  0  0  0  0  0  0  0  0  0  0  0
   27.5903  -18.9883  -14.8559 C   0  0  1  0  0  0  0  0  0  0  0  0
   27.3250  -17.6448  -14.6252 O   0  0  0  0  0  0  0  0  0  0  0  0
   26.2913  -19.7652  -14.8042 C   0  0  2  0  0  0  0  0  0  0  0  0
   25.3088  -19.1639  -15.7151 N   0  0  0  0  0  0  0  0  0  0  0  0
   25.7441  -19.6961  -13.4198 C   0  0  0  0  0  0  0  0  0  0  0  0
   24.9968  -18.7252  -13.0748 O   0  0  0  0  0  0  0  0  0  0  0  0
   23.0376  -20.8488  -11.6456 C   0  0  0  0  0  0  0  0  0  0  0  0
   24.2085  -21.3408  -10.8614 C   0  0  1  0  0  0  0  0  0  0  0  0
   24.5083  -22.6606  -11.1908 O   0  0  0  0  0  0  0  0  0  0  0  0
   25.4625  -20.5216  -11.0712 C   0  0  2  0  0  0  0  0  0  0  0  0
   25.9873  -20.6527  -12.4059 N   0  0  0  0  0  0  0  0  0  0  0  0
   26.4854  -20.9701  -10.1101 C   0  0  0  0  0  0  0  0  0  0  0  0
   27.5732  -21.4581  -10.4918 O   0  0  0  0  0  0  0  0  0  0  0  0
   26.2502  -20.8546   -8.7570 O   0  0  0  0  0  0  0  0  0  0  0  0
  2  1  1  0
  3  2  2  0
  4  3  1  0
  5  4  2  0
  5 11  1  0
  6  5  1  0
  7  6  1  0
  7  9  1  0
  7  8  1  6
  9 17  1  0
 10  9  2  0
 11 12  2  0
 12  2  1  0
 14 13  1  6
 14 15  1  0
 16 14  1  0
 16 17  1  6
 18 24  1  0
 18 16  1  0
 19 18  2  0
 21 20  1  6
 21 23  1  0
 22 21  1  0
 23 24  1  6
 23 25  1  0
 25 27  1  0
 26 25  2  0
M  END
$$$$
