YTT.pdb
     RDKit          3D

 27 27  0  0  1  0  0  0  0  0999 V2000
   18.8715  -20.0377  -14.7751 O   0  0  0  0  0  0  0  0  0  0  0  0
   19.2453  -18.6955  -14.9066 C   0  0  0  0  0  0  0  0  0  0  0  0
   20.5326  -18.3040  -14.5930 C   0  0  0  0  0  0  0  0  0  0  0  0
   20.9024  -16.9773  -14.7230 C   0  0  0  0  0  0  0  0  0  0  0  0
   20.0244  -16.0019  -15.1619 C   0  0  0  0  0  0  0  0  0  0  0  0
   20.3882  -14.5902  -15.3090 C   0  0  0  0  0  0  0  0  0  0  0  0
   20.5035  -14.2553  -16.7728 C   0  0  2  0  0  0  0  0  0  0  0  0
   21.6547  -14.9189  -17.3110 N   0  0  0  0  0  0  0  0  0  0  0  0
   20.6491  -12.8002  -17.0135 C   0  0  0  0  0  0  0  0  0  0  0  0
   21.8378  -12.3626  -17.0695 O   0  0  0  0  0  0  0  0  0  0  0  0
   18.7282  -16.4221  -15.4729 C   0  0  0  0  0  0  0  0  0  0  0  0
   18.3416  -17.7411  -15.3495 C   0  0  0  0  0  0  0  0  0  0  0  0
   19.5562  -10.9549  -19.9685 C   0  0  0  0  0  0  0  0  0  0  0  0
   19.1258  -10.1084  -18.7634 C   0  0  1  0  0  0  0  0  0  0  0  0
   17.7772  -10.3742  -18.5659 O   0  0  0  0  0  0  0  0  0  0  0  0
   19.8973  -10.5177  -17.5261 C   0  0  2  0  0  0  0  0  0  0  0  0
   19.5866  -11.9100  -17.1771 N   0  0  0  0  0  0  0  0  0  0  0  0
   19.4792   -9.6497  -16.3892 C   0  0  0  0  0  0  0  0  0  0  0  0
   18.3755   -9.8641  -15.7927 O   0  0  0  0  0  0  0  0  0  0  0  0
   20.8444   -9.2468  -12.9210 C   0  0  0  0  0  0  0  0  0  0  0  0
   20.8393   -7.9166  -13.5983 C   0  0  1  0  0  0  0  0  0  0  0  0
   22.0926   -7.6257  -14.1321 O   0  0  0  0  0  0  0  0  0  0  0  0
   19.8303   -7.8145  -14.7202 C   0  0  2  0  0  0  0  0  0  0  0  0
   20.2284   -8.5597  -15.8865 N   0  0  0  0  0  0  0  0  0  0  0  0
   19.6770   -6.3963  -15.0895 C   0  0  0  0  0  0  0  0  0  0  0  0
   19.1789   -5.5638  -14.2982 O   0  0  0  0  0  0  0  0  0  0  0  0
   20.0881   -5.9647  -16.3321 O   0  0  0  0  0  0  0  0  0  0  0  0
  2  1  1  0
  3  2  2  0
  4  3  1  0
  5  4  2  0
  5 11  1  0
  6  5  1  0
  7  6  1  0
  7  9  1  0
  7  8  1  1
  9 17  1  0
 10  9  2  0
 11 12  2  0
 12  2  1  0
 14 13  1  6
 14 15  1  0
 16 14  1  0
 16 17  1  1
 18 24  1  0
 18 16  1  0
 19 18  2  0
 21 20  1  6
 21 23  1  0
 22 21  1  0
 23 24  1  6
 23 25  1  0
 25 27  1  0
 26 25  2  0
M  END
$$$$
