YTT.pdb
     RDKit          3D

 27 27  0  0  1  0  0  0  0  0999 V2000
   15.3879  -15.2262  -16.0997 O   0  0  0  0  0  0  0  0  0  0  0  0
   16.4044  -14.2700  -15.9949 C   0  0  0  0  0  0  0  0  0  0  0  0
   16.3715  -13.1386  -16.7872 C   0  0  0  0  0  0  0  0  0  0  0  0
   17.3762  -12.1931  -16.6838 C   0  0  0  0  0  0  0  0  0  0  0  0
   18.4362  -12.3301  -15.8048 C   0  0  0  0  0  0  0  0  0  0  0  0
   19.5135  -11.3456  -15.6741 C   0  0  0  0  0  0  0  0  0  0  0  0
   20.3972  -11.4093  -16.8919 C   0  0  2  0  0  0  0  0  0  0  0  0
   21.1929  -12.6000  -16.8256 N   0  0  0  0  0  0  0  0  0  0  0  0
   21.3082  -10.2448  -16.9950 C   0  0  0  0  0  0  0  0  0  0  0  0
   22.4415  -10.3754  -16.4417 O   0  0  0  0  0  0  0  0  0  0  0  0
   18.4476  -13.4825  -15.0142 C   0  0  0  0  0  0  0  0  0  0  0  0
   17.4540  -14.4361  -15.1037 C   0  0  0  0  0  0  0  0  0  0  0  0
   23.2293   -6.2706  -18.9750 C   0  0  0  0  0  0  0  0  0  0  0  0
   22.2743   -7.4710  -19.0111 C   0  0  1  0  0  0  0  0  0  0  0  0
   22.9324   -8.4675  -19.7199 O   0  0  0  0  0  0  0  0  0  0  0  0
   21.9922   -7.9657  -17.6078 C   0  0  2  0  0  0  0  0  0  0  0  0
   21.0011   -9.0488  -17.6459 N   0  0  0  0  0  0  0  0  0  0  0  0
   21.4239   -6.8444  -16.8075 C   0  0  0  0  0  0  0  0  0  0  0  0
   20.3229   -6.3065  -17.1514 O   0  0  0  0  0  0  0  0  0  0  0  0
   19.9343   -6.6272  -13.4772 C   0  0  0  0  0  0  0  0  0  0  0  0
   21.0256   -5.6093  -13.5112 C   0  0  1  0  0  0  0  0  0  0  0  0
   22.1644   -6.0795  -12.8614 O   0  0  0  0  0  0  0  0  0  0  0  0
   21.4320   -5.2070  -14.9113 C   0  0  2  0  0  0  0  0  0  0  0  0
   22.0200   -6.2965  -15.6471 N   0  0  0  0  0  0  0  0  0  0  0  0
   22.4105   -4.1089  -14.8214 C   0  0  0  0  0  0  0  0  0  0  0  0
   23.5981   -4.2585  -15.1879 O   0  0  0  0  0  0  0  0  0  0  0  0
   22.0205   -2.8842  -14.3239 O   0  0  0  0  0  0  0  0  0  0  0  0
  2  1  1  0
  3  2  2  0
  4  3  1  0
  5  4  2  0
  5 11  1  0
  6  5  1  0
  7  6  1  0
  7  9  1  0
  7  8  1  1
  9 17  1  0
 10  9  2  0
 11 12  2  0
 12  2  1  0
 14 13  1  1
 14 15  1  0
 16 14  1  0
 16 17  1  6
 18 24  1  0
 18 16  1  0
 19 18  2  0
 21 20  1  6
 21 23  1  0
 22 21  1  0
 23 24  1  1
 23 25  1  0
 25 27  1  0
 26 25  2  0
M  END
$$$$
