YTT.pdb
     RDKit          3D

 27 27  0  0  1  0  0  0  0  0999 V2000
   22.0559  -18.4219  -16.6655 O   0  0  0  0  0  0  0  0  0  0  0  0
   21.8998  -17.0356  -16.7767 C   0  0  0  0  0  0  0  0  0  0  0  0
   21.7433  -16.2657  -15.6402 C   0  0  0  0  0  0  0  0  0  0  0  0
   21.5889  -14.8953  -15.7498 C   0  0  0  0  0  0  0  0  0  0  0  0
   21.5836  -14.2445  -16.9711 C   0  0  0  0  0  0  0  0  0  0  0  0
   21.4222  -12.7956  -17.1171 C   0  0  0  0  0  0  0  0  0  0  0  0
   19.9646  -12.4407  -16.9837 C   0  0  2  0  0  0  0  0  0  0  0  0
   19.2605  -12.9336  -18.1311 N   0  0  0  0  0  0  0  0  0  0  0  0
   19.7414  -10.9784  -16.8922 C   0  0  0  0  0  0  0  0  0  0  0  0
   19.5718  -10.3724  -17.9931 O   0  0  0  0  0  0  0  0  0  0  0  0
   21.7435  -15.0444  -18.1060 C   0  0  0  0  0  0  0  0  0  0  0  0
   21.8988  -16.4127  -18.0158 C   0  0  0  0  0  0  0  0  0  0  0  0
   17.8133   -7.0052  -15.1328 C   0  0  0  0  0  0  0  0  0  0  0  0
   18.0724   -8.5173  -15.1597 C   0  0  1  0  0  0  0  0  0  0  0  0
   17.0786   -9.0658  -15.9597 O   0  0  0  0  0  0  0  0  0  0  0  0
   19.4235   -8.8122  -15.7769 C   0  0  2  0  0  0  0  0  0  0  0  0
   19.7080  -10.2510  -15.7015 N   0  0  0  0  0  0  0  0  0  0  0  0
   20.4734   -8.0903  -15.0040 C   0  0  0  0  0  0  0  0  0  0  0  0
   20.8647   -8.5416  -13.8801 O   0  0  0  0  0  0  0  0  0  0  0  0
   24.1251   -6.9102  -15.9715 C   0  0  0  0  0  0  0  0  0  0  0  0
   23.2927   -5.7814  -15.4607 C   0  0  1  0  0  0  0  0  0  0  0  0
   22.8008   -5.0112  -16.5119 O   0  0  0  0  0  0  0  0  0  0  0  0
   22.1104   -6.2306  -14.6315 C   0  0  2  0  0  0  0  0  0  0  0  0
   21.1063   -6.8955  -15.4213 N   0  0  0  0  0  0  0  0  0  0  0  0
   21.5076   -5.0488  -13.9902 C   0  0  0  0  0  0  0  0  0  0  0  0
   20.4237   -4.5675  -14.3913 O   0  0  0  0  0  0  0  0  0  0  0  0
   22.1427   -4.4509  -12.9231 O   0  0  0  0  0  0  0  0  0  0  0  0
  2  1  1  0
  3  2  2  0
  4  3  1  0
  5  4  2  0
  5 11  1  0
  6  5  1  0
  7  6  1  0
  7  9  1  0
  7  8  1  6
  9 17  1  0
 10  9  2  0
 11 12  2  0
 12  2  1  0
 14 13  1  6
 14 15  1  0
 16 14  1  0
 16 17  1  1
 18 24  1  0
 18 16  1  0
 19 18  2  0
 21 20  1  6
 21 23  1  0
 22 21  1  0
 23 24  1  6
 23 25  1  0
 25 27  1  0
 26 25  2  0
M  END
$$$$
