YTT.pdb
     RDKit          3D

 27 27  0  0  1  0  0  0  0  0999 V2000
   16.4592  -14.5098  -20.8370 O   0  0  0  0  0  0  0  0  0  0  0  0
   17.3486  -13.6914  -20.1314 C   0  0  0  0  0  0  0  0  0  0  0  0
   18.2349  -14.2510  -19.2314 C   0  0  0  0  0  0  0  0  0  0  0  0
   19.1142  -13.4423  -18.5337 C   0  0  0  0  0  0  0  0  0  0  0  0
   19.1488  -12.0687  -18.6983 C   0  0  0  0  0  0  0  0  0  0  0  0
   20.0686  -11.1881  -17.9735 C   0  0  0  0  0  0  0  0  0  0  0  0
   21.2425  -10.8576  -18.8573 C   0  0  2  0  0  0  0  0  0  0  0  0
   22.0269  -12.0423  -19.0485 N   0  0  0  0  0  0  0  0  0  0  0  0
   22.1146   -9.8096  -18.2763 C   0  0  0  0  0  0  0  0  0  0  0  0
   23.3484  -10.0921  -18.2019 O   0  0  0  0  0  0  0  0  0  0  0  0
   18.2430  -11.5260  -19.6140 C   0  0  0  0  0  0  0  0  0  0  0  0
   17.3588  -12.3172  -20.3187 C   0  0  0  0  0  0  0  0  0  0  0  0
   24.4727   -8.4753  -18.7623 C   0  0  0  0  0  0  0  0  0  0  0  0
   23.6737   -7.2505  -18.2979 C   0  0  1  0  0  0  0  0  0  0  0  0
   23.0024   -6.7791  -19.4185 O   0  0  0  0  0  0  0  0  0  0  0  0
   22.6605   -7.6474  -17.2446 C   0  0  2  0  0  0  0  0  0  0  0  0
   21.6709   -8.5675  -17.8199 N   0  0  0  0  0  0  0  0  0  0  0  0
   21.9441   -6.4255  -16.7814 C   0  0  0  0  0  0  0  0  0  0  0  0
   20.9135   -6.0132  -17.4041 O   0  0  0  0  0  0  0  0  0  0  0  0
   20.6273   -6.6423  -13.5032 C   0  0  0  0  0  0  0  0  0  0  0  0
   20.2264   -5.5076  -14.3863 C   0  0  1  0  0  0  0  0  0  0  0  0
   19.4561   -4.5815  -13.6869 O   0  0  0  0  0  0  0  0  0  0  0  0
   21.4002   -4.7655  -14.9855 C   0  0  2  0  0  0  0  0  0  0  0  0
   22.3184   -5.6447  -15.6622 N   0  0  0  0  0  0  0  0  0  0  0  0
   22.1177   -4.0663  -13.9050 C   0  0  0  0  0  0  0  0  0  0  0  0
   21.6022   -3.1038  -13.2925 O   0  0  0  0  0  0  0  0  0  0  0  0
   23.3865   -4.4725  -13.5518 O   0  0  0  0  0  0  0  0  0  0  0  0
  2  1  1  0
  3  2  2  0
  4  3  1  0
  5  4  2  0
  5 11  1  0
  6  5  1  0
  7  6  1  0
  7  9  1  0
  7  8  1  1
  9 17  1  0
 10  9  2  0
 11 12  2  0
 12  2  1  0
 14 13  1  6
 14 15  1  0
 16 14  1  0
 16 17  1  6
 18 24  1  0
 18 16  1  0
 19 18  2  0
 21 20  1  1
 21 23  1  0
 22 21  1  0
 23 24  1  1
 23 25  1  0
 25 27  1  0
 26 25  2  0
M  END
$$$$
