YTT.pdb
     RDKit          3D

 27 27  0  0  1  0  0  0  0  0999 V2000
   19.5737  -23.6333   -6.9003 O   0  0  0  0  0  0  0  0  0  0  0  0
   20.4014  -22.8267   -7.6895 C   0  0  0  0  0  0  0  0  0  0  0  0
   21.2460  -21.9113   -7.0914 C   0  0  0  0  0  0  0  0  0  0  0  0
   22.0643  -21.1138   -7.8713 C   0  0  0  0  0  0  0  0  0  0  0  0
   22.0773  -21.1912   -9.2529 C   0  0  0  0  0  0  0  0  0  0  0  0
   22.9329  -20.3597  -10.1036 C   0  0  0  0  0  0  0  0  0  0  0  0
   24.1484  -21.1497  -10.5115 C   0  0  2  0  0  0  0  0  0  0  0  0
   25.0236  -21.2700   -9.3824 N   0  0  0  0  0  0  0  0  0  0  0  0
   24.8989  -20.5084  -11.6169 C   0  0  0  0  0  0  0  0  0  0  0  0
   25.8841  -19.7874  -11.2745 O   0  0  0  0  0  0  0  0  0  0  0  0
   21.2146  -22.1243   -9.8347 C   0  0  0  0  0  0  0  0  0  0  0  0
   20.3914  -22.9281   -9.0727 C   0  0  0  0  0  0  0  0  0  0  0  0
   27.4941  -21.1808  -12.8844 C   0  0  0  0  0  0  0  0  0  0  0  0
   26.6893  -21.0050  -14.1788 C   0  0  1  0  0  0  0  0  0  0  0  0
   26.2043  -22.2643  -14.5066 O   0  0  0  0  0  0  0  0  0  0  0  0
   25.5210  -20.0682  -13.9529 C   0  0  2  0  0  0  0  0  0  0  0  0
   24.5941  -20.6472  -12.9719 N   0  0  0  0  0  0  0  0  0  0  0  0
   24.7876  -19.8949  -15.2385 C   0  0  0  0  0  0  0  0  0  0  0  0
   23.8890  -20.7290  -15.5802 O   0  0  0  0  0  0  0  0  0  0  0  0
   22.3816  -17.1698  -16.4872 C   0  0  0  0  0  0  0  0  0  0  0  0
   23.5513  -17.3069  -17.4043 C   0  0  1  0  0  0  0  0  0  0  0  0
   24.5261  -16.3558  -17.1122 O   0  0  0  0  0  0  0  0  0  0  0  0
   24.2086  -18.6677  -17.3446 C   0  0  2  0  0  0  0  0  0  0  0  0
   25.0054  -18.8413  -16.1576 N   0  0  0  0  0  0  0  0  0  0  0  0
   25.0734  -18.8263  -18.5271 C   0  0  0  0  0  0  0  0  0  0  0  0
   26.3161  -18.9329  -18.4199 O   0  0  0  0  0  0  0  0  0  0  0  0
   24.5122  -18.8595  -19.7854 O   0  0  0  0  0  0  0  0  0  0  0  0
  2  1  1  0
  3  2  2  0
  4  3  1  0
  5  4  2  0
  5 11  1  0
  6  5  1  0
  7  6  1  0
  7  9  1  0
  7  8  1  1
  9 17  1  0
 10  9  2  0
 11 12  2  0
 12  2  1  0
 14 13  1  1
 14 15  1  0
 16 14  1  0
 16 17  1  1
 18 24  1  0
 18 16  1  0
 19 18  2  0
 21 20  1  1
 21 23  1  0
 22 21  1  0
 23 24  1  1
 23 25  1  0
 25 27  1  0
 26 25  2  0
M  END
$$$$
