YTT.pdb
     RDKit          3D

 27 27  0  0  1  0  0  0  0  0999 V2000
   25.5308  -15.1410  -22.0255 O   0  0  0  0  0  0  0  0  0  0  0  0
   24.8564  -16.0844  -21.2421 C   0  0  0  0  0  0  0  0  0  0  0  0
   23.9756  -15.6654  -20.2635 C   0  0  0  0  0  0  0  0  0  0  0  0
   23.3088  -16.5978  -19.4889 C   0  0  0  0  0  0  0  0  0  0  0  0
   23.4861  -17.9606  -19.6514 C   0  0  0  0  0  0  0  0  0  0  0  0
   22.7938  -18.9701  -18.8462 C   0  0  0  0  0  0  0  0  0  0  0  0
   23.3583  -18.9667  -17.4500 C   0  0  2  0  0  0  0  0  0  0  0  0
   24.7385  -19.3503  -17.5069 N   0  0  0  0  0  0  0  0  0  0  0  0
   22.6502  -19.9055  -16.5479 C   0  0  0  0  0  0  0  0  0  0  0  0
   23.3730  -20.7726  -15.9703 O   0  0  0  0  0  0  0  0  0  0  0  0
   24.3818  -18.3598  -20.6473 C   0  0  0  0  0  0  0  0  0  0  0  0
   25.0557  -17.4440  -21.4294 C   0  0  0  0  0  0  0  0  0  0  0  0
   22.7603  -20.4278  -13.8720 C   0  0  0  0  0  0  0  0  0  0  0  0
   21.2267  -20.4307  -13.9206 C   0  0  1  0  0  0  0  0  0  0  0  0
   20.8288  -19.1277  -13.6518 O   0  0  0  0  0  0  0  0  0  0  0  0
   20.7414  -20.8216  -15.3009 C   0  0  2  0  0  0  0  0  0  0  0  0
   21.2760  -19.8918  -16.3042 N   0  0  0  0  0  0  0  0  0  0  0  0
   19.2542  -20.7325  -15.3312 C   0  0  0  0  0  0  0  0  0  0  0  0
   18.6845  -19.6199  -15.5710 O   0  0  0  0  0  0  0  0  0  0  0  0
   16.6785  -24.1553  -15.8506 C   0  0  0  0  0  0  0  0  0  0  0  0
   16.4263  -22.7472  -16.2769 C   0  0  1  0  0  0  0  0  0  0  0  0
   15.0629  -22.5142  -16.4414 O   0  0  0  0  0  0  0  0  0  0  0  0
   16.9510  -21.7180  -15.3009 C   0  0  2  0  0  0  0  0  0  0  0  0
   18.3748  -21.8185  -15.1090 N   0  0  0  0  0  0  0  0  0  0  0  0
   16.2799  -21.9128  -14.0036 C   0  0  0  0  0  0  0  0  0  0  0  0
   15.0409  -21.7820  -13.8812 O   0  0  0  0  0  0  0  0  0  0  0  0
   17.0232  -22.2468  -12.8922 O   0  0  0  0  0  0  0  0  0  0  0  0
  2  1  1  0
  3  2  2  0
  4  3  1  0
  5  4  2  0
  5 11  1  0
  6  5  1  0
  7  6  1  0
  7  9  1  0
  7  8  1  6
  9 17  1  0
 10  9  2  0
 11 12  2  0
 12  2  1  0
 14 13  1  6
 14 15  1  0
 16 14  1  0
 16 17  1  6
 18 24  1  0
 18 16  1  0
 19 18  2  0
 21 20  1  1
 21 23  1  0
 22 21  1  0
 23 24  1  1
 23 25  1  0
 25 27  1  0
 26 25  2  0
M  END
$$$$
