YTT.pdb
     RDKit          3D

 27 27  0  0  1  0  0  0  0  0999 V2000
   24.7504  -16.4647  -23.4013 O   0  0  0  0  0  0  0  0  0  0  0  0
   25.0333  -15.2686  -22.7322 C   0  0  0  0  0  0  0  0  0  0  0  0
   26.3236  -14.7750  -22.7173 C   0  0  0  0  0  0  0  0  0  0  0  0
   26.6036  -13.5926  -22.0559 C   0  0  0  0  0  0  0  0  0  0  0  0
   25.6307  -12.8646  -21.3937 C   0  0  0  0  0  0  0  0  0  0  0  0
   25.8982  -11.6101  -20.6854 C   0  0  0  0  0  0  0  0  0  0  0  0
   27.0304  -11.8179  -19.7142 C   0  0  2  0  0  0  0  0  0  0  0  0
   26.6016  -12.7240  -18.6893 N   0  0  0  0  0  0  0  0  0  0  0  0
   27.4652  -10.5564  -19.0693 C   0  0  0  0  0  0  0  0  0  0  0  0
   26.8758  -10.2532  -17.9883 O   0  0  0  0  0  0  0  0  0  0  0  0
   24.3335  -13.3838  -21.4227 C   0  0  0  0  0  0  0  0  0  0  0  0
   24.0357  -14.5617  -22.0774 C   0  0  0  0  0  0  0  0  0  0  0  0
   30.4237   -9.6592  -17.3632 C   0  0  0  0  0  0  0  0  0  0  0  0
   30.1975   -8.5034  -18.3467 C   0  0  1  0  0  0  0  0  0  0  0  0
   31.0259   -8.7522  -19.4330 O   0  0  0  0  0  0  0  0  0  0  0  0
   28.7580   -8.4821  -18.8166 C   0  0  2  0  0  0  0  0  0  0  0  0
   28.4554   -9.7078  -19.5669 N   0  0  0  0  0  0  0  0  0  0  0  0
   28.5671   -7.3199  -19.7297 C   0  0  0  0  0  0  0  0  0  0  0  0
   28.5606   -7.4913  -20.9909 O   0  0  0  0  0  0  0  0  0  0  0  0
   25.7943   -5.4299  -20.8989 C   0  0  0  0  0  0  0  0  0  0  0  0
   26.7145   -4.4494  -20.2508 C   0  0  1  0  0  0  0  0  0  0  0  0
   26.3316   -4.2035  -18.9343 O   0  0  0  0  0  0  0  0  0  0  0  0
   28.1582   -4.8993  -20.2301 C   0  0  2  0  0  0  0  0  0  0  0  0
   28.3830   -5.9821  -19.3074 N   0  0  0  0  0  0  0  0  0  0  0  0
   29.0030   -3.7568  -19.8399 C   0  0  0  0  0  0  0  0  0  0  0  0
   29.2028   -2.7951  -20.6160 O   0  0  0  0  0  0  0  0  0  0  0  0
   29.5920   -3.7356  -18.5941 O   0  0  0  0  0  0  0  0  0  0  0  0
  2  1  1  0
  3  2  2  0
  4  3  1  0
  5  4  2  0
  5 11  1  0
  6  5  1  0
  7  6  1  0
  7  9  1  0
  7  8  1  1
  9 17  1  0
 10  9  2  0
 11 12  2  0
 12  2  1  0
 14 13  1  1
 14 15  1  0
 16 14  1  0
 16 17  1  6
 18 24  1  0
 18 16  1  0
 19 18  2  0
 21 20  1  1
 21 23  1  0
 22 21  1  0
 23 24  1  1
 23 25  1  0
 25 27  1  0
 26 25  2  0
M  END
$$$$
