KAE.pdb
     RDKit          3D

 24 23  0  0  1  0  0  0  0  0999 V2000
   22.5398  -23.9945  -16.5184 N   0  0  0  0  0  0  0  0  0  0  0  0
   21.3138  -23.9351  -15.8061 C   0  0  1  0  0  0  0  0  0  0  0  0
   20.8514  -25.1702  -15.1348 C   0  0  0  0  0  0  0  0  0  0  0  0
   21.5248  -26.4410  -15.4472 C   0  0  0  0  0  0  0  0  0  0  0  0
   21.2191  -27.6324  -14.6272 C   0  0  0  0  0  0  0  0  0  0  0  0
   21.9939  -28.8757  -15.0289 C   0  0  0  0  0  0  0  0  0  0  0  0
   21.6243  -29.9529  -14.1114 N   0  0  0  0  0  0  0  0  0  0  0  0
   21.1927  -22.7221  -14.9187 C   0  0  0  0  0  0  0  0  0  0  0  0
   20.1285  -22.4891  -14.2899 O   0  0  0  0  0  0  0  0  0  0  0  0
   23.5323  -20.1909  -13.5535 C   0  0  0  0  0  0  0  0  0  0  0  0
   22.1264  -20.6217  -13.8993 C   0  0  2  0  0  0  0  0  0  0  0  0
   22.2510  -21.7931  -14.7474 N   0  0  0  0  0  0  0  0  0  0  0  0
   21.4007  -19.5780  -14.6706 C   0  0  0  0  0  0  0  0  0  0  0  0
   21.9403  -19.0558  -15.6783 O   0  0  0  0  0  0  0  0  0  0  0  0
   20.1014  -19.1557  -14.2903 N   0  0  0  0  0  0  0  0  0  0  0  0
   19.3351  -18.1368  -14.9919 C   0  0  1  0  0  0  0  0  0  0  0  0
   18.4663  -18.8148  -16.0050 C   0  0  0  0  0  0  0  0  0  0  0  0
   17.7026  -17.8101  -16.7953 C   0  0  0  0  0  0  0  0  0  0  0  0
   16.7485  -18.4951  -17.6879 C   0  0  0  0  0  0  0  0  0  0  0  0
   17.1030  -18.9155  -18.8068 O   0  0  0  0  0  0  0  0  0  0  0  0
   18.4649  -17.4481  -13.9676 C   0  0  0  0  0  0  0  0  0  0  0  0
   18.1943  -18.0379  -12.9144 O   0  0  0  0  0  0  0  0  0  0  0  0
   15.4399  -18.6632  -17.2524 O   0  0  0  0  0  0  0  0  0  0  0  0
   17.9893  -16.1925  -14.2121 O   0  0  0  0  0  0  0  0  0  0  0  0
  2  1  1  1
  3  2  1  0
  4  3  1  0
  5  4  1  0
  6  5  1  0
  7  6  1  0
  8  2  1  0
  8  9  2  0
 11 10  1  6
 11 12  1  0
 12  8  1  0
 13 11  1  0
 14 13  2  0
 15 13  1  0
 16 21  1  0
 16 15  1  0
 16 17  1  6
 18 17  1  0
 19 18  1  0
 20 19  2  0
 21 24  1  0
 22 21  2  0
 23 19  1  0
M  END
$$$$
