KAE.pdb
     RDKit          3D

 24 23  0  0  1  0  0  0  0  0999 V2000
   28.2723  -20.7733  -15.8947 N   0  0  0  0  0  0  0  0  0  0  0  0
   27.6309  -19.9950  -14.8962 C   0  0  1  0  0  0  0  0  0  0  0  0
   27.0841  -18.6803  -15.2992 C   0  0  0  0  0  0  0  0  0  0  0  0
   27.9387  -17.7639  -16.0711 C   0  0  0  0  0  0  0  0  0  0  0  0
   28.8574  -18.3258  -17.0838 C   0  0  0  0  0  0  0  0  0  0  0  0
   29.6401  -17.2791  -17.8580 C   0  0  0  0  0  0  0  0  0  0  0  0
   28.8430  -16.8889  -19.0203 N   0  0  0  0  0  0  0  0  0  0  0  0
   26.6624  -20.7826  -14.0507 C   0  0  0  0  0  0  0  0  0  0  0  0
   25.9217  -21.6579  -14.5678 O   0  0  0  0  0  0  0  0  0  0  0  0
   25.7240  -20.8293  -10.4342 C   0  0  0  0  0  0  0  0  0  0  0  0
   25.4516  -21.1680  -11.8809 C   0  0  2  0  0  0  0  0  0  0  0  0
   26.5337  -20.5838  -12.6520 N   0  0  0  0  0  0  0  0  0  0  0  0
   24.1778  -20.5688  -12.3600 C   0  0  0  0  0  0  0  0  0  0  0  0
   24.1110  -19.3332  -12.5795 O   0  0  0  0  0  0  0  0  0  0  0  0
   23.0270  -21.3687  -12.5765 N   0  0  0  0  0  0  0  0  0  0  0  0
   21.7925  -20.8803  -13.1724 C   0  0  1  0  0  0  0  0  0  0  0  0
   21.5915  -21.5802  -14.4803 C   0  0  0  0  0  0  0  0  0  0  0  0
   20.3950  -21.0408  -15.1836 C   0  0  0  0  0  0  0  0  0  0  0  0
   20.1687  -21.7902  -16.4340 C   0  0  0  0  0  0  0  0  0  0  0  0
   20.9103  -22.7386  -16.7584 O   0  0  0  0  0  0  0  0  0  0  0  0
   20.6682  -21.2446  -12.2322 C   0  0  0  0  0  0  0  0  0  0  0  0
   19.7859  -20.4098  -11.9977 O   0  0  0  0  0  0  0  0  0  0  0  0
   19.1056  -21.4152  -17.2462 O   0  0  0  0  0  0  0  0  0  0  0  0
   20.6372  -22.4809  -11.6550 O   0  0  0  0  0  0  0  0  0  0  0  0
  2  1  1  6
  3  2  1  0
  4  3  1  0
  5  4  1  0
  6  5  1  0
  7  6  1  0
  8  2  1  0
  8  9  2  0
 11 10  1  1
 11 12  1  0
 12  8  1  0
 13 11  1  0
 14 13  2  0
 15 13  1  0
 16 21  1  0
 16 15  1  0
 16 17  1  6
 18 17  1  0
 19 18  1  0
 20 19  2  0
 21 24  1  0
 22 21  2  0
 23 19  1  0
M  END
$$$$
