KAE.pdb
     RDKit          3D

 24 23  0  0  1  0  0  0  0  0999 V2000
   26.0886  -21.2037  -12.0003 N   0  0  0  0  0  0  0  0  0  0  0  0
   26.4481  -20.7531  -13.2972 C   0  0  1  0  0  0  0  0  0  0  0  0
   26.5029  -21.7595  -14.3808 C   0  0  0  0  0  0  0  0  0  0  0  0
   25.5574  -22.8868  -14.3493 C   0  0  0  0  0  0  0  0  0  0  0  0
   25.6711  -23.9440  -15.3763 C   0  0  0  0  0  0  0  0  0  0  0  0
   24.6448  -25.0552  -15.2370 C   0  0  0  0  0  0  0  0  0  0  0  0
   24.8307  -25.9825  -16.3525 N   0  0  0  0  0  0  0  0  0  0  0  0
   25.7270  -19.4977  -13.7184 C   0  0  0  0  0  0  0  0  0  0  0  0
   24.5206  -19.3158  -13.4126 O   0  0  0  0  0  0  0  0  0  0  0  0
   26.6907  -16.3584  -15.4970 C   0  0  0  0  0  0  0  0  0  0  0  0
   25.6553  -17.2686  -14.8795 C   0  0  2  0  0  0  0  0  0  0  0  0
   26.3560  -18.4717  -14.4695 N   0  0  0  0  0  0  0  0  0  0  0  0
   24.6096  -17.6641  -15.8599 C   0  0  0  0  0  0  0  0  0  0  0  0
   24.8542  -18.5570  -16.7098 O   0  0  0  0  0  0  0  0  0  0  0  0
   23.3313  -17.0501  -15.8563 N   0  0  0  0  0  0  0  0  0  0  0  0
   22.2370  -17.4355  -16.7348 C   0  0  1  0  0  0  0  0  0  0  0  0
   20.9463  -17.1571  -16.0296 C   0  0  0  0  0  0  0  0  0  0  0  0
   19.7893  -17.5150  -16.8958 C   0  0  0  0  0  0  0  0  0  0  0  0
   18.5274  -17.1694  -16.2143 C   0  0  0  0  0  0  0  0  0  0  0  0
   18.0730  -17.8857  -15.3006 O   0  0  0  0  0  0  0  0  0  0  0  0
   22.3293  -16.5702  -17.9691 C   0  0  0  0  0  0  0  0  0  0  0  0
   22.7661  -15.4176  -17.8642 O   0  0  0  0  0  0  0  0  0  0  0  0
   17.8531  -16.0220  -16.6138 O   0  0  0  0  0  0  0  0  0  0  0  0
   21.9327  -17.0642  -19.1779 O   0  0  0  0  0  0  0  0  0  0  0  0
  2  1  1  1
  3  2  1  0
  4  3  1  0
  5  4  1  0
  6  5  1  0
  7  6  1  0
  8  2  1  0
  8  9  2  0
 11 10  1  6
 11 12  1  0
 12  8  1  0
 13 11  1  0
 14 13  2  0
 15 13  1  0
 16 21  1  0
 16 15  1  0
 16 17  1  1
 18 17  1  0
 19 18  1  0
 20 19  2  0
 21 24  1  0
 22 21  2  0
 23 19  1  0
M  END
$$$$
