KAE.pdb
     RDKit          3D

 24 23  0  0  1  0  0  0  0  0999 V2000
   17.3533  -11.5058  -17.5571 N   0  0  0  0  0  0  0  0  0  0  0  0
   18.6796  -11.1046  -17.2506 C   0  0  1  0  0  0  0  0  0  0  0  0
   19.6222  -10.9367  -18.3790 C   0  0  0  0  0  0  0  0  0  0  0  0
   19.9926  -12.1180  -19.1746 C   0  0  0  0  0  0  0  0  0  0  0  0
   20.5942  -13.2814  -18.4893 C   0  0  0  0  0  0  0  0  0  0  0  0
   20.9869  -14.4143  -19.4220 C   0  0  0  0  0  0  0  0  0  0  0  0
   21.5951  -15.4717  -18.6154 N   0  0  0  0  0  0  0  0  0  0  0  0
   18.7499   -9.9603  -16.2713 C   0  0  0  0  0  0  0  0  0  0  0  0
   18.1866   -8.8639  -16.5220 O   0  0  0  0  0  0  0  0  0  0  0  0
   19.9612   -9.5272  -12.7812 C   0  0  0  0  0  0  0  0  0  0  0  0
   19.5170   -8.9453  -14.1025 C   0  0  2  0  0  0  0  0  0  0  0  0
   19.4427  -10.0535  -15.0369 N   0  0  0  0  0  0  0  0  0  0  0  0
   20.5012   -7.9668  -14.6361 C   0  0  0  0  0  0  0  0  0  0  0  0
   21.2385   -8.2846  -15.6029 O   0  0  0  0  0  0  0  0  0  0  0  0
   20.6267   -6.6715  -14.0726 N   0  0  0  0  0  0  0  0  0  0  0  0
   21.5229   -5.6430  -14.5793 C   0  0  1  0  0  0  0  0  0  0  0  0
   20.7478   -4.7560  -15.5029 C   0  0  0  0  0  0  0  0  0  0  0  0
   21.5555   -3.5646  -15.8842 C   0  0  0  0  0  0  0  0  0  0  0  0
   20.7854   -2.7127  -16.8102 C   0  0  0  0  0  0  0  0  0  0  0  0
   19.6872   -3.0876  -17.2660 O   0  0  0  0  0  0  0  0  0  0  0  0
   21.9954   -4.8381  -13.3921 C   0  0  0  0  0  0  0  0  0  0  0  0
   21.3497   -4.8853  -12.3381 O   0  0  0  0  0  0  0  0  0  0  0  0
   21.3125   -1.4769  -17.1646 O   0  0  0  0  0  0  0  0  0  0  0  0
   23.1206   -4.0724  -13.4932 O   0  0  0  0  0  0  0  0  0  0  0  0
  2  1  1  6
  3  2  1  0
  4  3  1  0
  5  4  1  0
  6  5  1  0
  7  6  1  0
  8  2  1  0
  8  9  2  0
 11 10  1  1
 11 12  1  0
 12  8  1  0
 13 11  1  0
 14 13  2  0
 15 13  1  0
 16 21  1  0
 16 15  1  0
 16 17  1  6
 18 17  1  0
 19 18  1  0
 20 19  2  0
 21 24  1  0
 22 21  2  0
 23 19  1  0
M  END
$$$$
