KAE.pdb
     RDKit          3D

 24 23  0  0  1  0  0  0  0  0999 V2000
   20.4730  -12.3382  -17.6177 N   0  0  0  0  0  0  0  0  0  0  0  0
   19.6396  -11.4354  -16.9075 C   0  0  1  0  0  0  0  0  0  0  0  0
   18.3846  -11.9694  -16.3332 C   0  0  0  0  0  0  0  0  0  0  0  0
   17.7071  -13.0803  -17.0209 C   0  0  0  0  0  0  0  0  0  0  0  0
   16.4862  -12.7974  -17.8048 C   0  0  0  0  0  0  0  0  0  0  0  0
   15.7927  -14.0384  -18.3399 C   0  0  0  0  0  0  0  0  0  0  0  0
   14.5823  -13.6113  -19.0408 N   0  0  0  0  0  0  0  0  0  0  0  0
   20.3906  -10.5654  -15.9315 C   0  0  0  0  0  0  0  0  0  0  0  0
   19.7795   -9.7466  -15.1979 O   0  0  0  0  0  0  0  0  0  0  0  0
   23.9276  -10.2924  -14.7870 C   0  0  0  0  0  0  0  0  0  0  0  0
   22.5252   -9.7406  -14.8896 C   0  0  2  0  0  0  0  0  0  0  0  0
   21.8010  -10.6196  -15.7894 N   0  0  0  0  0  0  0  0  0  0  0  0
   22.5085   -8.3751  -15.4780 C   0  0  0  0  0  0  0  0  0  0  0  0
   22.6937   -8.2229  -16.7116 O   0  0  0  0  0  0  0  0  0  0  0  0
   22.2861   -7.2311  -14.6699 N   0  0  0  0  0  0  0  0  0  0  0  0
   22.2889   -5.8644  -15.1696 C   0  0  1  0  0  0  0  0  0  0  0  0
   21.0175   -5.6368  -15.9263 C   0  0  0  0  0  0  0  0  0  0  0  0
   19.8448   -5.7063  -15.0113 C   0  0  0  0  0  0  0  0  0  0  0  0
   18.6014   -5.4814  -15.7727 C   0  0  0  0  0  0  0  0  0  0  0  0
   18.2554   -4.3334  -16.1143 O   0  0  0  0  0  0  0  0  0  0  0  0
   22.3265   -4.9499  -13.9683 C   0  0  0  0  0  0  0  0  0  0  0  0
   22.1578   -5.4306  -12.8410 O   0  0  0  0  0  0  0  0  0  0  0  0
   17.8206   -6.5821  -16.1034 O   0  0  0  0  0  0  0  0  0  0  0  0
   22.5439   -3.6132  -14.1370 O   0  0  0  0  0  0  0  0  0  0  0  0
  2  1  1  1
  3  2  1  0
  4  3  1  0
  5  4  1  0
  6  5  1  0
  7  6  1  0
  8  2  1  0
  8  9  2  0
 11 10  1  6
 11 12  1  0
 12  8  1  0
 13 11  1  0
 14 13  2  0
 15 13  1  0
 16 21  1  0
 16 15  1  0
 16 17  1  1
 18 17  1  0
 19 18  1  0
 20 19  2  0
 21 24  1  0
 22 21  2  0
 23 19  1  0
M  END
$$$$
