KAE.pdb
     RDKit          3D

 24 23  0  0  1  0  0  0  0  0999 V2000
   20.6119  -14.2296  -16.0624 N   0  0  0  0  0  0  0  0  0  0  0  0
   20.8564  -12.9989  -16.7256 C   0  0  1  0  0  0  0  0  0  0  0  0
   19.9712  -12.6431  -17.8569 C   0  0  0  0  0  0  0  0  0  0  0  0
   18.7784  -13.4672  -18.1095 C   0  0  0  0  0  0  0  0  0  0  0  0
   17.9134  -13.1382  -19.2622 C   0  0  0  0  0  0  0  0  0  0  0  0
   16.6932  -14.0332  -19.3959 C   0  0  0  0  0  0  0  0  0  0  0  0
   15.9212  -13.5731  -20.5496 N   0  0  0  0  0  0  0  0  0  0  0  0
   21.0740  -11.8418  -15.7836 C   0  0  0  0  0  0  0  0  0  0  0  0
   20.1461  -11.4374  -15.0368 O   0  0  0  0  0  0  0  0  0  0  0  0
   24.0259  -10.1488  -14.3922 C   0  0  0  0  0  0  0  0  0  0  0  0
   22.5497  -10.1118  -14.7104 C   0  0  2  0  0  0  0  0  0  0  0  0
   22.3127  -11.1568  -15.6894 N   0  0  0  0  0  0  0  0  0  0  0  0
   22.1466   -8.8175  -15.3214 C   0  0  0  0  0  0  0  0  0  0  0  0
   22.3084   -8.6297  -16.5534 O   0  0  0  0  0  0  0  0  0  0  0  0
   21.5785   -7.7816  -14.5369 N   0  0  0  0  0  0  0  0  0  0  0  0
   21.2628   -6.4537  -15.0414 C   0  0  1  0  0  0  0  0  0  0  0  0
   19.8534   -6.1266  -14.6573 C   0  0  0  0  0  0  0  0  0  0  0  0
   19.4745   -4.7769  -15.1592 C   0  0  0  0  0  0  0  0  0  0  0  0
   18.0638   -4.4979  -14.8299 C   0  0  0  0  0  0  0  0  0  0  0  0
   17.3667   -5.3363  -14.2254 O   0  0  0  0  0  0  0  0  0  0  0  0
   22.2031   -5.4842  -14.3657 C   0  0  0  0  0  0  0  0  0  0  0  0
   22.4836   -4.4225  -14.9353 O   0  0  0  0  0  0  0  0  0  0  0  0
   17.5262   -3.2740  -15.2090 O   0  0  0  0  0  0  0  0  0  0  0  0
   22.7301   -5.7866  -13.1437 O   0  0  0  0  0  0  0  0  0  0  0  0
  2  1  1  1
  3  2  1  0
  4  3  1  0
  5  4  1  0
  6  5  1  0
  7  6  1  0
  8  2  1  0
  8  9  2  0
 11 10  1  6
 11 12  1  0
 12  8  1  0
 13 11  1  0
 14 13  2  0
 15 13  1  0
 16 21  1  0
 16 15  1  0
 16 17  1  1
 18 17  1  0
 19 18  1  0
 20 19  2  0
 21 24  1  0
 22 21  2  0
 23 19  1  0
M  END
$$$$
