KAE.pdb
     RDKit          3D

 24 23  0  0  1  0  0  0  0  0999 V2000
   15.1900  -14.7058  -13.2572 N   0  0  0  0  0  0  0  0  0  0  0  0
   14.7835  -13.3917  -13.6067 C   0  0  1  0  0  0  0  0  0  0  0  0
   13.5432  -12.8718  -12.9892 C   0  0  0  0  0  0  0  0  0  0  0  0
   12.5340  -13.8304  -12.5110 C   0  0  0  0  0  0  0  0  0  0  0  0
   11.2236  -13.3207  -12.0550 C   0  0  0  0  0  0  0  0  0  0  0  0
   10.2418  -14.4083  -11.6541 C   0  0  0  0  0  0  0  0  0  0  0  0
    9.0009  -13.7610  -11.2300 N   0  0  0  0  0  0  0  0  0  0  0  0
   15.9061  -12.3858  -13.5698 C   0  0  0  0  0  0  0  0  0  0  0  0
   16.6136  -12.2494  -12.5388 O   0  0  0  0  0  0  0  0  0  0  0  0
   17.8839  -10.5985  -16.0729 C   0  0  0  0  0  0  0  0  0  0  0  0
   17.3489  -10.6393  -14.6608 C   0  0  2  0  0  0  0  0  0  0  0  0
   16.2205  -11.5521  -14.6736 N   0  0  0  0  0  0  0  0  0  0  0  0
   16.8521   -9.3097  -14.2177 C   0  0  0  0  0  0  0  0  0  0  0  0
   15.6611   -8.9792  -14.4444 O   0  0  0  0  0  0  0  0  0  0  0  0
   17.7009   -8.3988  -13.5387 N   0  0  0  0  0  0  0  0  0  0  0  0
   17.2583   -7.1299  -12.9806 C   0  0  1  0  0  0  0  0  0  0  0  0
   17.4535   -7.1739  -11.4971 C   0  0  0  0  0  0  0  0  0  0  0  0
   17.0946   -5.8656  -10.8833 C   0  0  0  0  0  0  0  0  0  0  0  0
   17.2835   -5.9294   -9.4216 C   0  0  0  0  0  0  0  0  0  0  0  0
   17.7502   -6.9495   -8.8775 O   0  0  0  0  0  0  0  0  0  0  0  0
   18.1378   -6.0523  -13.5689 C   0  0  0  0  0  0  0  0  0  0  0  0
   19.2682   -6.3522  -13.9720 O   0  0  0  0  0  0  0  0  0  0  0  0
   16.9293   -4.8223   -8.6605 O   0  0  0  0  0  0  0  0  0  0  0  0
   17.6807   -4.7689  -13.6490 O   0  0  0  0  0  0  0  0  0  0  0  0
  2  1  1  1
  3  2  1  0
  4  3  1  0
  5  4  1  0
  6  5  1  0
  7  6  1  0
  8  2  1  0
  8  9  2  0
 11 10  1  6
 11 12  1  0
 12  8  1  0
 13 11  1  0
 14 13  2  0
 15 13  1  0
 16 21  1  0
 16 15  1  0
 16 17  1  1
 18 17  1  0
 19 18  1  0
 20 19  2  0
 21 24  1  0
 22 21  2  0
 23 19  1  0
M  END
$$$$
