KAE.pdb
     RDKit          3D

 24 23  0  0  1  0  0  0  0  0999 V2000
   27.8451  -15.4115  -16.6415 N   0  0  0  0  0  0  0  0  0  0  0  0
   26.8341  -14.5635  -17.1638 C   0  0  1  0  0  0  0  0  0  0  0  0
   25.4872  -15.1443  -17.3600 C   0  0  0  0  0  0  0  0  0  0  0  0
   25.3706  -16.4605  -18.0078 C   0  0  0  0  0  0  0  0  0  0  0  0
   24.0243  -17.0154  -18.2620 C   0  0  0  0  0  0  0  0  0  0  0  0
   24.0323  -18.3608  -18.9672 C   0  0  0  0  0  0  0  0  0  0  0  0
   22.6449  -18.7967  -19.1216 N   0  0  0  0  0  0  0  0  0  0  0  0
   26.7827  -13.2107  -16.4999 C   0  0  0  0  0  0  0  0  0  0  0  0
   26.6179  -13.1102  -15.2570 O   0  0  0  0  0  0  0  0  0  0  0  0
   28.0754   -9.9536  -16.9083 C   0  0  0  0  0  0  0  0  0  0  0  0
   26.7996  -10.6980  -16.5920 C   0  0  2  0  0  0  0  0  0  0  0  0
   26.9134  -11.9988  -17.2257 N   0  0  0  0  0  0  0  0  0  0  0  0
   25.6058  -10.0186  -17.1614 C   0  0  0  0  0  0  0  0  0  0  0  0
   25.3269  -10.1589  -18.3786 O   0  0  0  0  0  0  0  0  0  0  0  0
   24.7679   -9.2087  -16.3531 N   0  0  0  0  0  0  0  0  0  0  0  0
   23.5767   -8.5271  -16.8369 C   0  0  1  0  0  0  0  0  0  0  0  0
   22.7438   -8.1384  -15.6554 C   0  0  0  0  0  0  0  0  0  0  0  0
   21.5180   -7.4160  -16.0947 C   0  0  0  0  0  0  0  0  0  0  0  0
   20.6975   -7.0620  -14.9209 C   0  0  0  0  0  0  0  0  0  0  0  0
   20.4040   -5.8753  -14.6760 O   0  0  0  0  0  0  0  0  0  0  0  0
   24.0363   -7.2814  -17.5564 C   0  0  0  0  0  0  0  0  0  0  0  0
   25.0833   -6.7303  -17.1957 O   0  0  0  0  0  0  0  0  0  0  0  0
   20.2558   -8.0847  -14.0905 O   0  0  0  0  0  0  0  0  0  0  0  0
   23.2977   -6.7800  -18.5887 O   0  0  0  0  0  0  0  0  0  0  0  0
  2  1  1  1
  3  2  1  0
  4  3  1  0
  5  4  1  0
  6  5  1  0
  7  6  1  0
  8  2  1  0
  8  9  2  0
 11 10  1  6
 11 12  1  0
 12  8  1  0
 13 11  1  0
 14 13  2  0
 15 13  1  0
 16 21  1  0
 16 15  1  0
 16 17  1  1
 18 17  1  0
 19 18  1  0
 20 19  2  0
 21 24  1  0
 22 21  2  0
 23 19  1  0
M  END
$$$$
