KAE.pdb
     RDKit          3D

 24 23  0  0  1  0  0  0  0  0999 V2000
   28.3475  -19.9332  -14.1891 N   0  0  0  0  0  0  0  0  0  0  0  0
   27.4670  -20.8576  -14.8091 C   0  0  1  0  0  0  0  0  0  0  0  0
   28.0710  -21.9966  -15.5357 C   0  0  0  0  0  0  0  0  0  0  0  0
   28.6125  -21.7691  -16.8851 C   0  0  0  0  0  0  0  0  0  0  0  0
   27.8758  -20.8830  -17.8109 C   0  0  0  0  0  0  0  0  0  0  0  0
   28.4801  -20.8016  -19.2023 C   0  0  0  0  0  0  0  0  0  0  0  0
   27.7539  -19.7755  -19.9495 N   0  0  0  0  0  0  0  0  0  0  0  0
   26.3242  -21.2854  -13.9234 C   0  0  0  0  0  0  0  0  0  0  0  0
   25.3863  -21.9889  -14.3789 O   0  0  0  0  0  0  0  0  0  0  0  0
   25.4964  -20.9848  -10.3017 C   0  0  0  0  0  0  0  0  0  0  0  0
   25.0899  -21.2446  -11.7332 C   0  0  2  0  0  0  0  0  0  0  0  0
   26.2435  -20.9246  -12.5539 N   0  0  0  0  0  0  0  0  0  0  0  0
   23.9706  -20.3638  -12.1601 C   0  0  0  0  0  0  0  0  0  0  0  0
   24.1908  -19.1547  -12.4226 O   0  0  0  0  0  0  0  0  0  0  0  0
   22.6486  -20.8633  -12.2785 N   0  0  0  0  0  0  0  0  0  0  0  0
   21.5888  -20.2019  -13.0249 C   0  0  1  0  0  0  0  0  0  0  0  0
   21.8115  -20.4545  -14.4834 C   0  0  0  0  0  0  0  0  0  0  0  0
   20.7397  -19.8140  -15.2947 C   0  0  0  0  0  0  0  0  0  0  0  0
   20.9717  -20.0764  -16.7278 C   0  0  0  0  0  0  0  0  0  0  0  0
   20.5967  -19.2667  -17.5986 O   0  0  0  0  0  0  0  0  0  0  0  0
   20.2838  -20.8330  -12.6015 C   0  0  0  0  0  0  0  0  0  0  0  0
   19.2996  -20.1084  -12.4099 O   0  0  0  0  0  0  0  0  0  0  0  0
   21.6211  -21.2507  -17.0881 O   0  0  0  0  0  0  0  0  0  0  0  0
   20.2039  -22.1852  -12.4354 O   0  0  0  0  0  0  0  0  0  0  0  0
  2  1  1  1
  3  2  1  0
  4  3  1  0
  5  4  1  0
  6  5  1  0
  7  6  1  0
  8  2  1  0
  8  9  2  0
 11 10  1  1
 11 12  1  0
 12  8  1  0
 13 11  1  0
 14 13  2  0
 15 13  1  0
 16 21  1  0
 16 15  1  0
 16 17  1  6
 18 17  1  0
 19 18  1  0
 20 19  2  0
 21 24  1  0
 22 21  2  0
 23 19  1  0
M  END
$$$$
