KAE.pdb
     RDKit          3D

 24 23  0  0  1  0  0  0  0  0999 V2000
   27.6812  -21.0436  -13.8925 N   0  0  0  0  0  0  0  0  0  0  0  0
   27.9235  -19.6577  -13.7057 C   0  0  1  0  0  0  0  0  0  0  0  0
   29.2627  -19.1420  -14.0670 C   0  0  0  0  0  0  0  0  0  0  0  0
   30.4527  -19.8509  -13.5699 C   0  0  0  0  0  0  0  0  0  0  0  0
   30.6058  -21.2898  -13.8719 C   0  0  0  0  0  0  0  0  0  0  0  0
   31.8313  -21.9279  -13.2406 C   0  0  0  0  0  0  0  0  0  0  0  0
   31.8786  -23.3272  -13.6628 N   0  0  0  0  0  0  0  0  0  0  0  0
   26.8132  -18.7787  -14.2233 C   0  0  0  0  0  0  0  0  0  0  0  0
   26.8622  -17.5299  -14.0807 O   0  0  0  0  0  0  0  0  0  0  0  0
   24.4302  -18.7186  -16.8230 C   0  0  0  0  0  0  0  0  0  0  0  0
   24.5858  -18.4542  -15.3439 C   0  0  2  0  0  0  0  0  0  0  0  0
   25.6725  -19.3004  -14.8860 N   0  0  0  0  0  0  0  0  0  0  0  0
   23.3655  -18.8305  -14.5822 C   0  0  0  0  0  0  0  0  0  0  0  0
   23.2749  -18.5411  -13.3627 O   0  0  0  0  0  0  0  0  0  0  0  0
   22.2924  -19.5147  -15.2079 N   0  0  0  0  0  0  0  0  0  0  0  0
   21.0356  -19.8392  -14.5501 C   0  0  1  0  0  0  0  0  0  0  0  0
   19.9702  -19.9462  -15.5962 C   0  0  0  0  0  0  0  0  0  0  0  0
   18.6677  -20.3209  -14.9795 C   0  0  0  0  0  0  0  0  0  0  0  0
   17.6362  -20.4489  -16.0265 C   0  0  0  0  0  0  0  0  0  0  0  0
   17.9196  -20.2939  -17.2307 O   0  0  0  0  0  0  0  0  0  0  0  0
   21.2156  -21.1809  -13.8805 C   0  0  0  0  0  0  0  0  0  0  0  0
   21.9860  -22.0065  -14.3855 O   0  0  0  0  0  0  0  0  0  0  0  0
   16.3357  -20.7484  -15.6398 O   0  0  0  0  0  0  0  0  0  0  0  0
   20.5317  -21.4669  -12.7346 O   0  0  0  0  0  0  0  0  0  0  0  0
  2  1  1  6
  3  2  1  0
  4  3  1  0
  5  4  1  0
  6  5  1  0
  7  6  1  0
  8  2  1  0
  8  9  2  0
 11 10  1  6
 11 12  1  0
 12  8  1  0
 13 11  1  0
 14 13  2  0
 15 13  1  0
 16 21  1  0
 16 15  1  0
 16 17  1  6
 18 17  1  0
 19 18  1  0
 20 19  2  0
 21 24  1  0
 22 21  2  0
 23 19  1  0
M  END
$$$$
