KAE.pdb
     RDKit          3D

 24 23  0  0  1  0  0  0  0  0999 V2000
   13.0806   -8.2763   -8.5037 N   0  0  0  0  0  0  0  0  0  0  0  0
   14.2554   -8.6456   -9.2091 C   0  0  1  0  0  0  0  0  0  0  0  0
   14.1308   -9.6958  -10.2442 C   0  0  0  0  0  0  0  0  0  0  0  0
   13.5213  -10.9840   -9.8769 C   0  0  0  0  0  0  0  0  0  0  0  0
   13.3327  -12.0099  -10.9242 C   0  0  0  0  0  0  0  0  0  0  0  0
   12.6113  -13.2581  -10.4453 C   0  0  0  0  0  0  0  0  0  0  0  0
   12.4694  -14.1621  -11.5861 N   0  0  0  0  0  0  0  0  0  0  0  0
   15.0661   -7.4667   -9.6848 C   0  0  0  0  0  0  0  0  0  0  0  0
   14.5871   -6.6485  -10.5115 O   0  0  0  0  0  0  0  0  0  0  0  0
   17.4624   -5.2241   -8.5289 C   0  0  0  0  0  0  0  0  0  0  0  0
   17.1782   -6.1030   -9.7241 C   0  0  2  0  0  0  0  0  0  0  0  0
   16.3891   -7.2194   -9.2366 N   0  0  0  0  0  0  0  0  0  0  0  0
   18.4260   -6.6535  -10.3165 C   0  0  0  0  0  0  0  0  0  0  0  0
   19.0508   -7.5676   -9.7220 O   0  0  0  0  0  0  0  0  0  0  0  0
   18.9305   -6.1650  -11.5486 N   0  0  0  0  0  0  0  0  0  0  0  0
   20.1287   -6.6726  -12.2000 C   0  0  1  0  0  0  0  0  0  0  0  0
   19.7616   -7.1166  -13.5816 C   0  0  0  0  0  0  0  0  0  0  0  0
   20.9744   -7.5412  -14.3340 C   0  0  0  0  0  0  0  0  0  0  0  0
   20.5809   -8.1229  -15.6314 C   0  0  0  0  0  0  0  0  0  0  0  0
   19.3803   -8.2359  -15.9477 O   0  0  0  0  0  0  0  0  0  0  0  0
   21.1090   -5.5271  -12.2867 C   0  0  0  0  0  0  0  0  0  0  0  0
   20.6776   -4.3688  -12.3367 O   0  0  0  0  0  0  0  0  0  0  0  0
   21.5822   -8.5436  -16.4980 O   0  0  0  0  0  0  0  0  0  0  0  0
   22.4501   -5.7792  -12.3095 O   0  0  0  0  0  0  0  0  0  0  0  0
  2  1  1  6
  3  2  1  0
  4  3  1  0
  5  4  1  0
  6  5  1  0
  7  6  1  0
  8  2  1  0
  8  9  2  0
 11 10  1  1
 11 12  1  0
 12  8  1  0
 13 11  1  0
 14 13  2  0
 15 13  1  0
 16 21  1  0
 16 15  1  0
 16 17  1  6
 18 17  1  0
 19 18  1  0
 20 19  2  0
 21 24  1  0
 22 21  2  0
 23 19  1  0
M  END
$$$$
