KAE.pdb
     RDKit          3D

 24 23  0  0  1  0  0  0  0  0999 V2000
   33.7056  -29.6976  -18.3396 N   0  0  0  0  0  0  0  0  0  0  0  0
   32.4876  -29.9210  -19.0329 C   0  0  1  0  0  0  0  0  0  0  0  0
   32.4456  -31.0404  -19.9999 C   0  0  0  0  0  0  0  0  0  0  0  0
   33.6716  -31.3866  -20.7367 C   0  0  0  0  0  0  0  0  0  0  0  0
   33.6060  -32.4269  -21.7849 C   0  0  0  0  0  0  0  0  0  0  0  0
   34.9539  -32.7843  -22.3875 C   0  0  0  0  0  0  0  0  0  0  0  0
   34.7409  -33.8479  -23.3685 N   0  0  0  0  0  0  0  0  0  0  0  0
   31.2735  -29.8910  -18.1394 C   0  0  0  0  0  0  0  0  0  0  0  0
   31.3771  -30.1153  -16.9061 O   0  0  0  0  0  0  0  0  0  0  0  0
   27.9308  -28.4270  -18.3865 C   0  0  0  0  0  0  0  0  0  0  0  0
   28.8260  -29.4647  -17.7511 C   0  0  2  0  0  0  0  0  0  0  0  0
   29.9713  -29.6149  -18.6300 N   0  0  0  0  0  0  0  0  0  0  0  0
   28.1554  -30.7879  -17.6493 C   0  0  0  0  0  0  0  0  0  0  0  0
   28.3675  -31.6659  -18.5230 O   0  0  0  0  0  0  0  0  0  0  0  0
   27.2739  -31.0827  -16.5782 N   0  0  0  0  0  0  0  0  0  0  0  0
   26.6062  -32.3631  -16.3980 C   0  0  1  0  0  0  0  0  0  0  0  0
   25.9431  -32.3639  -15.0559 C   0  0  0  0  0  0  0  0  0  0  0  0
   25.1363  -33.6017  -14.8720 C   0  0  0  0  0  0  0  0  0  0  0  0
   24.4607  -33.5692  -13.5609 C   0  0  0  0  0  0  0  0  0  0  0  0
   25.1109  -33.6515  -12.5004 O   0  0  0  0  0  0  0  0  0  0  0  0
   25.5541  -32.4735  -17.4757 C   0  0  0  0  0  0  0  0  0  0  0  0
   25.0188  -31.4428  -17.9015 O   0  0  0  0  0  0  0  0  0  0  0  0
   23.0772  -33.4432  -13.5332 O   0  0  0  0  0  0  0  0  0  0  0  0
   25.2067  -33.6994  -17.9648 O   0  0  0  0  0  0  0  0  0  0  0  0
  2  1  1  1
  3  2  1  0
  4  3  1  0
  5  4  1  0
  6  5  1  0
  7  6  1  0
  8  2  1  0
  8  9  2  0
 11 10  1  6
 11 12  1  0
 12  8  1  0
 13 11  1  0
 14 13  2  0
 15 13  1  0
 16 21  1  0
 16 15  1  0
 16 17  1  1
 18 17  1  0
 19 18  1  0
 20 19  2  0
 21 24  1  0
 22 21  2  0
 23 19  1  0
M  END
$$$$
