KAE.pdb
     RDKit          3D

 24 23  0  0  1  0  0  0  0  0999 V2000
   27.4799  -22.4986  -16.2614 N   0  0  0  0  0  0  0  0  0  0  0  0
   26.9229  -21.3457  -15.6492 C   0  0  1  0  0  0  0  0  0  0  0  0
   26.4654  -20.2530  -16.5362 C   0  0  0  0  0  0  0  0  0  0  0  0
   27.3573  -19.7942  -17.6131 C   0  0  0  0  0  0  0  0  0  0  0  0
   28.6696  -19.2148  -17.2562 C   0  0  0  0  0  0  0  0  0  0  0  0
   29.4664  -18.7073  -18.4458 C   0  0  0  0  0  0  0  0  0  0  0  0
   30.7936  -18.3219  -17.9677 N   0  0  0  0  0  0  0  0  0  0  0  0
   25.9197  -21.6642  -14.5696 C   0  0  0  0  0  0  0  0  0  0  0  0
   24.9228  -22.3917  -14.8126 O   0  0  0  0  0  0  0  0  0  0  0  0
   25.5897  -20.8953  -10.9313 C   0  0  0  0  0  0  0  0  0  0  0  0
   25.0146  -21.3813  -12.2408 C   0  0  2  0  0  0  0  0  0  0  0  0
   26.0407  -21.1699  -13.2454 N   0  0  0  0  0  0  0  0  0  0  0  0
   23.8163  -20.5990  -12.6442 C   0  0  0  0  0  0  0  0  0  0  0  0
   23.9423  -19.4009  -13.0022 O   0  0  0  0  0  0  0  0  0  0  0  0
   22.5230  -21.1808  -12.6337 N   0  0  0  0  0  0  0  0  0  0  0  0
   21.3060  -20.4745  -13.0045 C   0  0  1  0  0  0  0  0  0  0  0  0
   20.6107  -21.2618  -14.0711 C   0  0  0  0  0  0  0  0  0  0  0  0
   21.3778  -21.2063  -15.3461 C   0  0  0  0  0  0  0  0  0  0  0  0
   20.7288  -22.0605  -16.3588 C   0  0  0  0  0  0  0  0  0  0  0  0
   21.1185  -22.0629  -17.5431 O   0  0  0  0  0  0  0  0  0  0  0  0
   20.4310  -20.4166  -11.7750 C   0  0  0  0  0  0  0  0  0  0  0  0
   19.4472  -19.6668  -11.7717 O   0  0  0  0  0  0  0  0  0  0  0  0
   19.6692  -22.8670  -15.9622 O   0  0  0  0  0  0  0  0  0  0  0  0
   20.7323  -21.1855  -10.6884 O   0  0  0  0  0  0  0  0  0  0  0  0
  2  1  1  6
  3  2  1  0
  4  3  1  0
  5  4  1  0
  6  5  1  0
  7  6  1  0
  8  2  1  0
  8  9  2  0
 11 10  1  1
 11 12  1  0
 12  8  1  0
 13 11  1  0
 14 13  2  0
 15 13  1  0
 16 21  1  0
 16 15  1  0
 16 17  1  6
 18 17  1  0
 19 18  1  0
 20 19  2  0
 21 24  1  0
 22 21  2  0
 23 19  1  0
M  END
$$$$
