KAE.pdb
     RDKit          3D

 24 23  0  0  1  0  0  0  0  0999 V2000
   19.5340  -11.9497  -17.1514 N   0  0  0  0  0  0  0  0  0  0  0  0
   18.7973  -11.1779  -16.2156 C   0  0  1  0  0  0  0  0  0  0  0  0
   17.6890  -11.8466  -15.4983 C   0  0  0  0  0  0  0  0  0  0  0  0
   16.7352  -12.6604  -16.2690 C   0  0  0  0  0  0  0  0  0  0  0  0
   15.5861  -13.2706  -15.5674 C   0  0  0  0  0  0  0  0  0  0  0  0
   14.6801  -14.0961  -16.4649 C   0  0  0  0  0  0  0  0  0  0  0  0
   13.5584  -14.5727  -15.6567 N   0  0  0  0  0  0  0  0  0  0  0  0
   19.6670  -10.3629  -15.2922 C   0  0  0  0  0  0  0  0  0  0  0  0
   19.1566   -9.6559  -14.3856 O   0  0  0  0  0  0  0  0  0  0  0  0
   23.3309   -9.9382  -14.7528 C   0  0  0  0  0  0  0  0  0  0  0  0
   21.9072   -9.4590  -14.5943 C   0  0  2  0  0  0  0  0  0  0  0  0
   21.0820  -10.3468  -15.3926 N   0  0  0  0  0  0  0  0  0  0  0  0
   21.7256   -8.0786  -15.1164 C   0  0  0  0  0  0  0  0  0  0  0  0
   21.6961   -7.8774  -16.3565 O   0  0  0  0  0  0  0  0  0  0  0  0
   21.5838   -6.9748  -14.2374 N   0  0  0  0  0  0  0  0  0  0  0  0
   21.4437   -5.5941  -14.6751 C   0  0  1  0  0  0  0  0  0  0  0  0
   20.0000   -5.2117  -14.5731 C   0  0  0  0  0  0  0  0  0  0  0  0
   19.8073   -3.7879  -14.9642 C   0  0  0  0  0  0  0  0  0  0  0  0
   18.3789   -3.4314  -14.8698 C   0  0  0  0  0  0  0  0  0  0  0  0
   17.5293   -4.2702  -14.5106 O   0  0  0  0  0  0  0  0  0  0  0  0
   22.2550   -4.7413  -13.7290 C   0  0  0  0  0  0  0  0  0  0  0  0
   22.5147   -5.1756  -12.6002 O   0  0  0  0  0  0  0  0  0  0  0  0
   17.9989   -2.1340  -15.1906 O   0  0  0  0  0  0  0  0  0  0  0  0
   22.6896   -3.5098  -14.1253 O   0  0  0  0  0  0  0  0  0  0  0  0
  2  1  1  1
  3  2  1  0
  4  3  1  0
  5  4  1  0
  6  5  1  0
  7  6  1  0
  8  2  1  0
  8  9  2  0
 11 10  1  6
 11 12  1  0
 12  8  1  0
 13 11  1  0
 14 13  2  0
 15 13  1  0
 16 21  1  0
 16 15  1  0
 16 17  1  1
 18 17  1  0
 19 18  1  0
 20 19  2  0
 21 24  1  0
 22 21  2  0
 23 19  1  0
M  END
$$$$
