KAE.pdb
     RDKit          3D

 24 23  0  0  1  0  0  0  0  0999 V2000
   25.9284  -22.1992  -11.6873 N   0  0  0  0  0  0  0  0  0  0  0  0
   25.2028  -21.0063  -11.9411 C   0  0  1  0  0  0  0  0  0  0  0  0
   24.7299  -20.2308  -10.7727 C   0  0  0  0  0  0  0  0  0  0  0  0
   23.3988  -20.5254  -10.2185 C   0  0  0  0  0  0  0  0  0  0  0  0
   22.3108  -20.9145  -11.1403 C   0  0  0  0  0  0  0  0  0  0  0  0
   20.9342  -20.9381  -10.4984 C   0  0  0  0  0  0  0  0  0  0  0  0
   19.9734  -21.3791  -11.5088 N   0  0  0  0  0  0  0  0  0  0  0  0
   25.8367  -20.1294  -12.9911 C   0  0  0  0  0  0  0  0  0  0  0  0
   25.2097  -19.1539  -13.4784 O   0  0  0  0  0  0  0  0  0  0  0  0
   29.2184  -19.7919  -14.5005 C   0  0  0  0  0  0  0  0  0  0  0  0
   27.7276  -19.5523  -14.5448 C   0  0  2  0  0  0  0  0  0  0  0  0
   27.1498  -20.3515  -13.4798 N   0  0  0  0  0  0  0  0  0  0  0  0
   27.1310  -20.0073  -15.8285 C   0  0  0  0  0  0  0  0  0  0  0  0
   27.2081  -21.2169  -16.1606 O   0  0  0  0  0  0  0  0  0  0  0  0
   26.4712  -19.0976  -16.6936 N   0  0  0  0  0  0  0  0  0  0  0  0
   25.3968  -19.4674  -17.6028 C   0  0  1  0  0  0  0  0  0  0  0  0
   24.2268  -19.9244  -16.7884 C   0  0  0  0  0  0  0  0  0  0  0  0
   23.1078  -20.3501  -17.6737 C   0  0  0  0  0  0  0  0  0  0  0  0
   21.9391  -20.7289  -16.8569 C   0  0  0  0  0  0  0  0  0  0  0  0
   21.2873  -19.8705  -16.2301 O   0  0  0  0  0  0  0  0  0  0  0  0
   25.0157  -18.2251  -18.3723 C   0  0  0  0  0  0  0  0  0  0  0  0
   24.8031  -18.3121  -19.5878 O   0  0  0  0  0  0  0  0  0  0  0  0
   21.5781  -22.0694  -16.8014 O   0  0  0  0  0  0  0  0  0  0  0  0
   24.9110  -17.0285  -17.7245 O   0  0  0  0  0  0  0  0  0  0  0  0
  2  1  1  1
  3  2  1  0
  4  3  1  0
  5  4  1  0
  6  5  1  0
  7  6  1  0
  8  2  1  0
  8  9  2  0
 11 10  1  6
 11 12  1  0
 12  8  1  0
 13 11  1  0
 14 13  2  0
 15 13  1  0
 16 21  1  0
 16 15  1  0
 16 17  1  1
 18 17  1  0
 19 18  1  0
 20 19  2  0
 21 24  1  0
 22 21  2  0
 23 19  1  0
M  END
$$$$
