PHV.pdb
     RDKit          3D

 25 26  0  0  1  0  0  0  0  0999 V2000
   17.9768  -14.9755  -17.4475 N   0  0  0  0  0  0  0  0  0  0  0  0
   17.4406  -16.1327  -18.1371 C   0  0  0  0  0  0  0  0  0  0  0  0
   17.2511  -15.5928  -19.5412 C   0  0  0  0  0  0  0  0  0  0  0  0
   18.5496  -14.8388  -19.7502 C   0  0  0  0  0  0  0  0  0  0  0  0
   18.9865  -14.4997  -18.3558 C   0  0  1  0  0  0  0  0  0  0  0  0
   19.1686  -13.0293  -18.2828 C   0  0  0  0  0  0  0  0  0  0  0  0
   20.0019  -12.4656  -19.0297 O   0  0  0  0  0  0  0  0  0  0  0  0
   18.3908  -12.2996  -17.3657 N   0  0  0  0  0  0  0  0  0  0  0  0
   18.6015  -10.8929  -17.2120 C   0  0  1  0  0  0  0  0  0  0  0  0
   17.2300  -10.2502  -17.2103 C   0  0  0  0  0  0  0  0  0  0  0  0
   16.6238  -10.1207  -18.5415 C   0  0  0  0  0  0  0  0  0  0  0  0
   16.9417   -9.2506  -19.5406 C   0  0  0  0  0  0  0  0  0  0  0  0
   16.1133   -9.4784  -20.5817 N   0  0  0  0  0  0  0  0  0  0  0  0
   15.2821  -10.4764  -20.2510 C   0  0  0  0  0  0  0  0  0  0  0  0
   15.5855  -10.8766  -19.0052 N   0  0  0  0  0  0  0  0  0  0  0  0
   19.2940  -10.5367  -15.9715 C   0  0  0  0  0  0  0  0  0  0  0  0
   19.0457  -11.1783  -14.9271 O   0  0  0  0  0  0  0  0  0  0  0  0
   23.2530   -9.7826  -15.7748 C   0  0  0  0  0  0  0  0  0  0  0  0
   22.3035  -10.1136  -14.6691 C   0  0  1  0  0  0  0  0  0  0  0  0
   22.9963  -10.0796  -13.3380 C   0  0  0  0  0  0  0  0  0  0  0  0
   21.0667   -9.2647  -14.7099 C   0  0  2  0  0  0  0  0  0  0  0  0
   20.2587   -9.4800  -15.8685 N   0  0  0  0  0  0  0  0  0  0  0  0
   21.4149   -7.8437  -14.5351 C   0  0  0  0  0  0  0  0  0  0  0  0
   21.2085   -6.8807  -15.5038 O   0  0  0  0  0  0  0  0  0  0  0  0
   21.9280   -7.4854  -13.4461 O   0  0  0  0  0  0  0  0  0  0  0  0
  1  5  1  0
  1  2  1  0
  2  3  1  0
  4  3  1  0
  5  4  1  0
  5  6  1  6
  6  7  2  0
  8  6  1  0
  9  8  1  0
  9 10  1  1
 11 10  1  0
 11 15  1  0
 12 13  1  0
 12 11  2  0
 13 14  1  0
 14 15  2  0
 16  9  1  0
 17 16  2  0
 19 20  1  1
 19 21  1  0
 19 18  1  0
 21 22  1  6
 22 16  1  0
 23 21  1  0
 23 24  1  0
 25 23  2  0
M  END
$$$$
