PHV.pdb
     RDKit          3D

 25 26  0  0  1  0  0  0  0  0999 V2000
   24.6034  -20.9283  -11.4075 N   0  0  0  0  0  0  0  0  0  0  0  0
   24.1157  -20.8125  -12.7680 C   0  0  0  0  0  0  0  0  0  0  0  0
   25.3714  -20.3985  -13.5101 C   0  0  0  0  0  0  0  0  0  0  0  0
   26.3977  -21.3398  -12.9110 C   0  0  0  0  0  0  0  0  0  0  0  0
   25.8235  -21.6747  -11.5662 C   0  0  1  0  0  0  0  0  0  0  0  0
   26.8384  -21.3286  -10.5411 C   0  0  0  0  0  0  0  0  0  0  0  0
   27.9309  -21.9414  -10.5124 O   0  0  0  0  0  0  0  0  0  0  0  0
   26.5421  -20.3092   -9.6182 N   0  0  0  0  0  0  0  0  0  0  0  0
   27.5460  -19.8628   -8.7017 C   0  0  1  0  0  0  0  0  0  0  0  0
   27.3884  -18.3607   -8.5893 C   0  0  0  0  0  0  0  0  0  0  0  0
   28.3982  -17.7106   -7.7442 C   0  0  0  0  0  0  0  0  0  0  0  0
   29.7097  -17.4661   -8.0203 C   0  0  0  0  0  0  0  0  0  0  0  0
   30.2642  -16.8622   -6.9479 N   0  0  0  0  0  0  0  0  0  0  0  0
   29.3216  -16.7248   -6.0051 C   0  0  0  0  0  0  0  0  0  0  0  0
   28.1765  -17.2403   -6.4816 N   0  0  0  0  0  0  0  0  0  0  0  0
   27.4245  -20.4539   -7.3671 C   0  0  0  0  0  0  0  0  0  0  0  0
   26.2920  -20.7641   -6.9368 O   0  0  0  0  0  0  0  0  0  0  0  0
   30.3868  -19.9650   -4.2437 C   0  0  0  0  0  0  0  0  0  0  0  0
   29.6998  -21.2812   -4.4156 C   0  0  1  0  0  0  0  0  0  0  0  0
   29.5657  -21.9928   -3.1008 C   0  0  0  0  0  0  0  0  0  0  0  0
   28.3970  -21.1499   -5.1485 C   0  0  2  0  0  0  0  0  0  0  0  0
   28.5387  -20.7074   -6.4997 N   0  0  0  0  0  0  0  0  0  0  0  0
   27.4628  -20.3042   -4.3850 C   0  0  0  0  0  0  0  0  0  0  0  0
   26.7173  -20.7606   -3.3154 O   0  0  0  0  0  0  0  0  0  0  0  0
   27.3353  -19.1013   -4.7233 O   0  0  0  0  0  0  0  0  0  0  0  0
  1  5  1  0
  1  2  1  0
  2  3  1  0
  4  3  1  0
  5  4  1  0
  5  6  1  1
  6  7  2  0
  8  6  1  0
  9  8  1  0
  9 10  1  1
 11 10  1  0
 11 15  1  0
 12 13  1  0
 12 11  2  0
 13 14  1  0
 14 15  2  0
 16  9  1  0
 17 16  2  0
 19 20  1  1
 19 21  1  0
 19 18  1  0
 21 22  1  6
 22 16  1  0
 23 21  1  0
 23 24  1  0
 25 23  2  0
M  END
$$$$
