PHV.pdb
     RDKit          3D

 25 26  0  0  1  0  0  0  0  0999 V2000
   18.8967  -24.7791  -10.1224 N   0  0  0  0  0  0  0  0  0  0  0  0
   18.8641  -24.5773  -11.5578 C   0  0  0  0  0  0  0  0  0  0  0  0
   17.4001  -24.2583  -11.7898 C   0  0  0  0  0  0  0  0  0  0  0  0
   17.1203  -23.2926  -10.6552 C   0  0  0  0  0  0  0  0  0  0  0  0
   18.1462  -23.6573   -9.6232 C   0  0  1  0  0  0  0  0  0  0  0  0
   17.4297  -23.9693   -8.3624 C   0  0  0  0  0  0  0  0  0  0  0  0
   16.7740  -23.0748   -7.7793 O   0  0  0  0  0  0  0  0  0  0  0  0
   17.5073  -25.2770   -7.8501 N   0  0  0  0  0  0  0  0  0  0  0  0
   16.7636  -25.6302   -6.6800 C   0  0  1  0  0  0  0  0  0  0  0  0
   15.7794  -26.7009   -7.1029 C   0  0  0  0  0  0  0  0  0  0  0  0
   14.6378  -26.1976   -7.8775 C   0  0  0  0  0  0  0  0  0  0  0  0
   13.5011  -25.5973   -7.4261 C   0  0  0  0  0  0  0  0  0  0  0  0
   12.7191  -25.3143   -8.4893 N   0  0  0  0  0  0  0  0  0  0  0  0
   13.3473  -25.7276   -9.5988 C   0  0  0  0  0  0  0  0  0  0  0  0
   14.5216  -26.2694   -9.2362 N   0  0  0  0  0  0  0  0  0  0  0  0
   17.5952  -26.1526   -5.5934 C   0  0  0  0  0  0  0  0  0  0  0  0
   18.7650  -26.5193   -5.8410 O   0  0  0  0  0  0  0  0  0  0  0  0
   16.0607  -27.0618   -1.6209 C   0  0  0  0  0  0  0  0  0  0  0  0
   17.4376  -26.5119   -1.8090 C   0  0  1  0  0  0  0  0  0  0  0  0
   18.3554  -26.9765   -0.7159 C   0  0  0  0  0  0  0  0  0  0  0  0
   17.9749  -26.7848   -3.1833 C   0  0  2  0  0  0  0  0  0  0  0  0
   17.1519  -26.2758   -4.2346 N   0  0  0  0  0  0  0  0  0  0  0  0
   18.2555  -28.2218   -3.3475 C   0  0  0  0  0  0  0  0  0  0  0  0
   19.4501  -28.8142   -2.9862 O   0  0  0  0  0  0  0  0  0  0  0  0
   17.3609  -28.9510   -3.8430 O   0  0  0  0  0  0  0  0  0  0  0  0
  1  5  1  0
  1  2  1  0
  2  3  1  0
  4  3  1  0
  5  4  1  0
  5  6  1  1
  6  7  2  0
  8  6  1  0
  9  8  1  0
  9 10  1  6
 11 10  1  0
 11 15  1  0
 12 13  1  0
 12 11  2  0
 13 14  1  0
 14 15  2  0
 16  9  1  0
 17 16  2  0
 19 20  1  1
 19 21  1  0
 19 18  1  0
 21 22  1  6
 22 16  1  0
 23 21  1  0
 23 24  1  0
 25 23  2  0
M  END
$$$$
