PHV.pdb
     RDKit          3D

 25 26  0  0  1  0  0  0  0  0999 V2000
   29.5692  -18.1361  -17.3906 N   0  0  0  0  0  0  0  0  0  0  0  0
   30.6061  -17.7630  -18.3329 C   0  0  0  0  0  0  0  0  0  0  0  0
   30.2089  -18.5621  -19.5587 C   0  0  0  0  0  0  0  0  0  0  0  0
   28.7122  -18.3241  -19.5996 C   0  0  0  0  0  0  0  0  0  0  0  0
   28.3669  -18.0171  -18.1724 C   0  0  1  0  0  0  0  0  0  0  0  0
   27.3149  -18.9718  -17.7452 C   0  0  0  0  0  0  0  0  0  0  0  0
   26.2829  -19.1159  -18.4410 O   0  0  0  0  0  0  0  0  0  0  0  0
   27.5077  -19.6976  -16.5558 N   0  0  0  0  0  0  0  0  0  0  0  0
   26.5004  -20.6076  -16.1042 C   0  0  1  0  0  0  0  0  0  0  0  0
   27.2001  -21.6209  -15.2224 C   0  0  0  0  0  0  0  0  0  0  0  0
   28.1221  -22.5098  -15.9409 C   0  0  0  0  0  0  0  0  0  0  0  0
   28.2694  -22.6768  -17.2850 C   0  0  0  0  0  0  0  0  0  0  0  0
   29.2232  -23.6085  -17.4953 N   0  0  0  0  0  0  0  0  0  0  0  0
   29.6753  -24.0276  -16.3052 C   0  0  0  0  0  0  0  0  0  0  0  0
   29.0087  -23.3622  -15.3477 N   0  0  0  0  0  0  0  0  0  0  0  0
   25.4336  -19.9645  -15.3336 C   0  0  0  0  0  0  0  0  0  0  0  0
   25.7307  -19.0905  -14.4899 O   0  0  0  0  0  0  0  0  0  0  0  0
   23.0470  -17.5422  -16.2394 C   0  0  0  0  0  0  0  0  0  0  0  0
   22.2117  -18.6506  -15.6848 C   0  0  1  0  0  0  0  0  0  0  0  0
   21.4826  -19.3733  -16.7799 C   0  0  0  0  0  0  0  0  0  0  0  0
   23.0024  -19.5688  -14.7996 C   0  0  2  0  0  0  0  0  0  0  0  0
   24.0407  -20.2739  -15.4825 N   0  0  0  0  0  0  0  0  0  0  0  0
   22.1017  -20.4798  -14.0719 C   0  0  0  0  0  0  0  0  0  0  0  0
   21.2555  -20.0716  -13.0591 O   0  0  0  0  0  0  0  0  0  0  0  0
   22.1011  -21.6955  -14.3878 O   0  0  0  0  0  0  0  0  0  0  0  0
  1  5  1  0
  1  2  1  0
  2  3  1  0
  4  3  1  0
  5  4  1  0
  5  6  1  1
  6  7  2  0
  8  6  1  0
  9  8  1  0
  9 10  1  1
 11 10  1  0
 11 15  1  0
 12 13  1  0
 12 11  2  0
 13 14  1  0
 14 15  2  0
 16  9  1  0
 17 16  2  0
 19 20  1  6
 19 21  1  0
 19 18  1  0
 21 22  1  6
 22 16  1  0
 23 21  1  0
 23 24  1  0
 25 23  2  0
M  END
$$$$
