PHV.pdb
     RDKit          3D

 25 26  0  0  1  0  0  0  0  0999 V2000
   18.4555  -15.3548  -16.5257 N   0  0  0  0  0  0  0  0  0  0  0  0
   17.9475  -16.5700  -17.1318 C   0  0  0  0  0  0  0  0  0  0  0  0
   17.8748  -16.1764  -18.5943 C   0  0  0  0  0  0  0  0  0  0  0  0
   19.2011  -15.4660  -18.7798 C   0  0  0  0  0  0  0  0  0  0  0  0
   19.5402  -14.9898  -17.3983 C   0  0  1  0  0  0  0  0  0  0  0  0
   19.7478  -13.5224  -17.4629 C   0  0  0  0  0  0  0  0  0  0  0  0
   20.7289  -13.0578  -18.0887 O   0  0  0  0  0  0  0  0  0  0  0  0
   18.8260  -12.6830  -16.8117 N   0  0  0  0  0  0  0  0  0  0  0  0
   18.9670  -11.2622  -16.9027 C   0  0  1  0  0  0  0  0  0  0  0  0
   17.5653  -10.6958  -16.9932 C   0  0  0  0  0  0  0  0  0  0  0  0
   16.9774  -10.7548  -18.3376 C   0  0  0  0  0  0  0  0  0  0  0  0
   17.6049  -10.9307  -19.5341 C   0  0  0  0  0  0  0  0  0  0  0  0
   16.6732  -10.9028  -20.5105 N   0  0  0  0  0  0  0  0  0  0  0  0
   15.4730  -10.7123  -19.9452 C   0  0  0  0  0  0  0  0  0  0  0  0
   15.6475  -10.6205  -18.6166 N   0  0  0  0  0  0  0  0  0  0  0  0
   19.6461  -10.6663  -15.7498 C   0  0  0  0  0  0  0  0  0  0  0  0
   19.3452  -11.0495  -14.5980 O   0  0  0  0  0  0  0  0  0  0  0  0
   23.0083  -11.0397  -14.6233 C   0  0  0  0  0  0  0  0  0  0  0  0
   22.8334   -9.5590  -14.7269 C   0  0  1  0  0  0  0  0  0  0  0  0
   23.5986   -9.0082  -15.8947 C   0  0  0  0  0  0  0  0  0  0  0  0
   21.3876   -9.1571  -14.7292 C   0  0  2  0  0  0  0  0  0  0  0  0
   20.6546   -9.6512  -15.8517 N   0  0  0  0  0  0  0  0  0  0  0  0
   21.2620   -7.6961  -14.5866 C   0  0  0  0  0  0  0  0  0  0  0  0
   21.5599   -7.0124  -13.4238 O   0  0  0  0  0  0  0  0  0  0  0  0
   20.8621   -7.0329  -15.5756 O   0  0  0  0  0  0  0  0  0  0  0  0
  1  5  1  0
  1  2  1  0
  2  3  1  0
  4  3  1  0
  5  4  1  0
  5  6  1  6
  6  7  2  0
  8  6  1  0
  9  8  1  0
  9 10  1  1
 11 10  1  0
 11 15  1  0
 12 13  1  0
 12 11  2  0
 13 14  1  0
 14 15  2  0
 16  9  1  0
 17 16  2  0
 19 20  1  6
 19 21  1  0
 19 18  1  0
 21 22  1  6
 22 16  1  0
 23 21  1  0
 23 24  1  0
 25 23  2  0
M  END
$$$$
