PHV.pdb
     RDKit          3D

 25 26  0  0  1  0  0  0  0  0999 V2000
   28.5155  -23.8312  -17.0636 N   0  0  0  0  0  0  0  0  0  0  0  0
   29.3906  -24.2413  -18.1444 C   0  0  0  0  0  0  0  0  0  0  0  0
   29.7059  -22.9134  -18.8047 C   0  0  0  0  0  0  0  0  0  0  0  0
   29.9786  -22.0361  -17.5988 C   0  0  0  0  0  0  0  0  0  0  0  0
   29.2101  -22.7050  -16.4977 C   0  0  1  0  0  0  0  0  0  0  0  0
   28.2854  -21.7014  -15.9160 C   0  0  0  0  0  0  0  0  0  0  0  0
   28.7450  -20.6686  -15.3756 O   0  0  0  0  0  0  0  0  0  0  0  0
   26.9011  -21.9402  -15.9882 N   0  0  0  0  0  0  0  0  0  0  0  0
   25.9829  -20.9800  -15.4574 C   0  0  1  0  0  0  0  0  0  0  0  0
   24.9576  -20.7204  -16.5415 C   0  0  0  0  0  0  0  0  0  0  0  0
   23.9223  -19.7471  -16.1708 C   0  0  0  0  0  0  0  0  0  0  0  0
   23.7718  -19.0694  -14.9986 C   0  0  0  0  0  0  0  0  0  0  0  0
   22.6719  -18.2928  -15.0951 N   0  0  0  0  0  0  0  0  0  0  0  0
   22.1314  -18.4732  -16.3082 C   0  0  0  0  0  0  0  0  0  0  0  0
   22.8881  -19.3607  -16.9744 N   0  0  0  0  0  0  0  0  0  0  0  0
   25.2913  -21.4368  -14.2497 C   0  0  0  0  0  0  0  0  0  0  0  0
   24.7236  -22.5511  -14.2550 O   0  0  0  0  0  0  0  0  0  0  0  0
   26.6213  -21.7823  -10.7065 C   0  0  0  0  0  0  0  0  0  0  0  0
   25.3322  -21.0324  -10.6088 C   0  0  1  0  0  0  0  0  0  0  0  0
   25.5661  -19.6175  -10.1658 C   0  0  0  0  0  0  0  0  0  0  0  0
   24.5234  -21.1276  -11.8692 C   0  0  2  0  0  0  0  0  0  0  0  0
   25.2180  -20.6784  -13.0343 N   0  0  0  0  0  0  0  0  0  0  0  0
   23.2289  -20.4446  -11.6999 C   0  0  0  0  0  0  0  0  0  0  0  0
   22.2316  -20.8937  -10.8560 O   0  0  0  0  0  0  0  0  0  0  0  0
   23.0178  -19.3957  -12.3579 O   0  0  0  0  0  0  0  0  0  0  0  0
  1  5  1  0
  1  2  1  0
  2  3  1  0
  4  3  1  0
  5  4  1  0
  5  6  1  6
  6  7  2  0
  8  6  1  0
  9  8  1  0
  9 10  1  6
 11 10  1  0
 11 15  1  0
 12 13  1  0
 12 11  2  0
 13 14  1  0
 14 15  2  0
 16  9  1  0
 17 16  2  0
 19 20  1  6
 19 21  1  0
 19 18  1  0
 21 22  1  6
 22 16  1  0
 23 21  1  0
 23 24  1  0
 25 23  2  0
M  END
$$$$
