PHV.pdb
     RDKit          3D

 25 26  0  0  1  0  0  0  0  0999 V2000
   19.0359  -11.2270  -17.6334 N   0  0  0  0  0  0  0  0  0  0  0  0
   18.5089  -12.5519  -17.8965 C   0  0  0  0  0  0  0  0  0  0  0  0
   19.3096  -13.3988  -16.9268 C   0  0  0  0  0  0  0  0  0  0  0  0
   19.2541  -12.5507  -15.6714 C   0  0  0  0  0  0  0  0  0  0  0  0
   19.0383  -11.1619  -16.1958 C   0  0  1  0  0  0  0  0  0  0  0  0
   20.1272  -10.3038  -15.6680 C   0  0  0  0  0  0  0  0  0  0  0  0
   20.2987  -10.2033  -14.4309 O   0  0  0  0  0  0  0  0  0  0  0  0
   20.9471   -9.6184  -16.5826 N   0  0  0  0  0  0  0  0  0  0  0  0
   22.0334   -8.8184  -16.1064 C   0  0  1  0  0  0  0  0  0  0  0  0
   23.2342   -9.1722  -16.9589 C   0  0  0  0  0  0  0  0  0  0  0  0
   23.8643  -10.4520  -16.6104 C   0  0  0  0  0  0  0  0  0  0  0  0
   23.8733  -11.0976  -15.4106 C   0  0  0  0  0  0  0  0  0  0  0  0
   24.5873  -12.2351  -15.5457 N   0  0  0  0  0  0  0  0  0  0  0  0
   25.0255  -12.3124  -16.8100 C   0  0  0  0  0  0  0  0  0  0  0  0
   24.5891  -11.2270  -17.4699 N   0  0  0  0  0  0  0  0  0  0  0  0
   21.7877   -7.3780  -16.2072 C   0  0  0  0  0  0  0  0  0  0  0  0
   21.5489   -6.8756  -17.3273 O   0  0  0  0  0  0  0  0  0  0  0  0
   19.1571   -5.4811  -15.9981 C   0  0  0  0  0  0  0  0  0  0  0  0
   20.0171   -4.8029  -14.9811 C   0  0  1  0  0  0  0  0  0  0  0  0
   19.5446   -5.1071  -13.5893 C   0  0  0  0  0  0  0  0  0  0  0  0
   21.4747   -5.0959  -15.1843 C   0  0  2  0  0  0  0  0  0  0  0  0
   21.8022   -6.4832  -15.0860 N   0  0  0  0  0  0  0  0  0  0  0  0
   22.2941   -4.2693  -14.2808 C   0  0  0  0  0  0  0  0  0  0  0  0
   22.5356   -2.9242  -14.4829 O   0  0  0  0  0  0  0  0  0  0  0  0
   22.8023   -4.8152  -13.2701 O   0  0  0  0  0  0  0  0  0  0  0  0
  1  5  1  0
  1  2  1  0
  2  3  1  0
  4  3  1  0
  5  4  1  0
  5  6  1  6
  6  7  2  0
  8  6  1  0
  9  8  1  0
  9 10  1  6
 11 10  1  0
 11 15  1  0
 12 13  1  0
 12 11  2  0
 13 14  1  0
 14 15  2  0
 16  9  1  0
 17 16  2  0
 19 20  1  1
 19 21  1  0
 19 18  1  0
 21 22  1  1
 22 16  1  0
 23 21  1  0
 23 24  1  0
 25 23  2  0
M  END
$$$$
