PHV.pdb
     RDKit          3D

 25 26  0  0  1  0  0  0  0  0999 V2000
   22.4487  -12.5650  -18.2606 N   0  0  0  0  0  0  0  0  0  0  0  0
   22.3886  -13.6039  -19.2700 C   0  0  0  0  0  0  0  0  0  0  0  0
   21.1358  -13.2189  -20.0325 C   0  0  0  0  0  0  0  0  0  0  0  0
   21.3197  -11.7208  -20.1741 C   0  0  0  0  0  0  0  0  0  0  0  0
   22.2086  -11.3658  -19.0191 C   0  0  1  0  0  0  0  0  0  0  0  0
   21.5219  -10.3187  -18.2237 C   0  0  0  0  0  0  0  0  0  0  0  0
   21.2288   -9.2227  -18.7555 O   0  0  0  0  0  0  0  0  0  0  0  0
   21.2151  -10.5889  -16.8778 N   0  0  0  0  0  0  0  0  0  0  0  0
   20.5022   -9.6221  -16.1007 C   0  0  1  0  0  0  0  0  0  0  0  0
   19.7986  -10.3889  -15.0003 C   0  0  0  0  0  0  0  0  0  0  0  0
   18.5304  -11.0046  -15.4112 C   0  0  0  0  0  0  0  0  0  0  0  0
   17.8966  -10.9261  -16.6147 C   0  0  0  0  0  0  0  0  0  0  0  0
   16.7506  -11.6353  -16.5384 N   0  0  0  0  0  0  0  0  0  0  0  0
   16.6564  -12.1563  -15.3071 C   0  0  0  0  0  0  0  0  0  0  0  0
   17.7396  -11.7768  -14.6095 N   0  0  0  0  0  0  0  0  0  0  0  0
   21.3661   -8.6067  -15.4939 C   0  0  0  0  0  0  0  0  0  0  0  0
   22.4784   -8.9462  -15.0340 O   0  0  0  0  0  0  0  0  0  0  0  0
   20.8418   -4.4758  -16.3092 C   0  0  0  0  0  0  0  0  0  0  0  0
   22.1293   -5.0813  -15.8517 C   0  0  1  0  0  0  0  0  0  0  0  0
   23.0556   -4.0304  -15.3128 C   0  0  0  0  0  0  0  0  0  0  0  0
   21.9138   -6.2198  -14.8981 C   0  0  2  0  0  0  0  0  0  0  0  0
   21.0177   -7.2192  -15.3879 N   0  0  0  0  0  0  0  0  0  0  0  0
   21.5056   -5.7110  -13.5770 C   0  0  0  0  0  0  0  0  0  0  0  0
   20.2467   -5.8990  -13.0404 O   0  0  0  0  0  0  0  0  0  0  0  0
   22.3470   -5.0706  -12.8990 O   0  0  0  0  0  0  0  0  0  0  0  0
  1  5  1  0
  1  2  1  0
  2  3  1  0
  4  3  1  0
  5  4  1  0
  5  6  1  1
  6  7  2  0
  8  6  1  0
  9  8  1  0
  9 10  1  1
 11 10  1  0
 11 15  1  0
 12 13  1  0
 12 11  2  0
 13 14  1  0
 14 15  2  0
 16  9  1  0
 17 16  2  0
 19 20  1  1
 19 21  1  0
 19 18  1  0
 21 22  1  6
 22 16  1  0
 23 21  1  0
 23 24  1  0
 25 23  2  0
M  END
$$$$
