PHV.pdb
     RDKit          3D

 25 26  0  0  1  0  0  0  0  0999 V2000
   41.5519  -11.1709  -11.0269 N   0  0  0  0  0  0  0  0  0  0  0  0
   42.3783  -12.3621  -11.0248 C   0  0  0  0  0  0  0  0  0  0  0  0
   43.2538  -12.1261   -9.8096 C   0  0  0  0  0  0  0  0  0  0  0  0
   42.2371  -11.6339   -8.7986 C   0  0  0  0  0  0  0  0  0  0  0  0
   41.1442  -11.0604   -9.6512 C   0  0  1  0  0  0  0  0  0  0  0  0
   40.9341   -9.6528   -9.2326 C   0  0  0  0  0  0  0  0  0  0  0  0
   40.5053   -9.4011   -8.0824 O   0  0  0  0  0  0  0  0  0  0  0  0
   41.2257   -8.6272  -10.1499 N   0  0  0  0  0  0  0  0  0  0  0  0
   41.1302   -7.2586   -9.7440 C   0  0  1  0  0  0  0  0  0  0  0  0
   41.9759   -6.4618  -10.7155 C   0  0  0  0  0  0  0  0  0  0  0  0
   42.1132   -5.0412  -10.3700 C   0  0  0  0  0  0  0  0  0  0  0  0
   41.5807   -4.3671   -9.3125 C   0  0  0  0  0  0  0  0  0  0  0  0
   41.9552   -3.0733   -9.4013 N   0  0  0  0  0  0  0  0  0  0  0  0
   42.7133   -2.9263  -10.4968 C   0  0  0  0  0  0  0  0  0  0  0  0
   42.8163   -4.1236  -11.0967 N   0  0  0  0  0  0  0  0  0  0  0  0
   39.7622   -6.7356   -9.7660 C   0  0  0  0  0  0  0  0  0  0  0  0
   39.0367   -6.9634  -10.7589 O   0  0  0  0  0  0  0  0  0  0  0  0
   36.7472   -7.5237   -7.9065 C   0  0  0  0  0  0  0  0  0  0  0  0
   36.9457   -6.0564   -7.7026 C   0  0  1  0  0  0  0  0  0  0  0  0
   37.3885   -5.7642   -6.2985 C   0  0  0  0  0  0  0  0  0  0  0  0
   37.8482   -5.4562   -8.7405 C   0  0  2  0  0  0  0  0  0  0  0  0
   39.1836   -5.9631   -8.7047 N   0  0  0  0  0  0  0  0  0  0  0  0
   37.8130   -3.9854   -8.6610 C   0  0  0  0  0  0  0  0  0  0  0  0
   38.8738   -3.2174   -8.2217 O   0  0  0  0  0  0  0  0  0  0  0  0
   36.7614   -3.3946   -9.0115 O   0  0  0  0  0  0  0  0  0  0  0  0
  1  5  1  0
  1  2  1  0
  2  3  1  0
  4  3  1  0
  5  4  1  0
  5  6  1  1
  6  7  2  0
  8  6  1  0
  9  8  1  0
  9 10  1  6
 11 10  1  0
 11 15  1  0
 12 13  1  0
 12 11  2  0
 13 14  1  0
 14 15  2  0
 16  9  1  0
 17 16  2  0
 19 20  1  1
 19 21  1  0
 19 18  1  0
 21 22  1  1
 22 16  1  0
 23 21  1  0
 23 24  1  0
 25 23  2  0
M  END
$$$$
