PHV.pdb
     RDKit          3D

 25 26  0  0  1  0  0  0  0  0999 V2000
   23.0154  -12.6679  -17.6877 N   0  0  0  0  0  0  0  0  0  0  0  0
   23.0996  -13.9478  -18.3635 C   0  0  0  0  0  0  0  0  0  0  0  0
   21.9225  -13.8700  -19.3160 C   0  0  0  0  0  0  0  0  0  0  0  0
   22.0676  -12.4615  -19.8575 C   0  0  0  0  0  0  0  0  0  0  0  0
   22.8155  -11.7441  -18.7729 C   0  0  1  0  0  0  0  0  0  0  0  0
   22.0116  -10.5633  -18.3728 C   0  0  0  0  0  0  0  0  0  0  0  0
   21.7056   -9.6984  -19.2262 O   0  0  0  0  0  0  0  0  0  0  0  0
   21.6104  -10.4461  -17.0298 N   0  0  0  0  0  0  0  0  0  0  0  0
   20.8346   -9.3187  -16.6128 C   0  0  1  0  0  0  0  0  0  0  0  0
   19.6854   -9.8670  -15.7926 C   0  0  0  0  0  0  0  0  0  0  0  0
   18.6207  -10.4905  -16.5889 C   0  0  0  0  0  0  0  0  0  0  0  0
   17.5968   -9.8912  -17.2588 C   0  0  0  0  0  0  0  0  0  0  0  0
   16.8488  -10.8530  -17.8398 N   0  0  0  0  0  0  0  0  0  0  0  0
   17.3874  -12.0443  -17.5446 C   0  0  0  0  0  0  0  0  0  0  0  0
   18.4714  -11.8342  -16.7800 N   0  0  0  0  0  0  0  0  0  0  0  0
   21.5851   -8.3611  -15.7973 C   0  0  0  0  0  0  0  0  0  0  0  0
   22.4555   -8.7833  -15.0047 O   0  0  0  0  0  0  0  0  0  0  0  0
   21.5082   -4.1282  -16.6404 C   0  0  0  0  0  0  0  0  0  0  0  0
   22.6725   -4.8615  -16.0569 C   0  0  1  0  0  0  0  0  0  0  0  0
   23.6108   -3.9161  -15.3650 C   0  0  0  0  0  0  0  0  0  0  0  0
   22.2437   -6.0062  -15.1864 C   0  0  2  0  0  0  0  0  0  0  0  0
   21.3872   -6.9410  -15.8452 N   0  0  0  0  0  0  0  0  0  0  0  0
   21.6535   -5.5037  -13.9334 C   0  0  0  0  0  0  0  0  0  0  0  0
   22.3940   -4.9495  -12.9073 O   0  0  0  0  0  0  0  0  0  0  0  0
   20.4084   -5.5822  -13.7875 O   0  0  0  0  0  0  0  0  0  0  0  0
  1  5  1  0
  1  2  1  0
  2  3  1  0
  4  3  1  0
  5  4  1  0
  5  6  1  1
  6  7  2  0
  8  6  1  0
  9  8  1  0
  9 10  1  1
 11 10  1  0
 11 15  1  0
 12 13  1  0
 12 11  2  0
 13 14  1  0
 14 15  2  0
 16  9  1  0
 17 16  2  0
 19 20  1  1
 19 21  1  0
 19 18  1  0
 21 22  1  6
 22 16  1  0
 23 21  1  0
 23 24  1  0
 25 23  2  0
M  END
$$$$
