PHV.pdb
     RDKit          3D

 25 26  0  0  1  0  0  0  0  0999 V2000
   26.9855  -19.8280  -14.5915 N   0  0  0  0  0  0  0  0  0  0  0  0
   28.1560  -19.9871  -15.4322 C   0  0  0  0  0  0  0  0  0  0  0  0
   29.2800  -19.7815  -14.4356 C   0  0  0  0  0  0  0  0  0  0  0  0
   28.7942  -20.6078  -13.2611 C   0  0  0  0  0  0  0  0  0  0  0  0
   27.3050  -20.6309  -13.4408 C   0  0  1  0  0  0  0  0  0  0  0  0
   26.6901  -20.1090  -12.1958 C   0  0  0  0  0  0  0  0  0  0  0  0
   26.6202  -18.8726  -12.0049 O   0  0  0  0  0  0  0  0  0  0  0  0
   26.1964  -21.0282  -11.2524 N   0  0  0  0  0  0  0  0  0  0  0  0
   25.5746  -20.5557  -10.0537 C   0  0  1  0  0  0  0  0  0  0  0  0
   24.2080  -21.2057   -9.9930 C   0  0  0  0  0  0  0  0  0  0  0  0
   23.2581  -20.7058  -10.9951 C   0  0  0  0  0  0  0  0  0  0  0  0
   23.4215  -19.6934  -11.8922 C   0  0  0  0  0  0  0  0  0  0  0  0
   22.2821  -19.5700  -12.6055 N   0  0  0  0  0  0  0  0  0  0  0  0
   21.4083  -20.4882  -12.1699 C   0  0  0  0  0  0  0  0  0  0  0  0
   21.9949  -21.1882  -11.1850 N   0  0  0  0  0  0  0  0  0  0  0  0
   26.3159  -20.8950   -8.8368 C   0  0  0  0  0  0  0  0  0  0  0  0
   26.8303  -22.0301   -8.7310 O   0  0  0  0  0  0  0  0  0  0  0  0
   28.5063  -19.5729   -4.5707 C   0  0  0  0  0  0  0  0  0  0  0  0
   27.8160  -19.1736   -5.8347 C   0  0  1  0  0  0  0  0  0  0  0  0
   28.7272  -18.3657   -6.7122 C   0  0  0  0  0  0  0  0  0  0  0  0
   27.2060  -20.3473   -6.5434 C   0  0  2  0  0  0  0  0  0  0  0  0
   26.4973  -19.9964   -7.7334 N   0  0  0  0  0  0  0  0  0  0  0  0
   26.3725  -21.1299   -5.6141 C   0  0  0  0  0  0  0  0  0  0  0  0
   25.0206  -21.3474   -5.7969 O   0  0  0  0  0  0  0  0  0  0  0  0
   26.9187  -21.6281   -4.5986 O   0  0  0  0  0  0  0  0  0  0  0  0
  1  5  1  0
  1  2  1  0
  2  3  1  0
  4  3  1  0
  5  4  1  0
  5  6  1  1
  6  7  2  0
  8  6  1  0
  9  8  1  0
  9 10  1  1
 11 10  1  0
 11 15  1  0
 12 13  1  0
 12 11  2  0
 13 14  1  0
 14 15  2  0
 16  9  1  0
 17 16  2  0
 19 20  1  6
 19 21  1  0
 19 18  1  0
 21 22  1  6
 22 16  1  0
 23 21  1  0
 23 24  1  0
 25 23  2  0
M  END
$$$$
