PHV.pdb
     RDKit          3D

 25 26  0  0  1  0  0  0  0  0999 V2000
   23.8351  -12.0284  -15.3558 N   0  0  0  0  0  0  0  0  0  0  0  0
   24.1676  -13.4218  -15.5798 C   0  0  0  0  0  0  0  0  0  0  0  0
   23.0512  -13.8583  -16.5083 C   0  0  0  0  0  0  0  0  0  0  0  0
   22.9943  -12.6937  -17.4770 C   0  0  0  0  0  0  0  0  0  0  0  0
   23.5497  -11.5490  -16.6823 C   0  0  1  0  0  0  0  0  0  0  0  0
   22.5409  -10.4614  -16.6883 C   0  0  0  0  0  0  0  0  0  0  0  0
   22.2697   -9.8674  -17.7577 O   0  0  0  0  0  0  0  0  0  0  0  0
   21.9089  -10.1231  -15.4780 N   0  0  0  0  0  0  0  0  0  0  0  0
   20.8838   -9.1252  -15.4631 C   0  0  1  0  0  0  0  0  0  0  0  0
   19.8063   -9.6294  -14.5256 C   0  0  0  0  0  0  0  0  0  0  0  0
   18.8124  -10.5018  -15.1640 C   0  0  0  0  0  0  0  0  0  0  0  0
   18.7484  -10.9123  -16.4615 C   0  0  0  0  0  0  0  0  0  0  0  0
   17.6568  -11.6929  -16.6068 N   0  0  0  0  0  0  0  0  0  0  0  0
   17.0363  -11.7777  -15.4218 C   0  0  0  0  0  0  0  0  0  0  0  0
   17.7346  -11.0530  -14.5323 N   0  0  0  0  0  0  0  0  0  0  0  0
   21.3468   -7.8172  -14.9940 C   0  0  0  0  0  0  0  0  0  0  0  0
   22.1581   -7.7607  -14.0439 O   0  0  0  0  0  0  0  0  0  0  0  0
   22.6513   -3.2229  -15.7810 C   0  0  0  0  0  0  0  0  0  0  0  0
   22.1388   -4.5482  -16.2443 C   0  0  1  0  0  0  0  0  0  0  0  0
   23.2257   -5.3418  -16.9091 C   0  0  0  0  0  0  0  0  0  0  0  0
   21.4460   -5.3035  -15.1483 C   0  0  2  0  0  0  0  0  0  0  0  0
   20.9255   -6.5686  -15.5609 N   0  0  0  0  0  0  0  0  0  0  0  0
   20.4150   -4.4606  -14.5180 C   0  0  0  0  0  0  0  0  0  0  0  0
   19.0580   -4.6573  -14.6863 O   0  0  0  0  0  0  0  0  0  0  0  0
   20.7876   -3.5099  -13.7865 O   0  0  0  0  0  0  0  0  0  0  0  0
  1  5  1  0
  1  2  1  0
  2  3  1  0
  4  3  1  0
  5  4  1  0
  5  6  1  1
  6  7  2  0
  8  6  1  0
  9  8  1  0
  9 10  1  1
 11 10  1  0
 11 15  1  0
 12 13  1  0
 12 11  2  0
 13 14  1  0
 14 15  2  0
 16  9  1  0
 17 16  2  0
 19 20  1  1
 19 21  1  0
 19 18  1  0
 21 22  1  6
 22 16  1  0
 23 21  1  0
 23 24  1  0
 25 23  2  0
M  END
$$$$
