PHV.pdb
     RDKit          3D

 25 26  0  0  1  0  0  0  0  0999 V2000
   26.7964  -21.7550  -13.4979 N   0  0  0  0  0  0  0  0  0  0  0  0
   27.2169  -21.6483  -14.8814 C   0  0  0  0  0  0  0  0  0  0  0  0
   27.3830  -20.1492  -15.0369 C   0  0  0  0  0  0  0  0  0  0  0  0
   28.1146  -19.7944  -13.7574 C   0  0  0  0  0  0  0  0  0  0  0  0
   27.7225  -20.8922  -12.8132 C   0  0  1  0  0  0  0  0  0  0  0  0
   27.1280  -20.2630  -11.6085 C   0  0  0  0  0  0  0  0  0  0  0  0
   27.1508  -19.0169  -11.4794 O   0  0  0  0  0  0  0  0  0  0  0  0
   26.5481  -21.0934  -10.6324 N   0  0  0  0  0  0  0  0  0  0  0  0
   25.9958  -20.5192   -9.4441 C   0  0  1  0  0  0  0  0  0  0  0  0
   24.6129  -21.1149   -9.2811 C   0  0  0  0  0  0  0  0  0  0  0  0
   23.6342  -20.6449  -10.2699 C   0  0  0  0  0  0  0  0  0  0  0  0
   22.7142  -19.6472  -10.1493 C   0  0  0  0  0  0  0  0  0  0  0  0
   22.0150  -19.5725  -11.3015 N   0  0  0  0  0  0  0  0  0  0  0  0
   22.4819  -20.5069  -12.1413 C   0  0  0  0  0  0  0  0  0  0  0  0
   23.4724  -21.1685  -11.5206 N   0  0  0  0  0  0  0  0  0  0  0  0
   26.7790  -20.8015   -8.2390 C   0  0  0  0  0  0  0  0  0  0  0  0
   27.1832  -21.9667   -8.0317 O   0  0  0  0  0  0  0  0  0  0  0  0
   29.4866  -19.1817   -4.3904 C   0  0  0  0  0  0  0  0  0  0  0  0
   28.7117  -18.8865   -5.6338 C   0  0  1  0  0  0  0  0  0  0  0  0
   29.5930  -18.2744   -6.6833 C   0  0  0  0  0  0  0  0  0  0  0  0
   27.9538  -20.0837   -6.1278 C   0  0  2  0  0  0  0  0  0  0  0  0
   27.1226  -19.8128   -7.2580 N   0  0  0  0  0  0  0  0  0  0  0  0
   27.2007  -20.7043   -5.0240 C   0  0  0  0  0  0  0  0  0  0  0  0
   27.7976  -21.3496   -3.9583 O   0  0  0  0  0  0  0  0  0  0  0  0
   25.9463  -20.6449   -5.0508 O   0  0  0  0  0  0  0  0  0  0  0  0
  1  5  1  0
  1  2  1  0
  2  3  1  0
  4  3  1  0
  5  4  1  0
  5  6  1  1
  6  7  2  0
  8  6  1  0
  9  8  1  0
  9 10  1  1
 11 10  1  0
 11 15  1  0
 12 13  1  0
 12 11  2  0
 13 14  1  0
 14 15  2  0
 16  9  1  0
 17 16  2  0
 19 20  1  6
 19 21  1  0
 19 18  1  0
 21 22  1  6
 22 16  1  0
 23 21  1  0
 23 24  1  0
 25 23  2  0
M  END
$$$$
