PHV.pdb
     RDKit          3D

 25 26  0  0  1  0  0  0  0  0999 V2000
   27.1190  -21.7752  -13.4379 N   0  0  0  0  0  0  0  0  0  0  0  0
   27.1166  -21.7595  -14.8876 C   0  0  0  0  0  0  0  0  0  0  0  0
   26.4669  -20.4209  -15.1791 C   0  0  0  0  0  0  0  0  0  0  0  0
   27.1777  -19.5206  -14.1879 C   0  0  0  0  0  0  0  0  0  0  0  0
   27.6075  -20.4635  -13.1033 C   0  0  1  0  0  0  0  0  0  0  0  0
   27.0551  -19.9617  -11.8213 C   0  0  0  0  0  0  0  0  0  0  0  0
   27.1336  -18.7427  -11.5424 O   0  0  0  0  0  0  0  0  0  0  0  0
   26.4510  -20.8799  -10.9435 N   0  0  0  0  0  0  0  0  0  0  0  0
   25.8789  -20.4218   -9.7148 C   0  0  1  0  0  0  0  0  0  0  0  0
   24.5357  -21.1090   -9.5831 C   0  0  0  0  0  0  0  0  0  0  0  0
   23.5075  -20.6028  -10.5012 C   0  0  0  0  0  0  0  0  0  0  0  0
   22.5298  -19.6847  -10.2614 C   0  0  0  0  0  0  0  0  0  0  0  0
   21.8015  -19.5356  -11.3881 N   0  0  0  0  0  0  0  0  0  0  0  0
   22.3069  -20.3452  -12.3291 C   0  0  0  0  0  0  0  0  0  0  0  0
   23.3506  -21.0025  -11.7974 N   0  0  0  0  0  0  0  0  0  0  0  0
   26.6910  -20.7376   -8.5374 C   0  0  0  0  0  0  0  0  0  0  0  0
   27.1247  -21.9011   -8.3883 O   0  0  0  0  0  0  0  0  0  0  0  0
   28.2504  -17.7132   -5.7681 C   0  0  0  0  0  0  0  0  0  0  0  0
   28.8948  -19.0143   -6.1227 C   0  0  1  0  0  0  0  0  0  0  0  0
   29.8964  -19.4192   -5.0807 C   0  0  0  0  0  0  0  0  0  0  0  0
   27.8862  -20.0858   -6.4164 C   0  0  2  0  0  0  0  0  0  0  0  0
   27.0311  -19.7844   -7.5207 N   0  0  0  0  0  0  0  0  0  0  0  0
   27.1227  -20.4175   -5.2006 C   0  0  0  0  0  0  0  0  0  0  0  0
   27.6980  -20.9180   -4.0487 O   0  0  0  0  0  0  0  0  0  0  0  0
   25.8798  -20.2361   -5.2093 O   0  0  0  0  0  0  0  0  0  0  0  0
  1  5  1  0
  1  2  1  0
  2  3  1  0
  4  3  1  0
  5  4  1  0
  5  6  1  1
  6  7  2  0
  8  6  1  0
  9  8  1  0
  9 10  1  1
 11 10  1  0
 11 15  1  0
 12 13  1  0
 12 11  2  0
 13 14  1  0
 14 15  2  0
 16  9  1  0
 17 16  2  0
 19 20  1  1
 19 21  1  0
 19 18  1  0
 21 22  1  6
 22 16  1  0
 23 21  1  0
 23 24  1  0
 25 23  2  0
M  END
$$$$
