PHV.pdb
     RDKit          3D

 25 26  0  0  1  0  0  0  0  0999 V2000
   26.0307  -12.4576  -17.1573 N   0  0  0  0  0  0  0  0  0  0  0  0
   27.4064  -12.6977  -16.7676 C   0  0  0  0  0  0  0  0  0  0  0  0
   27.8115  -11.3428  -16.2208 C   0  0  0  0  0  0  0  0  0  0  0  0
   26.6009  -10.9841  -15.3816 C   0  0  0  0  0  0  0  0  0  0  0  0
   25.4897  -11.7666  -16.0167 C   0  0  1  0  0  0  0  0  0  0  0  0
   24.4172  -10.8113  -16.3876 C   0  0  0  0  0  0  0  0  0  0  0  0
   24.4180  -10.2821  -17.5234 O   0  0  0  0  0  0  0  0  0  0  0  0
   23.4166  -10.5226  -15.4420 N   0  0  0  0  0  0  0  0  0  0  0  0
   22.3523   -9.6282  -15.7801 C   0  0  1  0  0  0  0  0  0  0  0  0
   21.0803  -10.2509  -15.2433 C   0  0  0  0  0  0  0  0  0  0  0  0
   19.8649   -9.4764  -15.5252 C   0  0  0  0  0  0  0  0  0  0  0  0
   19.1053   -8.7415  -14.6655 C   0  0  0  0  0  0  0  0  0  0  0  0
   18.0728   -8.2133  -15.3561 N   0  0  0  0  0  0  0  0  0  0  0  0
   18.1733   -8.6054  -16.6338 C   0  0  0  0  0  0  0  0  0  0  0  0
   19.2658   -9.3784  -16.7483 N   0  0  0  0  0  0  0  0  0  0  0  0
   22.5061   -8.2907  -15.2031 C   0  0  0  0  0  0  0  0  0  0  0  0
   22.9897   -8.1719  -14.0559 O   0  0  0  0  0  0  0  0  0  0  0  0
   23.4460   -3.5509  -15.6911 C   0  0  0  0  0  0  0  0  0  0  0  0
   23.1635   -4.8921  -16.2869 C   0  0  1  0  0  0  0  0  0  0  0  0
   24.4234   -5.5300  -16.7956 C   0  0  0  0  0  0  0  0  0  0  0  0
   22.3925   -5.7773  -15.3522 C   0  0  2  0  0  0  0  0  0  0  0  0
   22.1323   -7.0807  -15.8768 N   0  0  0  0  0  0  0  0  0  0  0  0
   21.1594   -5.1036  -14.9091 C   0  0  0  0  0  0  0  0  0  0  0  0
   21.0480   -4.4208  -13.7134 O   0  0  0  0  0  0  0  0  0  0  0  0
   20.1522   -5.1511  -15.6581 O   0  0  0  0  0  0  0  0  0  0  0  0
  1  5  1  0
  1  2  1  0
  2  3  1  0
  4  3  1  0
  5  4  1  0
  5  6  1  6
  6  7  2  0
  8  6  1  0
  9  8  1  0
  9 10  1  1
 11 10  1  0
 11 15  1  0
 12 13  1  0
 12 11  2  0
 13 14  1  0
 14 15  2  0
 16  9  1  0
 17 16  2  0
 19 20  1  1
 19 21  1  0
 19 18  1  0
 21 22  1  6
 22 16  1  0
 23 21  1  0
 23 24  1  0
 25 23  2  0
M  END
$$$$
