PHV.pdb
     RDKit          3D

 25 26  0  0  1  0  0  0  0  0999 V2000
   25.1401  -12.1553  -15.8428 N   0  0  0  0  0  0  0  0  0  0  0  0
   25.7241  -13.4479  -16.1431 C   0  0  0  0  0  0  0  0  0  0  0  0
   24.8666  -13.9097  -17.3051 C   0  0  0  0  0  0  0  0  0  0  0  0
   24.7905  -12.6476  -18.1416 C   0  0  0  0  0  0  0  0  0  0  0  0
   25.0122  -11.5508  -17.1425 C   0  0  1  0  0  0  0  0  0  0  0  0
   23.8586  -10.6219  -17.2258 C   0  0  0  0  0  0  0  0  0  0  0  0
   23.6960   -9.9188  -18.2501 O   0  0  0  0  0  0  0  0  0  0  0  0
   22.9682  -10.5555  -16.1389 N   0  0  0  0  0  0  0  0  0  0  0  0
   21.8632   -9.6476  -16.1763 C   0  0  1  0  0  0  0  0  0  0  0  0
   20.7118  -10.3423  -15.4794 C   0  0  0  0  0  0  0  0  0  0  0  0
   19.4843   -9.5404  -15.3987 C   0  0  0  0  0  0  0  0  0  0  0  0
   18.9649   -8.8851  -14.3231 C   0  0  0  0  0  0  0  0  0  0  0  0
   17.8136   -8.2913  -14.7028 N   0  0  0  0  0  0  0  0  0  0  0  0
   17.6038   -8.5640  -15.9981 C   0  0  0  0  0  0  0  0  0  0  0  0
   18.6195   -9.3273  -16.4337 N   0  0  0  0  0  0  0  0  0  0  0  0
   22.1281   -8.3750  -15.5012 C   0  0  0  0  0  0  0  0  0  0  0  0
   22.8013   -8.3708  -14.4473 O   0  0  0  0  0  0  0  0  0  0  0  0
   23.2213   -3.7106  -15.4667 C   0  0  0  0  0  0  0  0  0  0  0  0
   22.8899   -4.9906  -16.1635 C   0  0  1  0  0  0  0  0  0  0  0  0
   24.1364   -5.6955  -16.6134 C   0  0  0  0  0  0  0  0  0  0  0  0
   21.9835   -5.8636  -15.3461 C   0  0  2  0  0  0  0  0  0  0  0  0
   21.6588   -7.1048  -15.9750 N   0  0  0  0  0  0  0  0  0  0  0  0
   20.7791   -5.1163  -14.9435 C   0  0  0  0  0  0  0  0  0  0  0  0
   20.7138   -4.3207  -13.8161 O   0  0  0  0  0  0  0  0  0  0  0  0
   19.7537   -5.2060  -15.6633 O   0  0  0  0  0  0  0  0  0  0  0  0
  1  5  1  0
  1  2  1  0
  2  3  1  0
  4  3  1  0
  5  4  1  0
  5  6  1  1
  6  7  2  0
  8  6  1  0
  9  8  1  0
  9 10  1  1
 11 10  1  0
 11 15  1  0
 12 13  1  0
 12 11  2  0
 13 14  1  0
 14 15  2  0
 16  9  1  0
 17 16  2  0
 19 20  1  1
 19 21  1  0
 19 18  1  0
 21 22  1  6
 22 16  1  0
 23 21  1  0
 23 24  1  0
 25 23  2  0
M  END
$$$$
