HVA.pdb
     RDKit          3D

 23 23  0  0  1  0  0  0  0  0999 V2000
   20.2588  -11.9718  -16.9985 N   0  0  0  0  0  0  0  0  0  0  0  0
   19.7220  -10.7674  -16.4488 C   0  0  1  0  0  0  0  0  0  0  0  0
   19.0672  -10.9648  -15.1102 C   0  0  0  0  0  0  0  0  0  0  0  0
   17.8553  -11.8008  -15.3102 C   0  0  0  0  0  0  0  0  0  0  0  0
   16.6462  -11.4688  -15.8402 C   0  0  0  0  0  0  0  0  0  0  0  0
   15.8100  -12.5222  -15.8418 N   0  0  0  0  0  0  0  0  0  0  0  0
   16.4960  -13.5346  -15.3065 C   0  0  0  0  0  0  0  0  0  0  0  0
   17.7476  -13.1181  -14.9742 N   0  0  0  0  0  0  0  0  0  0  0  0
   20.7751   -9.7089  -16.4057 C   0  0  0  0  0  0  0  0  0  0  0  0
   21.8910   -9.9186  -15.8377 O   0  0  0  0  0  0  0  0  0  0  0  0
   22.6627   -8.0755  -19.1196 C   0  0  0  0  0  0  0  0  0  0  0  0
   21.9330   -6.9431  -18.3808 C   0  0  2  0  0  0  0  0  0  0  0  0
   22.9156   -5.7963  -18.3643 C   0  0  0  0  0  0  0  0  0  0  0  0
   21.6552   -7.4162  -16.9694 C   0  0  2  0  0  0  0  0  0  0  0  0
   20.6004   -8.4301  -16.9835 N   0  0  0  0  0  0  0  0  0  0  0  0
   21.1578   -6.3001  -16.1388 C   0  0  0  0  0  0  0  0  0  0  0  0
   20.0834   -5.7160  -16.5176 O   0  0  0  0  0  0  0  0  0  0  0  0
   21.7853   -4.7390  -12.7964 C   0  0  0  0  0  0  0  0  0  0  0  0
   21.1554   -4.7128  -14.1870 C   0  0  2  0  0  0  0  0  0  0  0  0
   21.7399   -5.8050  -14.9642 N   0  0  0  0  0  0  0  0  0  0  0  0
   21.3349   -3.4147  -14.8459 C   0  0  0  0  0  0  0  0  0  0  0  0
   22.3631   -3.2006  -15.5275 O   0  0  0  0  0  0  0  0  0  0  0  0
   20.3979   -2.4033  -14.7415 O   0  0  0  0  0  0  0  0  0  0  0  0
  2  1  1  1
  2  3  1  0
  4  3  1  0
  5  4  2  0
  6  7  1  0
  6  5  1  0
  7  8  2  0
  8  4  1  0
  9 15  1  0
  9  2  1  0
 10  9  2  0
 12 11  1  6
 12 14  1  0
 13 12  1  0
 14 15  1  6
 16 14  1  0
 17 16  2  0
 19 18  1  1
 19 21  1  0
 19 20  1  0
 20 16  1  0
 21 23  1  0
 22 21  2  0
M  END
$$$$
