HVA.pdb
     RDKit          3D

 23 23  0  0  1  0  0  0  0  0999 V2000
   25.0606  -37.9313  -11.2943 N   0  0  0  0  0  0  0  0  0  0  0  0
   24.2563  -37.5041  -10.1937 C   0  0  1  0  0  0  0  0  0  0  0  0
   23.5524  -38.6351   -9.4973 C   0  0  0  0  0  0  0  0  0  0  0  0
   22.5862  -39.2337  -10.4541 C   0  0  0  0  0  0  0  0  0  0  0  0
   22.6263  -40.4334  -11.0963 C   0  0  0  0  0  0  0  0  0  0  0  0
   21.5496  -40.5991  -11.8850 N   0  0  0  0  0  0  0  0  0  0  0  0
   20.8174  -39.4920  -11.7420 C   0  0  0  0  0  0  0  0  0  0  0  0
   21.4303  -38.6437  -10.8731 N   0  0  0  0  0  0  0  0  0  0  0  0
   25.0736  -36.6867   -9.2475 C   0  0  0  0  0  0  0  0  0  0  0  0
   26.2587  -37.0264   -8.9444 O   0  0  0  0  0  0  0  0  0  0  0  0
   25.5462  -32.7982   -9.4103 C   0  0  0  0  0  0  0  0  0  0  0  0
   25.0726  -33.2021   -8.0056 C   0  0  2  0  0  0  0  0  0  0  0  0
   25.8650  -32.3267   -7.0640 C   0  0  0  0  0  0  0  0  0  0  0  0
   25.4335  -34.6579   -7.7973 C   0  0  2  0  0  0  0  0  0  0  0  0
   24.5894  -35.5050   -8.6403 N   0  0  0  0  0  0  0  0  0  0  0  0
   25.1736  -35.0598   -6.3995 C   0  0  0  0  0  0  0  0  0  0  0  0
   23.9905  -34.8803   -5.9443 O   0  0  0  0  0  0  0  0  0  0  0  0
   26.9172  -36.7798   -3.5494 C   0  0  0  0  0  0  0  0  0  0  0  0
   25.7378  -36.0104   -4.1396 C   0  0  2  0  0  0  0  0  0  0  0  0
   26.0921  -35.6257   -5.5053 N   0  0  0  0  0  0  0  0  0  0  0  0
   25.3754  -34.8491   -3.3201 C   0  0  0  0  0  0  0  0  0  0  0  0
   25.9457  -33.7511   -3.5116 O   0  0  0  0  0  0  0  0  0  0  0  0
   24.4135  -34.9218   -2.3295 O   0  0  0  0  0  0  0  0  0  0  0  0
  2  1  1  6
  2  3  1  0
  4  3  1  0
  5  4  2  0
  6  7  1  0
  6  5  1  0
  7  8  2  0
  8  4  1  0
  9 15  1  0
  9  2  1  0
 10  9  2  0
 12 11  1  6
 12 14  1  0
 13 12  1  0
 14 15  1  6
 16 14  1  0
 17 16  2  0
 19 18  1  1
 19 21  1  0
 19 20  1  0
 20 16  1  0
 21 23  1  0
 22 21  2  0
M  END
$$$$
