HVA.pdb
     RDKit          3D

 23 23  0  0  1  0  0  0  0  0999 V2000
   23.3688  -12.8638  -18.1673 N   0  0  0  0  0  0  0  0  0  0  0  0
   23.7353  -11.9645  -17.1196 C   0  0  1  0  0  0  0  0  0  0  0  0
   25.2133  -11.6981  -17.0545 C   0  0  0  0  0  0  0  0  0  0  0  0
   25.8923  -12.9643  -16.6765 C   0  0  0  0  0  0  0  0  0  0  0  0
   26.4196  -13.9393  -17.4668 C   0  0  0  0  0  0  0  0  0  0  0  0
   26.9483  -14.9312  -16.7283 N   0  0  0  0  0  0  0  0  0  0  0  0
   26.7545  -14.5821  -15.4544 C   0  0  0  0  0  0  0  0  0  0  0  0
   26.1115  -13.3847  -15.3978 N   0  0  0  0  0  0  0  0  0  0  0  0
   22.9435  -10.7023  -17.2260 C   0  0  0  0  0  0  0  0  0  0  0  0
   22.7807  -10.1242  -18.3445 O   0  0  0  0  0  0  0  0  0  0  0  0
   19.3754  -10.2155  -16.6416 C   0  0  0  0  0  0  0  0  0  0  0  0
   20.0838   -9.2650  -15.6643 C   0  0  2  0  0  0  0  0  0  0  0  0
   19.2142   -8.0307  -15.6268 C   0  0  0  0  0  0  0  0  0  0  0  0
   21.4417   -8.9323  -16.2459 C   0  0  2  0  0  0  0  0  0  0  0  0
   22.3362  -10.0822  -16.1097 N   0  0  0  0  0  0  0  0  0  0  0  0
   22.0656   -7.8206  -15.4990 C   0  0  0  0  0  0  0  0  0  0  0  0
   22.3350   -8.0182  -14.2631 O   0  0  0  0  0  0  0  0  0  0  0  0
   23.4224   -4.3701  -16.1213 C   0  0  0  0  0  0  0  0  0  0  0  0
   23.0624   -5.5306  -15.1968 C   0  0  2  0  0  0  0  0  0  0  0  0
   22.4014   -6.5567  -16.0023 N   0  0  0  0  0  0  0  0  0  0  0  0
   22.2283   -5.0966  -14.0710 C   0  0  0  0  0  0  0  0  0  0  0  0
   20.9817   -5.0889  -14.1879 O   0  0  0  0  0  0  0  0  0  0  0  0
   22.7742   -4.6895  -12.8677 O   0  0  0  0  0  0  0  0  0  0  0  0
  2  1  1  6
  2  3  1  0
  4  3  1  0
  5  4  2  0
  6  7  1  0
  6  5  1  0
  7  8  2  0
  8  4  1  0
  9 15  1  0
  9  2  1  0
 10  9  2  0
 12 11  1  6
 12 14  1  0
 13 12  1  0
 14 15  1  1
 16 14  1  0
 17 16  2  0
 19 18  1  6
 19 21  1  0
 19 20  1  0
 20 16  1  0
 21 23  1  0
 22 21  2  0
M  END
$$$$
