HVA.pdb
     RDKit          3D

 23 23  0  0  1  0  0  0  0  0999 V2000
   24.0900  -26.8040  -16.5431 N   0  0  0  0  0  0  0  0  0  0  0  0
   25.1212  -26.0487  -17.1811 C   0  0  1  0  0  0  0  0  0  0  0  0
   24.8278  -24.5756  -17.2427 C   0  0  0  0  0  0  0  0  0  0  0  0
   23.7146  -24.3686  -18.2048 C   0  0  0  0  0  0  0  0  0  0  0  0
   22.3940  -24.1351  -17.9714 C   0  0  0  0  0  0  0  0  0  0  0  0
   21.7121  -24.0045  -19.1232 N   0  0  0  0  0  0  0  0  0  0  0  0
   22.6101  -24.1569  -20.0992 C   0  0  0  0  0  0  0  0  0  0  0  0
   23.8400  -24.3802  -19.5627 N   0  0  0  0  0  0  0  0  0  0  0  0
   26.4383  -26.3302  -16.5351 C   0  0  0  0  0  0  0  0  0  0  0  0
   26.5706  -26.2878  -15.2731 O   0  0  0  0  0  0  0  0  0  0  0  0
   28.9215  -28.9267  -18.2360 C   0  0  0  0  0  0  0  0  0  0  0  0
   29.0249  -28.5614  -16.7472 C   0  0  2  0  0  0  0  0  0  0  0  0
   27.8692  -29.2796  -16.0918 C   0  0  0  0  0  0  0  0  0  0  0  0
   28.8475  -27.0625  -16.6261 C   0  0  2  0  0  0  0  0  0  0  0  0
   27.5998  -26.6556  -17.2730 N   0  0  0  0  0  0  0  0  0  0  0  0
   29.9380  -26.3545  -17.3278 C   0  0  0  0  0  0  0  0  0  0  0  0
   29.7947  -26.1470  -18.5831 O   0  0  0  0  0  0  0  0  0  0  0  0
   33.1428  -24.5566  -16.5768 C   0  0  0  0  0  0  0  0  0  0  0  0
   32.1790  -25.2327  -17.5488 C   0  0  2  0  0  0  0  0  0  0  0  0
   31.1278  -25.8769  -16.7623 N   0  0  0  0  0  0  0  0  0  0  0  0
   32.8655  -26.1845  -18.4289 C   0  0  0  0  0  0  0  0  0  0  0  0
   32.8707  -27.4033  -18.1424 O   0  0  0  0  0  0  0  0  0  0  0  0
   33.5168  -25.7810  -19.5799 O   0  0  0  0  0  0  0  0  0  0  0  0
  2  1  1  1
  2  3  1  0
  4  3  1  0
  5  4  2  0
  6  7  1  0
  6  5  1  0
  7  8  2  0
  8  4  1  0
  9 15  1  0
  9  2  1  0
 10  9  2  0
 12 11  1  6
 12 14  1  0
 13 12  1  0
 14 15  1  6
 16 14  1  0
 17 16  2  0
 19 18  1  1
 19 21  1  0
 19 20  1  0
 20 16  1  0
 21 23  1  0
 22 21  2  0
M  END
$$$$
