HVA.pdb
     RDKit          3D

 23 23  0  0  1  0  0  0  0  0999 V2000
   17.5630  -12.0735  -16.4967 N   0  0  0  0  0  0  0  0  0  0  0  0
   17.4870  -10.7299  -16.0175 C   0  0  1  0  0  0  0  0  0  0  0  0
   16.4255  -10.5305  -14.9720 C   0  0  0  0  0  0  0  0  0  0  0  0
   15.1007  -10.6849  -15.6268 C   0  0  0  0  0  0  0  0  0  0  0  0
   14.3915   -9.7976  -16.3769 C   0  0  0  0  0  0  0  0  0  0  0  0
   13.2267  -10.3298  -16.7879 N   0  0  0  0  0  0  0  0  0  0  0  0
   13.1961  -11.5692  -16.2929 C   0  0  0  0  0  0  0  0  0  0  0  0
   14.3298  -11.8088  -15.5804 N   0  0  0  0  0  0  0  0  0  0  0  0
   18.8297  -10.2768  -15.5449 C   0  0  0  0  0  0  0  0  0  0  0  0
   19.4439  -10.8993  -14.6246 O   0  0  0  0  0  0  0  0  0  0  0  0
   21.1233   -8.1660  -18.1027 C   0  0  0  0  0  0  0  0  0  0  0  0
   21.7572   -8.9716  -16.9583 C   0  0  2  0  0  0  0  0  0  0  0  0
   21.7394  -10.4037  -17.4376 C   0  0  0  0  0  0  0  0  0  0  0  0
   20.8733   -8.8157  -15.7388 C   0  0  2  0  0  0  0  0  0  0  0  0
   19.4901   -9.1475  -16.0816 N   0  0  0  0  0  0  0  0  0  0  0  0
   20.8698   -7.4115  -15.2791 C   0  0  0  0  0  0  0  0  0  0  0  0
   20.0776   -6.5988  -15.8717 O   0  0  0  0  0  0  0  0  0  0  0  0
   22.0260   -5.3052  -12.4434 C   0  0  0  0  0  0  0  0  0  0  0  0
   21.6307   -5.4416  -13.9118 C   0  0  2  0  0  0  0  0  0  0  0  0
   21.6476   -6.8643  -14.2500 N   0  0  0  0  0  0  0  0  0  0  0  0
   22.5068   -4.6594  -14.7905 C   0  0  0  0  0  0  0  0  0  0  0  0
   23.4894   -5.2095  -15.3379 O   0  0  0  0  0  0  0  0  0  0  0  0
   22.2856   -3.3177  -15.0412 O   0  0  0  0  0  0  0  0  0  0  0  0
  2  1  1  1
  2  3  1  0
  4  3  1  0
  5  4  2  0
  6  7  1  0
  6  5  1  0
  7  8  2  0
  8  4  1  0
  9 15  1  0
  9  2  1  0
 10  9  2  0
 12 11  1  6
 12 14  1  0
 13 12  1  0
 14 15  1  6
 16 14  1  0
 17 16  2  0
 19 18  1  1
 19 21  1  0
 19 20  1  0
 20 16  1  0
 21 23  1  0
 22 21  2  0
M  END
$$$$
