HVA.pdb
     RDKit          3D

 23 23  0  0  1  0  0  0  0  0999 V2000
   13.1864  -24.0697   -2.7348 N   0  0  0  0  0  0  0  0  0  0  0  0
   13.6071  -22.7983   -2.2374 C   0  0  1  0  0  0  0  0  0  0  0  0
   12.7029  -21.6701   -2.6490 C   0  0  0  0  0  0  0  0  0  0  0  0
   12.7657  -21.5469   -4.1283 C   0  0  0  0  0  0  0  0  0  0  0  0
   13.7208  -20.9797   -4.9151 C   0  0  0  0  0  0  0  0  0  0  0  0
   13.3983  -21.0756   -6.2173 N   0  0  0  0  0  0  0  0  0  0  0  0
   12.2249  -21.7109   -6.2577 C   0  0  0  0  0  0  0  0  0  0  0  0
   11.8187  -22.0088   -4.9941 N   0  0  0  0  0  0  0  0  0  0  0  0
   13.7855  -22.8601   -0.7557 C   0  0  0  0  0  0  0  0  0  0  0  0
   12.8570  -23.2861   -0.0019 O   0  0  0  0  0  0  0  0  0  0  0  0
   15.9460  -24.8582    1.3746 C   0  0  0  0  0  0  0  0  0  0  0  0
   16.3304  -23.4028    1.6822 C   0  0  2  0  0  0  0  0  0  0  0  0
   16.5897  -23.3777    3.1699 C   0  0  0  0  0  0  0  0  0  0  0  0
   15.1411  -22.5293    1.3424 C   0  0  2  0  0  0  0  0  0  0  0  0
   14.9767  -22.4562   -0.1097 N   0  0  0  0  0  0  0  0  0  0  0  0
   15.3642  -21.1466    1.8127 C   0  0  0  0  0  0  0  0  0  0  0  0
   16.3151  -20.4844    1.2681 O   0  0  0  0  0  0  0  0  0  0  0  0
   13.6869  -18.4512    3.7279 C   0  0  0  0  0  0  0  0  0  0  0  0
   14.9740  -19.1193    3.2504 C   0  0  2  0  0  0  0  0  0  0  0  0
   14.6380  -20.4700    2.8019 N   0  0  0  0  0  0  0  0  0  0  0  0
   16.0060  -19.1292    4.2927 C   0  0  0  0  0  0  0  0  0  0  0  0
   16.2063  -20.1701    4.9590 O   0  0  0  0  0  0  0  0  0  0  0  0
   16.7776  -18.0163    4.5716 O   0  0  0  0  0  0  0  0  0  0  0  0
  2  1  1  1
  2  3  1  0
  4  3  1  0
  5  4  2  0
  6  7  1  0
  6  5  1  0
  7  8  2  0
  8  4  1  0
  9 15  1  0
  9  2  1  0
 10  9  2  0
 12 11  1  1
 12 14  1  0
 13 12  1  0
 14 15  1  6
 16 14  1  0
 17 16  2  0
 19 18  1  1
 19 21  1  0
 19 20  1  0
 20 16  1  0
 21 23  1  0
 22 21  2  0
M  END
$$$$
