HVA.pdb
     RDKit          3D

 23 23  0  0  1  0  0  0  0  0999 V2000
   27.6346  -18.2886  -16.4848 N   0  0  0  0  0  0  0  0  0  0  0  0
   26.7302  -17.9299  -15.4387 C   0  0  1  0  0  0  0  0  0  0  0  0
   25.7173  -16.9004  -15.8555 C   0  0  0  0  0  0  0  0  0  0  0  0
   26.4436  -15.6447  -16.1768 C   0  0  0  0  0  0  0  0  0  0  0  0
   26.6832  -15.0617  -17.3834 C   0  0  0  0  0  0  0  0  0  0  0  0
   27.3837  -13.9223  -17.2426 N   0  0  0  0  0  0  0  0  0  0  0  0
   27.5914  -13.7803  -15.9315 C   0  0  0  0  0  0  0  0  0  0  0  0
   27.0265  -14.8200  -15.2605 N   0  0  0  0  0  0  0  0  0  0  0  0
   26.0848  -19.1539  -14.8760 C   0  0  0  0  0  0  0  0  0  0  0  0
   25.8595  -20.1688  -15.6046 O   0  0  0  0  0  0  0  0  0  0  0  0
   27.1072  -20.8714  -11.5126 C   0  0  0  0  0  0  0  0  0  0  0  0
   25.5879  -20.6429  -11.5186 C   0  0  2  0  0  0  0  0  0  0  0  0
   25.0054  -21.9009  -10.9195 C   0  0  0  0  0  0  0  0  0  0  0  0
   25.1485  -20.4963  -12.9602 C   0  0  2  0  0  0  0  0  0  0  0  0
   25.6910  -19.2589  -13.5220 N   0  0  0  0  0  0  0  0  0  0  0  0
   23.6773  -20.3891  -13.0438 C   0  0  0  0  0  0  0  0  0  0  0  0
   23.1277  -19.3718  -12.4940 O   0  0  0  0  0  0  0  0  0  0  0  0
   20.8107  -21.9420  -14.8671 C   0  0  0  0  0  0  0  0  0  0  0  0
   21.3586  -21.0844  -13.7289 C   0  0  2  0  0  0  0  0  0  0  0  0
   22.8052  -21.2902  -13.6692 N   0  0  0  0  0  0  0  0  0  0  0  0
   20.7087  -21.3902  -12.4500 C   0  0  0  0  0  0  0  0  0  0  0  0
   21.1540  -22.3141  -11.7319 O   0  0  0  0  0  0  0  0  0  0  0  0
   19.6066  -20.6866  -12.0005 O   0  0  0  0  0  0  0  0  0  0  0  0
  2  1  1  6
  2  3  1  0
  4  3  1  0
  5  4  2  0
  6  7  1  0
  6  5  1  0
  7  8  2  0
  8  4  1  0
  9 15  1  0
  9  2  1  0
 10  9  2  0
 12 11  1  6
 12 14  1  0
 13 12  1  0
 14 15  1  1
 16 14  1  0
 17 16  2  0
 19 18  1  6
 19 21  1  0
 19 20  1  0
 20 16  1  0
 21 23  1  0
 22 21  2  0
M  END
$$$$
