HVA.pdb
     RDKit          3D

 23 23  0  0  1  0  0  0  0  0999 V2000
   25.4047  -21.9241  -11.3330 N   0  0  0  0  0  0  0  0  0  0  0  0
   24.7259  -21.0500  -12.2363 C   0  0  1  0  0  0  0  0  0  0  0  0
   23.4757  -20.4496  -11.6563 C   0  0  0  0  0  0  0  0  0  0  0  0
   22.3429  -21.3604  -11.9640 C   0  0  0  0  0  0  0  0  0  0  0  0
   22.3449  -22.5770  -12.5748 C   0  0  0  0  0  0  0  0  0  0  0  0
   21.1002  -23.0786  -12.6637 N   0  0  0  0  0  0  0  0  0  0  0  0
   20.2987  -22.1701  -12.1029 C   0  0  0  0  0  0  0  0  0  0  0  0
   21.0350  -21.1122  -11.6682 N   0  0  0  0  0  0  0  0  0  0  0  0
   25.6654  -20.0050  -12.7429 C   0  0  0  0  0  0  0  0  0  0  0  0
   26.4235  -19.3664  -11.9496 O   0  0  0  0  0  0  0  0  0  0  0  0
   28.5831  -20.3213  -14.6359 C   0  0  0  0  0  0  0  0  0  0  0  0
   27.7470  -19.3686  -15.5041 C   0  0  2  0  0  0  0  0  0  0  0  0
   28.7379  -18.3609  -16.0367 C   0  0  0  0  0  0  0  0  0  0  0  0
   26.7389  -18.6870  -14.6028 C   0  0  2  0  0  0  0  0  0  0  0  0
   25.7689  -19.6663  -14.1119 N   0  0  0  0  0  0  0  0  0  0  0  0
   25.9723  -17.6744  -15.3577 C   0  0  0  0  0  0  0  0  0  0  0  0
   25.2387  -18.0879  -16.3220 O   0  0  0  0  0  0  0  0  0  0  0  0
   25.2361  -13.9885  -15.2353 C   0  0  0  0  0  0  0  0  0  0  0  0
   25.0735  -15.3768  -15.8497 C   0  0  2  0  0  0  0  0  0  0  0  0
   25.9582  -16.2919  -15.1297 N   0  0  0  0  0  0  0  0  0  0  0  0
   25.3446  -15.3737  -17.2912 C   0  0  0  0  0  0  0  0  0  0  0  0
   26.5198  -15.5044  -17.7028 O   0  0  0  0  0  0  0  0  0  0  0  0
   24.3368  -15.2298  -18.2269 O   0  0  0  0  0  0  0  0  0  0  0  0
  2  1  1  1
  2  3  1  0
  4  3  1  0
  5  4  2  0
  6  7  1  0
  6  5  1  0
  7  8  2  0
  8  4  1  0
  9 15  1  0
  9  2  1  0
 10  9  2  0
 12 11  1  1
 12 14  1  0
 13 12  1  0
 14 15  1  6
 16 14  1  0
 17 16  2  0
 19 18  1  1
 19 21  1  0
 19 20  1  0
 20 16  1  0
 21 23  1  0
 22 21  2  0
M  END
$$$$
