HVA.pdb
     RDKit          3D

 23 23  0  0  1  0  0  0  0  0999 V2000
   22.1875  -20.6583  -15.1694 N   0  0  0  0  0  0  0  0  0  0  0  0
   21.4805  -20.0541  -14.0850 C   0  0  1  0  0  0  0  0  0  0  0  0
   20.0415  -19.7591  -14.4043 C   0  0  0  0  0  0  0  0  0  0  0  0
   20.0098  -18.7181  -15.4640 C   0  0  0  0  0  0  0  0  0  0  0  0
   20.0479  -17.3618  -15.3537 C   0  0  0  0  0  0  0  0  0  0  0  0
   19.9964  -16.7739  -16.5621 N   0  0  0  0  0  0  0  0  0  0  0  0
   19.9246  -17.7683  -17.4500 C   0  0  0  0  0  0  0  0  0  0  0  0
   19.9313  -18.9648  -16.8029 N   0  0  0  0  0  0  0  0  0  0  0  0
   21.6207  -20.8872  -12.8532 C   0  0  0  0  0  0  0  0  0  0  0  0
   21.5476  -22.1536  -12.9077 O   0  0  0  0  0  0  0  0  0  0  0  0
   24.3835  -20.3922  -10.0892 C   0  0  0  0  0  0  0  0  0  0  0  0
   22.9967  -20.4513   -9.4306 C   0  0  2  0  0  0  0  0  0  0  0  0
   23.1960  -21.2800   -8.1838 C   0  0  0  0  0  0  0  0  0  0  0  0
   22.0608  -21.1597  -10.3872 C   0  0  2  0  0  0  0  0  0  0  0  0
   21.8396  -20.3302  -11.5721 N   0  0  0  0  0  0  0  0  0  0  0  0
   20.7383  -21.3633   -9.7607 C   0  0  0  0  0  0  0  0  0  0  0  0
   19.8199  -20.5136  -10.0322 O   0  0  0  0  0  0  0  0  0  0  0  0
   18.2395  -23.1795   -9.7150 C   0  0  0  0  0  0  0  0  0  0  0  0
   18.9887  -22.6524   -8.4935 C   0  0  2  0  0  0  0  0  0  0  0  0
   20.3730  -22.3998   -8.8914 N   0  0  0  0  0  0  0  0  0  0  0  0
   18.9054  -23.5772   -7.3580 C   0  0  0  0  0  0  0  0  0  0  0  0
   19.9087  -24.2506   -7.0300 O   0  0  0  0  0  0  0  0  0  0  0  0
   17.7438  -23.7360   -6.6249 O   0  0  0  0  0  0  0  0  0  0  0  0
  2  1  1  6
  2  3  1  0
  4  3  1  0
  5  4  2  0
  6  7  1  0
  6  5  1  0
  7  8  2  0
  8  4  1  0
  9 15  1  0
  9  2  1  0
 10  9  2  0
 12 11  1  6
 12 14  1  0
 13 12  1  0
 14 15  1  6
 16 14  1  0
 17 16  2  0
 19 18  1  6
 19 21  1  0
 19 20  1  0
 20 16  1  0
 21 23  1  0
 22 21  2  0
M  END
$$$$
