HVA.pdb
     RDKit          3D

 23 23  0  0  1  0  0  0  0  0999 V2000
   26.3051  -34.2142  -13.2555 N   0  0  0  0  0  0  0  0  0  0  0  0
   26.3260  -35.0295  -12.0826 C   0  0  1  0  0  0  0  0  0  0  0  0
   27.1483  -36.2778  -12.2407 C   0  0  0  0  0  0  0  0  0  0  0  0
   26.4070  -37.2066  -13.1326 C   0  0  0  0  0  0  0  0  0  0  0  0
   25.2520  -37.8918  -12.9097 C   0  0  0  0  0  0  0  0  0  0  0  0
   24.9114  -38.6321  -13.9796 N   0  0  0  0  0  0  0  0  0  0  0  0
   25.8610  -38.4145  -14.8923 C   0  0  0  0  0  0  0  0  0  0  0  0
   26.7851  -37.5474  -14.3977 N   0  0  0  0  0  0  0  0  0  0  0  0
   26.7577  -34.2209  -10.9031 C   0  0  0  0  0  0  0  0  0  0  0  0
   27.7637  -33.4495  -10.9713 O   0  0  0  0  0  0  0  0  0  0  0  0
   24.8394  -31.5979   -9.0488 C   0  0  0  0  0  0  0  0  0  0  0  0
   25.2265  -32.6739   -8.0226 C   0  0  2  0  0  0  0  0  0  0  0  0
   25.5617  -31.9065   -6.7657 C   0  0  0  0  0  0  0  0  0  0  0  0
   26.4552  -33.3888   -8.5441 C   0  0  2  0  0  0  0  0  0  0  0  0
   26.0868  -34.2618   -9.6590 N   0  0  0  0  0  0  0  0  0  0  0  0
   27.0299  -34.2592   -7.4976 C   0  0  0  0  0  0  0  0  0  0  0  0
   26.3665  -35.3039   -7.1694 O   0  0  0  0  0  0  0  0  0  0  0  0
   30.2295  -34.6536   -5.5796 C   0  0  0  0  0  0  0  0  0  0  0  0
   28.7782  -35.0340   -5.8630 C   0  0  2  0  0  0  0  0  0  0  0  0
   28.2391  -34.0653   -6.8167 N   0  0  0  0  0  0  0  0  0  0  0  0
   27.9781  -35.0972   -4.6352 C   0  0  0  0  0  0  0  0  0  0  0  0
   27.3485  -34.0856   -4.2510 O   0  0  0  0  0  0  0  0  0  0  0  0
   27.8914  -36.2487   -3.8746 O   0  0  0  0  0  0  0  0  0  0  0  0
  2  1  1  6
  2  3  1  0
  4  3  1  0
  5  4  2  0
  6  7  1  0
  6  5  1  0
  7  8  2  0
  8  4  1  0
  9 15  1  0
  9  2  1  0
 10  9  2  0
 12 11  1  6
 12 14  1  0
 13 12  1  0
 14 15  1  6
 16 14  1  0
 17 16  2  0
 19 18  1  1
 19 21  1  0
 19 20  1  0
 20 16  1  0
 21 23  1  0
 22 21  2  0
M  END
$$$$
