DHA.pdb
     RDKit          3D

 24 24  0  0  1  0  0  0  0  0999 V2000
   14.0038  -16.3946   18.1228 N   0  0  0  0  0  0  0  0  0  0  0  0
   14.0951  -15.0094   18.4363 C   0  0  1  0  0  0  0  0  0  0  0  0
   14.5061  -14.1412   17.2691 C   0  0  0  0  0  0  0  0  0  0  0  0
   15.8751  -14.5188   16.8472 C   0  0  0  0  0  0  0  0  0  0  0  0
   16.6033  -15.1320   17.6747 O   0  0  0  0  0  0  0  0  0  0  0  0
   12.7656  -14.5701   18.9722 C   0  0  0  0  0  0  0  0  0  0  0  0
   12.5958  -13.4159   19.4325 O   0  0  0  0  0  0  0  0  0  0  0  0
   16.4122  -14.2408   15.5946 O   0  0  0  0  0  0  0  0  0  0  0  0
   11.6280  -15.4333   18.9892 N   0  0  0  0  0  0  0  0  0  0  0  0
   10.3966  -15.0508   19.6333 C   0  0  1  0  0  0  0  0  0  0  0  0
    9.1702  -15.6511   18.9942 C   0  0  0  0  0  0  0  0  0  0  0  0
    8.9051  -15.0537   17.6617 C   0  0  0  0  0  0  0  0  0  0  0  0
    9.0883  -13.7222   17.2948 C   0  0  0  0  0  0  0  0  0  0  0  0
    8.7243  -13.6155   16.0069 N   0  0  0  0  0  0  0  0  0  0  0  0
    8.3255  -14.7915   15.5451 C   0  0  0  0  0  0  0  0  0  0  0  0
    8.4379  -15.6720   16.5709 N   0  0  0  0  0  0  0  0  0  0  0  0
   10.4390  -15.3388   21.0992 C   0  0  0  0  0  0  0  0  0  0  0  0
   11.2447  -16.1657   21.5842 O   0  0  0  0  0  0  0  0  0  0  0  0
    8.6155  -13.9505   24.0668 C   0  0  0  0  0  0  0  0  0  0  0  0
    9.5482  -14.9597   23.3824 C   0  0  2  0  0  0  0  0  0  0  0  0
    9.5533  -14.6696   21.9733 N   0  0  0  0  0  0  0  0  0  0  0  0
    9.1387  -16.3450   23.6339 C   0  0  0  0  0  0  0  0  0  0  0  0
    8.5401  -16.9804   22.7435 O   0  0  0  0  0  0  0  0  0  0  0  0
    9.4312  -16.9242   24.8704 O   0  0  0  0  0  0  0  0  0  0  0  0
  2  1  1  6
  2  3  1  0
  2  6  1  0
  3  4  1  0
  4  5  2  0
  4  8  1  0
  6  7  2  0
  9  6  1  0
  9 10  1  0
 10 17  1  0
 10 11  1  6
 11 12  1  0
 12 13  2  0
 13 14  1  0
 15 14  1  0
 16 12  1  0
 16 15  2  0
 17 18  2  0
 20 19  1  1
 20 22  1  0
 21 20  1  0
 21 17  1  0
 22 23  2  0
 22 24  1  0
M  END
$$$$
