DHA.pdb
     RDKit          3D

 24 24  0  0  1  0  0  0  0  0999 V2000
   11.3984  -18.0995   16.4526 N   0  0  0  0  0  0  0  0  0  0  0  0
   12.3036  -17.0366   16.7285 C   0  0  1  0  0  0  0  0  0  0  0  0
   12.5369  -16.1090   15.5579 C   0  0  0  0  0  0  0  0  0  0  0  0
   13.0773  -16.8929   14.4230 C   0  0  0  0  0  0  0  0  0  0  0  0
   12.5476  -16.7375   13.2888 O   0  0  0  0  0  0  0  0  0  0  0  0
   11.7718  -16.2722   17.9035 C   0  0  0  0  0  0  0  0  0  0  0  0
   12.4245  -15.3362   18.4237 O   0  0  0  0  0  0  0  0  0  0  0  0
   14.1337  -17.7919   14.5258 O   0  0  0  0  0  0  0  0  0  0  0  0
   10.5036  -16.5645   18.4917 N   0  0  0  0  0  0  0  0  0  0  0  0
    9.9656  -15.7684   19.5661 C   0  0  1  0  0  0  0  0  0  0  0  0
    8.4806  -15.5326   19.4565 C   0  0  0  0  0  0  0  0  0  0  0  0
    8.1387  -14.7923   18.2164 C   0  0  0  0  0  0  0  0  0  0  0  0
    8.2827  -13.4239   17.9972 C   0  0  0  0  0  0  0  0  0  0  0  0
    7.8517  -13.1782   16.7496 N   0  0  0  0  0  0  0  0  0  0  0  0
    7.4479  -14.3017   16.1752 C   0  0  0  0  0  0  0  0  0  0  0  0
    7.6259  -15.2913   17.0858 N   0  0  0  0  0  0  0  0  0  0  0  0
   10.3258  -16.3411   20.8987 C   0  0  0  0  0  0  0  0  0  0  0  0
   10.7679  -17.5069   21.0159 O   0  0  0  0  0  0  0  0  0  0  0  0
   10.2499  -14.9981   24.4016 C   0  0  0  0  0  0  0  0  0  0  0  0
   10.4231  -16.1187   23.3667 C   0  0  2  0  0  0  0  0  0  0  0  0
   10.1685  -15.5602   22.0657 N   0  0  0  0  0  0  0  0  0  0  0  0
    9.5374  -17.2562   23.6346 C   0  0  0  0  0  0  0  0  0  0  0  0
    9.8279  -18.0610   24.5417 O   0  0  0  0  0  0  0  0  0  0  0  0
    8.3828  -17.4120   22.8650 O   0  0  0  0  0  0  0  0  0  0  0  0
  2  1  1  6
  2  3  1  0
  2  6  1  0
  3  4  1  0
  4  5  2  0
  4  8  1  0
  6  7  2  0
  9  6  1  0
  9 10  1  0
 10 17  1  0
 10 11  1  6
 11 12  1  0
 12 13  2  0
 13 14  1  0
 15 14  1  0
 16 12  1  0
 16 15  2  0
 17 18  2  0
 20 19  1  1
 20 22  1  0
 21 20  1  0
 21 17  1  0
 22 23  2  0
 22 24  1  0
M  END
$$$$
