DHA.pdb
     RDKit          3D

 24 24  0  0  1  0  0  0  0  0999 V2000
   10.8929  -18.2515   17.1680 N   0  0  0  0  0  0  0  0  0  0  0  0
   11.9922  -17.3867   17.4309 C   0  0  1  0  0  0  0  0  0  0  0  0
   12.3136  -16.4398   16.2974 C   0  0  0  0  0  0  0  0  0  0  0  0
   12.7730  -17.2263   15.1290 C   0  0  0  0  0  0  0  0  0  0  0  0
   11.8999  -17.7750   14.4026 O   0  0  0  0  0  0  0  0  0  0  0  0
   11.6856  -16.6197   18.6821 C   0  0  0  0  0  0  0  0  0  0  0  0
   12.5239  -15.8381   19.1912 O   0  0  0  0  0  0  0  0  0  0  0  0
   14.1080  -17.3999   14.7789 O   0  0  0  0  0  0  0  0  0  0  0  0
   10.4334  -16.7351   19.3590 N   0  0  0  0  0  0  0  0  0  0  0  0
   10.2183  -16.1502   20.6586 C   0  0  1  0  0  0  0  0  0  0  0  0
    8.8503  -15.5390   20.8257 C   0  0  0  0  0  0  0  0  0  0  0  0
    8.6919  -14.3253   19.9864 C   0  0  0  0  0  0  0  0  0  0  0  0
    9.6949  -13.6647   19.2802 C   0  0  0  0  0  0  0  0  0  0  0  0
    9.1191  -12.6201   18.6638 N   0  0  0  0  0  0  0  0  0  0  0  0
    7.8235  -12.5841   18.9383 C   0  0  0  0  0  0  0  0  0  0  0  0
    7.5683  -13.6365   19.7552 N   0  0  0  0  0  0  0  0  0  0  0  0
   10.5106  -17.1292   21.7493 C   0  0  0  0  0  0  0  0  0  0  0  0
   10.2158  -18.3415   21.6415 O   0  0  0  0  0  0  0  0  0  0  0  0
   12.4798  -16.9441   24.9151 C   0  0  0  0  0  0  0  0  0  0  0  0
   11.4647  -17.6226   23.9846 C   0  0  2  0  0  0  0  0  0  0  0  0
   11.1345  -16.6913   22.9390 N   0  0  0  0  0  0  0  0  0  0  0  0
   10.2626  -18.0551   24.7043 C   0  0  0  0  0  0  0  0  0  0  0  0
    9.1929  -17.4352   24.5424 O   0  0  0  0  0  0  0  0  0  0  0  0
   10.3435  -19.1576   25.5575 O   0  0  0  0  0  0  0  0  0  0  0  0
  2  1  1  6
  2  3  1  0
  2  6  1  0
  3  4  1  0
  4  5  2  0
  4  8  1  0
  6  7  2  0
  9  6  1  0
  9 10  1  0
 10 17  1  0
 10 11  1  6
 11 12  1  0
 12 13  2  0
 13 14  1  0
 15 14  1  0
 16 12  1  0
 16 15  2  0
 17 18  2  0
 20 19  1  1
 20 22  1  0
 21 20  1  0
 21 17  1  0
 22 23  2  0
 22 24  1  0
M  END
$$$$
