DHA.pdb
     RDKit          3D

 24 24  0  0  1  0  0  0  0  0999 V2000
   12.9012  -16.5549   18.2506 N   0  0  0  0  0  0  0  0  0  0  0  0
   13.3696  -15.3474   18.8405 C   0  0  1  0  0  0  0  0  0  0  0  0
   13.6428  -14.2432   17.8450 C   0  0  0  0  0  0  0  0  0  0  0  0
   14.7233  -14.6774   16.9292 C   0  0  0  0  0  0  0  0  0  0  0  0
   14.4576  -14.7699   15.6996 O   0  0  0  0  0  0  0  0  0  0  0  0
   12.3529  -14.9029   19.8486 C   0  0  0  0  0  0  0  0  0  0  0  0
   12.5446  -13.8941   20.5686 O   0  0  0  0  0  0  0  0  0  0  0  0
   16.0157  -14.9906   17.3371 O   0  0  0  0  0  0  0  0  0  0  0  0
   11.1203  -15.5969   20.0446 N   0  0  0  0  0  0  0  0  0  0  0  0
   10.1233  -15.1230   20.9714 C   0  0  1  0  0  0  0  0  0  0  0  0
    8.7155  -15.2096   20.4389 C   0  0  0  0  0  0  0  0  0  0  0  0
    8.5793  -14.4935   19.1461 C   0  0  0  0  0  0  0  0  0  0  0  0
    8.4811  -13.1157   18.9638 C   0  0  0  0  0  0  0  0  0  0  0  0
    8.3697  -12.9008   17.6432 N   0  0  0  0  0  0  0  0  0  0  0  0
    8.3914  -14.0525   16.9886 C   0  0  0  0  0  0  0  0  0  0  0  0
    8.5187  -15.0291   17.9214 N   0  0  0  0  0  0  0  0  0  0  0  0
   10.2443  -15.8065   22.2949 C   0  0  0  0  0  0  0  0  0  0  0  0
   10.8124  -16.9164   22.4126 O   0  0  0  0  0  0  0  0  0  0  0  0
    9.1406  -14.9248   25.7721 C   0  0  0  0  0  0  0  0  0  0  0  0
    9.8073  -15.8405   24.7358 C   0  0  2  0  0  0  0  0  0  0  0  0
    9.7086  -15.1983   23.4523 N   0  0  0  0  0  0  0  0  0  0  0  0
    9.1971  -17.1735   24.7067 C   0  0  0  0  0  0  0  0  0  0  0  0
    8.3255  -17.4319   23.8533 O   0  0  0  0  0  0  0  0  0  0  0  0
    9.6091  -18.1278   25.6391 O   0  0  0  0  0  0  0  0  0  0  0  0
  2  1  1  6
  2  3  1  0
  2  6  1  0
  3  4  1  0
  4  5  2  0
  4  8  1  0
  6  7  2  0
  9  6  1  0
  9 10  1  0
 10 17  1  0
 10 11  1  6
 11 12  1  0
 12 13  2  0
 13 14  1  0
 15 14  1  0
 16 12  1  0
 16 15  2  0
 17 18  2  0
 20 19  1  1
 20 22  1  0
 21 20  1  0
 21 17  1  0
 22 23  2  0
 22 24  1  0
M  END
$$$$
