DHA.pdb
     RDKit          3D

 24 24  0  0  1  0  0  0  0  0999 V2000
   12.4494  -16.6209   18.2912 N   0  0  0  0  0  0  0  0  0  0  0  0
   13.0514  -15.5417   18.9970 C   0  0  1  0  0  0  0  0  0  0  0  0
   13.2637  -14.3019   18.1588 C   0  0  0  0  0  0  0  0  0  0  0  0
   14.5262  -14.4463   17.3971 C   0  0  0  0  0  0  0  0  0  0  0  0
   14.5358  -15.2274   16.4068 O   0  0  0  0  0  0  0  0  0  0  0  0
   12.1894  -15.2296   20.1833 C   0  0  0  0  0  0  0  0  0  0  0  0
   12.5489  -14.3994   21.0518 O   0  0  0  0  0  0  0  0  0  0  0  0
   15.7055  -13.7752   17.7030 O   0  0  0  0  0  0  0  0  0  0  0  0
   10.9221  -15.8548   20.3898 N   0  0  0  0  0  0  0  0  0  0  0  0
   10.1619  -15.6453   21.5963 C   0  0  1  0  0  0  0  0  0  0  0  0
    8.7061  -15.3431   21.3468 C   0  0  0  0  0  0  0  0  0  0  0  0
    8.5407  -14.2524   20.3540 C   0  0  0  0  0  0  0  0  0  0  0  0
    8.3928  -12.8940   20.6264 C   0  0  0  0  0  0  0  0  0  0  0  0
    8.2700  -12.2673   19.4454 N   0  0  0  0  0  0  0  0  0  0  0  0
    8.3309  -13.1437   18.4537 C   0  0  0  0  0  0  0  0  0  0  0  0
    8.4957  -14.3646   19.0214 N   0  0  0  0  0  0  0  0  0  0  0  0
   10.3224  -16.7896   22.5442 C   0  0  0  0  0  0  0  0  0  0  0  0
   10.1809  -17.9769   22.1721 O   0  0  0  0  0  0  0  0  0  0  0  0
   12.2858  -18.0470   24.7976 C   0  0  0  0  0  0  0  0  0  0  0  0
   10.8092  -17.6276   24.8269 C   0  0  2  0  0  0  0  0  0  0  0  0
   10.6411  -16.5418   23.8982 N   0  0  0  0  0  0  0  0  0  0  0  0
   10.3738  -17.2422   26.1730 C   0  0  0  0  0  0  0  0  0  0  0  0
   10.0157  -16.0678   26.3904 O   0  0  0  0  0  0  0  0  0  0  0  0
   10.3690  -18.2043   27.1850 O   0  0  0  0  0  0  0  0  0  0  0  0
  2  1  1  6
  2  3  1  0
  2  6  1  0
  3  4  1  0
  4  5  2  0
  4  8  1  0
  6  7  2  0
  9  6  1  0
  9 10  1  0
 10 17  1  0
 10 11  1  6
 11 12  1  0
 12 13  2  0
 13 14  1  0
 15 14  1  0
 16 12  1  0
 16 15  2  0
 17 18  2  0
 20 19  1  1
 20 22  1  0
 21 20  1  0
 21 17  1  0
 22 23  2  0
 22 24  1  0
M  END
$$$$
