DHA.pdb
     RDKit          3D

 24 24  0  0  1  0  0  0  0  0999 V2000
   10.5244  -18.5959   17.9800 N   0  0  0  0  0  0  0  0  0  0  0  0
   11.5103  -17.5791   18.1189 C   0  0  1  0  0  0  0  0  0  0  0  0
   11.5951  -16.6401   16.9374 C   0  0  0  0  0  0  0  0  0  0  0  0
   12.3411  -17.3072   15.8451 C   0  0  0  0  0  0  0  0  0  0  0  0
   12.7107  -18.5003   16.0213 O   0  0  0  0  0  0  0  0  0  0  0  0
   11.2101  -16.8151   19.3735 C   0  0  0  0  0  0  0  0  0  0  0  0
   12.0331  -16.0006   19.8552 O   0  0  0  0  0  0  0  0  0  0  0  0
   12.6619  -16.7029   14.6341 O   0  0  0  0  0  0  0  0  0  0  0  0
    9.9815  -16.9707   20.0848 N   0  0  0  0  0  0  0  0  0  0  0  0
    9.7078  -16.2352   21.2937 C   0  0  1  0  0  0  0  0  0  0  0  0
    8.3586  -15.5626   21.2978 C   0  0  0  0  0  0  0  0  0  0  0  0
    8.1997  -14.6579   20.1321 C   0  0  0  0  0  0  0  0  0  0  0  0
    8.6845  -13.3569   20.0157 C   0  0  0  0  0  0  0  0  0  0  0  0
    8.3133  -12.9057   18.8068 N   0  0  0  0  0  0  0  0  0  0  0  0
    7.6287  -13.8380   18.1607 C   0  0  0  0  0  0  0  0  0  0  0  0
    7.5611  -14.9137   18.9844 N   0  0  0  0  0  0  0  0  0  0  0  0
    9.8884  -17.0937   22.5037 C   0  0  0  0  0  0  0  0  0  0  0  0
    9.2960  -18.1901   22.6267 O   0  0  0  0  0  0  0  0  0  0  0  0
   12.4529  -17.5391   24.9969 C   0  0  0  0  0  0  0  0  0  0  0  0
   10.9452  -17.4867   24.7125 C   0  0  2  0  0  0  0  0  0  0  0  0
   10.7453  -16.6709   23.5445 N   0  0  0  0  0  0  0  0  0  0  0  0
   10.1880  -16.9661   25.8551 C   0  0  0  0  0  0  0  0  0  0  0  0
    9.5900  -15.8768   25.7513 O   0  0  0  0  0  0  0  0  0  0  0  0
   10.1525  -17.7064   27.0385 O   0  0  0  0  0  0  0  0  0  0  0  0
  2  1  1  6
  2  3  1  0
  2  6  1  0
  3  4  1  0
  4  5  2  0
  4  8  1  0
  6  7  2  0
  9  6  1  0
  9 10  1  0
 10 17  1  0
 10 11  1  6
 11 12  1  0
 12 13  2  0
 13 14  1  0
 15 14  1  0
 16 12  1  0
 16 15  2  0
 17 18  2  0
 20 19  1  1
 20 22  1  0
 21 20  1  0
 21 17  1  0
 22 23  2  0
 22 24  1  0
M  END
$$$$
