DHA.pdb
     RDKit          3D

 24 24  0  0  1  0  0  0  0  0999 V2000
   10.8894  -18.4946   21.6586 N   0  0  0  0  0  0  0  0  0  0  0  0
   11.7104  -17.3506   21.4527 C   0  0  1  0  0  0  0  0  0  0  0  0
   11.8068  -16.9156   20.0083 C   0  0  0  0  0  0  0  0  0  0  0  0
   12.7861  -17.7803   19.3096 C   0  0  0  0  0  0  0  0  0  0  0  0
   13.2775  -18.7533   19.9443 O   0  0  0  0  0  0  0  0  0  0  0  0
   11.1698  -16.2374   22.2991 C   0  0  0  0  0  0  0  0  0  0  0  0
   11.8041  -15.1666   22.4533 O   0  0  0  0  0  0  0  0  0  0  0  0
   13.2006  -17.5894   17.9956 O   0  0  0  0  0  0  0  0  0  0  0  0
    9.9136  -16.3330   22.9718 N   0  0  0  0  0  0  0  0  0  0  0  0
    9.4339  -15.2816   23.8332 C   0  0  1  0  0  0  0  0  0  0  0  0
    7.9575  -15.0120   23.6907 C   0  0  0  0  0  0  0  0  0  0  0  0
    7.6143  -14.5863   22.3110 C   0  0  0  0  0  0  0  0  0  0  0  0
    8.0797  -13.4518   21.6496 C   0  0  0  0  0  0  0  0  0  0  0  0
    7.5179  -13.4492   20.4302 N   0  0  0  0  0  0  0  0  0  0  0  0
    6.7323  -14.5063   20.2861 C   0  0  0  0  0  0  0  0  0  0  0  0
    6.7953  -15.2008   21.4496 N   0  0  0  0  0  0  0  0  0  0  0  0
    9.8023  -15.5378   25.2588 C   0  0  0  0  0  0  0  0  0  0  0  0
   10.0705  -16.6890   25.6722 O   0  0  0  0  0  0  0  0  0  0  0  0
   10.1309  -13.3415   28.2835 C   0  0  0  0  0  0  0  0  0  0  0  0
   10.2679  -14.6760   27.5371 C   0  0  2  0  0  0  0  0  0  0  0  0
    9.8527  -14.4643   26.1761 N   0  0  0  0  0  0  0  0  0  0  0  0
    9.4830  -15.7418   28.1679 C   0  0  0  0  0  0  0  0  0  0  0  0
    9.9284  -16.3156   29.1814 O   0  0  0  0  0  0  0  0  0  0  0  0
    8.2480  -16.0906   27.6173 O   0  0  0  0  0  0  0  0  0  0  0  0
  2  1  1  6
  2  3  1  0
  2  6  1  0
  3  4  1  0
  4  5  2  0
  4  8  1  0
  6  7  2  0
  9  6  1  0
  9 10  1  0
 10 17  1  0
 10 11  1  1
 11 12  1  0
 12 13  2  0
 13 14  1  0
 15 14  1  0
 16 12  1  0
 16 15  2  0
 17 18  2  0
 20 19  1  1
 20 22  1  0
 21 20  1  0
 21 17  1  0
 22 23  2  0
 22 24  1  0
M  END
$$$$
