DHA.pdb
     RDKit          3D

 24 24  0  0  1  0  0  0  0  0999 V2000
   11.9894  -16.3152   17.7793 N   0  0  0  0  0  0  0  0  0  0  0  0
   11.9433  -16.8009   19.1162 C   0  0  1  0  0  0  0  0  0  0  0  0
   13.3035  -16.9955   19.7462 C   0  0  0  0  0  0  0  0  0  0  0  0
   13.9977  -18.1089   19.0583 C   0  0  0  0  0  0  0  0  0  0  0  0
   13.2983  -19.0597   18.6135 O   0  0  0  0  0  0  0  0  0  0  0  0
   11.1241  -15.8418   19.9265 C   0  0  0  0  0  0  0  0  0  0  0  0
   11.5162  -14.6710   20.1460 O   0  0  0  0  0  0  0  0  0  0  0  0
   15.3742  -18.1751   18.8699 O   0  0  0  0  0  0  0  0  0  0  0  0
    9.8626  -16.2041   20.4896 N   0  0  0  0  0  0  0  0  0  0  0  0
    9.0894  -15.2758   21.2756 C   0  0  1  0  0  0  0  0  0  0  0  0
    7.7027  -15.0368   20.7346 C   0  0  0  0  0  0  0  0  0  0  0  0
    7.7433  -14.5488   19.3335 C   0  0  0  0  0  0  0  0  0  0  0  0
    8.0449  -13.2560   18.9106 C   0  0  0  0  0  0  0  0  0  0  0  0
    7.9627  -13.2516   17.5704 N   0  0  0  0  0  0  0  0  0  0  0  0
    7.6296  -14.4553   17.1284 C   0  0  0  0  0  0  0  0  0  0  0  0
    7.4942  -15.2485   18.2205 N   0  0  0  0  0  0  0  0  0  0  0  0
    9.0468  -15.6854   22.7122 C   0  0  0  0  0  0  0  0  0  0  0  0
    9.2486  -16.8699   23.0649 O   0  0  0  0  0  0  0  0  0  0  0  0
    8.3128  -13.8470   25.9009 C   0  0  0  0  0  0  0  0  0  0  0  0
    8.6285  -15.1105   25.0881 C   0  0  2  0  0  0  0  0  0  0  0  0
    8.7722  -14.7234   23.7100 N   0  0  0  0  0  0  0  0  0  0  0  0
    7.5923  -16.1364   25.2422 C   0  0  0  0  0  0  0  0  0  0  0  0
    7.5348  -16.7983   26.2974 O   0  0  0  0  0  0  0  0  0  0  0  0
    6.6885  -16.3488   24.1991 O   0  0  0  0  0  0  0  0  0  0  0  0
  2  1  1  6
  2  3  1  0
  2  6  1  0
  3  4  1  0
  4  5  2  0
  4  8  1  0
  6  7  2  0
  9  6  1  0
  9 10  1  0
 10 17  1  0
 10 11  1  6
 11 12  1  0
 12 13  2  0
 13 14  1  0
 15 14  1  0
 16 12  1  0
 16 15  2  0
 17 18  2  0
 20 19  1  1
 20 22  1  0
 21 20  1  0
 21 17  1  0
 22 23  2  0
 22 24  1  0
M  END
$$$$
