DHA.pdb
     RDKit          3D

 24 24  0  0  1  0  0  0  0  0999 V2000
   11.2502  -17.9173   14.6419 N   0  0  0  0  0  0  0  0  0  0  0  0
   11.9179  -17.2034   15.6763 C   0  0  1  0  0  0  0  0  0  0  0  0
   12.8168  -16.0956   15.1767 C   0  0  0  0  0  0  0  0  0  0  0  0
   14.1231  -16.6751   14.7861 C   0  0  0  0  0  0  0  0  0  0  0  0
   14.4493  -17.7893   15.2792 O   0  0  0  0  0  0  0  0  0  0  0  0
   10.8755  -16.6533   16.6029 C   0  0  0  0  0  0  0  0  0  0  0  0
   10.6582  -15.4208   16.6837 O   0  0  0  0  0  0  0  0  0  0  0  0
   15.0164  -16.0696   13.9086 O   0  0  0  0  0  0  0  0  0  0  0  0
   10.0789  -17.4939   17.4386 N   0  0  0  0  0  0  0  0  0  0  0  0
    9.1499  -16.9483   18.3960 C   0  0  1  0  0  0  0  0  0  0  0  0
    7.8604  -17.7232   18.4939 C   0  0  0  0  0  0  0  0  0  0  0  0
    6.9255  -17.1007   19.4641 C   0  0  0  0  0  0  0  0  0  0  0  0
    6.7204  -15.7375   19.6655 C   0  0  0  0  0  0  0  0  0  0  0  0
    5.7979  -15.6174   20.6336 N   0  0  0  0  0  0  0  0  0  0  0  0
    5.4136  -16.8148   21.0505 C   0  0  0  0  0  0  0  0  0  0  0  0
    6.1141  -17.7234   20.3268 N   0  0  0  0  0  0  0  0  0  0  0  0
    9.7869  -16.7859   19.7382 C   0  0  0  0  0  0  0  0  0  0  0  0
   10.6861  -17.5605   20.1377 O   0  0  0  0  0  0  0  0  0  0  0  0
    9.3599  -14.3234   22.5347 C   0  0  0  0  0  0  0  0  0  0  0  0
    9.8722  -15.6412   21.9365 C   0  0  2  0  0  0  0  0  0  0  0  0
    9.3744  -15.7369   20.5902 N   0  0  0  0  0  0  0  0  0  0  0  0
    9.4637  -16.8022   22.7335 C   0  0  0  0  0  0  0  0  0  0  0  0
    8.4857  -17.4845   22.3690 O   0  0  0  0  0  0  0  0  0  0  0  0
   10.1835  -17.1195   23.8872 O   0  0  0  0  0  0  0  0  0  0  0  0
  2  1  1  6
  2  3  1  0
  2  6  1  0
  3  4  1  0
  4  5  2  0
  4  8  1  0
  6  7  2  0
  9  6  1  0
  9 10  1  0
 10 17  1  0
 10 11  1  1
 11 12  1  0
 12 13  2  0
 13 14  1  0
 15 14  1  0
 16 12  1  0
 16 15  2  0
 17 18  2  0
 20 19  1  1
 20 22  1  0
 21 20  1  0
 21 17  1  0
 22 23  2  0
 22 24  1  0
M  END
$$$$
