DHA.pdb
     RDKit          3D

 24 24  0  0  1  0  0  0  0  0999 V2000
   10.9281  -19.9540   16.4489 N   0  0  0  0  0  0  0  0  0  0  0  0
    9.8982  -19.9989   17.4302 C   0  0  1  0  0  0  0  0  0  0  0  0
   10.0237  -21.1517   18.3999 C   0  0  0  0  0  0  0  0  0  0  0  0
    9.8990  -22.4248   17.6528 C   0  0  0  0  0  0  0  0  0  0  0  0
   10.5753  -23.4135   18.0479 O   0  0  0  0  0  0  0  0  0  0  0  0
    9.9065  -18.6930   18.1664 C   0  0  0  0  0  0  0  0  0  0  0  0
   10.9776  -18.1687   18.5548 O   0  0  0  0  0  0  0  0  0  0  0  0
    9.0825  -22.6025   16.5407 O   0  0  0  0  0  0  0  0  0  0  0  0
    8.7063  -17.9790   18.4648 N   0  0  0  0  0  0  0  0  0  0  0  0
    8.7289  -16.7165   19.1600 C   0  0  1  0  0  0  0  0  0  0  0  0
    7.5225  -15.8552   18.8851 C   0  0  0  0  0  0  0  0  0  0  0  0
    7.6840  -14.4960   19.4589 C   0  0  0  0  0  0  0  0  0  0  0  0
    7.0188  -13.9756   20.5670 C   0  0  0  0  0  0  0  0  0  0  0  0
    7.4590  -12.7184   20.7352 N   0  0  0  0  0  0  0  0  0  0  0  0
    8.3545  -12.4188   19.8058 C   0  0  0  0  0  0  0  0  0  0  0  0
    8.4862  -13.5182   19.0221 N   0  0  0  0  0  0  0  0  0  0  0  0
    8.9335  -16.9090   20.6278 C   0  0  0  0  0  0  0  0  0  0  0  0
    8.3380  -17.8095   21.2625 O   0  0  0  0  0  0  0  0  0  0  0  0
   11.4687  -15.5644   23.0072 C   0  0  0  0  0  0  0  0  0  0  0  0
   10.1848  -16.3456   22.6935 C   0  0  2  0  0  0  0  0  0  0  0  0
    9.8175  -16.0610   21.3320 N   0  0  0  0  0  0  0  0  0  0  0  0
    9.0960  -16.0066   23.6151 C   0  0  0  0  0  0  0  0  0  0  0  0
    8.1822  -15.2484   23.2345 O   0  0  0  0  0  0  0  0  0  0  0  0
    9.1068  -16.5443   24.9038 O   0  0  0  0  0  0  0  0  0  0  0  0
  2  1  1  6
  2  3  1  0
  2  6  1  0
  3  4  1  0
  4  5  2  0
  4  8  1  0
  6  7  2  0
  9  6  1  0
  9 10  1  0
 10 17  1  0
 10 11  1  1
 11 12  1  0
 12 13  2  0
 13 14  1  0
 15 14  1  0
 16 12  1  0
 16 15  2  0
 17 18  2  0
 20 19  1  1
 20 22  1  0
 21 20  1  0
 21 17  1  0
 22 23  2  0
 22 24  1  0
M  END
$$$$
