EKH.pdb
     RDKit          3D

 29 29  0  0  1  0  0  0  0  0999 V2000
   27.9120  -21.9196  -16.0230 N   0  0  0  0  0  0  0  0  0  0  0  0
   26.8516  -20.9253  -15.9582 C   0  0  1  0  0  0  0  0  0  0  0  0
   26.4099  -20.6287  -17.3400 C   0  0  0  0  0  0  0  0  0  0  0  0
   27.5214  -19.9795  -18.1116 C   0  0  0  0  0  0  0  0  0  0  0  0
   27.8389  -18.6068  -17.7257 C   0  0  0  0  0  0  0  0  0  0  0  0
   27.0123  -17.6849  -17.7620 O   0  0  0  0  0  0  0  0  0  0  0  0
   25.7480  -21.4361  -15.0901 C   0  0  0  0  0  0  0  0  0  0  0  0
   25.0844  -22.4535  -15.4122 O   0  0  0  0  0  0  0  0  0  0  0  0
   29.1328  -18.2569  -17.2824 O   0  0  0  0  0  0  0  0  0  0  0  0
   25.4496  -20.7703  -13.9001 N   0  0  0  0  0  0  0  0  0  0  0  0
   24.4322  -21.2162  -12.9282 C   0  0  1  0  0  0  0  0  0  0  0  0
   24.7386  -20.6225  -11.5843 C   0  0  0  0  0  0  0  0  0  0  0  0
   25.9466  -21.2990  -11.0267 C   0  0  0  0  0  0  0  0  0  0  0  0
   26.3793  -20.7795   -9.6707 C   0  0  0  0  0  0  0  0  0  0  0  0
   27.6917  -21.3949   -9.2926 C   0  0  0  0  0  0  0  0  0  0  0  0
   28.1104  -20.9098   -7.9707 N   0  0  0  0  0  0  0  0  0  0  0  0
   23.0947  -20.9228  -13.4361 C   0  0  0  0  0  0  0  0  0  0  0  0
   22.8091  -19.7056  -13.7329 O   0  0  0  0  0  0  0  0  0  0  0  0
   22.0407  -21.8376  -13.6590 N   0  0  0  0  0  0  0  0  0  0  0  0
   20.7225  -21.3686  -14.1841 C   0  0  1  0  0  0  0  0  0  0  0  0
   20.1079  -22.5895  -14.7894 C   0  0  0  0  0  0  0  0  0  0  0  0
   18.7624  -22.3541  -15.3111 C   0  0  0  0  0  0  0  0  0  0  0  0
   18.2334  -21.1000  -15.6501 C   0  0  0  0  0  0  0  0  0  0  0  0
   16.9916  -21.2908  -16.0844 N   0  0  0  0  0  0  0  0  0  0  0  0
   16.6791  -22.6068  -16.0475 C   0  0  0  0  0  0  0  0  0  0  0  0
   17.7670  -23.2062  -15.5787 N   0  0  0  0  0  0  0  0  0  0  0  0
   19.9519  -20.8135  -13.0625 C   0  0  0  0  0  0  0  0  0  0  0  0
   20.0703  -21.2790  -11.9203 O   0  0  0  0  0  0  0  0  0  0  0  0
   19.0728  -19.7409  -13.2982 O   0  0  0  0  0  0  0  0  0  0  0  0
  2  1  1  6
  3  2  1  0
  4  3  1  0
  5  4  1  0
  6  5  2  0
  7  2  1  0
  7  8  2  0
  9  5  1  0
 10  7  1  0
 11 10  1  0
 11 12  1  1
 13 12  1  0
 13 14  1  0
 14 15  1  0
 16 15  1  0
 17 11  1  0
 18 17  2  0
 19 17  1  0
 20 27  1  0
 20 19  1  0
 21 22  1  0
 20 21  1  1
 22 23  2  0
 23 24  1  0
 25 24  1  0
 26 22  1  0
 26 25  2  0
 27 29  1  0
 28 27  2  0
M  END
$$$$
