EKH.pdb
     RDKit          3D

 29 29  0  0  1  0  0  0  0  0999 V2000
   20.7243  -15.0424  -17.7580 N   0  0  0  0  0  0  0  0  0  0  0  0
   21.4476  -13.9752  -17.0831 C   0  0  1  0  0  0  0  0  0  0  0  0
   22.8066  -13.8964  -17.6658 C   0  0  0  0  0  0  0  0  0  0  0  0
   22.7237  -13.6429  -19.1426 C   0  0  0  0  0  0  0  0  0  0  0  0
   24.0039  -13.4821  -19.8276 C   0  0  0  0  0  0  0  0  0  0  0  0
   24.6183  -14.4254  -20.3446 O   0  0  0  0  0  0  0  0  0  0  0  0
   20.6816  -12.6992  -17.2151 C   0  0  0  0  0  0  0  0  0  0  0  0
   20.4499  -12.1927  -18.3416 O   0  0  0  0  0  0  0  0  0  0  0  0
   24.6165  -12.2148  -19.9359 O   0  0  0  0  0  0  0  0  0  0  0  0
   20.2153  -12.0590  -16.0656 N   0  0  0  0  0  0  0  0  0  0  0  0
   19.4270  -10.8113  -16.0683 C   0  0  1  0  0  0  0  0  0  0  0  0
   18.1660  -11.0215  -15.2819 C   0  0  0  0  0  0  0  0  0  0  0  0
   17.2306  -11.8561  -16.0921 C   0  0  0  0  0  0  0  0  0  0  0  0
   15.8827  -12.0894  -15.4404 C   0  0  0  0  0  0  0  0  0  0  0  0
   15.0906  -13.0620  -16.2594 C   0  0  0  0  0  0  0  0  0  0  0  0
   13.7356  -13.1946  -15.7079 N   0  0  0  0  0  0  0  0  0  0  0  0
   20.2541   -9.6976  -15.6117 C   0  0  0  0  0  0  0  0  0  0  0  0
   21.1149   -9.9184  -14.6834 O   0  0  0  0  0  0  0  0  0  0  0  0
   20.2353   -8.3647  -16.0811 N   0  0  0  0  0  0  0  0  0  0  0  0
   21.2170   -7.3617  -15.5677 C   0  0  1  0  0  0  0  0  0  0  0  0
   21.2104   -6.2757  -16.5950 C   0  0  0  0  0  0  0  0  0  0  0  0
   21.9662   -6.6214  -17.7980 C   0  0  0  0  0  0  0  0  0  0  0  0
   22.7370   -7.7814  -17.9645 C   0  0  0  0  0  0  0  0  0  0  0  0
   23.2684   -7.7406  -19.1823 N   0  0  0  0  0  0  0  0  0  0  0  0
   22.8853   -6.6121  -19.8233 C   0  0  0  0  0  0  0  0  0  0  0  0
   22.1072   -5.9721  -18.9586 N   0  0  0  0  0  0  0  0  0  0  0  0
   20.7712   -6.9203  -14.2387 C   0  0  0  0  0  0  0  0  0  0  0  0
   19.5962   -7.0796  -13.8792 O   0  0  0  0  0  0  0  0  0  0  0  0
   21.6966   -6.3119  -13.3715 O   0  0  0  0  0  0  0  0  0  0  0  0
  2  1  1  6
  3  2  1  0
  4  3  1  0
  5  4  1  0
  6  5  2  0
  7  2  1  0
  7  8  2  0
  9  5  1  0
 10  7  1  0
 11 10  1  0
 11 12  1  1
 13 12  1  0
 13 14  1  0
 14 15  1  0
 16 15  1  0
 17 11  1  0
 18 17  2  0
 19 17  1  0
 20 27  1  0
 20 19  1  0
 21 22  1  0
 20 21  1  6
 22 23  2  0
 23 24  1  0
 25 24  1  0
 26 22  1  0
 26 25  2  0
 27 29  1  0
 28 27  2  0
M  END
$$$$
