EKH.pdb
     RDKit          3D

 29 29  0  0  1  0  0  0  0  0999 V2000
   18.4280  -11.4735  -20.0140 N   0  0  0  0  0  0  0  0  0  0  0  0
   19.4582  -10.7415  -19.2926 C   0  0  1  0  0  0  0  0  0  0  0  0
   20.2688   -9.9905  -20.2782 C   0  0  0  0  0  0  0  0  0  0  0  0
   20.8696  -10.9321  -21.2805 C   0  0  0  0  0  0  0  0  0  0  0  0
   22.0313  -11.6878  -20.8183 C   0  0  0  0  0  0  0  0  0  0  0  0
   22.3000  -11.8505  -19.6201 O   0  0  0  0  0  0  0  0  0  0  0  0
   18.8148   -9.8589  -18.2731 C   0  0  0  0  0  0  0  0  0  0  0  0
   17.7593   -9.2278  -18.5317 O   0  0  0  0  0  0  0  0  0  0  0  0
   22.9238  -12.2827  -21.7362 O   0  0  0  0  0  0  0  0  0  0  0  0
   19.3975   -9.7338  -17.0108 N   0  0  0  0  0  0  0  0  0  0  0  0
   18.8254   -8.9433  -15.9035 C   0  0  1  0  0  0  0  0  0  0  0  0
   18.5454   -9.8509  -14.7414 C   0  0  0  0  0  0  0  0  0  0  0  0
   17.8845   -9.0577  -13.6634 C   0  0  0  0  0  0  0  0  0  0  0  0
   17.4835   -9.8718  -12.4500 C   0  0  0  0  0  0  0  0  0  0  0  0
   16.7656   -8.9938  -11.4712 C   0  0  0  0  0  0  0  0  0  0  0  0
   16.4497   -9.7536  -10.2544 N   0  0  0  0  0  0  0  0  0  0  0  0
   19.6944   -7.8098  -15.5988 C   0  0  0  0  0  0  0  0  0  0  0  0
   20.9207   -8.0461  -15.2962 O   0  0  0  0  0  0  0  0  0  0  0  0
   19.3509   -6.4389  -15.6024 N   0  0  0  0  0  0  0  0  0  0  0  0
   20.3778   -5.3949  -15.3043 C   0  0  1  0  0  0  0  0  0  0  0  0
   19.6785   -4.1000  -15.5668 C   0  0  0  0  0  0  0  0  0  0  0  0
   20.5512   -2.9369  -15.4129 C   0  0  0  0  0  0  0  0  0  0  0  0
   21.9527   -2.9760  -15.3720 C   0  0  0  0  0  0  0  0  0  0  0  0
   22.3864   -1.7283  -15.2228 N   0  0  0  0  0  0  0  0  0  0  0  0
   21.3400   -0.8724  -15.1637 C   0  0  0  0  0  0  0  0  0  0  0  0
   20.2617   -1.6380  -15.2815 N   0  0  0  0  0  0  0  0  0  0  0  0
   20.8105   -5.5604  -13.9096 C   0  0  0  0  0  0  0  0  0  0  0  0
   19.9842   -5.7699  -13.0104 O   0  0  0  0  0  0  0  0  0  0  0  0
   22.1807   -5.4793  -13.6019 O   0  0  0  0  0  0  0  0  0  0  0  0
  2  1  1  6
  3  2  1  0
  4  3  1  0
  5  4  1  0
  6  5  2  0
  7  2  1  0
  7  8  2  0
  9  5  1  0
 10  7  1  0
 11 10  1  0
 11 12  1  1
 13 12  1  0
 13 14  1  0
 14 15  1  0
 16 15  1  0
 17 11  1  0
 18 17  2  0
 19 17  1  0
 20 27  1  0
 20 19  1  0
 21 22  1  0
 20 21  1  1
 22 23  2  0
 23 24  1  0
 25 24  1  0
 26 22  1  0
 26 25  2  0
 27 29  1  0
 28 27  2  0
M  END
$$$$
