EKH.pdb
     RDKit          3D

 29 29  0  0  1  0  0  0  0  0999 V2000
   24.1218  -10.4873  -22.4572 N   0  0  0  0  0  0  0  0  0  0  0  0
   24.8250  -10.4593  -21.1835 C   0  0  1  0  0  0  0  0  0  0  0  0
   25.7235   -9.2824  -21.1764 C   0  0  0  0  0  0  0  0  0  0  0  0
   24.9194   -8.0163  -21.1260 C   0  0  0  0  0  0  0  0  0  0  0  0
   25.6940   -6.7796  -21.0580 C   0  0  0  0  0  0  0  0  0  0  0  0
   25.1736   -5.6585  -20.9749 O   0  0  0  0  0  0  0  0  0  0  0  0
   23.8290  -10.4393  -20.0699 C   0  0  0  0  0  0  0  0  0  0  0  0
   22.8151   -9.6984  -20.1167 O   0  0  0  0  0  0  0  0  0  0  0  0
   27.1053   -6.8032  -21.0844 O   0  0  0  0  0  0  0  0  0  0  0  0
   24.0295  -11.2590  -18.9579 N   0  0  0  0  0  0  0  0  0  0  0  0
   23.0940  -11.3648  -17.8212 C   0  0  1  0  0  0  0  0  0  0  0  0
   23.4635  -12.5560  -16.9862 C   0  0  0  0  0  0  0  0  0  0  0  0
   22.4331  -12.7311  -15.9205 C   0  0  0  0  0  0  0  0  0  0  0  0
   21.3392  -13.7195  -16.2703 C   0  0  0  0  0  0  0  0  0  0  0  0
   20.3108  -13.7367  -15.1812 C   0  0  0  0  0  0  0  0  0  0  0  0
   19.2887  -14.7504  -15.4730 N   0  0  0  0  0  0  0  0  0  0  0  0
   23.0471  -10.0990  -17.0943 C   0  0  0  0  0  0  0  0  0  0  0  0
   24.1429   -9.4472  -16.9344 O   0  0  0  0  0  0  0  0  0  0  0  0
   21.9116   -9.4728  -16.5322 N   0  0  0  0  0  0  0  0  0  0  0  0
   22.0537   -8.2350  -15.7071 C   0  0  1  0  0  0  0  0  0  0  0  0
   21.6099   -7.1316  -16.6127 C   0  0  0  0  0  0  0  0  0  0  0  0
   21.5491   -5.8324  -15.9446 C   0  0  0  0  0  0  0  0  0  0  0  0
   22.6344   -5.1815  -15.3396 C   0  0  0  0  0  0  0  0  0  0  0  0
   22.1887   -4.0318  -14.8430 N   0  0  0  0  0  0  0  0  0  0  0  0
   20.8655   -3.8955  -15.0916 C   0  0  0  0  0  0  0  0  0  0  0  0
   20.5242   -4.9952  -15.7525 N   0  0  0  0  0  0  0  0  0  0  0  0
   21.2202   -8.3847  -14.5060 C   0  0  0  0  0  0  0  0  0  0  0  0
   20.3443   -9.2591  -14.4474 O   0  0  0  0  0  0  0  0  0  0  0  0
   21.4272   -7.5211  -13.4150 O   0  0  0  0  0  0  0  0  0  0  0  0
  2  1  1  6
  3  2  1  0
  4  3  1  0
  5  4  1  0
  6  5  2  0
  7  2  1  0
  7  8  2  0
  9  5  1  0
 10  7  1  0
 11 10  1  0
 11 12  1  1
 13 12  1  0
 13 14  1  0
 14 15  1  0
 16 15  1  0
 17 11  1  0
 18 17  2  0
 19 17  1  0
 20 27  1  0
 20 19  1  0
 21 22  1  0
 20 21  1  6
 22 23  2  0
 23 24  1  0
 25 24  1  0
 26 22  1  0
 26 25  2  0
 27 29  1  0
 28 27  2  0
M  END
$$$$
