EKH.pdb
     RDKit          3D

 29 29  0  0  1  0  0  0  0  0999 V2000
   32.9873  -27.5421  -22.4150 N   0  0  0  0  0  0  0  0  0  0  0  0
   33.4557  -28.8231  -21.9078 C   0  0  1  0  0  0  0  0  0  0  0  0
   34.6595  -28.5813  -21.0803 C   0  0  0  0  0  0  0  0  0  0  0  0
   34.3251  -27.6769  -19.9303 C   0  0  0  0  0  0  0  0  0  0  0  0
   35.4068  -27.4435  -18.9765 C   0  0  0  0  0  0  0  0  0  0  0  0
   36.5714  -27.1987  -19.3202 O   0  0  0  0  0  0  0  0  0  0  0  0
   32.3520  -29.4882  -21.1515 C   0  0  0  0  0  0  0  0  0  0  0  0
   31.1786  -29.0396  -21.1837 O   0  0  0  0  0  0  0  0  0  0  0  0
   35.1712  -27.4868  -17.5852 O   0  0  0  0  0  0  0  0  0  0  0  0
   32.6305  -30.6283  -20.3959 N   0  0  0  0  0  0  0  0  0  0  0  0
   31.6053  -31.4711  -19.7502 C   0  0  1  0  0  0  0  0  0  0  0  0
   32.2634  -32.6816  -19.1552 C   0  0  0  0  0  0  0  0  0  0  0  0
   32.8028  -33.5254  -20.2620 C   0  0  0  0  0  0  0  0  0  0  0  0
   33.5616  -34.7512  -19.7956 C   0  0  0  0  0  0  0  0  0  0  0  0
   34.1200  -35.4772  -20.9810 C   0  0  0  0  0  0  0  0  0  0  0  0
   34.8355  -36.6818  -20.5395 N   0  0  0  0  0  0  0  0  0  0  0  0
   30.8251  -30.6736  -18.8077 C   0  0  0  0  0  0  0  0  0  0  0  0
   31.3970  -29.6757  -18.2345 O   0  0  0  0  0  0  0  0  0  0  0  0
   29.4735  -30.8589  -18.4386 N   0  0  0  0  0  0  0  0  0  0  0  0
   28.8115  -29.9272  -17.4758 C   0  0  1  0  0  0  0  0  0  0  0  0
   28.9041  -28.5872  -18.1319 C   0  0  0  0  0  0  0  0  0  0  0  0
   28.1385  -27.5547  -17.4349 C   0  0  0  0  0  0  0  0  0  0  0  0
   28.0467  -27.4164  -16.0421 C   0  0  0  0  0  0  0  0  0  0  0  0
   27.2664  -26.3697  -15.7918 N   0  0  0  0  0  0  0  0  0  0  0  0
   26.8416  -25.8141  -16.9502 C   0  0  0  0  0  0  0  0  0  0  0  0
   27.3871  -26.5546  -17.9077 N   0  0  0  0  0  0  0  0  0  0  0  0
   27.4319  -30.3876  -17.2651 C   0  0  0  0  0  0  0  0  0  0  0  0
   26.9439  -31.2751  -17.9790 O   0  0  0  0  0  0  0  0  0  0  0  0
   26.6645  -29.8087  -16.2382 O   0  0  0  0  0  0  0  0  0  0  0  0
  2  1  1  1
  3  2  1  0
  4  3  1  0
  5  4  1  0
  6  5  2  0
  7  2  1  0
  7  8  2  0
  9  5  1  0
 10  7  1  0
 11 10  1  0
 11 12  1  1
 13 12  1  0
 13 14  1  0
 14 15  1  0
 16 15  1  0
 17 11  1  0
 18 17  2  0
 19 17  1  0
 20 27  1  0
 20 19  1  0
 21 22  1  0
 20 21  1  6
 22 23  2  0
 23 24  1  0
 25 24  1  0
 26 22  1  0
 26 25  2  0
 27 29  1  0
 28 27  2  0
M  END
$$$$
