EKH.pdb
     RDKit          3D

 29 29  0  0  1  0  0  0  0  0999 V2000
   20.0771  -14.1138  -16.0092 N   0  0  0  0  0  0  0  0  0  0  0  0
   20.1088  -12.9320  -16.8577 C   0  0  1  0  0  0  0  0  0  0  0  0
   18.7323  -12.6678  -17.3350 C   0  0  0  0  0  0  0  0  0  0  0  0
   17.7394  -12.9831  -16.2548 C   0  0  0  0  0  0  0  0  0  0  0  0
   16.3415  -12.7178  -16.5862 C   0  0  0  0  0  0  0  0  0  0  0  0
   15.9763  -12.2959  -17.6921 O   0  0  0  0  0  0  0  0  0  0  0  0
   20.6897  -11.7889  -16.0909 C   0  0  0  0  0  0  0  0  0  0  0  0
   20.2311  -11.4579  -14.9687 O   0  0  0  0  0  0  0  0  0  0  0  0
   15.3162  -12.9348  -15.6403 O   0  0  0  0  0  0  0  0  0  0  0  0
   21.7613  -11.0763  -16.6318 N   0  0  0  0  0  0  0  0  0  0  0  0
   22.4640   -9.9770  -15.9418 C   0  0  1  0  0  0  0  0  0  0  0  0
   23.9066   -9.9756  -16.3560 C   0  0  0  0  0  0  0  0  0  0  0  0
   24.5948  -11.1239  -15.6959 C   0  0  0  0  0  0  0  0  0  0  0  0
   26.0601  -11.2608  -16.0568 C   0  0  0  0  0  0  0  0  0  0  0  0
   26.6607  -12.4015  -15.2937 C   0  0  0  0  0  0  0  0  0  0  0  0
   28.0955  -12.5032  -15.5914 N   0  0  0  0  0  0  0  0  0  0  0  0
   21.7616   -8.7166  -16.1675 C   0  0  0  0  0  0  0  0  0  0  0  0
   21.3621   -8.4464  -17.3586 O   0  0  0  0  0  0  0  0  0  0  0  0
   21.4462   -7.7256  -15.2105 N   0  0  0  0  0  0  0  0  0  0  0  0
   20.8340   -6.4284  -15.6296 C   0  0  1  0  0  0  0  0  0  0  0  0
   19.5761   -6.3347  -14.8273 C   0  0  0  0  0  0  0  0  0  0  0  0
   18.8734   -5.0657  -15.0110 C   0  0  0  0  0  0  0  0  0  0  0  0
   19.2031   -3.8585  -14.3772 C   0  0  0  0  0  0  0  0  0  0  0  0
   18.3417   -2.9361  -14.7944 N   0  0  0  0  0  0  0  0  0  0  0  0
   17.4633   -3.4771  -15.6701 C   0  0  0  0  0  0  0  0  0  0  0  0
   17.8181   -4.7525  -15.7703 N   0  0  0  0  0  0  0  0  0  0  0  0
   21.7958   -5.3536  -15.3477 C   0  0  0  0  0  0  0  0  0  0  0  0
   21.8648   -4.3567  -16.0803 O   0  0  0  0  0  0  0  0  0  0  0  0
   22.6430   -5.4664  -14.2305 O   0  0  0  0  0  0  0  0  0  0  0  0
  2  1  1  1
  3  2  1  0
  4  3  1  0
  5  4  1  0
  6  5  2  0
  7  2  1  0
  7  8  2  0
  9  5  1  0
 10  7  1  0
 11 10  1  0
 11 12  1  6
 13 12  1  0
 13 14  1  0
 14 15  1  0
 16 15  1  0
 17 11  1  0
 18 17  2  0
 19 17  1  0
 20 27  1  0
 20 19  1  0
 21 22  1  0
 20 21  1  1
 22 23  2  0
 23 24  1  0
 25 24  1  0
 26 22  1  0
 26 25  2  0
 27 29  1  0
 28 27  2  0
M  END
$$$$
