EKH.pdb
     RDKit          3D

 29 29  0  0  1  0  0  0  0  0999 V2000
   20.2287  -22.0252  -13.1879 N   0  0  0  0  0  0  0  0  0  0  0  0
   19.8272  -21.4164  -14.4472 C   0  0  1  0  0  0  0  0  0  0  0  0
   18.4360  -20.9302  -14.3036 C   0  0  0  0  0  0  0  0  0  0  0  0
   17.4669  -22.0408  -14.5857 C   0  0  0  0  0  0  0  0  0  0  0  0
   17.3747  -22.4576  -15.9828 C   0  0  0  0  0  0  0  0  0  0  0  0
   17.7538  -23.5662  -16.3849 O   0  0  0  0  0  0  0  0  0  0  0  0
   20.7910  -20.3306  -14.8002 C   0  0  0  0  0  0  0  0  0  0  0  0
   20.8406  -19.2637  -14.1380 O   0  0  0  0  0  0  0  0  0  0  0  0
   16.8367  -21.5971  -16.9642 O   0  0  0  0  0  0  0  0  0  0  0  0
   21.6513  -20.5056  -15.8854 N   0  0  0  0  0  0  0  0  0  0  0  0
   22.5935  -19.4806  -16.3756 C   0  0  1  0  0  0  0  0  0  0  0  0
   23.6415  -20.1384  -17.2251 C   0  0  0  0  0  0  0  0  0  0  0  0
   24.8422  -20.4078  -16.3803 C   0  0  0  0  0  0  0  0  0  0  0  0
   25.9201  -21.2169  -17.0727 C   0  0  0  0  0  0  0  0  0  0  0  0
   26.9993  -21.5590  -16.0916 C   0  0  0  0  0  0  0  0  0  0  0  0
   27.9984  -22.4274  -16.7283 N   0  0  0  0  0  0  0  0  0  0  0  0
   21.8601  -18.4029  -17.0340 C   0  0  0  0  0  0  0  0  0  0  0  0
   20.9334  -18.7168  -17.8670 O   0  0  0  0  0  0  0  0  0  0  0  0
   22.0384  -17.0117  -16.8608 N   0  0  0  0  0  0  0  0  0  0  0  0
   21.2998  -16.0358  -17.7182 C   0  0  1  0  0  0  0  0  0  0  0  0
   20.3354  -15.3768  -16.7853 C   0  0  0  0  0  0  0  0  0  0  0  0
   19.5474  -14.3249  -17.4260 C   0  0  0  0  0  0  0  0  0  0  0  0
   19.5647  -14.0204  -18.7951 C   0  0  0  0  0  0  0  0  0  0  0  0
   18.7228  -13.0111  -18.9940 N   0  0  0  0  0  0  0  0  0  0  0  0
   18.1538  -12.6379  -17.8243 C   0  0  0  0  0  0  0  0  0  0  0  0
   18.6756  -13.4502  -16.9130 N   0  0  0  0  0  0  0  0  0  0  0  0
   22.2771  -15.1102  -18.3082 C   0  0  0  0  0  0  0  0  0  0  0  0
   21.9088  -14.1855  -19.0462 O   0  0  0  0  0  0  0  0  0  0  0  0
   23.6441  -15.2837  -18.0255 O   0  0  0  0  0  0  0  0  0  0  0  0
  2  1  1  1
  3  2  1  0
  4  3  1  0
  5  4  1  0
  6  5  2  0
  7  2  1  0
  7  8  2  0
  9  5  1  0
 10  7  1  0
 11 10  1  0
 11 12  1  6
 13 12  1  0
 13 14  1  0
 14 15  1  0
 16 15  1  0
 17 11  1  0
 18 17  2  0
 19 17  1  0
 20 27  1  0
 20 19  1  0
 21 22  1  0
 20 21  1  1
 22 23  2  0
 23 24  1  0
 25 24  1  0
 26 22  1  0
 26 25  2  0
 27 29  1  0
 28 27  2  0
M  END
$$$$
