EKH.pdb
     RDKit          3D

 29 29  0  0  1  0  0  0  0  0999 V2000
   31.9512  -26.0025  -19.4288 N   0  0  0  0  0  0  0  0  0  0  0  0
   30.7313  -26.2380  -20.1863 C   0  0  1  0  0  0  0  0  0  0  0  0
   30.9829  -25.8650  -21.5970 C   0  0  0  0  0  0  0  0  0  0  0  0
   31.0954  -24.3741  -21.7270 C   0  0  0  0  0  0  0  0  0  0  0  0
   29.8404  -23.6655  -21.9655 C   0  0  0  0  0  0  0  0  0  0  0  0
   29.0336  -23.9951  -22.8457 O   0  0  0  0  0  0  0  0  0  0  0  0
   30.3176  -27.6647  -20.0252 C   0  0  0  0  0  0  0  0  0  0  0  0
   29.3772  -28.1502  -20.7027 O   0  0  0  0  0  0  0  0  0  0  0  0
   29.4785  -22.5452  -21.1862 O   0  0  0  0  0  0  0  0  0  0  0  0
   30.9886  -28.4718  -19.1050 N   0  0  0  0  0  0  0  0  0  0  0  0
   30.7636  -29.9221  -18.9490 C   0  0  1  0  0  0  0  0  0  0  0  0
   32.0746  -30.5989  -18.6733 C   0  0  0  0  0  0  0  0  0  0  0  0
   32.8232  -30.7328  -19.9576 C   0  0  0  0  0  0  0  0  0  0  0  0
   34.1625  -31.4291  -19.8265 C   0  0  0  0  0  0  0  0  0  0  0  0
   34.8261  -31.4980  -21.1678 C   0  0  0  0  0  0  0  0  0  0  0  0
   36.1302  -32.1634  -21.0481 N   0  0  0  0  0  0  0  0  0  0  0  0
   29.7289  -30.1615  -17.9465 C   0  0  0  0  0  0  0  0  0  0  0  0
   29.7676  -29.4817  -16.8567 O   0  0  0  0  0  0  0  0  0  0  0  0
   28.6486  -31.0692  -18.0268 N   0  0  0  0  0  0  0  0  0  0  0  0
   27.6931  -31.2197  -16.8877 C   0  0  1  0  0  0  0  0  0  0  0  0
   26.3794  -31.5079  -17.5402 C   0  0  0  0  0  0  0  0  0  0  0  0
   25.3260  -31.8422  -16.5828 C   0  0  0  0  0  0  0  0  0  0  0  0
   24.5120  -30.9134  -15.9177 C   0  0  0  0  0  0  0  0  0  0  0  0
   23.6805  -31.5942  -15.1352 N   0  0  0  0  0  0  0  0  0  0  0  0
   23.9078  -32.9229  -15.2534 C   0  0  0  0  0  0  0  0  0  0  0  0
   24.9002  -33.0260  -16.1293 N   0  0  0  0  0  0  0  0  0  0  0  0
   28.1747  -32.3069  -16.0241 C   0  0  0  0  0  0  0  0  0  0  0  0
   29.0929  -33.0516  -16.3952 O   0  0  0  0  0  0  0  0  0  0  0  0
   27.5809  -32.4959  -14.7630 O   0  0  0  0  0  0  0  0  0  0  0  0
  2  1  1  1
  3  2  1  0
  4  3  1  0
  5  4  1  0
  6  5  2  0
  7  2  1  0
  7  8  2  0
  9  5  1  0
 10  7  1  0
 11 10  1  0
 11 12  1  1
 13 12  1  0
 13 14  1  0
 14 15  1  0
 16 15  1  0
 17 11  1  0
 18 17  2  0
 19 17  1  0
 20 27  1  0
 20 19  1  0
 21 22  1  0
 20 21  1  6
 22 23  2  0
 23 24  1  0
 25 24  1  0
 26 22  1  0
 26 25  2  0
 27 29  1  0
 28 27  2  0
M  END
$$$$
