EKH.pdb
     RDKit          3D

 29 29  0  0  1  0  0  0  0  0999 V2000
   28.4251  -18.5654  -17.4636 N   0  0  0  0  0  0  0  0  0  0  0  0
   27.2864  -19.4684  -17.3909 C   0  0  1  0  0  0  0  0  0  0  0  0
   27.7451  -20.7452  -16.7978 C   0  0  0  0  0  0  0  0  0  0  0  0
   28.7369  -21.4120  -17.7055 C   0  0  0  0  0  0  0  0  0  0  0  0
   29.1538  -22.7541  -17.3066 C   0  0  0  0  0  0  0  0  0  0  0  0
   28.7614  -23.3043  -16.2685 O   0  0  0  0  0  0  0  0  0  0  0  0
   26.1918  -18.8209  -16.6067 C   0  0  0  0  0  0  0  0  0  0  0  0
   26.3781  -18.4351  -15.4253 O   0  0  0  0  0  0  0  0  0  0  0  0
   30.0442  -23.5058  -18.1036 O   0  0  0  0  0  0  0  0  0  0  0  0
   24.9401  -18.6418  -17.1980 N   0  0  0  0  0  0  0  0  0  0  0  0
   23.7409  -18.1648  -16.4820 C   0  0  1  0  0  0  0  0  0  0  0  0
   22.8041  -17.5201  -17.4615 C   0  0  0  0  0  0  0  0  0  0  0  0
   21.6369  -16.9664  -16.7138 C   0  0  0  0  0  0  0  0  0  0  0  0
   20.6096  -16.2765  -17.5881 C   0  0  0  0  0  0  0  0  0  0  0  0
   19.5814  -15.6113  -16.7252 C   0  0  0  0  0  0  0  0  0  0  0  0
   18.7090  -14.7634  -17.5485 N   0  0  0  0  0  0  0  0  0  0  0  0
   23.1576  -19.2547  -15.7043 C   0  0  0  0  0  0  0  0  0  0  0  0
   23.6827  -20.4233  -15.8040 O   0  0  0  0  0  0  0  0  0  0  0  0
   22.0579  -19.1857  -14.8192 N   0  0  0  0  0  0  0  0  0  0  0  0
   21.8978  -20.1883  -13.7227 C   0  0  1  0  0  0  0  0  0  0  0  0
   22.7517  -19.6650  -12.6129 C   0  0  0  0  0  0  0  0  0  0  0  0
   23.8127  -20.5918  -12.2214 C   0  0  0  0  0  0  0  0  0  0  0  0
   24.0328  -21.8562  -12.7875 C   0  0  0  0  0  0  0  0  0  0  0  0
   25.0810  -22.3955  -12.1731 N   0  0  0  0  0  0  0  0  0  0  0  0
   25.5599  -21.5488  -11.2325 C   0  0  0  0  0  0  0  0  0  0  0  0
   24.7715  -20.4824  -11.2957 N   0  0  0  0  0  0  0  0  0  0  0  0
   20.4709  -20.2721  -13.3810 C   0  0  0  0  0  0  0  0  0  0  0  0
   19.7063  -19.3259  -13.6163 O   0  0  0  0  0  0  0  0  0  0  0  0
   19.9766  -21.4443  -12.7807 O   0  0  0  0  0  0  0  0  0  0  0  0
  2  1  1  1
  3  2  1  0
  4  3  1  0
  5  4  1  0
  6  5  2  0
  7  2  1  0
  7  8  2  0
  9  5  1  0
 10  7  1  0
 11 10  1  0
 11 12  1  6
 13 12  1  0
 13 14  1  0
 14 15  1  0
 16 15  1  0
 17 11  1  0
 18 17  2  0
 19 17  1  0
 20 27  1  0
 20 19  1  0
 21 22  1  0
 20 21  1  1
 22 23  2  0
 23 24  1  0
 25 24  1  0
 26 22  1  0
 26 25  2  0
 27 29  1  0
 28 27  2  0
M  END
$$$$
