EKH.pdb
     RDKit          3D

 29 29  0  0  1  0  0  0  0  0999 V2000
   26.2051  -33.0160  -11.5905 N   0  0  0  0  0  0  0  0  0  0  0  0
   26.2019  -33.5261  -12.9533 C   0  0  1  0  0  0  0  0  0  0  0  0
   24.9649  -34.3160  -13.1492 C   0  0  0  0  0  0  0  0  0  0  0  0
   25.0874  -35.6484  -12.4698 C   0  0  0  0  0  0  0  0  0  0  0  0
   25.5954  -36.7363  -13.3020 C   0  0  0  0  0  0  0  0  0  0  0  0
   25.3225  -37.9275  -13.0998 O   0  0  0  0  0  0  0  0  0  0  0  0
   26.3218  -32.3835  -13.9086 C   0  0  0  0  0  0  0  0  0  0  0  0
   25.6820  -31.3166  -13.7307 O   0  0  0  0  0  0  0  0  0  0  0  0
   26.4411  -36.4762  -14.4021 O   0  0  0  0  0  0  0  0  0  0  0  0
   27.1599  -32.5045  -15.0183 N   0  0  0  0  0  0  0  0  0  0  0  0
   27.4089  -31.4271  -15.9959 C   0  0  1  0  0  0  0  0  0  0  0  0
   28.8191  -31.5324  -16.4990 C   0  0  0  0  0  0  0  0  0  0  0  0
   29.0831  -30.3914  -17.4244 C   0  0  0  0  0  0  0  0  0  0  0  0
   29.2093  -29.0483  -16.7346 C   0  0  0  0  0  0  0  0  0  0  0  0
   29.3788  -27.9705  -17.7611 C   0  0  0  0  0  0  0  0  0  0  0  0
   29.4914  -26.6630  -17.1011 N   0  0  0  0  0  0  0  0  0  0  0  0
   26.3847  -31.4513  -17.0367 C   0  0  0  0  0  0  0  0  0  0  0  0
   26.1825  -32.5526  -17.6671 O   0  0  0  0  0  0  0  0  0  0  0  0
   25.5528  -30.3854  -17.4481 N   0  0  0  0  0  0  0  0  0  0  0  0
   24.5639  -30.5727  -18.5528 C   0  0  1  0  0  0  0  0  0  0  0  0
   23.4410  -29.6485  -18.2071 C   0  0  0  0  0  0  0  0  0  0  0  0
   22.5021  -30.2236  -17.2449 C   0  0  0  0  0  0  0  0  0  0  0  0
   22.6715  -30.2291  -15.8525 C   0  0  0  0  0  0  0  0  0  0  0  0
   21.6160  -30.8377  -15.3208 N   0  0  0  0  0  0  0  0  0  0  0  0
   20.7625  -31.2318  -16.2941 C   0  0  0  0  0  0  0  0  0  0  0  0
   21.3320  -30.8442  -17.4291 N   0  0  0  0  0  0  0  0  0  0  0  0
   25.2268  -30.2474  -19.8235 C   0  0  0  0  0  0  0  0  0  0  0  0
   26.0183  -29.2971  -19.9002 O   0  0  0  0  0  0  0  0  0  0  0  0
   24.9539  -31.0300  -20.9599 O   0  0  0  0  0  0  0  0  0  0  0  0
  2  1  1  1
  3  2  1  0
  4  3  1  0
  5  4  1  0
  6  5  2  0
  7  2  1  0
  7  8  2  0
  9  5  1  0
 10  7  1  0
 11 10  1  0
 11 12  1  6
 13 12  1  0
 13 14  1  0
 14 15  1  0
 16 15  1  0
 17 11  1  0
 18 17  2  0
 19 17  1  0
 20 27  1  0
 20 19  1  0
 21 22  1  0
 20 21  1  1
 22 23  2  0
 23 24  1  0
 25 24  1  0
 26 22  1  0
 26 25  2  0
 27 29  1  0
 28 27  2  0
M  END
$$$$
