EKH.pdb
     RDKit          3D

 29 29  0  0  1  0  0  0  0  0999 V2000
   35.9939  -28.9736  -21.4264 N   0  0  0  0  0  0  0  0  0  0  0  0
   35.9434  -29.2277  -19.9944 C   0  0  1  0  0  0  0  0  0  0  0  0
   35.1590  -28.1443  -19.3593 C   0  0  0  0  0  0  0  0  0  0  0  0
   33.7589  -28.1327  -19.8994 C   0  0  0  0  0  0  0  0  0  0  0  0
   32.9169  -27.0287  -19.4451 C   0  0  0  0  0  0  0  0  0  0  0  0
   32.7979  -25.9662  -20.0708 O   0  0  0  0  0  0  0  0  0  0  0  0
   35.3654  -30.5844  -19.7537 C   0  0  0  0  0  0  0  0  0  0  0  0
   34.5623  -31.1036  -20.5689 O   0  0  0  0  0  0  0  0  0  0  0  0
   32.1815  -27.1217  -18.2436 O   0  0  0  0  0  0  0  0  0  0  0  0
   35.7249  -31.2867  -18.6022 N   0  0  0  0  0  0  0  0  0  0  0  0
   35.2733  -32.6559  -18.2862 C   0  0  1  0  0  0  0  0  0  0  0  0
   36.4109  -33.4239  -17.6790 C   0  0  0  0  0  0  0  0  0  0  0  0
   35.9295  -34.7916  -17.3248 C   0  0  0  0  0  0  0  0  0  0  0  0
   36.9539  -35.6433  -16.6029 C   0  0  0  0  0  0  0  0  0  0  0  0
   36.4228  -37.0340  -16.4360 C   0  0  0  0  0  0  0  0  0  0  0  0
   37.4866  -37.9214  -15.9475 N   0  0  0  0  0  0  0  0  0  0  0  0
   34.0637  -32.6062  -17.4693 C   0  0  0  0  0  0  0  0  0  0  0  0
   33.7416  -31.4875  -16.9251 O   0  0  0  0  0  0  0  0  0  0  0  0
   33.1664  -33.6638  -17.1978 N   0  0  0  0  0  0  0  0  0  0  0  0
   31.9229  -33.4239  -16.4044 C   0  0  1  0  0  0  0  0  0  0  0  0
   31.1456  -32.4412  -17.2197 C   0  0  0  0  0  0  0  0  0  0  0  0
   29.7750  -32.2599  -16.7436 C   0  0  0  0  0  0  0  0  0  0  0  0
   29.3917  -32.1622  -15.3978 C   0  0  0  0  0  0  0  0  0  0  0  0
   28.0722  -32.0045  -15.3653 N   0  0  0  0  0  0  0  0  0  0  0  0
   27.5703  -31.9937  -16.6220 C   0  0  0  0  0  0  0  0  0  0  0  0
   28.6237  -32.1494  -17.4149 N   0  0  0  0  0  0  0  0  0  0  0  0
   31.2388  -34.7116  -16.2211 C   0  0  0  0  0  0  0  0  0  0  0  0
   31.3000  -35.5912  -17.0916 O   0  0  0  0  0  0  0  0  0  0  0  0
   30.5093  -34.9391  -15.0401 O   0  0  0  0  0  0  0  0  0  0  0  0
  2  1  1  6
  3  2  1  0
  4  3  1  0
  5  4  1  0
  6  5  2  0
  7  2  1  0
  7  8  2  0
  9  5  1  0
 10  7  1  0
 11 10  1  0
 11 12  1  1
 13 12  1  0
 13 14  1  0
 14 15  1  0
 16 15  1  0
 17 11  1  0
 18 17  2  0
 19 17  1  0
 20 27  1  0
 20 19  1  0
 21 22  1  0
 20 21  1  6
 22 23  2  0
 23 24  1  0
 25 24  1  0
 26 22  1  0
 26 25  2  0
 27 29  1  0
 28 27  2  0
M  END
$$$$
