EKH.pdb
     RDKit          3D

 29 29  0  0  1  0  0  0  0  0999 V2000
   19.4883  -15.9289  -16.1795 N   0  0  0  0  0  0  0  0  0  0  0  0
   19.6394  -14.6578  -16.8715 C   0  0  1  0  0  0  0  0  0  0  0  0
   18.2890  -14.1393  -17.1878 C   0  0  0  0  0  0  0  0  0  0  0  0
   17.4199  -14.1762  -15.9649 C   0  0  0  0  0  0  0  0  0  0  0  0
   16.0722  -13.6379  -16.1326 C   0  0  0  0  0  0  0  0  0  0  0  0
   15.0477  -14.3146  -15.9688 O   0  0  0  0  0  0  0  0  0  0  0  0
   20.4381  -13.7244  -16.0210 C   0  0  0  0  0  0  0  0  0  0  0  0
   20.1903  -13.5861  -14.7968 O   0  0  0  0  0  0  0  0  0  0  0  0
   15.8681  -12.2895  -16.4977 O   0  0  0  0  0  0  0  0  0  0  0  0
   21.4780  -12.9934  -16.5979 N   0  0  0  0  0  0  0  0  0  0  0  0
   22.3120  -12.0157  -15.8719 C   0  0  1  0  0  0  0  0  0  0  0  0
   23.7553  -12.2486  -16.2113 C   0  0  0  0  0  0  0  0  0  0  0  0
   24.1982  -13.5215  -15.5697 C   0  0  0  0  0  0  0  0  0  0  0  0
   25.6762  -13.8154  -15.7275 C   0  0  0  0  0  0  0  0  0  0  0  0
   25.9733  -15.1887  -15.2081 C   0  0  0  0  0  0  0  0  0  0  0  0
   27.4149  -15.4568  -15.2963 N   0  0  0  0  0  0  0  0  0  0  0  0
   21.8333  -10.6608  -16.1323 C   0  0  0  0  0  0  0  0  0  0  0  0
   21.3978  -10.3841  -17.3092 O   0  0  0  0  0  0  0  0  0  0  0  0
   21.7773   -9.5800  -15.2234 N   0  0  0  0  0  0  0  0  0  0  0  0
   21.2687   -8.2437  -15.6582 C   0  0  1  0  0  0  0  0  0  0  0  0
   19.8490   -8.4966  -16.0523 C   0  0  0  0  0  0  0  0  0  0  0  0
   19.1066   -7.2692  -16.3356 C   0  0  0  0  0  0  0  0  0  0  0  0
   19.3943   -6.3700  -17.3730 C   0  0  0  0  0  0  0  0  0  0  0  0
   18.5057   -5.3835  -17.3090 N   0  0  0  0  0  0  0  0  0  0  0  0
   17.6492   -5.5899  -16.2819 C   0  0  0  0  0  0  0  0  0  0  0  0
   18.0453   -6.7291  -15.7269 N   0  0  0  0  0  0  0  0  0  0  0  0
   21.4120   -7.3088  -14.5334 C   0  0  0  0  0  0  0  0  0  0  0  0
   21.3093   -6.0865  -14.7083 O   0  0  0  0  0  0  0  0  0  0  0  0
   21.6677   -7.8171  -13.2470 O   0  0  0  0  0  0  0  0  0  0  0  0
  2  1  1  1
  3  2  1  0
  4  3  1  0
  5  4  1  0
  6  5  2  0
  7  2  1  0
  7  8  2  0
  9  5  1  0
 10  7  1  0
 11 10  1  0
 11 12  1  6
 13 12  1  0
 13 14  1  0
 14 15  1  0
 16 15  1  0
 17 11  1  0
 18 17  2  0
 19 17  1  0
 20 27  1  0
 20 19  1  0
 21 22  1  0
 20 21  1  1
 22 23  2  0
 23 24  1  0
 25 24  1  0
 26 22  1  0
 26 25  2  0
 27 29  1  0
 28 27  2  0
M  END
$$$$
