EYA.pdb
     RDKit          3D

 27 27  0  0  1  0  0  0  0  0999 V2000
   28.6973  -19.9989  -18.1711 N   0  0  0  0  0  0  0  0  0  0  0  0
   27.7330  -21.0633  -18.3278 C   0  0  1  0  0  0  0  0  0  0  0  0
   28.3888  -22.3479  -18.7950 C   0  0  0  0  0  0  0  0  0  0  0  0
   29.7781  -22.1015  -19.3322 C   0  0  0  0  0  0  0  0  0  0  0  0
   29.8998  -22.8689  -20.6055 C   0  0  0  0  0  0  0  0  0  0  0  0
   29.8320  -22.2809  -21.7185 O   0  0  0  0  0  0  0  0  0  0  0  0
   27.1181  -21.3516  -17.0058 C   0  0  0  0  0  0  0  0  0  0  0  0
   26.2705  -22.2681  -16.8475 O   0  0  0  0  0  0  0  0  0  0  0  0
   30.0911  -24.2491  -20.6324 O   0  0  0  0  0  0  0  0  0  0  0  0
   24.9487  -20.6095   -8.4754 O   0  0  0  0  0  0  0  0  0  0  0  0
   25.6245  -20.5777   -9.6908 C   0  0  0  0  0  0  0  0  0  0  0  0
   25.8340  -19.3681  -10.3230 C   0  0  0  0  0  0  0  0  0  0  0  0
   26.4936  -19.2449  -11.5290 C   0  0  0  0  0  0  0  0  0  0  0  0
   26.9634  -20.3892  -12.1256 C   0  0  0  0  0  0  0  0  0  0  0  0
   27.6782  -20.3037  -13.4222 C   0  0  0  0  0  0  0  0  0  0  0  0
   26.8002  -20.7779  -14.5646 C   0  0  2  0  0  0  0  0  0  0  0  0
   27.4622  -20.5986  -15.8484 N   0  0  0  0  0  0  0  0  0  0  0  0
   25.5102  -20.0712  -14.6045 C   0  0  0  0  0  0  0  0  0  0  0  0
   25.4257  -18.8627  -15.0143 O   0  0  0  0  0  0  0  0  0  0  0  0
   26.7707  -21.6097  -11.5212 C   0  0  0  0  0  0  0  0  0  0  0  0
   26.1009  -21.7174  -10.3003 C   0  0  0  0  0  0  0  0  0  0  0  0
   22.3865  -19.7666  -15.4812 C   0  0  0  0  0  0  0  0  0  0  0  0
   23.0420  -19.9029  -14.1271 C   0  0  2  0  0  0  0  0  0  0  0  0
   24.2782  -20.6577  -14.2007 N   0  0  0  0  0  0  0  0  0  0  0  0
   22.1163  -20.4813  -13.1206 C   0  0  0  0  0  0  0  0  0  0  0  0
   22.4073  -21.5762  -12.5940 O   0  0  0  0  0  0  0  0  0  0  0  0
   20.9572  -19.8014  -12.7872 O   0  0  0  0  0  0  0  0  0  0  0  0
  2  1  1  1
  2  7  1  0
  3  4  1  0
  3  2  1  0
  4  5  1  0
  5  6  2  0
  7  8  2  0
  9  5  1  0
 10 11  1  0
 11 21  2  0
 11 12  1  0
 12 13  2  0
 13 14  1  0
 14 15  1  0
 16 15  1  1
 17 16  1  0
 17  7  1  0
 18 24  1  0
 18 16  1  0
 19 18  2  0
 20 14  2  0
 21 20  1  0
 23 24  1  0
 23 22  1  6
 25 23  1  0
 26 25  2  0
 27 25  1  0
M  END
$$$$
