EYA.pdb
     RDKit          3D

 27 27  0  0  1  0  0  0  0  0999 V2000
   23.5982  -12.5434  -18.3810 N   0  0  0  0  0  0  0  0  0  0  0  0
   23.1573  -11.2427  -18.8293 C   0  0  1  0  0  0  0  0  0  0  0  0
   21.8000  -11.3128  -19.5008 C   0  0  0  0  0  0  0  0  0  0  0  0
   21.8527  -12.1072  -20.7836 C   0  0  0  0  0  0  0  0  0  0  0  0
   21.1746  -13.4100  -20.5223 C   0  0  0  0  0  0  0  0  0  0  0  0
   20.4634  -13.5685  -19.4937 O   0  0  0  0  0  0  0  0  0  0  0  0
   23.0061  -10.3541  -17.6475 C   0  0  0  0  0  0  0  0  0  0  0  0
   22.6767  -10.7956  -16.5161 O   0  0  0  0  0  0  0  0  0  0  0  0
   21.2887  -14.4993  -21.3839 O   0  0  0  0  0  0  0  0  0  0  0  0
   28.5236  -11.5050  -16.0221 O   0  0  0  0  0  0  0  0  0  0  0  0
   27.5640  -10.5042  -16.1330 C   0  0  0  0  0  0  0  0  0  0  0  0
   26.7014  -10.2670  -15.0811 C   0  0  0  0  0  0  0  0  0  0  0  0
   25.7213   -9.2957  -15.1059 C   0  0  0  0  0  0  0  0  0  0  0  0
   25.6035   -8.5288  -16.2392 C   0  0  0  0  0  0  0  0  0  0  0  0
   24.5641   -7.4734  -16.3095 C   0  0  0  0  0  0  0  0  0  0  0  0
   23.1963   -8.0684  -16.5852 C   0  0  2  0  0  0  0  0  0  0  0  0
   23.2284   -8.9518  -17.7415 N   0  0  0  0  0  0  0  0  0  0  0  0
   22.1770   -7.0333  -16.8196 C   0  0  0  0  0  0  0  0  0  0  0  0
   21.8269   -6.6999  -18.0036 O   0  0  0  0  0  0  0  0  0  0  0  0
   26.4476   -8.7404  -17.3044 C   0  0  0  0  0  0  0  0  0  0  0  0
   27.4347   -9.7278  -17.2635 C   0  0  0  0  0  0  0  0  0  0  0  0
   19.9110   -5.5179  -17.4446 C   0  0  0  0  0  0  0  0  0  0  0  0
   20.4188   -5.4126  -16.0258 C   0  0  2  0  0  0  0  0  0  0  0  0
   21.5111   -6.3331  -15.7751 N   0  0  0  0  0  0  0  0  0  0  0  0
   19.3280   -5.5875  -15.0339 C   0  0  0  0  0  0  0  0  0  0  0  0
   19.1523   -6.7148  -14.5246 O   0  0  0  0  0  0  0  0  0  0  0  0
   18.5323   -4.5065  -14.6946 O   0  0  0  0  0  0  0  0  0  0  0  0
  2  1  1  1
  2  7  1  0
  3  4  1  0
  3  2  1  0
  4  5  1  0
  5  6  2  0
  7  8  2  0
  9  5  1  0
 10 11  1  0
 11 21  2  0
 11 12  1  0
 12 13  2  0
 13 14  1  0
 14 15  1  0
 16 15  1  6
 17 16  1  0
 17  7  1  0
 18 24  1  0
 18 16  1  0
 19 18  2  0
 20 14  2  0
 21 20  1  0
 23 24  1  0
 23 22  1  6
 25 23  1  0
 26 25  2  0
 27 25  1  0
M  END
$$$$
