EYA.pdb
     RDKit          3D

 27 27  0  0  1  0  0  0  0  0999 V2000
   25.1688  -37.3939   -5.7998 N   0  0  0  0  0  0  0  0  0  0  0  0
   26.4531  -37.7381   -6.3650 C   0  0  1  0  0  0  0  0  0  0  0  0
   26.5337  -37.3730   -7.8342 C   0  0  0  0  0  0  0  0  0  0  0  0
   25.8677  -38.4116   -8.7044 C   0  0  0  0  0  0  0  0  0  0  0  0
   24.4372  -38.0137   -8.8474 C   0  0  0  0  0  0  0  0  0  0  0  0
   24.1097  -36.7969   -8.8819 O   0  0  0  0  0  0  0  0  0  0  0  0
   27.5081  -36.9555   -5.6698 C   0  0  0  0  0  0  0  0  0  0  0  0
   28.7291  -37.0857   -5.9454 O   0  0  0  0  0  0  0  0  0  0  0  0
   23.4072  -38.9469   -8.9484 O   0  0  0  0  0  0  0  0  0  0  0  0
   26.1789  -31.9052   -9.1415 O   0  0  0  0  0  0  0  0  0  0  0  0
   26.5099  -32.3389   -7.8620 C   0  0  0  0  0  0  0  0  0  0  0  0
   27.7847  -32.8050   -7.6084 C   0  0  0  0  0  0  0  0  0  0  0  0
   28.1978  -33.2538   -6.3704 C   0  0  0  0  0  0  0  0  0  0  0  0
   27.2881  -33.2328   -5.3417 C   0  0  0  0  0  0  0  0  0  0  0  0
   27.6888  -33.7059   -3.9945 C   0  0  0  0  0  0  0  0  0  0  0  0
   28.1746  -35.1422   -4.0397 C   0  0  2  0  0  0  0  0  0  0  0  0
   27.1839  -36.0152   -4.6521 N   0  0  0  0  0  0  0  0  0  0  0  0
   28.4897  -35.6646   -2.7007 C   0  0  0  0  0  0  0  0  0  0  0  0
   27.6107  -36.2752   -2.0006 O   0  0  0  0  0  0  0  0  0  0  0  0
   26.0101  -32.7744   -5.5620 C   0  0  0  0  0  0  0  0  0  0  0  0
   25.6076  -32.3234   -6.8212 C   0  0  0  0  0  0  0  0  0  0  0  0
   31.4956  -35.9275   -0.3917 C   0  0  0  0  0  0  0  0  0  0  0  0
   30.0221  -35.9600   -0.7226 C   0  0  2  0  0  0  0  0  0  0  0  0
   29.7670  -35.5380   -2.0865 N   0  0  0  0  0  0  0  0  0  0  0  0
   29.2206  -35.1691    0.2452 C   0  0  0  0  0  0  0  0  0  0  0  0
   28.7687  -34.0603   -0.1114 O   0  0  0  0  0  0  0  0  0  0  0  0
   28.9909  -35.6715    1.5147 O   0  0  0  0  0  0  0  0  0  0  0  0
  2  1  1  1
  2  7  1  0
  3  4  1  0
  3  2  1  0
  4  5  1  0
  5  6  2  0
  7  8  2  0
  9  5  1  0
 10 11  1  0
 11 21  2  0
 11 12  1  0
 12 13  2  0
 13 14  1  0
 14 15  1  0
 16 15  1  1
 17 16  1  0
 17  7  1  0
 18 24  1  0
 18 16  1  0
 19 18  2  0
 20 14  2  0
 21 20  1  0
 23 24  1  0
 23 22  1  1
 25 23  1  0
 26 25  2  0
 27 25  1  0
M  END
$$$$
