EYA.pdb
     RDKit          3D

 27 27  0  0  1  0  0  0  0  0999 V2000
   20.6694  -11.1137  -18.0958 N   0  0  0  0  0  0  0  0  0  0  0  0
   21.3862   -9.9118  -18.4553 C   0  0  1  0  0  0  0  0  0  0  0  0
   21.2953   -9.6299  -19.9421 C   0  0  0  0  0  0  0  0  0  0  0  0
   22.0944  -10.6252  -20.7485 C   0  0  0  0  0  0  0  0  0  0  0  0
   23.3686   -9.9542  -21.1374 C   0  0  0  0  0  0  0  0  0  0  0  0
   23.4445   -9.2909  -22.2066 O   0  0  0  0  0  0  0  0  0  0  0  0
   20.7625   -8.7556  -17.7603 C   0  0  0  0  0  0  0  0  0  0  0  0
   19.5398   -8.7333  -17.4636 O   0  0  0  0  0  0  0  0  0  0  0  0
   24.5200  -10.0233  -20.3554 O   0  0  0  0  0  0  0  0  0  0  0  0
   18.5769   -9.0784  -11.4644 O   0  0  0  0  0  0  0  0  0  0  0  0
   19.2639   -8.3514  -12.4310 C   0  0  0  0  0  0  0  0  0  0  0  0
   20.5658   -8.6905  -12.7421 C   0  0  0  0  0  0  0  0  0  0  0  0
   21.3200   -8.0243  -13.6865 C   0  0  0  0  0  0  0  0  0  0  0  0
   20.7388   -6.9700  -14.3475 C   0  0  0  0  0  0  0  0  0  0  0  0
   21.5125   -6.2255  -15.3704 C   0  0  0  0  0  0  0  0  0  0  0  0
   20.9380   -6.4420  -16.7575 C   0  0  2  0  0  0  0  0  0  0  0  0
   21.5252   -7.6111  -17.3953 N   0  0  0  0  0  0  0  0  0  0  0  0
   21.1493   -5.2792  -17.6342 C   0  0  0  0  0  0  0  0  0  0  0  0
   22.2994   -5.0190  -18.1291 O   0  0  0  0  0  0  0  0  0  0  0  0
   19.4435   -6.6073  -14.0604 C   0  0  0  0  0  0  0  0  0  0  0  0
   18.6933   -7.2920  -13.1016 C   0  0  0  0  0  0  0  0  0  0  0  0
   19.0613   -2.6153  -19.3465 C   0  0  0  0  0  0  0  0  0  0  0  0
   20.3537   -3.2244  -18.8560 C   0  0  2  0  0  0  0  0  0  0  0  0
   20.1177   -4.3685  -17.9966 N   0  0  0  0  0  0  0  0  0  0  0  0
   21.2207   -2.2197  -18.1902 C   0  0  0  0  0  0  0  0  0  0  0  0
   21.7048   -1.2938  -18.8751 O   0  0  0  0  0  0  0  0  0  0  0  0
   21.4743   -2.3272  -16.8333 O   0  0  0  0  0  0  0  0  0  0  0  0
  2  1  1  6
  2  7  1  0
  3  4  1  0
  3  2  1  0
  4  5  1  0
  5  6  2  0
  7  8  2  0
  9  5  1  0
 10 11  1  0
 11 21  2  0
 11 12  1  0
 12 13  2  0
 13 14  1  0
 14 15  1  0
 16 15  1  1
 17 16  1  0
 17  7  1  0
 18 24  1  0
 18 16  1  0
 19 18  2  0
 20 14  2  0
 21 20  1  0
 23 24  1  0
 23 22  1  1
 25 23  1  0
 26 25  2  0
 27 25  1  0
M  END
$$$$
