EYA.pdb
     RDKit          3D

 27 27  0  0  1  0  0  0  0  0999 V2000
   18.9078  -11.0007  -15.4009 N   0  0  0  0  0  0  0  0  0  0  0  0
   17.6126  -11.1370  -16.0264 C   0  0  1  0  0  0  0  0  0  0  0  0
   16.9352  -12.4350  -15.6332 C   0  0  0  0  0  0  0  0  0  0  0  0
   17.6731  -13.6356  -16.1751 C   0  0  0  0  0  0  0  0  0  0  0  0
   16.9542  -14.8493  -15.6902 C   0  0  0  0  0  0  0  0  0  0  0  0
   15.9028  -15.2442  -16.2626 O   0  0  0  0  0  0  0  0  0  0  0  0
   16.7342  -10.0346  -15.5550 C   0  0  0  0  0  0  0  0  0  0  0  0
   15.5278   -9.9453  -15.9018 O   0  0  0  0  0  0  0  0  0  0  0  0
   17.3974  -15.5966  -14.6006 O   0  0  0  0  0  0  0  0  0  0  0  0
   12.3312  -11.7391  -11.1445 O   0  0  0  0  0  0  0  0  0  0  0  0
   13.3221  -10.8364  -11.5160 C   0  0  0  0  0  0  0  0  0  0  0  0
   12.9654   -9.6095  -12.0397 C   0  0  0  0  0  0  0  0  0  0  0  0
   13.8816   -8.6556  -12.4337 C   0  0  0  0  0  0  0  0  0  0  0  0
   15.2161   -8.9488  -12.2948 C   0  0  0  0  0  0  0  0  0  0  0  0
   16.2355   -7.9531  -12.7055 C   0  0  0  0  0  0  0  0  0  0  0  0
   16.3928   -7.9194  -14.2138 C   0  0  2  0  0  0  0  0  0  0  0  0
   17.2206   -9.0210  -14.6828 N   0  0  0  0  0  0  0  0  0  0  0  0
   16.9888   -6.6583  -14.6824 C   0  0  0  0  0  0  0  0  0  0  0  0
   18.2520   -6.4630  -14.6405 O   0  0  0  0  0  0  0  0  0  0  0  0
   15.6040  -10.1624  -11.7765 C   0  0  0  0  0  0  0  0  0  0  0  0
   14.6640  -11.1173  -11.3823 C   0  0  0  0  0  0  0  0  0  0  0  0
   15.8490   -3.4014  -16.2753 C   0  0  0  0  0  0  0  0  0  0  0  0
   16.8252   -4.2996  -15.5527 C   0  0  2  0  0  0  0  0  0  0  0  0
   16.2293   -5.5761  -15.2086 N   0  0  0  0  0  0  0  0  0  0  0  0
   17.4065   -3.6364  -14.3582 C   0  0  0  0  0  0  0  0  0  0  0  0
   16.9626   -3.9336  -13.2288 O   0  0  0  0  0  0  0  0  0  0  0  0
   18.4216   -2.7084  -14.5173 O   0  0  0  0  0  0  0  0  0  0  0  0
  2  1  1  1
  2  7  1  0
  3  4  1  0
  3  2  1  0
  4  5  1  0
  5  6  2  0
  7  8  2  0
  9  5  1  0
 10 11  1  0
 11 21  2  0
 11 12  1  0
 12 13  2  0
 13 14  1  0
 14 15  1  0
 16 15  1  1
 17 16  1  0
 17  7  1  0
 18 24  1  0
 18 16  1  0
 19 18  2  0
 20 14  2  0
 21 20  1  0
 23 24  1  0
 23 22  1  1
 25 23  1  0
 26 25  2  0
 27 25  1  0
M  END
$$$$
