EYA.pdb
     RDKit          3D

 27 27  0  0  1  0  0  0  0  0999 V2000
   21.7612  -10.4083  -17.7622 N   0  0  0  0  0  0  0  0  0  0  0  0
   20.3354  -10.2001  -17.8684 C   0  0  1  0  0  0  0  0  0  0  0  0
   19.5632  -11.4815  -17.6239 C   0  0  0  0  0  0  0  0  0  0  0  0
   20.4830  -12.6333  -17.2969 C   0  0  0  0  0  0  0  0  0  0  0  0
   19.6328  -13.8522  -17.1681 C   0  0  0  0  0  0  0  0  0  0  0  0
   19.5142  -14.6568  -18.1312 O   0  0  0  0  0  0  0  0  0  0  0  0
   19.9120   -9.2369  -16.8188 C   0  0  0  0  0  0  0  0  0  0  0  0
   18.7083   -8.9055  -16.6608 O   0  0  0  0  0  0  0  0  0  0  0  0
   18.9382  -14.1604  -16.0000 O   0  0  0  0  0  0  0  0  0  0  0  0
   19.3052   -5.4143   -9.0405 O   0  0  0  0  0  0  0  0  0  0  0  0
   19.8435   -5.9884  -10.1874 C   0  0  0  0  0  0  0  0  0  0  0  0
   19.5680   -7.3089  -10.4827 C   0  0  0  0  0  0  0  0  0  0  0  0
   20.0594   -7.9571  -11.5976 C   0  0  0  0  0  0  0  0  0  0  0  0
   20.8637   -7.2454  -12.4536 C   0  0  0  0  0  0  0  0  0  0  0  0
   21.4139   -7.9021  -13.6641 C   0  0  0  0  0  0  0  0  0  0  0  0
   20.4673   -7.7636  -14.8412 C   0  0  2  0  0  0  0  0  0  0  0  0
   20.8555   -8.6400  -15.9366 N   0  0  0  0  0  0  0  0  0  0  0  0
   20.4096   -6.3836  -15.3486 C   0  0  0  0  0  0  0  0  0  0  0  0
   21.3761   -5.8791  -16.0171 O   0  0  0  0  0  0  0  0  0  0  0  0
   21.1569   -5.9282  -12.1875 C   0  0  0  0  0  0  0  0  0  0  0  0
   20.6515   -5.2865  -11.0545 C   0  0  0  0  0  0  0  0  0  0  0  0
   17.9318   -3.9151  -16.3994 C   0  0  0  0  0  0  0  0  0  0  0  0
   19.2452   -4.1771  -15.7008 C   0  0  2  0  0  0  0  0  0  0  0  0
   19.3013   -5.5149  -15.1436 N   0  0  0  0  0  0  0  0  0  0  0  0
   19.5366   -3.1506  -14.6684 C   0  0  0  0  0  0  0  0  0  0  0  0
   19.2187   -3.3820  -13.4826 O   0  0  0  0  0  0  0  0  0  0  0  0
   20.1505   -1.9654  -15.0366 O   0  0  0  0  0  0  0  0  0  0  0  0
  2  1  1  1
  2  7  1  0
  3  4  1  0
  3  2  1  0
  4  5  1  0
  5  6  2  0
  7  8  2  0
  9  5  1  0
 10 11  1  0
 11 21  2  0
 11 12  1  0
 12 13  2  0
 13 14  1  0
 14 15  1  0
 16 15  1  1
 17 16  1  0
 17  7  1  0
 18 24  1  0
 18 16  1  0
 19 18  2  0
 20 14  2  0
 21 20  1  0
 23 24  1  0
 23 22  1  1
 25 23  1  0
 26 25  2  0
 27 25  1  0
M  END
$$$$
