EYA.pdb
     RDKit          3D

 27 27  0  0  1  0  0  0  0  0999 V2000
   21.7732  -12.7932  -16.5491 N   0  0  0  0  0  0  0  0  0  0  0  0
   21.1433  -11.5180  -16.8028 C   0  0  1  0  0  0  0  0  0  0  0  0
   19.7065  -11.4978  -16.3196 C   0  0  0  0  0  0  0  0  0  0  0  0
   18.8392  -12.4490  -17.1087 C   0  0  0  0  0  0  0  0  0  0  0  0
   17.4648  -12.3704  -16.5343 C   0  0  0  0  0  0  0  0  0  0  0  0
   16.5831  -11.6502  -17.0756 O   0  0  0  0  0  0  0  0  0  0  0  0
   21.8667  -10.4660  -16.0421 C   0  0  0  0  0  0  0  0  0  0  0  0
   22.1415  -10.5928  -14.8206 O   0  0  0  0  0  0  0  0  0  0  0  0
   17.0894  -13.0746  -15.3919 O   0  0  0  0  0  0  0  0  0  0  0  0
   27.7128  -12.7078  -16.6351 O   0  0  0  0  0  0  0  0  0  0  0  0
   26.8962  -11.5849  -16.7182 C   0  0  0  0  0  0  0  0  0  0  0  0
   26.8276  -10.7112  -15.6511 C   0  0  0  0  0  0  0  0  0  0  0  0
   26.0447   -9.5747  -15.6482 C   0  0  0  0  0  0  0  0  0  0  0  0
   25.2974   -9.3050  -16.7685 C   0  0  0  0  0  0  0  0  0  0  0  0
   24.4416   -8.0946  -16.8091 C   0  0  0  0  0  0  0  0  0  0  0  0
   23.1660   -8.2979  -16.0137 C   0  0  2  0  0  0  0  0  0  0  0  0
   22.2855   -9.2569  -16.6646 N   0  0  0  0  0  0  0  0  0  0  0  0
   22.4242   -7.0416  -15.8224 C   0  0  0  0  0  0  0  0  0  0  0  0
   21.6816   -6.5599  -16.7454 O   0  0  0  0  0  0  0  0  0  0  0  0
   25.3438  -10.1559  -17.8482 C   0  0  0  0  0  0  0  0  0  0  0  0
   26.1415  -11.3023  -17.8354 C   0  0  0  0  0  0  0  0  0  0  0  0
   21.7188   -4.5830  -13.0163 C   0  0  0  0  0  0  0  0  0  0  0  0
   21.7115   -5.0506  -14.4527 C   0  0  2  0  0  0  0  0  0  0  0  0
   22.4690   -6.2754  -14.6242 N   0  0  0  0  0  0  0  0  0  0  0  0
   22.1815   -3.9916  -15.3812 C   0  0  0  0  0  0  0  0  0  0  0  0
   23.3772   -3.9958  -15.7436 O   0  0  0  0  0  0  0  0  0  0  0  0
   21.2928   -3.0269  -15.8244 O   0  0  0  0  0  0  0  0  0  0  0  0
  2  1  1  1
  2  7  1  0
  3  4  1  0
  3  2  1  0
  4  5  1  0
  5  6  2  0
  7  8  2  0
  9  5  1  0
 10 11  1  0
 11 21  2  0
 11 12  1  0
 12 13  2  0
 13 14  1  0
 14 15  1  0
 16 15  1  6
 17 16  1  0
 17  7  1  0
 18 24  1  0
 18 16  1  0
 19 18  2  0
 20 14  2  0
 21 20  1  0
 23 24  1  0
 23 22  1  1
 25 23  1  0
 26 25  2  0
 27 25  1  0
M  END
$$$$
