EYA.pdb
     RDKit          3D

 27 27  0  0  1  0  0  0  0  0999 V2000
   23.3036  -10.8474  -20.5111 N   0  0  0  0  0  0  0  0  0  0  0  0
   23.8332   -9.8670  -19.5914 C   0  0  1  0  0  0  0  0  0  0  0  0
   24.1445   -8.5571  -20.2883 C   0  0  0  0  0  0  0  0  0  0  0  0
   22.9680   -8.0605  -21.0937 C   0  0  0  0  0  0  0  0  0  0  0  0
   23.3627   -6.7497  -21.6863 C   0  0  0  0  0  0  0  0  0  0  0  0
   22.7035   -5.7058  -21.4320 O   0  0  0  0  0  0  0  0  0  0  0  0
   22.8040   -9.5709  -18.5610 C   0  0  0  0  0  0  0  0  0  0  0  0
   21.5764   -9.7525  -18.7698 O   0  0  0  0  0  0  0  0  0  0  0  0
   24.4590   -6.6118  -22.5356 O   0  0  0  0  0  0  0  0  0  0  0  0
   21.6437  -15.1999  -16.5464 O   0  0  0  0  0  0  0  0  0  0  0  0
   21.8006  -13.8684  -16.1761 C   0  0  0  0  0  0  0  0  0  0  0  0
   23.0704  -13.3398  -16.0534 C   0  0  0  0  0  0  0  0  0  0  0  0
   23.3174  -12.0312  -15.6913 C   0  0  0  0  0  0  0  0  0  0  0  0
   22.2392  -11.2180  -15.4414 C   0  0  0  0  0  0  0  0  0  0  0  0
   22.4580   -9.8046  -15.0493 C   0  0  0  0  0  0  0  0  0  0  0  0
   22.1940   -8.8660  -16.2114 C   0  0  2  0  0  0  0  0  0  0  0  0
   23.1619   -9.0644  -17.2803 N   0  0  0  0  0  0  0  0  0  0  0  0
   22.2347   -7.4526  -15.8044 C   0  0  0  0  0  0  0  0  0  0  0  0
   23.3388   -6.8108  -15.7370 O   0  0  0  0  0  0  0  0  0  0  0  0
   20.9615  -11.7145  -15.5548 C   0  0  0  0  0  0  0  0  0  0  0  0
   20.7284  -13.0417  -15.9224 C   0  0  0  0  0  0  0  0  0  0  0  0
   19.7796   -4.6709  -14.9968 C   0  0  0  0  0  0  0  0  0  0  0  0
   21.1468   -5.3119  -15.0415 C   0  0  2  0  0  0  0  0  0  0  0  0
   21.0780   -6.6987  -15.4600 N   0  0  0  0  0  0  0  0  0  0  0  0
   21.8646   -5.1738  -13.7491 C   0  0  0  0  0  0  0  0  0  0  0  0
   21.9027   -6.1529  -12.9740 O   0  0  0  0  0  0  0  0  0  0  0  0
   22.4733   -3.9719  -13.4299 O   0  0  0  0  0  0  0  0  0  0  0  0
  2  1  1  6
  2  7  1  0
  3  4  1  0
  3  2  1  0
  4  5  1  0
  5  6  2  0
  7  8  2  0
  9  5  1  0
 10 11  1  0
 11 21  2  0
 11 12  1  0
 12 13  2  0
 13 14  1  0
 14 15  1  0
 16 15  1  1
 17 16  1  0
 17  7  1  0
 18 24  1  0
 18 16  1  0
 19 18  2  0
 20 14  2  0
 21 20  1  0
 23 24  1  0
 23 22  1  1
 25 23  1  0
 26 25  2  0
 27 25  1  0
M  END
$$$$
