EYA.pdb
     RDKit          3D

 27 27  0  0  1  0  0  0  0  0999 V2000
   24.8992  -34.0220  -14.3693 N   0  0  0  0  0  0  0  0  0  0  0  0
   23.9947  -34.9643  -13.7519 C   0  0  1  0  0  0  0  0  0  0  0  0
   24.4451  -36.3957  -13.9676 C   0  0  0  0  0  0  0  0  0  0  0  0
   24.2449  -36.8338  -15.3985 C   0  0  0  0  0  0  0  0  0  0  0  0
   23.1043  -37.7951  -15.4085 C   0  0  0  0  0  0  0  0  0  0  0  0
   22.5123  -38.0776  -16.4850 O   0  0  0  0  0  0  0  0  0  0  0  0
   23.9895  -34.7327  -12.2838 C   0  0  0  0  0  0  0  0  0  0  0  0
   23.4149  -35.5167  -11.4846 O   0  0  0  0  0  0  0  0  0  0  0  0
   22.6414  -38.4197  -14.2519 O   0  0  0  0  0  0  0  0  0  0  0  0
   26.8362  -33.3434   -4.3207 O   0  0  0  0  0  0  0  0  0  0  0  0
   26.6260  -33.1875   -5.6868 C   0  0  0  0  0  0  0  0  0  0  0  0
   25.7039  -32.2619   -6.1336 C   0  0  0  0  0  0  0  0  0  0  0  0
   25.4329  -32.0423   -7.4689 C   0  0  0  0  0  0  0  0  0  0  0  0
   26.1200  -32.7869   -8.3961 C   0  0  0  0  0  0  0  0  0  0  0  0
   25.8607  -32.5840   -9.8420 C   0  0  0  0  0  0  0  0  0  0  0  0
   24.6083  -33.3178  -10.2827 C   0  0  2  0  0  0  0  0  0  0  0  0
   24.6392  -33.6045  -11.7094 N   0  0  0  0  0  0  0  0  0  0  0  0
   23.3848  -32.5550   -9.9887 C   0  0  0  0  0  0  0  0  0  0  0  0
   22.3765  -33.1050   -9.4263 O   0  0  0  0  0  0  0  0  0  0  0  0
   27.0452  -33.7172   -7.9831 C   0  0  0  0  0  0  0  0  0  0  0  0
   27.3080  -33.9274   -6.6275 C   0  0  0  0  0  0  0  0  0  0  0  0
   22.1586  -28.9668  -10.2913 C   0  0  0  0  0  0  0  0  0  0  0  0
   22.0286  -30.4320   -9.9478 C   0  0  2  0  0  0  0  0  0  0  0  0
   23.2238  -31.1753  -10.2974 N   0  0  0  0  0  0  0  0  0  0  0  0
   20.8188  -31.0379  -10.5593 C   0  0  0  0  0  0  0  0  0  0  0  0
   20.9504  -31.7448  -11.5811 O   0  0  0  0  0  0  0  0  0  0  0  0
   19.5775  -30.8099   -9.9901 O   0  0  0  0  0  0  0  0  0  0  0  0
  2  1  1  6
  2  7  1  0
  3  4  1  0
  3  2  1  0
  4  5  1  0
  5  6  2  0
  7  8  2  0
  9  5  1  0
 10 11  1  0
 11 21  2  0
 11 12  1  0
 12 13  2  0
 13 14  1  0
 14 15  1  0
 16 15  1  6
 17 16  1  0
 17  7  1  0
 18 24  1  0
 18 16  1  0
 19 18  2  0
 20 14  2  0
 21 20  1  0
 23 24  1  0
 23 22  1  6
 25 23  1  0
 26 25  2  0
 27 25  1  0
M  END
$$$$
