EYA.pdb
     RDKit          3D

 27 27  0  0  1  0  0  0  0  0999 V2000
   25.1947   -5.5574  -22.3024 N   0  0  0  0  0  0  0  0  0  0  0  0
   24.8441   -5.1695  -20.9556 C   0  0  1  0  0  0  0  0  0  0  0  0
   23.7082   -4.1656  -20.9402 C   0  0  0  0  0  0  0  0  0  0  0  0
   24.1975   -2.7655  -21.2228 C   0  0  0  0  0  0  0  0  0  0  0  0
   24.6734   -2.1964  -19.9286 C   0  0  0  0  0  0  0  0  0  0  0  0
   23.8629   -1.6575  -19.1276 O   0  0  0  0  0  0  0  0  0  0  0  0
   24.3663   -6.3694  -20.2201 C   0  0  0  0  0  0  0  0  0  0  0  0
   23.6404   -7.2421  -20.7631 O   0  0  0  0  0  0  0  0  0  0  0  0
   26.0124   -2.2295  -19.5437 O   0  0  0  0  0  0  0  0  0  0  0  0
   23.9795  -13.2292  -14.8505 O   0  0  0  0  0  0  0  0  0  0  0  0
   24.3568  -12.0373  -15.4603 C   0  0  0  0  0  0  0  0  0  0  0  0
   24.5045  -11.9903  -16.8325 C   0  0  0  0  0  0  0  0  0  0  0  0
   24.8750  -10.8517  -17.5186 C   0  0  0  0  0  0  0  0  0  0  0  0
   25.1074   -9.7095  -16.7924 C   0  0  0  0  0  0  0  0  0  0  0  0
   25.5077   -8.4628  -17.4886 C   0  0  0  0  0  0  0  0  0  0  0  0
   24.3108   -7.7811  -18.1240 C   0  0  2  0  0  0  0  0  0  0  0  0
   24.7103   -6.5886  -18.8568 N   0  0  0  0  0  0  0  0  0  0  0  0
   23.2970   -7.3970  -17.1291 C   0  0  0  0  0  0  0  0  0  0  0  0
   23.4790   -6.4058  -16.3418 O   0  0  0  0  0  0  0  0  0  0  0  0
   24.9688   -9.7236  -15.4239 C   0  0  0  0  0  0  0  0  0  0  0  0
   24.5929  -10.8845  -14.7443 C   0  0  0  0  0  0  0  0  0  0  0  0
   19.6743   -7.9739  -16.4024 C   0  0  0  0  0  0  0  0  0  0  0  0
   21.0902   -7.7009  -15.9520 C   0  0  2  0  0  0  0  0  0  0  0  0
   22.0591   -8.0787  -16.9628 N   0  0  0  0  0  0  0  0  0  0  0  0
   21.3902   -8.3472  -14.6494 C   0  0  0  0  0  0  0  0  0  0  0  0
   21.9104   -9.4831  -14.6465 O   0  0  0  0  0  0  0  0  0  0  0  0
   21.0899   -7.6840  -13.4717 O   0  0  0  0  0  0  0  0  0  0  0  0
  2  1  1  6
  2  7  1  0
  3  4  1  0
  3  2  1  0
  4  5  1  0
  5  6  2  0
  7  8  2  0
  9  5  1  0
 10 11  1  0
 11 21  2  0
 11 12  1  0
 12 13  2  0
 13 14  1  0
 14 15  1  0
 16 15  1  1
 17 16  1  0
 17  7  1  0
 18 24  1  0
 18 16  1  0
 19 18  2  0
 20 14  2  0
 21 20  1  0
 23 24  1  0
 23 22  1  6
 25 23  1  0
 26 25  2  0
 27 25  1  0
M  END
$$$$
