EYA.pdb
     RDKit          3D

 27 27  0  0  1  0  0  0  0  0999 V2000
   22.4641  -12.1876  -18.6906 N   0  0  0  0  0  0  0  0  0  0  0  0
   22.3895  -10.7574  -18.8815 C   0  0  1  0  0  0  0  0  0  0  0  0
   20.9881  -10.3151  -19.2538 C   0  0  0  0  0  0  0  0  0  0  0  0
   20.6334  -10.7157  -20.6656 C   0  0  0  0  0  0  0  0  0  0  0  0
   20.9809   -9.5655  -21.5496 C   0  0  0  0  0  0  0  0  0  0  0  0
   20.9061   -8.3820  -21.1223 O   0  0  0  0  0  0  0  0  0  0  0  0
   22.7256  -10.0844  -17.5997 C   0  0  0  0  0  0  0  0  0  0  0  0
   22.4808  -10.6108  -16.4832 O   0  0  0  0  0  0  0  0  0  0  0  0
   21.3985   -9.7344  -22.8684 O   0  0  0  0  0  0  0  0  0  0  0  0
   28.5491  -12.3478  -16.8910 O   0  0  0  0  0  0  0  0  0  0  0  0
   27.7404  -11.2185  -16.8183 C   0  0  0  0  0  0  0  0  0  0  0  0
   27.2659  -10.7974  -15.5918 C   0  0  0  0  0  0  0  0  0  0  0  0
   26.4593   -9.6895  -15.4283 C   0  0  0  0  0  0  0  0  0  0  0  0
   26.1146   -8.9733  -16.5484 C   0  0  0  0  0  0  0  0  0  0  0  0
   25.2496   -7.7757  -16.4194 C   0  0  0  0  0  0  0  0  0  0  0  0
   23.7848   -8.1628  -16.3447 C   0  0  2  0  0  0  0  0  0  0  0  0
   23.3449   -8.8035  -17.5754 N   0  0  0  0  0  0  0  0  0  0  0  0
   22.9159   -7.0032  -16.0885 C   0  0  0  0  0  0  0  0  0  0  0  0
   22.8010   -6.0564  -16.9404 O   0  0  0  0  0  0  0  0  0  0  0  0
   26.5711   -9.3670  -17.7847 C   0  0  0  0  0  0  0  0  0  0  0  0
   27.3870  -10.4909  -17.9333 C   0  0  0  0  0  0  0  0  0  0  0  0
   20.2587   -5.9916  -13.5904 C   0  0  0  0  0  0  0  0  0  0  0  0
   21.2460   -5.7238  -14.7019 C   0  0  2  0  0  0  0  0  0  0  0  0
   22.1491   -6.8410  -14.9008 N   0  0  0  0  0  0  0  0  0  0  0  0
   21.9928   -4.4589  -14.4851 C   0  0  0  0  0  0  0  0  0  0  0  0
   21.3690   -3.3772  -14.5245 O   0  0  0  0  0  0  0  0  0  0  0  0
   23.3557   -4.5019  -14.2453 O   0  0  0  0  0  0  0  0  0  0  0  0
  2  1  1  1
  2  7  1  0
  3  4  1  0
  3  2  1  0
  4  5  1  0
  5  6  2  0
  7  8  2  0
  9  5  1  0
 10 11  1  0
 11 21  2  0
 11 12  1  0
 12 13  2  0
 13 14  1  0
 14 15  1  0
 16 15  1  6
 17 16  1  0
 17  7  1  0
 18 24  1  0
 18 16  1  0
 19 18  2  0
 20 14  2  0
 21 20  1  0
 23 24  1  0
 23 22  1  1
 25 23  1  0
 26 25  2  0
 27 25  1  0
M  END
$$$$
