EYA.pdb
     RDKit          3D

 27 27  0  0  1  0  0  0  0  0999 V2000
   19.4025   -9.2765  -18.5070 N   0  0  0  0  0  0  0  0  0  0  0  0
   19.5277   -9.6873  -17.1275 C   0  0  1  0  0  0  0  0  0  0  0  0
   20.5719  -10.7735  -16.9599 C   0  0  0  0  0  0  0  0  0  0  0  0
   20.1894  -12.0336  -17.6983 C   0  0  0  0  0  0  0  0  0  0  0  0
   21.1962  -13.0750  -17.3419 C   0  0  0  0  0  0  0  0  0  0  0  0
   21.0552  -14.2649  -17.7335 O   0  0  0  0  0  0  0  0  0  0  0  0
   19.9838   -8.5254  -16.3207 C   0  0  0  0  0  0  0  0  0  0  0  0
   20.1931   -8.6111  -15.0828 O   0  0  0  0  0  0  0  0  0  0  0  0
   22.3238  -12.7939  -16.5728 O   0  0  0  0  0  0  0  0  0  0  0  0
   25.9591   -9.6807  -16.1626 O   0  0  0  0  0  0  0  0  0  0  0  0
   24.9917   -8.6960  -16.3340 C   0  0  0  0  0  0  0  0  0  0  0  0
   24.6001   -7.9295  -15.2543 C   0  0  0  0  0  0  0  0  0  0  0  0
   23.6488   -6.9329  -15.3346 C   0  0  0  0  0  0  0  0  0  0  0  0
   23.0654   -6.6967  -16.5553 C   0  0  0  0  0  0  0  0  0  0  0  0
   22.0383   -5.6353  -16.6877 C   0  0  0  0  0  0  0  0  0  0  0  0
   20.6942   -6.1046  -16.1643 C   0  0  2  0  0  0  0  0  0  0  0  0
   20.2068   -7.2521  -16.9155 N   0  0  0  0  0  0  0  0  0  0  0  0
   19.6747   -5.0450  -16.2215 C   0  0  0  0  0  0  0  0  0  0  0  0
   19.1685   -4.6677  -17.3337 O   0  0  0  0  0  0  0  0  0  0  0  0
   23.4338   -7.4432  -17.6503 C   0  0  0  0  0  0  0  0  0  0  0  0
   24.3985   -8.4485  -17.5524 C   0  0  0  0  0  0  0  0  0  0  0  0
   17.2718   -3.3374  -13.9253 C   0  0  0  0  0  0  0  0  0  0  0  0
   18.1516   -3.3460  -15.1532 C   0  0  2  0  0  0  0  0  0  0  0  0
   19.1781   -4.3672  -15.0731 N   0  0  0  0  0  0  0  0  0  0  0  0
   18.7404   -2.0094  -15.4207 C   0  0  0  0  0  0  0  0  0  0  0  0
   19.9468   -1.8194  -15.1573 O   0  0  0  0  0  0  0  0  0  0  0  0
   17.9475   -1.0069  -15.9527 O   0  0  0  0  0  0  0  0  0  0  0  0
  2  1  1  6
  2  7  1  0
  3  4  1  0
  3  2  1  0
  4  5  1  0
  5  6  2  0
  7  8  2  0
  9  5  1  0
 10 11  1  0
 11 21  2  0
 11 12  1  0
 12 13  2  0
 13 14  1  0
 14 15  1  0
 16 15  1  6
 17 16  1  0
 17  7  1  0
 18 24  1  0
 18 16  1  0
 19 18  2  0
 20 14  2  0
 21 20  1  0
 23 24  1  0
 23 22  1  1
 25 23  1  0
 26 25  2  0
 27 25  1  0
M  END
$$$$
