EYA.pdb
     RDKit          3D

 27 27  0  0  1  0  0  0  0  0999 V2000
   27.9625  -22.5193  -16.4858 N   0  0  0  0  0  0  0  0  0  0  0  0
   27.3054  -21.2810  -16.1362 C   0  0  1  0  0  0  0  0  0  0  0  0
   26.5219  -20.7144  -17.3038 C   0  0  0  0  0  0  0  0  0  0  0  0
   27.4209  -20.0020  -18.2855 C   0  0  0  0  0  0  0  0  0  0  0  0
   28.1333  -21.0512  -19.0708 C   0  0  0  0  0  0  0  0  0  0  0  0
   29.3513  -21.2965  -18.8576 O   0  0  0  0  0  0  0  0  0  0  0  0
   26.3256  -21.5480  -15.0510 C   0  0  0  0  0  0  0  0  0  0  0  0
   25.8252  -22.6879  -14.8666 O   0  0  0  0  0  0  0  0  0  0  0  0
   27.5034  -21.8011  -20.0622 O   0  0  0  0  0  0  0  0  0  0  0  0
   30.4990  -21.5951   -9.7592 O   0  0  0  0  0  0  0  0  0  0  0  0
   29.2524  -21.1948  -10.2286 C   0  0  0  0  0  0  0  0  0  0  0  0
   29.1460  -20.6283  -11.4834 C   0  0  0  0  0  0  0  0  0  0  0  0
   27.9506  -20.2036  -12.0268 C   0  0  0  0  0  0  0  0  0  0  0  0
   26.8115  -20.3555  -11.2747 C   0  0  0  0  0  0  0  0  0  0  0  0
   25.5051  -19.9130  -11.8193 C   0  0  0  0  0  0  0  0  0  0  0  0
   25.0792  -20.7757  -12.9920 C   0  0  2  0  0  0  0  0  0  0  0  0
   25.9045  -20.5188  -14.1631 N   0  0  0  0  0  0  0  0  0  0  0  0
   23.6710  -20.5583  -13.3594 C   0  0  0  0  0  0  0  0  0  0  0  0
   23.2948  -19.4883  -13.9504 O   0  0  0  0  0  0  0  0  0  0  0  0
   26.8842  -20.9163  -10.0209 C   0  0  0  0  0  0  0  0  0  0  0  0
   28.1021  -21.3412   -9.4851 C   0  0  0  0  0  0  0  0  0  0  0  0
   20.4556  -22.5090  -13.5846 C   0  0  0  0  0  0  0  0  0  0  0  0
   21.2439  -21.2322  -13.4110 C   0  0  2  0  0  0  0  0  0  0  0  0
   22.6344  -21.4964  -13.0950 N   0  0  0  0  0  0  0  0  0  0  0  0
   20.6241  -20.3324  -12.4055 C   0  0  0  0  0  0  0  0  0  0  0  0
   21.1805  -20.1965  -11.2951 O   0  0  0  0  0  0  0  0  0  0  0  0
   19.4506  -19.6662  -12.7151 O   0  0  0  0  0  0  0  0  0  0  0  0
  2  1  1  6
  2  7  1  0
  3  4  1  0
  3  2  1  0
  4  5  1  0
  5  6  2  0
  7  8  2  0
  9  5  1  0
 10 11  1  0
 11 21  2  0
 11 12  1  0
 12 13  2  0
 13 14  1  0
 14 15  1  0
 16 15  1  1
 17 16  1  0
 17  7  1  0
 18 24  1  0
 18 16  1  0
 19 18  2  0
 20 14  2  0
 21 20  1  0
 23 24  1  0
 23 22  1  1
 25 23  1  0
 26 25  2  0
 27 25  1  0
M  END
$$$$
