EYA.pdb
     RDKit          3D

 27 27  0  0  1  0  0  0  0  0999 V2000
   23.4419  -13.6381  -18.3316 N   0  0  0  0  0  0  0  0  0  0  0  0
   22.6717  -12.4422  -18.5849 C   0  0  1  0  0  0  0  0  0  0  0  0
   21.2007  -12.7545  -18.7773 C   0  0  0  0  0  0  0  0  0  0  0  0
   20.9831  -13.7515  -19.8899 C   0  0  0  0  0  0  0  0  0  0  0  0
   19.5132  -13.9852  -19.9898 C   0  0  0  0  0  0  0  0  0  0  0  0
   18.7692  -13.1528  -20.5751 O   0  0  0  0  0  0  0  0  0  0  0  0
   22.7696  -11.5492  -17.4009 C   0  0  0  0  0  0  0  0  0  0  0  0
   22.7962  -11.9970  -16.2252 O   0  0  0  0  0  0  0  0  0  0  0  0
   18.8963  -15.1133  -19.4524 O   0  0  0  0  0  0  0  0  0  0  0  0
   28.8087  -11.8639  -16.3644 O   0  0  0  0  0  0  0  0  0  0  0  0
   27.6999  -11.0241  -16.3610 C   0  0  0  0  0  0  0  0  0  0  0  0
   27.1629  -10.5987  -17.5599 C   0  0  0  0  0  0  0  0  0  0  0  0
   26.0658   -9.7662  -17.6488 C   0  0  0  0  0  0  0  0  0  0  0  0
   25.4828   -9.3427  -16.4796 C   0  0  0  0  0  0  0  0  0  0  0  0
   24.3016   -8.4473  -16.5279 C   0  0  0  0  0  0  0  0  0  0  0  0
   23.0108   -9.2355  -16.4118 C   0  0  2  0  0  0  0  0  0  0  0  0
   22.8382  -10.1350  -17.5431 N   0  0  0  0  0  0  0  0  0  0  0  0
   21.8307   -8.3604  -16.3299 C   0  0  0  0  0  0  0  0  0  0  0  0
   21.5039   -7.5913  -17.2980 O   0  0  0  0  0  0  0  0  0  0  0  0
   25.9940   -9.7488  -15.2689 C   0  0  0  0  0  0  0  0  0  0  0  0
   27.1053  -10.5917  -15.1961 C   0  0  0  0  0  0  0  0  0  0  0  0
   18.9372   -7.6984  -13.9691 C   0  0  0  0  0  0  0  0  0  0  0  0
   19.8832   -7.3475  -15.0933 C   0  0  2  0  0  0  0  0  0  0  0  0
   20.9745   -8.2972  -15.1952 N   0  0  0  0  0  0  0  0  0  0  0  0
   20.3884   -5.9562  -14.9766 C   0  0  0  0  0  0  0  0  0  0  0  0
   21.5304   -5.7678  -14.5062 O   0  0  0  0  0  0  0  0  0  0  0  0
   19.5906   -4.9021  -15.3882 O   0  0  0  0  0  0  0  0  0  0  0  0
  2  1  1  1
  2  7  1  0
  3  4  1  0
  3  2  1  0
  4  5  1  0
  5  6  2  0
  7  8  2  0
  9  5  1  0
 10 11  1  0
 11 21  2  0
 11 12  1  0
 12 13  2  0
 13 14  1  0
 14 15  1  0
 16 15  1  6
 17 16  1  0
 17  7  1  0
 18 24  1  0
 18 16  1  0
 19 18  2  0
 20 14  2  0
 21 20  1  0
 23 24  1  0
 23 22  1  1
 25 23  1  0
 26 25  2  0
 27 25  1  0
M  END
$$$$
