SWC.pdb
     RDKit          3D

 27 28  0  0  1  0  0  0  0  0999 V2000
   27.7550  -19.6648  -17.7468 O   0  0  0  0  0  0  0  0  0  0  0  0
   27.5366  -19.6534  -16.3772 C   0  0  0  0  0  0  0  0  0  0  0  0
   28.1444  -20.8831  -15.7396 C   0  0  2  0  0  0  0  0  0  0  0  0
   28.1191  -22.0175  -16.6353 N   0  0  0  0  0  0  0  0  0  0  0  0
   27.3422  -21.2393  -14.5377 C   0  0  0  0  0  0  0  0  0  0  0  0
   26.4962  -22.2000  -14.5820 O   0  0  0  0  0  0  0  0  0  0  0  0
   27.5454  -20.4903  -13.3654 N   0  0  0  0  0  0  0  0  0  0  0  0
   26.8309  -20.8054  -12.1320 C   0  0  1  0  0  0  0  0  0  0  0  0
   27.5282  -20.2307  -10.9484 C   0  0  0  0  0  0  0  0  0  0  0  0
   26.8704  -20.4289   -9.6699 C   0  0  0  0  0  0  0  0  0  0  0  0
   25.5405  -20.8556   -9.5225 C   0  0  0  0  0  0  0  0  0  0  0  0
   25.2335  -20.9052   -8.2315 N   0  0  0  0  0  0  0  0  0  0  0  0
   26.2982  -20.5310   -7.4965 C   0  0  0  0  0  0  0  0  0  0  0  0
   26.4971  -20.4294   -6.1289 C   0  0  0  0  0  0  0  0  0  0  0  0
   27.7027  -20.0358   -5.6267 C   0  0  0  0  0  0  0  0  0  0  0  0
   28.7364  -19.7358   -6.5022 C   0  0  0  0  0  0  0  0  0  0  0  0
   28.5454  -19.8341   -7.8637 C   0  0  0  0  0  0  0  0  0  0  0  0
   27.3324  -20.2298   -8.3888 C   0  0  0  0  0  0  0  0  0  0  0  0
   25.4293  -20.4668  -12.2995 C   0  0  0  0  0  0  0  0  0  0  0  0
   25.0013  -19.3356  -12.6439 O   0  0  0  0  0  0  0  0  0  0  0  0
   24.4048  -21.4577  -12.0687 N   0  0  0  0  0  0  0  0  0  0  0  0
   23.0450  -21.1849  -12.4583 C   0  0  1  0  0  0  0  0  0  0  0  0
   22.2864  -22.4697  -12.7668 C   0  0  0  0  0  0  0  0  0  0  0  0
   20.5383  -22.1145  -13.0586 S   0  0  0  0  0  0  0  0  0  0  0  0
   22.3313  -20.3644  -11.4565 C   0  0  0  0  0  0  0  0  0  0  0  0
   22.4906  -20.5934  -10.2380 O   0  0  0  0  0  0  0  0  0  0  0  0
   21.4853  -19.3421  -11.8331 O   0  0  0  0  0  0  0  0  0  0  0  0
  1  2  1  0
  3  2  1  0
  3  4  1  6
  5  3  1  0
  6  5  2  0
  7  5  1  0
  8  7  1  0
  9 10  1  0
  8  9  1  1
 10 18  1  0
 11 10  2  0
 11 12  1  0
 12 13  1  0
 13 14  1  0
 14 15  2  0
 16 15  1  0
 17 16  2  0
 18 13  2  0
 18 17  1  0
 19  8  1  0
 19 20  2  0
 21 19  1  0
 22 21  1  0
 22 23  1  1
 24 23  1  0
 25 22  1  0
 26 25  2  0
 27 25  1  0
M  END
$$$$
