SWC.pdb
     RDKit          3D

 27 28  0  0  1  0  0  0  0  0999 V2000
   24.5656  -17.0924  -18.3223 O   0  0  0  0  0  0  0  0  0  0  0  0
   25.7222  -16.4198  -17.9569 C   0  0  0  0  0  0  0  0  0  0  0  0
   26.8999  -17.3691  -17.9494 C   0  0  2  0  0  0  0  0  0  0  0  0
   27.1120  -17.9681  -19.2479 N   0  0  0  0  0  0  0  0  0  0  0  0
   26.6165  -18.4681  -16.9865 C   0  0  0  0  0  0  0  0  0  0  0  0
   26.3265  -19.6425  -17.4074 O   0  0  0  0  0  0  0  0  0  0  0  0
   26.6784  -18.1720  -15.6135 N   0  0  0  0  0  0  0  0  0  0  0  0
   26.5576  -19.2218  -14.6063 C   0  0  1  0  0  0  0  0  0  0  0  0
   27.2846  -18.8533  -13.3600 C   0  0  0  0  0  0  0  0  0  0  0  0
   27.3832  -19.8953  -12.3546 C   0  0  0  0  0  0  0  0  0  0  0  0
   28.2359  -21.0074  -12.4492 C   0  0  0  0  0  0  0  0  0  0  0  0
   28.0644  -21.7865  -11.3877 N   0  0  0  0  0  0  0  0  0  0  0  0
   27.1324  -21.2506  -10.5764 C   0  0  0  0  0  0  0  0  0  0  0  0
   26.6121  -21.6575   -9.3583 C   0  0  0  0  0  0  0  0  0  0  0  0
   25.6688  -20.9091   -8.7177 C   0  0  0  0  0  0  0  0  0  0  0  0
   25.2307  -19.7280   -9.2992 C   0  0  0  0  0  0  0  0  0  0  0  0
   25.7435  -19.3174  -10.5110 C   0  0  0  0  0  0  0  0  0  0  0  0
   26.6975  -20.0625  -11.1730 C   0  0  0  0  0  0  0  0  0  0  0  0
   25.1589  -19.5856  -14.4700 C   0  0  0  0  0  0  0  0  0  0  0  0
   24.2018  -18.7700  -14.4803 O   0  0  0  0  0  0  0  0  0  0  0  0
   24.7752  -20.9680  -14.3078 N   0  0  0  0  0  0  0  0  0  0  0  0
   23.3805  -21.3179  -14.2215 C   0  0  1  0  0  0  0  0  0  0  0  0
   23.1519  -22.7832  -14.5707 C   0  0  0  0  0  0  0  0  0  0  0  0
   24.2598  -23.8399  -13.6098 S   0  0  0  0  0  0  0  0  0  0  0  0
   22.8011  -20.9808  -12.9036 C   0  0  0  0  0  0  0  0  0  0  0  0
   21.5634  -21.0339  -12.7366 O   0  0  0  0  0  0  0  0  0  0  0  0
   23.5970  -20.6052  -11.8415 O   0  0  0  0  0  0  0  0  0  0  0  0
  1  2  1  0
  3  2  1  0
  3  4  1  6
  5  3  1  0
  6  5  2  0
  7  5  1  0
  8  7  1  0
  9 10  1  0
  8  9  1  1
 10 18  1  0
 11 10  2  0
 11 12  1  0
 12 13  1  0
 13 14  1  0
 14 15  2  0
 16 15  1  0
 17 16  2  0
 18 13  2  0
 18 17  1  0
 19  8  1  0
 19 20  2  0
 21 19  1  0
 22 21  1  0
 22 23  1  1
 24 23  1  0
 25 22  1  0
 26 25  2  0
 27 25  1  0
M  END
$$$$
