SWC.pdb
     RDKit          3D

 27 28  0  0  1  0  0  0  0  0999 V2000
   27.0179  -19.3779  -15.5166 O   0  0  0  0  0  0  0  0  0  0  0  0
   28.2965  -19.6301  -15.0421 C   0  0  0  0  0  0  0  0  0  0  0  0
   28.4064  -21.0625  -14.5686 C   0  0  2  0  0  0  0  0  0  0  0  0
   28.0114  -21.9975  -15.5979 N   0  0  0  0  0  0  0  0  0  0  0  0
   27.4891  -21.2509  -13.4118 C   0  0  0  0  0  0  0  0  0  0  0  0
   26.4323  -21.9649  -13.5297 O   0  0  0  0  0  0  0  0  0  0  0  0
   27.8222  -20.6228  -12.1989 N   0  0  0  0  0  0  0  0  0  0  0  0
   26.9983  -20.7943  -11.0061 C   0  0  1  0  0  0  0  0  0  0  0  0
   27.6896  -20.2648   -9.7980 C   0  0  0  0  0  0  0  0  0  0  0  0
   26.9799  -20.4263   -8.5424 C   0  0  0  0  0  0  0  0  0  0  0  0
   25.6277  -20.7915   -8.4395 C   0  0  0  0  0  0  0  0  0  0  0  0
   25.2744  -20.8203   -7.1598 N   0  0  0  0  0  0  0  0  0  0  0  0
   26.3292  -20.4909   -6.3897 C   0  0  0  0  0  0  0  0  0  0  0  0
   26.4852  -20.3912   -5.0165 C   0  0  0  0  0  0  0  0  0  0  0  0
   27.6894  -20.0500   -4.4743 C   0  0  0  0  0  0  0  0  0  0  0  0
   28.7653  -19.8017   -5.3146 C   0  0  0  0  0  0  0  0  0  0  0  0
   28.6170  -19.8984   -6.6815 C   0  0  0  0  0  0  0  0  0  0  0  0
   27.4061  -20.2416   -7.2468 C   0  0  0  0  0  0  0  0  0  0  0  0
   25.6651  -20.2879  -11.2771 C   0  0  0  0  0  0  0  0  0  0  0  0
   25.3991  -19.0978  -11.5840 O   0  0  0  0  0  0  0  0  0  0  0  0
   24.5208  -21.1655  -11.2054 N   0  0  0  0  0  0  0  0  0  0  0  0
   23.2078  -20.6549  -11.5062 C   0  0  1  0  0  0  0  0  0  0  0  0
   22.5838  -21.3864  -12.6881 C   0  0  0  0  0  0  0  0  0  0  0  0
   23.5962  -21.1683  -14.1696 S   0  0  0  0  0  0  0  0  0  0  0  0
   22.3167  -20.6772  -10.3266 C   0  0  0  0  0  0  0  0  0  0  0  0
   22.7366  -21.1272   -9.2386 O   0  0  0  0  0  0  0  0  0  0  0  0
   21.0206  -20.2100  -10.3938 O   0  0  0  0  0  0  0  0  0  0  0  0
  1  2  1  0
  3  2  1  0
  3  4  1  6
  5  3  1  0
  6  5  2  0
  7  5  1  0
  8  7  1  0
  9 10  1  0
  8  9  1  1
 10 18  1  0
 11 10  2  0
 11 12  1  0
 12 13  1  0
 13 14  1  0
 14 15  2  0
 16 15  1  0
 17 16  2  0
 18 13  2  0
 18 17  1  0
 19  8  1  0
 19 20  2  0
 21 19  1  0
 22 21  1  0
 22 23  1  6
 24 23  1  0
 25 22  1  0
 26 25  2  0
 27 25  1  0
M  END
$$$$
