SWC.pdb
     RDKit          3D

 27 28  0  0  1  0  0  0  0  0999 V2000
   27.8121  -19.8828  -17.2127 O   0  0  0  0  0  0  0  0  0  0  0  0
   26.9809  -20.6969  -16.4579 C   0  0  0  0  0  0  0  0  0  0  0  0
   27.7673  -21.3691  -15.3543 C   0  0  2  0  0  0  0  0  0  0  0  0
   28.3748  -22.6011  -15.8050 N   0  0  0  0  0  0  0  0  0  0  0  0
   26.8342  -21.7057  -14.2448 C   0  0  0  0  0  0  0  0  0  0  0  0
   26.2487  -22.8444  -14.2106 O   0  0  0  0  0  0  0  0  0  0  0  0
   26.6219  -20.7380  -13.2473 N   0  0  0  0  0  0  0  0  0  0  0  0
   25.6450  -20.9491  -12.1832 C   0  0  1  0  0  0  0  0  0  0  0  0
   26.0084  -20.1769  -10.9629 C   0  0  0  0  0  0  0  0  0  0  0  0
   27.1913  -20.6325  -10.2560 C   0  0  0  0  0  0  0  0  0  0  0  0
   28.2369  -21.3581  -10.8498 C   0  0  0  0  0  0  0  0  0  0  0  0
   29.1493  -21.6499   -9.9302 N   0  0  0  0  0  0  0  0  0  0  0  0
   28.7680  -21.1529   -8.7379 C   0  0  0  0  0  0  0  0  0  0  0  0
   29.3641  -21.1710   -7.4871 C   0  0  0  0  0  0  0  0  0  0  0  0
   28.7673  -20.5643   -6.4212 C   0  0  0  0  0  0  0  0  0  0  0  0
   27.5496  -19.9237   -6.6001 C   0  0  0  0  0  0  0  0  0  0  0  0
   26.9507  -19.9023   -7.8414 C   0  0  0  0  0  0  0  0  0  0  0  0
   27.5400  -20.5114   -8.9301 C   0  0  0  0  0  0  0  0  0  0  0  0
   24.3119  -20.7440  -12.7198 C   0  0  0  0  0  0  0  0  0  0  0  0
   23.9398  -19.7164  -13.3420 O   0  0  0  0  0  0  0  0  0  0  0  0
   23.2953  -21.7567  -12.5599 N   0  0  0  0  0  0  0  0  0  0  0  0
   21.9847  -21.5496  -13.1207 C   0  0  1  0  0  0  0  0  0  0  0  0
   21.3189  -22.8716  -13.4819 C   0  0  0  0  0  0  0  0  0  0  0  0
   22.3787  -23.8284  -14.5903 S   0  0  0  0  0  0  0  0  0  0  0  0
   21.1224  -20.7348  -12.2382 C   0  0  0  0  0  0  0  0  0  0  0  0
   21.4961  -20.4715  -11.0748 O   0  0  0  0  0  0  0  0  0  0  0  0
   19.9038  -20.2519  -12.6676 O   0  0  0  0  0  0  0  0  0  0  0  0
  1  2  1  0
  3  2  1  0
  3  4  1  6
  5  3  1  0
  6  5  2  0
  7  5  1  0
  8  7  1  0
  9 10  1  0
  8  9  1  1
 10 18  1  0
 11 10  2  0
 11 12  1  0
 12 13  1  0
 13 14  1  0
 14 15  2  0
 16 15  1  0
 17 16  2  0
 18 13  2  0
 18 17  1  0
 19  8  1  0
 19 20  2  0
 21 19  1  0
 22 21  1  0
 22 23  1  1
 24 23  1  0
 25 22  1  0
 26 25  2  0
 27 25  1  0
M  END
$$$$
