SWC.pdb
     RDKit          3D

 27 28  0  0  1  0  0  0  0  0999 V2000
   25.1731  -16.8210  -18.2680 O   0  0  0  0  0  0  0  0  0  0  0  0
   25.3997  -18.1892  -18.2519 C   0  0  0  0  0  0  0  0  0  0  0  0
   26.5772  -18.5147  -17.3599 C   0  0  2  0  0  0  0  0  0  0  0  0
   27.6610  -19.1162  -18.1038 N   0  0  0  0  0  0  0  0  0  0  0  0
   26.1360  -19.4964  -16.3321 C   0  0  0  0  0  0  0  0  0  0  0  0
   26.3236  -20.7511  -16.5086 O   0  0  0  0  0  0  0  0  0  0  0  0
   25.5127  -19.0007  -15.1735 N   0  0  0  0  0  0  0  0  0  0  0  0
   25.1227  -19.8904  -14.0838 C   0  0  1  0  0  0  0  0  0  0  0  0
   25.7453  -19.4670  -12.7990 C   0  0  0  0  0  0  0  0  0  0  0  0
   27.1780  -19.6737  -12.6930 C   0  0  0  0  0  0  0  0  0  0  0  0
   28.1315  -19.0319  -13.5002 C   0  0  0  0  0  0  0  0  0  0  0  0
   29.3453  -19.4611  -13.1754 N   0  0  0  0  0  0  0  0  0  0  0  0
   29.2566  -20.3662  -12.1819 C   0  0  0  0  0  0  0  0  0  0  0  0
   30.2165  -21.0864  -11.4891 C   0  0  0  0  0  0  0  0  0  0  0  0
   29.8591  -21.9446  -10.4909 C   0  0  0  0  0  0  0  0  0  0  0  0
   28.5168  -22.0922  -10.1721 C   0  0  0  0  0  0  0  0  0  0  0  0
   27.5566  -21.3795  -10.8577 C   0  0  0  0  0  0  0  0  0  0  0  0
   27.9004  -20.5078  -11.8704 C   0  0  0  0  0  0  0  0  0  0  0  0
   23.6796  -20.0466  -14.0964 C   0  0  0  0  0  0  0  0  0  0  0  0
   22.8553  -19.0986  -14.0387 O   0  0  0  0  0  0  0  0  0  0  0  0
   23.0869  -21.3606  -14.1798 N   0  0  0  0  0  0  0  0  0  0  0  0
   21.6604  -21.5116  -14.0475 C   0  0  1  0  0  0  0  0  0  0  0  0
   21.0868  -22.3767  -15.1629 C   0  0  0  0  0  0  0  0  0  0  0  0
   19.3337  -22.7038  -14.8681 S   0  0  0  0  0  0  0  0  0  0  0  0
   21.2746  -22.0237  -12.7152 C   0  0  0  0  0  0  0  0  0  0  0  0
   21.8739  -23.0075  -12.2299 O   0  0  0  0  0  0  0  0  0  0  0  0
   20.2607  -21.4397  -11.9847 O   0  0  0  0  0  0  0  0  0  0  0  0
  1  2  1  0
  3  2  1  0
  3  4  1  6
  5  3  1  0
  6  5  2  0
  7  5  1  0
  8  7  1  0
  9 10  1  0
  8  9  1  1
 10 18  1  0
 11 10  2  0
 11 12  1  0
 12 13  1  0
 13 14  1  0
 14 15  2  0
 16 15  1  0
 17 16  2  0
 18 13  2  0
 18 17  1  0
 19  8  1  0
 19 20  2  0
 21 19  1  0
 22 21  1  0
 22 23  1  6
 24 23  1  0
 25 22  1  0
 26 25  2  0
 27 25  1  0
M  END
$$$$
