SWC.pdb
     RDKit          3D

 27 28  0  0  1  0  0  0  0  0999 V2000
   12.1046  -14.3290    6.2807 O   0  0  0  0  0  0  0  0  0  0  0  0
   12.4554  -15.5919    5.8275 C   0  0  0  0  0  0  0  0  0  0  0  0
   12.6616  -15.5722    4.3290 C   0  0  2  0  0  0  0  0  0  0  0  0
   11.4729  -15.9901    3.6204 N   0  0  0  0  0  0  0  0  0  0  0  0
   13.7498  -16.5284    3.9878 C   0  0  0  0  0  0  0  0  0  0  0  0
   13.5100  -17.7839    3.9055 O   0  0  0  0  0  0  0  0  0  0  0  0
   15.0361  -16.0078    3.7620 N   0  0  0  0  0  0  0  0  0  0  0  0
   16.1458  -16.8732    3.3737 C   0  0  1  0  0  0  0  0  0  0  0  0
   17.1376  -16.1321    2.5462 C   0  0  0  0  0  0  0  0  0  0  0  0
   18.1551  -16.9428    1.9028 C   0  0  0  0  0  0  0  0  0  0  0  0
   17.9594  -18.2671    1.4781 C   0  0  0  0  0  0  0  0  0  0  0  0
   19.0890  -18.7363    0.9613 N   0  0  0  0  0  0  0  0  0  0  0  0
   20.0428  -17.7870    1.0166 C   0  0  0  0  0  0  0  0  0  0  0  0
   21.3649  -17.7692    0.6021 C   0  0  0  0  0  0  0  0  0  0  0  0
   22.1300  -16.6509    0.7585 C   0  0  0  0  0  0  0  0  0  0  0  0
   21.5702  -15.5225    1.3403 C   0  0  0  0  0  0  0  0  0  0  0  0
   20.2558  -15.5334    1.7555 C   0  0  0  0  0  0  0  0  0  0  0  0
   19.4680  -16.6560    1.6056 C   0  0  0  0  0  0  0  0  0  0  0  0
   16.6490  -17.5526    4.5537 C   0  0  0  0  0  0  0  0  0  0  0  0
   16.9675  -16.9821    5.6282 O   0  0  0  0  0  0  0  0  0  0  0  0
   16.8181  -18.9865    4.5558 N   0  0  0  0  0  0  0  0  0  0  0  0
   17.3934  -19.6373    5.7050 C   0  0  1  0  0  0  0  0  0  0  0  0
   18.2280  -20.8459    5.2999 C   0  0  0  0  0  0  0  0  0  0  0  0
   17.7691  -22.2880    6.2884 S   0  0  0  0  0  0  0  0  0  0  0  0
   18.1714  -18.7016    6.5449 C   0  0  0  0  0  0  0  0  0  0  0  0
   18.0119  -17.4688    6.4136 O   0  0  0  0  0  0  0  0  0  0  0  0
   19.0783  -19.1561    7.4796 O   0  0  0  0  0  0  0  0  0  0  0  0
  1  2  1  0
  3  2  1  0
  3  4  1  6
  5  3  1  0
  6  5  2  0
  7  5  1  0
  8  7  1  0
  9 10  1  0
  8  9  1  1
 10 18  1  0
 11 10  2  0
 11 12  1  0
 12 13  1  0
 13 14  1  0
 14 15  2  0
 16 15  1  0
 17 16  2  0
 18 13  2  0
 18 17  1  0
 19  8  1  0
 19 20  2  0
 21 19  1  0
 22 21  1  0
 22 23  1  6
 24 23  1  0
 25 22  1  0
 26 25  2  0
 27 25  1  0
M  END
$$$$
