SWC.pdb
     RDKit          3D

 27 28  0  0  1  0  0  0  0  0999 V2000
   26.9638  -19.1397  -15.4247 O   0  0  0  0  0  0  0  0  0  0  0  0
   28.2746  -19.5505  -15.2335 C   0  0  0  0  0  0  0  0  0  0  0  0
   28.3135  -21.0090  -14.8340 C   0  0  2  0  0  0  0  0  0  0  0  0
   27.8079  -21.8645  -15.8839 N   0  0  0  0  0  0  0  0  0  0  0  0
   27.4436  -21.1968  -13.6410 C   0  0  0  0  0  0  0  0  0  0  0  0
   26.2842  -21.7282  -13.7589 O   0  0  0  0  0  0  0  0  0  0  0  0
   27.9367  -20.7737  -12.3942 N   0  0  0  0  0  0  0  0  0  0  0  0
   27.1728  -20.9818  -11.1677 C   0  0  1  0  0  0  0  0  0  0  0  0
   28.0405  -20.8361   -9.9662 C   0  0  0  0  0  0  0  0  0  0  0  0
   27.3471  -20.7218   -8.6963 C   0  0  0  0  0  0  0  0  0  0  0  0
   25.9733  -20.9556   -8.5216 C   0  0  0  0  0  0  0  0  0  0  0  0
   25.6459  -20.7351   -7.2537 N   0  0  0  0  0  0  0  0  0  0  0  0
   26.7387  -20.3624   -6.5603 C   0  0  0  0  0  0  0  0  0  0  0  0
   26.9308  -20.0399   -5.2265 C   0  0  0  0  0  0  0  0  0  0  0  0
   28.1688  -19.7067   -4.7607 C   0  0  0  0  0  0  0  0  0  0  0  0
   29.2426  -19.6930   -5.6393 C   0  0  0  0  0  0  0  0  0  0  0  0
   29.0586  -20.0121   -6.9676 C   0  0  0  0  0  0  0  0  0  0  0  0
   27.8133  -20.3507   -7.4556 C   0  0  0  0  0  0  0  0  0  0  0  0
   25.9724  -20.1670  -11.2160 C   0  0  0  0  0  0  0  0  0  0  0  0
   25.9490  -18.9408  -11.4942 O   0  0  0  0  0  0  0  0  0  0  0  0
   24.6815  -20.7491  -10.9340 N   0  0  0  0  0  0  0  0  0  0  0  0
   23.5042  -20.2240  -11.5769 C   0  0  1  0  0  0  0  0  0  0  0  0
   23.6711  -20.1769  -13.0906 C   0  0  0  0  0  0  0  0  0  0  0  0
   22.1418  -19.6181  -13.8758 S   0  0  0  0  0  0  0  0  0  0  0  0
   22.2820  -20.9616  -11.1916 C   0  0  0  0  0  0  0  0  0  0  0  0
   22.2686  -22.2106  -11.2397 O   0  0  0  0  0  0  0  0  0  0  0  0
   21.1437  -20.3027  -10.7760 O   0  0  0  0  0  0  0  0  0  0  0  0
  1  2  1  0
  3  2  1  0
  3  4  1  6
  5  3  1  0
  6  5  2  0
  7  5  1  0
  8  7  1  0
  9 10  1  0
  8  9  1  1
 10 18  1  0
 11 10  2  0
 11 12  1  0
 12 13  1  0
 13 14  1  0
 14 15  2  0
 16 15  1  0
 17 16  2  0
 18 13  2  0
 18 17  1  0
 19  8  1  0
 19 20  2  0
 21 19  1  0
 22 21  1  0
 22 23  1  6
 24 23  1  0
 25 22  1  0
 26 25  2  0
 27 25  1  0
M  END
$$$$
