SWC.pdb
     RDKit          3D

 27 28  0  0  1  0  0  0  0  0999 V2000
   27.9830  -23.0519  -15.7178 O   0  0  0  0  0  0  0  0  0  0  0  0
   28.4245  -21.9405  -16.4201 C   0  0  0  0  0  0  0  0  0  0  0  0
   27.2474  -21.1734  -16.9807 C   0  0  2  0  0  0  0  0  0  0  0  0
   27.6725  -20.1220  -17.8771 N   0  0  0  0  0  0  0  0  0  0  0  0
   26.5164  -20.5358  -15.8519 C   0  0  0  0  0  0  0  0  0  0  0  0
   26.9576  -19.4587  -15.3174 O   0  0  0  0  0  0  0  0  0  0  0  0
   25.3371  -21.1532  -15.3994 N   0  0  0  0  0  0  0  0  0  0  0  0
   24.5248  -20.5533  -14.3451 C   0  0  1  0  0  0  0  0  0  0  0  0
   23.0907  -20.4961  -14.7422 C   0  0  0  0  0  0  0  0  0  0  0  0
   22.4809  -19.1793  -14.7192 C   0  0  0  0  0  0  0  0  0  0  0  0
   22.8063  -18.1415  -15.6078 C   0  0  0  0  0  0  0  0  0  0  0  0
   22.0984  -17.0604  -15.3019 N   0  0  0  0  0  0  0  0  0  0  0  0
   21.3060  -17.3203  -14.2443 C   0  0  0  0  0  0  0  0  0  0  0  0
   20.3823  -16.5469  -13.5597 C   0  0  0  0  0  0  0  0  0  0  0  0
   19.6809  -17.0639  -12.5103 C   0  0  0  0  0  0  0  0  0  0  0  0
   19.9009  -18.3801  -12.1305 C   0  0  0  0  0  0  0  0  0  0  0  0
   20.8186  -19.1550  -12.8067 C   0  0  0  0  0  0  0  0  0  0  0  0
   21.5372  -18.6480  -13.8697 C   0  0  0  0  0  0  0  0  0  0  0  0
   24.8338  -21.2033  -13.0845 C   0  0  0  0  0  0  0  0  0  0  0  0
   24.8593  -22.4481  -12.9071 O   0  0  0  0  0  0  0  0  0  0  0  0
   25.1427  -20.4179  -11.9131 N   0  0  0  0  0  0  0  0  0  0  0  0
   25.3302  -21.0711  -10.6429 C   0  0  1  0  0  0  0  0  0  0  0  0
   26.5317  -20.5035   -9.8975 C   0  0  0  0  0  0  0  0  0  0  0  0
   26.2377  -18.7769   -9.4507 S   0  0  0  0  0  0  0  0  0  0  0  0
   24.1098  -21.0306   -9.8091 C   0  0  0  0  0  0  0  0  0  0  0  0
   24.0779  -21.6492   -8.7233 O   0  0  0  0  0  0  0  0  0  0  0  0
   22.9932  -20.3214  -10.2001 O   0  0  0  0  0  0  0  0  0  0  0  0
  1  2  1  0
  3  2  1  0
  3  4  1  6
  5  3  1  0
  6  5  2  0
  7  5  1  0
  8  7  1  0
  9 10  1  0
  8  9  1  6
 10 18  1  0
 11 10  2  0
 11 12  1  0
 12 13  1  0
 13 14  1  0
 14 15  2  0
 16 15  1  0
 17 16  2  0
 18 13  2  0
 18 17  1  0
 19  8  1  0
 19 20  2  0
 21 19  1  0
 22 21  1  0
 22 23  1  1
 24 23  1  0
 25 22  1  0
 26 25  2  0
 27 25  1  0
M  END
$$$$
