SWC.pdb
     RDKit          3D

 27 28  0  0  1  0  0  0  0  0999 V2000
   34.5372  -26.3207  -18.4644 O   0  0  0  0  0  0  0  0  0  0  0  0
   33.1518  -26.2646  -18.4967 C   0  0  0  0  0  0  0  0  0  0  0  0
   32.6132  -27.2178  -19.5405 C   0  0  2  0  0  0  0  0  0  0  0  0
   32.6715  -26.6463  -20.8671 N   0  0  0  0  0  0  0  0  0  0  0  0
   31.1845  -27.4994  -19.2329 C   0  0  0  0  0  0  0  0  0  0  0  0
   30.2599  -26.7350  -19.6819 O   0  0  0  0  0  0  0  0  0  0  0  0
   30.8912  -28.6227  -18.4401 N   0  0  0  0  0  0  0  0  0  0  0  0
   29.5257  -28.9123  -18.0127 C   0  0  1  0  0  0  0  0  0  0  0  0
   29.4401  -30.2516  -17.3673 C   0  0  0  0  0  0  0  0  0  0  0  0
   28.1148  -30.6658  -16.9451 C   0  0  0  0  0  0  0  0  0  0  0  0
   26.9232  -30.2569  -17.5659 C   0  0  0  0  0  0  0  0  0  0  0  0
   25.8874  -30.7825  -16.9223 N   0  0  0  0  0  0  0  0  0  0  0  0
   26.3249  -31.5312  -15.8918 C   0  0  0  0  0  0  0  0  0  0  0  0
   25.6591  -32.2881  -14.9412 C   0  0  0  0  0  0  0  0  0  0  0  0
   26.3510  -32.9840  -13.9938 C   0  0  0  0  0  0  0  0  0  0  0  0
   27.7374  -32.9277  -13.9891 C   0  0  0  0  0  0  0  0  0  0  0  0
   28.4062  -32.1762  -14.9313 C   0  0  0  0  0  0  0  0  0  0  0  0
   27.7222  -31.4658  -15.8961 C   0  0  0  0  0  0  0  0  0  0  0  0
   29.0193  -27.7824  -17.2551 C   0  0  0  0  0  0  0  0  0  0  0  0
   29.5895  -27.2765  -16.2549 O   0  0  0  0  0  0  0  0  0  0  0  0
   27.7758  -27.1503  -17.6277 N   0  0  0  0  0  0  0  0  0  0  0  0
   27.3077  -26.0036  -16.8921 C   0  0  1  0  0  0  0  0  0  0  0  0
   27.9747  -24.7221  -17.3761 C   0  0  0  0  0  0  0  0  0  0  0  0
   27.2934  -23.2907  -16.5076 S   0  0  0  0  0  0  0  0  0  0  0  0
   25.8339  -25.8876  -16.9180 C   0  0  0  0  0  0  0  0  0  0  0  0
   25.2074  -26.1568  -17.9657 O   0  0  0  0  0  0  0  0  0  0  0  0
   25.1231  -25.4863  -15.8061 O   0  0  0  0  0  0  0  0  0  0  0  0
  1  2  1  0
  3  2  1  0
  3  4  1  6
  5  3  1  0
  6  5  2  0
  7  5  1  0
  8  7  1  0
  9 10  1  0
  8  9  1  1
 10 18  1  0
 11 10  2  0
 11 12  1  0
 12 13  1  0
 13 14  1  0
 14 15  2  0
 16 15  1  0
 17 16  2  0
 18 13  2  0
 18 17  1  0
 19  8  1  0
 19 20  2  0
 21 19  1  0
 22 21  1  0
 22 23  1  6
 24 23  1  0
 25 22  1  0
 26 25  2  0
 27 25  1  0
M  END
$$$$
