SWC.pdb
     RDKit          3D

 27 28  0  0  1  0  0  0  0  0999 V2000
   16.5423   -9.1001  -16.8648 O   0  0  0  0  0  0  0  0  0  0  0  0
   17.0830   -9.8166  -17.9221 C   0  0  0  0  0  0  0  0  0  0  0  0
   17.6990  -11.1043  -17.4215 C   0  0  2  0  0  0  0  0  0  0  0  0
   16.7895  -11.8357  -16.5685 N   0  0  0  0  0  0  0  0  0  0  0  0
   18.9045  -10.7706  -16.6149 C   0  0  0  0  0  0  0  0  0  0  0  0
   18.8267  -10.6712  -15.3402 O   0  0  0  0  0  0  0  0  0  0  0  0
   20.1177  -10.5709  -17.2966 N   0  0  0  0  0  0  0  0  0  0  0  0
   21.3323  -10.1862  -16.5839 C   0  0  1  0  0  0  0  0  0  0  0  0
   22.5330  -10.8253  -17.1901 C   0  0  0  0  0  0  0  0  0  0  0  0
   23.7747  -10.6597  -16.4572 C   0  0  0  0  0  0  0  0  0  0  0  0
   23.8954  -10.7970  -15.0646 C   0  0  0  0  0  0  0  0  0  0  0  0
   25.1494  -10.5508  -14.7040 N   0  0  0  0  0  0  0  0  0  0  0  0
   25.8851  -10.2530  -15.7921 C   0  0  0  0  0  0  0  0  0  0  0  0
   27.2255   -9.9410  -15.9539 C   0  0  0  0  0  0  0  0  0  0  0  0
   27.7395   -9.6934  -17.1928 C   0  0  0  0  0  0  0  0  0  0  0  0
   26.9037   -9.7568  -18.2985 C   0  0  0  0  0  0  0  0  0  0  0  0
   25.5692  -10.0660  -18.1449 C   0  0  0  0  0  0  0  0  0  0  0  0
   25.0327  -10.3185  -16.8992 C   0  0  0  0  0  0  0  0  0  0  0  0
   21.3569   -8.7420  -16.4397 C   0  0  0  0  0  0  0  0  0  0  0  0
   20.9168   -7.9289  -17.2922 O   0  0  0  0  0  0  0  0  0  0  0  0
   21.9140   -8.1347  -15.2542 N   0  0  0  0  0  0  0  0  0  0  0  0
   21.9604   -6.6995  -15.1401 C   0  0  1  0  0  0  0  0  0  0  0  0
   21.8970   -6.2549  -13.6841 C   0  0  0  0  0  0  0  0  0  0  0  0
   22.6352   -4.6161  -13.4932 S   0  0  0  0  0  0  0  0  0  0  0  0
   23.1343   -6.1225  -15.8295 C   0  0  0  0  0  0  0  0  0  0  0  0
   24.1872   -6.7890  -15.9277 O   0  0  0  0  0  0  0  0  0  0  0  0
   23.0996   -4.8554  -16.3735 O   0  0  0  0  0  0  0  0  0  0  0  0
  1  2  1  0
  3  2  1  0
  3  4  1  1
  5  3  1  0
  6  5  2  0
  7  5  1  0
  8  7  1  0
  9 10  1  0
  8  9  1  6
 10 18  1  0
 11 10  2  0
 11 12  1  0
 12 13  1  0
 13 14  1  0
 14 15  2  0
 16 15  1  0
 17 16  2  0
 18 13  2  0
 18 17  1  0
 19  8  1  0
 19 20  2  0
 21 19  1  0
 22 21  1  0
 22 23  1  1
 24 23  1  0
 25 22  1  0
 26 25  2  0
 27 25  1  0
M  END
$$$$
