SWC.pdb
     RDKit          3D

 27 28  0  0  1  0  0  0  0  0999 V2000
   20.3422  -14.0714  -19.9916 O   0  0  0  0  0  0  0  0  0  0  0  0
   19.8636  -13.0154  -19.2304 C   0  0  0  0  0  0  0  0  0  0  0  0
   20.3689  -13.1232  -17.8087 C   0  0  2  0  0  0  0  0  0  0  0  0
   19.6757  -14.1559  -17.0719 N   0  0  0  0  0  0  0  0  0  0  0  0
   20.1177  -11.8295  -17.1171 C   0  0  0  0  0  0  0  0  0  0  0  0
   18.9232  -11.4661  -16.8317 O   0  0  0  0  0  0  0  0  0  0  0  0
   21.2281  -11.0305  -16.7927 N   0  0  0  0  0  0  0  0  0  0  0  0
   21.0637   -9.7327  -16.1449 C   0  0  1  0  0  0  0  0  0  0  0  0
   22.1913   -9.4535  -15.2131 C   0  0  0  0  0  0  0  0  0  0  0  0
   22.1792   -8.1475  -14.5802 C   0  0  0  0  0  0  0  0  0  0  0  0
   21.4818   -7.8477  -13.3986 C   0  0  0  0  0  0  0  0  0  0  0  0
   21.6465   -6.5637  -13.1026 N   0  0  0  0  0  0  0  0  0  0  0  0
   22.4263   -5.9794  -14.0324 C   0  0  0  0  0  0  0  0  0  0  0  0
   22.9003   -4.6848  -14.1710 C   0  0  0  0  0  0  0  0  0  0  0  0
   23.7081   -4.3459  -15.2166 C   0  0  0  0  0  0  0  0  0  0  0  0
   24.0542   -5.3147  -16.1475 C   0  0  0  0  0  0  0  0  0  0  0  0
   23.5857   -6.6044  -16.0162 C   0  0  0  0  0  0  0  0  0  0  0  0
   22.7673   -6.9642  -14.9654 C   0  0  0  0  0  0  0  0  0  0  0  0
   20.7836   -8.7320  -17.1585 C   0  0  0  0  0  0  0  0  0  0  0  0
   21.3817   -8.6414  -18.2610 O   0  0  0  0  0  0  0  0  0  0  0  0
   19.7551   -7.7416  -16.9440 N   0  0  0  0  0  0  0  0  0  0  0  0
   19.5975   -6.6593  -17.8815 C   0  0  1  0  0  0  0  0  0  0  0  0
   18.3689   -6.8590  -18.7602 C   0  0  0  0  0  0  0  0  0  0  0  0
   18.0730   -5.3908  -19.7722 S   0  0  0  0  0  0  0  0  0  0  0  0
   19.5738   -5.3408  -17.2128 C   0  0  0  0  0  0  0  0  0  0  0  0
   19.1487   -5.2455  -16.0411 O   0  0  0  0  0  0  0  0  0  0  0  0
   20.0127   -4.2004  -17.8527 O   0  0  0  0  0  0  0  0  0  0  0  0
  1  2  1  0
  3  2  1  0
  3  4  1  1
  5  3  1  0
  6  5  2  0
  7  5  1  0
  8  7  1  0
  9 10  1  0
  8  9  1  6
 10 18  1  0
 11 10  2  0
 11 12  1  0
 12 13  1  0
 13 14  1  0
 14 15  2  0
 16 15  1  0
 17 16  2  0
 18 13  2  0
 18 17  1  0
 19  8  1  0
 19 20  2  0
 21 19  1  0
 22 21  1  0
 22 23  1  1
 24 23  1  0
 25 22  1  0
 26 25  2  0
 27 25  1  0
M  END
$$$$
