HAH.pdb
     RDKit          3D

 26 27  0  0  1  0  0  0  0  0999 V2000
    7.3999  -16.9374   19.7912 N   0  0  0  0  0  0  0  0  0  0  0  0
    8.3401  -16.2439   20.6592 C   0  0  1  0  0  0  0  0  0  0  0  0
    7.8629  -14.8200   20.8244 C   0  0  0  0  0  0  0  0  0  0  0  0
    7.9058  -14.0803   19.5518 C   0  0  0  0  0  0  0  0  0  0  0  0
    6.8418  -13.6722   18.7841 C   0  0  0  0  0  0  0  0  0  0  0  0
    7.3349  -13.0377   17.6817 N   0  0  0  0  0  0  0  0  0  0  0  0
    8.6657  -13.0468   17.7542 C   0  0  0  0  0  0  0  0  0  0  0  0
    9.0170  -13.6890   18.9060 N   0  0  0  0  0  0  0  0  0  0  0  0
    8.4253  -16.8819   21.9860 C   0  0  0  0  0  0  0  0  0  0  0  0
    7.4189  -17.0826   22.7109 O   0  0  0  0  0  0  0  0  0  0  0  0
   10.7837  -19.0936   23.6865 C   0  0  0  0  0  0  0  0  0  0  0  0
    9.7078  -18.0338   23.8086 C   0  0  2  0  0  0  0  0  0  0  0  0
    9.6724  -17.3221   22.5480 N   0  0  0  0  0  0  0  0  0  0  0  0
   10.0360  -17.0667   24.9073 C   0  0  0  0  0  0  0  0  0  0  0  0
   10.8329  -16.1126   24.7295 O   0  0  0  0  0  0  0  0  0  0  0  0
    9.4445  -17.2157   26.1802 N   0  0  0  0  0  0  0  0  0  0  0  0
    9.8278  -16.2473   27.2466 C   0  0  1  0  0  0  0  0  0  0  0  0
    8.6008  -15.5794   27.7424 C   0  0  0  0  0  0  0  0  0  0  0  0
    7.9379  -14.7234   26.7469 C   0  0  0  0  0  0  0  0  0  0  0  0
    8.3311  -14.2959   25.5065 C   0  0  0  0  0  0  0  0  0  0  0  0
    7.3496  -13.5691   24.8974 N   0  0  0  0  0  0  0  0  0  0  0  0
    6.3329  -13.5453   25.7681 C   0  0  0  0  0  0  0  0  0  0  0  0
    6.6598  -14.2244   26.8727 N   0  0  0  0  0  0  0  0  0  0  0  0
   10.5026  -17.0617   28.3065 C   0  0  0  0  0  0  0  0  0  0  0  0
   10.9340  -16.6109   29.3657 O   0  0  0  0  0  0  0  0  0  0  0  0
   10.6699  -18.4455   28.1044 O   0  0  0  0  0  0  0  0  0  0  0  0
  2  9  1  0
  2  1  1  6
  3  2  1  0
  4  3  1  0
  5  4  2  0
  6  7  1  0
  6  5  1  0
  7  8  2  0
  8  4  1  0
  9 10  2  0
 12 11  1  6
 12 14  1  0
 13  9  1  0
 13 12  1  0
 14 15  2  0
 16 14  1  0
 16 17  1  0
 17 24  1  0
 17 18  1  1
 19 23  1  0
 19 18  1  0
 20 19  2  0
 21 20  1  0
 21 22  1  0
 22 23  2  0
 24 26  1  0
 25 24  2  0
M  END
$$$$
