HAH.pdb
     RDKit          3D

 26 27  0  0  1  0  0  0  0  0999 V2000
   10.0181  -21.2441   16.7516 N   0  0  0  0  0  0  0  0  0  0  0  0
   10.3001  -22.3555   17.6479 C   0  0  1  0  0  0  0  0  0  0  0  0
   11.6947  -22.8549   17.3509 C   0  0  0  0  0  0  0  0  0  0  0  0
   11.7976  -23.4049   15.9889 C   0  0  0  0  0  0  0  0  0  0  0  0
   11.0833  -24.4482   15.4509 C   0  0  0  0  0  0  0  0  0  0  0  0
   11.5097  -24.6355   14.1687 N   0  0  0  0  0  0  0  0  0  0  0  0
   12.4612  -23.7389   13.9091 C   0  0  0  0  0  0  0  0  0  0  0  0
   12.6382  -22.9812   15.0303 N   0  0  0  0  0  0  0  0  0  0  0  0
   10.2251  -21.9442   19.0621 C   0  0  0  0  0  0  0  0  0  0  0  0
   11.1437  -21.3070   19.6355 O   0  0  0  0  0  0  0  0  0  0  0  0
    7.6153  -21.4281   21.5722 C   0  0  0  0  0  0  0  0  0  0  0  0
    9.0482  -21.8202   21.2742 C   0  0  2  0  0  0  0  0  0  0  0  0
    9.0897  -22.2444   19.8902 N   0  0  0  0  0  0  0  0  0  0  0  0
    9.4807  -22.9600   22.1483 C   0  0  0  0  0  0  0  0  0  0  0  0
    9.1969  -24.1506   21.8676 O   0  0  0  0  0  0  0  0  0  0  0  0
   10.2261  -22.7086   23.3202 N   0  0  0  0  0  0  0  0  0  0  0  0
   10.6787  -23.8788   24.1250 C   0  0  1  0  0  0  0  0  0  0  0  0
   11.9122  -24.4262   23.5115 C   0  0  0  0  0  0  0  0  0  0  0  0
   13.0182  -23.4609   23.4207 C   0  0  0  0  0  0  0  0  0  0  0  0
   13.0291  -22.0976   23.2893 C   0  0  0  0  0  0  0  0  0  0  0  0
   14.3016  -21.6054   23.3246 N   0  0  0  0  0  0  0  0  0  0  0  0
   15.0919  -22.6747   23.4815 C   0  0  0  0  0  0  0  0  0  0  0  0
   14.3514  -23.7867   23.5414 N   0  0  0  0  0  0  0  0  0  0  0  0
   10.9138  -23.3508   25.5063 C   0  0  0  0  0  0  0  0  0  0  0  0
   10.7548  -22.1793   25.8433 O   0  0  0  0  0  0  0  0  0  0  0  0
   11.3486  -24.2349   26.5128 O   0  0  0  0  0  0  0  0  0  0  0  0
  2  9  1  0
  2  1  1  6
  3  2  1  0
  4  3  1  0
  5  4  2  0
  6  7  1  0
  6  5  1  0
  7  8  2  0
  8  4  1  0
  9 10  2  0
 12 11  1  1
 12 14  1  0
 13  9  1  0
 13 12  1  0
 14 15  2  0
 16 14  1  0
 16 17  1  0
 17 24  1  0
 17 18  1  6
 19 23  1  0
 19 18  1  0
 20 19  2  0
 21 20  1  0
 21 22  1  0
 22 23  2  0
 24 26  1  0
 25 24  2  0
M  END
$$$$
