HAH.pdb
     RDKit          3D

 26 27  0  0  1  0  0  0  0  0999 V2000
   11.8120  -16.0177   14.8380 N   0  0  0  0  0  0  0  0  0  0  0  0
   12.0698  -16.2293   16.2547 C   0  0  1  0  0  0  0  0  0  0  0  0
   12.8542  -17.5121   16.4019 C   0  0  0  0  0  0  0  0  0  0  0  0
   12.1711  -18.6452   15.7552 C   0  0  0  0  0  0  0  0  0  0  0  0
   10.8604  -18.7111   15.3481 C   0  0  0  0  0  0  0  0  0  0  0  0
   10.6446  -19.9490   14.8172 N   0  0  0  0  0  0  0  0  0  0  0  0
   11.7828  -20.6389   14.8884 C   0  0  0  0  0  0  0  0  0  0  0  0
   12.7227  -19.8356   15.4662 N   0  0  0  0  0  0  0  0  0  0  0  0
   12.8464  -15.1188   16.8364 C   0  0  0  0  0  0  0  0  0  0  0  0
   12.9148  -13.9832   16.3032 O   0  0  0  0  0  0  0  0  0  0  0  0
   11.8247  -14.1429   19.2154 C   0  0  0  0  0  0  0  0  0  0  0  0
   13.3198  -14.3875   19.1890 C   0  0  2  0  0  0  0  0  0  0  0  0
   13.5846  -15.2567   18.0615 N   0  0  0  0  0  0  0  0  0  0  0  0
   13.7697  -15.0681   20.4477 C   0  0  0  0  0  0  0  0  0  0  0  0
   13.7426  -14.4840   21.5590 O   0  0  0  0  0  0  0  0  0  0  0  0
   14.2388  -16.3986   20.4029 N   0  0  0  0  0  0  0  0  0  0  0  0
   14.6212  -17.0484   21.6888 C   0  0  1  0  0  0  0  0  0  0  0  0
   14.0928  -18.4334   21.6944 C   0  0  0  0  0  0  0  0  0  0  0  0
   12.6247  -18.5169   21.7222 C   0  0  0  0  0  0  0  0  0  0  0  0
   11.6587  -17.5502   21.8139 C   0  0  0  0  0  0  0  0  0  0  0  0
   10.4076  -18.0881   21.7241 N   0  0  0  0  0  0  0  0  0  0  0  0
   10.5970  -19.4048   21.5730 C   0  0  0  0  0  0  0  0  0  0  0  0
   11.9053  -19.6819   21.5687 N   0  0  0  0  0  0  0  0  0  0  0  0
   16.1175  -17.0080   21.7310 C   0  0  0  0  0  0  0  0  0  0  0  0
   16.8047  -17.4907   22.6288 O   0  0  0  0  0  0  0  0  0  0  0  0
   16.8156  -16.3790   20.6819 O   0  0  0  0  0  0  0  0  0  0  0  0
  2  9  1  0
  2  1  1  6
  3  2  1  0
  4  3  1  0
  5  4  2  0
  6  7  1  0
  6  5  1  0
  7  8  2  0
  8  4  1  0
  9 10  2  0
 12 11  1  1
 12 14  1  0
 13  9  1  0
 13 12  1  0
 14 15  2  0
 16 14  1  0
 16 17  1  0
 17 24  1  0
 17 18  1  6
 19 23  1  0
 19 18  1  0
 20 19  2  0
 21 20  1  0
 21 22  1  0
 22 23  2  0
 24 26  1  0
 25 24  2  0
M  END
$$$$
