HAH.pdb
     RDKit          3D

 26 27  0  0  1  0  0  0  0  0999 V2000
    9.3988  -15.5993   21.1478 N   0  0  0  0  0  0  0  0  0  0  0  0
    8.1653  -14.9499   21.5662 C   0  0  1  0  0  0  0  0  0  0  0  0
    7.2121  -14.9550   20.3941 C   0  0  0  0  0  0  0  0  0  0  0  0
    7.6400  -14.0196   19.3403 C   0  0  0  0  0  0  0  0  0  0  0  0
    8.7273  -13.1797   19.3571 C   0  0  0  0  0  0  0  0  0  0  0  0
    8.7372  -12.4779   18.1873 N   0  0  0  0  0  0  0  0  0  0  0  0
    7.6900  -12.8642   17.4589 C   0  0  0  0  0  0  0  0  0  0  0  0
    7.0144  -13.8137   18.1692 N   0  0  0  0  0  0  0  0  0  0  0  0
    7.5396  -15.6541   22.7008 C   0  0  0  0  0  0  0  0  0  0  0  0
    6.4320  -15.3133   23.1865 O   0  0  0  0  0  0  0  0  0  0  0  0
    7.8755  -18.8804   24.4347 C   0  0  0  0  0  0  0  0  0  0  0  0
    7.5539  -17.4012   24.5011 C   0  0  2  0  0  0  0  0  0  0  0  0
    8.1551  -16.7867   23.3358 N   0  0  0  0  0  0  0  0  0  0  0  0
    8.1398  -16.7844   25.7366 C   0  0  0  0  0  0  0  0  0  0  0  0
    7.7940  -17.1543   26.8857 O   0  0  0  0  0  0  0  0  0  0  0  0
    9.1055  -15.7610   25.6258 N   0  0  0  0  0  0  0  0  0  0  0  0
    9.5139  -15.0479   26.8695 C   0  0  1  0  0  0  0  0  0  0  0  0
    8.3091  -14.4412   27.4842 C   0  0  0  0  0  0  0  0  0  0  0  0
    7.5902  -13.5076   26.6040 C   0  0  0  0  0  0  0  0  0  0  0  0
    7.8833  -13.0220   25.3573 C   0  0  0  0  0  0  0  0  0  0  0  0
    6.8781  -12.2293   24.8841 N   0  0  0  0  0  0  0  0  0  0  0  0
    5.9477  -12.2227   25.8468 C   0  0  0  0  0  0  0  0  0  0  0  0
    6.3491  -12.9751   26.8769 N   0  0  0  0  0  0  0  0  0  0  0  0
   10.1381  -16.0903   27.7448 C   0  0  0  0  0  0  0  0  0  0  0  0
   10.4474  -15.9203   28.9224 O   0  0  0  0  0  0  0  0  0  0  0  0
   10.4019  -17.3660   27.2094 O   0  0  0  0  0  0  0  0  0  0  0  0
  2  9  1  0
  2  1  1  6
  3  2  1  0
  4  3  1  0
  5  4  2  0
  6  7  1  0
  6  5  1  0
  7  8  2  0
  8  4  1  0
  9 10  2  0
 12 11  1  1
 12 14  1  0
 13  9  1  0
 13 12  1  0
 14 15  2  0
 16 14  1  0
 16 17  1  0
 17 24  1  0
 17 18  1  1
 19 23  1  0
 19 18  1  0
 20 19  2  0
 21 20  1  0
 21 22  1  0
 22 23  2  0
 24 26  1  0
 25 24  2  0
M  END
$$$$
