HAH.pdb
     RDKit          3D

 26 27  0  0  1  0  0  0  0  0999 V2000
   11.5005  -17.9684   15.1139 N   0  0  0  0  0  0  0  0  0  0  0  0
   12.0598  -18.0120   16.4569 C   0  0  1  0  0  0  0  0  0  0  0  0
   13.0855  -16.9088   16.5734 C   0  0  0  0  0  0  0  0  0  0  0  0
   14.2979  -17.2079   15.7931 C   0  0  0  0  0  0  0  0  0  0  0  0
   14.9636  -18.4068   15.7066 C   0  0  0  0  0  0  0  0  0  0  0  0
   16.0431  -18.2329   14.8910 N   0  0  0  0  0  0  0  0  0  0  0  0
   16.0556  -16.9656   14.4783 C   0  0  0  0  0  0  0  0  0  0  0  0
   14.9807  -16.3346   15.0340 N   0  0  0  0  0  0  0  0  0  0  0  0
   11.0201  -17.8155   17.4840 C   0  0  0  0  0  0  0  0  0  0  0  0
   10.1970  -16.8670   17.4470 O   0  0  0  0  0  0  0  0  0  0  0  0
    9.5947  -19.8323   20.2662 C   0  0  0  0  0  0  0  0  0  0  0  0
    9.8114  -18.5030   19.5721 C   0  0  2  0  0  0  0  0  0  0  0  0
   10.8730  -18.6998   18.6071 N   0  0  0  0  0  0  0  0  0  0  0  0
   10.2330  -17.4518   20.5557 C   0  0  0  0  0  0  0  0  0  0  0  0
   11.4439  -17.2060   20.7792 O   0  0  0  0  0  0  0  0  0  0  0  0
    9.2592  -16.7095   21.2576 N   0  0  0  0  0  0  0  0  0  0  0  0
    9.7273  -15.7536   22.3013 C   0  0  1  0  0  0  0  0  0  0  0  0
    8.7731  -14.6211   22.3677 C   0  0  0  0  0  0  0  0  0  0  0  0
    8.7757  -13.7618   21.1740 C   0  0  0  0  0  0  0  0  0  0  0  0
    9.5024  -13.8154   20.0143 C   0  0  0  0  0  0  0  0  0  0  0  0
    9.1129  -12.8436   19.1387 N   0  0  0  0  0  0  0  0  0  0  0  0
    8.1312  -12.1783   19.7600 C   0  0  0  0  0  0  0  0  0  0  0  0
    7.9140  -12.7063   20.9693 N   0  0  0  0  0  0  0  0  0  0  0  0
    9.7713  -16.5386   23.5757 C   0  0  0  0  0  0  0  0  0  0  0  0
    9.3525  -17.6873   23.7038 O   0  0  0  0  0  0  0  0  0  0  0  0
   10.3258  -15.9458   24.7266 O   0  0  0  0  0  0  0  0  0  0  0  0
  2  9  1  0
  2  1  1  6
  3  2  1  0
  4  3  1  0
  5  4  2  0
  6  7  1  0
  6  5  1  0
  7  8  2  0
  8  4  1  0
  9 10  2  0
 12 11  1  1
 12 14  1  0
 13  9  1  0
 13 12  1  0
 14 15  2  0
 16 14  1  0
 16 17  1  0
 17 24  1  0
 17 18  1  1
 19 23  1  0
 19 18  1  0
 20 19  2  0
 21 20  1  0
 21 22  1  0
 22 23  2  0
 24 26  1  0
 25 24  2  0
M  END
$$$$
