HAH.pdb
     RDKit          3D

 26 27  0  0  1  0  0  0  0  0999 V2000
   10.2666  -15.6573   18.0905 N   0  0  0  0  0  0  0  0  0  0  0  0
    8.9399  -15.4593   18.6552 C   0  0  1  0  0  0  0  0  0  0  0  0
    7.9254  -15.9679   17.6579 C   0  0  0  0  0  0  0  0  0  0  0  0
    7.8667  -15.1159   16.4583 C   0  0  0  0  0  0  0  0  0  0  0  0
    8.6520  -14.0272   16.1651 C   0  0  0  0  0  0  0  0  0  0  0  0
    8.2459  -13.5244   14.9638 N   0  0  0  0  0  0  0  0  0  0  0  0
    7.2378  -14.2728   14.5164 C   0  0  0  0  0  0  0  0  0  0  0  0
    7.0045  -15.2529   15.4370 N   0  0  0  0  0  0  0  0  0  0  0  0
    8.7766  -16.1900   19.9257 C   0  0  0  0  0  0  0  0  0  0  0  0
    7.6806  -16.2580   20.5361 O   0  0  0  0  0  0  0  0  0  0  0  0
   10.8494  -18.4671   22.0378 C   0  0  0  0  0  0  0  0  0  0  0  0
    9.6942  -17.5037   21.8560 C   0  0  2  0  0  0  0  0  0  0  0  0
    9.8656  -16.8802   20.5602 N   0  0  0  0  0  0  0  0  0  0  0  0
    9.7146  -16.4425   22.9160 C   0  0  0  0  0  0  0  0  0  0  0  0
   10.6493  -15.6077   22.9951 O   0  0  0  0  0  0  0  0  0  0  0  0
    8.6660  -16.3637   23.8574 N   0  0  0  0  0  0  0  0  0  0  0  0
    8.6815  -15.2321   24.8276 C   0  0  1  0  0  0  0  0  0  0  0  0
    7.3046  -14.6972   24.9526 C   0  0  0  0  0  0  0  0  0  0  0  0
    7.1539  -13.6592   25.9836 C   0  0  0  0  0  0  0  0  0  0  0  0
    8.0612  -13.0730   26.8258 C   0  0  0  0  0  0  0  0  0  0  0  0
    7.4816  -12.0887   27.5728 N   0  0  0  0  0  0  0  0  0  0  0  0
    6.1990  -12.0607   27.1899 C   0  0  0  0  0  0  0  0  0  0  0  0
    5.9821  -12.9842   26.2473 N   0  0  0  0  0  0  0  0  0  0  0  0
    9.1882  -15.8103   26.1126 C   0  0  0  0  0  0  0  0  0  0  0  0
    9.1487  -17.0035   26.4058 O   0  0  0  0  0  0  0  0  0  0  0  0
    9.7558  -14.9512   27.0735 O   0  0  0  0  0  0  0  0  0  0  0  0
  2  9  1  0
  2  1  1  6
  3  2  1  0
  4  3  1  0
  5  4  2  0
  6  7  1  0
  6  5  1  0
  7  8  2  0
  8  4  1  0
  9 10  2  0
 12 11  1  1
 12 14  1  0
 13  9  1  0
 13 12  1  0
 14 15  2  0
 16 14  1  0
 16 17  1  0
 17 24  1  0
 17 18  1  1
 19 23  1  0
 19 18  1  0
 20 19  2  0
 21 20  1  0
 21 22  1  0
 22 23  2  0
 24 26  1  0
 25 24  2  0
M  END
$$$$
