HAH.pdb
     RDKit          3D

 26 27  0  0  1  0  0  0  0  0999 V2000
   11.8555  -14.1412   19.1136 N   0  0  0  0  0  0  0  0  0  0  0  0
   10.4586  -14.1632   19.5217 C   0  0  1  0  0  0  0  0  0  0  0  0
    9.7481  -15.2168   18.7046 C   0  0  0  0  0  0  0  0  0  0  0  0
    9.0909  -14.6368   17.5214 C   0  0  0  0  0  0  0  0  0  0  0  0
    9.1362  -13.3316   17.0939 C   0  0  0  0  0  0  0  0  0  0  0  0
    8.3717  -13.2288   15.9688 N   0  0  0  0  0  0  0  0  0  0  0  0
    7.8622  -14.4304   15.6980 C   0  0  0  0  0  0  0  0  0  0  0  0
    8.3054  -15.2972   16.6544 N   0  0  0  0  0  0  0  0  0  0  0  0
   10.3171  -14.4856   20.9538 C   0  0  0  0  0  0  0  0  0  0  0  0
   11.1189  -15.2349   21.5655 O   0  0  0  0  0  0  0  0  0  0  0  0
    7.9371  -13.5514   23.7026 C   0  0  0  0  0  0  0  0  0  0  0  0
    9.1875  -14.2282   23.1790 C   0  0  2  0  0  0  0  0  0  0  0  0
    9.2460  -13.9629   21.7566 N   0  0  0  0  0  0  0  0  0  0  0  0
    9.1213  -15.7107   23.3978 C   0  0  0  0  0  0  0  0  0  0  0  0
    8.8357  -16.5025   22.4660 O   0  0  0  0  0  0  0  0  0  0  0  0
    9.3834  -16.2489   24.6760 N   0  0  0  0  0  0  0  0  0  0  0  0
    9.9754  -17.6149   24.7511 C   0  0  1  0  0  0  0  0  0  0  0  0
   11.3424  -17.5701   24.1794 C   0  0  0  0  0  0  0  0  0  0  0  0
   11.4394  -18.0988   22.8104 C   0  0  0  0  0  0  0  0  0  0  0  0
   10.4862  -18.5632   21.9434 C   0  0  0  0  0  0  0  0  0  0  0  0
   11.0298  -18.8855   20.7337 N   0  0  0  0  0  0  0  0  0  0  0  0
   12.3364  -18.6172   20.8486 C   0  0  0  0  0  0  0  0  0  0  0  0
   12.6020  -18.1488   22.0727 N   0  0  0  0  0  0  0  0  0  0  0  0
    9.9760  -17.9742   26.2048 C   0  0  0  0  0  0  0  0  0  0  0  0
   10.0405  -17.1621   27.1254 O   0  0  0  0  0  0  0  0  0  0  0  0
    9.8981  -19.3308   26.5751 O   0  0  0  0  0  0  0  0  0  0  0  0
  2  9  1  0
  2  1  1  6
  3  2  1  0
  4  3  1  0
  5  4  2  0
  6  7  1  0
  6  5  1  0
  7  8  2  0
  8  4  1  0
  9 10  2  0
 12 11  1  6
 12 14  1  0
 13  9  1  0
 13 12  1  0
 14 15  2  0
 16 14  1  0
 16 17  1  0
 17 24  1  0
 17 18  1  1
 19 23  1  0
 19 18  1  0
 20 19  2  0
 21 20  1  0
 21 22  1  0
 22 23  2  0
 24 26  1  0
 25 24  2  0
M  END
$$$$
