HAH.pdb
     RDKit          3D

 26 27  0  0  1  0  0  0  0  0999 V2000
   10.1144  -14.8507   20.4075 N   0  0  0  0  0  0  0  0  0  0  0  0
    8.8599  -14.3651   20.9630 C   0  0  1  0  0  0  0  0  0  0  0  0
    7.7277  -15.0138   20.2015 C   0  0  0  0  0  0  0  0  0  0  0  0
    7.7998  -14.7166   18.7611 C   0  0  0  0  0  0  0  0  0  0  0  0
    8.0051  -13.4945   18.1674 C   0  0  0  0  0  0  0  0  0  0  0  0
    7.9803  -13.6722   16.8151 N   0  0  0  0  0  0  0  0  0  0  0  0
    7.7662  -14.9641   16.5668 C   0  0  0  0  0  0  0  0  0  0  0  0
    7.6550  -15.6070   17.7654 N   0  0  0  0  0  0  0  0  0  0  0  0
    8.7343  -14.7003   22.3937 C   0  0  0  0  0  0  0  0  0  0  0  0
    9.2990  -15.6959   22.9118 O   0  0  0  0  0  0  0  0  0  0  0  0
    7.0860  -13.1393   25.3828 C   0  0  0  0  0  0  0  0  0  0  0  0
    7.9462  -14.1969   24.7215 C   0  0  2  0  0  0  0  0  0  0  0  0
    7.9529  -13.9078   23.3026 N   0  0  0  0  0  0  0  0  0  0  0  0
    7.3694  -15.5644   24.9394 C   0  0  0  0  0  0  0  0  0  0  0  0
    6.6789  -16.1363   24.0603 O   0  0  0  0  0  0  0  0  0  0  0  0
    7.5973  -16.2419   26.1564 N   0  0  0  0  0  0  0  0  0  0  0  0
    7.9632  -17.6857   26.0947 C   0  0  1  0  0  0  0  0  0  0  0  0
    8.9447  -17.8785   25.0006 C   0  0  0  0  0  0  0  0  0  0  0  0
    8.3663  -18.4232   23.7629 C   0  0  0  0  0  0  0  0  0  0  0  0
    7.0802  -18.7529   23.4263 C   0  0  0  0  0  0  0  0  0  0  0  0
    6.9951  -19.1555   22.1250 N   0  0  0  0  0  0  0  0  0  0  0  0
    8.2424  -19.0738   21.6454 C   0  0  0  0  0  0  0  0  0  0  0  0
    9.0727  -18.6409   22.6002 N   0  0  0  0  0  0  0  0  0  0  0  0
    8.5349  -18.0140   27.4391 C   0  0  0  0  0  0  0  0  0  0  0  0
    9.3612  -17.3255   28.0344 O   0  0  0  0  0  0  0  0  0  0  0  0
    8.1156  -19.1887   28.0934 O   0  0  0  0  0  0  0  0  0  0  0  0
  2  9  1  0
  2  1  1  6
  3  2  1  0
  4  3  1  0
  5  4  2  0
  6  7  1  0
  6  5  1  0
  7  8  2  0
  8  4  1  0
  9 10  2  0
 12 11  1  1
 12 14  1  0
 13  9  1  0
 13 12  1  0
 14 15  2  0
 16 14  1  0
 16 17  1  0
 17 24  1  0
 17 18  1  6
 19 23  1  0
 19 18  1  0
 20 19  2  0
 21 20  1  0
 21 22  1  0
 22 23  2  0
 24 26  1  0
 25 24  2  0
M  END
$$$$
