HAH.pdb
     RDKit          3D

 26 27  0  0  1  0  0  0  0  0999 V2000
    9.8642  -14.7339   20.9127 N   0  0  0  0  0  0  0  0  0  0  0  0
    8.6240  -14.2008   21.4565 C   0  0  1  0  0  0  0  0  0  0  0  0
    7.4745  -14.8196   20.6962 C   0  0  0  0  0  0  0  0  0  0  0  0
    7.5840  -14.5735   19.2485 C   0  0  0  0  0  0  0  0  0  0  0  0
    7.7773  -13.3690   18.6161 C   0  0  0  0  0  0  0  0  0  0  0  0
    7.7990  -13.5966   17.2712 N   0  0  0  0  0  0  0  0  0  0  0  0
    7.6249  -14.9019   17.0650 C   0  0  0  0  0  0  0  0  0  0  0  0
    7.4925  -15.5032   18.2829 N   0  0  0  0  0  0  0  0  0  0  0  0
    8.4806  -14.5161   22.8900 C   0  0  0  0  0  0  0  0  0  0  0  0
    9.2166  -15.3447   23.4818 O   0  0  0  0  0  0  0  0  0  0  0  0
    6.4446  -13.1484   25.7255 C   0  0  0  0  0  0  0  0  0  0  0  0
    7.4798  -14.0942   25.1514 C   0  0  2  0  0  0  0  0  0  0  0  0
    7.4832  -13.8948   23.7171 N   0  0  0  0  0  0  0  0  0  0  0  0
    7.1191  -15.5201   25.4462 C   0  0  0  0  0  0  0  0  0  0  0  0
    6.0913  -16.0540   24.9610 O   0  0  0  0  0  0  0  0  0  0  0  0
    7.9429  -16.2980   26.2878 N   0  0  0  0  0  0  0  0  0  0  0  0
    7.4496  -17.6432   26.6993 C   0  0  1  0  0  0  0  0  0  0  0  0
    7.2980  -18.4826   25.4870 C   0  0  0  0  0  0  0  0  0  0  0  0
    8.5384  -18.6545   24.7154 C   0  0  0  0  0  0  0  0  0  0  0  0
    9.6501  -17.8644   24.5898 C   0  0  0  0  0  0  0  0  0  0  0  0
   10.6022  -18.4657   23.8187 N   0  0  0  0  0  0  0  0  0  0  0  0
   10.0777  -19.6445   23.4615 C   0  0  0  0  0  0  0  0  0  0  0  0
    8.8534  -19.7780   23.9828 N   0  0  0  0  0  0  0  0  0  0  0  0
    8.4830  -18.1805   27.6403 C   0  0  0  0  0  0  0  0  0  0  0  0
    9.5385  -17.6142   27.9168 O   0  0  0  0  0  0  0  0  0  0  0  0
    8.2584  -19.4208   28.2687 O   0  0  0  0  0  0  0  0  0  0  0  0
  2  9  1  0
  2  1  1  6
  3  2  1  0
  4  3  1  0
  5  4  2  0
  6  7  1  0
  6  5  1  0
  7  8  2  0
  8  4  1  0
  9 10  2  0
 12 11  1  1
 12 14  1  0
 13  9  1  0
 13 12  1  0
 14 15  2  0
 16 14  1  0
 16 17  1  0
 17 24  1  0
 17 18  1  6
 19 23  1  0
 19 18  1  0
 20 19  2  0
 21 20  1  0
 21 22  1  0
 22 23  2  0
 24 26  1  0
 25 24  2  0
M  END
$$$$
