HAH.pdb
     RDKit          3D

 26 27  0  0  1  0  0  0  0  0999 V2000
    6.9810  -16.1791   21.8249 N   0  0  0  0  0  0  0  0  0  0  0  0
    8.1877  -16.3871   21.0383 C   0  0  1  0  0  0  0  0  0  0  0  0
    8.9317  -15.0742   20.9653 C   0  0  0  0  0  0  0  0  0  0  0  0
    8.4150  -14.2149   19.8869 C   0  0  0  0  0  0  0  0  0  0  0  0
    7.3858  -14.4884   19.0185 C   0  0  0  0  0  0  0  0  0  0  0  0
    7.2546  -13.4273   18.1713 N   0  0  0  0  0  0  0  0  0  0  0  0
    8.1716  -12.5164   18.4966 C   0  0  0  0  0  0  0  0  0  0  0  0
    8.8861  -13.0017   19.5532 N   0  0  0  0  0  0  0  0  0  0  0  0
    9.0634  -17.4054   21.6475 C   0  0  0  0  0  0  0  0  0  0  0  0
    9.0237  -17.6946   22.8695 O   0  0  0  0  0  0  0  0  0  0  0  0
   11.2529  -20.1483   20.4864 C   0  0  0  0  0  0  0  0  0  0  0  0
   10.9107  -19.0982   21.5238 C   0  0  2  0  0  0  0  0  0  0  0  0
   10.0301  -18.1440   20.8828 N   0  0  0  0  0  0  0  0  0  0  0  0
   12.1470  -18.3873   21.9890 C   0  0  0  0  0  0  0  0  0  0  0  0
   13.1497  -19.0152   22.4098 O   0  0  0  0  0  0  0  0  0  0  0  0
   12.2043  -16.9773   21.9608 N   0  0  0  0  0  0  0  0  0  0  0  0
   13.4773  -16.3213   22.3744 C   0  0  1  0  0  0  0  0  0  0  0  0
   13.5270  -14.9658   21.7763 C   0  0  0  0  0  0  0  0  0  0  0  0
   13.9343  -14.9465   20.3632 C   0  0  0  0  0  0  0  0  0  0  0  0
   14.2259  -15.9564   19.4852 C   0  0  0  0  0  0  0  0  0  0  0  0
   14.4849  -15.4698   18.2367 N   0  0  0  0  0  0  0  0  0  0  0  0
   14.3513  -14.1415   18.3383 C   0  0  0  0  0  0  0  0  0  0  0  0
   14.0243  -13.8086   19.5915 N   0  0  0  0  0  0  0  0  0  0  0  0
   13.4435  -16.2842   23.8709 C   0  0  0  0  0  0  0  0  0  0  0  0
   12.4991  -16.6672   24.5584 O   0  0  0  0  0  0  0  0  0  0  0  0
   14.5579  -15.7799   24.5690 O   0  0  0  0  0  0  0  0  0  0  0  0
  2  9  1  0
  2  1  1  1
  3  2  1  0
  4  3  1  0
  5  4  2  0
  6  7  1  0
  6  5  1  0
  7  8  2  0
  8  4  1  0
  9 10  2  0
 12 11  1  6
 12 14  1  0
 13  9  1  0
 13 12  1  0
 14 15  2  0
 16 14  1  0
 16 17  1  0
 17 24  1  0
 17 18  1  6
 19 23  1  0
 19 18  1  0
 20 19  2  0
 21 20  1  0
 21 22  1  0
 22 23  2  0
 24 26  1  0
 25 24  2  0
M  END
$$$$
