HAH.pdb
     RDKit          3D

 26 27  0  0  1  0  0  0  0  0999 V2000
   11.1125  -13.8524   18.6546 N   0  0  0  0  0  0  0  0  0  0  0  0
   10.0624  -13.3512   19.5288 C   0  0  1  0  0  0  0  0  0  0  0  0
    8.9171  -12.8802   18.6633 C   0  0  0  0  0  0  0  0  0  0  0  0
    8.5603  -13.8788   17.6416 C   0  0  0  0  0  0  0  0  0  0  0  0
    7.3705  -14.5534   17.5096 C   0  0  0  0  0  0  0  0  0  0  0  0
    7.4782  -15.3947   16.4411 N   0  0  0  0  0  0  0  0  0  0  0  0
    8.6962  -15.2535   15.9186 C   0  0  0  0  0  0  0  0  0  0  0  0
    9.3624  -14.3199   16.6582 N   0  0  0  0  0  0  0  0  0  0  0  0
    9.5756  -14.3977   20.4468 C   0  0  0  0  0  0  0  0  0  0  0  0
    8.5373  -14.2646   21.1418 O   0  0  0  0  0  0  0  0  0  0  0  0
   10.4975  -17.9538   21.1712 C   0  0  0  0  0  0  0  0  0  0  0  0
    9.6959  -16.6970   21.4429 C   0  0  2  0  0  0  0  0  0  0  0  0
   10.2576  -15.6515   20.6132 N   0  0  0  0  0  0  0  0  0  0  0  0
    9.8110  -16.2936   22.8831 C   0  0  0  0  0  0  0  0  0  0  0  0
   10.7251  -15.5311   23.2830 O   0  0  0  0  0  0  0  0  0  0  0  0
    8.8782  -16.7724   23.8279 N   0  0  0  0  0  0  0  0  0  0  0  0
    9.0379  -16.3437   25.2467 C   0  0  1  0  0  0  0  0  0  0  0  0
    7.7083  -15.9580   25.7767 C   0  0  0  0  0  0  0  0  0  0  0  0
    7.3312  -14.5639   25.4983 C   0  0  0  0  0  0  0  0  0  0  0  0
    8.0093  -13.5406   24.8909 C   0  0  0  0  0  0  0  0  0  0  0  0
    7.2301  -12.4256   24.7796 N   0  0  0  0  0  0  0  0  0  0  0  0
    6.0527  -12.7593   25.3225 C   0  0  0  0  0  0  0  0  0  0  0  0
    6.0899  -14.0241   25.7553 N   0  0  0  0  0  0  0  0  0  0  0  0
    9.6167  -17.5253   25.9616 C   0  0  0  0  0  0  0  0  0  0  0  0
    9.9662  -17.5267   27.1402 O   0  0  0  0  0  0  0  0  0  0  0  0
    9.7853  -18.7351   25.2604 O   0  0  0  0  0  0  0  0  0  0  0  0
  2  9  1  0
  2  1  1  6
  3  2  1  0
  4  3  1  0
  5  4  2  0
  6  7  1  0
  6  5  1  0
  7  8  2  0
  8  4  1  0
  9 10  2  0
 12 11  1  1
 12 14  1  0
 13  9  1  0
 13 12  1  0
 14 15  2  0
 16 14  1  0
 16 17  1  0
 17 24  1  0
 17 18  1  1
 19 23  1  0
 19 18  1  0
 20 19  2  0
 21 20  1  0
 21 22  1  0
 22 23  2  0
 24 26  1  0
 25 24  2  0
M  END
$$$$
