HAH.pdb
     RDKit          3D

 26 27  0  0  1  0  0  0  0  0999 V2000
    6.8630  -16.7546   20.7152 N   0  0  0  0  0  0  0  0  0  0  0  0
    8.0113  -16.1496   21.3736 C   0  0  1  0  0  0  0  0  0  0  0  0
    7.8118  -14.6520   21.3814 C   0  0  0  0  0  0  0  0  0  0  0  0
    7.9684  -14.0749   20.0358 C   0  0  0  0  0  0  0  0  0  0  0  0
    8.3309  -14.7270   18.8818 C   0  0  0  0  0  0  0  0  0  0  0  0
    8.3718  -13.8095   17.8731 N   0  0  0  0  0  0  0  0  0  0  0  0
    8.0457  -12.6193   18.3767 C   0  0  0  0  0  0  0  0  0  0  0  0
    7.7973  -12.7831   19.7086 N   0  0  0  0  0  0  0  0  0  0  0  0
    8.1532  -16.6253   22.7623 C   0  0  0  0  0  0  0  0  0  0  0  0
    7.1818  -16.7144   23.5541 O   0  0  0  0  0  0  0  0  0  0  0  0
   10.5012  -18.6795   24.6375 C   0  0  0  0  0  0  0  0  0  0  0  0
    9.5144  -17.5301   24.6654 C   0  0  2  0  0  0  0  0  0  0  0  0
    9.4198  -17.0232   23.3123 N   0  0  0  0  0  0  0  0  0  0  0  0
   10.0007  -16.4333   25.5658 C   0  0  0  0  0  0  0  0  0  0  0  0
   10.8572  -15.5981   25.1840 O   0  0  0  0  0  0  0  0  0  0  0  0
    9.4951  -16.3202   26.8787 N   0  0  0  0  0  0  0  0  0  0  0  0
   10.0127  -15.2145   27.7340 C   0  0  1  0  0  0  0  0  0  0  0  0
    8.8690  -14.3776   28.1686 C   0  0  0  0  0  0  0  0  0  0  0  0
    8.2284  -13.6229   27.0808 C   0  0  0  0  0  0  0  0  0  0  0  0
    8.5505  -13.4818   25.7571 C   0  0  0  0  0  0  0  0  0  0  0  0
    7.6165  -12.7387   25.0951 N   0  0  0  0  0  0  0  0  0  0  0  0
    6.7015  -12.4148   26.0171 C   0  0  0  0  0  0  0  0  0  0  0  0
    7.0441  -12.9294   27.2030 N   0  0  0  0  0  0  0  0  0  0  0  0
   10.7004  -15.8831   28.8839 C   0  0  0  0  0  0  0  0  0  0  0  0
   10.7410  -17.0987   29.0630 O   0  0  0  0  0  0  0  0  0  0  0  0
   11.3562  -15.0896   29.8451 O   0  0  0  0  0  0  0  0  0  0  0  0
  2  9  1  0
  2  1  1  1
  3  2  1  0
  4  3  1  0
  5  4  2  0
  6  7  1  0
  6  5  1  0
  7  8  2  0
  8  4  1  0
  9 10  2  0
 12 11  1  6
 12 14  1  0
 13  9  1  0
 13 12  1  0
 14 15  2  0
 16 14  1  0
 16 17  1  0
 17 24  1  0
 17 18  1  1
 19 23  1  0
 19 18  1  0
 20 19  2  0
 21 20  1  0
 21 22  1  0
 22 23  2  0
 24 26  1  0
 25 24  2  0
M  END
$$$$
