HAH.pdb
     RDKit          3D

 26 27  0  0  1  0  0  0  0  0999 V2000
   10.2110  -15.9307   18.0158 N   0  0  0  0  0  0  0  0  0  0  0  0
   11.0841  -14.8096   18.3303 C   0  0  1  0  0  0  0  0  0  0  0  0
   10.4863  -14.0639   19.5005 C   0  0  0  0  0  0  0  0  0  0  0  0
    9.1173  -13.6050   19.2116 C   0  0  0  0  0  0  0  0  0  0  0  0
    8.7391  -12.4520   18.5668 C   0  0  0  0  0  0  0  0  0  0  0  0
    7.3758  -12.4149   18.5323 N   0  0  0  0  0  0  0  0  0  0  0  0
    6.9122  -13.5091   19.1360 C   0  0  0  0  0  0  0  0  0  0  0  0
    7.9849  -14.2418   19.5542 N   0  0  0  0  0  0  0  0  0  0  0  0
   12.4410  -15.2626   18.6885 C   0  0  0  0  0  0  0  0  0  0  0  0
   12.6540  -16.2370   19.4525 O   0  0  0  0  0  0  0  0  0  0  0  0
   15.9266  -14.3872   17.6287 C   0  0  0  0  0  0  0  0  0  0  0  0
   14.9395  -15.1323   18.5040 C   0  0  2  0  0  0  0  0  0  0  0  0
   13.6234  -14.6185   18.1865 N   0  0  0  0  0  0  0  0  0  0  0  0
   15.2240  -14.8852   19.9559 C   0  0  0  0  0  0  0  0  0  0  0  0
   14.9916  -13.7744   20.4935 O   0  0  0  0  0  0  0  0  0  0  0  0
   15.7666  -15.9143   20.7550 N   0  0  0  0  0  0  0  0  0  0  0  0
   16.0044  -15.6268   22.1982 C   0  0  1  0  0  0  0  0  0  0  0  0
   15.4306  -16.7325   23.0017 C   0  0  0  0  0  0  0  0  0  0  0  0
   13.9651  -16.6928   23.1194 C   0  0  0  0  0  0  0  0  0  0  0  0
   13.0543  -15.7109   22.8326 C   0  0  0  0  0  0  0  0  0  0  0  0
   11.7758  -16.1473   23.0269 N   0  0  0  0  0  0  0  0  0  0  0  0
   11.8920  -17.4161   23.4380 C   0  0  0  0  0  0  0  0  0  0  0  0
   13.1826  -17.7612   23.4998 N   0  0  0  0  0  0  0  0  0  0  0  0
   17.4906  -15.5232   22.3486 C   0  0  0  0  0  0  0  0  0  0  0  0
   18.2995  -15.7085   21.4417 O   0  0  0  0  0  0  0  0  0  0  0  0
   18.0303  -15.1916   23.6066 O   0  0  0  0  0  0  0  0  0  0  0  0
  2  9  1  0
  2  1  1  1
  3  2  1  0
  4  3  1  0
  5  4  2  0
  6  7  1  0
  6  5  1  0
  7  8  2  0
  8  4  1  0
  9 10  2  0
 12 11  1  6
 12 14  1  0
 13  9  1  0
 13 12  1  0
 14 15  2  0
 16 14  1  0
 16 17  1  0
 17 24  1  0
 17 18  1  1
 19 23  1  0
 19 18  1  0
 20 19  2  0
 21 20  1  0
 21 22  1  0
 22 23  2  0
 24 26  1  0
 25 24  2  0
M  END
$$$$
