HAH.pdb
     RDKit          3D

 26 27  0  0  1  0  0  0  0  0999 V2000
    9.0978  -18.9290   15.4007 N   0  0  0  0  0  0  0  0  0  0  0  0
   10.0574  -18.1323   16.1509 C   0  0  1  0  0  0  0  0  0  0  0  0
    9.8892  -16.6878   15.7412 C   0  0  0  0  0  0  0  0  0  0  0  0
   10.3513  -16.4556   14.3625 C   0  0  0  0  0  0  0  0  0  0  0  0
   11.5780  -15.9865   13.9582 C   0  0  0  0  0  0  0  0  0  0  0  0
   11.5719  -15.9065   12.5964 N   0  0  0  0  0  0  0  0  0  0  0  0
   10.3800  -16.3122   12.1589 C   0  0  0  0  0  0  0  0  0  0  0  0
    9.6285  -16.6502   13.2468 N   0  0  0  0  0  0  0  0  0  0  0  0
    9.8413  -18.2503   17.6049 C   0  0  0  0  0  0  0  0  0  0  0  0
    8.6985  -18.2375   18.1267 O   0  0  0  0  0  0  0  0  0  0  0  0
   11.6983  -19.5825   20.4455 C   0  0  0  0  0  0  0  0  0  0  0  0
   10.6765  -18.5808   19.9473 C   0  0  2  0  0  0  0  0  0  0  0  0
   10.9285  -18.3893   18.5342 N   0  0  0  0  0  0  0  0  0  0  0  0
   10.8311  -17.2668   20.6542 C   0  0  0  0  0  0  0  0  0  0  0  0
   11.6440  -16.3961   20.2568 O   0  0  0  0  0  0  0  0  0  0  0  0
   10.0524  -16.9830   21.7967 N   0  0  0  0  0  0  0  0  0  0  0  0
   10.2426  -15.6624   22.4615 C   0  0  1  0  0  0  0  0  0  0  0  0
    8.9429  -14.9496   22.4781 C   0  0  0  0  0  0  0  0  0  0  0  0
    8.5562  -14.3738   21.1811 C   0  0  0  0  0  0  0  0  0  0  0  0
    9.1699  -14.3922   19.9568 C   0  0  0  0  0  0  0  0  0  0  0  0
    8.4006  -13.7857   19.0065 N   0  0  0  0  0  0  0  0  0  0  0  0
    7.2944  -13.3867   19.6464 C   0  0  0  0  0  0  0  0  0  0  0  0
    7.3650  -13.7255   20.9381 N   0  0  0  0  0  0  0  0  0  0  0  0
   10.7410  -15.9732   23.8389 C   0  0  0  0  0  0  0  0  0  0  0  0
   10.7425  -17.0933   24.3456 O   0  0  0  0  0  0  0  0  0  0  0  0
   11.2502  -14.9288   24.6350 O   0  0  0  0  0  0  0  0  0  0  0  0
  2  9  1  0
  2  1  1  6
  3  2  1  0
  4  3  1  0
  5  4  2  0
  6  7  1  0
  6  5  1  0
  7  8  2  0
  8  4  1  0
  9 10  2  0
 12 11  1  1
 12 14  1  0
 13  9  1  0
 13 12  1  0
 14 15  2  0
 16 14  1  0
 16 17  1  0
 17 24  1  0
 17 18  1  1
 19 23  1  0
 19 18  1  0
 20 19  2  0
 21 20  1  0
 21 22  1  0
 22 23  2  0
 24 26  1  0
 25 24  2  0
M  END
$$$$
