HAH.pdb
     RDKit          3D

 26 27  0  0  1  0  0  0  0  0999 V2000
    9.1758  -15.4896   12.6254 N   0  0  0  0  0  0  0  0  0  0  0  0
    9.3049  -16.2811   13.8400 C   0  0  1  0  0  0  0  0  0  0  0  0
   10.2959  -17.3899   13.5736 C   0  0  0  0  0  0  0  0  0  0  0  0
    9.7167  -18.4458   12.7262 C   0  0  0  0  0  0  0  0  0  0  0  0
    8.3943  -18.8043   12.6214 C   0  0  0  0  0  0  0  0  0  0  0  0
    8.3061  -19.8401   11.7381 N   0  0  0  0  0  0  0  0  0  0  0  0
    9.5333  -20.1235   11.3018 C   0  0  0  0  0  0  0  0  0  0  0  0
   10.4018  -19.2647   11.9106 N   0  0  0  0  0  0  0  0  0  0  0  0
    9.7852  -15.4652   14.9706 C   0  0  0  0  0  0  0  0  0  0  0  0
   10.7967  -14.7238   14.8940 O   0  0  0  0  0  0  0  0  0  0  0  0
    8.6332  -14.7718   18.4734 C   0  0  0  0  0  0  0  0  0  0  0  0
    9.6256  -14.6438   17.3356 C   0  0  2  0  0  0  0  0  0  0  0  0
    9.1271  -15.4596   16.2480 N   0  0  0  0  0  0  0  0  0  0  0  0
   10.9759  -15.1504   17.7480 C   0  0  0  0  0  0  0  0  0  0  0  0
   11.3445  -16.3242   17.4968 O   0  0  0  0  0  0  0  0  0  0  0  0
   11.8691  -14.3019   18.4367 N   0  0  0  0  0  0  0  0  0  0  0  0
   13.2472  -14.8048   18.7012 C   0  0  1  0  0  0  0  0  0  0  0  0
   14.2184  -13.7667   18.2809 C   0  0  0  0  0  0  0  0  0  0  0  0
   15.6262  -14.1499   18.4663 C   0  0  0  0  0  0  0  0  0  0  0  0
   16.2037  -15.3075   18.9163 C   0  0  0  0  0  0  0  0  0  0  0  0
   17.5652  -15.2426   18.8477 N   0  0  0  0  0  0  0  0  0  0  0  0
   17.8384  -14.0312   18.3475 C   0  0  0  0  0  0  0  0  0  0  0  0
   16.7025  -13.3655   18.1133 N   0  0  0  0  0  0  0  0  0  0  0  0
   13.3016  -15.0750   20.1730 C   0  0  0  0  0  0  0  0  0  0  0  0
   14.3070  -15.4376   20.7804 O   0  0  0  0  0  0  0  0  0  0  0  0
   12.1338  -14.9111   20.9432 O   0  0  0  0  0  0  0  0  0  0  0  0
  2  9  1  0
  2  1  1  6
  3  2  1  0
  4  3  1  0
  5  4  2  0
  6  7  1  0
  6  5  1  0
  7  8  2  0
  8  4  1  0
  9 10  2  0
 12 11  1  1
 12 14  1  0
 13  9  1  0
 13 12  1  0
 14 15  2  0
 16 14  1  0
 16 17  1  0
 17 24  1  0
 17 18  1  1
 19 23  1  0
 19 18  1  0
 20 19  2  0
 21 20  1  0
 21 22  1  0
 22 23  2  0
 24 26  1  0
 25 24  2  0
M  END
$$$$
