HAH.pdb
     RDKit          3D

 26 27  0  0  1  0  0  0  0  0999 V2000
    8.2514  -17.5056   19.0671 N   0  0  0  0  0  0  0  0  0  0  0  0
    9.2603  -16.7343   19.7780 C   0  0  1  0  0  0  0  0  0  0  0  0
    8.6765  -15.3770   20.0937 C   0  0  0  0  0  0  0  0  0  0  0  0
    8.3943  -14.6078   18.8701 C   0  0  0  0  0  0  0  0  0  0  0  0
    8.6694  -14.9673   17.5728 C   0  0  0  0  0  0  0  0  0  0  0  0
    8.2581  -13.9541   16.7572 N   0  0  0  0  0  0  0  0  0  0  0  0
    7.7412  -12.9889   17.5174 C   0  0  0  0  0  0  0  0  0  0  0  0
    7.8253  -13.3918   18.8186 N   0  0  0  0  0  0  0  0  0  0  0  0
    9.6599  -17.3926   21.0356 C   0  0  0  0  0  0  0  0  0  0  0  0
    8.8312  -17.9028   21.8303 O   0  0  0  0  0  0  0  0  0  0  0  0
   12.8962  -18.3586   22.6527 C   0  0  0  0  0  0  0  0  0  0  0  0
   11.3918  -18.1797   22.6711 C   0  0  2  0  0  0  0  0  0  0  0  0
   11.0334  -17.4985   21.4446 N   0  0  0  0  0  0  0  0  0  0  0  0
   10.9704  -17.3381   23.8391 C   0  0  0  0  0  0  0  0  0  0  0  0
   10.6248  -16.1392   23.6973 O   0  0  0  0  0  0  0  0  0  0  0  0
   10.9553  -17.8892   25.1385 N   0  0  0  0  0  0  0  0  0  0  0  0
   10.1380  -17.2029   26.1792 C   0  0  1  0  0  0  0  0  0  0  0  0
    8.7136  -17.2541   25.7719 C   0  0  0  0  0  0  0  0  0  0  0  0
    8.1430  -15.9466   25.4140 C   0  0  0  0  0  0  0  0  0  0  0  0
    8.7009  -14.6977   25.3428 C   0  0  0  0  0  0  0  0  0  0  0  0
    7.8024  -13.7777   24.8858 N   0  0  0  0  0  0  0  0  0  0  0  0
    6.6725  -14.4621   24.6684 C   0  0  0  0  0  0  0  0  0  0  0  0
    6.8518  -15.7515   24.9748 N   0  0  0  0  0  0  0  0  0  0  0  0
   10.3955  -17.9502   27.4510 C   0  0  0  0  0  0  0  0  0  0  0  0
   10.7364  -19.1297   27.5118 O   0  0  0  0  0  0  0  0  0  0  0  0
   10.2447  -17.2812   28.6811 O   0  0  0  0  0  0  0  0  0  0  0  0
  2  9  1  0
  2  1  1  1
  3  2  1  0
  4  3  1  0
  5  4  2  0
  6  7  1  0
  6  5  1  0
  7  8  2  0
  8  4  1  0
  9 10  2  0
 12 11  1  6
 12 14  1  0
 13  9  1  0
 13 12  1  0
 14 15  2  0
 16 14  1  0
 16 17  1  0
 17 24  1  0
 17 18  1  6
 19 23  1  0
 19 18  1  0
 20 19  2  0
 21 20  1  0
 21 22  1  0
 22 23  2  0
 24 26  1  0
 25 24  2  0
M  END
$$$$
