HAH.pdb
     RDKit          3D

 26 27  0  0  1  0  0  0  0  0999 V2000
   14.4715  -14.6150   15.6682 N   0  0  0  0  0  0  0  0  0  0  0  0
   13.3202  -15.3124   16.2220 C   0  0  1  0  0  0  0  0  0  0  0  0
   13.6264  -16.7918   16.2274 C   0  0  0  0  0  0  0  0  0  0  0  0
   13.7880  -17.3194   14.8622 C   0  0  0  0  0  0  0  0  0  0  0  0
   12.8124  -17.4917   13.9100 C   0  0  0  0  0  0  0  0  0  0  0  0
   13.3966  -18.0236   12.7979 N   0  0  0  0  0  0  0  0  0  0  0  0
   14.6973  -18.1807   13.0432 C   0  0  0  0  0  0  0  0  0  0  0  0
   14.9380  -17.7469   14.3146 N   0  0  0  0  0  0  0  0  0  0  0  0
   13.0316  -14.8736   17.6000 C   0  0  0  0  0  0  0  0  0  0  0  0
   13.9272  -14.7233   18.4683 O   0  0  0  0  0  0  0  0  0  0  0  0
    9.9831  -13.8046   19.5065 C   0  0  0  0  0  0  0  0  0  0  0  0
   11.4495  -14.1752   19.4173 C   0  0  2  0  0  0  0  0  0  0  0  0
   11.6981  -14.5850   18.0508 N   0  0  0  0  0  0  0  0  0  0  0  0
   11.7662  -15.3179   20.3360 C   0  0  0  0  0  0  0  0  0  0  0  0
   11.6272  -16.5124   19.9745 O   0  0  0  0  0  0  0  0  0  0  0  0
   12.2335  -15.0650   21.6436 N   0  0  0  0  0  0  0  0  0  0  0  0
   12.5818  -16.2345   22.4997 C   0  0  1  0  0  0  0  0  0  0  0  0
   13.9830  -16.0836   22.9594 C   0  0  0  0  0  0  0  0  0  0  0  0
   14.9847  -16.2236   21.8916 C   0  0  0  0  0  0  0  0  0  0  0  0
   15.6791  -15.2923   21.1660 C   0  0  0  0  0  0  0  0  0  0  0  0
   16.5732  -15.8857   20.3226 N   0  0  0  0  0  0  0  0  0  0  0  0
   16.4349  -17.2016   20.5269 C   0  0  0  0  0  0  0  0  0  0  0  0
   15.4978  -17.4252   21.4543 N   0  0  0  0  0  0  0  0  0  0  0  0
   11.6033  -16.2097   23.6329 C   0  0  0  0  0  0  0  0  0  0  0  0
   10.7029  -15.3825   23.7609 O   0  0  0  0  0  0  0  0  0  0  0  0
   11.6955  -17.1907   24.6392 O   0  0  0  0  0  0  0  0  0  0  0  0
  2  9  1  0
  2  1  1  1
  3  2  1  0
  4  3  1  0
  5  4  2  0
  6  7  1  0
  6  5  1  0
  7  8  2  0
  8  4  1  0
  9 10  2  0
 12 11  1  6
 12 14  1  0
 13  9  1  0
 13 12  1  0
 14 15  2  0
 16 14  1  0
 16 17  1  0
 17 24  1  0
 17 18  1  1
 19 23  1  0
 19 18  1  0
 20 19  2  0
 21 20  1  0
 21 22  1  0
 22 23  2  0
 24 26  1  0
 25 24  2  0
M  END
$$$$
