DYW.pdb
     RDKit          3D

 35 37  0  0  1  0  0  0  0  0999 V2000
    9.2646  -18.8702   19.9001 N   0  0  0  0  0  0  0  0  0  0  0  0
   10.5194  -18.2524   19.6079 C   0  0  1  0  0  0  0  0  0  0  0  0
   10.7441  -18.0020   18.1322 C   0  0  0  0  0  0  0  0  0  0  0  0
   10.8351  -19.2470   17.3462 C   0  0  0  0  0  0  0  0  0  0  0  0
   10.8465  -20.3705   17.9369 O   0  0  0  0  0  0  0  0  0  0  0  0
   10.6618  -16.9803   20.3896 C   0  0  0  0  0  0  0  0  0  0  0  0
   11.7420  -16.3484   20.3616 O   0  0  0  0  0  0  0  0  0  0  0  0
   10.9078  -19.1833   15.9624 O   0  0  0  0  0  0  0  0  0  0  0  0
    7.2142  -12.7875   16.3765 O   0  0  0  0  0  0  0  0  0  0  0  0
    7.4772  -13.2248   17.6670 C   0  0  0  0  0  0  0  0  0  0  0  0
    7.0097  -14.4157   18.1815 C   0  0  0  0  0  0  0  0  0  0  0  0
    7.3083  -14.8040   19.4932 C   0  0  0  0  0  0  0  0  0  0  0  0
    8.0865  -13.9890   20.3033 C   0  0  0  0  0  0  0  0  0  0  0  0
    8.4059  -14.3841   21.6712 C   0  0  0  0  0  0  0  0  0  0  0  0
    9.6555  -15.1719   21.8393 C   0  0  2  0  0  0  0  0  0  0  0  0
    9.6010  -16.4592   21.1713 N   0  0  0  0  0  0  0  0  0  0  0  0
   10.0945  -15.3764   23.2392 C   0  0  0  0  0  0  0  0  0  0  0  0
   10.9184  -14.5556   23.7769 O   0  0  0  0  0  0  0  0  0  0  0  0
    8.5513  -12.8038   19.7897 C   0  0  0  0  0  0  0  0  0  0  0  0
    8.2592  -12.4063   18.4815 C   0  0  0  0  0  0  0  0  0  0  0  0
    9.6573  -16.4459   24.0626 N   0  0  0  0  0  0  0  0  0  0  0  0
   10.0431  -16.5587   25.4758 C   0  0  1  0  0  0  0  0  0  0  0  0
    9.7575  -15.2851   26.1939 C   0  0  0  0  0  0  0  0  0  0  0  0
    8.3262  -14.9452   26.1535 C   0  0  0  0  0  0  0  0  0  0  0  0
    7.2718  -15.7972   25.8260 C   0  0  0  0  0  0  0  0  0  0  0  0
    6.1267  -15.1087   25.8665 N   0  0  0  0  0  0  0  0  0  0  0  0
    6.3811  -13.8276   26.2105 C   0  0  0  0  0  0  0  0  0  0  0  0
    5.5580  -12.7259   26.4057 C   0  0  0  0  0  0  0  0  0  0  0  0
    6.0384  -11.4925   26.7818 C   0  0  0  0  0  0  0  0  0  0  0  0
    7.4025  -11.3960   26.9603 C   0  0  0  0  0  0  0  0  0  0  0  0
    8.2404  -12.4658   26.7742 C   0  0  0  0  0  0  0  0  0  0  0  0
    7.7263  -13.7055   26.3919 C   0  0  0  0  0  0  0  0  0  0  0  0
    9.5981  -17.7903   26.1103 C   0  0  0  0  0  0  0  0  0  0  0  0
    9.8387  -18.0817   27.3198 O   0  0  0  0  0  0  0  0  0  0  0  0
    8.8533  -18.7801   25.4370 O   0  0  0  0  0  0  0  0  0  0  0  0
  2  1  1  6
  3  2  1  0
  3  4  1  0
  4  8  1  0
  5  4  2  0
  6  2  1  0
  6  7  2  0
  9 10  1  0
 10 11  2  0
 11 12  1  0
 13 12  2  0
 13 14  1  0
 15 14  1  1
 15 16  1  0
 15 17  1  0
 16  6  1  0
 17 21  1  0
 18 17  2  0
 19 13  1  0
 20 10  1  0
 20 19  2  0
 21 22  1  0
 22 33  1  0
 22 23  1  1
 24 23  1  0
 24 32  1  0
 25 26  1  0
 25 24  2  0
 26 27  1  0
 27 32  2  0
 27 28  1  0
 28 29  2  0
 29 30  1  0
 31 30  2  0
 32 31  1  0
 33 34  2  0
 33 35  1  0
M  END
$$$$
