DYW.pdb
     RDKit          3D

 35 37  0  0  1  0  0  0  0  0999 V2000
    9.5680  -18.7640   19.2259 N   0  0  0  0  0  0  0  0  0  0  0  0
    9.3478  -18.7185   20.6369 C   0  0  1  0  0  0  0  0  0  0  0  0
    9.9893  -19.8647   21.3890 C   0  0  0  0  0  0  0  0  0  0  0  0
    9.4038  -21.1747   21.0467 C   0  0  0  0  0  0  0  0  0  0  0  0
    8.7763  -21.3228   19.9533 O   0  0  0  0  0  0  0  0  0  0  0  0
    9.8053  -17.4005   21.1875 C   0  0  0  0  0  0  0  0  0  0  0  0
   10.9361  -16.9569   20.8853 O   0  0  0  0  0  0  0  0  0  0  0  0
    9.5424  -22.2405   21.9238 O   0  0  0  0  0  0  0  0  0  0  0  0
    7.2907  -13.2792   16.8797 O   0  0  0  0  0  0  0  0  0  0  0  0
    7.6234  -13.5085   18.2073 C   0  0  0  0  0  0  0  0  0  0  0  0
    8.9015  -13.3802   18.7090 C   0  0  0  0  0  0  0  0  0  0  0  0
    9.1766  -13.6256   20.0597 C   0  0  0  0  0  0  0  0  0  0  0  0
    8.1581  -14.0053   20.9226 C   0  0  0  0  0  0  0  0  0  0  0  0
    8.4324  -14.2618   22.3327 C   0  0  0  0  0  0  0  0  0  0  0  0
    9.4025  -15.3530   22.6124 C   0  0  2  0  0  0  0  0  0  0  0  0
    8.9910  -16.6267   22.0512 N   0  0  0  0  0  0  0  0  0  0  0  0
    9.7469  -15.5471   24.0400 C   0  0  0  0  0  0  0  0  0  0  0  0
   10.4574  -14.6728   24.6504 O   0  0  0  0  0  0  0  0  0  0  0  0
    6.8863  -14.1325   20.4218 C   0  0  0  0  0  0  0  0  0  0  0  0
    6.6003  -13.8899   19.0749 C   0  0  0  0  0  0  0  0  0  0  0  0
    9.3351  -16.6626   24.8138 N   0  0  0  0  0  0  0  0  0  0  0  0
    9.7419  -16.8413   26.2143 C   0  0  1  0  0  0  0  0  0  0  0  0
    8.5539  -16.7768   27.1110 C   0  0  0  0  0  0  0  0  0  0  0  0
    7.5722  -15.7844   26.6453 C   0  0  0  0  0  0  0  0  0  0  0  0
    6.3981  -16.0364   25.9359 C   0  0  0  0  0  0  0  0  0  0  0  0
    5.7954  -14.8747   25.6642 N   0  0  0  0  0  0  0  0  0  0  0  0
    6.5263  -13.8570   26.1686 C   0  0  0  0  0  0  0  0  0  0  0  0
    6.3404  -12.4805   26.1770 C   0  0  0  0  0  0  0  0  0  0  0  0
    7.2213  -11.6120   26.7797 C   0  0  0  0  0  0  0  0  0  0  0  0
    8.3207  -12.1804   27.3882 C   0  0  0  0  0  0  0  0  0  0  0  0
    8.5315  -13.5357   27.3955 C   0  0  0  0  0  0  0  0  0  0  0  0
    7.6221  -14.3937   26.7758 C   0  0  0  0  0  0  0  0  0  0  0  0
   10.6683  -17.9442   26.4214 C   0  0  0  0  0  0  0  0  0  0  0  0
   11.1796  -18.2276   27.5457 O   0  0  0  0  0  0  0  0  0  0  0  0
   11.0859  -18.8062   25.3869 O   0  0  0  0  0  0  0  0  0  0  0  0
  2  1  1  6
  3  2  1  0
  3  4  1  0
  4  8  1  0
  5  4  2  0
  6  2  1  0
  6  7  2  0
  9 10  1  0
 10 11  2  0
 11 12  1  0
 13 12  2  0
 13 14  1  0
 15 14  1  1
 15 16  1  0
 15 17  1  0
 16  6  1  0
 17 21  1  0
 18 17  2  0
 19 13  1  0
 20 10  1  0
 20 19  2  0
 21 22  1  0
 22 33  1  0
 22 23  1  1
 24 23  1  0
 24 32  1  0
 25 26  1  0
 25 24  2  0
 26 27  1  0
 27 32  2  0
 27 28  1  0
 28 29  2  0
 29 30  1  0
 31 30  2  0
 32 31  1  0
 33 34  2  0
 33 35  1  0
M  END
$$$$
