DYW.pdb
     RDKit          3D

 35 37  0  0  1  0  0  0  0  0999 V2000
    9.2764  -20.8601   21.9430 N   0  0  0  0  0  0  0  0  0  0  0  0
   10.1494  -20.7124   20.8215 C   0  0  1  0  0  0  0  0  0  0  0  0
    9.7524  -21.5539   19.6277 C   0  0  0  0  0  0  0  0  0  0  0  0
    9.3765  -22.9319   19.9966 C   0  0  0  0  0  0  0  0  0  0  0  0
    9.3217  -23.8344   19.1056 O   0  0  0  0  0  0  0  0  0  0  0  0
   10.2565  -19.2661   20.4391 C   0  0  0  0  0  0  0  0  0  0  0  0
   11.1386  -18.8983   19.6306 O   0  0  0  0  0  0  0  0  0  0  0  0
    9.0842  -23.2349   21.3183 O   0  0  0  0  0  0  0  0  0  0  0  0
    8.1642  -10.7470   19.1135 O   0  0  0  0  0  0  0  0  0  0  0  0
    8.1942  -12.1135   19.3529 C   0  0  0  0  0  0  0  0  0  0  0  0
    8.8716  -13.0147   18.5587 C   0  0  0  0  0  0  0  0  0  0  0  0
    8.8653  -14.3840   18.8508 C   0  0  0  0  0  0  0  0  0  0  0  0
    8.1709  -14.8601   19.9540 C   0  0  0  0  0  0  0  0  0  0  0  0
    8.1587  -16.2847   20.2696 C   0  0  0  0  0  0  0  0  0  0  0  0
    9.4717  -16.8730   20.6442 C   0  0  2  0  0  0  0  0  0  0  0  0
    9.3816  -18.2849   20.9681 N   0  0  0  0  0  0  0  0  0  0  0  0
   10.1927  -16.1762   21.7345 C   0  0  0  0  0  0  0  0  0  0  0  0
   10.6999  -15.0180   21.5270 O   0  0  0  0  0  0  0  0  0  0  0  0
    7.4971  -13.9618   20.7438 C   0  0  0  0  0  0  0  0  0  0  0  0
    7.4967  -12.5924   20.4614 C   0  0  0  0  0  0  0  0  0  0  0  0
   10.3700  -16.7070   23.0382 N   0  0  0  0  0  0  0  0  0  0  0  0
    9.6259  -16.2026   24.2005 C   0  0  1  0  0  0  0  0  0  0  0  0
    8.2613  -15.7661   23.7922 C   0  0  0  0  0  0  0  0  0  0  0  0
    7.5139  -15.1864   24.9196 C   0  0  0  0  0  0  0  0  0  0  0  0
    6.6927  -15.8666   25.8185 C   0  0  0  0  0  0  0  0  0  0  0  0
    6.1627  -14.9880   26.6751 N   0  0  0  0  0  0  0  0  0  0  0  0
    6.6027  -13.7459   26.3792 C   0  0  0  0  0  0  0  0  0  0  0  0
    6.3725  -12.5046   26.9586 C   0  0  0  0  0  0  0  0  0  0  0  0
    6.9529  -11.3458   26.4960 C   0  0  0  0  0  0  0  0  0  0  0  0
    7.7913  -11.4736   25.4084 C   0  0  0  0  0  0  0  0  0  0  0  0
    8.0371  -12.6854   24.8149 C   0  0  0  0  0  0  0  0  0  0  0  0
    7.4344  -13.8450   25.3041 C   0  0  0  0  0  0  0  0  0  0  0  0
    9.7241  -17.0543   25.3763 C   0  0  0  0  0  0  0  0  0  0  0  0
    9.2413  -16.7461   26.5066 O   0  0  0  0  0  0  0  0  0  0  0  0
   10.3677  -18.3087   25.3693 O   0  0  0  0  0  0  0  0  0  0  0  0
  2  1  1  1
  3  2  1  0
  3  4  1  0
  4  8  1  0
  5  4  2  0
  6  2  1  0
  6  7  2  0
  9 10  1  0
 10 11  2  0
 11 12  1  0
 13 12  2  0
 13 14  1  0
 15 14  1  1
 15 16  1  0
 15 17  1  0
 16  6  1  0
 17 21  1  0
 18 17  2  0
 19 13  1  0
 20 10  1  0
 20 19  2  0
 21 22  1  0
 22 33  1  0
 22 23  1  6
 24 23  1  0
 24 32  1  0
 25 26  1  0
 25 24  2  0
 26 27  1  0
 27 32  2  0
 27 28  1  0
 28 29  2  0
 29 30  1  0
 31 30  2  0
 32 31  1  0
 33 34  2  0
 33 35  1  0
M  END
$$$$
