DYW.pdb
     RDKit          3D

 35 37  0  0  1  0  0  0  0  0999 V2000
   10.1025  -18.2853   19.9033 N   0  0  0  0  0  0  0  0  0  0  0  0
   11.2115  -17.6513   20.5435 C   0  0  1  0  0  0  0  0  0  0  0  0
   12.3539  -17.3316   19.6035 C   0  0  0  0  0  0  0  0  0  0  0  0
   12.7496  -18.4820   18.7692 C   0  0  0  0  0  0  0  0  0  0  0  0
   13.4836  -18.3030   17.7491 O   0  0  0  0  0  0  0  0  0  0  0  0
   10.7546  -16.4167   21.2623 C   0  0  0  0  0  0  0  0  0  0  0  0
   11.4948  -15.4081   21.3024 O   0  0  0  0  0  0  0  0  0  0  0  0
   12.3164  -19.7564   19.1045 O   0  0  0  0  0  0  0  0  0  0  0  0
    7.8043  -13.2940   16.5157 O   0  0  0  0  0  0  0  0  0  0  0  0
    7.8015  -13.5843   17.8727 C   0  0  0  0  0  0  0  0  0  0  0  0
    8.2193  -12.7003   18.8452 C   0  0  0  0  0  0  0  0  0  0  0  0
    8.1936  -13.0505   20.2005 C   0  0  0  0  0  0  0  0  0  0  0  0
    7.7431  -14.3040   20.5901 C   0  0  0  0  0  0  0  0  0  0  0  0
    7.7098  -14.6795   21.9998 C   0  0  0  0  0  0  0  0  0  0  0  0
    8.9969  -15.1575   22.5699 C   0  0  2  0  0  0  0  0  0  0  0  0
    9.4951  -16.3493   21.9082 N   0  0  0  0  0  0  0  0  0  0  0  0
    8.9980  -15.3859   24.0335 C   0  0  0  0  0  0  0  0  0  0  0  0
    8.2611  -14.6640   24.7934 O   0  0  0  0  0  0  0  0  0  0  0  0
    7.3273  -15.1829   19.6210 C   0  0  0  0  0  0  0  0  0  0  0  0
    7.3487  -14.8437   18.2647 C   0  0  0  0  0  0  0  0  0  0  0  0
    9.7759  -16.3783   24.6839 N   0  0  0  0  0  0  0  0  0  0  0  0
    9.8307  -16.5006   26.1470 C   0  0  1  0  0  0  0  0  0  0  0  0
    8.4617  -16.6930   26.7022 C   0  0  0  0  0  0  0  0  0  0  0  0
    7.5745  -15.5673   26.3685 C   0  0  0  0  0  0  0  0  0  0  0  0
    6.3729  -15.6283   25.6631 C   0  0  0  0  0  0  0  0  0  0  0  0
    5.8817  -14.3921   25.5317 N   0  0  0  0  0  0  0  0  0  0  0  0
    6.7135  -13.5093   26.1257 C   0  0  0  0  0  0  0  0  0  0  0  0
    6.6614  -12.1305   26.2863 C   0  0  0  0  0  0  0  0  0  0  0  0
    7.6294  -11.4202   26.9585 C   0  0  0  0  0  0  0  0  0  0  0  0
    8.6763  -12.1531   27.4772 C   0  0  0  0  0  0  0  0  0  0  0  0
    8.7554  -13.5148   27.3340 C   0  0  0  0  0  0  0  0  0  0  0  0
    7.7599  -14.2102   26.6465 C   0  0  0  0  0  0  0  0  0  0  0  0
   10.8704  -17.4004   26.6234 C   0  0  0  0  0  0  0  0  0  0  0  0
   11.0274  -17.7059   27.8431 O   0  0  0  0  0  0  0  0  0  0  0  0
   11.8052  -18.0207   25.7695 O   0  0  0  0  0  0  0  0  0  0  0  0
  2  1  1  6
  3  2  1  0
  3  4  1  0
  4  8  1  0
  5  4  2  0
  6  2  1  0
  6  7  2  0
  9 10  1  0
 10 11  2  0
 11 12  1  0
 13 12  2  0
 13 14  1  0
 15 14  1  6
 15 16  1  0
 15 17  1  0
 16  6  1  0
 17 21  1  0
 18 17  2  0
 19 13  1  0
 20 10  1  0
 20 19  2  0
 21 22  1  0
 22 33  1  0
 22 23  1  6
 24 23  1  0
 24 32  1  0
 25 26  1  0
 25 24  2  0
 26 27  1  0
 27 32  2  0
 27 28  1  0
 28 29  2  0
 29 30  1  0
 31 30  2  0
 32 31  1  0
 33 34  2  0
 33 35  1  0
M  END
$$$$
