DYW.pdb
     RDKit          3D

 35 37  0  0  1  0  0  0  0  0999 V2000
    7.6231  -20.6829   20.5401 N   0  0  0  0  0  0  0  0  0  0  0  0
    8.6252  -19.8865   19.9052 C   0  0  1  0  0  0  0  0  0  0  0  0
    8.6227  -19.9973   18.3956 C   0  0  0  0  0  0  0  0  0  0  0  0
    9.1269  -21.2976   17.9149 C   0  0  0  0  0  0  0  0  0  0  0  0
    9.5052  -22.1782   18.7472 O   0  0  0  0  0  0  0  0  0  0  0  0
    8.4927  -18.4549   20.3324 C   0  0  0  0  0  0  0  0  0  0  0  0
    9.2501  -17.5858   19.8447 O   0  0  0  0  0  0  0  0  0  0  0  0
    9.1850  -21.5518   16.5524 O   0  0  0  0  0  0  0  0  0  0  0  0
    1.9536  -19.8952   20.1329 O   0  0  0  0  0  0  0  0  0  0  0  0
    2.9321  -19.0138   20.5704 C   0  0  0  0  0  0  0  0  0  0  0  0
    3.5329  -18.0738   19.7598 C   0  0  0  0  0  0  0  0  0  0  0  0
    4.5160  -17.2106   20.2587 C   0  0  0  0  0  0  0  0  0  0  0  0
    4.9047  -17.2883   21.5886 C   0  0  0  0  0  0  0  0  0  0  0  0
    5.9267  -16.3926   22.1203 C   0  0  0  0  0  0  0  0  0  0  0  0
    7.3169  -16.6594   21.6659 C   0  0  2  0  0  0  0  0  0  0  0  0
    7.5259  -18.0437   21.2832 N   0  0  0  0  0  0  0  0  0  0  0  0
    8.3832  -16.2575   22.6123 C   0  0  0  0  0  0  0  0  0  0  0  0
    9.1028  -15.2269   22.3640 O   0  0  0  0  0  0  0  0  0  0  0  0
    4.3057  -18.2244   22.3944 C   0  0  0  0  0  0  0  0  0  0  0  0
    3.3230  -19.0913   21.9068 C   0  0  0  0  0  0  0  0  0  0  0  0
    8.6797  -16.9460   23.8168 N   0  0  0  0  0  0  0  0  0  0  0  0
    9.7866  -16.5489   24.6976 C   0  0  1  0  0  0  0  0  0  0  0  0
    9.7175  -15.0898   24.9905 C   0  0  0  0  0  0  0  0  0  0  0  0
    8.4477  -14.7229   25.6375 C   0  0  0  0  0  0  0  0  0  0  0  0
    7.3765  -15.5698   25.9209 C   0  0  0  0  0  0  0  0  0  0  0  0
    6.3924  -14.8563   26.4770 N   0  0  0  0  0  0  0  0  0  0  0  0
    6.7707  -13.5635   26.5751 C   0  0  0  0  0  0  0  0  0  0  0  0
    6.1390  -12.4355   27.0832 C   0  0  0  0  0  0  0  0  0  0  0  0
    6.7304  -11.1931   27.1010 C   0  0  0  0  0  0  0  0  0  0  0  0
    8.0054  -11.1153   26.5810 C   0  0  0  0  0  0  0  0  0  0  0  0
    8.6541  -12.2112   26.0717 C   0  0  0  0  0  0  0  0  0  0  0  0
    8.0304  -13.4595   26.0654 C   0  0  0  0  0  0  0  0  0  0  0  0
    9.9877  -17.4421   25.8286 C   0  0  0  0  0  0  0  0  0  0  0  0
   10.9028  -17.2852   26.6909 O   0  0  0  0  0  0  0  0  0  0  0  0
    9.1797  -18.5711   26.0738 O   0  0  0  0  0  0  0  0  0  0  0  0
  2  1  1  1
  3  2  1  0
  3  4  1  0
  4  8  1  0
  5  4  2  0
  6  2  1  0
  6  7  2  0
  9 10  1  0
 10 11  2  0
 11 12  1  0
 13 12  2  0
 13 14  1  0
 15 14  1  1
 15 16  1  0
 15 17  1  0
 16  6  1  0
 17 21  1  0
 18 17  2  0
 19 13  1  0
 20 10  1  0
 20 19  2  0
 21 22  1  0
 22 33  1  0
 22 23  1  1
 24 23  1  0
 24 32  1  0
 25 26  1  0
 25 24  2  0
 26 27  1  0
 27 32  2  0
 27 28  1  0
 28 29  2  0
 29 30  1  0
 31 30  2  0
 32 31  1  0
 33 34  2  0
 33 35  1  0
M  END
$$$$
