DYW.pdb
     RDKit          3D

 35 37  0  0  1  0  0  0  0  0999 V2000
    9.4375  -18.8936   20.2887 N   0  0  0  0  0  0  0  0  0  0  0  0
   10.4224  -18.0691   19.6628 C   0  0  1  0  0  0  0  0  0  0  0  0
   10.0893  -17.7048   18.2319 C   0  0  0  0  0  0  0  0  0  0  0  0
   10.5165  -18.7325   17.2638 C   0  0  0  0  0  0  0  0  0  0  0  0
   11.0420  -19.8122   17.6754 O   0  0  0  0  0  0  0  0  0  0  0  0
   10.6587  -16.8358   20.4830 C   0  0  0  0  0  0  0  0  0  0  0  0
   11.6667  -16.1260   20.2661 O   0  0  0  0  0  0  0  0  0  0  0  0
   10.3412  -18.5131   15.9053 O   0  0  0  0  0  0  0  0  0  0  0  0
    6.8293  -12.9410   17.0268 O   0  0  0  0  0  0  0  0  0  0  0  0
    7.3078  -13.2489   18.2924 C   0  0  0  0  0  0  0  0  0  0  0  0
    8.2541  -12.4971   18.9565 C   0  0  0  0  0  0  0  0  0  0  0  0
    8.6991  -12.8584   20.2339 C   0  0  0  0  0  0  0  0  0  0  0  0
    8.1901  -13.9889   20.8575 C   0  0  0  0  0  0  0  0  0  0  0  0
    8.6447  -14.3741   22.1895 C   0  0  0  0  0  0  0  0  0  0  0  0
    9.8887  -15.1868   22.2359 C   0  0  2  0  0  0  0  0  0  0  0  0
    9.7683  -16.4385   21.5112 N   0  0  0  0  0  0  0  0  0  0  0  0
   10.4150  -15.4667   23.5919 C   0  0  0  0  0  0  0  0  0  0  0  0
   10.7567  -14.4977   24.3573 O   0  0  0  0  0  0  0  0  0  0  0  0
    7.2480  -14.7362   20.1954 C   0  0  0  0  0  0  0  0  0  0  0  0
    6.7966  -14.3847   18.9196 C   0  0  0  0  0  0  0  0  0  0  0  0
   10.5737  -16.7694   24.1311 N   0  0  0  0  0  0  0  0  0  0  0  0
   10.0196  -17.1529   25.4367 C   0  0  1  0  0  0  0  0  0  0  0  0
    8.5925  -16.7369   25.5361 C   0  0  0  0  0  0  0  0  0  0  0  0
    8.4124  -15.6281   26.4868 C   0  0  0  0  0  0  0  0  0  0  0  0
    8.8151  -15.5954   27.8216 C   0  0  0  0  0  0  0  0  0  0  0  0
    8.4398  -14.4316   28.3615 N   0  0  0  0  0  0  0  0  0  0  0  0
    7.8018  -13.6870   27.4328 C   0  0  0  0  0  0  0  0  0  0  0  0
    7.2388  -12.4177   27.4706 C   0  0  0  0  0  0  0  0  0  0  0  0
    6.6438  -11.8321   26.3768 C   0  0  0  0  0  0  0  0  0  0  0  0
    6.6305  -12.5768   25.2161 C   0  0  0  0  0  0  0  0  0  0  0  0
    7.1774  -13.8328   25.1484 C   0  0  0  0  0  0  0  0  0  0  0  0
    7.7741  -14.4032   26.2736 C   0  0  0  0  0  0  0  0  0  0  0  0
   10.3410  -18.5151   25.8348 C   0  0  0  0  0  0  0  0  0  0  0  0
   10.3339  -18.9134   27.0377 O   0  0  0  0  0  0  0  0  0  0  0  0
   10.6916  -19.5254   24.9161 O   0  0  0  0  0  0  0  0  0  0  0  0
  2  1  1  1
  3  2  1  0
  3  4  1  0
  4  8  1  0
  5  4  2  0
  6  2  1  0
  6  7  2  0
  9 10  1  0
 10 11  2  0
 11 12  1  0
 13 12  2  0
 13 14  1  0
 15 14  1  1
 15 16  1  0
 15 17  1  0
 16  6  1  0
 17 21  1  0
 18 17  2  0
 19 13  1  0
 20 10  1  0
 20 19  2  0
 21 22  1  0
 22 33  1  0
 22 23  1  6
 24 23  1  0
 24 32  1  0
 25 26  1  0
 25 24  2  0
 26 27  1  0
 27 32  2  0
 27 28  1  0
 28 29  2  0
 29 30  1  0
 31 30  2  0
 32 31  1  0
 33 34  2  0
 33 35  1  0
M  END
$$$$
