DYW.pdb
     RDKit          3D

 35 37  0  0  1  0  0  0  0  0999 V2000
   11.8162  -16.8711   15.5212 N   0  0  0  0  0  0  0  0  0  0  0  0
   10.6401  -16.8654   16.3325 C   0  0  1  0  0  0  0  0  0  0  0  0
    9.4502  -17.5377   15.6819 C   0  0  0  0  0  0  0  0  0  0  0  0
    9.1523  -17.0033   14.3396 C   0  0  0  0  0  0  0  0  0  0  0  0
   10.0258  -16.3218   13.7200 O   0  0  0  0  0  0  0  0  0  0  0  0
   10.9327  -17.4814   17.6683 C   0  0  0  0  0  0  0  0  0  0  0  0
   10.2160  -18.4147   18.0954 O   0  0  0  0  0  0  0  0  0  0  0  0
    7.9161  -17.2490   13.7601 O   0  0  0  0  0  0  0  0  0  0  0  0
   16.0285  -21.9785   16.8444 O   0  0  0  0  0  0  0  0  0  0  0  0
   15.4593  -21.0010   17.6482 C   0  0  0  0  0  0  0  0  0  0  0  0
   14.8346  -21.2657   18.8487 C   0  0  0  0  0  0  0  0  0  0  0  0
   14.2777  -20.2362   19.6171 C   0  0  0  0  0  0  0  0  0  0  0  0
   14.3464  -18.9214   19.1786 C   0  0  0  0  0  0  0  0  0  0  0  0
   13.7715  -17.8398   19.9718 C   0  0  0  0  0  0  0  0  0  0  0  0
   12.3167  -17.6023   19.7790 C   0  0  2  0  0  0  0  0  0  0  0  0
   12.0081  -17.0384   18.4777 N   0  0  0  0  0  0  0  0  0  0  0  0
   11.6625  -16.7816   20.8243 C   0  0  0  0  0  0  0  0  0  0  0  0
   11.8733  -15.5186   20.8701 O   0  0  0  0  0  0  0  0  0  0  0  0
   14.9688  -18.6592   17.9834 C   0  0  0  0  0  0  0  0  0  0  0  0
   15.5282  -19.6794   17.2081 C   0  0  0  0  0  0  0  0  0  0  0  0
   10.7871  -17.3011   21.8126 N   0  0  0  0  0  0  0  0  0  0  0  0
   10.2132  -16.4626   22.8738 C   0  0  1  0  0  0  0  0  0  0  0  0
    8.7250  -16.5074   22.8215 C   0  0  0  0  0  0  0  0  0  0  0  0
    8.2039  -15.8982   21.5874 C   0  0  0  0  0  0  0  0  0  0  0  0
    7.7536  -16.5660   20.4488 C   0  0  0  0  0  0  0  0  0  0  0  0
    7.3953  -15.6652   19.5285 N   0  0  0  0  0  0  0  0  0  0  0  0
    7.5902  -14.4202   20.0143 C   0  0  0  0  0  0  0  0  0  0  0  0
    7.3674  -13.1575   19.4800 C   0  0  0  0  0  0  0  0  0  0  0  0
    7.6248  -11.9973   20.1738 C   0  0  0  0  0  0  0  0  0  0  0  0
    8.1245  -12.1464   21.4506 C   0  0  0  0  0  0  0  0  0  0  0  0
    8.3555  -13.3797   22.0045 C   0  0  0  0  0  0  0  0  0  0  0  0
    8.0863  -14.5403   21.2780 C   0  0  0  0  0  0  0  0  0  0  0  0
   10.8356  -16.6533   24.1753 C   0  0  0  0  0  0  0  0  0  0  0  0
   11.5917  -17.6313   24.4534 O   0  0  0  0  0  0  0  0  0  0  0  0
   10.6564  -15.7639   25.2544 O   0  0  0  0  0  0  0  0  0  0  0  0
  2  1  1  6
  3  2  1  0
  3  4  1  0
  4  8  1  0
  5  4  2  0
  6  2  1  0
  6  7  2  0
  9 10  1  0
 10 11  2  0
 11 12  1  0
 13 12  2  0
 13 14  1  0
 15 14  1  1
 15 16  1  0
 15 17  1  0
 16  6  1  0
 17 21  1  0
 18 17  2  0
 19 13  1  0
 20 10  1  0
 20 19  2  0
 21 22  1  0
 22 33  1  0
 22 23  1  1
 24 23  1  0
 24 32  1  0
 25 26  1  0
 25 24  2  0
 26 27  1  0
 27 32  2  0
 27 28  1  0
 28 29  2  0
 29 30  1  0
 31 30  2  0
 32 31  1  0
 33 34  2  0
 33 35  1  0
M  END
$$$$
