DYW.pdb
     RDKit          3D

 35 37  0  0  1  0  0  0  0  0999 V2000
    9.3066  -18.9430   20.0985 N   0  0  0  0  0  0  0  0  0  0  0  0
   10.5092  -18.2200   19.8293 C   0  0  1  0  0  0  0  0  0  0  0  0
   10.7063  -17.8926   18.3647 C   0  0  0  0  0  0  0  0  0  0  0  0
   11.2903  -19.0109   17.6003 C   0  0  0  0  0  0  0  0  0  0  0  0
   11.4598  -20.1393   18.1567 O   0  0  0  0  0  0  0  0  0  0  0  0
   10.5588  -16.9740   20.6628 C   0  0  0  0  0  0  0  0  0  0  0  0
   11.5718  -16.2396   20.6273 O   0  0  0  0  0  0  0  0  0  0  0  0
   11.6521  -18.8232   16.2744 O   0  0  0  0  0  0  0  0  0  0  0  0
    6.7842  -13.1523   16.8190 O   0  0  0  0  0  0  0  0  0  0  0  0
    7.0953  -13.5583   18.1090 C   0  0  0  0  0  0  0  0  0  0  0  0
    6.6690  -14.7482   18.6604 C   0  0  0  0  0  0  0  0  0  0  0  0
    7.0152  -15.1041   19.9695 C   0  0  0  0  0  0  0  0  0  0  0  0
    7.7999  -14.2573   20.7396 C   0  0  0  0  0  0  0  0  0  0  0  0
    8.1688  -14.6184   22.1045 C   0  0  0  0  0  0  0  0  0  0  0  0
    9.4549  -15.3494   22.2525 C   0  0  2  0  0  0  0  0  0  0  0  0
    9.4833  -16.5917   21.5025 N   0  0  0  0  0  0  0  0  0  0  0  0
    9.8748  -15.6215   23.6467 C   0  0  0  0  0  0  0  0  0  0  0  0
   10.6869  -14.8250   24.2364 O   0  0  0  0  0  0  0  0  0  0  0  0
    8.2237  -13.0731   20.1894 C   0  0  0  0  0  0  0  0  0  0  0  0
    7.8839  -12.7078   18.8833 C   0  0  0  0  0  0  0  0  0  0  0  0
    9.4308  -16.7322   24.4096 N   0  0  0  0  0  0  0  0  0  0  0  0
    9.8878  -16.9748   25.7847 C   0  0  1  0  0  0  0  0  0  0  0  0
    9.8141  -15.7198   26.5840 C   0  0  0  0  0  0  0  0  0  0  0  0
    8.4613  -15.1407   26.5666 C   0  0  0  0  0  0  0  0  0  0  0  0
    7.2610  -15.8217   26.3655 C   0  0  0  0  0  0  0  0  0  0  0  0
    6.2535  -14.9433   26.3832 N   0  0  0  0  0  0  0  0  0  0  0  0
    6.7404  -13.7006   26.5900 C   0  0  0  0  0  0  0  0  0  0  0  0
    6.1284  -12.4593   26.7085 C   0  0  0  0  0  0  0  0  0  0  0  0
    6.8314  -11.2999   26.9430 C   0  0  0  0  0  0  0  0  0  0  0  0
    8.1998  -11.4270   27.0577 C   0  0  0  0  0  0  0  0  0  0  0  0
    8.8323  -12.6388   26.9446 C   0  0  0  0  0  0  0  0  0  0  0  0
    8.0947  -13.7991   26.7058 C   0  0  0  0  0  0  0  0  0  0  0  0
    9.3297  -18.1764   26.3865 C   0  0  0  0  0  0  0  0  0  0  0  0
    9.5960  -18.5580   27.5652 O   0  0  0  0  0  0  0  0  0  0  0  0
    8.4354  -19.0333   25.7129 O   0  0  0  0  0  0  0  0  0  0  0  0
  2  1  1  6
  3  2  1  0
  3  4  1  0
  4  8  1  0
  5  4  2  0
  6  2  1  0
  6  7  2  0
  9 10  1  0
 10 11  2  0
 11 12  1  0
 13 12  2  0
 13 14  1  0
 15 14  1  1
 15 16  1  0
 15 17  1  0
 16  6  1  0
 17 21  1  0
 18 17  2  0
 19 13  1  0
 20 10  1  0
 20 19  2  0
 21 22  1  0
 22 33  1  0
 22 23  1  1
 24 23  1  0
 24 32  1  0
 25 26  1  0
 25 24  2  0
 26 27  1  0
 27 32  2  0
 27 28  1  0
 28 29  2  0
 29 30  1  0
 31 30  2  0
 32 31  1  0
 33 34  2  0
 33 35  1  0
M  END
$$$$
