DYW.pdb
     RDKit          3D

 35 37  0  0  1  0  0  0  0  0999 V2000
    7.3816  -20.4279   20.8447 N   0  0  0  0  0  0  0  0  0  0  0  0
    8.7098  -20.1200   21.2718 C   0  0  1  0  0  0  0  0  0  0  0  0
    9.7852  -20.7658   20.4247 C   0  0  0  0  0  0  0  0  0  0  0  0
    9.2727  -21.8679   19.5889 C   0  0  0  0  0  0  0  0  0  0  0  0
    8.0866  -22.2895   19.7528 O   0  0  0  0  0  0  0  0  0  0  0  0
    8.9010  -18.6335   21.3294 C   0  0  0  0  0  0  0  0  0  0  0  0
    9.8649  -18.1048   20.7307 O   0  0  0  0  0  0  0  0  0  0  0  0
   10.0915  -22.4392   18.6259 O   0  0  0  0  0  0  0  0  0  0  0  0
    8.1838  -11.6581   17.7133 O   0  0  0  0  0  0  0  0  0  0  0  0
    7.8997  -12.5914   18.7001 C   0  0  0  0  0  0  0  0  0  0  0  0
    7.8723  -12.2966   20.0470 C   0  0  0  0  0  0  0  0  0  0  0  0
    7.5792  -13.2820   20.9975 C   0  0  0  0  0  0  0  0  0  0  0  0
    7.3090  -14.5825   20.5955 C   0  0  0  0  0  0  0  0  0  0  0  0
    7.0001  -15.6174   21.5768 C   0  0  0  0  0  0  0  0  0  0  0  0
    8.1692  -16.3511   22.1292 C   0  0  2  0  0  0  0  0  0  0  0  0
    8.0162  -17.7921   22.0484 N   0  0  0  0  0  0  0  0  0  0  0  0
    8.5524  -15.9866   23.5129 C   0  0  0  0  0  0  0  0  0  0  0  0
    7.7894  -15.2278   24.2084 O   0  0  0  0  0  0  0  0  0  0  0  0
    7.3364  -14.8745   19.2544 C   0  0  0  0  0  0  0  0  0  0  0  0
    7.6280  -13.8984   18.2967 C   0  0  0  0  0  0  0  0  0  0  0  0
    9.7384  -16.4294   24.1534 N   0  0  0  0  0  0  0  0  0  0  0  0
   10.0924  -16.0233   25.5203 C   0  0  1  0  0  0  0  0  0  0  0  0
    8.9888  -16.3598   26.4629 C   0  0  0  0  0  0  0  0  0  0  0  0
    7.7859  -15.5524   26.2048 C   0  0  0  0  0  0  0  0  0  0  0  0
    6.6045  -15.9792   25.5987 C   0  0  0  0  0  0  0  0  0  0  0  0
    5.7619  -14.9453   25.5106 N   0  0  0  0  0  0  0  0  0  0  0  0
    6.3399  -13.8444   26.0377 C   0  0  0  0  0  0  0  0  0  0  0  0
    5.8961  -12.5389   26.2055 C   0  0  0  0  0  0  0  0  0  0  0  0
    6.6608  -11.5610   26.7991 C   0  0  0  0  0  0  0  0  0  0  0  0
    7.9144  -11.9421   27.2295 C   0  0  0  0  0  0  0  0  0  0  0  0
    8.3803  -13.2230   27.0770 C   0  0  0  0  0  0  0  0  0  0  0  0
    7.5838  -14.1951   26.4704 C   0  0  0  0  0  0  0  0  0  0  0  0
   11.4400  -16.4037   25.9164 C   0  0  0  0  0  0  0  0  0  0  0  0
   12.2318  -17.0541   25.1709 O   0  0  0  0  0  0  0  0  0  0  0  0
   11.9952  -16.0827   27.1720 O   0  0  0  0  0  0  0  0  0  0  0  0
  2  1  1  6
  3  2  1  0
  3  4  1  0
  4  8  1  0
  5  4  2  0
  6  2  1  0
  6  7  2  0
  9 10  1  0
 10 11  2  0
 11 12  1  0
 13 12  2  0
 13 14  1  0
 15 14  1  1
 15 16  1  0
 15 17  1  0
 16  6  1  0
 17 21  1  0
 18 17  2  0
 19 13  1  0
 20 10  1  0
 20 19  2  0
 21 22  1  0
 22 33  1  0
 22 23  1  1
 24 23  1  0
 24 32  1  0
 25 26  1  0
 25 24  2  0
 26 27  1  0
 27 32  2  0
 27 28  1  0
 28 29  2  0
 29 30  1  0
 31 30  2  0
 32 31  1  0
 33 34  2  0
 33 35  1  0
M  END
$$$$
