DYW.pdb
     RDKit          3D

 35 37  0  0  1  0  0  0  0  0999 V2000
    8.8858  -21.2439   21.4726 N   0  0  0  0  0  0  0  0  0  0  0  0
   10.2203  -20.8179   21.1912 C   0  0  1  0  0  0  0  0  0  0  0  0
   10.7675  -21.3568   19.8869 C   0  0  0  0  0  0  0  0  0  0  0  0
   11.0074  -22.8118   19.9228 C   0  0  0  0  0  0  0  0  0  0  0  0
   10.0255  -23.6160   19.9485 O   0  0  0  0  0  0  0  0  0  0  0  0
   10.3004  -19.3205   21.2218 C   0  0  0  0  0  0  0  0  0  0  0  0
   11.3869  -18.7487   20.9780 O   0  0  0  0  0  0  0  0  0  0  0  0
   12.3077  -23.2949   19.9283 O   0  0  0  0  0  0  0  0  0  0  0  0
    7.7838  -11.0241   19.6998 O   0  0  0  0  0  0  0  0  0  0  0  0
    7.7825  -12.3556   20.0908 C   0  0  0  0  0  0  0  0  0  0  0  0
    7.4329  -12.7815   21.3549 C   0  0  0  0  0  0  0  0  0  0  0  0
    7.4511  -14.1404   21.6913 C   0  0  0  0  0  0  0  0  0  0  0  0
    7.8245  -15.0887   20.7494 C   0  0  0  0  0  0  0  0  0  0  0  0
    7.8453  -16.5080   21.0878 C   0  0  0  0  0  0  0  0  0  0  0  0
    9.1772  -17.0674   21.4386 C   0  0  2  0  0  0  0  0  0  0  0  0
    9.1727  -18.5164   21.5216 N   0  0  0  0  0  0  0  0  0  0  0  0
    9.7931  -16.5188   22.6691 C   0  0  0  0  0  0  0  0  0  0  0  0
   10.5517  -15.4886   22.5993 O   0  0  0  0  0  0  0  0  0  0  0  0
    8.1721  -14.6633   19.4913 C   0  0  0  0  0  0  0  0  0  0  0  0
    8.1575  -13.3089   19.1445 C   0  0  0  0  0  0  0  0  0  0  0  0
    9.6004  -17.0611   23.9658 N   0  0  0  0  0  0  0  0  0  0  0  0
   10.2328  -16.4857   25.1607 C   0  0  1  0  0  0  0  0  0  0  0  0
    9.9105  -15.0352   25.2697 C   0  0  0  0  0  0  0  0  0  0  0  0
    8.5084  -14.8157   25.6589 C   0  0  0  0  0  0  0  0  0  0  0  0
    7.5073  -15.7809   25.7645 C   0  0  0  0  0  0  0  0  0  0  0  0
    6.3612  -15.1843   26.1069 N   0  0  0  0  0  0  0  0  0  0  0  0
    6.5637  -13.8550   26.2341 C   0  0  0  0  0  0  0  0  0  0  0  0
    5.7229  -12.8055   26.5819 C   0  0  0  0  0  0  0  0  0  0  0  0
    6.1540  -11.5017   26.6712 C   0  0  0  0  0  0  0  0  0  0  0  0
    7.4864  -11.2780   26.3943 C   0  0  0  0  0  0  0  0  0  0  0  0
    8.3404  -12.2936   26.0474 C   0  0  0  0  0  0  0  0  0  0  0  0
    7.8762  -13.6070   25.9635 C   0  0  0  0  0  0  0  0  0  0  0  0
   10.0665  -17.2924   26.3603 C   0  0  0  0  0  0  0  0  0  0  0  0
   10.5739  -16.9924   27.4820 O   0  0  0  0  0  0  0  0  0  0  0  0
    9.3213  -18.4889   26.3887 O   0  0  0  0  0  0  0  0  0  0  0  0
  2  1  1  6
  3  2  1  0
  3  4  1  0
  4  8  1  0
  5  4  2  0
  6  2  1  0
  6  7  2  0
  9 10  1  0
 10 11  2  0
 11 12  1  0
 13 12  2  0
 13 14  1  0
 15 14  1  1
 15 16  1  0
 15 17  1  0
 16  6  1  0
 17 21  1  0
 18 17  2  0
 19 13  1  0
 20 10  1  0
 20 19  2  0
 21 22  1  0
 22 33  1  0
 22 23  1  1
 24 23  1  0
 24 32  1  0
 25 26  1  0
 25 24  2  0
 26 27  1  0
 27 32  2  0
 27 28  1  0
 28 29  2  0
 29 30  1  0
 31 30  2  0
 32 31  1  0
 33 34  2  0
 33 35  1  0
M  END
$$$$
