DYW.pdb
     RDKit          3D

 35 37  0  0  1  0  0  0  0  0999 V2000
   12.2536  -16.8729   17.9571 N   0  0  0  0  0  0  0  0  0  0  0  0
   12.1085  -17.5170   19.2242 C   0  0  1  0  0  0  0  0  0  0  0  0
   13.4005  -18.0902   19.7656 C   0  0  0  0  0  0  0  0  0  0  0  0
   13.9879  -19.1155   18.8827 C   0  0  0  0  0  0  0  0  0  0  0  0
   15.1564  -18.9547   18.4136 O   0  0  0  0  0  0  0  0  0  0  0  0
   11.4905  -16.5743   20.2136 C   0  0  0  0  0  0  0  0  0  0  0  0
   12.0213  -15.4617   20.4308 O   0  0  0  0  0  0  0  0  0  0  0  0
   13.2585  -20.2529   18.5688 O   0  0  0  0  0  0  0  0  0  0  0  0
    7.3850  -12.9023   16.6962 O   0  0  0  0  0  0  0  0  0  0  0  0
    7.5810  -13.6452   17.8519 C   0  0  0  0  0  0  0  0  0  0  0  0
    7.4138  -15.0123   17.9202 C   0  0  0  0  0  0  0  0  0  0  0  0
    7.6261  -15.7082   19.1164 C   0  0  0  0  0  0  0  0  0  0  0  0
    8.0117  -15.0270   20.2623 C   0  0  0  0  0  0  0  0  0  0  0  0
    8.2379  -15.7419   21.5142 C   0  0  0  0  0  0  0  0  0  0  0  0
    9.6603  -16.0028   21.8593 C   0  0  2  0  0  0  0  0  0  0  0  0
   10.3086  -16.9025   20.9230 N   0  0  0  0  0  0  0  0  0  0  0  0
    9.9010  -16.4901   23.2373 C   0  0  0  0  0  0  0  0  0  0  0  0
   10.2544  -17.7062   23.4323 O   0  0  0  0  0  0  0  0  0  0  0  0
    8.1779  -13.6661   20.1928 C   0  0  0  0  0  0  0  0  0  0  0  0
    7.9686  -12.9611   19.0037 C   0  0  0  0  0  0  0  0  0  0  0  0
    9.7696  -15.6878   24.4000 N   0  0  0  0  0  0  0  0  0  0  0  0
    9.9845  -16.2213   25.7519 C   0  0  1  0  0  0  0  0  0  0  0  0
    9.7406  -15.1626   26.7714 C   0  0  0  0  0  0  0  0  0  0  0  0
    8.3256  -14.7607   26.8127 C   0  0  0  0  0  0  0  0  0  0  0  0
    7.2141  -15.6019   26.7669 C   0  0  0  0  0  0  0  0  0  0  0  0
    6.1036  -14.8582   26.7900 N   0  0  0  0  0  0  0  0  0  0  0  0
    6.4361  -13.5506   26.8506 C   0  0  0  0  0  0  0  0  0  0  0  0
    5.6760  -12.3895   26.9114 C   0  0  0  0  0  0  0  0  0  0  0  0
    6.2351  -11.1346   26.9893 C   0  0  0  0  0  0  0  0  0  0  0  0
    7.6130  -11.0789   27.0048 C   0  0  0  0  0  0  0  0  0  0  0  0
    8.3898  -12.2076   26.9452 C   0  0  0  0  0  0  0  0  0  0  0  0
    7.7964  -13.4682   26.8658 C   0  0  0  0  0  0  0  0  0  0  0  0
    9.3597  -17.5156   25.9796 C   0  0  0  0  0  0  0  0  0  0  0  0
    8.4327  -17.9832   25.2531 O   0  0  0  0  0  0  0  0  0  0  0  0
    9.7284  -18.3761   27.0338 O   0  0  0  0  0  0  0  0  0  0  0  0
  2  1  1  6
  3  2  1  0
  3  4  1  0
  4  8  1  0
  5  4  2  0
  6  2  1  0
  6  7  2  0
  9 10  1  0
 10 11  2  0
 11 12  1  0
 13 12  2  0
 13 14  1  0
 15 14  1  6
 15 16  1  0
 15 17  1  0
 16  6  1  0
 17 21  1  0
 18 17  2  0
 19 13  1  0
 20 10  1  0
 20 19  2  0
 21 22  1  0
 22 33  1  0
 22 23  1  1
 24 23  1  0
 24 32  1  0
 25 26  1  0
 25 24  2  0
 26 27  1  0
 27 32  2  0
 27 28  1  0
 28 29  2  0
 29 30  1  0
 31 30  2  0
 32 31  1  0
 33 34  2  0
 33 35  1  0
M  END
$$$$
