EYR.pdb
     RDKit          3D

 33 33  0  0  1  0  0  0  0  0999 V2000
    7.0741  -16.1381   20.3112 N   0  0  0  0  0  0  0  0  0  0  0  0
    8.2768  -15.3387   20.2339 C   0  0  1  0  0  0  0  0  0  0  0  0
    7.9626  -14.0076   19.6332 C   0  0  0  0  0  0  0  0  0  0  0  0
    7.4643  -14.2800   18.2120 C   0  0  0  0  0  0  0  0  0  0  0  0
    7.1677  -13.0644   17.4647 C   0  0  0  0  0  0  0  0  0  0  0  0
    7.9840  -12.1227   17.4417 O   0  0  0  0  0  0  0  0  0  0  0  0
    8.9082  -15.2918   21.5645 C   0  0  0  0  0  0  0  0  0  0  0  0
   10.0477  -14.7381   21.7418 O   0  0  0  0  0  0  0  0  0  0  0  0
    5.9734  -12.9203   16.7555 O   0  0  0  0  0  0  0  0  0  0  0  0
    6.4058  -10.5707   26.4109 O   0  0  0  0  0  0  0  0  0  0  0  0
    6.7641  -11.8688   26.1232 C   0  0  0  0  0  0  0  0  0  0  0  0
    6.0510  -12.5684   25.1866 C   0  0  0  0  0  0  0  0  0  0  0  0
    6.3874  -13.8687   24.8787 C   0  0  0  0  0  0  0  0  0  0  0  0
    7.4299  -14.5399   25.4681 C   0  0  0  0  0  0  0  0  0  0  0  0
    7.8590  -15.9160   25.1633 C   0  0  0  0  0  0  0  0  0  0  0  0
    8.8704  -15.9423   24.0217 C   0  0  2  0  0  0  0  0  0  0  0  0
    8.2983  -15.8558   22.7216 N   0  0  0  0  0  0  0  0  0  0  0  0
    9.9087  -16.9762   24.2056 C   0  0  0  0  0  0  0  0  0  0  0  0
    9.5635  -18.1976   24.3076 O   0  0  0  0  0  0  0  0  0  0  0  0
    8.1450  -13.8087   26.4211 C   0  0  0  0  0  0  0  0  0  0  0  0
    7.8173  -12.5079   26.7371 C   0  0  0  0  0  0  0  0  0  0  0  0
   16.0997  -15.2220   20.3112 N   0  0  0  0  0  0  0  0  0  0  0  0
   14.8030  -14.8196   19.8814 C   0  0  0  0  0  0  0  0  0  0  0  0
   14.6990  -14.2610   18.7081 N   0  0  0  0  0  0  0  0  0  0  0  0
   13.6545  -15.0162   20.7020 N   0  0  0  0  0  0  0  0  0  0  0  0
   13.8801  -15.5183   22.0185 C   0  0  0  0  0  0  0  0  0  0  0  0
   13.3899  -16.8740   22.3225 C   0  0  0  0  0  0  0  0  0  0  0  0
   13.5316  -17.4259   23.6813 C   0  0  0  0  0  0  0  0  0  0  0  0
   12.2787  -17.7852   24.4149 C   0  0  2  0  0  0  0  0  0  0  0  0
   11.2789  -16.7094   24.2798 N   0  0  0  0  0  0  0  0  0  0  0  0
   12.4546  -18.1417   25.8336 C   0  0  0  0  0  0  0  0  0  0  0  0
   12.9766  -19.3629   26.2028 O   0  0  0  0  0  0  0  0  0  0  0  0
   12.1303  -17.3379   26.7426 O   0  0  0  0  0  0  0  0  0  0  0  0
  2  3  1  0
  2  1  1  1
  4  3  1  0
  5  4  1  0
  5  6  2  0
  7  8  2  0
  7  2  1  0
  9  5  1  0
 10 11  1  0
 11 12  2  0
 12 13  1  0
 14 15  1  0
 14 13  2  0
 16 15  1  1
 16 17  1  0
 17  7  1  0
 18 16  1  0
 19 18  2  0
 20 14  1  0
 21 20  2  0
 21 11  1  0
 23 22  1  0
 24 23  2  0
 25 23  1  0
 26 27  1  0
 26 25  1  0
 27 28  1  0
 29 28  1  1
 29 31  1  0
 29 30  1  0
 30 18  1  0
 31 32  1  0
 33 31  2  0
M  END
$$$$
