EYR.pdb
     RDKit          3D

 33 33  0  0  1  0  0  0  0  0999 V2000
    7.4614  -16.4873   18.2508 N   0  0  0  0  0  0  0  0  0  0  0  0
    8.7302  -15.7958   18.3102 C   0  0  1  0  0  0  0  0  0  0  0  0
    8.7955  -14.7636   17.2323 C   0  0  0  0  0  0  0  0  0  0  0  0
    8.2698  -15.4319   15.9598 C   0  0  0  0  0  0  0  0  0  0  0  0
    8.2616  -14.5421   14.8054 C   0  0  0  0  0  0  0  0  0  0  0  0
    9.3169  -14.2998   14.1879 O   0  0  0  0  0  0  0  0  0  0  0  0
    8.9356  -15.2867   19.6777 C   0  0  0  0  0  0  0  0  0  0  0  0
   10.0661  -14.8189   20.0515 O   0  0  0  0  0  0  0  0  0  0  0  0
    7.0824  -13.9429   14.3580 O   0  0  0  0  0  0  0  0  0  0  0  0
    7.4348  -12.4012   27.9079 O   0  0  0  0  0  0  0  0  0  0  0  0
    7.2818  -12.8201   26.6051 C   0  0  0  0  0  0  0  0  0  0  0  0
    6.8401  -14.0926   26.3583 C   0  0  0  0  0  0  0  0  0  0  0  0
    6.6776  -14.5383   25.0647 C   0  0  0  0  0  0  0  0  0  0  0  0
    6.9372  -13.7652   23.9603 C   0  0  0  0  0  0  0  0  0  0  0  0
    6.7562  -14.1705   22.5553 C   0  0  0  0  0  0  0  0  0  0  0  0
    8.0128  -14.8362   22.0032 C   0  0  2  0  0  0  0  0  0  0  0  0
    7.9020  -15.2866   20.6579 N   0  0  0  0  0  0  0  0  0  0  0  0
    8.6185  -15.7869   22.9573 C   0  0  0  0  0  0  0  0  0  0  0  0
    8.1200  -16.9521   23.0805 O   0  0  0  0  0  0  0  0  0  0  0  0
    7.3871  -12.4702   24.2333 C   0  0  0  0  0  0  0  0  0  0  0  0
    7.5534  -12.0139   25.5230 C   0  0  0  0  0  0  0  0  0  0  0  0
   14.4880  -14.2173   21.2623 N   0  0  0  0  0  0  0  0  0  0  0  0
   14.1939  -15.1277   20.2074 C   0  0  0  0  0  0  0  0  0  0  0  0
   14.8684  -15.0091   19.0981 N   0  0  0  0  0  0  0  0  0  0  0  0
   13.1962  -16.1349   20.3525 N   0  0  0  0  0  0  0  0  0  0  0  0
   13.0259  -16.6920   21.6551 C   0  0  0  0  0  0  0  0  0  0  0  0
   12.2178  -15.9276   22.6211 C   0  0  0  0  0  0  0  0  0  0  0  0
   11.9506  -16.4766   23.9622 C   0  0  0  0  0  0  0  0  0  0  0  0
   10.5238  -16.5573   24.4035 C   0  0  2  0  0  0  0  0  0  0  0  0
    9.7267  -15.4971   23.7587 N   0  0  0  0  0  0  0  0  0  0  0  0
   10.3090  -16.5408   25.8610 C   0  0  0  0  0  0  0  0  0  0  0  0
   10.4471  -15.3786   26.5893 O   0  0  0  0  0  0  0  0  0  0  0  0
    9.9948  -17.5902   26.4757 O   0  0  0  0  0  0  0  0  0  0  0  0
  2  3  1  0
  2  1  1  1
  4  3  1  0
  5  4  1  0
  5  6  2  0
  7  8  2  0
  7  2  1  0
  9  5  1  0
 10 11  1  0
 11 12  2  0
 12 13  1  0
 14 15  1  0
 14 13  2  0
 16 15  1  1
 16 17  1  0
 17  7  1  0
 18 16  1  0
 19 18  2  0
 20 14  1  0
 21 20  2  0
 21 11  1  0
 23 22  1  0
 24 23  2  0
 25 23  1  0
 26 27  1  0
 26 25  1  0
 27 28  1  0
 29 28  1  1
 29 31  1  0
 29 30  1  0
 30 18  1  0
 31 32  1  0
 33 31  2  0
M  END
$$$$
