EYR.pdb
     RDKit          3D

 33 33  0  0  1  0  0  0  0  0999 V2000
    8.0356  -18.2479   19.5562 N   0  0  0  0  0  0  0  0  0  0  0  0
    9.2922  -17.5340   19.5010 C   0  0  1  0  0  0  0  0  0  0  0  0
    9.4191  -16.8327   18.1881 C   0  0  0  0  0  0  0  0  0  0  0  0
   10.6521  -17.4221   17.4992 C   0  0  0  0  0  0  0  0  0  0  0  0
   10.9682  -16.7722   16.2335 C   0  0  0  0  0  0  0  0  0  0  0  0
   10.2293  -15.8753   15.7828 O   0  0  0  0  0  0  0  0  0  0  0  0
    9.4040  -16.6671   20.6873 C   0  0  0  0  0  0  0  0  0  0  0  0
   10.5387  -16.4072   21.2178 O   0  0  0  0  0  0  0  0  0  0  0  0
   12.0994  -17.1283   15.4963 O   0  0  0  0  0  0  0  0  0  0  0  0
    7.2418  -11.7390   27.6966 O   0  0  0  0  0  0  0  0  0  0  0  0
    7.1815  -12.3915   26.4855 C   0  0  0  0  0  0  0  0  0  0  0  0
    7.8342  -11.8602   25.4053 C   0  0  0  0  0  0  0  0  0  0  0  0
    7.7912  -12.4920   24.1815 C   0  0  0  0  0  0  0  0  0  0  0  0
    7.1130  -13.6648   23.9595 C   0  0  0  0  0  0  0  0  0  0  0  0
    7.0524  -14.4046   22.6867 C   0  0  0  0  0  0  0  0  0  0  0  0
    8.2684  -15.3087   22.5115 C   0  0  2  0  0  0  0  0  0  0  0  0
    8.2694  -16.0739   21.3117 N   0  0  0  0  0  0  0  0  0  0  0  0
    8.6163  -16.0394   23.7467 C   0  0  0  0  0  0  0  0  0  0  0  0
    7.8304  -16.9420   24.1816 O   0  0  0  0  0  0  0  0  0  0  0  0
    6.4535  -14.1906   25.0742 C   0  0  0  0  0  0  0  0  0  0  0  0
    6.4895  -13.5673   26.3028 C   0  0  0  0  0  0  0  0  0  0  0  0
   11.1587  -22.7775   27.1989 N   0  0  0  0  0  0  0  0  0  0  0  0
   12.3374  -21.9782   27.1889 C   0  0  0  0  0  0  0  0  0  0  0  0
   13.4756  -22.5785   26.9801 N   0  0  0  0  0  0  0  0  0  0  0  0
   12.2814  -20.5701   27.4011 N   0  0  0  0  0  0  0  0  0  0  0  0
   11.8291  -19.7702   26.3094 C   0  0  0  0  0  0  0  0  0  0  0  0
   11.8335  -18.3080   26.4902 C   0  0  0  0  0  0  0  0  0  0  0  0
   11.3514  -17.4266   25.4123 C   0  0  0  0  0  0  0  0  0  0  0  0
   10.1163  -16.6255   25.6759 C   0  0  2  0  0  0  0  0  0  0  0  0
    9.7733  -15.8088   24.4967 N   0  0  0  0  0  0  0  0  0  0  0  0
   10.1521  -15.7843   26.8850 C   0  0  0  0  0  0  0  0  0  0  0  0
   10.1427  -14.4087   26.7975 O   0  0  0  0  0  0  0  0  0  0  0  0
   10.1933  -16.3040   28.0278 O   0  0  0  0  0  0  0  0  0  0  0  0
  2  3  1  0
  2  1  1  6
  4  3  1  0
  5  4  1  0
  5  6  2  0
  7  8  2  0
  7  2  1  0
  9  5  1  0
 10 11  1  0
 11 12  2  0
 12 13  1  0
 14 15  1  0
 14 13  2  0
 16 15  1  1
 16 17  1  0
 17  7  1  0
 18 16  1  0
 19 18  2  0
 20 14  1  0
 21 20  2  0
 21 11  1  0
 23 22  1  0
 24 23  2  0
 25 23  1  0
 26 27  1  0
 26 25  1  0
 27 28  1  0
 29 28  1  6
 29 31  1  0
 29 30  1  0
 30 18  1  0
 31 32  1  0
 33 31  2  0
M  END
$$$$
