EYR.pdb
     RDKit          3D

 33 33  0  0  1  0  0  0  0  0999 V2000
    7.9925  -18.2775   19.7915 N   0  0  0  0  0  0  0  0  0  0  0  0
    9.3886  -18.0710   20.1077 C   0  0  1  0  0  0  0  0  0  0  0  0
   10.1509  -17.7666   18.8597 C   0  0  0  0  0  0  0  0  0  0  0  0
   11.6316  -17.7587   19.2472 C   0  0  0  0  0  0  0  0  0  0  0  0
   12.5200  -17.5272   18.1153 C   0  0  0  0  0  0  0  0  0  0  0  0
   12.1499  -17.7990   16.9565 O   0  0  0  0  0  0  0  0  0  0  0  0
    9.4949  -17.0551   21.1698 C   0  0  0  0  0  0  0  0  0  0  0  0
   10.6293  -16.7081   21.6484 O   0  0  0  0  0  0  0  0  0  0  0  0
   13.7991  -16.9957   18.2921 O   0  0  0  0  0  0  0  0  0  0  0  0
    7.2560  -11.2252   27.4688 O   0  0  0  0  0  0  0  0  0  0  0  0
    7.2626  -12.0130   26.3394 C   0  0  0  0  0  0  0  0  0  0  0  0
    6.4716  -13.1300   26.2973 C   0  0  0  0  0  0  0  0  0  0  0  0
    6.4582  -13.9362   25.1800 C   0  0  0  0  0  0  0  0  0  0  0  0
    7.2121  -13.6885   24.0597 C   0  0  0  0  0  0  0  0  0  0  0  0
    7.2211  -14.4919   22.8246 C   0  0  0  0  0  0  0  0  0  0  0  0
    8.3451  -15.5230   22.8411 C   0  0  2  0  0  0  0  0  0  0  0  0
    8.3549  -16.4061   21.7253 N   0  0  0  0  0  0  0  0  0  0  0  0
    8.5216  -16.1506   24.1661 C   0  0  0  0  0  0  0  0  0  0  0  0
    7.6179  -16.9269   24.6156 O   0  0  0  0  0  0  0  0  0  0  0  0
    8.0126  -12.5442   24.1226 C   0  0  0  0  0  0  0  0  0  0  0  0
    8.0341  -11.7309   25.2349 C   0  0  0  0  0  0  0  0  0  0  0  0
   12.1395  -19.3858   22.2250 N   0  0  0  0  0  0  0  0  0  0  0  0
   11.9602  -20.6682   22.8178 C   0  0  0  0  0  0  0  0  0  0  0  0
   11.7595  -21.6815   22.0224 N   0  0  0  0  0  0  0  0  0  0  0  0
   11.9959  -20.8443   24.2316 N   0  0  0  0  0  0  0  0  0  0  0  0
   12.1687  -19.6704   25.0241 C   0  0  0  0  0  0  0  0  0  0  0  0
   10.9750  -18.8499   25.2932 C   0  0  0  0  0  0  0  0  0  0  0  0
   11.0963  -17.5902   26.0479 C   0  0  0  0  0  0  0  0  0  0  0  0
    9.8643  -16.7563   26.2022 C   0  0  2  0  0  0  0  0  0  0  0  0
    9.6346  -15.9511   24.9881 N   0  0  0  0  0  0  0  0  0  0  0  0
    9.8261  -15.8967   27.3982 C   0  0  0  0  0  0  0  0  0  0  0  0
    9.3683  -16.3760   28.6068 O   0  0  0  0  0  0  0  0  0  0  0  0
   10.2103  -14.7021   27.3428 O   0  0  0  0  0  0  0  0  0  0  0  0
  2  3  1  0
  2  1  1  6
  4  3  1  0
  5  4  1  0
  5  6  2  0
  7  8  2  0
  7  2  1  0
  9  5  1  0
 10 11  1  0
 11 12  2  0
 12 13  1  0
 14 15  1  0
 14 13  2  0
 16 15  1  1
 16 17  1  0
 17  7  1  0
 18 16  1  0
 19 18  2  0
 20 14  1  0
 21 20  2  0
 21 11  1  0
 23 22  1  0
 24 23  2  0
 25 23  1  0
 26 27  1  0
 26 25  1  0
 27 28  1  0
 29 28  1  6
 29 31  1  0
 29 30  1  0
 30 18  1  0
 31 32  1  0
 33 31  2  0
M  END
$$$$
