EYR.pdb
     RDKit          3D

 33 33  0  0  1  0  0  0  0  0999 V2000
    9.1806  -16.3483   19.6882 N   0  0  0  0  0  0  0  0  0  0  0  0
    8.4323  -16.2762   20.9237 C   0  0  1  0  0  0  0  0  0  0  0  0
    7.5320  -17.4625   21.0406 C   0  0  0  0  0  0  0  0  0  0  0  0
    7.2184  -17.9113   19.6113 C   0  0  0  0  0  0  0  0  0  0  0  0
    6.2885  -19.0319   19.5525 C   0  0  0  0  0  0  0  0  0  0  0  0
    5.9386  -19.6171   20.5958 O   0  0  0  0  0  0  0  0  0  0  0  0
    9.3718  -16.0905   22.0436 C   0  0  0  0  0  0  0  0  0  0  0  0
   10.5941  -16.4575   21.9554 O   0  0  0  0  0  0  0  0  0  0  0  0
    5.7634  -19.4776   18.3377 O   0  0  0  0  0  0  0  0  0  0  0  0
    4.6716  -12.1570   26.4637 O   0  0  0  0  0  0  0  0  0  0  0  0
    5.9296  -12.5709   26.0865 C   0  0  0  0  0  0  0  0  0  0  0  0
    6.8240  -12.9573   27.0486 C   0  0  0  0  0  0  0  0  0  0  0  0
    8.0895  -13.3763   26.6999 C   0  0  0  0  0  0  0  0  0  0  0  0
    8.5353  -13.4368   25.4028 C   0  0  0  0  0  0  0  0  0  0  0  0
    9.8619  -13.9021   24.9620 C   0  0  0  0  0  0  0  0  0  0  0  0
    9.8011  -15.3310   24.4313 C   0  0  2  0  0  0  0  0  0  0  0  0
    8.9818  -15.5008   23.2803 N   0  0  0  0  0  0  0  0  0  0  0  0
    9.6251  -16.3293   25.5052 C   0  0  0  0  0  0  0  0  0  0  0  0
    8.4493  -16.6639   25.8612 O   0  0  0  0  0  0  0  0  0  0  0  0
    7.6077  -13.0381   24.4360 C   0  0  0  0  0  0  0  0  0  0  0  0
    6.3396  -12.6171   24.7733 C   0  0  0  0  0  0  0  0  0  0  0  0
    9.7476  -22.6498   24.9898 N   0  0  0  0  0  0  0  0  0  0  0  0
   10.6684  -22.3870   23.9356 C   0  0  0  0  0  0  0  0  0  0  0  0
   10.3411  -22.7726   22.7341 N   0  0  0  0  0  0  0  0  0  0  0  0
   11.9078  -21.7272   24.1796 N   0  0  0  0  0  0  0  0  0  0  0  0
   12.0587  -21.0839   25.4443 C   0  0  0  0  0  0  0  0  0  0  0  0
   11.1905  -19.9276   25.7269 C   0  0  0  0  0  0  0  0  0  0  0  0
   11.3674  -19.1539   26.9683 C   0  0  0  0  0  0  0  0  0  0  0  0
   10.4497  -17.9951   27.1965 C   0  0  2  0  0  0  0  0  0  0  0  0
   10.6795  -16.9510   26.1806 N   0  0  0  0  0  0  0  0  0  0  0  0
   10.4920  -17.4092   28.5476 C   0  0  0  0  0  0  0  0  0  0  0  0
   10.0157  -18.1011   29.6405 O   0  0  0  0  0  0  0  0  0  0  0  0
   10.9640  -16.2603   28.7347 O   0  0  0  0  0  0  0  0  0  0  0  0
  2  3  1  0
  2  1  1  6
  4  3  1  0
  5  4  1  0
  5  6  2  0
  7  8  2  0
  7  2  1  0
  9  5  1  0
 10 11  1  0
 11 12  2  0
 12 13  1  0
 14 15  1  0
 14 13  2  0
 16 15  1  1
 16 17  1  0
 17  7  1  0
 18 16  1  0
 19 18  2  0
 20 14  1  0
 21 20  2  0
 21 11  1  0
 23 22  1  0
 24 23  2  0
 25 23  1  0
 26 27  1  0
 26 25  1  0
 27 28  1  0
 29 28  1  1
 29 31  1  0
 29 30  1  0
 30 18  1  0
 31 32  1  0
 33 31  2  0
M  END
$$$$
