EYR.pdb
     RDKit          3D

 33 33  0  0  1  0  0  0  0  0999 V2000
    8.4247  -18.6241   18.9786 N   0  0  0  0  0  0  0  0  0  0  0  0
    9.6303  -17.8466   18.7959 C   0  0  1  0  0  0  0  0  0  0  0  0
    9.4771  -16.9441   17.6154 C   0  0  0  0  0  0  0  0  0  0  0  0
    9.0345  -17.8291   16.4478 C   0  0  0  0  0  0  0  0  0  0  0  0
    9.0039  -17.1241   15.1725 C   0  0  0  0  0  0  0  0  0  0  0  0
   10.0086  -16.5072   14.7681 O   0  0  0  0  0  0  0  0  0  0  0  0
    9.9615  -17.1700   20.0624 C   0  0  0  0  0  0  0  0  0  0  0  0
   11.1489  -16.7632   20.3095 O   0  0  0  0  0  0  0  0  0  0  0  0
    7.8605  -17.1212   14.3709 O   0  0  0  0  0  0  0  0  0  0  0  0
    7.3109  -11.5641   18.3940 O   0  0  0  0  0  0  0  0  0  0  0  0
    7.5145  -12.4588   19.4208 C   0  0  0  0  0  0  0  0  0  0  0  0
    8.5595  -12.2618   20.2835 C   0  0  0  0  0  0  0  0  0  0  0  0
    8.7867  -13.1409   21.3199 C   0  0  0  0  0  0  0  0  0  0  0  0
    8.0072  -14.2453   21.5592 C   0  0  0  0  0  0  0  0  0  0  0  0
    8.1778  -15.2051   22.6641 C   0  0  0  0  0  0  0  0  0  0  0  0
    9.2141  -16.2700   22.3193 C   0  0  2  0  0  0  0  0  0  0  0  0
    8.9928  -16.9322   21.0794 N   0  0  0  0  0  0  0  0  0  0  0  0
    9.5413  -17.1380   23.4684 C   0  0  0  0  0  0  0  0  0  0  0  0
    8.6205  -17.8296   24.0117 O   0  0  0  0  0  0  0  0  0  0  0  0
    6.9462  -14.4288   20.6678 C   0  0  0  0  0  0  0  0  0  0  0  0
    6.7097  -13.5562   19.6277 C   0  0  0  0  0  0  0  0  0  0  0  0
   14.5429  -20.6418   22.6640 N   0  0  0  0  0  0  0  0  0  0  0  0
   15.2638  -21.3642   23.6572 C   0  0  0  0  0  0  0  0  0  0  0  0
   16.4137  -21.8771   23.3194 N   0  0  0  0  0  0  0  0  0  0  0  0
   14.7502  -21.5263   24.9767 N   0  0  0  0  0  0  0  0  0  0  0  0
   13.3558  -21.2860   25.1607 C   0  0  0  0  0  0  0  0  0  0  0  0
   12.9536  -19.9551   25.6480 C   0  0  0  0  0  0  0  0  0  0  0  0
   12.4476  -18.9423   24.7049 C   0  0  0  0  0  0  0  0  0  0  0  0
   11.1403  -18.2910   25.0270 C   0  0  2  0  0  0  0  0  0  0  0  0
   10.8192  -17.2607   24.0218 N   0  0  0  0  0  0  0  0  0  0  0  0
   11.0287  -17.7301   26.3848 C   0  0  0  0  0  0  0  0  0  0  0  0
   10.8921  -18.5483   27.4856 O   0  0  0  0  0  0  0  0  0  0  0  0
   11.0546  -16.4881   26.5705 O   0  0  0  0  0  0  0  0  0  0  0  0
  2  3  1  0
  2  1  1  1
  4  3  1  0
  5  4  1  0
  5  6  2  0
  7  8  2  0
  7  2  1  0
  9  5  1  0
 10 11  1  0
 11 12  2  0
 12 13  1  0
 14 15  1  0
 14 13  2  0
 16 15  1  1
 16 17  1  0
 17  7  1  0
 18 16  1  0
 19 18  2  0
 20 14  1  0
 21 20  2  0
 21 11  1  0
 23 22  1  0
 24 23  2  0
 25 23  1  0
 26 27  1  0
 26 25  1  0
 27 28  1  0
 29 28  1  6
 29 31  1  0
 29 30  1  0
 30 18  1  0
 31 32  1  0
 33 31  2  0
M  END
$$$$
