EYR.pdb
     RDKit          3D

 33 33  0  0  1  0  0  0  0  0999 V2000
    7.0423  -15.8605   21.6142 N   0  0  0  0  0  0  0  0  0  0  0  0
    8.3889  -16.1427   21.1686 C   0  0  1  0  0  0  0  0  0  0  0  0
    8.7000  -15.3335   19.9521 C   0  0  0  0  0  0  0  0  0  0  0  0
    8.9272  -16.3313   18.8141 C   0  0  0  0  0  0  0  0  0  0  0  0
    9.3010  -15.6940   17.5578 C   0  0  0  0  0  0  0  0  0  0  0  0
   10.4140  -15.1466   17.4345 O   0  0  0  0  0  0  0  0  0  0  0  0
    9.3169  -15.9571   22.2981 C   0  0  0  0  0  0  0  0  0  0  0  0
   10.5776  -16.1233   22.1586 O   0  0  0  0  0  0  0  0  0  0  0  0
    8.4338  -15.6806   16.4634 O   0  0  0  0  0  0  0  0  0  0  0  0
    4.4407  -12.0672   25.3784 O   0  0  0  0  0  0  0  0  0  0  0  0
    5.6783  -12.6668   25.4494 C   0  0  0  0  0  0  0  0  0  0  0  0
    6.7180  -11.9902   26.0294 C   0  0  0  0  0  0  0  0  0  0  0  0
    7.9670  -12.5659   26.1143 C   0  0  0  0  0  0  0  0  0  0  0  0
    8.2546  -13.8216   25.6397 C   0  0  0  0  0  0  0  0  0  0  0  0
    9.5574  -14.5044   25.7257 C   0  0  0  0  0  0  0  0  0  0  0  0
    9.6054  -15.7259   24.8133 C   0  0  2  0  0  0  0  0  0  0  0  0
    8.8735  -15.5884   23.6007 N   0  0  0  0  0  0  0  0  0  0  0  0
    9.4110  -16.9922   25.5478 C   0  0  0  0  0  0  0  0  0  0  0  0
    8.4780  -17.7833   25.1940 O   0  0  0  0  0  0  0  0  0  0  0  0
    7.1805  -14.4954   25.0513 C   0  0  0  0  0  0  0  0  0  0  0  0
    5.9272  -13.9293   24.9608 C   0  0  0  0  0  0  0  0  0  0  0  0
   16.7448  -19.5663   23.8465 N   0  0  0  0  0  0  0  0  0  0  0  0
   16.1063  -20.8361   23.9372 C   0  0  0  0  0  0  0  0  0  0  0  0
   16.7593  -21.8760   23.4993 N   0  0  0  0  0  0  0  0  0  0  0  0
   14.7978  -20.9717   24.4852 N   0  0  0  0  0  0  0  0  0  0  0  0
   14.0526  -19.7708   24.6820 C   0  0  0  0  0  0  0  0  0  0  0  0
   12.6853  -19.8988   25.2155 C   0  0  0  0  0  0  0  0  0  0  0  0
   11.8472  -18.7012   25.4010 C   0  0  0  0  0  0  0  0  0  0  0  0
   10.9681  -18.6542   26.6102 C   0  0  2  0  0  0  0  0  0  0  0  0
   10.1932  -17.3995   26.6325 N   0  0  0  0  0  0  0  0  0  0  0  0
   11.6522  -18.8532   27.8997 C   0  0  0  0  0  0  0  0  0  0  0  0
   12.0347  -17.7812   28.6772 O   0  0  0  0  0  0  0  0  0  0  0  0
   11.9046  -20.0093   28.3210 O   0  0  0  0  0  0  0  0  0  0  0  0
  2  3  1  0
  2  1  1  1
  4  3  1  0
  5  4  1  0
  5  6  2  0
  7  8  2  0
  7  2  1  0
  9  5  1  0
 10 11  1  0
 11 12  2  0
 12 13  1  0
 14 15  1  0
 14 13  2  0
 16 15  1  1
 16 17  1  0
 17  7  1  0
 18 16  1  0
 19 18  2  0
 20 14  1  0
 21 20  2  0
 21 11  1  0
 23 22  1  0
 24 23  2  0
 25 23  1  0
 26 27  1  0
 26 25  1  0
 27 28  1  0
 29 28  1  6
 29 31  1  0
 29 30  1  0
 30 18  1  0
 31 32  1  0
 33 31  2  0
M  END
$$$$
