EYR.pdb
     RDKit          3D

 33 33  0  0  1  0  0  0  0  0999 V2000
    7.5486  -17.0905   18.2286 N   0  0  0  0  0  0  0  0  0  0  0  0
    8.9569  -16.8421   18.4443 C   0  0  1  0  0  0  0  0  0  0  0  0
    9.5421  -16.1698   17.2455 C   0  0  0  0  0  0  0  0  0  0  0  0
    8.3746  -15.8746   16.3009 C   0  0  0  0  0  0  0  0  0  0  0  0
    8.7760  -15.1527   15.1001 C   0  0  0  0  0  0  0  0  0  0  0  0
    9.6614  -15.6131   14.3533 O   0  0  0  0  0  0  0  0  0  0  0  0
    9.1269  -16.1154   19.7149 C   0  0  0  0  0  0  0  0  0  0  0  0
   10.2842  -15.9343   20.2289 O   0  0  0  0  0  0  0  0  0  0  0  0
    8.1842  -13.9371   14.7509 O   0  0  0  0  0  0  0  0  0  0  0  0
    7.3021  -12.4824   27.5455 O   0  0  0  0  0  0  0  0  0  0  0  0
    7.1808  -12.9121   26.2428 C   0  0  0  0  0  0  0  0  0  0  0  0
    7.6589  -12.1238   25.2304 C   0  0  0  0  0  0  0  0  0  0  0  0
    7.5512  -12.5288   23.9177 C   0  0  0  0  0  0  0  0  0  0  0  0
    6.9754  -13.7157   23.5374 C   0  0  0  0  0  0  0  0  0  0  0  0
    6.8561  -14.2196   22.1581 C   0  0  0  0  0  0  0  0  0  0  0  0
    8.0574  -15.0778   21.7745 C   0  0  2  0  0  0  0  0  0  0  0  0
    8.0264  -15.5785   20.4429 N   0  0  0  0  0  0  0  0  0  0  0  0
    8.4196  -16.0507   22.8247 C   0  0  0  0  0  0  0  0  0  0  0  0
    7.8426  -17.1854   22.8516 O   0  0  0  0  0  0  0  0  0  0  0  0
    6.4936  -14.5056   24.5853 C   0  0  0  0  0  0  0  0  0  0  0  0
    6.5958  -14.1104   25.9016 C   0  0  0  0  0  0  0  0  0  0  0  0
   13.8781  -20.5307   25.8581 N   0  0  0  0  0  0  0  0  0  0  0  0
   13.6031  -21.1621   24.6115 C   0  0  0  0  0  0  0  0  0  0  0  0
   13.6372  -22.4647   24.5708 N   0  0  0  0  0  0  0  0  0  0  0  0
   13.3022  -20.4016   23.4444 N   0  0  0  0  0  0  0  0  0  0  0  0
   13.2203  -18.9855   23.6000 C   0  0  0  0  0  0  0  0  0  0  0  0
   12.0642  -18.4484   24.3386 C   0  0  0  0  0  0  0  0  0  0  0  0
   11.2080  -17.4171   23.7268 C   0  0  0  0  0  0  0  0  0  0  0  0
   10.0507  -16.9148   24.5301 C   0  0  2  0  0  0  0  0  0  0  0  0
    9.3726  -15.8144   23.8199 N   0  0  0  0  0  0  0  0  0  0  0  0
   10.3653  -16.5117   25.9119 C   0  0  0  0  0  0  0  0  0  0  0  0
   10.6998  -17.4457   26.8688 O   0  0  0  0  0  0  0  0  0  0  0  0
   10.3344  -15.3026   26.2508 O   0  0  0  0  0  0  0  0  0  0  0  0
  2  3  1  0
  2  1  1  6
  4  3  1  0
  5  4  1  0
  5  6  2  0
  7  8  2  0
  7  2  1  0
  9  5  1  0
 10 11  1  0
 11 12  2  0
 12 13  1  0
 14 15  1  0
 14 13  2  0
 16 15  1  1
 16 17  1  0
 17  7  1  0
 18 16  1  0
 19 18  2  0
 20 14  1  0
 21 20  2  0
 21 11  1  0
 23 22  1  0
 24 23  2  0
 25 23  1  0
 26 27  1  0
 26 25  1  0
 27 28  1  0
 29 28  1  6
 29 31  1  0
 29 30  1  0
 30 18  1  0
 31 32  1  0
 33 31  2  0
M  END
$$$$
