EYR.pdb
     RDKit          3D

 33 33  0  0  1  0  0  0  0  0999 V2000
    9.0519  -14.9815   19.4048 N   0  0  0  0  0  0  0  0  0  0  0  0
    8.3544  -15.5730   20.5252 C   0  0  1  0  0  0  0  0  0  0  0  0
    8.0731  -17.0129   20.2437 C   0  0  0  0  0  0  0  0  0  0  0  0
    7.5444  -17.0788   18.8089 C   0  0  0  0  0  0  0  0  0  0  0  0
    7.0313  -18.3938   18.4460 C   0  0  0  0  0  0  0  0  0  0  0  0
    5.9702  -18.5013   17.8011 O   0  0  0  0  0  0  0  0  0  0  0  0
    9.1194  -15.3139   21.7576 C   0  0  0  0  0  0  0  0  0  0  0  0
   10.3951  -15.4060   21.7815 O   0  0  0  0  0  0  0  0  0  0  0  0
    7.7082  -19.5619   18.8029 O   0  0  0  0  0  0  0  0  0  0  0  0
   10.8096  -14.9810   30.4133 O   0  0  0  0  0  0  0  0  0  0  0  0
   10.1723  -14.8483   29.1998 C   0  0  0  0  0  0  0  0  0  0  0  0
   10.3499  -13.7021   28.4719 C   0  0  0  0  0  0  0  0  0  0  0  0
    9.7248  -13.5424   27.2544 C   0  0  0  0  0  0  0  0  0  0  0  0
    8.9032  -14.4901   26.6962 C   0  0  0  0  0  0  0  0  0  0  0  0
    8.2304  -14.3940   25.3889 C   0  0  0  0  0  0  0  0  0  0  0  0
    9.0779  -15.0124   24.2815 C   0  0  2  0  0  0  0  0  0  0  0  0
    8.4939  -14.9523   22.9853 N   0  0  0  0  0  0  0  0  0  0  0  0
    9.6609  -16.3123   24.6703 C   0  0  0  0  0  0  0  0  0  0  0  0
    8.9647  -17.3714   24.5477 O   0  0  0  0  0  0  0  0  0  0  0  0
    8.7347  -15.6522   27.4546 C   0  0  0  0  0  0  0  0  0  0  0  0
    9.3548  -15.8226   28.6735 C   0  0  0  0  0  0  0  0  0  0  0  0
   15.2613  -22.1342   24.4785 N   0  0  0  0  0  0  0  0  0  0  0  0
   15.3621  -21.6029   23.1610 C   0  0  0  0  0  0  0  0  0  0  0  0
   15.8123  -22.3883   22.2229 N   0  0  0  0  0  0  0  0  0  0  0  0
   14.9870  -20.2587   22.8718 N   0  0  0  0  0  0  0  0  0  0  0  0
   14.7018  -19.4141   23.9860 C   0  0  0  0  0  0  0  0  0  0  0  0
   13.3096  -19.3685   24.4657 C   0  0  0  0  0  0  0  0  0  0  0  0
   12.5143  -18.1371   24.3165 C   0  0  0  0  0  0  0  0  0  0  0  0
   11.5436  -17.8059   25.4051 C   0  0  2  0  0  0  0  0  0  0  0  0
   10.9534  -16.4735   25.1781 N   0  0  0  0  0  0  0  0  0  0  0  0
   12.0723  -17.9015   26.7770 C   0  0  0  0  0  0  0  0  0  0  0  0
   12.3646  -16.7709   27.5093 O   0  0  0  0  0  0  0  0  0  0  0  0
   12.2707  -19.0205   27.3120 O   0  0  0  0  0  0  0  0  0  0  0  0
  2  3  1  0
  2  1  1  6
  4  3  1  0
  5  4  1  0
  5  6  2  0
  7  8  2  0
  7  2  1  0
  9  5  1  0
 10 11  1  0
 11 12  2  0
 12 13  1  0
 14 15  1  0
 14 13  2  0
 16 15  1  1
 16 17  1  0
 17  7  1  0
 18 16  1  0
 19 18  2  0
 20 14  1  0
 21 20  2  0
 21 11  1  0
 23 22  1  0
 24 23  2  0
 25 23  1  0
 26 27  1  0
 26 25  1  0
 27 28  1  0
 29 28  1  6
 29 31  1  0
 29 30  1  0
 30 18  1  0
 31 32  1  0
 33 31  2  0
M  END
$$$$
