EYR.pdb
     RDKit          3D

 33 33  0  0  1  0  0  0  0  0999 V2000
    6.7669  -15.3662   20.8192 N   0  0  0  0  0  0  0  0  0  0  0  0
    8.1576  -14.9935   20.6836 C   0  0  1  0  0  0  0  0  0  0  0  0
    8.2618  -13.6565   20.0254 C   0  0  0  0  0  0  0  0  0  0  0  0
    7.5118  -13.7681   18.6960 C   0  0  0  0  0  0  0  0  0  0  0  0
    8.3378  -13.4384   17.5413 C   0  0  0  0  0  0  0  0  0  0  0  0
    9.5295  -13.1057   17.6922 O   0  0  0  0  0  0  0  0  0  0  0  0
    8.8125  -15.0961   21.9997 C   0  0  0  0  0  0  0  0  0  0  0  0
   10.0488  -14.8053   22.1529 O   0  0  0  0  0  0  0  0  0  0  0  0
    7.8256  -13.4884   16.2432 O   0  0  0  0  0  0  0  0  0  0  0  0
    5.9120  -10.0738   26.3193 O   0  0  0  0  0  0  0  0  0  0  0  0
    6.3136  -11.3777   26.1327 C   0  0  0  0  0  0  0  0  0  0  0  0
    7.6119  -11.7230   26.3977 C   0  0  0  0  0  0  0  0  0  0  0  0
    8.0412  -13.0202   26.2201 C   0  0  0  0  0  0  0  0  0  0  0  0
    7.2258  -14.0328   25.7787 C   0  0  0  0  0  0  0  0  0  0  0  0
    7.6138  -15.4424   25.5968 C   0  0  0  0  0  0  0  0  0  0  0  0
    8.6494  -15.5945   24.4871 C   0  0  2  0  0  0  0  0  0  0  0  0
    8.1192  -15.5232   23.1685 N   0  0  0  0  0  0  0  0  0  0  0  0
    9.6012  -16.6938   24.7445 C   0  0  0  0  0  0  0  0  0  0  0  0
    9.1962  -17.8993   24.6808 O   0  0  0  0  0  0  0  0  0  0  0  0
    5.9049  -13.6599   25.5137 C   0  0  0  0  0  0  0  0  0  0  0  0
    5.4647  -12.3656   25.6876 C   0  0  0  0  0  0  0  0  0  0  0  0
   18.2117  -16.3445   24.2497 N   0  0  0  0  0  0  0  0  0  0  0  0
   17.2446  -16.7133   23.2715 C   0  0  0  0  0  0  0  0  0  0  0  0
   17.6340  -16.7819   22.0293 N   0  0  0  0  0  0  0  0  0  0  0  0
   15.8951  -16.9968   23.6315 N   0  0  0  0  0  0  0  0  0  0  0  0
   15.6885  -18.0109   24.6139 C   0  0  0  0  0  0  0  0  0  0  0  0
   14.2988  -18.3083   25.0022 C   0  0  0  0  0  0  0  0  0  0  0  0
   13.2484  -17.2884   24.8359 C   0  0  0  0  0  0  0  0  0  0  0  0
   11.8654  -17.6425   25.2820 C   0  0  2  0  0  0  0  0  0  0  0  0
   10.9496  -16.5074   25.0631 N   0  0  0  0  0  0  0  0  0  0  0  0
   11.7512  -18.1290   26.6680 C   0  0  0  0  0  0  0  0  0  0  0  0
   11.0383  -17.4250   27.6146 O   0  0  0  0  0  0  0  0  0  0  0  0
   12.3044  -19.2004   27.0200 O   0  0  0  0  0  0  0  0  0  0  0  0
  2  3  1  0
  2  1  1  1
  4  3  1  0
  5  4  1  0
  5  6  2  0
  7  8  2  0
  7  2  1  0
  9  5  1  0
 10 11  1  0
 11 12  2  0
 12 13  1  0
 14 15  1  0
 14 13  2  0
 16 15  1  1
 16 17  1  0
 17  7  1  0
 18 16  1  0
 19 18  2  0
 20 14  1  0
 21 20  2  0
 21 11  1  0
 23 22  1  0
 24 23  2  0
 25 23  1  0
 26 27  1  0
 26 25  1  0
 27 28  1  0
 29 28  1  1
 29 31  1  0
 29 30  1  0
 30 18  1  0
 31 32  1  0
 33 31  2  0
M  END
$$$$
