EYR.pdb
     RDKit          3D

 33 33  0  0  1  0  0  0  0  0999 V2000
    7.6486  -16.6423   18.8212 N   0  0  0  0  0  0  0  0  0  0  0  0
    8.7787  -15.7403   18.7938 C   0  0  1  0  0  0  0  0  0  0  0  0
    8.6187  -14.7616   17.6766 C   0  0  0  0  0  0  0  0  0  0  0  0
    8.1145  -15.5584   16.4711 C   0  0  0  0  0  0  0  0  0  0  0  0
    7.8597  -14.7287   15.3003 C   0  0  0  0  0  0  0  0  0  0  0  0
    8.0549  -13.4984   15.3441 O   0  0  0  0  0  0  0  0  0  0  0  0
    8.9482  -15.1428   20.1301 C   0  0  0  0  0  0  0  0  0  0  0  0
   10.0055  -14.4926   20.4397 O   0  0  0  0  0  0  0  0  0  0  0  0
    7.3972  -15.2816   14.1043 O   0  0  0  0  0  0  0  0  0  0  0  0
    7.5196  -12.5355   28.4624 O   0  0  0  0  0  0  0  0  0  0  0  0
    7.3629  -12.9209   27.1497 C   0  0  0  0  0  0  0  0  0  0  0  0
    6.8412  -14.1561   26.8721 C   0  0  0  0  0  0  0  0  0  0  0  0
    6.6731  -14.5677   25.5679 C   0  0  0  0  0  0  0  0  0  0  0  0
    7.0045  -13.7952   24.4825 C   0  0  0  0  0  0  0  0  0  0  0  0
    6.8228  -14.1632   23.0674 C   0  0  0  0  0  0  0  0  0  0  0  0
    8.0801  -14.8111   22.4963 C   0  0  2  0  0  0  0  0  0  0  0  0
    7.9589  -15.2530   21.1491 N   0  0  0  0  0  0  0  0  0  0  0  0
    8.7071  -15.7618   23.4365 C   0  0  0  0  0  0  0  0  0  0  0  0
    8.1767  -16.9054   23.6159 O   0  0  0  0  0  0  0  0  0  0  0  0
    7.5354  -12.5384   24.7870 C   0  0  0  0  0  0  0  0  0  0  0  0
    7.7082  -12.1165   26.0875 C   0  0  0  0  0  0  0  0  0  0  0  0
   13.6905  -17.1435   19.4795 N   0  0  0  0  0  0  0  0  0  0  0  0
   13.5738  -15.7752   19.8569 C   0  0  0  0  0  0  0  0  0  0  0  0
   13.9151  -14.8729   18.9800 N   0  0  0  0  0  0  0  0  0  0  0  0
   13.1027  -15.3987   21.1481 N   0  0  0  0  0  0  0  0  0  0  0  0
   13.3469  -16.3128   22.2163 C   0  0  0  0  0  0  0  0  0  0  0  0
   12.1759  -16.8727   22.9131 C   0  0  0  0  0  0  0  0  0  0  0  0
   12.0029  -16.6592   24.3608 C   0  0  0  0  0  0  0  0  0  0  0  0
   10.6046  -16.5544   24.8811 C   0  0  2  0  0  0  0  0  0  0  0  0
    9.8694  -15.4946   24.1659 N   0  0  0  0  0  0  0  0  0  0  0  0
   10.4822  -16.3654   26.3371 C   0  0  0  0  0  0  0  0  0  0  0  0
   10.3069  -15.1112   26.8814 O   0  0  0  0  0  0  0  0  0  0  0  0
   10.5365  -17.3471   27.1188 O   0  0  0  0  0  0  0  0  0  0  0  0
  2  3  1  0
  2  1  1  1
  4  3  1  0
  5  4  1  0
  5  6  2  0
  7  8  2  0
  7  2  1  0
  9  5  1  0
 10 11  1  0
 11 12  2  0
 12 13  1  0
 14 15  1  0
 14 13  2  0
 16 15  1  1
 16 17  1  0
 17  7  1  0
 18 16  1  0
 19 18  2  0
 20 14  1  0
 21 20  2  0
 21 11  1  0
 23 22  1  0
 24 23  2  0
 25 23  1  0
 26 27  1  0
 26 25  1  0
 27 28  1  0
 29 28  1  6
 29 31  1  0
 29 30  1  0
 30 18  1  0
 31 32  1  0
 33 31  2  0
M  END
$$$$
