RGV.pdb
     RDKit          3D

 23 22  0  0  1  0  0  0  0  0999 V2000
    5.0764  -21.9009   23.0834 N   0  0  0  0  0  0  0  0  0  0  0  0
    3.8679  -21.6666   22.3543 C   0  0  0  0  0  0  0  0  0  0  0  0
    3.4062  -22.6343   21.6570 N   0  0  0  0  0  0  0  0  0  0  0  0
    3.2485  -20.3865   22.4395 N   0  0  0  0  0  0  0  0  0  0  0  0
    3.9889  -19.2515   22.0174 C   0  0  0  0  0  0  0  0  0  0  0  0
    4.3871  -19.1313   20.6033 C   0  0  0  0  0  0  0  0  0  0  0  0
    5.0535  -17.9073   20.1321 C   0  0  0  0  0  0  0  0  0  0  0  0
    6.4828  -17.6788   20.4529 C   0  0  2  0  0  0  0  0  0  0  0  0
    6.9045  -18.3003   21.6808 N   0  0  0  0  0  0  0  0  0  0  0  0
    6.7047  -16.1858   20.5892 C   0  0  0  0  0  0  0  0  0  0  0  0
    6.2639  -15.3983   19.7062 O   0  0  0  0  0  0  0  0  0  0  0  0
    2.5417  -22.6397   21.0940 N   0  0  0  0  0  0  0  0  0  0  0  0
    7.4002  -15.6969   21.6975 C   0  0  0  0  0  0  0  0  0  0  0  0
    7.0341  -14.4660   22.3895 C   0  0  0  0  0  0  0  0  0  0  0  0
    7.8343  -14.2766   23.6119 O   0  0  0  0  0  0  0  0  0  0  0  0
    9.0175  -14.6883   23.6657 C   0  0  0  0  0  0  0  0  0  0  0  0
    5.9801  -12.4839   27.0765 C   0  0  1  0  0  0  0  0  0  0  0  0
    7.4147  -12.1891   26.7084 C   0  0  0  0  0  0  0  0  0  0  0  0
    7.4508  -10.9150   25.9096 C   0  0  1  0  0  0  0  0  0  0  0  0
    8.0261  -13.3504   25.9262 N   0  0  0  0  0  0  0  0  0  0  0  0
    7.2481  -13.6215   24.7294 C   0  0  0  0  0  0  0  0  0  0  0  0
    7.9486  -14.5304   26.8046 O   0  0  0  0  0  0  0  0  0  0  0  0
    8.6846  -14.6157   27.8076 O   0  0  0  0  0  0  0  0  0  0  0  0
  2  1  1  0
  3  2  2  0
  4  2  1  0
  5  4  1  0
  6  5  1  0
  7  6  1  0
  8  7  1  0
  8 10  1  0
  8  9  1  1
 10 12  1  0
 11 10  2  0
 12 13  1  0
 13 14  1  0
 14 15  2  0
 14 20  1  0
 17 16  1  1
 17 19  1  0
 18 17  1  0
 19 21  1  0
 19 20  1  6
 21 22  2  0
 21 23  1  0
M  END
$$$$
