RGV.pdb
     RDKit          3D

 23 22  0  0  1  0  0  0  0  0999 V2000
    6.4946  -14.2566   14.8809 N   0  0  0  0  0  0  0  0  0  0  0  0
    7.8370  -14.1777   14.3922 C   0  0  0  0  0  0  0  0  0  0  0  0
    7.9957  -13.8857   13.1571 N   0  0  0  0  0  0  0  0  0  0  0  0
    8.9138  -14.4251   15.2916 N   0  0  0  0  0  0  0  0  0  0  0  0
    8.6132  -14.6088   16.6666 C   0  0  0  0  0  0  0  0  0  0  0  0
    8.4383  -13.4296   17.5336 C   0  0  0  0  0  0  0  0  0  0  0  0
    8.0107  -13.6051   18.9302 C   0  0  0  0  0  0  0  0  0  0  0  0
    8.9647  -14.1450   19.9285 C   0  0  2  0  0  0  0  0  0  0  0  0
    9.5155  -15.4245   19.5662 N   0  0  0  0  0  0  0  0  0  0  0  0
    8.2300  -14.3122   21.2434 C   0  0  0  0  0  0  0  0  0  0  0  0
    7.6700  -13.3187   21.7852 O   0  0  0  0  0  0  0  0  0  0  0  0
    8.8884  -13.7961   12.6478 N   0  0  0  0  0  0  0  0  0  0  0  0
    8.1826  -15.5725   21.8440 C   0  0  0  0  0  0  0  0  0  0  0  0
    7.4579  -15.8395   23.0816 C   0  0  0  0  0  0  0  0  0  0  0  0
    8.1563  -15.2723   24.2481 O   0  0  0  0  0  0  0  0  0  0  0  0
    9.3651  -15.5353   24.4534 C   0  0  0  0  0  0  0  0  0  0  0  0
    5.8924  -12.9794   27.1057 C   0  0  1  0  0  0  0  0  0  0  0  0
    7.3225  -12.6154   26.7847 C   0  0  0  0  0  0  0  0  0  0  0  0
    7.3168  -11.5220   25.7518 C   0  0  1  0  0  0  0  0  0  0  0  0
    8.0984  -13.8366   26.2940 N   0  0  0  0  0  0  0  0  0  0  0  0
    7.4426  -14.4237   25.1381 C   0  0  0  0  0  0  0  0  0  0  0  0
    8.0664  -14.8188   27.3915 O   0  0  0  0  0  0  0  0  0  0  0  0
    7.2882  -15.7919   27.3404 O   0  0  0  0  0  0  0  0  0  0  0  0
  2  1  1  0
  3  2  2  0
  4  2  1  0
  5  4  1  0
  6  5  1  0
  7  6  1  0
  8  7  1  0
  8 10  1  0
  8  9  1  6
 10 12  1  0
 11 10  2  0
 12 13  1  0
 13 14  1  0
 14 15  2  0
 14 20  1  0
 17 16  1  1
 17 19  1  0
 18 17  1  0
 19 21  1  0
 19 20  1  6
 21 22  2  0
 21 23  1  0
M  END
$$$$
