RGV.pdb
     RDKit          3D

 23 22  0  0  1  0  0  0  0  0999 V2000
    9.3522  -15.4585   15.6205 N   0  0  0  0  0  0  0  0  0  0  0  0
    8.4620  -14.7144   14.7835 C   0  0  0  0  0  0  0  0  0  0  0  0
    8.6442  -14.7895   13.5197 N   0  0  0  0  0  0  0  0  0  0  0  0
    7.4327  -13.9381   15.3898 N   0  0  0  0  0  0  0  0  0  0  0  0
    7.1947  -14.1042   16.7792 C   0  0  0  0  0  0  0  0  0  0  0  0
    8.0244  -13.3673   17.7494 C   0  0  0  0  0  0  0  0  0  0  0  0
    7.7825  -13.5295   19.1914 C   0  0  0  0  0  0  0  0  0  0  0  0
    8.9137  -13.8490   20.0949 C   0  0  2  0  0  0  0  0  0  0  0  0
    9.7201  -14.9516   19.6413 N   0  0  0  0  0  0  0  0  0  0  0  0
    8.3470  -14.2165   21.4515 C   0  0  0  0  0  0  0  0  0  0  0  0
    7.5247  -13.4471   22.0224 O   0  0  0  0  0  0  0  0  0  0  0  0
    8.1527  -14.2556   12.7865 N   0  0  0  0  0  0  0  0  0  0  0  0
    8.7457  -15.4101   22.0578 C   0  0  0  0  0  0  0  0  0  0  0  0
    8.1488  -15.9179   23.2882 C   0  0  0  0  0  0  0  0  0  0  0  0
    8.6614  -15.2038   24.4705 O   0  0  0  0  0  0  0  0  0  0  0  0
    9.8508  -15.3562   24.8373 C   0  0  0  0  0  0  0  0  0  0  0  0
    5.8452  -13.2838   27.0399 C   0  0  1  0  0  0  0  0  0  0  0  0
    7.2034  -12.6486   26.8600 C   0  0  0  0  0  0  0  0  0  0  0  0
    7.0794  -11.5304   25.8615 C   0  0  1  0  0  0  0  0  0  0  0  0
    8.2330  -13.6829   26.4079 N   0  0  0  0  0  0  0  0  0  0  0  0
    7.7906  -14.3404   25.1901 C   0  0  0  0  0  0  0  0  0  0  0  0
    8.3058  -14.6929   27.4778 O   0  0  0  0  0  0  0  0  0  0  0  0
    7.7471  -15.7987   27.3361 O   0  0  0  0  0  0  0  0  0  0  0  0
  2  1  1  0
  3  2  2  0
  4  2  1  0
  5  4  1  0
  6  5  1  0
  7  6  1  0
  8  7  1  0
  8 10  1  0
  8  9  1  6
 10 12  1  0
 11 10  2  0
 12 13  1  0
 13 14  1  0
 14 15  2  0
 14 20  1  0
 17 16  1  1
 17 19  1  0
 18 17  1  0
 19 21  1  0
 19 20  1  6
 21 22  2  0
 21 23  1  0
M  END
$$$$
