RGV.pdb
     RDKit          3D

 23 22  0  0  1  0  0  0  0  0999 V2000
    8.8585  -15.1804   16.1564 N   0  0  0  0  0  0  0  0  0  0  0  0
    8.4345  -13.8411   15.8860 C   0  0  0  0  0  0  0  0  0  0  0  0
    8.2921  -13.5069   14.6596 N   0  0  0  0  0  0  0  0  0  0  0  0
    8.1959  -12.9593   16.9792 N   0  0  0  0  0  0  0  0  0  0  0  0
    8.3495  -13.4644   18.2968 C   0  0  0  0  0  0  0  0  0  0  0  0
    7.1518  -13.7510   19.1068 C   0  0  0  0  0  0  0  0  0  0  0  0
    7.3002  -14.2954   20.4654 C   0  0  0  0  0  0  0  0  0  0  0  0
    8.5925  -14.8915   20.8810 C   0  0  2  0  0  0  0  0  0  0  0  0
    8.9420  -16.0794   20.1471 N   0  0  0  0  0  0  0  0  0  0  0  0
    8.4923  -15.2649   22.3464 C   0  0  0  0  0  0  0  0  0  0  0  0
    8.2109  -14.3832   23.2053 O   0  0  0  0  0  0  0  0  0  0  0  0
    7.9808  -12.5935   14.2948 N   0  0  0  0  0  0  0  0  0  0  0  0
    8.7154  -16.5891   22.7308 C   0  0  0  0  0  0  0  0  0  0  0  0
    8.6636  -17.0364   24.1184 C   0  0  0  0  0  0  0  0  0  0  0  0
    9.7414  -16.4314   24.9201 O   0  0  0  0  0  0  0  0  0  0  0  0
   10.8820  -16.2646   24.4266 C   0  0  0  0  0  0  0  0  0  0  0  0
   11.0765  -13.5928   28.6546 C   0  0  1  0  0  0  0  0  0  0  0  0
   10.0495  -14.1384   27.6913 C   0  0  0  0  0  0  0  0  0  0  0  0
    8.7455  -14.2993   28.4236 C   0  0  2  0  0  0  0  0  0  0  0  0
   10.5151  -15.4644   27.0918 N   0  0  0  0  0  0  0  0  0  0  0  0
    9.4719  -16.0394   26.2600 C   0  0  0  0  0  0  0  0  0  0  0  0
   10.7544  -16.3729   28.2265 O   0  0  0  0  0  0  0  0  0  0  0  0
    9.8911  -17.2120   28.5515 O   0  0  0  0  0  0  0  0  0  0  0  0
  2  1  1  0
  3  2  2  0
  4  2  1  0
  5  4  1  0
  6  5  1  0
  7  6  1  0
  8  7  1  0
  8 10  1  0
  8  9  1  6
 10 12  1  0
 11 10  2  0
 12 13  1  0
 13 14  1  0
 14 15  2  0
 14 20  1  0
 17 16  1  6
 17 19  1  0
 18 17  1  0
 19 21  1  0
 19 20  1  1
 21 22  2  0
 21 23  1  0
M  END
$$$$
