RGV.pdb
     RDKit          3D

 23 22  0  0  1  0  0  0  0  0999 V2000
    7.2320  -14.0634   15.6081 N   0  0  0  0  0  0  0  0  0  0  0  0
    8.1526  -13.6252   16.6118 C   0  0  0  0  0  0  0  0  0  0  0  0
    9.3845  -13.9292   16.4512 N   0  0  0  0  0  0  0  0  0  0  0  0
    7.6590  -12.8837   17.7236 N   0  0  0  0  0  0  0  0  0  0  0  0
    6.8354  -13.5527   18.6663 C   0  0  0  0  0  0  0  0  0  0  0  0
    7.2330  -14.8837   19.1595 C   0  0  0  0  0  0  0  0  0  0  0  0
    8.3200  -15.0050   20.1433 C   0  0  0  0  0  0  0  0  0  0  0  0
    8.2775  -16.0874   21.1556 C   0  0  2  0  0  0  0  0  0  0  0  0
    7.0703  -16.0967   21.9393 N   0  0  0  0  0  0  0  0  0  0  0  0
    9.4442  -15.8952   22.1036 C   0  0  0  0  0  0  0  0  0  0  0  0
   10.4876  -15.3034   21.7098 O   0  0  0  0  0  0  0  0  0  0  0  0
   10.1893  -13.5746   16.9906 N   0  0  0  0  0  0  0  0  0  0  0  0
    9.3495  -16.3799   23.4103 C   0  0  0  0  0  0  0  0  0  0  0  0
   10.4884  -16.4506   24.3191 C   0  0  0  0  0  0  0  0  0  0  0  0
   10.3451  -15.5022   25.4374 O   0  0  0  0  0  0  0  0  0  0  0  0
   11.2979  -15.3058   26.2287 C   0  0  0  0  0  0  0  0  0  0  0  0
    6.3701  -14.1756   26.4626 C   0  0  1  0  0  0  0  0  0  0  0  0
    7.5507  -13.2580   26.6738 C   0  0  0  0  0  0  0  0  0  0  0  0
    7.6284  -12.3045   25.5131 C   0  0  1  0  0  0  0  0  0  0  0  0
    8.8437  -14.0587   26.8201 N   0  0  0  0  0  0  0  0  0  0  0  0
    9.1133  -14.8131   25.6080 C   0  0  0  0  0  0  0  0  0  0  0  0
    8.6196  -15.0142   27.9186 O   0  0  0  0  0  0  0  0  0  0  0  0
    8.2291  -16.1727   27.6729 O   0  0  0  0  0  0  0  0  0  0  0  0
  2  1  1  0
  3  2  2  0
  4  2  1  0
  5  4  1  0
  6  5  1  0
  7  6  1  0
  8  7  1  0
  8 10  1  0
  8  9  1  1
 10 12  1  0
 11 10  2  0
 12 13  1  0
 13 14  1  0
 14 15  2  0
 14 20  1  0
 17 16  1  1
 17 19  1  0
 18 17  1  0
 19 21  1  0
 19 20  1  6
 21 22  2  0
 21 23  1  0
M  END
$$$$
