RGV.pdb
     RDKit          3D

 23 22  0  0  1  0  0  0  0  0999 V2000
    8.7221  -14.2705   13.3077 N   0  0  0  0  0  0  0  0  0  0  0  0
    8.8266  -15.6740   13.5647 C   0  0  0  0  0  0  0  0  0  0  0  0
    8.1112  -16.4565   12.8493 N   0  0  0  0  0  0  0  0  0  0  0  0
    9.7086  -16.1236   14.5892 N   0  0  0  0  0  0  0  0  0  0  0  0
    9.6629  -15.4726   15.8496 C   0  0  0  0  0  0  0  0  0  0  0  0
    8.4718  -14.6850   16.2154 C   0  0  0  0  0  0  0  0  0  0  0  0
    8.3785  -14.0771   17.5517 C   0  0  0  0  0  0  0  0  0  0  0  0
    8.6294  -14.9059   18.7552 C   0  0  2  0  0  0  0  0  0  0  0  0
    7.9933  -16.1963   18.7094 N   0  0  0  0  0  0  0  0  0  0  0  0
    8.0883  -14.1651   19.9616 C   0  0  0  0  0  0  0  0  0  0  0  0
    8.4932  -12.9975   20.2200 O   0  0  0  0  0  0  0  0  0  0  0  0
    8.0668  -17.4857   12.9054 N   0  0  0  0  0  0  0  0  0  0  0  0
    7.1425  -14.7889   20.7786 C   0  0  0  0  0  0  0  0  0  0  0  0
    6.5146  -14.1299   21.9186 C   0  0  0  0  0  0  0  0  0  0  0  0
    7.3743  -14.1855   23.1137 O   0  0  0  0  0  0  0  0  0  0  0  0
    8.4454  -14.8374   23.0949 C   0  0  0  0  0  0  0  0  0  0  0  0
    8.1397  -12.5075   27.7498 C   0  0  1  0  0  0  0  0  0  0  0  0
    7.2712  -12.5158   26.5144 C   0  0  0  0  0  0  0  0  0  0  0  0
    5.8629  -12.8509   26.9227 C   0  0  2  0  0  0  0  0  0  0  0  0
    7.8004  -13.5111   25.4830 N   0  0  0  0  0  0  0  0  0  0  0  0
    6.9741  -13.4912   24.2882 C   0  0  0  0  0  0  0  0  0  0  0  0
    7.6912  -14.8452   26.0979 O   0  0  0  0  0  0  0  0  0  0  0  0
    6.6843  -15.5512   25.8910 O   0  0  0  0  0  0  0  0  0  0  0  0
  2  1  1  0
  3  2  2  0
  4  2  1  0
  5  4  1  0
  6  5  1  0
  7  6  1  0
  8  7  1  0
  8 10  1  0
  8  9  1  6
 10 12  1  0
 11 10  2  0
 12 13  1  0
 13 14  1  0
 14 15  2  0
 14 20  1  0
 17 16  1  1
 17 19  1  0
 18 17  1  0
 19 21  1  0
 19 20  1  1
 21 22  2  0
 21 23  1  0
M  END
$$$$
