RGV.pdb
     RDKit          3D

 23 22  0  0  1  0  0  0  0  0999 V2000
    8.7096  -14.1544   18.5741 N   0  0  0  0  0  0  0  0  0  0  0  0
    8.3024  -13.4511   19.7515 C   0  0  0  0  0  0  0  0  0  0  0  0
    8.4939  -12.1867   19.7756 N   0  0  0  0  0  0  0  0  0  0  0  0
    7.7131  -14.1828   20.8225 N   0  0  0  0  0  0  0  0  0  0  0  0
    6.5771  -14.9866   20.5433 C   0  0  0  0  0  0  0  0  0  0  0  0
    6.7609  -16.3062   19.9127 C   0  0  0  0  0  0  0  0  0  0  0  0
    7.1914  -17.4531   20.7272 C   0  0  0  0  0  0  0  0  0  0  0  0
    6.2034  -18.1672   21.5710 C   0  0  2  0  0  0  0  0  0  0  0  0
    4.8794  -18.1984   21.0073 N   0  0  0  0  0  0  0  0  0  0  0  0
    6.1215  -17.4576   22.9076 C   0  0  0  0  0  0  0  0  0  0  0  0
    5.2033  -16.6179   23.1220 O   0  0  0  0  0  0  0  0  0  0  0  0
    8.1868  -11.5238   20.5040 N   0  0  0  0  0  0  0  0  0  0  0  0
    7.0707  -17.7430   23.8919 C   0  0  0  0  0  0  0  0  0  0  0  0
    7.0239  -17.1735   25.2341 C   0  0  0  0  0  0  0  0  0  0  0  0
    8.1735  -16.2866   25.4836 O   0  0  0  0  0  0  0  0  0  0  0  0
    9.1078  -16.2097   24.6506 C   0  0  0  0  0  0  0  0  0  0  0  0
    8.3369  -13.9493   29.1557 C   0  0  1  0  0  0  0  0  0  0  0  0
    8.8249  -13.4414   27.8198 C   0  0  0  0  0  0  0  0  0  0  0  0
    7.7081  -12.6784   27.1617 C   0  0  1  0  0  0  0  0  0  0  0  0
    9.3011  -14.5955   26.9392 N   0  0  0  0  0  0  0  0  0  0  0  0
    8.2104  -15.5197   26.6802 C   0  0  0  0  0  0  0  0  0  0  0  0
   10.3363  -15.3068   27.7089 O   0  0  0  0  0  0  0  0  0  0  0  0
   10.0623  -16.3746   28.2918 O   0  0  0  0  0  0  0  0  0  0  0  0
  2  1  1  0
  3  2  2  0
  4  2  1  0
  5  4  1  0
  6  5  1  0
  7  6  1  0
  8  7  1  0
  8 10  1  0
  8  9  1  6
 10 12  1  0
 11 10  2  0
 12 13  1  0
 13 14  1  0
 14 15  2  0
 14 20  1  0
 17 16  1  1
 17 19  1  0
 18 17  1  0
 19 21  1  0
 19 20  1  1
 21 22  2  0
 21 23  1  0
M  END
$$$$
