RGV.pdb
     RDKit          3D

 23 22  0  0  1  0  0  0  0  0999 V2000
    8.3471  -15.2177   16.0212 N   0  0  0  0  0  0  0  0  0  0  0  0
    8.0029  -13.9143   15.5419 C   0  0  0  0  0  0  0  0  0  0  0  0
    8.1761  -13.6825   14.2960 N   0  0  0  0  0  0  0  0  0  0  0  0
    7.4926  -12.9538   16.4620 N   0  0  0  0  0  0  0  0  0  0  0  0
    7.1804  -13.3830   17.7785 C   0  0  0  0  0  0  0  0  0  0  0  0
    8.2717  -13.6242   18.7396 C   0  0  0  0  0  0  0  0  0  0  0  0
    7.9620  -14.1217   20.0889 C   0  0  0  0  0  0  0  0  0  0  0  0
    8.7502  -15.2408   20.6584 C   0  0  2  0  0  0  0  0  0  0  0  0
    8.3130  -16.5384   20.2144 N   0  0  0  0  0  0  0  0  0  0  0  0
    8.6134  -15.1969   22.1671 C   0  0  0  0  0  0  0  0  0  0  0  0
    8.9972  -14.1784   22.8069 O   0  0  0  0  0  0  0  0  0  0  0  0
    7.9930  -12.7994   13.7952 N   0  0  0  0  0  0  0  0  0  0  0  0
    8.0614  -16.2925   22.8351 C   0  0  0  0  0  0  0  0  0  0  0  0
    7.7248  -16.2743   24.2544 C   0  0  0  0  0  0  0  0  0  0  0  0
    8.9322  -16.1818   25.0935 O   0  0  0  0  0  0  0  0  0  0  0  0
   10.0352  -16.5981   24.6660 C   0  0  0  0  0  0  0  0  0  0  0  0
   11.0325  -13.9732   28.9892 C   0  0  1  0  0  0  0  0  0  0  0  0
    9.8920  -14.1116   28.0090 C   0  0  0  0  0  0  0  0  0  0  0  0
    8.5971  -14.0626   28.7727 C   0  0  2  0  0  0  0  0  0  0  0  0
   10.0148  -15.4081   27.2100 N   0  0  0  0  0  0  0  0  0  0  0  0
    8.8310  -15.6150   26.3935 C   0  0  0  0  0  0  0  0  0  0  0  0
   10.0920  -16.4993   28.1965 O   0  0  0  0  0  0  0  0  0  0  0  0
    9.0774  -17.1704   28.4708 O   0  0  0  0  0  0  0  0  0  0  0  0
  2  1  1  0
  3  2  2  0
  4  2  1  0
  5  4  1  0
  6  5  1  0
  7  6  1  0
  8  7  1  0
  8 10  1  0
  8  9  1  6
 10 12  1  0
 11 10  2  0
 12 13  1  0
 13 14  1  0
 14 15  2  0
 14 20  1  0
 17 16  1  6
 17 19  1  0
 18 17  1  0
 19 21  1  0
 19 20  1  1
 21 22  2  0
 21 23  1  0
M  END
$$$$
