RGV.pdb
     RDKit          3D

 23 22  0  0  1  0  0  0  0  0999 V2000
    8.8577  -15.3898   16.2689 N   0  0  0  0  0  0  0  0  0  0  0  0
    8.3227  -14.0673   16.1601 C   0  0  0  0  0  0  0  0  0  0  0  0
    8.0808  -13.6270   14.9838 N   0  0  0  0  0  0  0  0  0  0  0  0
    8.0898  -13.3178   17.3491 N   0  0  0  0  0  0  0  0  0  0  0  0
    8.2006  -13.9846   18.5972 C   0  0  0  0  0  0  0  0  0  0  0  0
    7.1773  -14.9726   18.9839 C   0  0  0  0  0  0  0  0  0  0  0  0
    7.5601  -16.3764   19.2000 C   0  0  0  0  0  0  0  0  0  0  0  0
    7.7002  -16.8956   20.5816 C   0  0  2  0  0  0  0  0  0  0  0  0
    6.5240  -16.7085   21.3898 N   0  0  0  0  0  0  0  0  0  0  0  0
    8.8439  -16.1595   21.2503 C   0  0  0  0  0  0  0  0  0  0  0  0
   10.0284  -16.3359   20.8507 O   0  0  0  0  0  0  0  0  0  0  0  0
    7.7330  -12.6899   14.7287 N   0  0  0  0  0  0  0  0  0  0  0  0
    8.5705  -15.2900   22.3089 C   0  0  0  0  0  0  0  0  0  0  0  0
    9.5715  -14.4027   22.8909 C   0  0  0  0  0  0  0  0  0  0  0  0
    9.5611  -14.4704   24.3626 O   0  0  0  0  0  0  0  0  0  0  0  0
   10.5470  -14.9342   24.9833 C   0  0  0  0  0  0  0  0  0  0  0  0
    5.9472  -13.8798   26.5285 C   0  0  1  0  0  0  0  0  0  0  0  0
    7.1819  -13.1509   27.0030 C   0  0  0  0  0  0  0  0  0  0  0  0
    7.1181  -11.7315   26.5093 C   0  0  1  0  0  0  0  0  0  0  0  0
    8.4491  -13.8507   26.5142 N   0  0  0  0  0  0  0  0  0  0  0  0
    8.4192  -14.0038   25.0698 C   0  0  0  0  0  0  0  0  0  0  0  0
    8.4438  -15.1929   27.1212 O   0  0  0  0  0  0  0  0  0  0  0  0
    8.0731  -16.1808   26.4565 O   0  0  0  0  0  0  0  0  0  0  0  0
  2  1  1  0
  3  2  2  0
  4  2  1  0
  5  4  1  0
  6  5  1  0
  7  6  1  0
  8  7  1  0
  8 10  1  0
  8  9  1  1
 10 12  1  0
 11 10  2  0
 12 13  1  0
 13 14  1  0
 14 15  2  0
 14 20  1  0
 17 16  1  1
 17 19  1  0
 18 17  1  0
 19 21  1  0
 19 20  1  6
 21 22  2  0
 21 23  1  0
M  END
$$$$
