RGV.pdb
     RDKit          3D

 23 22  0  0  1  0  0  0  0  0999 V2000
    9.4618  -13.4846   18.3045 N   0  0  0  0  0  0  0  0  0  0  0  0
    8.0501  -13.2523   18.3111 C   0  0  0  0  0  0  0  0  0  0  0  0
    7.6554  -12.0392   18.4038 N   0  0  0  0  0  0  0  0  0  0  0  0
    7.1675  -14.3665   18.2161 N   0  0  0  0  0  0  0  0  0  0  0  0
    7.4138  -15.4925   19.0445 C   0  0  0  0  0  0  0  0  0  0  0  0
    8.0595  -15.2998   20.3555 C   0  0  0  0  0  0  0  0  0  0  0  0
    7.4361  -15.8546   21.5670 C   0  0  0  0  0  0  0  0  0  0  0  0
    7.8604  -17.1836   22.0690 C   0  0  2  0  0  0  0  0  0  0  0  0
    7.1320  -17.6203   23.2311 N   0  0  0  0  0  0  0  0  0  0  0  0
    9.3264  -17.1019   22.4445 C   0  0  0  0  0  0  0  0  0  0  0  0
   10.1963  -16.8936   21.5535 O   0  0  0  0  0  0  0  0  0  0  0  0
    6.6816  -11.6986   18.3971 N   0  0  0  0  0  0  0  0  0  0  0  0
    9.6990  -17.2607   23.7814 C   0  0  0  0  0  0  0  0  0  0  0  0
   11.0834  -17.1949   24.2367 C   0  0  0  0  0  0  0  0  0  0  0  0
   11.2061  -16.4079   25.4762 O   0  0  0  0  0  0  0  0  0  0  0  0
   12.3235  -16.2601   26.0257 C   0  0  0  0  0  0  0  0  0  0  0  0
    8.9166  -13.1675   26.1294 C   0  0  1  0  0  0  0  0  0  0  0  0
    8.9561  -14.0566   27.3494 C   0  0  0  0  0  0  0  0  0  0  0  0
    9.0645  -13.1864   28.5715 C   0  0  2  0  0  0  0  0  0  0  0  0
   10.1199  -15.0431   27.2672 N   0  0  0  0  0  0  0  0  0  0  0  0
   10.0419  -15.8188   26.0411 C   0  0  0  0  0  0  0  0  0  0  0  0
    9.9665  -15.9638   28.4068 O   0  0  0  0  0  0  0  0  0  0  0  0
    9.3659  -17.0470   28.2621 O   0  0  0  0  0  0  0  0  0  0  0  0
  2  1  1  0
  3  2  2  0
  4  2  1  0
  5  4  1  0
  6  5  1  0
  7  6  1  0
  8  7  1  0
  8 10  1  0
  8  9  1  1
 10 12  1  0
 11 10  2  0
 12 13  1  0
 13 14  1  0
 14 15  2  0
 14 20  1  0
 17 16  1  1
 17 19  1  0
 18 17  1  0
 19 21  1  0
 19 20  1  6
 21 22  2  0
 21 23  1  0
M  END
$$$$
