RGV.pdb
     RDKit          3D

 23 22  0  0  1  0  0  0  0  0999 V2000
    9.0735  -13.6640   17.2979 N   0  0  0  0  0  0  0  0  0  0  0  0
    8.4122  -13.1464   18.4562 C   0  0  0  0  0  0  0  0  0  0  0  0
    8.8634  -12.0571   18.9519 N   0  0  0  0  0  0  0  0  0  0  0  0
    7.3013  -13.8594   18.9922 N   0  0  0  0  0  0  0  0  0  0  0  0
    7.0147  -15.1484   18.4717 C   0  0  0  0  0  0  0  0  0  0  0  0
    7.9895  -16.2382   18.6584 C   0  0  0  0  0  0  0  0  0  0  0  0
    7.7127  -17.3096   19.6277 C   0  0  0  0  0  0  0  0  0  0  0  0
    8.5794  -17.4631   20.8208 C   0  0  2  0  0  0  0  0  0  0  0  0
    8.6352  -18.8107   21.3232 N   0  0  0  0  0  0  0  0  0  0  0  0
    8.0291  -16.5801   21.9227 C   0  0  0  0  0  0  0  0  0  0  0  0
    8.0559  -15.3239   21.7985 O   0  0  0  0  0  0  0  0  0  0  0  0
    8.5497  -11.5888   19.8160 N   0  0  0  0  0  0  0  0  0  0  0  0
    7.4964  -17.1719   23.0704 C   0  0  0  0  0  0  0  0  0  0  0  0
    6.7906  -16.4192   24.1016 C   0  0  0  0  0  0  0  0  0  0  0  0
    7.6936  -15.4917   24.8050 O   0  0  0  0  0  0  0  0  0  0  0  0
    8.9155  -15.4612   24.5247 C   0  0  0  0  0  0  0  0  0  0  0  0
    6.0419  -12.9401   27.8465 C   0  0  1  0  0  0  0  0  0  0  0  0
    7.1312  -12.4528   26.9210 C   0  0  0  0  0  0  0  0  0  0  0  0
    6.4907  -11.7268   25.7698 C   0  0  1  0  0  0  0  0  0  0  0  0
    7.9914  -13.6168   26.4317 N   0  0  0  0  0  0  0  0  0  0  0  0
    7.1623  -14.6322   25.8053 C   0  0  0  0  0  0  0  0  0  0  0  0
    8.6161  -14.2049   27.6292 O   0  0  0  0  0  0  0  0  0  0  0  0
    8.2184  -15.3014   28.0703 O   0  0  0  0  0  0  0  0  0  0  0  0
  2  1  1  0
  3  2  2  0
  4  2  1  0
  5  4  1  0
  6  5  1  0
  7  6  1  0
  8  7  1  0
  8 10  1  0
  8  9  1  1
 10 12  1  0
 11 10  2  0
 12 13  1  0
 13 14  1  0
 14 15  2  0
 14 20  1  0
 17 16  1  1
 17 19  1  0
 18 17  1  0
 19 21  1  0
 19 20  1  6
 21 22  2  0
 21 23  1  0
M  END
$$$$
