RGV.pdb
     RDKit          3D

 23 22  0  0  1  0  0  0  0  0999 V2000
    7.8247  -14.0196   15.5486 N   0  0  0  0  0  0  0  0  0  0  0  0
    7.6447  -13.8649   16.9594 C   0  0  0  0  0  0  0  0  0  0  0  0
    7.9906  -12.7471   17.4761 N   0  0  0  0  0  0  0  0  0  0  0  0
    7.0979  -14.9469   17.7076 N   0  0  0  0  0  0  0  0  0  0  0  0
    7.9736  -15.9777   18.1379 C   0  0  0  0  0  0  0  0  0  0  0  0
    9.4241  -15.7206   18.1911 C   0  0  0  0  0  0  0  0  0  0  0  0
   10.0919  -15.5616   19.4922 C   0  0  0  0  0  0  0  0  0  0  0  0
    9.8281  -16.5365   20.5776 C   0  0  2  0  0  0  0  0  0  0  0  0
    8.5153  -17.1236   20.5186 N   0  0  0  0  0  0  0  0  0  0  0  0
    9.9535  -15.8140   21.9039 C   0  0  0  0  0  0  0  0  0  0  0  0
   10.9533  -15.0768   22.1298 O   0  0  0  0  0  0  0  0  0  0  0  0
    7.8285  -12.4317   18.4449 N   0  0  0  0  0  0  0  0  0  0  0  0
    8.9544  -15.9753   22.8667 C   0  0  0  0  0  0  0  0  0  0  0  0
    8.8935  -15.1868   24.0926 C   0  0  0  0  0  0  0  0  0  0  0  0
    9.7559  -15.7561   25.1428 O   0  0  0  0  0  0  0  0  0  0  0  0
   10.6295  -16.6079   24.8536 C   0  0  0  0  0  0  0  0  0  0  0  0
   11.5141  -14.8061   29.6948 C   0  0  1  0  0  0  0  0  0  0  0  0
   10.5565  -14.4861   28.5717 C   0  0  0  0  0  0  0  0  0  0  0  0
    9.1692  -14.3781   29.1429 C   0  0  2  0  0  0  0  0  0  0  0  0
   10.6237  -15.5513   27.4784 N   0  0  0  0  0  0  0  0  0  0  0  0
    9.5847  -15.3278   26.4877 C   0  0  0  0  0  0  0  0  0  0  0  0
   10.3626  -16.8422   28.1383 O   0  0  0  0  0  0  0  0  0  0  0  0
    9.2205  -17.3418   28.1101 O   0  0  0  0  0  0  0  0  0  0  0  0
  2  1  1  0
  3  2  2  0
  4  2  1  0
  5  4  1  0
  6  5  1  0
  7  6  1  0
  8  7  1  0
  8 10  1  0
  8  9  1  6
 10 12  1  0
 11 10  2  0
 12 13  1  0
 13 14  1  0
 14 15  2  0
 14 20  1  0
 17 16  1  1
 17 19  1  0
 18 17  1  0
 19 21  1  0
 19 20  1  1
 21 22  2  0
 21 23  1  0
M  END
$$$$
