AWP.pdb
     RDKit          3D

 27 29  0  0  1  0  0  0  0  0999 V2000
   27.1137  -17.2273  -15.0641 C   0  0  0  0  0  0  0  0  0  0  0  0
   28.2944  -17.8400  -14.3197 C   0  0  2  0  0  0  0  0  0  0  0  0
   29.2192  -18.4141  -15.2525 N   0  0  0  0  0  0  0  0  0  0  0  0
   27.7256  -18.8784  -13.4187 C   0  0  0  0  0  0  0  0  0  0  0  0
   27.5475  -20.0521  -13.8323 O   0  0  0  0  0  0  0  0  0  0  0  0
   27.3584  -18.6061  -12.0638 N   0  0  0  0  0  0  0  0  0  0  0  0
   26.8711  -19.6153  -11.1613 C   0  0  1  0  0  0  0  0  0  0  0  0
   27.0074  -19.0491   -9.8007 C   0  0  0  0  0  0  0  0  0  0  0  0
   26.6751  -19.8386   -8.6593 C   0  0  0  0  0  0  0  0  0  0  0  0
   25.6427  -20.7547   -8.6283 C   0  0  0  0  0  0  0  0  0  0  0  0
   25.5870  -21.3346   -7.4215 N   0  0  0  0  0  0  0  0  0  0  0  0
   26.5570  -20.8316   -6.6383 C   0  0  0  0  0  0  0  0  0  0  0  0
   26.9405  -21.0694   -5.3362 C   0  0  0  0  0  0  0  0  0  0  0  0
   28.0060  -20.3657   -4.8186 C   0  0  0  0  0  0  0  0  0  0  0  0
   28.6809  -19.4336   -5.5962 C   0  0  0  0  0  0  0  0  0  0  0  0
   28.3077  -19.1846   -6.9034 C   0  0  0  0  0  0  0  0  0  0  0  0
   27.2399  -19.8966   -7.4063 C   0  0  0  0  0  0  0  0  0  0  0  0
   25.4918  -19.9537  -11.5439 C   0  0  0  0  0  0  0  0  0  0  0  0
   24.7649  -18.8843  -11.7934 O   0  0  0  0  0  0  0  0  0  0  0  0
   24.8362  -21.1467  -11.6865 N   0  0  0  0  0  0  0  0  0  0  0  0
   25.3944  -22.4388  -11.2219 C   0  0  0  0  0  0  0  0  0  0  0  0
   24.7042  -23.5142  -11.9804 C   0  0  0  0  0  0  0  0  0  0  0  0
   23.7025  -22.8784  -12.8729 C   0  0  0  0  0  0  0  0  0  0  0  0
   23.5660  -21.4729  -12.2648 C   0  0  1  0  0  0  0  0  0  0  0  0
   22.5046  -21.6266  -11.2189 C   0  0  0  0  0  0  0  0  0  0  0  0
   21.1826  -21.7964  -11.6003 O   0  0  0  0  0  0  0  0  0  0  0  0
   22.7619  -21.6086   -9.9901 O   0  0  0  0  0  0  0  0  0  0  0  0
  2  1  1  6
  2  3  1  0
  4  2  1  0
  5  4  2  0
  6  4  1  0
  7  6  1  0
  8  9  1  0
  7  8  1  1
  9 17  1  0
 10  9  2  0
 10 11  1  0
 11 12  1  0
 12 13  1  0
 13 14  2  0
 15 14  1  0
 16 15  2  0
 17 12  2  0
 17 16  1  0
 18 20  1  0
 18  7  1  0
 19 18  2  0
 20 21  1  0
 21 22  1  0
 23 22  1  0
 24 23  1  0
 24 20  1  0
 25 26  1  0
 24 25  1  1
 27 25  2  0
M  END
$$$$
