AWP.pdb
     RDKit          3D

 27 29  0  0  1  0  0  0  0  0999 V2000
   23.9198  -17.4021  -14.0151 C   0  0  0  0  0  0  0  0  0  0  0  0
   25.4248  -17.3440  -13.7803 C   0  0  2  0  0  0  0  0  0  0  0  0
   26.1217  -17.4580  -15.0278 N   0  0  0  0  0  0  0  0  0  0  0  0
   25.7500  -18.4810  -12.8773 C   0  0  0  0  0  0  0  0  0  0  0  0
   25.7671  -19.6586  -13.3170 O   0  0  0  0  0  0  0  0  0  0  0  0
   26.0540  -18.3022  -11.4916 N   0  0  0  0  0  0  0  0  0  0  0  0
   26.4214  -19.3859  -10.6191 C   0  0  1  0  0  0  0  0  0  0  0  0
   27.2160  -18.7815   -9.5267 C   0  0  0  0  0  0  0  0  0  0  0  0
   27.8705  -19.6150   -8.5708 C   0  0  0  0  0  0  0  0  0  0  0  0
   28.5313  -20.7843   -8.8903 C   0  0  0  0  0  0  0  0  0  0  0  0
   29.0410  -21.3351   -7.7801 N   0  0  0  0  0  0  0  0  0  0  0  0
   28.7396  -20.5652   -6.7199 C   0  0  0  0  0  0  0  0  0  0  0  0
   29.0106  -20.6625   -5.3722 C   0  0  0  0  0  0  0  0  0  0  0  0
   28.5446  -19.6781   -4.5283 C   0  0  0  0  0  0  0  0  0  0  0  0
   27.8149  -18.6073   -5.0280 C   0  0  0  0  0  0  0  0  0  0  0  0
   27.5354  -18.4965   -6.3770 C   0  0  0  0  0  0  0  0  0  0  0  0
   28.0085  -19.4893   -7.2079 C   0  0  0  0  0  0  0  0  0  0  0  0
   25.1926  -20.0618  -10.1754 C   0  0  0  0  0  0  0  0  0  0  0  0
   24.2176  -19.2132   -9.9238 O   0  0  0  0  0  0  0  0  0  0  0  0
   24.8794  -21.3797   -9.9794 N   0  0  0  0  0  0  0  0  0  0  0  0
   25.8672  -22.4763  -10.1157 C   0  0  0  0  0  0  0  0  0  0  0  0
   25.1037  -23.7290  -10.3526 C   0  0  0  0  0  0  0  0  0  0  0  0
   23.6564  -23.3996  -10.3200 C   0  0  0  0  0  0  0  0  0  0  0  0
   23.6479  -22.0250   -9.6313 C   0  0  1  0  0  0  0  0  0  0  0  0
   23.5854  -22.3467   -8.1696 C   0  0  0  0  0  0  0  0  0  0  0  0
   24.6889  -22.1082   -7.3650 O   0  0  0  0  0  0  0  0  0  0  0  0
   22.5605  -22.8312   -7.6296 O   0  0  0  0  0  0  0  0  0  0  0  0
  2  1  1  6
  2  3  1  0
  4  2  1  0
  5  4  2  0
  6  4  1  0
  7  6  1  0
  8  9  1  0
  7  8  1  1
  9 17  1  0
 10  9  2  0
 10 11  1  0
 11 12  1  0
 12 13  1  0
 13 14  2  0
 15 14  1  0
 16 15  2  0
 17 12  2  0
 17 16  1  0
 18 20  1  0
 18  7  1  0
 19 18  2  0
 20 21  1  0
 21 22  1  0
 23 22  1  0
 24 23  1  0
 24 20  1  0
 25 26  1  0
 24 25  1  1
 27 25  2  0
M  END
$$$$
