AWP.pdb
     RDKit          3D

 27 29  0  0  1  0  0  0  0  0999 V2000
   27.1161  -18.5700  -19.7329 C   0  0  0  0  0  0  0  0  0  0  0  0
   27.6277  -17.9638  -18.4312 C   0  0  2  0  0  0  0  0  0  0  0  0
   29.0070  -17.5981  -18.5679 N   0  0  0  0  0  0  0  0  0  0  0  0
   27.4497  -19.0083  -17.3867 C   0  0  0  0  0  0  0  0  0  0  0  0
   28.0961  -20.0849  -17.4460 O   0  0  0  0  0  0  0  0  0  0  0  0
   26.5546  -18.8500  -16.2829 N   0  0  0  0  0  0  0  0  0  0  0  0
   26.4688  -19.7899  -15.1967 C   0  0  1  0  0  0  0  0  0  0  0  0
   26.5979  -18.9948  -13.9552 C   0  0  0  0  0  0  0  0  0  0  0  0
   26.6378  -19.6478  -12.6869 C   0  0  0  0  0  0  0  0  0  0  0  0
   25.5327  -19.8383  -11.8815 C   0  0  0  0  0  0  0  0  0  0  0  0
   25.8925  -20.4817  -10.7625 N   0  0  0  0  0  0  0  0  0  0  0  0
   27.2135  -20.7296  -10.7941 C   0  0  0  0  0  0  0  0  0  0  0  0
   28.0813  -21.3488   -9.9208 C   0  0  0  0  0  0  0  0  0  0  0  0
   29.4132  -21.4409  -10.2616 C   0  0  0  0  0  0  0  0  0  0  0  0
   29.8719  -20.9186  -11.4639 C   0  0  0  0  0  0  0  0  0  0  0  0
   29.0134  -20.2949  -12.3495 C   0  0  0  0  0  0  0  0  0  0  0  0
   27.6843  -20.2109  -11.9939 C   0  0  0  0  0  0  0  0  0  0  0  0
   25.2011  -20.5260  -15.3186 C   0  0  0  0  0  0  0  0  0  0  0  0
   24.2932  -19.8509  -15.9925 O   0  0  0  0  0  0  0  0  0  0  0  0
   24.7971  -21.7552  -14.8724 N   0  0  0  0  0  0  0  0  0  0  0  0
   25.6504  -22.6357  -14.0396 C   0  0  0  0  0  0  0  0  0  0  0  0
   25.1333  -24.0206  -14.1912 C   0  0  0  0  0  0  0  0  0  0  0  0
   23.9458  -23.9741  -15.0812 C   0  0  0  0  0  0  0  0  0  0  0  0
   23.5757  -22.4820  -15.0573 C   0  0  1  0  0  0  0  0  0  0  0  0
   22.6670  -22.3477  -13.8740 C   0  0  0  0  0  0  0  0  0  0  0  0
   21.3526  -22.7793  -13.9636 O   0  0  0  0  0  0  0  0  0  0  0  0
   23.0482  -21.8534  -12.7845 O   0  0  0  0  0  0  0  0  0  0  0  0
  2  1  1  6
  2  3  1  0
  4  2  1  0
  5  4  2  0
  6  4  1  0
  7  6  1  0
  8  9  1  0
  7  8  1  1
  9 17  1  0
 10  9  2  0
 10 11  1  0
 11 12  1  0
 12 13  1  0
 13 14  2  0
 15 14  1  0
 16 15  2  0
 17 12  2  0
 17 16  1  0
 18 20  1  0
 18  7  1  0
 19 18  2  0
 20 21  1  0
 21 22  1  0
 23 22  1  0
 24 23  1  0
 24 20  1  0
 25 26  1  0
 24 25  1  1
 27 25  2  0
M  END
$$$$
