AWP.pdb
     RDKit          3D

 27 29  0  0  1  0  0  0  0  0999 V2000
   29.2118  -20.1368  -15.2564 C   0  0  0  0  0  0  0  0  0  0  0  0
   27.7406  -20.5336  -15.2984 C   0  0  2  0  0  0  0  0  0  0  0  0
   27.1130  -19.9722  -16.4586 N   0  0  0  0  0  0  0  0  0  0  0  0
   27.1304  -20.0048  -14.0486 C   0  0  0  0  0  0  0  0  0  0  0  0
   26.8453  -18.7848  -13.9459 O   0  0  0  0  0  0  0  0  0  0  0  0
   26.8411  -20.8350  -12.9210 N   0  0  0  0  0  0  0  0  0  0  0  0
   26.0521  -20.3958  -11.8007 C   0  0  1  0  0  0  0  0  0  0  0  0
   24.7630  -21.1159  -11.8994 C   0  0  0  0  0  0  0  0  0  0  0  0
   23.5572  -20.4902  -11.4620 C   0  0  0  0  0  0  0  0  0  0  0  0
   22.8154  -19.6190  -12.2346 C   0  0  0  0  0  0  0  0  0  0  0  0
   21.7423  -19.2046  -11.5473 N   0  0  0  0  0  0  0  0  0  0  0  0
   21.7429  -19.7755  -10.3301 C   0  0  0  0  0  0  0  0  0  0  0  0
   20.8924  -19.6985   -9.2484 C   0  0  0  0  0  0  0  0  0  0  0  0
   21.1870  -20.4301   -8.1186 C   0  0  0  0  0  0  0  0  0  0  0  0
   22.3211  -21.2305   -8.0718 C   0  0  0  0  0  0  0  0  0  0  0  0
   23.1830  -21.3176   -9.1487 C   0  0  0  0  0  0  0  0  0  0  0  0
   22.8743  -20.5796  -10.2712 C   0  0  0  0  0  0  0  0  0  0  0  0
   26.8066  -20.6654  -10.5671 C   0  0  0  0  0  0  0  0  0  0  0  0
   27.5629  -21.7388  -10.6677 O   0  0  0  0  0  0  0  0  0  0  0  0
   26.8686  -20.0232   -9.3601 N   0  0  0  0  0  0  0  0  0  0  0  0
   26.0723  -18.8137   -9.0438 C   0  0  0  0  0  0  0  0  0  0  0  0
   26.7545  -18.1193   -7.9210 C   0  0  0  0  0  0  0  0  0  0  0  0
   27.9382  -18.9263   -7.5313 C   0  0  0  0  0  0  0  0  0  0  0  0
   27.6349  -20.2877   -8.1781 C   0  0  1  0  0  0  0  0  0  0  0  0
   26.8276  -21.0133   -7.1458 C   0  0  0  0  0  0  0  0  0  0  0  0
   27.4236  -21.4052   -5.9570 O   0  0  0  0  0  0  0  0  0  0  0  0
   25.6134  -21.2876   -7.3105 O   0  0  0  0  0  0  0  0  0  0  0  0
  2  1  1  1
  2  3  1  0
  4  2  1  0
  5  4  2  0
  6  4  1  0
  7  6  1  0
  8  9  1  0
  7  8  1  1
  9 17  1  0
 10  9  2  0
 10 11  1  0
 11 12  1  0
 12 13  1  0
 13 14  2  0
 15 14  1  0
 16 15  2  0
 17 12  2  0
 17 16  1  0
 18 20  1  0
 18  7  1  0
 19 18  2  0
 20 21  1  0
 21 22  1  0
 23 22  1  0
 24 23  1  0
 24 20  1  0
 25 26  1  0
 24 25  1  1
 27 25  2  0
M  END
$$$$
