AWP.pdb
     RDKit          3D

 27 29  0  0  1  0  0  0  0  0999 V2000
   22.7926  -21.9793  -13.1264 C   0  0  0  0  0  0  0  0  0  0  0  0
   22.5402  -21.0023  -11.9839 C   0  0  2  0  0  0  0  0  0  0  0  0
   21.7265  -19.9134  -12.4390 N   0  0  0  0  0  0  0  0  0  0  0  0
   23.8779  -20.5249  -11.5405 C   0  0  0  0  0  0  0  0  0  0  0  0
   24.5408  -19.7325  -12.2568 O   0  0  0  0  0  0  0  0  0  0  0  0
   24.4703  -20.9310  -10.3041 N   0  0  0  0  0  0  0  0  0  0  0  0
   25.7326  -20.4268   -9.8319 C   0  0  1  0  0  0  0  0  0  0  0  0
   25.6470  -20.4255   -8.3545 C   0  0  0  0  0  0  0  0  0  0  0  0
   26.6087  -19.7085   -7.5815 C   0  0  0  0  0  0  0  0  0  0  0  0
   26.8684  -18.3606   -7.7297 C   0  0  0  0  0  0  0  0  0  0  0  0
   27.8169  -17.9834   -6.8615 N   0  0  0  0  0  0  0  0  0  0  0  0
   28.2029  -19.0445   -6.1317 C   0  0  0  0  0  0  0  0  0  0  0  0
   29.1252  -19.2133   -5.1217 C   0  0  0  0  0  0  0  0  0  0  0  0
   29.2834  -20.4656   -4.5694 C   0  0  0  0  0  0  0  0  0  0  0  0
   28.5263  -21.5379   -5.0230 C   0  0  0  0  0  0  0  0  0  0  0  0
   27.5977  -21.3837   -6.0350 C   0  0  0  0  0  0  0  0  0  0  0  0
   27.4515  -20.1248   -6.5771 C   0  0  0  0  0  0  0  0  0  0  0  0
   26.8045  -21.2730  -10.3784 C   0  0  0  0  0  0  0  0  0  0  0  0
   26.4854  -22.5507  -10.3726 O   0  0  0  0  0  0  0  0  0  0  0  0
   28.0449  -20.9873  -10.8813 N   0  0  0  0  0  0  0  0  0  0  0  0
   28.6013  -19.6144  -10.9345 C   0  0  0  0  0  0  0  0  0  0  0  0
   29.6670  -19.6117  -11.9701 C   0  0  0  0  0  0  0  0  0  0  0  0
   29.7838  -20.9879  -12.5146 C   0  0  0  0  0  0  0  0  0  0  0  0
   29.0598  -21.8257  -11.4480 C   0  0  1  0  0  0  0  0  0  0  0  0
   30.1282  -22.1532  -10.4503 C   0  0  0  0  0  0  0  0  0  0  0  0
   31.1144  -23.0717  -10.7752 O   0  0  0  0  0  0  0  0  0  0  0  0
   30.1726  -21.6240   -9.3125 O   0  0  0  0  0  0  0  0  0  0  0  0
  2  1  1  6
  2  3  1  0
  4  2  1  0
  5  4  2  0
  6  4  1  0
  7  6  1  0
  8  9  1  0
  7  8  1  1
  9 17  1  0
 10  9  2  0
 10 11  1  0
 11 12  1  0
 12 13  1  0
 13 14  2  0
 15 14  1  0
 16 15  2  0
 17 12  2  0
 17 16  1  0
 18 20  1  0
 18  7  1  0
 19 18  2  0
 20 21  1  0
 21 22  1  0
 23 22  1  0
 24 23  1  0
 24 20  1  0
 25 26  1  0
 24 25  1  1
 27 25  2  0
M  END
$$$$
