AWP.pdb
     RDKit          3D

 27 29  0  0  1  0  0  0  0  0999 V2000
   22.8479  -35.3402  -14.9974 C   0  0  0  0  0  0  0  0  0  0  0  0
   22.0360  -34.0510  -14.9462 C   0  0  2  0  0  0  0  0  0  0  0  0
   22.2617  -33.2805  -16.1338 N   0  0  0  0  0  0  0  0  0  0  0  0
   22.4936  -33.3180  -13.7350 C   0  0  0  0  0  0  0  0  0  0  0  0
   23.5858  -32.6956  -13.7421 O   0  0  0  0  0  0  0  0  0  0  0  0
   21.7348  -33.2813  -12.5237 N   0  0  0  0  0  0  0  0  0  0  0  0
   22.1358  -32.5282  -11.3650 C   0  0  1  0  0  0  0  0  0  0  0  0
   20.8886  -32.0051  -10.7640 C   0  0  0  0  0  0  0  0  0  0  0  0
   20.1729  -30.9490  -11.4036 C   0  0  0  0  0  0  0  0  0  0  0  0
   19.2401  -31.1431  -12.4028 C   0  0  0  0  0  0  0  0  0  0  0  0
   18.7436  -29.9620  -12.7954 N   0  0  0  0  0  0  0  0  0  0  0  0
   19.3193  -28.9764  -12.0850 C   0  0  0  0  0  0  0  0  0  0  0  0
   19.1798  -27.6054  -12.0833 C   0  0  0  0  0  0  0  0  0  0  0  0
   19.9392  -26.8617  -11.2066 C   0  0  0  0  0  0  0  0  0  0  0  0
   20.8291  -27.4836  -10.3405 C   0  0  0  0  0  0  0  0  0  0  0  0
   20.9798  -28.8574  -10.3311 C   0  0  0  0  0  0  0  0  0  0  0  0
   20.2130  -29.5871  -11.2141 C   0  0  0  0  0  0  0  0  0  0  0  0
   22.9121  -33.4123  -10.4822 C   0  0  0  0  0  0  0  0  0  0  0  0
   22.5122  -34.6651  -10.5514 O   0  0  0  0  0  0  0  0  0  0  0  0
   23.9504  -33.1817   -9.6209 N   0  0  0  0  0  0  0  0  0  0  0  0
   24.4934  -31.8294   -9.3498 C   0  0  0  0  0  0  0  0  0  0  0  0
   25.8719  -32.0064   -8.8238 C   0  0  0  0  0  0  0  0  0  0  0  0
   26.1491  -33.4625   -8.7384 C   0  0  0  0  0  0  0  0  0  0  0  0
   24.7392  -34.0705   -8.8195 C   0  0  1  0  0  0  0  0  0  0  0  0
   24.2689  -34.0987   -7.3976 C   0  0  0  0  0  0  0  0  0  0  0  0
   23.2837  -33.2166   -6.9813 O   0  0  0  0  0  0  0  0  0  0  0  0
   24.7344  -34.8995   -6.5498 O   0  0  0  0  0  0  0  0  0  0  0  0
  2  1  1  6
  2  3  1  0
  4  2  1  0
  5  4  2  0
  6  4  1  0
  7  6  1  0
  8  9  1  0
  7  8  1  1
  9 17  1  0
 10  9  2  0
 10 11  1  0
 11 12  1  0
 12 13  1  0
 13 14  2  0
 15 14  1  0
 16 15  2  0
 17 12  2  0
 17 16  1  0
 18 20  1  0
 18  7  1  0
 19 18  2  0
 20 21  1  0
 21 22  1  0
 23 22  1  0
 24 23  1  0
 24 20  1  0
 25 26  1  0
 24 25  1  1
 27 25  2  0
M  END
$$$$
