AWP.pdb
     RDKit          3D

 27 29  0  0  1  0  0  0  0  0999 V2000
   26.5661  -17.1596  -15.3607 C   0  0  0  0  0  0  0  0  0  0  0  0
   27.6509  -18.0426  -14.7546 C   0  0  2  0  0  0  0  0  0  0  0  0
   28.6256  -18.3776  -15.7510 N   0  0  0  0  0  0  0  0  0  0  0  0
   26.9621  -19.2595  -14.2462 C   0  0  0  0  0  0  0  0  0  0  0  0
   26.7332  -20.2289  -15.0132 O   0  0  0  0  0  0  0  0  0  0  0  0
   26.5321  -19.3915  -12.8889 N   0  0  0  0  0  0  0  0  0  0  0  0
   25.9112  -20.5817  -12.3711 C   0  0  1  0  0  0  0  0  0  0  0  0
   25.9876  -20.4761  -10.8969 C   0  0  0  0  0  0  0  0  0  0  0  0
   27.2492  -20.5686  -10.2362 C   0  0  0  0  0  0  0  0  0  0  0  0
   28.3697  -21.1547  -10.7903 C   0  0  0  0  0  0  0  0  0  0  0  0
   29.3928  -21.0825   -9.9279 N   0  0  0  0  0  0  0  0  0  0  0  0
   28.9889  -20.4618   -8.8058 C   0  0  0  0  0  0  0  0  0  0  0  0
   29.6219  -20.1310   -7.6272 C   0  0  0  0  0  0  0  0  0  0  0  0
   28.9043  -19.4788   -6.6484 C   0  0  0  0  0  0  0  0  0  0  0  0
   27.5670  -19.1608   -6.8470 C   0  0  0  0  0  0  0  0  0  0  0  0
   26.9191  -19.4862   -8.0236 C   0  0  0  0  0  0  0  0  0  0  0  0
   27.6507  -20.1385   -8.9928 C   0  0  0  0  0  0  0  0  0  0  0  0
   24.5429  -20.6617  -12.9051 C   0  0  0  0  0  0  0  0  0  0  0  0
   23.9628  -19.4815  -12.9739 O   0  0  0  0  0  0  0  0  0  0  0  0
   23.7762  -21.7108  -13.3349 N   0  0  0  0  0  0  0  0  0  0  0  0
   24.1821  -23.1280  -13.1809 C   0  0  0  0  0  0  0  0  0  0  0  0
   23.4170  -23.9159  -14.1819 C   0  0  0  0  0  0  0  0  0  0  0  0
   22.5206  -22.9853  -14.9132 C   0  0  0  0  0  0  0  0  0  0  0  0
   22.5032  -21.7543  -13.9922 C   0  0  1  0  0  0  0  0  0  0  0  0
   21.3914  -22.0328  -13.0277 C   0  0  0  0  0  0  0  0  0  0  0  0
   21.6846  -22.3086  -11.7011 O   0  0  0  0  0  0  0  0  0  0  0  0
   20.1838  -22.0275  -13.3718 O   0  0  0  0  0  0  0  0  0  0  0  0
  2  1  1  6
  2  3  1  0
  4  2  1  0
  5  4  2  0
  6  4  1  0
  7  6  1  0
  8  9  1  0
  7  8  1  1
  9 17  1  0
 10  9  2  0
 10 11  1  0
 11 12  1  0
 12 13  1  0
 13 14  2  0
 15 14  1  0
 16 15  2  0
 17 12  2  0
 17 16  1  0
 18 20  1  0
 18  7  1  0
 19 18  2  0
 20 21  1  0
 21 22  1  0
 23 22  1  0
 24 23  1  0
 24 20  1  0
 25 26  1  0
 24 25  1  1
 27 25  2  0
M  END
$$$$
