AWP.pdb
     RDKit          3D

 27 29  0  0  1  0  0  0  0  0999 V2000
   22.9355  -15.8928  -19.9278 C   0  0  0  0  0  0  0  0  0  0  0  0
   22.4841  -16.5349  -18.6211 C   0  0  2  0  0  0  0  0  0  0  0  0
   21.6491  -15.6274  -17.8902 N   0  0  0  0  0  0  0  0  0  0  0  0
   23.7242  -16.8533  -17.8630 C   0  0  0  0  0  0  0  0  0  0  0  0
   24.8124  -16.2986  -18.1603 O   0  0  0  0  0  0  0  0  0  0  0  0
   23.7471  -17.7859  -16.7793 N   0  0  0  0  0  0  0  0  0  0  0  0
   24.9195  -18.0435  -15.9859 C   0  0  1  0  0  0  0  0  0  0  0  0
   24.5058  -17.8724  -14.5753 C   0  0  0  0  0  0  0  0  0  0  0  0
   25.3528  -18.3258  -13.5200 C   0  0  0  0  0  0  0  0  0  0  0  0
   26.6621  -17.9211  -13.3530 C   0  0  0  0  0  0  0  0  0  0  0  0
   27.1876  -18.5187  -12.2748 N   0  0  0  0  0  0  0  0  0  0  0  0
   26.2639  -19.3165  -11.7110 C   0  0  0  0  0  0  0  0  0  0  0  0
   26.2733  -20.1423  -10.6077 C   0  0  0  0  0  0  0  0  0  0  0  0
   25.1294  -20.8426  -10.2926 C   0  0  0  0  0  0  0  0  0  0  0  0
   23.9877  -20.7178  -11.0736 C   0  0  0  0  0  0  0  0  0  0  0  0
   23.9635  -19.8936  -12.1827 C   0  0  0  0  0  0  0  0  0  0  0  0
   25.1158  -19.2000  -12.4846 C   0  0  0  0  0  0  0  0  0  0  0  0
   25.4169  -19.3880  -16.3150 C   0  0  0  0  0  0  0  0  0  0  0  0
   24.4600  -20.1845  -16.7442 O   0  0  0  0  0  0  0  0  0  0  0  0
   26.6617  -19.9543  -16.2602 N   0  0  0  0  0  0  0  0  0  0  0  0
   27.8298  -19.2853  -15.6398 C   0  0  0  0  0  0  0  0  0  0  0  0
   29.0502  -19.9134  -16.2095 C   0  0  0  0  0  0  0  0  0  0  0  0
   28.6233  -20.9870  -17.1420 C   0  0  0  0  0  0  0  0  0  0  0  0
   27.1580  -21.2125  -16.7345 C   0  0  1  0  0  0  0  0  0  0  0  0
   27.2343  -22.2275  -15.6354 C   0  0  0  0  0  0  0  0  0  0  0  0
   27.6262  -23.5256  -15.9239 O   0  0  0  0  0  0  0  0  0  0  0  0
   26.9548  -21.9514  -14.4428 O   0  0  0  0  0  0  0  0  0  0  0  0
  2  1  1  6
  2  3  1  0
  4  2  1  0
  5  4  2  0
  6  4  1  0
  7  6  1  0
  8  9  1  0
  7  8  1  1
  9 17  1  0
 10  9  2  0
 10 11  1  0
 11 12  1  0
 12 13  1  0
 13 14  2  0
 15 14  1  0
 16 15  2  0
 17 12  2  0
 17 16  1  0
 18 20  1  0
 18  7  1  0
 19 18  2  0
 20 21  1  0
 21 22  1  0
 23 22  1  0
 24 23  1  0
 24 20  1  0
 25 26  1  0
 24 25  1  1
 27 25  2  0
M  END
$$$$
