AWP.pdb
     RDKit          3D

 27 29  0  0  1  0  0  0  0  0999 V2000
   24.2849  -17.4930  -20.3500 C   0  0  0  0  0  0  0  0  0  0  0  0
   25.0933  -16.6503  -19.3701 C   0  0  2  0  0  0  0  0  0  0  0  0
   25.9651  -15.7655  -20.0857 N   0  0  0  0  0  0  0  0  0  0  0  0
   25.8672  -17.6088  -18.5359 C   0  0  0  0  0  0  0  0  0  0  0  0
   26.8835  -18.1830  -19.0027 O   0  0  0  0  0  0  0  0  0  0  0  0
   25.5071  -17.9232  -17.1883 N   0  0  0  0  0  0  0  0  0  0  0  0
   26.3430  -18.6973  -16.3093 C   0  0  1  0  0  0  0  0  0  0  0  0
   26.1193  -18.1574  -14.9496 C   0  0  0  0  0  0  0  0  0  0  0  0
   26.6121  -18.8600  -13.8094 C   0  0  0  0  0  0  0  0  0  0  0  0
   27.9526  -19.0553  -13.5430 C   0  0  0  0  0  0  0  0  0  0  0  0
   28.0925  -19.7458  -12.4031 N   0  0  0  0  0  0  0  0  0  0  0  0
   26.8786  -20.0207  -11.8948 C   0  0  0  0  0  0  0  0  0  0  0  0
   26.4543  -20.6896  -10.7671 C   0  0  0  0  0  0  0  0  0  0  0  0
   25.1016  -20.7982  -10.5289 C   0  0  0  0  0  0  0  0  0  0  0  0
   24.1829  -20.2431  -11.4103 C   0  0  0  0  0  0  0  0  0  0  0  0
   24.5936  -19.5697  -12.5452 C   0  0  0  0  0  0  0  0  0  0  0  0
   25.9501  -19.4698  -12.7691 C   0  0  0  0  0  0  0  0  0  0  0  0
   25.9916  -20.1171  -16.4653 C   0  0  0  0  0  0  0  0  0  0  0  0
   24.7251  -20.2872  -16.7833 O   0  0  0  0  0  0  0  0  0  0  0  0
   26.7192  -21.2701  -16.3447 N   0  0  0  0  0  0  0  0  0  0  0  0
   28.1193  -21.2978  -15.8589 C   0  0  0  0  0  0  0  0  0  0  0  0
   28.7283  -22.5633  -16.3446 C   0  0  0  0  0  0  0  0  0  0  0  0
   27.6890  -23.3190  -17.0884 C   0  0  0  0  0  0  0  0  0  0  0  0
   26.3917  -22.6373  -16.6238 C   0  0  1  0  0  0  0  0  0  0  0  0
   26.0111  -23.3804  -15.3800 C   0  0  0  0  0  0  0  0  0  0  0  0
   25.5339  -24.6787  -15.4734 O   0  0  0  0  0  0  0  0  0  0  0  0
   26.1065  -22.8723  -14.2358 O   0  0  0  0  0  0  0  0  0  0  0  0
  2  1  1  6
  2  3  1  0
  4  2  1  0
  5  4  2  0
  6  4  1  0
  7  6  1  0
  8  9  1  0
  7  8  1  1
  9 17  1  0
 10  9  2  0
 10 11  1  0
 11 12  1  0
 12 13  1  0
 13 14  2  0
 15 14  1  0
 16 15  2  0
 17 12  2  0
 17 16  1  0
 18 20  1  0
 18  7  1  0
 19 18  2  0
 20 21  1  0
 21 22  1  0
 23 22  1  0
 24 23  1  0
 24 20  1  0
 25 26  1  0
 24 25  1  1
 27 25  2  0
M  END
$$$$
