AWP.pdb
     RDKit          3D

 27 29  0  0  1  0  0  0  0  0999 V2000
   15.2639   -8.6005  -19.8383 C   0  0  0  0  0  0  0  0  0  0  0  0
   16.7328   -8.1935  -19.8212 C   0  0  2  0  0  0  0  0  0  0  0  0
   17.5615   -9.3321  -20.0894 N   0  0  0  0  0  0  0  0  0  0  0  0
   16.9973   -7.6443  -18.4639 C   0  0  0  0  0  0  0  0  0  0  0  0
   16.4108   -6.6034  -18.0728 O   0  0  0  0  0  0  0  0  0  0  0  0
   17.9116   -8.2551  -17.5499 N   0  0  0  0  0  0  0  0  0  0  0  0
   18.1720   -7.7387  -16.2324 C   0  0  1  0  0  0  0  0  0  0  0  0
   18.3548   -8.9187  -15.3581 C   0  0  0  0  0  0  0  0  0  0  0  0
   19.0511   -8.7915  -14.1188 C   0  0  0  0  0  0  0  0  0  0  0  0
   18.4680   -8.3511  -12.9474 C   0  0  0  0  0  0  0  0  0  0  0  0
   19.3771   -8.3446  -11.9629 N   0  0  0  0  0  0  0  0  0  0  0  0
   20.5589   -8.7698  -12.4425 C   0  0  0  0  0  0  0  0  0  0  0  0
   21.8008   -8.9519  -11.8734 C   0  0  0  0  0  0  0  0  0  0  0  0
   22.8314   -9.4141  -12.6624 C   0  0  0  0  0  0  0  0  0  0  0  0
   22.6215   -9.6912  -14.0070 C   0  0  0  0  0  0  0  0  0  0  0  0
   21.3817   -9.5134  -14.5913 C   0  0  0  0  0  0  0  0  0  0  0  0
   20.3612   -9.0504  -13.7887 C   0  0  0  0  0  0  0  0  0  0  0  0
   19.3408   -6.8486  -16.3050 C   0  0  0  0  0  0  0  0  0  0  0  0
   20.2872   -7.3280  -17.0852 O   0  0  0  0  0  0  0  0  0  0  0  0
   19.6229   -5.6409  -15.7261 N   0  0  0  0  0  0  0  0  0  0  0  0
   18.6380   -4.8769  -14.9240 C   0  0  0  0  0  0  0  0  0  0  0  0
   19.0840   -3.4594  -14.9138 C   0  0  0  0  0  0  0  0  0  0  0  0
   20.3566   -3.3714  -15.6736 C   0  0  0  0  0  0  0  0  0  0  0  0
   20.8111   -4.8393  -15.7242 C   0  0  1  0  0  0  0  0  0  0  0  0
   21.6009   -5.0230  -14.4647 C   0  0  0  0  0  0  0  0  0  0  0  0
   21.0906   -5.8062  -13.4409 O   0  0  0  0  0  0  0  0  0  0  0  0
   22.7247   -4.4907  -14.2905 O   0  0  0  0  0  0  0  0  0  0  0  0
  2  1  1  1
  2  3  1  0
  4  2  1  0
  5  4  2  0
  6  4  1  0
  7  6  1  0
  8  9  1  0
  7  8  1  1
  9 17  1  0
 10  9  2  0
 10 11  1  0
 11 12  1  0
 12 13  1  0
 13 14  2  0
 15 14  1  0
 16 15  2  0
 17 12  2  0
 17 16  1  0
 18 20  1  0
 18  7  1  0
 19 18  2  0
 20 21  1  0
 21 22  1  0
 23 22  1  0
 24 23  1  0
 24 20  1  0
 25 26  1  0
 24 25  1  1
 27 25  2  0
M  END
$$$$
