AWP.pdb
     RDKit          3D

 27 29  0  0  1  0  0  0  0  0999 V2000
   23.3174  -19.1783  -20.1228 C   0  0  0  0  0  0  0  0  0  0  0  0
   23.5774  -18.3996  -18.8384 C   0  0  2  0  0  0  0  0  0  0  0  0
   24.6428  -17.4618  -19.0392 N   0  0  0  0  0  0  0  0  0  0  0  0
   23.9369  -19.4081  -17.8052 C   0  0  0  0  0  0  0  0  0  0  0  0
   24.5761  -20.4435  -18.1211 O   0  0  0  0  0  0  0  0  0  0  0  0
   23.5839  -19.2597  -16.4275 N   0  0  0  0  0  0  0  0  0  0  0  0
   24.0149  -20.1712  -15.4009 C   0  0  1  0  0  0  0  0  0  0  0  0
   24.3770  -19.3344  -14.2352 C   0  0  0  0  0  0  0  0  0  0  0  0
   24.7935  -19.9467  -13.0152 C   0  0  0  0  0  0  0  0  0  0  0  0
   26.0386  -20.5103  -12.8200 C   0  0  0  0  0  0  0  0  0  0  0  0
   26.1254  -20.9986  -11.5751 N   0  0  0  0  0  0  0  0  0  0  0  0
   24.9687  -20.7776  -10.9264 C   0  0  0  0  0  0  0  0  0  0  0  0
   24.5274  -21.0674   -9.6534 C   0  0  0  0  0  0  0  0  0  0  0  0
   23.2512  -20.6946   -9.2920 C   0  0  0  0  0  0  0  0  0  0  0  0
   22.4251  -20.0383  -10.1952 C   0  0  0  0  0  0  0  0  0  0  0  0
   22.8539  -19.7412  -11.4750 C   0  0  0  0  0  0  0  0  0  0  0  0
   24.1330  -20.1208  -11.8211 C   0  0  0  0  0  0  0  0  0  0  0  0
   22.9299  -21.1314  -15.1468 C   0  0  0  0  0  0  0  0  0  0  0  0
   21.7386  -20.5983  -15.3226 O   0  0  0  0  0  0  0  0  0  0  0  0
   22.9267  -22.4472  -14.7702 N   0  0  0  0  0  0  0  0  0  0  0  0
   24.1307  -23.1484  -14.2646 C   0  0  0  0  0  0  0  0  0  0  0  0
   23.9056  -24.6044  -14.4585 C   0  0  0  0  0  0  0  0  0  0  0  0
   22.5531  -24.7877  -15.0427 C   0  0  0  0  0  0  0  0  0  0  0  0
   21.8857  -23.4323  -14.7575 C   0  0  1  0  0  0  0  0  0  0  0  0
   21.2937  -23.5945  -13.3911 C   0  0  0  0  0  0  0  0  0  0  0  0
   21.8733  -22.9497  -12.3093 O   0  0  0  0  0  0  0  0  0  0  0  0
   20.2777  -24.3006  -13.1765 O   0  0  0  0  0  0  0  0  0  0  0  0
  2  1  1  6
  2  3  1  0
  4  2  1  0
  5  4  2  0
  6  4  1  0
  7  6  1  0
  8  9  1  0
  7  8  1  1
  9 17  1  0
 10  9  2  0
 10 11  1  0
 11 12  1  0
 12 13  1  0
 13 14  2  0
 15 14  1  0
 16 15  2  0
 17 12  2  0
 17 16  1  0
 18 20  1  0
 18  7  1  0
 19 18  2  0
 20 21  1  0
 21 22  1  0
 23 22  1  0
 24 23  1  0
 24 20  1  0
 25 26  1  0
 24 25  1  1
 27 25  2  0
M  END
$$$$
