AWP.pdb
     RDKit          3D

 27 29  0  0  1  0  0  0  0  0999 V2000
   20.3543  -20.3924  -16.0887 C   0  0  0  0  0  0  0  0  0  0  0  0
   21.0954  -20.3857  -14.7566 C   0  0  2  0  0  0  0  0  0  0  0  0
   20.2087  -19.9877  -13.7028 N   0  0  0  0  0  0  0  0  0  0  0  0
   22.2170  -19.4200  -14.9086 C   0  0  0  0  0  0  0  0  0  0  0  0
   22.0358  -18.3197  -15.4890 O   0  0  0  0  0  0  0  0  0  0  0  0
   23.5329  -19.6830  -14.4146 N   0  0  0  0  0  0  0  0  0  0  0  0
   24.6504  -18.8059  -14.6432 C   0  0  1  0  0  0  0  0  0  0  0  0
   25.1737  -18.4510  -13.3051 C   0  0  0  0  0  0  0  0  0  0  0  0
   25.3640  -19.4641  -12.3182 C   0  0  0  0  0  0  0  0  0  0  0  0
   26.5408  -20.1660  -12.1494 C   0  0  0  0  0  0  0  0  0  0  0  0
   26.4062  -21.0422  -11.1445 N   0  0  0  0  0  0  0  0  0  0  0  0
   25.1669  -20.9477  -10.6318 C   0  0  0  0  0  0  0  0  0  0  0  0
   24.5137  -21.6009   -9.6091 C   0  0  0  0  0  0  0  0  0  0  0  0
   23.2087  -21.2588   -9.3293 C   0  0  0  0  0  0  0  0  0  0  0  0
   22.5640  -20.2731  -10.0653 C   0  0  0  0  0  0  0  0  0  0  0  0
   23.2064  -19.6097  -11.0937 C   0  0  0  0  0  0  0  0  0  0  0  0
   24.5115  -19.9635  -11.3611 C   0  0  0  0  0  0  0  0  0  0  0  0
   25.6158  -19.4997  -15.5094 C   0  0  0  0  0  0  0  0  0  0  0  0
   25.3666  -20.7894  -15.6039 O   0  0  0  0  0  0  0  0  0  0  0  0
   26.7013  -19.0652  -16.2207 N   0  0  0  0  0  0  0  0  0  0  0  0
   27.5319  -17.9095  -15.8065 C   0  0  0  0  0  0  0  0  0  0  0  0
   28.2411  -17.4211  -17.0175 C   0  0  0  0  0  0  0  0  0  0  0  0
   27.8727  -18.3025  -18.1541 C   0  0  0  0  0  0  0  0  0  0  0  0
   27.2916  -19.5338  -17.4398 C   0  0  1  0  0  0  0  0  0  0  0  0
   28.4829  -20.4038  -17.1795 C   0  0  0  0  0  0  0  0  0  0  0  0
   28.8708  -20.6666  -15.8747 O   0  0  0  0  0  0  0  0  0  0  0  0
   29.1587  -20.9156  -18.1058 O   0  0  0  0  0  0  0  0  0  0  0  0
  2  1  1  6
  2  3  1  0
  4  2  1  0
  5  4  2  0
  6  4  1  0
  7  6  1  0
  8  9  1  0
  7  8  1  1
  9 17  1  0
 10  9  2  0
 10 11  1  0
 11 12  1  0
 12 13  1  0
 13 14  2  0
 15 14  1  0
 16 15  2  0
 17 12  2  0
 17 16  1  0
 18 20  1  0
 18  7  1  0
 19 18  2  0
 20 21  1  0
 21 22  1  0
 23 22  1  0
 24 23  1  0
 24 20  1  0
 25 26  1  0
 24 25  1  1
 27 25  2  0
M  END
$$$$
