AWP.pdb
     RDKit          3D

 27 29  0  0  1  0  0  0  0  0999 V2000
   21.0434  -20.6453  -14.3903 C   0  0  0  0  0  0  0  0  0  0  0  0
   21.5260  -21.1014  -13.0182 C   0  0  2  0  0  0  0  0  0  0  0  0
   20.6651  -20.5817  -11.9965 N   0  0  0  0  0  0  0  0  0  0  0  0
   22.9118  -20.5805  -12.8694 C   0  0  0  0  0  0  0  0  0  0  0  0
   23.1309  -19.3427  -12.8763 O   0  0  0  0  0  0  0  0  0  0  0  0
   24.0451  -21.4384  -12.7139 N   0  0  0  0  0  0  0  0  0  0  0  0
   25.3966  -20.9514  -12.6307 C   0  0  1  0  0  0  0  0  0  0  0  0
   26.0205  -21.6653  -11.4944 C   0  0  0  0  0  0  0  0  0  0  0  0
   26.0933  -21.0449  -10.2112 C   0  0  0  0  0  0  0  0  0  0  0  0
   25.0043  -20.5190   -9.5451 C   0  0  0  0  0  0  0  0  0  0  0  0
   25.3946  -20.0113   -8.3680 N   0  0  0  0  0  0  0  0  0  0  0  0
   26.7204  -20.1822   -8.2246 C   0  0  0  0  0  0  0  0  0  0  0  0
   27.6144  -19.8548   -7.2282 C   0  0  0  0  0  0  0  0  0  0  0  0
   28.9431  -20.1788   -7.3954 C   0  0  0  0  0  0  0  0  0  0  0  0
   29.3727  -20.8239   -8.5479 C   0  0  0  0  0  0  0  0  0  0  0  0
   28.4877  -21.1583   -9.5554 C   0  0  0  0  0  0  0  0  0  0  0  0
   27.1622  -20.8273   -9.3730 C   0  0  0  0  0  0  0  0  0  0  0  0
   26.0532  -21.1799  -13.9270 C   0  0  0  0  0  0  0  0  0  0  0  0
   25.5229  -22.1895  -14.5855 O   0  0  0  0  0  0  0  0  0  0  0  0
   27.0900  -20.5529  -14.5635 N   0  0  0  0  0  0  0  0  0  0  0  0
   27.9846  -19.5808  -13.8913 C   0  0  0  0  0  0  0  0  0  0  0  0
   28.6076  -18.7491  -14.9536 C   0  0  0  0  0  0  0  0  0  0  0  0
   28.1232  -19.2415  -16.2678 C   0  0  0  0  0  0  0  0  0  0  0  0
   27.5661  -20.6300  -15.9132 C   0  0  1  0  0  0  0  0  0  0  0  0
   28.7487  -21.5417  -16.0319 C   0  0  0  0  0  0  0  0  0  0  0  0
   29.2819  -21.8174  -17.2815 O   0  0  0  0  0  0  0  0  0  0  0  0
   29.2894  -22.0773  -15.0332 O   0  0  0  0  0  0  0  0  0  0  0  0
  2  1  1  6
  2  3  1  0
  4  2  1  0
  5  4  2  0
  6  4  1  0
  7  6  1  0
  8  9  1  0
  7  8  1  1
  9 17  1  0
 10  9  2  0
 10 11  1  0
 11 12  1  0
 12 13  1  0
 13 14  2  0
 15 14  1  0
 16 15  2  0
 17 12  2  0
 17 16  1  0
 18 20  1  0
 18  7  1  0
 19 18  2  0
 20 21  1  0
 21 22  1  0
 23 22  1  0
 24 23  1  0
 24 20  1  0
 25 26  1  0
 24 25  1  1
 27 25  2  0
M  END
$$$$
