AWP.pdb
     RDKit          3D

 27 29  0  0  1  0  0  0  0  0999 V2000
   27.2532  -22.8327  -18.8903 C   0  0  0  0  0  0  0  0  0  0  0  0
   25.7730  -22.5629  -18.6454 C   0  0  2  0  0  0  0  0  0  0  0  0
   25.1813  -21.9739  -19.8107 N   0  0  0  0  0  0  0  0  0  0  0  0
   25.7049  -21.6376  -17.4822 C   0  0  0  0  0  0  0  0  0  0  0  0
   26.2731  -20.5170  -17.5257 O   0  0  0  0  0  0  0  0  0  0  0  0
   25.0060  -21.9633  -16.2780 N   0  0  0  0  0  0  0  0  0  0  0  0
   24.7656  -21.0130  -15.2247 C   0  0  1  0  0  0  0  0  0  0  0  0
   23.3082  -21.0441  -14.9689 C   0  0  0  0  0  0  0  0  0  0  0  0
   22.7418  -20.2217  -13.9494 C   0  0  0  0  0  0  0  0  0  0  0  0
   22.2741  -18.9403  -14.1623 C   0  0  0  0  0  0  0  0  0  0  0  0
   21.8026  -18.4331  -13.0150 N   0  0  0  0  0  0  0  0  0  0  0  0
   21.9412  -19.3418  -12.0339 C   0  0  0  0  0  0  0  0  0  0  0  0
   21.6287  -19.3403  -10.6917 C   0  0  0  0  0  0  0  0  0  0  0  0
   21.9081  -20.4631   -9.9436 C   0  0  0  0  0  0  0  0  0  0  0  0
   22.4941  -21.5760  -10.5326 C   0  0  0  0  0  0  0  0  0  0  0  0
   22.8131  -21.5919  -11.8773 C   0  0  0  0  0  0  0  0  0  0  0  0
   22.5274  -20.4610  -12.6118 C   0  0  0  0  0  0  0  0  0  0  0  0
   25.5943  -21.3831  -14.0671 C   0  0  0  0  0  0  0  0  0  0  0  0
   25.6722  -22.6876  -13.9042 O   0  0  0  0  0  0  0  0  0  0  0  0
   26.2851  -20.6415  -13.1474 N   0  0  0  0  0  0  0  0  0  0  0  0
   26.3201  -19.1598  -13.1625 C   0  0  0  0  0  0  0  0  0  0  0  0
   27.5259  -18.7406  -12.4018 C   0  0  0  0  0  0  0  0  0  0  0  0
   28.1977  -19.9630  -11.8930 C   0  0  0  0  0  0  0  0  0  0  0  0
   27.0937  -21.0246  -12.0277 C   0  0  1  0  0  0  0  0  0  0  0  0
   26.3352  -20.9315  -10.7393 C   0  0  0  0  0  0  0  0  0  0  0  0
   26.9017  -21.4172   -9.5710 O   0  0  0  0  0  0  0  0  0  0  0  0
   25.1888  -20.4241  -10.6676 O   0  0  0  0  0  0  0  0  0  0  0  0
  2  1  1  6
  2  3  1  0
  4  2  1  0
  5  4  2  0
  6  4  1  0
  7  6  1  0
  8  9  1  0
  7  8  1  1
  9 17  1  0
 10  9  2  0
 10 11  1  0
 11 12  1  0
 12 13  1  0
 13 14  2  0
 15 14  1  0
 16 15  2  0
 17 12  2  0
 17 16  1  0
 18 20  1  0
 18  7  1  0
 19 18  2  0
 20 21  1  0
 21 22  1  0
 23 22  1  0
 24 23  1  0
 24 20  1  0
 25 26  1  0
 24 25  1  1
 27 25  2  0
M  END
$$$$
