MTK.pdb
     RDKit          3D

 25 24  0  0  1  0  0  0  0  0999 V2000
    6.1624  -10.3662   26.5057 C   0  0  0  0  0  0  0  0  0  0  0  0
    6.9219  -11.9938   26.2611 S   0  0  0  0  0  0  0  0  0  0  0  0
    6.9000  -12.4263   24.4920 C   0  0  0  0  0  0  0  0  0  0  0  0
    7.5890  -13.7638   24.3219 C   0  0  0  0  0  0  0  0  0  0  0  0
    7.6869  -14.1592   22.8630 C   0  0  2  0  0  0  0  0  0  0  0  0
    6.3603  -14.1490   22.3083 N   0  0  0  0  0  0  0  0  0  0  0  0
    8.3368  -15.4730   22.7993 C   0  0  0  0  0  0  0  0  0  0  0  0
    7.6123  -16.4909   22.6715 O   0  0  0  0  0  0  0  0  0  0  0  0
   10.7203  -17.2435   20.3738 C   0  0  0  0  0  0  0  0  0  0  0  0
   11.3098  -17.2596   21.7626 C   0  0  1  0  0  0  0  0  0  0  0  0
   12.4387  -16.4523   21.8680 O   0  0  0  0  0  0  0  0  0  0  0  0
   10.3045  -17.0125   22.8374 C   0  0  2  0  0  0  0  0  0  0  0  0
    9.7157  -15.7189   22.8676 N   0  0  0  0  0  0  0  0  0  0  0  0
   10.9766  -17.2778   24.1417 C   0  0  0  0  0  0  0  0  0  0  0  0
   11.5985  -16.3500   24.7613 O   0  0  0  0  0  0  0  0  0  0  0  0
   10.9761  -18.5418   24.7735 N   0  0  0  0  0  0  0  0  0  0  0  0
   11.5623  -18.7485   26.1175 C   0  0  1  0  0  0  0  0  0  0  0  0
   11.0549  -20.0047   26.7229 C   0  0  0  0  0  0  0  0  0  0  0  0
   11.6799  -20.2603   28.0586 C   0  0  0  0  0  0  0  0  0  0  0  0
   11.2783  -21.6099   28.6375 C   0  0  0  0  0  0  0  0  0  0  0  0
   11.8549  -21.7301   30.0554 C   0  0  0  0  0  0  0  0  0  0  0  0
   11.4814  -22.9934   30.6637 N   0  0  0  0  0  0  0  0  0  0  0  0
   13.0093  -18.8031   25.9068 C   0  0  0  0  0  0  0  0  0  0  0  0
   13.8823  -18.1954   26.7821 O   0  0  0  0  0  0  0  0  0  0  0  0
   13.4944  -19.4015   24.9281 O   0  0  0  0  0  0  0  0  0  0  0  0
  1  2  1  0
  3  2  1  0
  4  3  1  0
  5  4  1  0
  5  6  1  1
  7 13  1  0
  7  5  1  0
  8  7  2  0
 10 12  1  0
 10  9  1  6
 11 10  1  0
 12 13  1  1
 14 12  1  0
 14 15  2  0
 16 14  1  0
 17 16  1  0
 17 23  1  0
 17 18  1  6
 19 18  1  0
 20 19  1  0
 21 20  1  0
 21 22  1  0
 23 25  2  0
 23 24  1  0
M  END
$$$$
