MTK.pdb
     RDKit          3D

 25 24  0  0  1  0  0  0  0  0999 V2000
    7.4827  -12.4543   21.5473 C   0  0  0  0  0  0  0  0  0  0  0  0
    8.1860  -11.9584   19.9520 S   0  0  0  0  0  0  0  0  0  0  0  0
    8.3169  -13.4079   18.8570 C   0  0  0  0  0  0  0  0  0  0  0  0
    8.7549  -14.5940   19.6901 C   0  0  0  0  0  0  0  0  0  0  0  0
    8.9645  -15.8278   18.8369 C   0  0  2  0  0  0  0  0  0  0  0  0
    7.8128  -15.9854   17.9903 N   0  0  0  0  0  0  0  0  0  0  0  0
    9.1854  -16.9627   19.7401 C   0  0  0  0  0  0  0  0  0  0  0  0
    8.2079  -17.6987   20.0227 O   0  0  0  0  0  0  0  0  0  0  0  0
   10.6021  -20.1958   19.1088 C   0  0  0  0  0  0  0  0  0  0  0  0
   11.3929  -19.5905   20.2422 C   0  0  1  0  0  0  0  0  0  0  0  0
   12.6564  -19.1675   19.8397 O   0  0  0  0  0  0  0  0  0  0  0  0
   10.6384  -18.5536   21.0055 C   0  0  2  0  0  0  0  0  0  0  0  0
   10.4029  -17.3217   20.3361 N   0  0  0  0  0  0  0  0  0  0  0  0
   11.3942  -18.2930   22.2642 C   0  0  0  0  0  0  0  0  0  0  0  0
   12.0233  -17.1951   22.4378 O   0  0  0  0  0  0  0  0  0  0  0  0
   11.4691  -19.2166   23.3312 N   0  0  0  0  0  0  0  0  0  0  0  0
   12.0990  -18.8714   24.6260 C   0  0  1  0  0  0  0  0  0  0  0  0
   11.5983  -19.7584   25.7053 C   0  0  0  0  0  0  0  0  0  0  0  0
   12.2809  -19.4762   27.0069 C   0  0  0  0  0  0  0  0  0  0  0  0
   11.8423  -20.4295   28.1099 C   0  0  0  0  0  0  0  0  0  0  0  0
   12.4090  -19.9316   29.4470 C   0  0  0  0  0  0  0  0  0  0  0  0
   11.8771  -20.7007   30.5565 N   0  0  0  0  0  0  0  0  0  0  0  0
   13.5371  -19.0429   24.4174 C   0  0  0  0  0  0  0  0  0  0  0  0
   14.0222  -19.8325   23.3981 O   0  0  0  0  0  0  0  0  0  0  0  0
   14.3658  -18.4792   25.1568 O   0  0  0  0  0  0  0  0  0  0  0  0
  1  2  1  0
  3  2  1  0
  4  3  1  0
  5  4  1  0
  5  6  1  1
  7 13  1  0
  7  5  1  0
  8  7  2  0
 10 12  1  0
 10  9  1  6
 11 10  1  0
 12 13  1  6
 14 12  1  0
 14 15  2  0
 16 14  1  0
 17 16  1  0
 17 23  1  0
 17 18  1  1
 19 18  1  0
 20 19  1  0
 21 20  1  0
 21 22  1  0
 23 25  2  0
 23 24  1  0
M  END
$$$$
