MTK.pdb
     RDKit          3D

 25 24  0  0  1  0  0  0  0  0999 V2000
    6.7803  -10.7304   25.2920 C   0  0  0  0  0  0  0  0  0  0  0  0
    6.3192  -11.6629   26.7765 S   0  0  0  0  0  0  0  0  0  0  0  0
    5.6842  -13.3031   26.3035 C   0  0  0  0  0  0  0  0  0  0  0  0
    6.8258  -14.1005   25.7089 C   0  0  0  0  0  0  0  0  0  0  0  0
    6.3399  -15.3970   25.0947 C   0  0  2  0  0  0  0  0  0  0  0  0
    5.8403  -16.2322   26.1532 N   0  0  0  0  0  0  0  0  0  0  0  0
    7.4630  -15.9920   24.3616 C   0  0  0  0  0  0  0  0  0  0  0  0
    8.1010  -16.9272   24.9051 O   0  0  0  0  0  0  0  0  0  0  0  0
    7.7193  -15.9996   20.1243 C   0  0  0  0  0  0  0  0  0  0  0  0
    9.0158  -15.9486   20.8944 C   0  0  1  0  0  0  0  0  0  0  0  0
    9.6896  -14.7436   20.7178 O   0  0  0  0  0  0  0  0  0  0  0  0
    8.8712  -16.3400   22.3272 C   0  0  2  0  0  0  0  0  0  0  0  0
    7.9107  -15.6176   23.0865 N   0  0  0  0  0  0  0  0  0  0  0  0
   10.2119  -16.1943   22.9633 C   0  0  0  0  0  0  0  0  0  0  0  0
   10.5462  -15.1108   23.5512 O   0  0  0  0  0  0  0  0  0  0  0  0
   11.1874  -17.2168   22.9637 N   0  0  0  0  0  0  0  0  0  0  0  0
   12.4576  -17.0902   23.7140 C   0  0  1  0  0  0  0  0  0  0  0  0
   12.7966  -18.3673   24.3896 C   0  0  0  0  0  0  0  0  0  0  0  0
   12.2138  -18.4297   25.7667 C   0  0  0  0  0  0  0  0  0  0  0  0
   12.4197  -19.7885   26.4219 C   0  0  0  0  0  0  0  0  0  0  0  0
   11.8767  -19.7319   27.8569 C   0  0  0  0  0  0  0  0  0  0  0  0
   11.9610  -21.0314   28.4968 N   0  0  0  0  0  0  0  0  0  0  0  0
   13.4651  -16.7299   22.7158 C   0  0  0  0  0  0  0  0  0  0  0  0
   14.6416  -16.1121   23.0786 O   0  0  0  0  0  0  0  0  0  0  0  0
   13.2876  -16.9716   21.5069 O   0  0  0  0  0  0  0  0  0  0  0  0
  1  2  1  0
  3  2  1  0
  4  3  1  0
  5  4  1  0
  5  6  1  1
  7 13  1  0
  7  5  1  0
  8  7  2  0
 10 12  1  0
 10  9  1  1
 11 10  1  0
 12 13  1  1
 14 12  1  0
 14 15  2  0
 16 14  1  0
 17 16  1  0
 17 23  1  0
 17 18  1  6
 19 18  1  0
 20 19  1  0
 21 20  1  0
 21 22  1  0
 23 25  2  0
 23 24  1  0
M  END
$$$$
