MTK.pdb
     RDKit          3D

 25 24  0  0  1  0  0  0  0  0999 V2000
    8.4044  -12.4283   27.5200 C   0  0  0  0  0  0  0  0  0  0  0  0
    7.1516  -11.5504   26.5476 S   0  0  0  0  0  0  0  0  0  0  0  0
    6.2912  -12.7202   25.4483 C   0  0  0  0  0  0  0  0  0  0  0  0
    7.1702  -13.9404   25.2724 C   0  0  0  0  0  0  0  0  0  0  0  0
    6.5967  -14.8979   24.2484 C   0  0  2  0  0  0  0  0  0  0  0  0
    5.3085  -15.3326   24.7168 N   0  0  0  0  0  0  0  0  0  0  0  0
    7.5563  -15.9944   24.0762 C   0  0  0  0  0  0  0  0  0  0  0  0
    7.1148  -17.1683   24.0120 O   0  0  0  0  0  0  0  0  0  0  0  0
    8.0367  -16.8631   21.2662 C   0  0  0  0  0  0  0  0  0  0  0  0
    9.4473  -16.4619   21.6207 C   0  0  1  0  0  0  0  0  0  0  0  0
    9.7872  -15.2130   21.1087 O   0  0  0  0  0  0  0  0  0  0  0  0
    9.7600  -16.6102   23.0723 C   0  0  2  0  0  0  0  0  0  0  0  0
    8.9490  -15.8673   23.9732 N   0  0  0  0  0  0  0  0  0  0  0  0
   11.1872  -16.2211   23.2598 C   0  0  0  0  0  0  0  0  0  0  0  0
   11.5853  -15.0361   22.9979 O   0  0  0  0  0  0  0  0  0  0  0  0
   12.1801  -17.1106   23.7288 N   0  0  0  0  0  0  0  0  0  0  0  0
   13.3490  -16.6426   24.5080 C   0  0  1  0  0  0  0  0  0  0  0  0
   13.7446  -17.6550   25.5184 C   0  0  0  0  0  0  0  0  0  0  0  0
   12.6579  -17.8801   26.5225 C   0  0  0  0  0  0  0  0  0  0  0  0
   13.0239  -18.9496   27.5424 C   0  0  0  0  0  0  0  0  0  0  0  0
   11.8689  -19.0926   28.5438 C   0  0  0  0  0  0  0  0  0  0  0  0
   12.1964  -20.0514   29.5826 N   0  0  0  0  0  0  0  0  0  0  0  0
   14.4108  -16.4258   23.5247 C   0  0  0  0  0  0  0  0  0  0  0  0
   15.4665  -15.5808   23.7876 O   0  0  0  0  0  0  0  0  0  0  0  0
   14.3906  -16.9997   22.4195 O   0  0  0  0  0  0  0  0  0  0  0  0
  1  2  1  0
  3  2  1  0
  4  3  1  0
  5  4  1  0
  5  6  1  1
  7 13  1  0
  7  5  1  0
  8  7  2  0
 10 12  1  0
 10  9  1  1
 11 10  1  0
 12 13  1  1
 14 12  1  0
 14 15  2  0
 16 14  1  0
 17 16  1  0
 17 23  1  0
 17 18  1  1
 19 18  1  0
 20 19  1  0
 21 20  1  0
 21 22  1  0
 23 25  2  0
 23 24  1  0
M  END
$$$$
