MTK.pdb
     RDKit          3D

 25 24  0  0  1  0  0  0  0  0999 V2000
    7.3713  -11.2486   25.9676 C   0  0  0  0  0  0  0  0  0  0  0  0
    6.4884  -12.3476   27.1072 S   0  0  0  0  0  0  0  0  0  0  0  0
    5.8285  -13.7805   26.1969 C   0  0  0  0  0  0  0  0  0  0  0  0
    6.9948  -14.5507   25.6144 C   0  0  0  0  0  0  0  0  0  0  0  0
    6.5262  -15.6992   24.7451 C   0  0  2  0  0  0  0  0  0  0  0  0
    5.8117  -16.6272   25.5794 N   0  0  0  0  0  0  0  0  0  0  0  0
    7.7084  -16.2828   24.1013 C   0  0  0  0  0  0  0  0  0  0  0  0
    8.2819  -17.2454   24.6684 O   0  0  0  0  0  0  0  0  0  0  0  0
    8.4621  -16.3089   19.9407 C   0  0  0  0  0  0  0  0  0  0  0  0
    9.6557  -16.1279   20.8456 C   0  0  1  0  0  0  0  0  0  0  0  0
   10.2374  -14.8707   20.7098 O   0  0  0  0  0  0  0  0  0  0  0  0
    9.3878  -16.5046   22.2645 C   0  0  2  0  0  0  0  0  0  0  0  0
    8.2800  -15.8693   22.8894 N   0  0  0  0  0  0  0  0  0  0  0  0
   10.6260  -16.2112   23.0418 C   0  0  0  0  0  0  0  0  0  0  0  0
   10.7064  -15.1742   23.7831 O   0  0  0  0  0  0  0  0  0  0  0  0
   11.7729  -17.0364   23.0174 N   0  0  0  0  0  0  0  0  0  0  0  0
   12.9059  -16.8343   23.9490 C   0  0  1  0  0  0  0  0  0  0  0  0
   13.0568  -18.0025   24.8517 C   0  0  0  0  0  0  0  0  0  0  0  0
   13.0223  -17.5910   26.2902 C   0  0  0  0  0  0  0  0  0  0  0  0
   13.1898  -18.7730   27.2351 C   0  0  0  0  0  0  0  0  0  0  0  0
   13.2906  -18.2448   28.6732 C   0  0  0  0  0  0  0  0  0  0  0  0
   13.5152  -19.3289   29.6112 N   0  0  0  0  0  0  0  0  0  0  0  0
   14.0836  -16.6609   23.0980 C   0  0  0  0  0  0  0  0  0  0  0  0
   15.1706  -15.9290   23.5225 O   0  0  0  0  0  0  0  0  0  0  0  0
   14.1372  -17.1708   21.9629 O   0  0  0  0  0  0  0  0  0  0  0  0
  1  2  1  0
  3  2  1  0
  4  3  1  0
  5  4  1  0
  5  6  1  1
  7 13  1  0
  7  5  1  0
  8  7  2  0
 10 12  1  0
 10  9  1  6
 11 10  1  0
 12 13  1  1
 14 12  1  0
 14 15  2  0
 16 14  1  0
 17 16  1  0
 17 23  1  0
 17 18  1  1
 19 18  1  0
 20 19  1  0
 21 20  1  0
 21 22  1  0
 23 25  2  0
 23 24  1  0
M  END
$$$$
