MTK.pdb
     RDKit          3D

 25 24  0  0  1  0  0  0  0  0999 V2000
    8.2721  -11.7415   19.6892 C   0  0  0  0  0  0  0  0  0  0  0  0
    7.6396  -12.4687   18.1540 S   0  0  0  0  0  0  0  0  0  0  0  0
    8.5416  -14.0064   17.7812 C   0  0  0  0  0  0  0  0  0  0  0  0
    8.4790  -14.9010   19.0012 C   0  0  0  0  0  0  0  0  0  0  0  0
    9.1524  -16.2343   18.7502 C   0  0  2  0  0  0  0  0  0  0  0  0
    8.4226  -16.9145   17.7146 N   0  0  0  0  0  0  0  0  0  0  0  0
    9.1814  -16.9660   20.0216 C   0  0  0  0  0  0  0  0  0  0  0  0
    8.1153  -17.4851   20.4351 O   0  0  0  0  0  0  0  0  0  0  0  0
   11.5185  -19.8209   21.8020 C   0  0  0  0  0  0  0  0  0  0  0  0
   11.4078  -18.5321   22.5786 C   0  0  1  0  0  0  0  0  0  0  0  0
   12.6126  -17.8366   22.6250 O   0  0  0  0  0  0  0  0  0  0  0  0
   10.2524  -17.6848   22.1616 C   0  0  2  0  0  0  0  0  0  0  0  0
   10.3016  -17.1518   20.8446 N   0  0  0  0  0  0  0  0  0  0  0  0
   10.1475  -16.5658   23.1416 C   0  0  0  0  0  0  0  0  0  0  0  0
   10.7468  -15.4563   22.9390 O   0  0  0  0  0  0  0  0  0  0  0  0
    9.3969  -16.6467   24.3363 N   0  0  0  0  0  0  0  0  0  0  0  0
    9.3049  -15.5130   25.2843 C   0  0  1  0  0  0  0  0  0  0  0  0
    7.9967  -14.8248   25.1527 C   0  0  0  0  0  0  0  0  0  0  0  0
    7.8798  -13.6826   26.1127 C   0  0  0  0  0  0  0  0  0  0  0  0
    6.5371  -12.9728   26.0079 C   0  0  0  0  0  0  0  0  0  0  0  0
    6.5660  -11.7269   26.9047 C   0  0  0  0  0  0  0  0  0  0  0  0
    5.2765  -11.0617   26.9132 N   0  0  0  0  0  0  0  0  0  0  0  0
    9.4670  -16.1030   26.6136 C   0  0  0  0  0  0  0  0  0  0  0  0
    9.8241  -15.3329   27.6984 O   0  0  0  0  0  0  0  0  0  0  0  0
    9.2868  -17.3208   26.8028 O   0  0  0  0  0  0  0  0  0  0  0  0
  1  2  1  0
  3  2  1  0
  4  3  1  0
  5  4  1  0
  5  6  1  6
  7 13  1  0
  7  5  1  0
  8  7  2  0
 10 12  1  0
 10  9  1  6
 11 10  1  0
 12 13  1  6
 14 12  1  0
 14 15  2  0
 16 14  1  0
 17 16  1  0
 17 23  1  0
 17 18  1  1
 19 18  1  0
 20 19  1  0
 21 20  1  0
 21 22  1  0
 23 25  2  0
 23 24  1  0
M  END
$$$$
