MTK.pdb
     RDKit          3D

 25 24  0  0  1  0  0  0  0  0999 V2000
    7.1153  -11.9301   20.6161 C   0  0  0  0  0  0  0  0  0  0  0  0
    8.3875  -11.7954   19.3319 S   0  0  0  0  0  0  0  0  0  0  0  0
    8.9858  -13.4547   18.8782 C   0  0  0  0  0  0  0  0  0  0  0  0
    8.1706  -14.4779   19.6405 C   0  0  0  0  0  0  0  0  0  0  0  0
    8.6893  -15.8833   19.4166 C   0  0  2  0  0  0  0  0  0  0  0  0
    7.9879  -16.4437   18.2933 N   0  0  0  0  0  0  0  0  0  0  0  0
    8.4939  -16.6348   20.6615 C   0  0  0  0  0  0  0  0  0  0  0  0
    7.6789  -17.5903   20.6594 O   0  0  0  0  0  0  0  0  0  0  0  0
    9.2461  -19.4648   21.6440 C   0  0  0  0  0  0  0  0  0  0  0  0
    9.9266  -18.6026   22.6784 C   0  0  1  0  0  0  0  0  0  0  0  0
   11.2807  -18.4235   22.4107 O   0  0  0  0  0  0  0  0  0  0  0  0
    9.2054  -17.3258   22.9549 C   0  0  2  0  0  0  0  0  0  0  0  0
    9.1369  -16.3931   21.8840 N   0  0  0  0  0  0  0  0  0  0  0  0
    9.8729  -16.6844   24.1239 C   0  0  0  0  0  0  0  0  0  0  0  0
   10.8827  -15.9187   23.9656 O   0  0  0  0  0  0  0  0  0  0  0  0
    9.4495  -16.8707   25.4592 N   0  0  0  0  0  0  0  0  0  0  0  0
    9.7390  -15.8795   26.5205 C   0  0  1  0  0  0  0  0  0  0  0  0
    8.4907  -15.2176   26.9740 C   0  0  0  0  0  0  0  0  0  0  0  0
    8.2014  -13.9869   26.1730 C   0  0  0  0  0  0  0  0  0  0  0  0
    6.9536  -13.2609   26.6567 C   0  0  0  0  0  0  0  0  0  0  0  0
    6.7243  -12.0289   25.7695 C   0  0  0  0  0  0  0  0  0  0  0  0
    5.5163  -11.3253   26.1582 N   0  0  0  0  0  0  0  0  0  0  0  0
   10.3644  -16.6398   27.6031 C   0  0  0  0  0  0  0  0  0  0  0  0
   11.1479  -16.0202   28.5517 O   0  0  0  0  0  0  0  0  0  0  0  0
   10.2065  -17.8716   27.6983 O   0  0  0  0  0  0  0  0  0  0  0  0
  1  2  1  0
  3  2  1  0
  4  3  1  0
  5  4  1  0
  5  6  1  6
  7 13  1  0
  7  5  1  0
  8  7  2  0
 10 12  1  0
 10  9  1  6
 11 10  1  0
 12 13  1  6
 14 12  1  0
 14 15  2  0
 16 14  1  0
 17 16  1  0
 17 23  1  0
 17 18  1  1
 19 18  1  0
 20 19  1  0
 21 20  1  0
 21 22  1  0
 23 25  2  0
 23 24  1  0
M  END
$$$$
