MTK.pdb
     RDKit          3D

 25 24  0  0  1  0  0  0  0  0999 V2000
    6.9941  -11.2103   25.8035 C   0  0  0  0  0  0  0  0  0  0  0  0
    6.9059  -12.9732   26.2160 S   0  0  0  0  0  0  0  0  0  0  0  0
    6.6064  -13.9468   24.7062 C   0  0  0  0  0  0  0  0  0  0  0  0
    7.3842  -13.3142   23.5715 C   0  0  0  0  0  0  0  0  0  0  0  0
    7.2822  -14.1327   22.3011 C   0  0  2  0  0  0  0  0  0  0  0  0
    5.8945  -14.4337   22.0748 N   0  0  0  0  0  0  0  0  0  0  0  0
    8.1187  -15.3261   22.4707 C   0  0  0  0  0  0  0  0  0  0  0  0
    7.5909  -16.3613   22.9471 O   0  0  0  0  0  0  0  0  0  0  0  0
   10.3570  -17.0066   19.6923 C   0  0  0  0  0  0  0  0  0  0  0  0
   11.1023  -16.9136   21.0008 C   0  0  1  0  0  0  0  0  0  0  0  0
   12.1906  -16.0488   20.9300 O   0  0  0  0  0  0  0  0  0  0  0  0
   10.2154  -16.6521   22.1721 C   0  0  2  0  0  0  0  0  0  0  0  0
    9.4793  -15.4360   22.1493 N   0  0  0  0  0  0  0  0  0  0  0  0
   11.0719  -16.6859   23.3923 C   0  0  0  0  0  0  0  0  0  0  0  0
   11.1855  -15.6598   24.1442 O   0  0  0  0  0  0  0  0  0  0  0  0
   11.8027  -17.8255   23.7975 N   0  0  0  0  0  0  0  0  0  0  0  0
   12.3944  -17.9390   25.1501 C   0  0  1  0  0  0  0  0  0  0  0  0
   11.5230  -18.7491   26.0370 C   0  0  0  0  0  0  0  0  0  0  0  0
   12.2021  -19.0642   27.3328 C   0  0  0  0  0  0  0  0  0  0  0  0
   11.2888  -19.8035   28.3009 C   0  0  0  0  0  0  0  0  0  0  0  0
   12.0625  -20.0766   29.5986 C   0  0  0  0  0  0  0  0  0  0  0  0
   11.1895  -20.6261   30.6192 N   0  0  0  0  0  0  0  0  0  0  0  0
   13.6967  -18.5766   24.9531 C   0  0  0  0  0  0  0  0  0  0  0  0
   14.7619  -18.2965   25.7803 O   0  0  0  0  0  0  0  0  0  0  0  0
   13.8801  -19.3923   24.0300 O   0  0  0  0  0  0  0  0  0  0  0  0
  1  2  1  0
  3  2  1  0
  4  3  1  0
  5  4  1  0
  5  6  1  1
  7 13  1  0
  7  5  1  0
  8  7  2  0
 10 12  1  0
 10  9  1  6
 11 10  1  0
 12 13  1  6
 14 12  1  0
 14 15  2  0
 16 14  1  0
 17 16  1  0
 17 23  1  0
 17 18  1  1
 19 18  1  0
 20 19  1  0
 21 20  1  0
 21 22  1  0
 23 25  2  0
 23 24  1  0
M  END
$$$$
