MTK.pdb
     RDKit          3D

 25 24  0  0  1  0  0  0  0  0999 V2000
    8.0113  -11.0803   26.0895 C   0  0  0  0  0  0  0  0  0  0  0  0
    7.0121  -11.8019   27.4188 S   0  0  0  0  0  0  0  0  0  0  0  0
    6.0482  -13.2065   26.7744 C   0  0  0  0  0  0  0  0  0  0  0  0
    6.9804  -14.0975   25.9808 C   0  0  0  0  0  0  0  0  0  0  0  0
    6.2373  -15.2503   25.3381 C   0  0  2  0  0  0  0  0  0  0  0  0
    5.5739  -15.9885   26.3786 N   0  0  0  0  0  0  0  0  0  0  0  0
    7.2138  -16.0476   24.5875 C   0  0  0  0  0  0  0  0  0  0  0  0
    7.3566  -17.2573   24.8932 O   0  0  0  0  0  0  0  0  0  0  0  0
    7.4110  -15.5528   20.6809 C   0  0  0  0  0  0  0  0  0  0  0  0
    8.7543  -15.9953   21.2062 C   0  0  1  0  0  0  0  0  0  0  0  0
    9.7579  -15.0677   20.9419 O   0  0  0  0  0  0  0  0  0  0  0  0
    8.7187  -16.4369   22.6312 C   0  0  2  0  0  0  0  0  0  0  0  0
    8.0247  -15.5907   23.5387 N   0  0  0  0  0  0  0  0  0  0  0  0
   10.1315  -16.5892   23.0830 C   0  0  0  0  0  0  0  0  0  0  0  0
   10.7526  -15.6203   23.6369 O   0  0  0  0  0  0  0  0  0  0  0  0
   10.8698  -17.7852   22.9363 N   0  0  0  0  0  0  0  0  0  0  0  0
   12.2378  -17.9359   23.4827 C   0  0  1  0  0  0  0  0  0  0  0  0
   13.0911  -16.7898   23.0822 C   0  0  0  0  0  0  0  0  0  0  0  0
   14.2336  -17.2318   22.2224 C   0  0  0  0  0  0  0  0  0  0  0  0
   14.6681  -16.1550   21.2378 C   0  0  0  0  0  0  0  0  0  0  0  0
   15.7681  -16.7284   20.3330 C   0  0  0  0  0  0  0  0  0  0  0  0
   16.2740  -15.7169   19.4239 N   0  0  0  0  0  0  0  0  0  0  0  0
   12.0722  -17.9971   24.9353 C   0  0  0  0  0  0  0  0  0  0  0  0
   11.5123  -16.9513   25.6354 O   0  0  0  0  0  0  0  0  0  0  0  0
   12.4337  -18.9983   25.5819 O   0  0  0  0  0  0  0  0  0  0  0  0
  1  2  1  0
  3  2  1  0
  4  3  1  0
  5  4  1  0
  5  6  1  1
  7 13  1  0
  7  5  1  0
  8  7  2  0
 10 12  1  0
 10  9  1  1
 11 10  1  0
 12 13  1  1
 14 12  1  0
 14 15  2  0
 16 14  1  0
 17 16  1  0
 17 23  1  0
 17 18  1  1
 19 18  1  0
 20 19  1  0
 21 20  1  0
 21 22  1  0
 23 25  2  0
 23 24  1  0
M  END
$$$$
