MTK.pdb
     RDKit          3D

 25 24  0  0  1  0  0  0  0  0999 V2000
    8.7107  -12.4699   20.8366 C   0  0  0  0  0  0  0  0  0  0  0  0
    7.3665  -13.0370   19.7608 S   0  0  0  0  0  0  0  0  0  0  0  0
    8.0572  -13.7752   18.2458 C   0  0  0  0  0  0  0  0  0  0  0  0
    9.1945  -14.6933   18.6411 C   0  0  0  0  0  0  0  0  0  0  0  0
    9.7091  -15.4854   17.4570 C   0  0  2  0  0  0  0  0  0  0  0  0
    8.6033  -16.2085   16.8897 N   0  0  0  0  0  0  0  0  0  0  0  0
   10.7904  -16.3534   17.9368 C   0  0  0  0  0  0  0  0  0  0  0  0
   10.5463  -17.5743   18.1008 O   0  0  0  0  0  0  0  0  0  0  0  0
   14.1342  -17.3503   16.4439 C   0  0  0  0  0  0  0  0  0  0  0  0
   14.3684  -16.8736   17.8561 C   0  0  1  0  0  0  0  0  0  0  0  0
   15.0996  -15.6901   17.9011 O   0  0  0  0  0  0  0  0  0  0  0  0
   13.1266  -16.8323   18.6826 C   0  0  2  0  0  0  0  0  0  0  0  0
   12.1002  -15.9542   18.2390 N   0  0  0  0  0  0  0  0  0  0  0  0
   13.5295  -16.4578   20.0686 C   0  0  0  0  0  0  0  0  0  0  0  0
   12.9774  -15.4762   20.6710 O   0  0  0  0  0  0  0  0  0  0  0  0
   14.5257  -17.1428   20.8002 N   0  0  0  0  0  0  0  0  0  0  0  0
   14.4439  -17.3135   22.2688 C   0  0  1  0  0  0  0  0  0  0  0  0
   13.2290  -18.0804   22.6403 C   0  0  0  0  0  0  0  0  0  0  0  0
   13.1875  -18.3627   24.1095 C   0  0  0  0  0  0  0  0  0  0  0  0
   11.9059  -19.0702   24.5276 C   0  0  0  0  0  0  0  0  0  0  0  0
   11.9887  -19.3971   26.0254 C   0  0  0  0  0  0  0  0  0  0  0  0
   10.7913  -20.0822   26.4755 N   0  0  0  0  0  0  0  0  0  0  0  0
   15.6635  -18.0287   22.6461 C   0  0  0  0  0  0  0  0  0  0  0  0
   16.4007  -17.6529   23.7474 O   0  0  0  0  0  0  0  0  0  0  0  0
   16.0713  -18.9997   21.9810 O   0  0  0  0  0  0  0  0  0  0  0  0
  1  2  1  0
  3  2  1  0
  4  3  1  0
  5  4  1  0
  5  6  1  1
  7 13  1  0
  7  5  1  0
  8  7  2  0
 10 12  1  0
 10  9  1  6
 11 10  1  0
 12 13  1  6
 14 12  1  0
 14 15  2  0
 16 14  1  0
 17 16  1  0
 17 23  1  0
 17 18  1  6
 19 18  1  0
 20 19  1  0
 21 20  1  0
 21 22  1  0
 23 25  2  0
 23 24  1  0
M  END
$$$$
