MTK.pdb
     RDKit          3D

 25 24  0  0  1  0  0  0  0  0999 V2000
   11.8040  -16.6199   15.5724 C   0  0  0  0  0  0  0  0  0  0  0  0
   12.5694  -15.3815   16.6524 S   0  0  0  0  0  0  0  0  0  0  0  0
   11.2921  -14.2640   17.3133 C   0  0  0  0  0  0  0  0  0  0  0  0
    9.9615  -14.9852   17.2691 C   0  0  0  0  0  0  0  0  0  0  0  0
    8.8449  -14.1305   17.8319 C   0  0  2  0  0  0  0  0  0  0  0  0
    8.8224  -12.8905   17.1041 N   0  0  0  0  0  0  0  0  0  0  0  0
    9.0932  -13.9607   19.2679 C   0  0  0  0  0  0  0  0  0  0  0  0
    8.8980  -12.8294   19.7770 O   0  0  0  0  0  0  0  0  0  0  0  0
    6.9032  -13.9958   21.3851 C   0  0  0  0  0  0  0  0  0  0  0  0
    7.7420  -15.1608   21.8492 C   0  0  1  0  0  0  0  0  0  0  0  0
    7.2141  -16.3855   21.4504 O   0  0  0  0  0  0  0  0  0  0  0  0
    9.1926  -15.0117   21.5326 C   0  0  2  0  0  0  0  0  0  0  0  0
    9.5366  -14.9527   20.1544 N   0  0  0  0  0  0  0  0  0  0  0  0
    9.9047  -16.1571   22.1688 C   0  0  0  0  0  0  0  0  0  0  0  0
    9.8312  -17.3327   21.6750 O   0  0  0  0  0  0  0  0  0  0  0  0
   10.6933  -16.0312   23.3346 N   0  0  0  0  0  0  0  0  0  0  0  0
   11.5905  -17.1147   23.7967 C   0  0  1  0  0  0  0  0  0  0  0  0
   13.0039  -16.6625   23.7917 C   0  0  0  0  0  0  0  0  0  0  0  0
   13.6244  -16.8200   22.4389 C   0  0  0  0  0  0  0  0  0  0  0  0
   14.2498  -15.5269   21.9343 C   0  0  0  0  0  0  0  0  0  0  0  0
   14.8848  -15.7887   20.5612 C   0  0  0  0  0  0  0  0  0  0  0  0
   15.4443  -14.5705   20.0058 N   0  0  0  0  0  0  0  0  0  0  0  0
   11.1393  -17.4434   25.1494 C   0  0  0  0  0  0  0  0  0  0  0  0
   11.7331  -18.4523   25.8753 O   0  0  0  0  0  0  0  0  0  0  0  0
   10.2035  -16.8195   25.6844 O   0  0  0  0  0  0  0  0  0  0  0  0
  1  2  1  0
  3  2  1  0
  4  3  1  0
  5  4  1  0
  5  6  1  6
  7 13  1  0
  7  5  1  0
  8  7  2  0
 10 12  1  0
 10  9  1  6
 11 10  1  0
 12 13  1  6
 14 12  1  0
 14 15  2  0
 16 14  1  0
 17 16  1  0
 17 23  1  0
 17 18  1  1
 19 18  1  0
 20 19  1  0
 21 20  1  0
 21 22  1  0
 23 25  2  0
 23 24  1  0
M  END
$$$$
