MTK.pdb
     RDKit          3D

 25 24  0  0  1  0  0  0  0  0999 V2000
    6.2814  -11.5399   26.8915 C   0  0  0  0  0  0  0  0  0  0  0  0
    7.6533  -12.5991   27.4222 S   0  0  0  0  0  0  0  0  0  0  0  0
    7.2884  -14.3354   27.0105 C   0  0  0  0  0  0  0  0  0  0  0  0
    6.6957  -14.3784   25.6178 C   0  0  0  0  0  0  0  0  0  0  0  0
    6.3569  -15.7942   25.1994 C   0  0  2  0  0  0  0  0  0  0  0  0
    6.9199  -16.6929   26.1705 N   0  0  0  0  0  0  0  0  0  0  0  0
    6.8803  -15.9962   23.8437 C   0  0  0  0  0  0  0  0  0  0  0  0
    6.0622  -16.2021   22.9133 O   0  0  0  0  0  0  0  0  0  0  0  0
    6.5552  -15.1865   21.0679 C   0  0  0  0  0  0  0  0  0  0  0  0
    8.0448  -14.9904   21.2056 C   0  0  1  0  0  0  0  0  0  0  0  0
    8.3810  -13.6699   21.4898 O   0  0  0  0  0  0  0  0  0  0  0  0
    8.6911  -15.9748   22.1221 C   0  0  2  0  0  0  0  0  0  0  0  0
    8.2311  -15.9835   23.4673 N   0  0  0  0  0  0  0  0  0  0  0  0
   10.1566  -15.6996   22.1051 C   0  0  0  0  0  0  0  0  0  0  0  0
   10.6052  -14.5164   22.2785 O   0  0  0  0  0  0  0  0  0  0  0  0
   11.1330  -16.7005   21.9012 N   0  0  0  0  0  0  0  0  0  0  0  0
   12.0412  -17.1438   22.9834 C   0  0  1  0  0  0  0  0  0  0  0  0
   11.4161  -18.2280   23.7810 C   0  0  0  0  0  0  0  0  0  0  0  0
   12.3801  -18.8070   24.7685 C   0  0  0  0  0  0  0  0  0  0  0  0
   11.7432  -19.8823   25.6378 C   0  0  0  0  0  0  0  0  0  0  0  0
   12.7946  -20.4036   26.6279 C   0  0  0  0  0  0  0  0  0  0  0  0
   12.2385  -21.4367   27.4816 N   0  0  0  0  0  0  0  0  0  0  0  0
   13.2537  -17.6080   22.3084 C   0  0  0  0  0  0  0  0  0  0  0  0
   14.4970  -17.4410   22.8776 O   0  0  0  0  0  0  0  0  0  0  0  0
   13.1967  -18.1684   21.1976 O   0  0  0  0  0  0  0  0  0  0  0  0
  1  2  1  0
  3  2  1  0
  4  3  1  0
  5  4  1  0
  5  6  1  1
  7 13  1  0
  7  5  1  0
  8  7  2  0
 10 12  1  0
 10  9  1  1
 11 10  1  0
 12 13  1  1
 14 12  1  0
 14 15  2  0
 16 14  1  0
 17 16  1  0
 17 23  1  0
 17 18  1  6
 19 18  1  0
 20 19  1  0
 21 20  1  0
 21 22  1  0
 23 25  2  0
 23 24  1  0
M  END
$$$$
