MTK.pdb
     RDKit          3D

 25 24  0  0  1  0  0  0  0  0999 V2000
    8.4150  -11.6548   20.4454 C   0  0  0  0  0  0  0  0  0  0  0  0
    7.9845  -12.1820   18.7654 S   0  0  0  0  0  0  0  0  0  0  0  0
    8.1785  -13.9867   18.6153 C   0  0  0  0  0  0  0  0  0  0  0  0
    8.1392  -14.5855   20.0055 C   0  0  0  0  0  0  0  0  0  0  0  0
    8.1817  -16.0989   19.9623 C   0  0  2  0  0  0  0  0  0  0  0  0
    7.1594  -16.5481   19.0563 N   0  0  0  0  0  0  0  0  0  0  0  0
    8.0041  -16.5897   21.3335 C   0  0  0  0  0  0  0  0  0  0  0  0
    6.8394  -16.6474   21.7998 O   0  0  0  0  0  0  0  0  0  0  0  0
    9.0292  -19.3793   25.1807 C   0  0  0  0  0  0  0  0  0  0  0  0
    9.3194  -18.8954   23.7814 C   0  0  1  0  0  0  0  0  0  0  0  0
    8.9500  -19.8241   22.8126 O   0  0  0  0  0  0  0  0  0  0  0  0
    8.8044  -17.5215   23.5094 C   0  0  2  0  0  0  0  0  0  0  0  0
    9.0224  -17.0118   22.2002 N   0  0  0  0  0  0  0  0  0  0  0  0
    9.4348  -16.6073   24.5045 C   0  0  0  0  0  0  0  0  0  0  0  0
   10.6577  -16.2561   24.3922 O   0  0  0  0  0  0  0  0  0  0  0  0
    8.7450  -16.0750   25.6171 N   0  0  0  0  0  0  0  0  0  0  0  0
    9.3947  -15.1529   26.5764 C   0  0  1  0  0  0  0  0  0  0  0  0
    8.3872  -14.2803   27.2288 C   0  0  0  0  0  0  0  0  0  0  0  0
    7.7141  -13.3844   26.2368 C   0  0  0  0  0  0  0  0  0  0  0  0
    6.6250  -12.5311   26.8722 C   0  0  0  0  0  0  0  0  0  0  0  0
    6.0646  -11.5746   25.8099 C   0  0  0  0  0  0  0  0  0  0  0  0
    4.9085  -10.8570   26.3138 N   0  0  0  0  0  0  0  0  0  0  0  0
   10.0665  -16.0141   27.5501 C   0  0  0  0  0  0  0  0  0  0  0  0
   11.1797  -15.5828   28.2374 O   0  0  0  0  0  0  0  0  0  0  0  0
    9.6508  -17.1642   27.7859 O   0  0  0  0  0  0  0  0  0  0  0  0
  1  2  1  0
  3  2  1  0
  4  3  1  0
  5  4  1  0
  5  6  1  6
  7 13  1  0
  7  5  1  0
  8  7  2  0
 10 12  1  0
 10  9  1  1
 11 10  1  0
 12 13  1  6
 14 12  1  0
 14 15  2  0
 16 14  1  0
 17 16  1  0
 17 23  1  0
 17 18  1  1
 19 18  1  0
 20 19  1  0
 21 20  1  0
 21 22  1  0
 23 25  2  0
 23 24  1  0
M  END
$$$$
