MTK.pdb
     RDKit          3D

 25 24  0  0  1  0  0  0  0  0999 V2000
    8.3390  -10.7719   19.0790 C   0  0  0  0  0  0  0  0  0  0  0  0
    8.1326  -12.1783   20.2038 S   0  0  0  0  0  0  0  0  0  0  0  0
    8.5105  -13.7302   19.3286 C   0  0  0  0  0  0  0  0  0  0  0  0
    8.3764  -14.8742   20.3114 C   0  0  0  0  0  0  0  0  0  0  0  0
    8.7501  -16.1990   19.6795 C   0  0  2  0  0  0  0  0  0  0  0  0
    7.6239  -16.6616   18.9144 N   0  0  0  0  0  0  0  0  0  0  0  0
    9.1391  -17.1141   20.7584 C   0  0  0  0  0  0  0  0  0  0  0  0
    8.5367  -18.2118   20.8552 O   0  0  0  0  0  0  0  0  0  0  0  0
   10.3268  -19.9075   21.2169 C   0  0  0  0  0  0  0  0  0  0  0  0
   11.2531  -19.0713   22.0648 C   0  0  1  0  0  0  0  0  0  0  0  0
   12.4543  -18.7920   21.4194 O   0  0  0  0  0  0  0  0  0  0  0  0
   10.5986  -17.8616   22.6437 C   0  0  2  0  0  0  0  0  0  0  0  0
   10.1372  -16.8872   21.7169 N   0  0  0  0  0  0  0  0  0  0  0  0
   11.5782  -17.2306   23.5741 C   0  0  0  0  0  0  0  0  0  0  0  0
   12.2935  -16.2399   23.2024 O   0  0  0  0  0  0  0  0  0  0  0  0
   11.7833  -17.6695   24.9016 N   0  0  0  0  0  0  0  0  0  0  0  0
   12.2831  -16.7630   25.9603 C   0  0  1  0  0  0  0  0  0  0  0  0
   11.3343  -15.6439   26.1829 C   0  0  0  0  0  0  0  0  0  0  0  0
   10.5730  -15.8171   27.4597 C   0  0  0  0  0  0  0  0  0  0  0  0
    9.6246  -14.6574   27.7306 C   0  0  0  0  0  0  0  0  0  0  0  0
    8.9709  -14.8650   29.1043 C   0  0  0  0  0  0  0  0  0  0  0  0
    9.8456  -14.4137   30.1704 N   0  0  0  0  0  0  0  0  0  0  0  0
   12.4163  -17.5964   27.1556 C   0  0  0  0  0  0  0  0  0  0  0  0
   13.1983  -17.2015   28.2187 O   0  0  0  0  0  0  0  0  0  0  0  0
   11.8257  -18.6892   27.2466 O   0  0  0  0  0  0  0  0  0  0  0  0
  1  2  1  0
  3  2  1  0
  4  3  1  0
  5  4  1  0
  5  6  1  1
  7 13  1  0
  7  5  1  0
  8  7  2  0
 10 12  1  0
 10  9  1  6
 11 10  1  0
 12 13  1  6
 14 12  1  0
 14 15  2  0
 16 14  1  0
 17 16  1  0
 17 23  1  0
 17 18  1  1
 19 18  1  0
 20 19  1  0
 21 20  1  0
 21 22  1  0
 23 25  2  0
 23 24  1  0
M  END
$$$$
