HPS.pdb
     RDKit          3D

 24 25  0  0  1  0  0  0  0  0999 V2000
    6.4824  -12.3838   -4.4584 N   0  0  0  0  0  0  0  0  0  0  0  0
    6.3188  -12.2706   -3.0647 C   0  0  1  0  0  0  0  0  0  0  0  0
    5.0883  -13.1032   -2.6971 C   0  0  0  0  0  0  0  0  0  0  0  0
    3.8669  -12.5083   -3.3031 C   0  0  0  0  0  0  0  0  0  0  0  0
    3.3280  -11.2574   -3.0711 C   0  0  0  0  0  0  0  0  0  0  0  0
    2.2126  -11.0981   -3.8184 N   0  0  0  0  0  0  0  0  0  0  0  0
    2.0427  -12.2226   -4.5127 C   0  0  0  0  0  0  0  0  0  0  0  0
    3.0336  -13.0750   -4.2079 N   0  0  0  0  0  0  0  0  0  0  0  0
    7.4556  -12.6912   -2.2167 C   0  0  0  0  0  0  0  0  0  0  0  0
    8.1439  -13.6906   -2.6921 O   0  0  0  0  0  0  0  0  0  0  0  0
    7.8334  -12.1222   -0.9932 N   0  0  0  0  0  0  0  0  0  0  0  0
    7.2281  -11.0960   -0.2174 C   0  0  0  0  0  0  0  0  0  0  0  0
    8.4459  -10.2038    0.0710 C   0  0  0  0  0  0  0  0  0  0  0  0
    9.5557  -11.1815    0.2281 C   0  0  0  0  0  0  0  0  0  0  0  0
    9.0087  -12.5095   -0.2364 C   0  0  1  0  0  0  0  0  0  0  0  0
    8.6615  -13.3870    0.9101 C   0  0  0  0  0  0  0  0  0  0  0  0
    7.4469  -13.5709    1.1740 O   0  0  0  0  0  0  0  0  0  0  0  0
    9.7767  -17.5546    1.0205 O   0  0  0  0  0  0  0  0  0  0  0  0
    9.7776  -16.1880    0.7373 C   0  0  0  0  0  0  0  0  0  0  0  0
    9.5921  -15.4350    2.0602 C   0  0  2  0  0  0  0  0  0  0  0  0
    9.6155  -14.0256    1.7195 N   0  0  0  0  0  0  0  0  0  0  0  0
   10.7167  -15.7289    2.9849 C   0  0  0  0  0  0  0  0  0  0  0  0
   11.8584  -15.2318    2.8368 O   0  0  0  0  0  0  0  0  0  0  0  0
   10.5341  -16.5802    4.0631 O   0  0  0  0  0  0  0  0  0  0  0  0
  2  1  1  6
  3  2  1  0
  4  3  1  0
  4  5  2  0
  6  5  1  0
  7  6  1  0
  8  7  2  0
  8  4  1  0
  9  2  1  0
 10  9  2  0
 11 15  1  0
 11  9  1  0
 12 11  1  0
 13 12  1  0
 13 14  1  0
 14 15  1  0
 16 17  2  0
 15 16  1  1
 18 19  1  0
 20 19  1  6
 20 22  1  0
 20 21  1  0
 21 16  1  0
 22 24  1  0
 23 22  2  0
M  END
$$$$
