HPS.pdb
     RDKit          3D

 24 25  0  0  1  0  0  0  0  0999 V2000
   41.5109   -8.6453   -5.3263 N   0  0  0  0  0  0  0  0  0  0  0  0
   42.1520   -9.5571   -6.1862 C   0  0  1  0  0  0  0  0  0  0  0  0
   41.2789   -9.6696   -7.4382 C   0  0  0  0  0  0  0  0  0  0  0  0
   39.8768   -9.9900   -7.0585 C   0  0  0  0  0  0  0  0  0  0  0  0
   39.4170  -11.0916   -6.3627 C   0  0  0  0  0  0  0  0  0  0  0  0
   38.0748  -11.0112   -6.2211 N   0  0  0  0  0  0  0  0  0  0  0  0
   37.6856   -9.8829   -6.8135 C   0  0  0  0  0  0  0  0  0  0  0  0
   38.7638   -9.2637   -7.3191 N   0  0  0  0  0  0  0  0  0  0  0  0
   43.5382   -9.2387   -6.5929 C   0  0  0  0  0  0  0  0  0  0  0  0
   43.7998   -7.9643   -6.6701 O   0  0  0  0  0  0  0  0  0  0  0  0
   44.5491  -10.1628   -6.8895 N   0  0  0  0  0  0  0  0  0  0  0  0
   44.4922  -11.5663   -7.1088 C   0  0  0  0  0  0  0  0  0  0  0  0
   45.6321  -12.0420   -6.1941 C   0  0  0  0  0  0  0  0  0  0  0  0
   46.6426  -10.9573   -6.3158 C   0  0  0  0  0  0  0  0  0  0  0  0
   45.9521   -9.8249   -7.0366 C   0  0  1  0  0  0  0  0  0  0  0  0
   46.3567   -9.7601   -8.4639 C   0  0  0  0  0  0  0  0  0  0  0  0
   45.8705  -10.6016   -9.2603 O   0  0  0  0  0  0  0  0  0  0  0  0
   46.7475   -6.5145  -10.3026 O   0  0  0  0  0  0  0  0  0  0  0  0
   47.9070   -7.2211  -10.6256 C   0  0  0  0  0  0  0  0  0  0  0  0
   47.6350   -8.7089  -10.3727 C   0  0  2  0  0  0  0  0  0  0  0  0
   47.2544   -8.8095   -8.9769 N   0  0  0  0  0  0  0  0  0  0  0  0
   48.8681   -9.5058  -10.5975 C   0  0  0  0  0  0  0  0  0  0  0  0
   49.5160  -10.0245   -9.6575 O   0  0  0  0  0  0  0  0  0  0  0  0
   49.3504   -9.7046  -11.8814 O   0  0  0  0  0  0  0  0  0  0  0  0
  2  1  1  1
  3  2  1  0
  4  3  1  0
  4  5  2  0
  6  5  1  0
  7  6  1  0
  8  7  2  0
  8  4  1  0
  9  2  1  0
 10  9  2  0
 11 15  1  0
 11  9  1  0
 12 11  1  0
 13 12  1  0
 13 14  1  0
 14 15  1  0
 16 17  2  0
 15 16  1  6
 18 19  1  0
 20 19  1  1
 20 22  1  0
 20 21  1  0
 21 16  1  0
 22 24  1  0
 23 22  2  0
M  END
$$$$
