HPS.pdb
     RDKit          3D

 24 25  0  0  1  0  0  0  0  0999 V2000
   17.2453  -20.8279    1.8815 N   0  0  0  0  0  0  0  0  0  0  0  0
   17.4419  -20.3321    3.1843 C   0  0  1  0  0  0  0  0  0  0  0  0
   16.1898  -20.6943    3.9865 C   0  0  0  0  0  0  0  0  0  0  0  0
   15.0000  -20.0048    3.4192 C   0  0  0  0  0  0  0  0  0  0  0  0
   14.0240  -20.5352    2.5974 C   0  0  0  0  0  0  0  0  0  0  0  0
   13.1126  -19.5814    2.3013 N   0  0  0  0  0  0  0  0  0  0  0  0
   13.4979  -18.4661    2.9203 C   0  0  0  0  0  0  0  0  0  0  0  0
   14.6320  -18.7133    3.5944 N   0  0  0  0  0  0  0  0  0  0  0  0
   18.6364  -20.8107    3.9139 C   0  0  0  0  0  0  0  0  0  0  0  0
   19.1020  -21.9545    3.4975 O   0  0  0  0  0  0  0  0  0  0  0  0
   19.2787  -20.1568    4.9739 N   0  0  0  0  0  0  0  0  0  0  0  0
   18.9755  -18.9350    5.6346 C   0  0  0  0  0  0  0  0  0  0  0  0
   20.3558  -18.2591    5.6271 C   0  0  0  0  0  0  0  0  0  0  0  0
   21.2944  -19.3979    5.8129 C   0  0  0  0  0  0  0  0  0  0  0  0
   20.4683  -20.6497    5.6417 C   0  0  1  0  0  0  0  0  0  0  0  0
   20.1473  -21.2741    6.9501 C   0  0  0  0  0  0  0  0  0  0  0  0
   19.1742  -20.8219    7.6038 O   0  0  0  0  0  0  0  0  0  0  0  0
   19.9968  -24.9623    7.5544 O   0  0  0  0  0  0  0  0  0  0  0  0
   20.8547  -24.4836    8.5457 C   0  0  0  0  0  0  0  0  0  0  0  0
   20.5455  -22.9963    8.7551 C   0  0  2  0  0  0  0  0  0  0  0  0
   20.8707  -22.3445    7.5012 N   0  0  0  0  0  0  0  0  0  0  0  0
   21.4039  -22.4356    9.8298 C   0  0  0  0  0  0  0  0  0  0  0  0
   22.3675  -21.6693    9.5917 O   0  0  0  0  0  0  0  0  0  0  0  0
   21.1604  -22.7494   11.1576 O   0  0  0  0  0  0  0  0  0  0  0  0
  2  1  1  6
  3  2  1  0
  4  3  1  0
  4  5  2  0
  6  5  1  0
  7  6  1  0
  8  7  2  0
  8  4  1  0
  9  2  1  0
 10  9  2  0
 11 15  1  0
 11  9  1  0
 12 11  1  0
 13 12  1  0
 13 14  1  0
 14 15  1  0
 16 17  2  0
 15 16  1  1
 18 19  1  0
 20 19  1  6
 20 22  1  0
 20 21  1  0
 21 16  1  0
 22 24  1  0
 23 22  2  0
M  END
$$$$
