HPS.pdb
     RDKit          3D

 24 25  0  0  1  0  0  0  0  0999 V2000
   23.5897  -21.6502  -15.9114 N   0  0  0  0  0  0  0  0  0  0  0  0
   24.0859  -20.6420  -15.0633 C   0  0  1  0  0  0  0  0  0  0  0  0
   22.8758  -19.8408  -14.5774 C   0  0  0  0  0  0  0  0  0  0  0  0
   22.1609  -19.2392  -15.7349 C   0  0  0  0  0  0  0  0  0  0  0  0
   22.6211  -18.2701  -16.6056 C   0  0  0  0  0  0  0  0  0  0  0  0
   21.6669  -17.9939  -17.5227 N   0  0  0  0  0  0  0  0  0  0  0  0
   20.6199  -18.7696  -17.2441 C   0  0  0  0  0  0  0  0  0  0  0  0
   20.9098  -19.5210  -16.1704 N   0  0  0  0  0  0  0  0  0  0  0  0
   24.8775  -21.0768  -13.8917 C   0  0  0  0  0  0  0  0  0  0  0  0
   24.3856  -22.1038  -13.2579 O   0  0  0  0  0  0  0  0  0  0  0  0
   26.0652  -20.4938  -13.4300 N   0  0  0  0  0  0  0  0  0  0  0  0
   26.7903  -19.3635  -13.8969 C   0  0  0  0  0  0  0  0  0  0  0  0
   28.2116  -19.9450  -13.9590 C   0  0  0  0  0  0  0  0  0  0  0  0
   28.2554  -20.8647  -12.7908 C   0  0  0  0  0  0  0  0  0  0  0  0
   26.8328  -20.9808  -12.2996 C   0  0  1  0  0  0  0  0  0  0  0  0
   26.6068  -20.1578  -11.0844 C   0  0  0  0  0  0  0  0  0  0  0  0
   26.5516  -18.9090  -11.2117 O   0  0  0  0  0  0  0  0  0  0  0  0
   25.2426  -21.9006   -7.6979 O   0  0  0  0  0  0  0  0  0  0  0  0
   24.9246  -20.5699   -7.9739 C   0  0  0  0  0  0  0  0  0  0  0  0
   26.1569  -19.9157   -8.6102 C   0  0  2  0  0  0  0  0  0  0  0  0
   26.4507  -20.6963   -9.7965 N   0  0  0  0  0  0  0  0  0  0  0  0
   27.3162  -19.9861   -7.6843 C   0  0  0  0  0  0  0  0  0  0  0  0
   27.3492  -19.3621   -6.5971 O   0  0  0  0  0  0  0  0  0  0  0  0
   28.4209  -20.7608   -8.0010 O   0  0  0  0  0  0  0  0  0  0  0  0
  2  1  1  1
  3  2  1  0
  4  3  1  0
  4  5  2  0
  6  5  1  0
  7  6  1  0
  8  7  2  0
  8  4  1  0
  9  2  1  0
 10  9  2  0
 11 15  1  0
 11  9  1  0
 12 11  1  0
 13 12  1  0
 13 14  1  0
 14 15  1  0
 16 17  2  0
 15 16  1  1
 18 19  1  0
 20 19  1  1
 20 22  1  0
 20 21  1  0
 21 16  1  0
 22 24  1  0
 23 22  2  0
M  END
$$$$
