HPS.pdb
     RDKit          3D

 24 25  0  0  1  0  0  0  0  0999 V2000
   20.7318  -20.6151  -13.1881 N   0  0  0  0  0  0  0  0  0  0  0  0
   21.8787  -21.2265  -13.7292 C   0  0  1  0  0  0  0  0  0  0  0  0
   21.5346  -21.6095  -15.1704 C   0  0  0  0  0  0  0  0  0  0  0  0
   20.4253  -22.6005  -15.1868 C   0  0  0  0  0  0  0  0  0  0  0  0
   20.5115  -23.9725  -15.0479 C   0  0  0  0  0  0  0  0  0  0  0  0
   19.2749  -24.5144  -15.1196 N   0  0  0  0  0  0  0  0  0  0  0  0
   18.4175  -23.5106  -15.3003 C   0  0  0  0  0  0  0  0  0  0  0  0
   19.1021  -22.3569  -15.3417 N   0  0  0  0  0  0  0  0  0  0  0  0
   23.1285  -20.4351  -13.7265 C   0  0  0  0  0  0  0  0  0  0  0  0
   22.9594  -19.1568  -13.9162 O   0  0  0  0  0  0  0  0  0  0  0  0
   24.4256  -20.9329  -13.5438 N   0  0  0  0  0  0  0  0  0  0  0  0
   24.9002  -22.2658  -13.4052 C   0  0  0  0  0  0  0  0  0  0  0  0
   25.8007  -22.1183  -12.1685 C   0  0  0  0  0  0  0  0  0  0  0  0
   26.3873  -20.7614  -12.3332 C   0  0  0  0  0  0  0  0  0  0  0  0
   25.6158  -20.1084  -13.4544 C   0  0  1  0  0  0  0  0  0  0  0  0
   26.3874  -20.1149  -14.7231 C   0  0  0  0  0  0  0  0  0  0  0  0
   26.4930  -21.1980  -15.3513 O   0  0  0  0  0  0  0  0  0  0  0  0
   28.3624  -16.8563  -15.8242 O   0  0  0  0  0  0  0  0  0  0  0  0
   27.5069  -17.2700  -16.8463 C   0  0  0  0  0  0  0  0  0  0  0  0
   27.2665  -18.7749  -16.6761 C   0  0  2  0  0  0  0  0  0  0  0  0
   27.0082  -18.9767  -15.2635 N   0  0  0  0  0  0  0  0  0  0  0  0
   28.4804  -19.5395  -17.0609 C   0  0  0  0  0  0  0  0  0  0  0  0
   29.2063  -20.1199  -16.2190 O   0  0  0  0  0  0  0  0  0  0  0  0
   28.8558  -19.6366  -18.3914 O   0  0  0  0  0  0  0  0  0  0  0  0
  2  1  1  6
  3  2  1  0
  4  3  1  0
  4  5  2  0
  6  5  1  0
  7  6  1  0
  8  7  2  0
  8  4  1  0
  9  2  1  0
 10  9  2  0
 11 15  1  0
 11  9  1  0
 12 11  1  0
 13 12  1  0
 13 14  1  0
 14 15  1  0
 16 17  2  0
 15 16  1  6
 18 19  1  0
 20 19  1  1
 20 22  1  0
 20 21  1  0
 21 16  1  0
 22 24  1  0
 23 22  2  0
M  END
$$$$
