HPS.pdb
     RDKit          3D

 24 25  0  0  1  0  0  0  0  0999 V2000
   40.7903  -12.7282  -14.2590 N   0  0  0  0  0  0  0  0  0  0  0  0
   40.2232  -11.5133  -13.8296 C   0  0  1  0  0  0  0  0  0  0  0  0
   38.7242  -11.5984  -14.1262 C   0  0  0  0  0  0  0  0  0  0  0  0
   38.4597  -11.2271  -15.5422 C   0  0  0  0  0  0  0  0  0  0  0  0
   38.1609  -12.0671  -16.5977 C   0  0  0  0  0  0  0  0  0  0  0  0
   37.9901  -11.3382  -17.7235 N   0  0  0  0  0  0  0  0  0  0  0  0
   38.1756  -10.0604  -17.3944 C   0  0  0  0  0  0  0  0  0  0  0  0
   38.4583   -9.9861  -16.0844 N   0  0  0  0  0  0  0  0  0  0  0  0
   40.4130  -11.1463  -12.4091 C   0  0  0  0  0  0  0  0  0  0  0  0
   40.4222  -12.1569  -11.5863 O   0  0  0  0  0  0  0  0  0  0  0  0
   40.5764   -9.8505  -11.9015 N   0  0  0  0  0  0  0  0  0  0  0  0
   40.5509   -8.5861  -12.5511 C   0  0  0  0  0  0  0  0  0  0  0  0
   41.8301   -7.9506  -11.9837 C   0  0  0  0  0  0  0  0  0  0  0  0
   41.8740   -8.4607  -10.5871 C   0  0  0  0  0  0  0  0  0  0  0  0
   40.8229   -9.5411  -10.5059 C   0  0  1  0  0  0  0  0  0  0  0  0
   39.5959   -9.0578   -9.8234 C   0  0  0  0  0  0  0  0  0  0  0  0
   38.9110   -8.1680  -10.3873 O   0  0  0  0  0  0  0  0  0  0  0  0
   38.8862  -10.0840   -5.9895 O   0  0  0  0  0  0  0  0  0  0  0  0
   37.7248  -10.1066   -6.7632 C   0  0  0  0  0  0  0  0  0  0  0  0
   37.9219   -9.1345   -7.9328 C   0  0  2  0  0  0  0  0  0  0  0  0
   39.1551   -9.5392   -8.5797 N   0  0  0  0  0  0  0  0  0  0  0  0
   38.0712   -7.7446   -7.4309 C   0  0  0  0  0  0  0  0  0  0  0  0
   39.1834   -7.1695   -7.3602 O   0  0  0  0  0  0  0  0  0  0  0  0
   36.9615   -7.0254   -7.0162 O   0  0  0  0  0  0  0  0  0  0  0  0
  2  1  1  1
  3  2  1  0
  4  3  1  0
  4  5  2  0
  6  5  1  0
  7  6  1  0
  8  7  2  0
  8  4  1  0
  9  2  1  0
 10  9  2  0
 11 15  1  0
 11  9  1  0
 12 11  1  0
 13 12  1  0
 13 14  1  0
 14 15  1  0
 16 17  2  0
 15 16  1  6
 18 19  1  0
 20 19  1  1
 20 22  1  0
 20 21  1  0
 21 16  1  0
 22 24  1  0
 23 22  2  0
M  END
$$$$
