HPS.pdb
     RDKit          3D

 24 25  0  0  1  0  0  0  0  0999 V2000
   23.3459  -13.4905  -19.0505 N   0  0  0  0  0  0  0  0  0  0  0  0
   24.2960  -12.4779  -18.8182 C   0  0  1  0  0  0  0  0  0  0  0  0
   24.4133  -11.6781  -20.1178 C   0  0  0  0  0  0  0  0  0  0  0  0
   23.0806  -11.1528  -20.5187 C   0  0  0  0  0  0  0  0  0  0  0  0
   22.3421  -10.1578  -19.9073 C   0  0  0  0  0  0  0  0  0  0  0  0
   21.1835   -9.9744  -20.5796 N   0  0  0  0  0  0  0  0  0  0  0  0
   21.1818  -10.8334  -21.5982 C   0  0  0  0  0  0  0  0  0  0  0  0
   22.3194  -11.5452  -21.5678 N   0  0  0  0  0  0  0  0  0  0  0  0
   24.0273  -11.5456  -17.7015 C   0  0  0  0  0  0  0  0  0  0  0  0
   22.8319  -11.6431  -17.1916 O   0  0  0  0  0  0  0  0  0  0  0  0
   24.9212  -10.6051  -17.1723 N   0  0  0  0  0  0  0  0  0  0  0  0
   26.2290  -10.2293  -17.5842 C   0  0  0  0  0  0  0  0  0  0  0  0
   26.9766  -10.2906  -16.2427 C   0  0  0  0  0  0  0  0  0  0  0  0
   25.9612   -9.8176  -15.2642 C   0  0  0  0  0  0  0  0  0  0  0  0
   24.6503   -9.7785  -16.0115 C   0  0  1  0  0  0  0  0  0  0  0  0
   24.2830   -8.3920  -16.3958 C   0  0  0  0  0  0  0  0  0  0  0  0
   24.7818   -7.9119  -17.4444 O   0  0  0  0  0  0  0  0  0  0  0  0
   20.7228   -5.5868  -16.9848 O   0  0  0  0  0  0  0  0  0  0  0  0
   21.3545   -6.7376  -16.5111 C   0  0  0  0  0  0  0  0  0  0  0  0
   22.7965   -6.3645  -16.1465 C   0  0  2  0  0  0  0  0  0  0  0  0
   23.4075   -7.5833  -15.6526 N   0  0  0  0  0  0  0  0  0  0  0  0
   22.8099   -5.3438  -15.0675 C   0  0  0  0  0  0  0  0  0  0  0  0
   22.6654   -5.6403  -13.8577 O   0  0  0  0  0  0  0  0  0  0  0  0
   22.9862   -4.0033  -15.3720 O   0  0  0  0  0  0  0  0  0  0  0  0
  2  1  1  6
  3  2  1  0
  4  3  1  0
  4  5  2  0
  6  5  1  0
  7  6  1  0
  8  7  2  0
  8  4  1  0
  9  2  1  0
 10  9  2  0
 11 15  1  0
 11  9  1  0
 12 11  1  0
 13 12  1  0
 13 14  1  0
 14 15  1  0
 16 17  2  0
 15 16  1  6
 18 19  1  0
 20 19  1  1
 20 22  1  0
 20 21  1  0
 21 16  1  0
 22 24  1  0
 23 22  2  0
M  END
$$$$
