HPS.pdb
     RDKit          3D

 24 25  0  0  1  0  0  0  0  0999 V2000
   22.3614  -13.9801  -16.5860 N   0  0  0  0  0  0  0  0  0  0  0  0
   22.9780  -12.8348  -17.1246 C   0  0  1  0  0  0  0  0  0  0  0  0
   22.1254  -12.3959  -18.3175 C   0  0  0  0  0  0  0  0  0  0  0  0
   21.9825  -13.5163  -19.2856 C   0  0  0  0  0  0  0  0  0  0  0  0
   22.8289  -14.5932  -19.4676 C   0  0  0  0  0  0  0  0  0  0  0  0
   22.3452  -15.3901  -20.4469 N   0  0  0  0  0  0  0  0  0  0  0  0
   21.2146  -14.8345  -20.8810 C   0  0  0  0  0  0  0  0  0  0  0  0
   20.9903  -13.7076  -20.1872 N   0  0  0  0  0  0  0  0  0  0  0  0
   23.1665  -11.6817  -16.2173 C   0  0  0  0  0  0  0  0  0  0  0  0
   22.3195  -11.6279  -15.2283 O   0  0  0  0  0  0  0  0  0  0  0  0
   24.1442  -10.6847  -16.3345 N   0  0  0  0  0  0  0  0  0  0  0  0
   25.1193  -10.4509  -17.3424 C   0  0  0  0  0  0  0  0  0  0  0  0
   26.3769  -10.2582  -16.4801 C   0  0  0  0  0  0  0  0  0  0  0  0
   25.8603   -9.5548  -15.2756 C   0  0  0  0  0  0  0  0  0  0  0  0
   24.3552   -9.6248  -15.3669 C   0  0  1  0  0  0  0  0  0  0  0  0
   23.7764   -8.3365  -15.8256 C   0  0  0  0  0  0  0  0  0  0  0  0
   23.8503   -8.0508  -17.0469 O   0  0  0  0  0  0  0  0  0  0  0  0
   20.2649   -5.2997  -15.3761 O   0  0  0  0  0  0  0  0  0  0  0  0
   20.9713   -6.4569  -15.0451 C   0  0  0  0  0  0  0  0  0  0  0  0
   22.4419   -6.2307  -15.4163 C   0  0  2  0  0  0  0  0  0  0  0  0
   23.1489   -7.4157  -14.9704 N   0  0  0  0  0  0  0  0  0  0  0  0
   22.9802   -5.0465  -14.6994 C   0  0  0  0  0  0  0  0  0  0  0  0
   23.5155   -5.1293  -13.5684 O   0  0  0  0  0  0  0  0  0  0  0  0
   22.9056   -3.7864  -15.2714 O   0  0  0  0  0  0  0  0  0  0  0  0
  2  1  1  1
  3  2  1  0
  4  3  1  0
  4  5  2  0
  6  5  1  0
  7  6  1  0
  8  7  2  0
  8  4  1  0
  9  2  1  0
 10  9  2  0
 11 15  1  0
 11  9  1  0
 12 11  1  0
 13 12  1  0
 13 14  1  0
 14 15  1  0
 16 17  2  0
 15 16  1  6
 18 19  1  0
 20 19  1  1
 20 22  1  0
 20 21  1  0
 21 16  1  0
 22 24  1  0
 23 22  2  0
M  END
$$$$
