HPS.pdb
     RDKit          3D

 24 25  0  0  1  0  0  0  0  0999 V2000
   27.8362  -21.2517  -15.9614 N   0  0  0  0  0  0  0  0  0  0  0  0
   27.2494  -20.5424  -14.8963 C   0  0  1  0  0  0  0  0  0  0  0  0
   26.7108  -19.2351  -15.4821 C   0  0  0  0  0  0  0  0  0  0  0  0
   27.7811  -18.5336  -16.2406 C   0  0  0  0  0  0  0  0  0  0  0  0
   29.0471  -18.1941  -15.8036 C   0  0  0  0  0  0  0  0  0  0  0  0
   29.7163  -17.5652  -16.7960 N   0  0  0  0  0  0  0  0  0  0  0  0
   28.8957  -17.5043  -17.8440 C   0  0  0  0  0  0  0  0  0  0  0  0
   27.7303  -18.0846  -17.5173 N   0  0  0  0  0  0  0  0  0  0  0  0
   26.1648  -21.2197  -14.1526 C   0  0  0  0  0  0  0  0  0  0  0  0
   25.7178  -22.3055  -14.7181 O   0  0  0  0  0  0  0  0  0  0  0  0
   25.6043  -20.8014  -12.9384 N   0  0  0  0  0  0  0  0  0  0  0  0
   25.9341  -19.7113  -12.0873 C   0  0  0  0  0  0  0  0  0  0  0  0
   25.9949  -20.4231  -10.7265 C   0  0  0  0  0  0  0  0  0  0  0  0
   24.9175  -21.4437  -10.8268 C   0  0  0  0  0  0  0  0  0  0  0  0
   24.4954  -21.4616  -12.2760 C   0  0  1  0  0  0  0  0  0  0  0  0
   23.2180  -20.7326  -12.4807 C   0  0  0  0  0  0  0  0  0  0  0  0
   23.2311  -19.4777  -12.4189 O   0  0  0  0  0  0  0  0  0  0  0  0
   20.3944  -22.7606  -14.2171 O   0  0  0  0  0  0  0  0  0  0  0  0
   20.3218  -21.3842  -14.4367 C   0  0  0  0  0  0  0  0  0  0  0  0
   20.7839  -20.6800  -13.1553 C   0  0  2  0  0  0  0  0  0  0  0  0
   21.9919  -21.3667  -12.7404 N   0  0  0  0  0  0  0  0  0  0  0  0
   19.7578  -20.8179  -12.0903 C   0  0  0  0  0  0  0  0  0  0  0  0
   19.9395  -21.5184  -11.0661 O   0  0  0  0  0  0  0  0  0  0  0  0
   18.5417  -20.1621  -12.1987 O   0  0  0  0  0  0  0  0  0  0  0  0
  2  1  1  6
  3  2  1  0
  4  3  1  0
  4  5  2  0
  6  5  1  0
  7  6  1  0
  8  7  2  0
  8  4  1  0
  9  2  1  0
 10  9  2  0
 11 15  1  0
 11  9  1  0
 12 11  1  0
 13 12  1  0
 13 14  1  0
 14 15  1  0
 16 17  2  0
 15 16  1  1
 18 19  1  0
 20 19  1  6
 20 22  1  0
 20 21  1  0
 21 16  1  0
 22 24  1  0
 23 22  2  0
M  END
$$$$
