HPS.pdb
     RDKit          3D

 24 25  0  0  1  0  0  0  0  0999 V2000
   21.3817  -32.3820  -11.4412 N   0  0  0  0  0  0  0  0  0  0  0  0
   22.2805  -32.1249  -10.3887 C   0  0  1  0  0  0  0  0  0  0  0  0
   21.5290  -31.2674   -9.3678 C   0  0  0  0  0  0  0  0  0  0  0  0
   21.1203  -29.9766   -9.9840 C   0  0  0  0  0  0  0  0  0  0  0  0
   21.9013  -29.0990  -10.7113 C   0  0  0  0  0  0  0  0  0  0  0  0
   21.1548  -28.0399  -11.0971 N   0  0  0  0  0  0  0  0  0  0  0  0
   19.9238  -28.2364  -10.6266 C   0  0  0  0  0  0  0  0  0  0  0  0
   19.8957  -29.3990   -9.9563 N   0  0  0  0  0  0  0  0  0  0  0  0
   22.8621  -33.2968   -9.6983 C   0  0  0  0  0  0  0  0  0  0  0  0
   22.1265  -34.3716   -9.7448 O   0  0  0  0  0  0  0  0  0  0  0  0
   24.0908  -33.3385   -9.0260 N   0  0  0  0  0  0  0  0  0  0  0  0
   24.9720  -32.2949   -8.6313 C   0  0  0  0  0  0  0  0  0  0  0  0
   26.3109  -32.8444   -9.1485 C   0  0  0  0  0  0  0  0  0  0  0  0
   26.1859  -34.3102   -8.9289 C   0  0  0  0  0  0  0  0  0  0  0  0
   24.7389  -34.5558   -8.5760 C   0  0  1  0  0  0  0  0  0  0  0  0
   24.5620  -34.7675   -7.1170 C   0  0  0  0  0  0  0  0  0  0  0  0
   24.4658  -33.7578   -6.3753 O   0  0  0  0  0  0  0  0  0  0  0  0
   23.4231  -38.0022   -3.7001 O   0  0  0  0  0  0  0  0  0  0  0  0
   23.8617  -37.7602   -5.0028 C   0  0  0  0  0  0  0  0  0  0  0  0
   24.1871  -36.2661   -5.1179 C   0  0  2  0  0  0  0  0  0  0  0  0
   24.4958  -36.0352   -6.5159 N   0  0  0  0  0  0  0  0  0  0  0  0
   25.3786  -35.9313   -4.2967 C   0  0  0  0  0  0  0  0  0  0  0  0
   25.3145  -35.7547   -3.0568 O   0  0  0  0  0  0  0  0  0  0  0  0
   26.6247  -35.8010   -4.8890 O   0  0  0  0  0  0  0  0  0  0  0  0
  2  1  1  6
  3  2  1  0
  4  3  1  0
  4  5  2  0
  6  5  1  0
  7  6  1  0
  8  7  2  0
  8  4  1  0
  9  2  1  0
 10  9  2  0
 11 15  1  0
 11  9  1  0
 12 11  1  0
 13 12  1  0
 13 14  1  0
 14 15  1  0
 16 17  2  0
 15 16  1  1
 18 19  1  0
 20 19  1  6
 20 22  1  0
 20 21  1  0
 21 16  1  0
 22 24  1  0
 23 22  2  0
M  END
$$$$
