HPS.pdb
     RDKit          3D

 24 25  0  0  1  0  0  0  0  0999 V2000
   20.8980  -12.7202  -17.6964 N   0  0  0  0  0  0  0  0  0  0  0  0
   20.0644  -11.6396  -17.3507 C   0  0  1  0  0  0  0  0  0  0  0  0
   19.4843  -11.9556  -15.9701 C   0  0  0  0  0  0  0  0  0  0  0  0
   18.6462  -13.1829  -16.0347 C   0  0  0  0  0  0  0  0  0  0  0  0
   17.3669  -13.3108  -16.5409 C   0  0  0  0  0  0  0  0  0  0  0  0
   16.9548  -14.5922  -16.4144 N   0  0  0  0  0  0  0  0  0  0  0  0
   17.9490  -15.2683  -15.8399 C   0  0  0  0  0  0  0  0  0  0  0  0
   18.9692  -14.4273  -15.6088 N   0  0  0  0  0  0  0  0  0  0  0  0
   20.6826  -10.2961  -17.3173 C   0  0  0  0  0  0  0  0  0  0  0  0
   21.8909  -10.2689  -16.8299 O   0  0  0  0  0  0  0  0  0  0  0  0
   20.0937   -9.1007  -17.7506 N   0  0  0  0  0  0  0  0  0  0  0  0
   18.7878   -8.8316  -18.2443 C   0  0  0  0  0  0  0  0  0  0  0  0
   19.1237   -8.0183  -19.5044 C   0  0  0  0  0  0  0  0  0  0  0  0
   20.3202   -7.2347  -19.0959 C   0  0  0  0  0  0  0  0  0  0  0  0
   20.7677   -7.8165  -17.7769 C   0  0  1  0  0  0  0  0  0  0  0  0
   20.3611   -6.9571  -16.6361 C   0  0  0  0  0  0  0  0  0  0  0  0
   19.1348   -6.7615  -16.4444 O   0  0  0  0  0  0  0  0  0  0  0  0
   22.5924   -6.6571  -13.4240 O   0  0  0  0  0  0  0  0  0  0  0  0
   21.2316   -6.3508  -13.3759 C   0  0  0  0  0  0  0  0  0  0  0  0
   20.8925   -5.5258  -14.6233 C   0  0  2  0  0  0  0  0  0  0  0  0
   21.2709   -6.3483  -15.7561 N   0  0  0  0  0  0  0  0  0  0  0  0
   21.6889   -4.2723  -14.6468 C   0  0  0  0  0  0  0  0  0  0  0  0
   21.4918   -3.3334  -13.8392 O   0  0  0  0  0  0  0  0  0  0  0  0
   22.6962   -4.0986  -15.5827 O   0  0  0  0  0  0  0  0  0  0  0  0
  2  1  1  1
  3  2  1  0
  4  3  1  0
  4  5  2  0
  6  5  1  0
  7  6  1  0
  8  7  2  0
  8  4  1  0
  9  2  1  0
 10  9  2  0
 11 15  1  0
 11  9  1  0
 12 11  1  0
 13 12  1  0
 13 14  1  0
 14 15  1  0
 16 17  2  0
 15 16  1  1
 18 19  1  0
 20 19  1  1
 20 22  1  0
 20 21  1  0
 21 16  1  0
 22 24  1  0
 23 22  2  0
M  END
$$$$
