IWV.pdb
     RDKit          3D

 30 31  0  0  1  0  0  0  0  0999 V2000
   31.1125  -18.3216  -18.8213 C   0  0  0  0  0  0  0  0  0  0  0  0
   29.7129  -18.7478  -19.1386 C   0  0  0  0  0  0  0  0  0  0  0  0
   28.7716  -18.5204  -17.9574 C   0  0  2  0  0  0  0  0  0  0  0  0
   29.3245  -19.2239  -16.7664 C   0  0  0  0  0  0  0  0  0  0  0  0
   27.4165  -18.9791  -18.4101 C   0  0  2  0  0  0  0  0  0  0  0  0
   27.1474  -18.2151  -19.6432 N   0  0  0  0  0  0  0  0  0  0  0  0
   26.3384  -18.6823  -17.4037 C   0  0  0  0  0  0  0  0  0  0  0  0
   26.1769  -17.4861  -17.0630 O   0  0  0  0  0  0  0  0  0  0  0  0
   25.5405  -19.6835  -16.8609 N   0  0  0  0  0  0  0  0  0  0  0  0
   24.4758  -19.3916  -15.8759 C   0  0  1  0  0  0  0  0  0  0  0  0
   23.2306  -19.1718  -16.6471 C   0  0  0  0  0  0  0  0  0  0  0  0
   22.0179  -18.9841  -15.8369 C   0  0  0  0  0  0  0  0  0  0  0  0
   21.7266  -17.9436  -14.9740 C   0  0  0  0  0  0  0  0  0  0  0  0
   20.5247  -18.1998  -14.4323 N   0  0  0  0  0  0  0  0  0  0  0  0
   20.0458  -19.3642  -14.9213 C   0  0  0  0  0  0  0  0  0  0  0  0
   18.8563  -20.0406  -14.6661 C   0  0  0  0  0  0  0  0  0  0  0  0
   18.6444  -21.2321  -15.3313 C   0  0  0  0  0  0  0  0  0  0  0  0
   19.5543  -21.7580  -16.2188 C   0  0  0  0  0  0  0  0  0  0  0  0
   20.7235  -21.0745  -16.4571 C   0  0  0  0  0  0  0  0  0  0  0  0
   20.9512  -19.8866  -15.8037 C   0  0  0  0  0  0  0  0  0  0  0  0
   24.4478  -20.4455  -14.8607 C   0  0  0  0  0  0  0  0  0  0  0  0
   24.4817  -21.6577  -15.2463 O   0  0  0  0  0  0  0  0  0  0  0  0
   26.6400  -20.9918  -12.0252 C   0  0  0  0  0  0  0  0  0  0  0  0
   25.2572  -21.1696  -11.4657 C   0  0  1  0  0  0  0  0  0  0  0  0
   24.8960  -19.8838  -10.7324 C   0  0  0  0  0  0  0  0  0  0  0  0
   24.2327  -21.3335  -12.5755 C   0  0  2  0  0  0  0  0  0  0  0  0
   24.3891  -20.1947  -13.4592 N   0  0  0  0  0  0  0  0  0  0  0  0
   22.8837  -21.3767  -11.9980 C   0  0  0  0  0  0  0  0  0  0  0  0
   22.0079  -20.3149  -12.1678 O   0  0  0  0  0  0  0  0  0  0  0  0
   22.4701  -22.3558  -11.3381 O   0  0  0  0  0  0  0  0  0  0  0  0
  1  2  1  0
  2  3  1  0
  3  4  1  1
  5  3  1  0
  5  6  1  6
  7  9  1  0
  7  5  1  0
  8  7  2  0
 10  9  1  0
 10 11  1  6
 12 13  2  0
 12 11  1  0
 14 13  1  0
 15 20  2  0
 15 14  1  0
 16 15  1  0
 17 18  1  0
 17 16  2  0
 18 19  2  0
 19 20  1  0
 20 12  1  0
 21 10  1  0
 21 27  1  0
 22 21  2  0
 24 23  1  6
 24 26  1  0
 24 25  1  0
 26 27  1  6
 26 28  1  0
 28 29  1  0
 30 28  2  0
M  END
$$$$
