IWV.pdb
     RDKit          3D

 30 31  0  0  1  0  0  0  0  0999 V2000
   27.9236  -19.2854  -17.8285 C   0  0  0  0  0  0  0  0  0  0  0  0
   28.3450  -20.0106  -16.5885 C   0  0  0  0  0  0  0  0  0  0  0  0
   27.1588  -20.2939  -15.6690 C   0  0  2  0  0  0  0  0  0  0  0  0
   26.4430  -19.0138  -15.4080 C   0  0  0  0  0  0  0  0  0  0  0  0
   27.7234  -20.9791  -14.4593 C   0  0  2  0  0  0  0  0  0  0  0  0
   28.2424  -22.2669  -14.9578 N   0  0  0  0  0  0  0  0  0  0  0  0
   26.6832  -21.2439  -13.4052 C   0  0  0  0  0  0  0  0  0  0  0  0
   25.9505  -22.2509  -13.5540 O   0  0  0  0  0  0  0  0  0  0  0  0
   26.5257  -20.4150  -12.2999 N   0  0  0  0  0  0  0  0  0  0  0  0
   25.4958  -20.6688  -11.2684 C   0  0  1  0  0  0  0  0  0  0  0  0
   25.9328  -19.9562  -10.0458 C   0  0  0  0  0  0  0  0  0  0  0  0
   27.2012  -20.4250   -9.4681 C   0  0  0  0  0  0  0  0  0  0  0  0
   28.0862  -21.3457   -9.9984 C   0  0  0  0  0  0  0  0  0  0  0  0
   29.0912  -21.4849   -9.1186 N   0  0  0  0  0  0  0  0  0  0  0  0
   28.8737  -20.6858   -8.0516 C   0  0  0  0  0  0  0  0  0  0  0  0
   29.6225  -20.4830   -6.8958 C   0  0  0  0  0  0  0  0  0  0  0  0
   29.1329  -19.5853   -5.9676 C   0  0  0  0  0  0  0  0  0  0  0  0
   27.9533  -18.9010   -6.1482 C   0  0  0  0  0  0  0  0  0  0  0  0
   27.2284  -19.1155   -7.2968 C   0  0  0  0  0  0  0  0  0  0  0  0
   27.7007  -20.0057   -8.2319 C   0  0  0  0  0  0  0  0  0  0  0  0
   24.1768  -20.3227  -11.7999 C   0  0  0  0  0  0  0  0  0  0  0  0
   23.9269  -19.1000  -12.0488 O   0  0  0  0  0  0  0  0  0  0  0  0
   22.8360  -21.3839  -14.8756 C   0  0  0  0  0  0  0  0  0  0  0  0
   21.6926  -21.5776  -13.9207 C   0  0  1  0  0  0  0  0  0  0  0  0
   21.6722  -23.0504  -13.5307 C   0  0  0  0  0  0  0  0  0  0  0  0
   21.9112  -20.7960  -12.6365 C   0  0  2  0  0  0  0  0  0  0  0  0
   23.1520  -21.2776  -12.0611 N   0  0  0  0  0  0  0  0  0  0  0  0
   20.7815  -21.0190  -11.7258 C   0  0  0  0  0  0  0  0  0  0  0  0
   20.9439  -21.7638  -10.5673 O   0  0  0  0  0  0  0  0  0  0  0  0
   19.6412  -20.5556  -11.9496 O   0  0  0  0  0  0  0  0  0  0  0  0
  1  2  1  0
  2  3  1  0
  3  4  1  1
  5  3  1  0
  5  6  1  6
  7  9  1  0
  7  5  1  0
  8  7  2  0
 10  9  1  0
 10 11  1  1
 12 13  2  0
 12 11  1  0
 14 13  1  0
 15 20  2  0
 15 14  1  0
 16 15  1  0
 17 18  1  0
 17 16  2  0
 18 19  2  0
 19 20  1  0
 20 12  1  0
 21 10  1  0
 21 27  1  0
 22 21  2  0
 24 23  1  6
 24 26  1  0
 24 25  1  0
 26 27  1  1
 26 28  1  0
 28 29  1  0
 30 28  2  0
M  END
$$$$
