IWV.pdb
     RDKit          3D

 30 31  0  0  1  0  0  0  0  0999 V2000
   30.0394  -20.7599  -10.3205 C   0  0  0  0  0  0  0  0  0  0  0  0
   29.4516  -21.0498  -11.6665 C   0  0  0  0  0  0  0  0  0  0  0  0
   28.0751  -20.4087  -11.8318 C   0  0  2  0  0  0  0  0  0  0  0  0
   27.1646  -20.9618  -10.7906 C   0  0  0  0  0  0  0  0  0  0  0  0
   27.6651  -20.6626  -13.2528 C   0  0  2  0  0  0  0  0  0  0  0  0
   28.7605  -20.1084  -14.0709 N   0  0  0  0  0  0  0  0  0  0  0  0
   26.3807  -19.9694  -13.6177 C   0  0  0  0  0  0  0  0  0  0  0  0
   26.3367  -18.7231  -13.4848 O   0  0  0  0  0  0  0  0  0  0  0  0
   25.2735  -20.6675  -14.0872 N   0  0  0  0  0  0  0  0  0  0  0  0
   23.9720  -20.0061  -14.3272 C   0  0  1  0  0  0  0  0  0  0  0  0
   23.8038  -19.9173  -15.7961 C   0  0  0  0  0  0  0  0  0  0  0  0
   22.5789  -19.2393  -16.2456 C   0  0  0  0  0  0  0  0  0  0  0  0
   22.2111  -17.9232  -16.0343 C   0  0  0  0  0  0  0  0  0  0  0  0
   21.0051  -17.7508  -16.5994 N   0  0  0  0  0  0  0  0  0  0  0  0
   20.5972  -18.9099  -17.1601 C   0  0  0  0  0  0  0  0  0  0  0  0
   19.4327  -19.2281  -17.8532 C   0  0  0  0  0  0  0  0  0  0  0  0
   19.2985  -20.5226  -18.3150 C   0  0  0  0  0  0  0  0  0  0  0  0
   20.2606  -21.4851  -18.1144 C   0  0  0  0  0  0  0  0  0  0  0  0
   21.4038  -21.1507  -17.4272 C   0  0  0  0  0  0  0  0  0  0  0  0
   21.5544  -19.8664  -16.9602 C   0  0  0  0  0  0  0  0  0  0  0  0
   22.9241  -20.7058  -13.5827 C   0  0  0  0  0  0  0  0  0  0  0  0
   22.9716  -21.9759  -13.5206 O   0  0  0  0  0  0  0  0  0  0  0  0
   21.9276  -20.3357  -10.0786 C   0  0  0  0  0  0  0  0  0  0  0  0
   20.6523  -20.2969  -10.8716 C   0  0  1  0  0  0  0  0  0  0  0  0
   20.2805  -18.8315  -11.0608 C   0  0  0  0  0  0  0  0  0  0  0  0
   20.8533  -20.8723  -12.2632 C   0  0  2  0  0  0  0  0  0  0  0  0
   21.8509  -20.0470  -12.9158 N   0  0  0  0  0  0  0  0  0  0  0  0
   19.5810  -20.8467  -12.9953 C   0  0  0  0  0  0  0  0  0  0  0  0
   18.5716  -21.7473  -12.6899 O   0  0  0  0  0  0  0  0  0  0  0  0
   19.3536  -20.0259  -13.9116 O   0  0  0  0  0  0  0  0  0  0  0  0
  1  2  1  0
  2  3  1  0
  3  4  1  1
  5  3  1  0
  5  6  1  6
  7  9  1  0
  7  5  1  0
  8  7  2  0
 10  9  1  0
 10 11  1  6
 12 13  2  0
 12 11  1  0
 14 13  1  0
 15 20  2  0
 15 14  1  0
 16 15  1  0
 17 18  1  0
 17 16  2  0
 18 19  2  0
 19 20  1  0
 20 12  1  0
 21 10  1  0
 21 27  1  0
 22 21  2  0
 24 23  1  1
 24 26  1  0
 24 25  1  0
 26 27  1  6
 26 28  1  0
 28 29  1  0
 30 28  2  0
M  END
$$$$
