IWV.pdb
     RDKit          3D

 30 31  0  0  1  0  0  0  0  0999 V2000
   28.8066  -20.3847  -17.8428 C   0  0  0  0  0  0  0  0  0  0  0  0
   28.3581  -20.7379  -16.4590 C   0  0  0  0  0  0  0  0  0  0  0  0
   27.1927  -19.8626  -16.0021 C   0  0  2  0  0  0  0  0  0  0  0  0
   27.6249  -18.4375  -16.0398 C   0  0  0  0  0  0  0  0  0  0  0  0
   26.7855  -20.3811  -14.6541 C   0  0  2  0  0  0  0  0  0  0  0  0
   26.7562  -21.8486  -14.8027 N   0  0  0  0  0  0  0  0  0  0  0  0
   25.4215  -19.9025  -14.2373 C   0  0  0  0  0  0  0  0  0  0  0  0
   25.2992  -18.6909  -13.9370 O   0  0  0  0  0  0  0  0  0  0  0  0
   24.3255  -20.7564  -14.1817 N   0  0  0  0  0  0  0  0  0  0  0  0
   22.9580  -20.2621  -13.9087 C   0  0  1  0  0  0  0  0  0  0  0  0
   22.2292  -20.2915  -15.1978 C   0  0  0  0  0  0  0  0  0  0  0  0
   22.2213  -19.0228  -15.9411 C   0  0  0  0  0  0  0  0  0  0  0  0
   23.3078  -18.2650  -16.3378 C   0  0  0  0  0  0  0  0  0  0  0  0
   22.8282  -17.1780  -16.9640 N   0  0  0  0  0  0  0  0  0  0  0  0
   21.4783  -17.2212  -16.9774 C   0  0  0  0  0  0  0  0  0  0  0  0
   20.5423  -16.3352  -17.5034 C   0  0  0  0  0  0  0  0  0  0  0  0
   19.2072  -16.6575  -17.3591 C   0  0  0  0  0  0  0  0  0  0  0  0
   18.7851  -17.8030  -16.7250 C   0  0  0  0  0  0  0  0  0  0  0  0
   19.7256  -18.6652  -16.2123 C   0  0  0  0  0  0  0  0  0  0  0  0
   21.0593  -18.3604  -16.3468 C   0  0  0  0  0  0  0  0  0  0  0  0
   22.3757  -21.0229  -12.8023 C   0  0  0  0  0  0  0  0  0  0  0  0
   22.3295  -22.2910  -12.8985 O   0  0  0  0  0  0  0  0  0  0  0  0
   23.4703  -20.7998   -9.3670 C   0  0  0  0  0  0  0  0  0  0  0  0
   21.9717  -20.8469   -9.2730 C   0  0  1  0  0  0  0  0  0  0  0  0
   21.4865  -19.4203   -9.0470 C   0  0  0  0  0  0  0  0  0  0  0  0
   21.3537  -21.3087  -10.5818 C   0  0  2  0  0  0  0  0  0  0  0  0
   21.8588  -20.4266  -11.6158 N   0  0  0  0  0  0  0  0  0  0  0  0
   19.8904  -21.2347  -10.4886 C   0  0  0  0  0  0  0  0  0  0  0  0
   19.1808  -22.1721   -9.7529 O   0  0  0  0  0  0  0  0  0  0  0  0
   19.2288  -20.3388  -11.0584 O   0  0  0  0  0  0  0  0  0  0  0  0
  1  2  1  0
  2  3  1  0
  3  4  1  1
  5  3  1  0
  5  6  1  6
  7  9  1  0
  7  5  1  0
  8  7  2  0
 10  9  1  0
 10 11  1  6
 12 13  2  0
 12 11  1  0
 14 13  1  0
 15 20  2  0
 15 14  1  0
 16 15  1  0
 17 18  1  0
 17 16  2  0
 18 19  2  0
 19 20  1  0
 20 12  1  0
 21 10  1  0
 21 27  1  0
 22 21  2  0
 24 23  1  6
 24 26  1  0
 24 25  1  0
 26 27  1  6
 26 28  1  0
 28 29  1  0
 30 28  2  0
M  END
$$$$
