IWV.pdb
     RDKit          3D

 30 31  0  0  1  0  0  0  0  0999 V2000
   29.0584  -18.2494  -15.5585 C   0  0  0  0  0  0  0  0  0  0  0  0
   29.3905  -18.6863  -14.1657 C   0  0  0  0  0  0  0  0  0  0  0  0
   28.2476  -19.4790  -13.5345 C   0  0  2  0  0  0  0  0  0  0  0  0
   26.9818  -18.7147  -13.7158 C   0  0  0  0  0  0  0  0  0  0  0  0
   28.6528  -19.7340  -12.1124 C   0  0  2  0  0  0  0  0  0  0  0  0
   29.8618  -20.5745  -12.2051 N   0  0  0  0  0  0  0  0  0  0  0  0
   27.5993  -20.4736  -11.3336 C   0  0  0  0  0  0  0  0  0  0  0  0
   27.6024  -21.7260  -11.3992 O   0  0  0  0  0  0  0  0  0  0  0  0
   26.6499  -19.8106  -10.5638 N   0  0  0  0  0  0  0  0  0  0  0  0
   25.5131  -20.5199   -9.9365 C   0  0  1  0  0  0  0  0  0  0  0  0
   25.2877  -19.8821   -8.6189 C   0  0  0  0  0  0  0  0  0  0  0  0
   26.5074  -19.5571   -7.8645 C   0  0  0  0  0  0  0  0  0  0  0  0
   27.4237  -18.5545   -8.1238 C   0  0  0  0  0  0  0  0  0  0  0  0
   28.3883  -18.6460   -7.1939 N   0  0  0  0  0  0  0  0  0  0  0  0
   28.1151  -19.6698   -6.3564 C   0  0  0  0  0  0  0  0  0  0  0  0
   28.8077  -20.1533   -5.2499 C   0  0  0  0  0  0  0  0  0  0  0  0
   28.2681  -21.2349   -4.5820 C   0  0  0  0  0  0  0  0  0  0  0  0
   27.0924  -21.8347   -4.9697 C   0  0  0  0  0  0  0  0  0  0  0  0
   26.4234  -21.3421   -6.0653 C   0  0  0  0  0  0  0  0  0  0  0  0
   26.9459  -20.2657   -6.7424 C   0  0  0  0  0  0  0  0  0  0  0  0
   24.3803  -20.5420  -10.8630 C   0  0  0  0  0  0  0  0  0  0  0  0
   24.0968  -19.4758  -11.4973 O   0  0  0  0  0  0  0  0  0  0  0  0
   24.0560  -22.5352  -13.7825 C   0  0  0  0  0  0  0  0  0  0  0  0
   22.7278  -22.6847  -13.0965 C   0  0  1  0  0  0  0  0  0  0  0  0
   22.7668  -23.9906  -12.3127 C   0  0  0  0  0  0  0  0  0  0  0  0
   22.5081  -21.5788  -12.0783 C   0  0  2  0  0  0  0  0  0  0  0  0
   23.5743  -21.6925  -11.1023 N   0  0  0  0  0  0  0  0  0  0  0  0
   21.1920  -21.7431  -11.4490 C   0  0  0  0  0  0  0  0  0  0  0  0
   20.0311  -21.4708  -12.1572 O   0  0  0  0  0  0  0  0  0  0  0  0
   21.0601  -22.1292  -10.2664 O   0  0  0  0  0  0  0  0  0  0  0  0
  1  2  1  0
  2  3  1  0
  3  4  1  1
  5  3  1  0
  5  6  1  6
  7  9  1  0
  7  5  1  0
  8  7  2  0
 10  9  1  0
 10 11  1  1
 12 13  2  0
 12 11  1  0
 14 13  1  0
 15 20  2  0
 15 14  1  0
 16 15  1  0
 17 18  1  0
 17 16  2  0
 18 19  2  0
 19 20  1  0
 20 12  1  0
 21 10  1  0
 21 27  1  0
 22 21  2  0
 24 23  1  1
 24 26  1  0
 24 25  1  0
 26 27  1  1
 26 28  1  0
 28 29  1  0
 30 28  2  0
M  END
$$$$
