IWV.pdb
     RDKit          3D

 30 31  0  0  1  0  0  0  0  0999 V2000
   24.3596  -18.9615  -18.5173 C   0  0  0  0  0  0  0  0  0  0  0  0
   23.5342  -18.8214  -17.2763 C   0  0  0  0  0  0  0  0  0  0  0  0
   24.0627  -19.6999  -16.1441 C   0  0  2  0  0  0  0  0  0  0  0  0
   24.1939  -21.0960  -16.6469 C   0  0  0  0  0  0  0  0  0  0  0  0
   23.1174  -19.5111  -14.9941 C   0  0  2  0  0  0  0  0  0  0  0  0
   23.0578  -18.0520  -14.7848 N   0  0  0  0  0  0  0  0  0  0  0  0
   23.6030  -20.1688  -13.7311 C   0  0  0  0  0  0  0  0  0  0  0  0
   23.4172  -21.4035  -13.6122 O   0  0  0  0  0  0  0  0  0  0  0  0
   24.2370  -19.4513  -12.7227 N   0  0  0  0  0  0  0  0  0  0  0  0
   24.7072  -20.0959  -11.4768 C   0  0  1  0  0  0  0  0  0  0  0  0
   25.9204  -19.3619  -11.0491 C   0  0  0  0  0  0  0  0  0  0  0  0
   26.8355  -20.1179  -10.1811 C   0  0  0  0  0  0  0  0  0  0  0  0
   27.4327  -21.3386  -10.4365 C   0  0  0  0  0  0  0  0  0  0  0  0
   28.1641  -21.6581   -9.3564 N   0  0  0  0  0  0  0  0  0  0  0  0
   28.0509  -20.6838   -8.4278 C   0  0  0  0  0  0  0  0  0  0  0  0
   28.6139  -20.5612   -7.1606 C   0  0  0  0  0  0  0  0  0  0  0  0
   28.3063  -19.4288   -6.4325 C   0  0  0  0  0  0  0  0  0  0  0  0
   27.4783  -18.4407   -6.9126 C   0  0  0  0  0  0  0  0  0  0  0  0
   26.9321  -18.5807   -8.1667 C   0  0  0  0  0  0  0  0  0  0  0  0
   27.2275  -19.7017   -8.9057 C   0  0  0  0  0  0  0  0  0  0  0  0
   23.6042  -20.1665  -10.5174 C   0  0  0  0  0  0  0  0  0  0  0  0
   22.9923  -19.0914  -10.2192 O   0  0  0  0  0  0  0  0  0  0  0  0
   20.4244  -21.1930  -10.7196 C   0  0  0  0  0  0  0  0  0  0  0  0
   20.8873  -21.9299   -9.4950 C   0  0  1  0  0  0  0  0  0  0  0  0
   21.3064  -23.3264   -9.9376 C   0  0  0  0  0  0  0  0  0  0  0  0
   22.1234  -21.2796   -8.8973 C   0  0  2  0  0  0  0  0  0  0  0  0
   23.1690  -21.3734   -9.8973 N   0  0  0  0  0  0  0  0  0  0  0  0
   22.5022  -21.9819   -7.6649 C   0  0  0  0  0  0  0  0  0  0  0  0
   21.6621  -21.9764   -6.5615 O   0  0  0  0  0  0  0  0  0  0  0  0
   23.5809  -22.6061   -7.5560 O   0  0  0  0  0  0  0  0  0  0  0  0
  1  2  1  0
  2  3  1  0
  3  4  1  6
  5  3  1  0
  5  6  1  1
  7  9  1  0
  7  5  1  0
  8  7  2  0
 10  9  1  0
 10 11  1  1
 12 13  2  0
 12 11  1  0
 14 13  1  0
 15 20  2  0
 15 14  1  0
 16 15  1  0
 17 18  1  0
 17 16  2  0
 18 19  2  0
 19 20  1  0
 20 12  1  0
 21 10  1  0
 21 27  1  0
 22 21  2  0
 24 23  1  6
 24 26  1  0
 24 25  1  0
 26 27  1  6
 26 28  1  0
 28 29  1  0
 30 28  2  0
M  END
$$$$
