IWV.pdb
     RDKit          3D

 30 31  0  0  1  0  0  0  0  0999 V2000
   30.0028  -19.3354  -13.3520 C   0  0  0  0  0  0  0  0  0  0  0  0
   28.7342  -20.1301  -13.3347 C   0  0  0  0  0  0  0  0  0  0  0  0
   28.3948  -20.6220  -11.9291 C   0  0  2  0  0  0  0  0  0  0  0  0
   29.5171  -21.4696  -11.4378 C   0  0  0  0  0  0  0  0  0  0  0  0
   27.0642  -21.3072  -12.0373 C   0  0  2  0  0  0  0  0  0  0  0  0
   26.2552  -20.4341  -12.9089 N   0  0  0  0  0  0  0  0  0  0  0  0
   26.3751  -21.4476  -10.7073 C   0  0  0  0  0  0  0  0  0  0  0  0
   26.6892  -22.4293   -9.9926 O   0  0  0  0  0  0  0  0  0  0  0  0
   25.4237  -20.5329  -10.2695 N   0  0  0  0  0  0  0  0  0  0  0  0
   24.6785  -20.7195   -9.0051 C   0  0  1  0  0  0  0  0  0  0  0  0
   24.8088  -19.4559   -8.2434 C   0  0  0  0  0  0  0  0  0  0  0  0
   26.1091  -19.2519   -7.5878 C   0  0  0  0  0  0  0  0  0  0  0  0
   27.1381  -18.4179   -7.9850 C   0  0  0  0  0  0  0  0  0  0  0  0
   28.1396  -18.5732   -7.1038 N   0  0  0  0  0  0  0  0  0  0  0  0
   27.7812  -19.4749   -6.1643 C   0  0  0  0  0  0  0  0  0  0  0  0
   28.4705  -19.9628   -5.0578 C   0  0  0  0  0  0  0  0  0  0  0  0
   27.8297  -20.8964   -4.2674 C   0  0  0  0  0  0  0  0  0  0  0  0
   26.5584  -21.3480   -4.5359 C   0  0  0  0  0  0  0  0  0  0  0  0
   25.8943  -20.8537   -5.6338 C   0  0  0  0  0  0  0  0  0  0  0  0
   26.5170  -19.9235   -6.4319 C   0  0  0  0  0  0  0  0  0  0  0  0
   23.3199  -21.1757   -9.3019 C   0  0  0  0  0  0  0  0  0  0  0  0
   22.8397  -20.9354  -10.4556 O   0  0  0  0  0  0  0  0  0  0  0  0
   21.5423  -23.2568   -6.5473 C   0  0  0  0  0  0  0  0  0  0  0  0
   20.5746  -23.1045   -7.6862 C   0  0  1  0  0  0  0  0  0  0  0  0
   19.3750  -22.3257   -7.1608 C   0  0  0  0  0  0  0  0  0  0  0  0
   21.1718  -22.2698   -8.8062 C   0  0  2  0  0  0  0  0  0  0  0  0
   22.4999  -21.8804   -8.3738 N   0  0  0  0  0  0  0  0  0  0  0  0
   20.3263  -21.0944   -9.0492 C   0  0  0  0  0  0  0  0  0  0  0  0
   19.1341  -21.2136   -9.7476 O   0  0  0  0  0  0  0  0  0  0  0  0
   20.6372  -19.9522   -8.6444 O   0  0  0  0  0  0  0  0  0  0  0  0
  1  2  1  0
  2  3  1  0
  3  4  1  6
  5  3  1  0
  5  6  1  6
  7  9  1  0
  7  5  1  0
  8  7  2  0
 10  9  1  0
 10 11  1  6
 12 13  2  0
 12 11  1  0
 14 13  1  0
 15 20  2  0
 15 14  1  0
 16 15  1  0
 17 18  1  0
 17 16  2  0
 18 19  2  0
 19 20  1  0
 20 12  1  0
 21 10  1  0
 21 27  1  0
 22 21  2  0
 24 23  1  1
 24 26  1  0
 24 25  1  0
 26 27  1  1
 26 28  1  0
 28 29  1  0
 30 28  2  0
M  END
$$$$
