IWV.pdb
     RDKit          3D

 30 31  0  0  1  0  0  0  0  0999 V2000
   29.3328  -18.2597  -15.7968 C   0  0  0  0  0  0  0  0  0  0  0  0
   29.5804  -18.8499  -14.4435 C   0  0  0  0  0  0  0  0  0  0  0  0
   28.3303  -19.5268  -13.8850 C   0  0  2  0  0  0  0  0  0  0  0  0
   27.1826  -18.5857  -14.0126 C   0  0  0  0  0  0  0  0  0  0  0  0
   28.6730  -19.9453  -12.4853 C   0  0  2  0  0  0  0  0  0  0  0  0
   29.7764  -20.9129  -12.6357 N   0  0  0  0  0  0  0  0  0  0  0  0
   27.5238  -20.6163  -11.7836 C   0  0  0  0  0  0  0  0  0  0  0  0
   27.3767  -21.8492  -11.9609 O   0  0  0  0  0  0  0  0  0  0  0  0
   26.6476  -19.9127  -10.9646 N   0  0  0  0  0  0  0  0  0  0  0  0
   25.4792  -20.5584  -10.3267 C   0  0  1  0  0  0  0  0  0  0  0  0
   25.1886  -19.7906   -9.0939 C   0  0  0  0  0  0  0  0  0  0  0  0
   26.3580  -19.4871   -8.2557 C   0  0  0  0  0  0  0  0  0  0  0  0
   27.2534  -18.4426   -8.3945 C   0  0  0  0  0  0  0  0  0  0  0  0
   28.1730  -18.5743   -7.4246 N   0  0  0  0  0  0  0  0  0  0  0  0
   27.8914  -19.6640   -6.6779 C   0  0  0  0  0  0  0  0  0  0  0  0
   28.5432  -20.2073   -5.5744 C   0  0  0  0  0  0  0  0  0  0  0  0
   28.0060  -21.3497   -5.0146 C   0  0  0  0  0  0  0  0  0  0  0  0
   26.8710  -21.9528   -5.5049 C   0  0  0  0  0  0  0  0  0  0  0  0
   26.2419  -21.4006   -6.5958 C   0  0  0  0  0  0  0  0  0  0  0  0
   26.7627  -20.2632   -7.1660 C   0  0  0  0  0  0  0  0  0  0  0  0
   24.3947  -20.6784  -11.3022 C   0  0  0  0  0  0  0  0  0  0  0  0
   24.1797  -19.7029  -12.0906 O   0  0  0  0  0  0  0  0  0  0  0  0
   23.9852  -23.1454  -13.9159 C   0  0  0  0  0  0  0  0  0  0  0  0
   22.6456  -23.0721  -13.2400 C   0  0  1  0  0  0  0  0  0  0  0  0
   22.5733  -24.2282  -12.2502 C   0  0  0  0  0  0  0  0  0  0  0  0
   22.5116  -21.7981  -12.4233 C   0  0  2  0  0  0  0  0  0  0  0  0
   23.5637  -21.8292  -11.4261 N   0  0  0  0  0  0  0  0  0  0  0  0
   21.1854  -21.7530  -11.7951 C   0  0  0  0  0  0  0  0  0  0  0  0
   20.0483  -21.5382  -12.5594 O   0  0  0  0  0  0  0  0  0  0  0  0
   21.0236  -21.9036  -10.5637 O   0  0  0  0  0  0  0  0  0  0  0  0
  1  2  1  0
  2  3  1  0
  3  4  1  1
  5  3  1  0
  5  6  1  6
  7  9  1  0
  7  5  1  0
  8  7  2  0
 10  9  1  0
 10 11  1  1
 12 13  2  0
 12 11  1  0
 14 13  1  0
 15 20  2  0
 15 14  1  0
 16 15  1  0
 17 18  1  0
 17 16  2  0
 18 19  2  0
 19 20  1  0
 20 12  1  0
 21 10  1  0
 21 27  1  0
 22 21  2  0
 24 23  1  1
 24 26  1  0
 24 25  1  0
 26 27  1  1
 26 28  1  0
 28 29  1  0
 30 28  2  0
M  END
$$$$
