IWV.pdb
     RDKit          3D

 30 31  0  0  1  0  0  0  0  0999 V2000
   30.2742  -22.6662  -17.9438 C   0  0  0  0  0  0  0  0  0  0  0  0
   29.0291  -21.8828  -17.6659 C   0  0  0  0  0  0  0  0  0  0  0  0
   28.5138  -22.1250  -16.2486 C   0  0  2  0  0  0  0  0  0  0  0  0
   28.4497  -23.5941  -16.0104 C   0  0  0  0  0  0  0  0  0  0  0  0
   27.2067  -21.3946  -16.1499 C   0  0  2  0  0  0  0  0  0  0  0  0
   27.5447  -19.9759  -16.3725 N   0  0  0  0  0  0  0  0  0  0  0  0
   26.5628  -21.5396  -14.7980 C   0  0  0  0  0  0  0  0  0  0  0  0
   26.1915  -22.6869  -14.4530 O   0  0  0  0  0  0  0  0  0  0  0  0
   26.3784  -20.4541  -13.9487 N   0  0  0  0  0  0  0  0  0  0  0  0
   25.6859  -20.5838  -12.6477 C   0  0  1  0  0  0  0  0  0  0  0  0
   26.3999  -19.7021  -11.6955 C   0  0  0  0  0  0  0  0  0  0  0  0
   27.4846  -20.3459  -10.9398 C   0  0  0  0  0  0  0  0  0  0  0  0
   28.5122  -21.1299  -11.4315 C   0  0  0  0  0  0  0  0  0  0  0  0
   29.2506  -21.5236  -10.3811 N   0  0  0  0  0  0  0  0  0  0  0  0
   28.7273  -21.0172   -9.2436 C   0  0  0  0  0  0  0  0  0  0  0  0
   29.1328  -21.1425   -7.9179 C   0  0  0  0  0  0  0  0  0  0  0  0
   28.3808  -20.4960   -6.9568 C   0  0  0  0  0  0  0  0  0  0  0  0
   27.2677  -19.7486   -7.2647 C   0  0  0  0  0  0  0  0  0  0  0  0
   26.8837  -19.6373   -8.5804 C   0  0  0  0  0  0  0  0  0  0  0  0
   27.6206  -20.2742   -9.5506 C   0  0  0  0  0  0  0  0  0  0  0  0
   24.2545  -20.3388  -12.8300 C   0  0  0  0  0  0  0  0  0  0  0  0
   23.8766  -19.1637  -13.1394 O   0  0  0  0  0  0  0  0  0  0  0  0
   22.0959  -21.6887  -15.2611 C   0  0  0  0  0  0  0  0  0  0  0  0
   21.3217  -21.8517  -13.9841 C   0  0  1  0  0  0  0  0  0  0  0  0
   21.5270  -23.2848  -13.5092 C   0  0  0  0  0  0  0  0  0  0  0  0
   21.8722  -20.9533  -12.8897 C   0  0  2  0  0  0  0  0  0  0  0  0
   23.2538  -21.3429  -12.6858 N   0  0  0  0  0  0  0  0  0  0  0  0
   21.0837  -21.1304  -11.6640 C   0  0  0  0  0  0  0  0  0  0  0  0
   19.7868  -20.6461  -11.5817 O   0  0  0  0  0  0  0  0  0  0  0  0
   21.5379  -21.7158  -10.6559 O   0  0  0  0  0  0  0  0  0  0  0  0
  1  2  1  0
  2  3  1  0
  3  4  1  6
  5  3  1  0
  5  6  1  1
  7  9  1  0
  7  5  1  0
  8  7  2  0
 10  9  1  0
 10 11  1  1
 12 13  2  0
 12 11  1  0
 14 13  1  0
 15 20  2  0
 15 14  1  0
 16 15  1  0
 17 18  1  0
 17 16  2  0
 18 19  2  0
 19 20  1  0
 20 12  1  0
 21 10  1  0
 21 27  1  0
 22 21  2  0
 24 23  1  6
 24 26  1  0
 24 25  1  0
 26 27  1  1
 26 28  1  0
 28 29  1  0
 30 28  2  0
M  END
$$$$
