IWV.pdb
     RDKit          3D

 30 31  0  0  1  0  0  0  0  0999 V2000
   21.6855  -19.5276  -16.3802 C   0  0  0  0  0  0  0  0  0  0  0  0
   22.9040  -19.5279  -15.5104 C   0  0  0  0  0  0  0  0  0  0  0  0
   22.6741  -20.3057  -14.2162 C   0  0  2  0  0  0  0  0  0  0  0  0
   21.4419  -19.7850  -13.5608 C   0  0  0  0  0  0  0  0  0  0  0  0
   23.9384  -20.1716  -13.4192 C   0  0  2  0  0  0  0  0  0  0  0  0
   24.9800  -20.8109  -14.2456 N   0  0  0  0  0  0  0  0  0  0  0  0
   23.8638  -20.8759  -12.0919 C   0  0  0  0  0  0  0  0  0  0  0  0
   23.8129  -22.1291  -12.1028 O   0  0  0  0  0  0  0  0  0  0  0  0
   23.8515  -20.1806  -10.8877 N   0  0  0  0  0  0  0  0  0  0  0  0
   23.7517  -20.8713   -9.5831 C   0  0  1  0  0  0  0  0  0  0  0  0
   24.6800  -20.1769   -8.6613 C   0  0  0  0  0  0  0  0  0  0  0  0
   26.0920  -20.5691   -8.7828 C   0  0  0  0  0  0  0  0  0  0  0  0
   26.6728  -21.3571   -9.7594 C   0  0  0  0  0  0  0  0  0  0  0  0
   27.9762  -21.4713   -9.4564 N   0  0  0  0  0  0  0  0  0  0  0  0
   28.2402  -20.7842   -8.3240 C   0  0  0  0  0  0  0  0  0  0  0  0
   29.4286  -20.6052   -7.6214 C   0  0  0  0  0  0  0  0  0  0  0  0
   29.3830  -19.8348   -6.4762 C   0  0  0  0  0  0  0  0  0  0  0  0
   28.2233  -19.2521   -6.0200 C   0  0  0  0  0  0  0  0  0  0  0  0
   27.0599  -19.4411   -6.7284 C   0  0  0  0  0  0  0  0  0  0  0  0
   27.0867  -20.2052   -7.8709 C   0  0  0  0  0  0  0  0  0  0  0  0
   22.3477  -20.9453   -9.1762 C   0  0  0  0  0  0  0  0  0  0  0  0
   21.6473  -19.8840   -9.2246 O   0  0  0  0  0  0  0  0  0  0  0  0
   19.8149  -22.4862  -10.7664 C   0  0  0  0  0  0  0  0  0  0  0  0
   19.5511  -22.9250   -9.3540 C   0  0  1  0  0  0  0  0  0  0  0  0
   20.0984  -24.3395   -9.2090 C   0  0  0  0  0  0  0  0  0  0  0  0
   20.3137  -22.0652   -8.3604 C   0  0  2  0  0  0  0  0  0  0  0  0
   21.7134  -22.1411   -8.7311 N   0  0  0  0  0  0  0  0  0  0  0  0
   20.0960  -22.5735   -7.0004 C   0  0  0  0  0  0  0  0  0  0  0  0
   21.1487  -23.0958   -6.2641 O   0  0  0  0  0  0  0  0  0  0  0  0
   18.9708  -22.5590   -6.4537 O   0  0  0  0  0  0  0  0  0  0  0  0
  1  2  1  0
  2  3  1  0
  3  4  1  1
  5  3  1  0
  5  6  1  6
  7  9  1  0
  7  5  1  0
  8  7  2  0
 10  9  1  0
 10 11  1  1
 12 13  2  0
 12 11  1  0
 14 13  1  0
 15 20  2  0
 15 14  1  0
 16 15  1  0
 17 18  1  0
 17 16  2  0
 18 19  2  0
 19 20  1  0
 20 12  1  0
 21 10  1  0
 21 27  1  0
 22 21  2  0
 24 23  1  6
 24 26  1  0
 24 25  1  0
 26 27  1  6
 26 28  1  0
 28 29  1  0
 30 28  2  0
M  END
$$$$
