IWV.pdb
     RDKit          3D

 30 31  0  0  1  0  0  0  0  0999 V2000
   19.7111  -17.9327  -18.6898 C   0  0  0  0  0  0  0  0  0  0  0  0
   20.6433  -17.6564  -17.5515 C   0  0  0  0  0  0  0  0  0  0  0  0
   21.2393  -18.9432  -16.9842 C   0  0  2  0  0  0  0  0  0  0  0  0
   20.1252  -19.8553  -16.6022 C   0  0  0  0  0  0  0  0  0  0  0  0
   22.1467  -18.5242  -15.8650 C   0  0  2  0  0  0  0  0  0  0  0  0
   23.1518  -17.6480  -16.4964 N   0  0  0  0  0  0  0  0  0  0  0  0
   22.8469  -19.6891  -15.2200 C   0  0  0  0  0  0  0  0  0  0  0  0
   22.1395  -20.5222  -14.6047 O   0  0  0  0  0  0  0  0  0  0  0  0
   24.2258  -19.8533  -15.2931 N   0  0  0  0  0  0  0  0  0  0  0  0
   24.9144  -21.0014  -14.6634 C   0  0  1  0  0  0  0  0  0  0  0  0
   25.7352  -21.6374  -15.7196 C   0  0  0  0  0  0  0  0  0  0  0  0
   25.0310  -22.6278  -16.5475 C   0  0  0  0  0  0  0  0  0  0  0  0
   24.5751  -22.4794  -17.8445 C   0  0  0  0  0  0  0  0  0  0  0  0
   23.9712  -23.6286  -18.1886 N   0  0  0  0  0  0  0  0  0  0  0  0
   24.0289  -24.4978  -17.1564 C   0  0  0  0  0  0  0  0  0  0  0  0
   23.5503  -25.7990  -17.0314 C   0  0  0  0  0  0  0  0  0  0  0  0
   23.7657  -26.4456  -15.8304 C   0  0  0  0  0  0  0  0  0  0  0  0
   24.4248  -25.8543  -14.7776 C   0  0  0  0  0  0  0  0  0  0  0  0
   24.8898  -24.5682  -14.9211 C   0  0  0  0  0  0  0  0  0  0  0  0
   24.6843  -23.9092  -16.1100 C   0  0  0  0  0  0  0  0  0  0  0  0
   25.6174  -20.5497  -13.4617 C   0  0  0  0  0  0  0  0  0  0  0  0
   26.3865  -19.5401  -13.5545 O   0  0  0  0  0  0  0  0  0  0  0  0
   24.4910  -19.2126  -10.4236 C   0  0  0  0  0  0  0  0  0  0  0  0
   25.4528  -20.2774   -9.9787 C   0  0  1  0  0  0  0  0  0  0  0  0
   24.6290  -21.4990   -9.5907 C   0  0  0  0  0  0  0  0  0  0  0  0
   26.3561  -20.7130  -11.1198 C   0  0  2  0  0  0  0  0  0  0  0  0
   25.4884  -21.1726  -12.1867 N   0  0  0  0  0  0  0  0  0  0  0  0
   27.2474  -21.7854  -10.6606 C   0  0  0  0  0  0  0  0  0  0  0  0
   27.0831  -23.0848  -11.1167 O   0  0  0  0  0  0  0  0  0  0  0  0
   28.1790  -21.5796   -9.8514 O   0  0  0  0  0  0  0  0  0  0  0  0
  1  2  1  0
  2  3  1  0
  3  4  1  1
  5  3  1  0
  5  6  1  6
  7  9  1  0
  7  5  1  0
  8  7  2  0
 10  9  1  0
 10 11  1  6
 12 13  2  0
 12 11  1  0
 14 13  1  0
 15 20  2  0
 15 14  1  0
 16 15  1  0
 17 18  1  0
 17 16  2  0
 18 19  2  0
 19 20  1  0
 20 12  1  0
 21 10  1  0
 21 27  1  0
 22 21  2  0
 24 23  1  6
 24 26  1  0
 24 25  1  0
 26 27  1  6
 26 28  1  0
 28 29  1  0
 30 28  2  0
M  END
$$$$
