IWV.pdb
     RDKit          3D

 30 31  0  0  1  0  0  0  0  0999 V2000
   27.7362  -18.3853  -17.4363 C   0  0  0  0  0  0  0  0  0  0  0  0
   28.4532  -18.9607  -16.2548 C   0  0  0  0  0  0  0  0  0  0  0  0
   27.4782  -19.4655  -15.1930 C   0  0  2  0  0  0  0  0  0  0  0  0
   26.7577  -18.2969  -14.6149 C   0  0  0  0  0  0  0  0  0  0  0  0
   28.2961  -20.2672  -14.2235 C   0  0  2  0  0  0  0  0  0  0  0  0
   28.7762  -21.4277  -14.9977 N   0  0  0  0  0  0  0  0  0  0  0  0
   27.4895  -20.7581  -13.0523 C   0  0  0  0  0  0  0  0  0  0  0  0
   26.7014  -21.7133  -13.2510 O   0  0  0  0  0  0  0  0  0  0  0  0
   27.6005  -20.1871  -11.7893 N   0  0  0  0  0  0  0  0  0  0  0  0
   26.8282  -20.6874  -10.6307 C   0  0  1  0  0  0  0  0  0  0  0  0
   27.5430  -20.2351   -9.4149 C   0  0  0  0  0  0  0  0  0  0  0  0
   26.8312  -20.4650   -8.1489 C   0  0  0  0  0  0  0  0  0  0  0  0
   25.5908  -21.0483   -7.9666 C   0  0  0  0  0  0  0  0  0  0  0  0
   25.3296  -21.0259   -6.6495 N   0  0  0  0  0  0  0  0  0  0  0  0
   26.3596  -20.4497   -5.9927 C   0  0  0  0  0  0  0  0  0  0  0  0
   26.5528  -20.2019   -4.6366 C   0  0  0  0  0  0  0  0  0  0  0  0
   27.7306  -19.5858   -4.2620 C   0  0  0  0  0  0  0  0  0  0  0  0
   28.6966  -19.2183   -5.1697 C   0  0  0  0  0  0  0  0  0  0  0  0
   28.4867  -19.4718   -6.5048 C   0  0  0  0  0  0  0  0  0  0  0  0
   27.3198  -20.0845   -6.8959 C   0  0  0  0  0  0  0  0  0  0  0  0
   25.4286  -20.2808  -10.7648 C   0  0  0  0  0  0  0  0  0  0  0  0
   25.1567  -19.0376  -10.7590 O   0  0  0  0  0  0  0  0  0  0  0  0
   22.6535  -22.6919  -12.6546 C   0  0  0  0  0  0  0  0  0  0  0  0
   22.7237  -21.1912  -12.6512 C   0  0  1  0  0  0  0  0  0  0  0  0
   21.3337  -20.6715  -12.9966 C   0  0  0  0  0  0  0  0  0  0  0  0
   23.0490  -20.6599  -11.2656 C   0  0  2  0  0  0  0  0  0  0  0  0
   24.3470  -21.1975  -10.9068 N   0  0  0  0  0  0  0  0  0  0  0  0
   22.0147  -21.0914  -10.3173 C   0  0  0  0  0  0  0  0  0  0  0  0
   20.7263  -20.5844  -10.3976 O   0  0  0  0  0  0  0  0  0  0  0  0
   22.2443  -21.9213   -9.4097 O   0  0  0  0  0  0  0  0  0  0  0  0
  1  2  1  0
  2  3  1  0
  3  4  1  1
  5  3  1  0
  5  6  1  6
  7  9  1  0
  7  5  1  0
  8  7  2  0
 10  9  1  0
 10 11  1  1
 12 13  2  0
 12 11  1  0
 14 13  1  0
 15 20  2  0
 15 14  1  0
 16 15  1  0
 17 18  1  0
 17 16  2  0
 18 19  2  0
 19 20  1  0
 20 12  1  0
 21 10  1  0
 21 27  1  0
 22 21  2  0
 24 23  1  1
 24 26  1  0
 24 25  1  0
 26 27  1  1
 26 28  1  0
 28 29  1  0
 30 28  2  0
M  END
$$$$
