IWV.pdb
     RDKit          3D

 30 31  0  0  1  0  0  0  0  0999 V2000
   26.9139  -16.4621  -20.5667 C   0  0  0  0  0  0  0  0  0  0  0  0
   27.5989  -16.8352  -19.2890 C   0  0  0  0  0  0  0  0  0  0  0  0
   26.7568  -17.8008  -18.4575 C   0  0  2  0  0  0  0  0  0  0  0  0
   25.3730  -17.2587  -18.3557 C   0  0  0  0  0  0  0  0  0  0  0  0
   27.4831  -17.9726  -17.1557 C   0  0  2  0  0  0  0  0  0  0  0  0
   28.7963  -18.5358  -17.5229 N   0  0  0  0  0  0  0  0  0  0  0  0
   26.7841  -18.9243  -16.2236 C   0  0  0  0  0  0  0  0  0  0  0  0
   26.0314  -19.7879  -16.7343 O   0  0  0  0  0  0  0  0  0  0  0  0
   26.9542  -18.8646  -14.8448 N   0  0  0  0  0  0  0  0  0  0  0  0
   26.3113  -19.8349  -13.9315 C   0  0  1  0  0  0  0  0  0  0  0  0
   27.0534  -19.7711  -12.6513 C   0  0  0  0  0  0  0  0  0  0  0  0
   26.5528  -20.6609  -11.5930 C   0  0  0  0  0  0  0  0  0  0  0  0
   26.1851  -21.9892  -11.7048 C   0  0  0  0  0  0  0  0  0  0  0  0
   25.7662  -22.3900  -10.4934 N   0  0  0  0  0  0  0  0  0  0  0  0
   25.8557  -21.3635   -9.6202 C   0  0  0  0  0  0  0  0  0  0  0  0
   25.5436  -21.2879   -8.2657 C   0  0  0  0  0  0  0  0  0  0  0  0
   25.7465  -20.0785   -7.6306 C   0  0  0  0  0  0  0  0  0  0  0  0
   26.2373  -18.9714   -8.2831 C   0  0  0  0  0  0  0  0  0  0  0  0
   26.5395  -19.0667   -9.6212 C   0  0  0  0  0  0  0  0  0  0  0  0
   26.3437  -20.2630  -10.2696 C   0  0  0  0  0  0  0  0  0  0  0  0
   24.8724  -19.5733  -13.8756 C   0  0  0  0  0  0  0  0  0  0  0  0
   24.4803  -18.3663  -13.7815 O   0  0  0  0  0  0  0  0  0  0  0  0
   21.8328  -22.3375  -14.8186 C   0  0  0  0  0  0  0  0  0  0  0  0
   21.6905  -20.8421  -14.8348 C   0  0  1  0  0  0  0  0  0  0  0  0
   20.2288  -20.5226  -14.5472 C   0  0  0  0  0  0  0  0  0  0  0  0
   22.4981  -20.2016  -13.7187 C   0  0  2  0  0  0  0  0  0  0  0  0
   23.8787  -20.5934  -13.9250 N   0  0  0  0  0  0  0  0  0  0  0  0
   22.0010  -20.6708  -12.4194 C   0  0  0  0  0  0  0  0  0  0  0  0
   21.0184  -19.9648  -11.7417 O   0  0  0  0  0  0  0  0  0  0  0  0
   22.4337  -21.7104  -11.8741 O   0  0  0  0  0  0  0  0  0  0  0  0
  1  2  1  0
  2  3  1  0
  3  4  1  1
  5  3  1  0
  5  6  1  6
  7  9  1  0
  7  5  1  0
  8  7  2  0
 10  9  1  0
 10 11  1  1
 12 13  2  0
 12 11  1  0
 14 13  1  0
 15 20  2  0
 15 14  1  0
 16 15  1  0
 17 18  1  0
 17 16  2  0
 18 19  2  0
 19 20  1  0
 20 12  1  0
 21 10  1  0
 21 27  1  0
 22 21  2  0
 24 23  1  1
 24 26  1  0
 24 25  1  0
 26 27  1  6
 26 28  1  0
 28 29  1  0
 30 28  2  0
M  END
$$$$
