IWV.pdb
     RDKit          3D

 30 31  0  0  1  0  0  0  0  0999 V2000
   30.5284  -22.4677  -17.8578 C   0  0  0  0  0  0  0  0  0  0  0  0
   29.1457  -21.9295  -17.6593 C   0  0  0  0  0  0  0  0  0  0  0  0
   28.6713  -22.1084  -16.2185 C   0  0  2  0  0  0  0  0  0  0  0  0
   28.7402  -23.5554  -15.8713 C   0  0  0  0  0  0  0  0  0  0  0  0
   27.3061  -21.4895  -16.1493 C   0  0  2  0  0  0  0  0  0  0  0  0
   27.5169  -20.0641  -16.4658 N   0  0  0  0  0  0  0  0  0  0  0  0
   26.6874  -21.6026  -14.7827 C   0  0  0  0  0  0  0  0  0  0  0  0
   26.4192  -22.7531  -14.3613 O   0  0  0  0  0  0  0  0  0  0  0  0
   26.4164  -20.4850  -14.0010 N   0  0  0  0  0  0  0  0  0  0  0  0
   25.7398  -20.5894  -12.6894 C   0  0  1  0  0  0  0  0  0  0  0  0
   26.4905  -19.7219  -11.7526 C   0  0  0  0  0  0  0  0  0  0  0  0
   27.5291  -20.4029  -10.9653 C   0  0  0  0  0  0  0  0  0  0  0  0
   28.5535  -21.2081  -11.4284 C   0  0  0  0  0  0  0  0  0  0  0  0
   29.2417  -21.6334  -10.3564 N   0  0  0  0  0  0  0  0  0  0  0  0
   28.6896  -21.1264   -9.2328 C   0  0  0  0  0  0  0  0  0  0  0  0
   29.0418  -21.2777   -7.8946 C   0  0  0  0  0  0  0  0  0  0  0  0
   28.2715  -20.6227   -6.9540 C   0  0  0  0  0  0  0  0  0  0  0  0
   27.1906  -19.8426   -7.2937 C   0  0  0  0  0  0  0  0  0  0  0  0
   26.8590  -19.7059   -8.6211 C   0  0  0  0  0  0  0  0  0  0  0  0
   27.6149  -20.3508   -9.5713 C   0  0  0  0  0  0  0  0  0  0  0  0
   24.3128  -20.3076  -12.8524 C   0  0  0  0  0  0  0  0  0  0  0  0
   23.9699  -19.1793  -13.3307 O   0  0  0  0  0  0  0  0  0  0  0  0
   22.1928  -21.6641  -15.0882 C   0  0  0  0  0  0  0  0  0  0  0  0
   21.3688  -21.7504  -13.8350 C   0  0  1  0  0  0  0  0  0  0  0  0
   21.5114  -23.1681  -13.2953 C   0  0  0  0  0  0  0  0  0  0  0  0
   21.9085  -20.8244  -12.7582 C   0  0  2  0  0  0  0  0  0  0  0  0
   23.2792  -21.2269  -12.5105 N   0  0  0  0  0  0  0  0  0  0  0  0
   21.0905  -20.9497  -11.5456 C   0  0  0  0  0  0  0  0  0  0  0  0
   19.7890  -20.4715  -11.5185 O   0  0  0  0  0  0  0  0  0  0  0  0
   21.5226  -21.4840  -10.5001 O   0  0  0  0  0  0  0  0  0  0  0  0
  1  2  1  0
  2  3  1  0
  3  4  1  6
  5  3  1  0
  5  6  1  1
  7  9  1  0
  7  5  1  0
  8  7  2  0
 10  9  1  0
 10 11  1  1
 12 13  2  0
 12 11  1  0
 14 13  1  0
 15 20  2  0
 15 14  1  0
 16 15  1  0
 17 18  1  0
 17 16  2  0
 18 19  2  0
 19 20  1  0
 20 12  1  0
 21 10  1  0
 21 27  1  0
 22 21  2  0
 24 23  1  6
 24 26  1  0
 24 25  1  0
 26 27  1  1
 26 28  1  0
 28 29  1  0
 30 28  2  0
M  END
$$$$
