VHL.pdb
     RDKit          3D

 26 26  0  0  1  0  0  0  0  0999 V2000
   17.9956  -27.1050   -9.2886 C   0  0  0  0  0  0  0  0  0  0  0  0
   17.9124  -26.8889   -7.7872 C   0  0  1  0  0  0  0  0  0  0  0  0
   19.3208  -26.8399   -7.2272 C   0  0  0  0  0  0  0  0  0  0  0  0
   17.3006  -25.5226   -7.5557 C   0  0  2  0  0  0  0  0  0  0  0  0
   18.1098  -24.4983   -8.1874 N   0  0  0  0  0  0  0  0  0  0  0  0
   17.1599  -25.1915   -6.1330 C   0  0  0  0  0  0  0  0  0  0  0  0
   17.9038  -24.3017   -5.5926 O   0  0  0  0  0  0  0  0  0  0  0  0
   16.2324  -25.7921   -5.2535 N   0  0  0  0  0  0  0  0  0  0  0  0
   16.1000  -25.3527   -3.8314 C   0  0  1  0  0  0  0  0  0  0  0  0
   14.6436  -25.3546   -3.5762 C   0  0  0  0  0  0  0  0  0  0  0  0
   13.9391  -24.0640   -3.6843 C   0  0  0  0  0  0  0  0  0  0  0  0
   14.3713  -22.8003   -3.9887 C   0  0  0  0  0  0  0  0  0  0  0  0
   13.3282  -21.9426   -4.0345 N   0  0  0  0  0  0  0  0  0  0  0  0
   12.2451  -22.6643   -3.7616 C   0  0  0  0  0  0  0  0  0  0  0  0
   12.5751  -23.9232   -3.5503 N   0  0  0  0  0  0  0  0  0  0  0  0
   16.8408  -26.3716   -3.0310 C   0  0  0  0  0  0  0  0  0  0  0  0
   16.9193  -27.5409   -3.4706 O   0  0  0  0  0  0  0  0  0  0  0  0
   20.9462  -26.2285    1.4204 C   0  0  0  0  0  0  0  0  0  0  0  0
   19.7811  -27.0811    0.8975 C   0  0  1  0  0  0  0  0  0  0  0  0
   18.9862  -27.6554    2.0351 C   0  0  0  0  0  0  0  0  0  0  0  0
   18.9905  -26.2086   -0.0161 C   0  0  0  0  0  0  0  0  0  0  0  0
   18.1824  -26.9445   -1.0421 C   0  0  2  0  0  0  0  0  0  0  0  0
   17.4332  -25.9921   -1.8005 N   0  0  0  0  0  0  0  0  0  0  0  0
   17.2377  -27.8328   -0.2841 C   0  0  0  0  0  0  0  0  0  0  0  0
   17.4719  -29.1817   -0.0964 O   0  0  0  0  0  0  0  0  0  0  0  0
   16.1872  -27.3460    0.2058 O   0  0  0  0  0  0  0  0  0  0  0  0
  2  4  1  0
  2  1  1  6
  3  2  1  0
  4  5  1  6
  6  4  1  0
  6  7  2  0
  8  6  1  0
  9  8  1  0
  9 10  1  1
 11 10  1  0
 11 12  2  0
 13 12  1  0
 14 15  2  0
 14 13  1  0
 15 11  1  0
 16  9  1  0
 17 16  2  0
 19 18  1  1
 19 21  1  0
 20 19  1  0
 22 21  1  1
 22 23  1  0
 22 24  1  0
 23 16  1  0
 24 26  2  0
 24 25  1  0
M  END
$$$$
