VHL.pdb
     RDKit          3D

 26 26  0  0  1  0  0  0  0  0999 V2000
   28.7757  -17.8802  -18.3466 C   0  0  0  0  0  0  0  0  0  0  0  0
   27.6806  -17.9925  -17.2998 C   0  0  1  0  0  0  0  0  0  0  0  0
   27.8102  -16.8274  -16.3379 C   0  0  0  0  0  0  0  0  0  0  0  0
   26.3522  -17.8297  -18.0094 C   0  0  2  0  0  0  0  0  0  0  0  0
   26.3291  -16.5822  -18.7484 N   0  0  0  0  0  0  0  0  0  0  0  0
   25.2068  -17.8474  -17.0921 C   0  0  0  0  0  0  0  0  0  0  0  0
   24.8668  -16.7935  -16.4510 O   0  0  0  0  0  0  0  0  0  0  0  0
   24.3984  -18.9762  -16.8336 N   0  0  0  0  0  0  0  0  0  0  0  0
   23.2991  -18.9402  -15.8221 C   0  0  1  0  0  0  0  0  0  0  0  0
   22.1001  -19.3910  -16.5607 C   0  0  0  0  0  0  0  0  0  0  0  0
   21.2836  -18.3535  -17.2168 C   0  0  0  0  0  0  0  0  0  0  0  0
   21.3866  -16.9881  -17.2580 C   0  0  0  0  0  0  0  0  0  0  0  0
   20.4311  -16.4662  -18.0582 N   0  0  0  0  0  0  0  0  0  0  0  0
   19.7315  -17.4990  -18.5192 C   0  0  0  0  0  0  0  0  0  0  0  0
   20.2127  -18.6288  -18.0390 N   0  0  0  0  0  0  0  0  0  0  0  0
   23.7193  -19.8852  -14.7460 C   0  0  0  0  0  0  0  0  0  0  0  0
   24.4331  -20.8666  -15.0525 O   0  0  0  0  0  0  0  0  0  0  0  0
   24.0450  -21.0561   -9.6313 C   0  0  0  0  0  0  0  0  0  0  0  0
   25.3003  -20.6458  -10.4146 C   0  0  1  0  0  0  0  0  0  0  0  0
   26.1373  -21.8468  -10.7505 C   0  0  0  0  0  0  0  0  0  0  0  0
   24.8298  -19.8817  -11.6044 C   0  0  0  0  0  0  0  0  0  0  0  0
   23.7140  -20.5318  -12.3658 C   0  0  2  0  0  0  0  0  0  0  0  0
   23.3020  -19.6493  -13.4121 N   0  0  0  0  0  0  0  0  0  0  0  0
   22.5840  -20.7146  -11.3934 C   0  0  0  0  0  0  0  0  0  0  0  0
   21.6213  -19.7466  -11.1790 O   0  0  0  0  0  0  0  0  0  0  0  0
   22.4953  -21.7851  -10.7400 O   0  0  0  0  0  0  0  0  0  0  0  0
  2  4  1  0
  2  1  1  6
  3  2  1  0
  4  5  1  1
  6  4  1  0
  6  7  2  0
  8  6  1  0
  9  8  1  0
  9 10  1  6
 11 10  1  0
 11 12  2  0
 13 12  1  0
 14 15  2  0
 14 13  1  0
 15 11  1  0
 16  9  1  0
 17 16  2  0
 19 18  1  6
 19 21  1  0
 20 19  1  0
 22 21  1  1
 22 23  1  0
 22 24  1  0
 23 16  1  0
 24 26  2  0
 24 25  1  0
M  END
$$$$
