VHL.pdb
     RDKit          3D

 26 26  0  0  1  0  0  0  0  0999 V2000
   28.7999  -19.3847  -13.9439 C   0  0  0  0  0  0  0  0  0  0  0  0
   28.1589  -18.6071  -15.0806 C   0  0  1  0  0  0  0  0  0  0  0  0
   29.0497  -18.7155  -16.3029 C   0  0  0  0  0  0  0  0  0  0  0  0
   26.8545  -19.2954  -15.4261 C   0  0  2  0  0  0  0  0  0  0  0  0
   26.2119  -18.6212  -16.5377 N   0  0  0  0  0  0  0  0  0  0  0  0
   25.9130  -19.3368  -14.3012 C   0  0  0  0  0  0  0  0  0  0  0  0
   25.2841  -18.2838  -13.9364 O   0  0  0  0  0  0  0  0  0  0  0  0
   25.6169  -20.4888  -13.5397 N   0  0  0  0  0  0  0  0  0  0  0  0
   24.7125  -20.4341  -12.3515 C   0  0  1  0  0  0  0  0  0  0  0  0
   23.5827  -21.3206  -12.7036 C   0  0  0  0  0  0  0  0  0  0  0  0
   22.2256  -20.8415  -12.3838 C   0  0  0  0  0  0  0  0  0  0  0  0
   21.7683  -19.6926  -11.7945 C   0  0  0  0  0  0  0  0  0  0  0  0
   20.4174  -19.6738  -11.7814 N   0  0  0  0  0  0  0  0  0  0  0  0
   20.0271  -20.8051  -12.3613 C   0  0  0  0  0  0  0  0  0  0  0  0
   21.0749  -21.5164  -12.7285 N   0  0  0  0  0  0  0  0  0  0  0  0
   25.5276  -20.9423  -11.2091 C   0  0  0  0  0  0  0  0  0  0  0  0
   26.1530  -22.0176  -11.3479 O   0  0  0  0  0  0  0  0  0  0  0  0
   28.9695  -20.7089   -7.3683 C   0  0  0  0  0  0  0  0  0  0  0  0
   27.7035  -19.9521   -6.9413 C   0  0  1  0  0  0  0  0  0  0  0  0
   28.0497  -18.7834   -6.0638 C   0  0  0  0  0  0  0  0  0  0  0  0
   26.9864  -19.5798   -8.1935 C   0  0  0  0  0  0  0  0  0  0  0  0
   26.2769  -20.7137   -8.8703 C   0  0  2  0  0  0  0  0  0  0  0  0
   25.5728  -20.1991  -10.0029 N   0  0  0  0  0  0  0  0  0  0  0  0
   25.2918  -21.2556   -7.8744 C   0  0  0  0  0  0  0  0  0  0  0  0
   25.6172  -22.2464   -6.9677 O   0  0  0  0  0  0  0  0  0  0  0  0
   24.1199  -20.8008   -7.8510 O   0  0  0  0  0  0  0  0  0  0  0  0
  2  4  1  0
  2  1  1  1
  3  2  1  0
  4  5  1  6
  6  4  1  0
  6  7  2  0
  8  6  1  0
  9  8  1  0
  9 10  1  6
 11 10  1  0
 11 12  2  0
 13 12  1  0
 14 15  2  0
 14 13  1  0
 15 11  1  0
 16  9  1  0
 17 16  2  0
 19 18  1  6
 19 21  1  0
 20 19  1  0
 22 21  1  1
 22 23  1  0
 22 24  1  0
 23 16  1  0
 24 26  2  0
 24 25  1  0
M  END
$$$$
