VHL.pdb
     RDKit          3D

 26 26  0  0  1  0  0  0  0  0999 V2000
   21.2760  -14.6800  -15.1999 C   0  0  0  0  0  0  0  0  0  0  0  0
   20.7457  -15.4359  -16.4060 C   0  0  1  0  0  0  0  0  0  0  0  0
   20.4073  -16.8510  -15.9790 C   0  0  0  0  0  0  0  0  0  0  0  0
   19.4448  -14.7798  -16.8203 C   0  0  2  0  0  0  0  0  0  0  0  0
   18.8595  -15.4917  -17.9400 N   0  0  0  0  0  0  0  0  0  0  0  0
   19.6087  -13.3717  -17.1999 C   0  0  0  0  0  0  0  0  0  0  0  0
   20.1795  -13.0538  -18.3001 O   0  0  0  0  0  0  0  0  0  0  0  0
   19.1740  -12.2726  -16.4269 N   0  0  0  0  0  0  0  0  0  0  0  0
   19.4098  -10.8630  -16.8632 C   0  0  1  0  0  0  0  0  0  0  0  0
   18.0555  -10.3075  -17.0719 C   0  0  0  0  0  0  0  0  0  0  0  0
   17.4308  -10.5325  -18.3882 C   0  0  0  0  0  0  0  0  0  0  0  0
   17.9267  -10.4866  -19.6643 C   0  0  0  0  0  0  0  0  0  0  0  0
   16.9741  -10.8415  -20.5545 N   0  0  0  0  0  0  0  0  0  0  0  0
   15.8847  -11.1108  -19.8409 C   0  0  0  0  0  0  0  0  0  0  0  0
   16.1244  -10.9373  -18.5560 N   0  0  0  0  0  0  0  0  0  0  0  0
   20.1455  -10.2171  -15.7366 C   0  0  0  0  0  0  0  0  0  0  0  0
   19.6194  -10.2090  -14.6009 O   0  0  0  0  0  0  0  0  0  0  0  0
   25.6549  -10.2155  -15.9385 C   0  0  0  0  0  0  0  0  0  0  0  0
   24.2131  -10.4316  -15.4565 C   0  0  1  0  0  0  0  0  0  0  0  0
   24.1849  -11.2832  -14.2196 C   0  0  0  0  0  0  0  0  0  0  0  0
   23.6166   -9.0780  -15.2753 C   0  0  0  0  0  0  0  0  0  0  0  0
   22.1658   -9.0777  -14.8978 C   0  0  2  0  0  0  0  0  0  0  0  0
   21.4137   -9.6323  -15.9794 N   0  0  0  0  0  0  0  0  0  0  0  0
   21.7759   -7.6401  -14.7043 C   0  0  0  0  0  0  0  0  0  0  0  0
   21.9818   -6.9656  -13.5160 O   0  0  0  0  0  0  0  0  0  0  0  0
   21.2395   -7.0104  -15.6511 O   0  0  0  0  0  0  0  0  0  0  0  0
  2  4  1  0
  2  1  1  1
  3  2  1  0
  4  5  1  6
  6  4  1  0
  6  7  2  0
  8  6  1  0
  9  8  1  0
  9 10  1  1
 11 10  1  0
 11 12  2  0
 13 12  1  0
 14 15  2  0
 14 13  1  0
 15 11  1  0
 16  9  1  0
 17 16  2  0
 19 18  1  1
 19 21  1  0
 20 19  1  0
 22 21  1  6
 22 23  1  0
 22 24  1  0
 23 16  1  0
 24 26  2  0
 24 25  1  0
M  END
$$$$
