VHL.pdb
     RDKit          3D

 26 26  0  0  1  0  0  0  0  0999 V2000
   18.3818  -29.8959  -11.8103 C   0  0  0  0  0  0  0  0  0  0  0  0
   19.8679  -29.9759  -12.1147 C   0  0  1  0  0  0  0  0  0  0  0  0
   20.0920  -31.0640  -13.1468 C   0  0  0  0  0  0  0  0  0  0  0  0
   20.2725  -28.6675  -12.7620 C   0  0  2  0  0  0  0  0  0  0  0  0
   21.6771  -28.7001  -13.1214 N   0  0  0  0  0  0  0  0  0  0  0  0
   20.0415  -27.5048  -11.8968 C   0  0  0  0  0  0  0  0  0  0  0  0
   20.8528  -27.2252  -10.9476 O   0  0  0  0  0  0  0  0  0  0  0  0
   18.9511  -26.6153  -12.0160 N   0  0  0  0  0  0  0  0  0  0  0  0
   18.8410  -25.3894  -11.1687 C   0  0  1  0  0  0  0  0  0  0  0  0
   18.2153  -24.3823  -12.0523 C   0  0  0  0  0  0  0  0  0  0  0  0
   19.1063  -23.6351  -12.9586 C   0  0  0  0  0  0  0  0  0  0  0  0
   20.4634  -23.6582  -13.1435 C   0  0  0  0  0  0  0  0  0  0  0  0
   20.8167  -22.8330  -14.1535 N   0  0  0  0  0  0  0  0  0  0  0  0
   19.6865  -22.2949  -14.6025 C   0  0  0  0  0  0  0  0  0  0  0  0
   18.6577  -22.7507  -13.9153 N   0  0  0  0  0  0  0  0  0  0  0  0
   17.9777  -25.7806  -10.0157 C   0  0  0  0  0  0  0  0  0  0  0  0
   17.1719  -26.7271  -10.1616 O   0  0  0  0  0  0  0  0  0  0  0  0
   16.6237  -24.5870   -4.7406 C   0  0  0  0  0  0  0  0  0  0  0  0
   17.5440  -25.7446   -5.1541 C   0  0  1  0  0  0  0  0  0  0  0  0
   16.7759  -27.0321   -5.2441 C   0  0  0  0  0  0  0  0  0  0  0  0
   18.1961  -25.3360   -6.4302 C   0  0  0  0  0  0  0  0  0  0  0  0
   17.3396  -25.4940   -7.6505 C   0  0  2  0  0  0  0  0  0  0  0  0
   18.0912  -25.0746   -8.7918 N   0  0  0  0  0  0  0  0  0  0  0  0
   16.1616  -24.5807   -7.4658 C   0  0  0  0  0  0  0  0  0  0  0  0
   14.9673  -25.0067   -6.9163 O   0  0  0  0  0  0  0  0  0  0  0  0
   16.2484  -23.3775   -7.8198 O   0  0  0  0  0  0  0  0  0  0  0  0
  2  4  1  0
  2  1  1  6
  3  2  1  0
  4  5  1  1
  6  4  1  0
  6  7  2  0
  8  6  1  0
  9  8  1  0
  9 10  1  6
 11 10  1  0
 11 12  2  0
 13 12  1  0
 14 15  2  0
 14 13  1  0
 15 11  1  0
 16  9  1  0
 17 16  2  0
 19 18  1  6
 19 21  1  0
 20 19  1  0
 22 21  1  1
 22 23  1  0
 22 24  1  0
 23 16  1  0
 24 26  2  0
 24 25  1  0
M  END
$$$$
