VHL.pdb
     RDKit          3D

 26 26  0  0  1  0  0  0  0  0999 V2000
   28.0471  -19.3190  -15.9942 C   0  0  0  0  0  0  0  0  0  0  0  0
   27.9692  -17.9474  -16.6427 C   0  0  1  0  0  0  0  0  0  0  0  0
   29.0872  -17.8298  -17.6604 C   0  0  0  0  0  0  0  0  0  0  0  0
   26.6664  -17.8797  -17.4126 C   0  0  2  0  0  0  0  0  0  0  0  0
   26.5779  -16.6267  -18.1373 N   0  0  0  0  0  0  0  0  0  0  0  0
   25.4848  -18.0022  -16.5510 C   0  0  0  0  0  0  0  0  0  0  0  0
   25.1509  -17.0526  -15.7609 O   0  0  0  0  0  0  0  0  0  0  0  0
   24.6330  -19.1279  -16.5061 N   0  0  0  0  0  0  0  0  0  0  0  0
   23.5595  -19.2602  -15.4752 C   0  0  1  0  0  0  0  0  0  0  0  0
   22.4302  -19.8885  -16.1936 C   0  0  0  0  0  0  0  0  0  0  0  0
   21.2270  -20.2122  -15.4054 C   0  0  0  0  0  0  0  0  0  0  0  0
   20.9157  -20.0353  -14.0832 C   0  0  0  0  0  0  0  0  0  0  0  0
   19.6472  -20.4319  -13.8394 N   0  0  0  0  0  0  0  0  0  0  0  0
   19.1629  -20.8548  -15.0035 C   0  0  0  0  0  0  0  0  0  0  0  0
   20.0745  -20.7366  -15.9487 N   0  0  0  0  0  0  0  0  0  0  0  0
   24.1383  -20.1303  -14.4095 C   0  0  0  0  0  0  0  0  0  0  0  0
   25.2301  -20.7022  -14.6271 O   0  0  0  0  0  0  0  0  0  0  0  0
   25.3600  -19.9608   -9.1807 C   0  0  0  0  0  0  0  0  0  0  0  0
   25.9605  -20.6020  -10.4401 C   0  0  1  0  0  0  0  0  0  0  0  0
   25.9357  -22.1005  -10.3408 C   0  0  0  0  0  0  0  0  0  0  0  0
   25.1995  -20.0578  -11.6000 C   0  0  0  0  0  0  0  0  0  0  0  0
   24.0756  -20.9280  -12.0764 C   0  0  2  0  0  0  0  0  0  0  0  0
   23.4413  -20.2864  -13.1852 N   0  0  0  0  0  0  0  0  0  0  0  0
   23.1032  -21.0308  -10.9363 C   0  0  0  0  0  0  0  0  0  0  0  0
   22.0129  -20.1913  -10.8089 O   0  0  0  0  0  0  0  0  0  0  0  0
   23.2730  -21.9101  -10.0539 O   0  0  0  0  0  0  0  0  0  0  0  0
  2  4  1  0
  2  1  1  6
  3  2  1  0
  4  5  1  1
  6  4  1  0
  6  7  2  0
  8  6  1  0
  9  8  1  0
  9 10  1  6
 11 10  1  0
 11 12  2  0
 13 12  1  0
 14 15  2  0
 14 13  1  0
 15 11  1  0
 16  9  1  0
 17 16  2  0
 19 18  1  1
 19 21  1  0
 20 19  1  0
 22 21  1  1
 22 23  1  0
 22 24  1  0
 23 16  1  0
 24 26  2  0
 24 25  1  0
M  END
$$$$
