VHL.pdb
     RDKit          3D

 26 26  0  0  1  0  0  0  0  0999 V2000
   22.2046   -9.9801  -19.4693 C   0  0  0  0  0  0  0  0  0  0  0  0
   21.0201  -10.8253  -19.9053 C   0  0  1  0  0  0  0  0  0  0  0  0
   21.5391  -12.0232  -20.6768 C   0  0  0  0  0  0  0  0  0  0  0  0
   20.3577  -11.3632  -18.6537 C   0  0  2  0  0  0  0  0  0  0  0  0
   19.2541  -12.2353  -19.0069 N   0  0  0  0  0  0  0  0  0  0  0  0
   19.8495  -10.3041  -17.7742 C   0  0  0  0  0  0  0  0  0  0  0  0
   18.8397   -9.5975  -18.1183 O   0  0  0  0  0  0  0  0  0  0  0  0
   20.3961   -9.9701  -16.5155 N   0  0  0  0  0  0  0  0  0  0  0  0
   19.8280   -8.8699  -15.6792 C   0  0  1  0  0  0  0  0  0  0  0  0
   19.1260   -9.5645  -14.5787 C   0  0  0  0  0  0  0  0  0  0  0  0
   17.7465  -10.0152  -14.8382 C   0  0  0  0  0  0  0  0  0  0  0  0
   16.9541   -9.9635  -15.9545 C   0  0  0  0  0  0  0  0  0  0  0  0
   15.7725  -10.5771  -15.7239 N   0  0  0  0  0  0  0  0  0  0  0  0
   15.8226  -11.0139  -14.4688 C   0  0  0  0  0  0  0  0  0  0  0  0
   16.9785  -10.6966  -13.9194 N   0  0  0  0  0  0  0  0  0  0  0  0
   21.0038   -8.0737  -15.2196 C   0  0  0  0  0  0  0  0  0  0  0  0
   22.0029   -8.6802  -14.7718 O   0  0  0  0  0  0  0  0  0  0  0  0
   22.0475   -3.3645  -17.8595 C   0  0  0  0  0  0  0  0  0  0  0  0
   22.1415   -4.7727  -17.2545 C   0  0  1  0  0  0  0  0  0  0  0  0
   23.3810   -5.4764  -17.7280 C   0  0  0  0  0  0  0  0  0  0  0  0
   22.0647   -4.6074  -15.7754 C   0  0  0  0  0  0  0  0  0  0  0  0
   22.1243   -5.8876  -14.9977 C   0  0  2  0  0  0  0  0  0  0  0  0
   20.9598   -6.6592  -15.3008 N   0  0  0  0  0  0  0  0  0  0  0  0
   22.1054   -5.5054  -13.5452 C   0  0  0  0  0  0  0  0  0  0  0  0
   23.2116   -4.9919  -12.8954 O   0  0  0  0  0  0  0  0  0  0  0  0
   21.0493   -5.6521  -12.8792 O   0  0  0  0  0  0  0  0  0  0  0  0
  2  4  1  0
  2  1  1  1
  3  2  1  0
  4  5  1  6
  6  4  1  0
  6  7  2  0
  8  6  1  0
  9  8  1  0
  9 10  1  1
 11 10  1  0
 11 12  2  0
 13 12  1  0
 14 15  2  0
 14 13  1  0
 15 11  1  0
 16  9  1  0
 17 16  2  0
 19 18  1  6
 19 21  1  0
 20 19  1  0
 22 21  1  6
 22 23  1  0
 22 24  1  0
 23 16  1  0
 24 26  2  0
 24 25  1  0
M  END
$$$$
