VHL.pdb
     RDKit          3D

 26 26  0  0  1  0  0  0  0  0999 V2000
   25.5543  -17.2995  -20.1784 C   0  0  0  0  0  0  0  0  0  0  0  0
   24.8188  -17.9783  -19.0357 C   0  0  1  0  0  0  0  0  0  0  0  0
   23.7219  -18.8493  -19.6166 C   0  0  0  0  0  0  0  0  0  0  0  0
   25.7991  -18.9069  -18.3493 C   0  0  2  0  0  0  0  0  0  0  0  0
   26.3147  -19.8781  -19.2950 N   0  0  0  0  0  0  0  0  0  0  0  0
   25.2072  -19.6297  -17.2176 C   0  0  0  0  0  0  0  0  0  0  0  0
   24.7940  -20.8330  -17.3548 O   0  0  0  0  0  0  0  0  0  0  0  0
   25.0399  -19.0978  -15.9200 N   0  0  0  0  0  0  0  0  0  0  0  0
   24.2815  -19.8313  -14.8619 C   0  0  1  0  0  0  0  0  0  0  0  0
   24.9684  -19.4790  -13.6009 C   0  0  0  0  0  0  0  0  0  0  0  0
   24.3863  -19.9970  -12.3493 C   0  0  0  0  0  0  0  0  0  0  0  0
   23.2997  -20.7923  -12.0976 C   0  0  0  0  0  0  0  0  0  0  0  0
   23.2053  -21.0588  -10.7764 N   0  0  0  0  0  0  0  0  0  0  0  0
   24.2288  -20.4352  -10.2003 C   0  0  0  0  0  0  0  0  0  0  0  0
   24.9455  -19.7988  -11.1058 N   0  0  0  0  0  0  0  0  0  0  0  0
   22.8858  -19.3083  -14.9399 C   0  0  0  0  0  0  0  0  0  0  0  0
   22.7036  -18.1387  -15.3466 O   0  0  0  0  0  0  0  0  0  0  0  0
   17.7409  -20.8992  -16.4750 C   0  0  0  0  0  0  0  0  0  0  0  0
   18.6355  -19.6512  -16.4686 C   0  0  1  0  0  0  0  0  0  0  0  0
   18.0792  -18.5994  -15.5521 C   0  0  0  0  0  0  0  0  0  0  0  0
   20.0057  -20.1106  -16.1048 C   0  0  0  0  0  0  0  0  0  0  0  0
   20.4599  -19.7044  -14.7350 C   0  0  2  0  0  0  0  0  0  0  0  0
   21.8080  -20.1439  -14.5534 N   0  0  0  0  0  0  0  0  0  0  0  0
   19.5670  -20.4180  -13.7606 C   0  0  0  0  0  0  0  0  0  0  0  0
   19.6405  -21.7805  -13.5424 O   0  0  0  0  0  0  0  0  0  0  0  0
   18.7129  -19.7647  -13.1092 O   0  0  0  0  0  0  0  0  0  0  0  0
  2  4  1  0
  2  1  1  6
  3  2  1  0
  4  5  1  6
  6  4  1  0
  6  7  2  0
  8  6  1  0
  9  8  1  0
  9 10  1  1
 11 10  1  0
 11 12  2  0
 13 12  1  0
 14 15  2  0
 14 13  1  0
 15 11  1  0
 16  9  1  0
 17 16  2  0
 19 18  1  1
 19 21  1  0
 20 19  1  0
 22 21  1  6
 22 23  1  0
 22 24  1  0
 23 16  1  0
 24 26  2  0
 24 25  1  0
M  END
$$$$
