VHL.pdb
     RDKit          3D

 26 26  0  0  1  0  0  0  0  0999 V2000
   16.7951  -15.4625  -18.7575 C   0  0  0  0  0  0  0  0  0  0  0  0
   16.6179  -13.9582  -18.6417 C   0  0  1  0  0  0  0  0  0  0  0  0
   15.2828  -13.6784  -17.9794 C   0  0  0  0  0  0  0  0  0  0  0  0
   17.6896  -13.4431  -17.7031 C   0  0  2  0  0  0  0  0  0  0  0  0
   17.6304  -14.1515  -16.4390 N   0  0  0  0  0  0  0  0  0  0  0  0
   17.5736  -12.0049  -17.4354 C   0  0  0  0  0  0  0  0  0  0  0  0
   17.7513  -11.1498  -18.3705 O   0  0  0  0  0  0  0  0  0  0  0  0
   17.2682  -11.4413  -16.1770 N   0  0  0  0  0  0  0  0  0  0  0  0
   17.3234   -9.9666  -15.9423 C   0  0  1  0  0  0  0  0  0  0  0  0
   16.0150   -9.6376  -15.3374 C   0  0  0  0  0  0  0  0  0  0  0  0
   14.9828   -9.0770  -16.2284 C   0  0  0  0  0  0  0  0  0  0  0  0
   15.0551   -8.4566  -17.4476 C   0  0  0  0  0  0  0  0  0  0  0  0
   13.8165   -8.1788  -17.9105 N   0  0  0  0  0  0  0  0  0  0  0  0
   12.9693   -8.6241  -16.9872 C   0  0  0  0  0  0  0  0  0  0  0  0
   13.6301   -9.1609  -15.9804 N   0  0  0  0  0  0  0  0  0  0  0  0
   18.4727   -9.7556  -15.0138 C   0  0  0  0  0  0  0  0  0  0  0  0
   18.6955  -10.6118  -14.1284 O   0  0  0  0  0  0  0  0  0  0  0  0
   22.8515  -10.5392  -13.6308 C   0  0  0  0  0  0  0  0  0  0  0  0
   22.8483   -9.6799  -14.9033 C   0  0  1  0  0  0  0  0  0  0  0  0
   23.7828  -10.2467  -15.9335 C   0  0  0  0  0  0  0  0  0  0  0  0
   21.4306   -9.5900  -15.3537 C   0  0  0  0  0  0  0  0  0  0  0  0
   20.6034   -8.5767  -14.6214 C   0  0  2  0  0  0  0  0  0  0  0  0
   19.2781   -8.5980  -15.1568 N   0  0  0  0  0  0  0  0  0  0  0  0
   21.2295   -7.2386  -14.8925 C   0  0  0  0  0  0  0  0  0  0  0  0
   22.0751   -6.6158  -13.9943 O   0  0  0  0  0  0  0  0  0  0  0  0
   20.9852   -6.6477  -15.9750 O   0  0  0  0  0  0  0  0  0  0  0  0
  2  4  1  0
  2  1  1  1
  3  2  1  0
  4  5  1  1
  6  4  1  0
  6  7  2  0
  8  6  1  0
  9  8  1  0
  9 10  1  1
 11 10  1  0
 11 12  2  0
 13 12  1  0
 14 15  2  0
 14 13  1  0
 15 11  1  0
 16  9  1  0
 17 16  2  0
 19 18  1  1
 19 21  1  0
 20 19  1  0
 22 21  1  6
 22 23  1  0
 22 24  1  0
 23 16  1  0
 24 26  2  0
 24 25  1  0
M  END
$$$$
