VHL.pdb
     RDKit          3D

 26 26  0  0  1  0  0  0  0  0999 V2000
   19.4883  -13.9286  -20.8259 C   0  0  0  0  0  0  0  0  0  0  0  0
   19.0626  -12.9059  -19.7864 C   0  0  1  0  0  0  0  0  0  0  0  0
   19.3016  -13.4899  -18.4076 C   0  0  0  0  0  0  0  0  0  0  0  0
   19.9809  -11.7087  -19.9209 C   0  0  2  0  0  0  0  0  0  0  0  0
   21.3657  -12.1255  -19.8128 N   0  0  0  0  0  0  0  0  0  0  0  0
   19.7267  -10.6753  -18.9104 C   0  0  0  0  0  0  0  0  0  0  0  0
   18.6115  -10.0485  -18.8831 O   0  0  0  0  0  0  0  0  0  0  0  0
   20.6432  -10.2835  -17.9099 N   0  0  0  0  0  0  0  0  0  0  0  0
   20.2718   -9.3040  -16.8442 C   0  0  1  0  0  0  0  0  0  0  0  0
   20.8862   -9.8445  -15.6127 C   0  0  0  0  0  0  0  0  0  0  0  0
   20.7264   -9.0550  -14.3779 C   0  0  0  0  0  0  0  0  0  0  0  0
   20.0068   -7.9248  -14.0926 C   0  0  0  0  0  0  0  0  0  0  0  0
   20.1202   -7.6105  -12.7834 N   0  0  0  0  0  0  0  0  0  0  0  0
   20.9063   -8.5398  -12.2478 C   0  0  0  0  0  0  0  0  0  0  0  0
   21.2803   -9.4082  -13.1667 N   0  0  0  0  0  0  0  0  0  0  0  0
   20.8631   -8.0038  -17.2772 C   0  0  0  0  0  0  0  0  0  0  0  0
   21.9629   -8.0125  -17.8746 O   0  0  0  0  0  0  0  0  0  0  0  0
   18.3032   -4.4616  -20.1526 C   0  0  0  0  0  0  0  0  0  0  0  0
   19.5439   -5.1847  -19.6089 C   0  0  1  0  0  0  0  0  0  0  0  0
   20.7536   -4.8706  -20.4419 C   0  0  0  0  0  0  0  0  0  0  0  0
   19.6737   -4.7913  -18.1774 C   0  0  0  0  0  0  0  0  0  0  0  0
   20.7196   -5.5452  -17.4125 C   0  0  2  0  0  0  0  0  0  0  0  0
   20.1687   -6.7990  -17.0025 N   0  0  0  0  0  0  0  0  0  0  0  0
   21.0384   -4.7196  -16.1989 C   0  0  0  0  0  0  0  0  0  0  0  0
   21.9955   -3.7229  -16.2062 O   0  0  0  0  0  0  0  0  0  0  0  0
   20.4191   -4.9306  -15.1254 O   0  0  0  0  0  0  0  0  0  0  0  0
  2  4  1  0
  2  1  1  6
  3  2  1  0
  4  5  1  1
  6  4  1  0
  6  7  2  0
  8  6  1  0
  9  8  1  0
  9 10  1  1
 11 10  1  0
 11 12  2  0
 13 12  1  0
 14 15  2  0
 14 13  1  0
 15 11  1  0
 16  9  1  0
 17 16  2  0
 19 18  1  6
 19 21  1  0
 20 19  1  0
 22 21  1  6
 22 23  1  0
 22 24  1  0
 23 16  1  0
 24 26  2  0
 24 25  1  0
M  END
$$$$
