VHL.pdb
     RDKit          3D

 26 26  0  0  1  0  0  0  0  0999 V2000
   19.7281  -14.0065  -17.1349 C   0  0  0  0  0  0  0  0  0  0  0  0
   20.4386  -14.7098  -18.2786 C   0  0  1  0  0  0  0  0  0  0  0  0
   19.8592  -16.1036  -18.4235 C   0  0  0  0  0  0  0  0  0  0  0  0
   20.1048  -13.9614  -19.5527 C   0  0  2  0  0  0  0  0  0  0  0  0
   20.7415  -14.5989  -20.6891 N   0  0  0  0  0  0  0  0  0  0  0  0
   20.5205  -12.5545  -19.5164 C   0  0  0  0  0  0  0  0  0  0  0  0
   21.7407  -12.2282  -19.7214 O   0  0  0  0  0  0  0  0  0  0  0  0
   19.6578  -11.4653  -19.2634 N   0  0  0  0  0  0  0  0  0  0  0  0
   20.1717  -10.0674  -19.1436 C   0  0  1  0  0  0  0  0  0  0  0  0
   19.1081   -9.2286  -19.7365 C   0  0  0  0  0  0  0  0  0  0  0  0
   19.2857   -7.7667  -19.6668 C   0  0  0  0  0  0  0  0  0  0  0  0
   18.6771   -6.7988  -18.9123 C   0  0  0  0  0  0  0  0  0  0  0  0
   19.2351   -5.5919  -19.1527 N   0  0  0  0  0  0  0  0  0  0  0  0
   20.1913   -5.8005  -20.0531 C   0  0  0  0  0  0  0  0  0  0  0  0
   20.2452   -7.0778  -20.3762 N   0  0  0  0  0  0  0  0  0  0  0  0
   20.3581   -9.8374  -17.6807 C   0  0  0  0  0  0  0  0  0  0  0  0
   19.5287  -10.3310  -16.8839 O   0  0  0  0  0  0  0  0  0  0  0  0
   24.8828  -10.7084  -15.1164 C   0  0  0  0  0  0  0  0  0  0  0  0
   23.3680  -10.5925  -15.3389 C   0  0  1  0  0  0  0  0  0  0  0  0
   22.6117  -11.2697  -14.2320 C   0  0  0  0  0  0  0  0  0  0  0  0
   23.0675   -9.1396  -15.4791 C   0  0  0  0  0  0  0  0  0  0  0  0
   21.6460   -8.8251  -15.8368 C   0  0  2  0  0  0  0  0  0  0  0  0
   21.4628   -9.0704  -17.2331 N   0  0  0  0  0  0  0  0  0  0  0  0
   21.4495   -7.3625  -15.5571 C   0  0  0  0  0  0  0  0  0  0  0  0
   21.3431   -6.4195  -16.5616 O   0  0  0  0  0  0  0  0  0  0  0  0
   21.3767   -6.9631  -14.3673 O   0  0  0  0  0  0  0  0  0  0  0  0
  2  4  1  0
  2  1  1  1
  3  2  1  0
  4  5  1  6
  6  4  1  0
  6  7  2  0
  8  6  1  0
  9  8  1  0
  9 10  1  1
 11 10  1  0
 11 12  2  0
 13 12  1  0
 14 15  2  0
 14 13  1  0
 15 11  1  0
 16  9  1  0
 17 16  2  0
 19 18  1  1
 19 21  1  0
 20 19  1  0
 22 21  1  6
 22 23  1  0
 22 24  1  0
 23 16  1  0
 24 26  2  0
 24 25  1  0
M  END
$$$$
