VHL.pdb
     RDKit          3D

 26 26  0  0  1  0  0  0  0  0999 V2000
   26.2349  -15.6625  -15.2789 C   0  0  0  0  0  0  0  0  0  0  0  0
   26.1719  -16.8377  -16.2394 C   0  0  1  0  0  0  0  0  0  0  0  0
   26.9464  -17.9948  -15.6388 C   0  0  0  0  0  0  0  0  0  0  0  0
   24.7251  -17.2776  -16.3284 C   0  0  2  0  0  0  0  0  0  0  0  0
   24.6214  -18.5052  -17.0935 N   0  0  0  0  0  0  0  0  0  0  0  0
   23.8569  -16.2696  -16.9480 C   0  0  0  0  0  0  0  0  0  0  0  0
   24.0043  -15.9471  -18.1775 O   0  0  0  0  0  0  0  0  0  0  0  0
   22.8173  -15.5827  -16.2832 N   0  0  0  0  0  0  0  0  0  0  0  0
   22.0951  -14.4415  -16.9226 C   0  0  1  0  0  0  0  0  0  0  0  0
   20.6643  -14.7957  -16.8066 C   0  0  0  0  0  0  0  0  0  0  0  0
   20.1093  -15.7006  -17.8297 C   0  0  0  0  0  0  0  0  0  0  0  0
   20.6878  -16.3902  -18.8623 C   0  0  0  0  0  0  0  0  0  0  0  0
   19.7695  -17.1551  -19.4927 N   0  0  0  0  0  0  0  0  0  0  0  0
   18.6192  -16.9484  -18.8581 C   0  0  0  0  0  0  0  0  0  0  0  0
   18.7891  -16.0928  -17.8694 N   0  0  0  0  0  0  0  0  0  0  0  0
   22.4716  -13.2374  -16.1251 C   0  0  0  0  0  0  0  0  0  0  0  0
   22.2928  -13.2564  -14.8864 O   0  0  0  0  0  0  0  0  0  0  0  0
   25.7278   -9.9519  -14.2002 C   0  0  0  0  0  0  0  0  0  0  0  0
   25.5080   -9.5542  -15.6669 C   0  0  1  0  0  0  0  0  0  0  0  0
   26.7881   -9.0727  -16.2878 C   0  0  0  0  0  0  0  0  0  0  0  0
   24.9124  -10.7397  -16.3456 C   0  0  0  0  0  0  0  0  0  0  0  0
   23.4674  -10.9828  -16.0290 C   0  0  2  0  0  0  0  0  0  0  0  0
   23.0186  -12.1092  -16.7862 N   0  0  0  0  0  0  0  0  0  0  0  0
   22.7218   -9.7559  -16.4703 C   0  0  0  0  0  0  0  0  0  0  0  0
   22.5404   -8.6588  -15.6499 O   0  0  0  0  0  0  0  0  0  0  0  0
   22.2369   -9.7084  -17.6293 O   0  0  0  0  0  0  0  0  0  0  0  0
  2  4  1  0
  2  1  1  1
  3  2  1  0
  4  5  1  6
  6  4  1  0
  6  7  2  0
  8  6  1  0
  9  8  1  0
  9 10  1  1
 11 10  1  0
 11 12  2  0
 13 12  1  0
 14 15  2  0
 14 13  1  0
 15 11  1  0
 16  9  1  0
 17 16  2  0
 19 18  1  1
 19 21  1  0
 20 19  1  0
 22 21  1  6
 22 23  1  0
 22 24  1  0
 23 16  1  0
 24 26  2  0
 24 25  1  0
M  END
$$$$
