VHL.pdb
     RDKit          3D

 26 26  0  0  1  0  0  0  0  0999 V2000
   29.0556  -20.8826  -15.8440 C   0  0  0  0  0  0  0  0  0  0  0  0
   28.4720  -20.4319  -14.5159 C   0  0  1  0  0  0  0  0  0  0  0  0
   28.7816  -18.9596  -14.3266 C   0  0  0  0  0  0  0  0  0  0  0  0
   26.9653  -20.5542  -14.6142 C   0  0  2  0  0  0  0  0  0  0  0  0
   26.4725  -19.7797  -15.7369 N   0  0  0  0  0  0  0  0  0  0  0  0
   26.2737  -20.1046  -13.4005 C   0  0  0  0  0  0  0  0  0  0  0  0
   26.0819  -18.8586  -13.1814 O   0  0  0  0  0  0  0  0  0  0  0  0
   25.7712  -20.9599  -12.3953 N   0  0  0  0  0  0  0  0  0  0  0  0
   25.0564  -20.4276  -11.1959 C   0  0  1  0  0  0  0  0  0  0  0  0
   23.6765  -20.9422  -11.3273 C   0  0  0  0  0  0  0  0  0  0  0  0
   22.8017  -20.2802  -12.3122 C   0  0  0  0  0  0  0  0  0  0  0  0
   23.0211  -19.2641  -13.2044 C   0  0  0  0  0  0  0  0  0  0  0  0
   21.9187  -19.0486  -13.9554 N   0  0  0  0  0  0  0  0  0  0  0  0
   21.0109  -19.9263  -13.5382 C   0  0  0  0  0  0  0  0  0  0  0  0
   21.5046  -20.6689  -12.5669 N   0  0  0  0  0  0  0  0  0  0  0  0
   25.7852  -20.9866  -10.0195 C   0  0  0  0  0  0  0  0  0  0  0  0
   26.2679  -22.1384  -10.1028 O   0  0  0  0  0  0  0  0  0  0  0  0
   28.4697  -18.1258   -6.0472 C   0  0  0  0  0  0  0  0  0  0  0  0
   28.1229  -19.2057   -7.0822 C   0  0  1  0  0  0  0  0  0  0  0  0
   29.2216  -20.2251   -7.1798 C   0  0  0  0  0  0  0  0  0  0  0  0
   26.8035  -19.7715   -6.6825 C   0  0  0  0  0  0  0  0  0  0  0  0
   26.2668  -20.8235   -7.6059 C   0  0  2  0  0  0  0  0  0  0  0  0
   25.9116  -20.2041   -8.8443 N   0  0  0  0  0  0  0  0  0  0  0  0
   25.0325  -21.3755   -6.9520 C   0  0  0  0  0  0  0  0  0  0  0  0
   25.0832  -22.2622   -5.8933 O   0  0  0  0  0  0  0  0  0  0  0  0
   23.8998  -21.0274   -7.3721 O   0  0  0  0  0  0  0  0  0  0  0  0
  2  4  1  0
  2  1  1  6
  3  2  1  0
  4  5  1  6
  6  4  1  0
  6  7  2  0
  8  6  1  0
  9  8  1  0
  9 10  1  6
 11 10  1  0
 11 12  2  0
 13 12  1  0
 14 15  2  0
 14 13  1  0
 15 11  1  0
 16  9  1  0
 17 16  2  0
 19 18  1  1
 19 21  1  0
 20 19  1  0
 22 21  1  1
 22 23  1  0
 22 24  1  0
 23 16  1  0
 24 26  2  0
 24 25  1  0
M  END
$$$$
