VHL.pdb
     RDKit          3D

 26 26  0  0  1  0  0  0  0  0999 V2000
   24.7623  -13.2499  -15.9277 C   0  0  0  0  0  0  0  0  0  0  0  0
   23.9955  -11.9526  -16.1195 C   0  0  1  0  0  0  0  0  0  0  0  0
   24.2487  -11.4450  -17.5258 C   0  0  0  0  0  0  0  0  0  0  0  0
   22.5187  -12.2775  -16.0297 C   0  0  2  0  0  0  0  0  0  0  0  0
   22.1519  -13.2291  -17.0607 N   0  0  0  0  0  0  0  0  0  0  0  0
   21.6624  -11.0934  -16.1647 C   0  0  0  0  0  0  0  0  0  0  0  0
   21.1860  -10.7580  -17.3040 O   0  0  0  0  0  0  0  0  0  0  0  0
   21.2922  -10.2407  -15.1014 N   0  0  0  0  0  0  0  0  0  0  0  0
   20.4748   -9.0107  -15.3288 C   0  0  1  0  0  0  0  0  0  0  0  0
   19.2529   -9.2228  -14.5237 C   0  0  0  0  0  0  0  0  0  0  0  0
   18.1254   -9.9103  -15.1790 C   0  0  0  0  0  0  0  0  0  0  0  0
   17.9781  -10.4573  -16.4263 C   0  0  0  0  0  0  0  0  0  0  0  0
   16.7685  -11.0480  -16.5433 N   0  0  0  0  0  0  0  0  0  0  0  0
   16.1588  -10.8745  -15.3743 C   0  0  0  0  0  0  0  0  0  0  0  0
   16.9371  -10.2051  -14.5468 N   0  0  0  0  0  0  0  0  0  0  0  0
   21.3159   -7.8795  -14.8383 C   0  0  0  0  0  0  0  0  0  0  0  0
   22.0967   -8.0815  -13.8812 O   0  0  0  0  0  0  0  0  0  0  0  0
   23.9794   -3.3817  -15.7003 C   0  0  0  0  0  0  0  0  0  0  0  0
   22.4842   -3.0971  -15.4976 C   0  0  1  0  0  0  0  0  0  0  0  0
   22.0644   -1.8739  -16.2613 C   0  0  0  0  0  0  0  0  0  0  0  0
   21.7570   -4.3373  -15.8901 C   0  0  0  0  0  0  0  0  0  0  0  0
   21.9695   -5.5051  -14.9744 C   0  0  2  0  0  0  0  0  0  0  0  0
   21.2099   -6.6123  -15.4646 N   0  0  0  0  0  0  0  0  0  0  0  0
   21.4415   -5.0941  -13.6296 C   0  0  0  0  0  0  0  0  0  0  0  0
   22.2505   -4.5680  -12.6404 O   0  0  0  0  0  0  0  0  0  0  0  0
   20.2171   -5.2272  -13.3772 O   0  0  0  0  0  0  0  0  0  0  0  0
  2  4  1  0
  2  1  1  6
  3  2  1  0
  4  5  1  6
  6  4  1  0
  6  7  2  0
  8  6  1  0
  9  8  1  0
  9 10  1  1
 11 10  1  0
 11 12  2  0
 13 12  1  0
 14 15  2  0
 14 13  1  0
 15 11  1  0
 16  9  1  0
 17 16  2  0
 19 18  1  6
 19 21  1  0
 20 19  1  0
 22 21  1  6
 22 23  1  0
 22 24  1  0
 23 16  1  0
 24 26  2  0
 24 25  1  0
M  END
$$$$
