NKF.pdb
     RDKit          3D

 29 29  0  0  1  0  0  0  0  0999 V2000
   11.8762  -19.2343   17.8725 N   0  0  0  0  0  0  0  0  0  0  0  0
   10.5948  -18.9321   18.3844 C   0  0  0  0  0  0  0  0  0  0  0  0
    9.7418  -19.8488   18.4966 O   0  0  0  0  0  0  0  0  0  0  0  0
   10.2071  -17.5627   18.7974 C   0  0  0  0  0  0  0  0  0  0  0  0
    9.9769  -17.6076   20.2887 C   0  0  2  0  0  0  0  0  0  0  0  0
    8.7288  -18.3043   20.5241 N   0  0  0  0  0  0  0  0  0  0  0  0
   10.0060  -16.3004   20.9513 C   0  0  0  0  0  0  0  0  0  0  0  0
   11.0752  -15.6728   21.2052 O   0  0  0  0  0  0  0  0  0  0  0  0
    8.8051  -15.6746   21.3434 N   0  0  0  0  0  0  0  0  0  0  0  0
    8.8189  -14.3677   21.9994 C   0  0  1  0  0  0  0  0  0  0  0  0
    7.6004  -13.5439   21.6442 C   0  0  0  0  0  0  0  0  0  0  0  0
    7.1987  -13.7623   20.2038 C   0  0  0  0  0  0  0  0  0  0  0  0
    8.1776  -13.1283   19.2489 C   0  0  0  0  0  0  0  0  0  0  0  0
    7.7269  -13.2419   17.8093 C   0  0  0  0  0  0  0  0  0  0  0  0
    8.7176  -12.5383   16.9926 N   0  0  0  0  0  0  0  0  0  0  0  0
    8.8697  -14.4965   23.4743 C   0  0  0  0  0  0  0  0  0  0  0  0
    8.6933  -13.4577   24.1518 O   0  0  0  0  0  0  0  0  0  0  0  0
    9.1004  -15.7210   24.1252 N   0  0  0  0  0  0  0  0  0  0  0  0
    9.1286  -15.8296   25.5937 C   0  0  1  0  0  0  0  0  0  0  0  0
    7.7089  -15.7922   26.0451 C   0  0  0  0  0  0  0  0  0  0  0  0
    7.2844  -14.4323   26.3617 C   0  0  0  0  0  0  0  0  0  0  0  0
    5.9485  -14.1053   26.1730 C   0  0  0  0  0  0  0  0  0  0  0  0
    5.4671  -12.8596   26.4645 C   0  0  0  0  0  0  0  0  0  0  0  0
    6.3089  -11.9062   26.9530 C   0  0  0  0  0  0  0  0  0  0  0  0
    7.6308  -12.1859   27.1521 C   0  0  0  0  0  0  0  0  0  0  0  0
    8.1203  -13.4606   26.8531 C   0  0  0  0  0  0  0  0  0  0  0  0
    9.7869  -17.0627   26.0089 C   0  0  0  0  0  0  0  0  0  0  0  0
    9.8996  -17.3027   27.2574 O   0  0  0  0  0  0  0  0  0  0  0  0
   10.3137  -18.0254   25.1794 O   0  0  0  0  0  0  0  0  0  0  0  0
  1  2  1  0
  2  4  1  0
  3  2  2  0
  4  5  1  0
  5  6  1  6
  7  8  2  0
  7  5  1  0
  9  7  1  0
 10  9  1  0
 10 11  1  1
 11 12  1  0
 12 13  1  0
 13 14  1  0
 14 15  1  0
 16 18  1  0
 16 10  1  0
 17 16  2  0
 19 27  1  0
 19 18  1  0
 19 20  1  6
 21 22  2  0
 21 20  1  0
 23 22  1  0
 24 23  2  0
 25 24  1  0
 25 26  2  0
 26 21  1  0
 27 29  1  0
 28 27  2  0
M  END
$$$$
