NKF.pdb
     RDKit          3D

 29 29  0  0  1  0  0  0  0  0999 V2000
    7.3566  -12.3393   17.0052 N   0  0  0  0  0  0  0  0  0  0  0  0
    8.1726  -12.9037   18.0107 C   0  0  0  0  0  0  0  0  0  0  0  0
    9.4198  -12.9269   17.8542 O   0  0  0  0  0  0  0  0  0  0  0  0
    7.6141  -13.4794   19.2567 C   0  0  0  0  0  0  0  0  0  0  0  0
    8.0162  -14.9343   19.2813 C   0  0  2  0  0  0  0  0  0  0  0  0
    7.4018  -15.5835   18.1413 N   0  0  0  0  0  0  0  0  0  0  0  0
    7.7135  -15.6309   20.5351 C   0  0  0  0  0  0  0  0  0  0  0  0
    6.5576  -15.6681   21.0488 O   0  0  0  0  0  0  0  0  0  0  0  0
    8.7324  -16.3059   21.2378 N   0  0  0  0  0  0  0  0  0  0  0  0
    8.4298  -17.0743   22.4446 C   0  0  1  0  0  0  0  0  0  0  0  0
    8.8776  -18.5147   22.3249 C   0  0  0  0  0  0  0  0  0  0  0  0
    9.1546  -18.8790   20.8848 C   0  0  0  0  0  0  0  0  0  0  0  0
    9.6651  -20.2912   20.7543 C   0  0  0  0  0  0  0  0  0  0  0  0
    9.9719  -20.6578   19.3191 C   0  0  0  0  0  0  0  0  0  0  0  0
   10.5389  -22.0077   19.3326 N   0  0  0  0  0  0  0  0  0  0  0  0
    9.0797  -16.4914   23.6415 C   0  0  0  0  0  0  0  0  0  0  0  0
   10.2849  -16.1644   23.5436 O   0  0  0  0  0  0  0  0  0  0  0  0
    8.4015  -16.2935   24.8569 N   0  0  0  0  0  0  0  0  0  0  0  0
    9.1125  -15.9403   26.0974 C   0  0  1  0  0  0  0  0  0  0  0  0
    8.1011  -15.3208   26.9996 C   0  0  0  0  0  0  0  0  0  0  0  0
    7.7475  -13.9744   26.5614 C   0  0  0  0  0  0  0  0  0  0  0  0
    6.5062  -13.4736   26.9293 C   0  0  0  0  0  0  0  0  0  0  0  0
    6.1076  -12.2147   26.5762 C   0  0  0  0  0  0  0  0  0  0  0  0
    6.9398  -11.4216   25.8450 C   0  0  0  0  0  0  0  0  0  0  0  0
    8.1693  -11.8761   25.4612 C   0  0  0  0  0  0  0  0  0  0  0  0
    8.5742  -13.1639   25.8238 C   0  0  0  0  0  0  0  0  0  0  0  0
    9.7136  -17.1224   26.7037 C   0  0  0  0  0  0  0  0  0  0  0  0
   10.4150  -16.9756   27.7600 O   0  0  0  0  0  0  0  0  0  0  0  0
    9.6038  -18.4168   26.2511 O   0  0  0  0  0  0  0  0  0  0  0  0
  1  2  1  0
  2  4  1  0
  3  2  2  0
  4  5  1  0
  5  6  1  6
  7  8  2  0
  7  5  1  0
  9  7  1  0
 10  9  1  0
 10 11  1  6
 11 12  1  0
 12 13  1  0
 13 14  1  0
 14 15  1  0
 16 18  1  0
 16 10  1  0
 17 16  2  0
 19 27  1  0
 19 18  1  0
 19 20  1  1
 21 22  2  0
 21 20  1  0
 23 22  1  0
 24 23  2  0
 25 24  1  0
 25 26  2  0
 26 21  1  0
 27 29  1  0
 28 27  2  0
M  END
$$$$
