NKF.pdb
     RDKit          3D

 29 29  0  0  1  0  0  0  0  0999 V2000
    7.7350  -11.9685   17.8362 N   0  0  0  0  0  0  0  0  0  0  0  0
    7.4568  -13.3431   18.0053 C   0  0  0  0  0  0  0  0  0  0  0  0
    7.7075  -14.1444   17.0695 O   0  0  0  0  0  0  0  0  0  0  0  0
    6.8721  -13.8875   19.2533 C   0  0  0  0  0  0  0  0  0  0  0  0
    8.0279  -14.3348   20.1154 C   0  0  2  0  0  0  0  0  0  0  0  0
    8.9048  -15.1456   19.2957 N   0  0  0  0  0  0  0  0  0  0  0  0
    7.6392  -15.0259   21.3483 C   0  0  0  0  0  0  0  0  0  0  0  0
    6.9392  -14.4891   22.2557 O   0  0  0  0  0  0  0  0  0  0  0  0
    8.0449  -16.3567   21.5762 N   0  0  0  0  0  0  0  0  0  0  0  0
    7.6216  -17.0755   22.7772 C   0  0  1  0  0  0  0  0  0  0  0  0
    7.8075  -18.5705   22.6364 C   0  0  0  0  0  0  0  0  0  0  0  0
    7.1865  -19.3065   23.8010 C   0  0  0  0  0  0  0  0  0  0  0  0
    7.2896  -20.8012   23.6359 C   0  0  0  0  0  0  0  0  0  0  0  0
    6.5684  -21.5489   24.7356 C   0  0  0  0  0  0  0  0  0  0  0  0
    6.5860  -22.9673   24.3732 N   0  0  0  0  0  0  0  0  0  0  0  0
    8.3739  -16.6319   23.9738 C   0  0  0  0  0  0  0  0  0  0  0  0
    9.6248  -16.6586   23.9131 O   0  0  0  0  0  0  0  0  0  0  0  0
    7.7435  -16.1874   25.1492 N   0  0  0  0  0  0  0  0  0  0  0  0
    8.5010  -15.9034   26.3799 C   0  0  1  0  0  0  0  0  0  0  0  0
    7.7021  -14.9039   27.1438 C   0  0  0  0  0  0  0  0  0  0  0  0
    7.7278  -13.5945   26.4999 C   0  0  0  0  0  0  0  0  0  0  0  0
    6.5468  -12.8663   26.4547 C   0  0  0  0  0  0  0  0  0  0  0  0
    6.4917  -11.6239   25.8876 C   0  0  0  0  0  0  0  0  0  0  0  0
    7.6168  -11.0751   25.3498 C   0  0  0  0  0  0  0  0  0  0  0  0
    8.7992  -11.7584   25.3720 C   0  0  0  0  0  0  0  0  0  0  0  0
    8.8525  -13.0288   25.9527 C   0  0  0  0  0  0  0  0  0  0  0  0
    8.7080  -17.1224   27.1530 C   0  0  0  0  0  0  0  0  0  0  0  0
    9.3709  -17.0485   28.2413 O   0  0  0  0  0  0  0  0  0  0  0  0
    8.2529  -18.3799   26.8308 O   0  0  0  0  0  0  0  0  0  0  0  0
  1  2  1  0
  2  4  1  0
  3  2  2  0
  4  5  1  0
  5  6  1  6
  7  8  2  0
  7  5  1  0
  9  7  1  0
 10  9  1  0
 10 11  1  6
 11 12  1  0
 12 13  1  0
 13 14  1  0
 14 15  1  0
 16 18  1  0
 16 10  1  0
 17 16  2  0
 19 27  1  0
 19 18  1  0
 19 20  1  1
 21 22  2  0
 21 20  1  0
 23 22  1  0
 24 23  2  0
 25 24  1  0
 25 26  2  0
 26 21  1  0
 27 29  1  0
 28 27  2  0
M  END
$$$$
