NKF.pdb
     RDKit          3D

 29 29  0  0  1  0  0  0  0  0999 V2000
    9.3822  -13.5263   15.7694 N   0  0  0  0  0  0  0  0  0  0  0  0
    7.9922  -13.7274   15.9205 C   0  0  0  0  0  0  0  0  0  0  0  0
    7.2099  -13.3452   15.0135 O   0  0  0  0  0  0  0  0  0  0  0  0
    7.4091  -14.3755   17.1188 C   0  0  0  0  0  0  0  0  0  0  0  0
    8.5546  -14.6586   18.0603 C   0  0  2  0  0  0  0  0  0  0  0  0
    9.5661  -15.3866   17.3218 N   0  0  0  0  0  0  0  0  0  0  0  0
    8.1743  -15.3522   19.2944 C   0  0  0  0  0  0  0  0  0  0  0  0
    7.2709  -14.9356   20.0765 O   0  0  0  0  0  0  0  0  0  0  0  0
    8.8229  -16.5470   19.6679 N   0  0  0  0  0  0  0  0  0  0  0  0
    8.4885  -17.2227   20.9208 C   0  0  1  0  0  0  0  0  0  0  0  0
    9.2419  -18.5254   21.0793 C   0  0  0  0  0  0  0  0  0  0  0  0
    8.8138  -19.2507   22.3340 C   0  0  0  0  0  0  0  0  0  0  0  0
    9.0368  -20.7373   22.2232 C   0  0  0  0  0  0  0  0  0  0  0  0
    8.6340  -21.4711   23.4832 C   0  0  0  0  0  0  0  0  0  0  0  0
    9.0343  -22.8691   23.3123 N   0  0  0  0  0  0  0  0  0  0  0  0
    8.7899  -16.3743   22.0972 C   0  0  0  0  0  0  0  0  0  0  0  0
    9.9054  -15.8051   22.1292 O   0  0  0  0  0  0  0  0  0  0  0  0
    7.8827  -16.1874   23.1549 N   0  0  0  0  0  0  0  0  0  0  0  0
    8.1138  -15.1885   24.2122 C   0  0  1  0  0  0  0  0  0  0  0  0
    6.8581  -14.3934   24.3207 C   0  0  0  0  0  0  0  0  0  0  0  0
    6.9570  -13.3780   25.3642 C   0  0  0  0  0  0  0  0  0  0  0  0
    7.0059  -13.8025   26.6851 C   0  0  0  0  0  0  0  0  0  0  0  0
    7.1187  -12.9161   27.7194 C   0  0  0  0  0  0  0  0  0  0  0  0
    7.1856  -11.5801   27.4613 C   0  0  0  0  0  0  0  0  0  0  0  0
    7.1395  -11.1200   26.1761 C   0  0  0  0  0  0  0  0  0  0  0  0
    7.0241  -12.0287   25.1204 C   0  0  0  0  0  0  0  0  0  0  0  0
    8.4430  -15.8386   25.4753 C   0  0  0  0  0  0  0  0  0  0  0  0
    7.7994  -16.8903   25.8051 O   0  0  0  0  0  0  0  0  0  0  0  0
    9.3999  -15.4330   26.3764 O   0  0  0  0  0  0  0  0  0  0  0  0
  1  2  1  0
  2  4  1  0
  3  2  2  0
  4  5  1  0
  5  6  1  6
  7  8  2  0
  7  5  1  0
  9  7  1  0
 10  9  1  0
 10 11  1  1
 11 12  1  0
 12 13  1  0
 13 14  1  0
 14 15  1  0
 16 18  1  0
 16 10  1  0
 17 16  2  0
 19 27  1  0
 19 18  1  0
 19 20  1  1
 21 22  2  0
 21 20  1  0
 23 22  1  0
 24 23  2  0
 25 24  1  0
 25 26  2  0
 26 21  1  0
 27 29  1  0
 28 27  2  0
M  END
$$$$
