NKF.pdb
     RDKit          3D

 29 29  0  0  1  0  0  0  0  0999 V2000
    7.6089  -12.7700   17.1669 N   0  0  0  0  0  0  0  0  0  0  0  0
    8.3040  -13.2845   18.2838 C   0  0  0  0  0  0  0  0  0  0  0  0
    9.5596  -13.3424   18.2577 O   0  0  0  0  0  0  0  0  0  0  0  0
    7.6075  -13.7677   19.4992 C   0  0  0  0  0  0  0  0  0  0  0  0
    8.4935  -14.8222   20.1174 C   0  0  2  0  0  0  0  0  0  0  0  0
    8.7379  -15.8392   19.1152 N   0  0  0  0  0  0  0  0  0  0  0  0
    7.9810  -15.3966   21.3648 C   0  0  0  0  0  0  0  0  0  0  0  0
    7.5109  -14.6992   22.3103 O   0  0  0  0  0  0  0  0  0  0  0  0
    7.9945  -16.7923   21.5637 N   0  0  0  0  0  0  0  0  0  0  0  0
    7.5677  -17.3735   22.8359 C   0  0  1  0  0  0  0  0  0  0  0  0
    7.6808  -18.8824   22.8344 C   0  0  0  0  0  0  0  0  0  0  0  0
    7.1034  -19.4711   24.1008 C   0  0  0  0  0  0  0  0  0  0  0  0
    6.0532  -20.5109   23.8048 C   0  0  0  0  0  0  0  0  0  0  0  0
    5.3914  -21.0291   25.0626 C   0  0  0  0  0  0  0  0  0  0  0  0
    4.4824  -22.1032   24.6581 N   0  0  0  0  0  0  0  0  0  0  0  0
    8.3686  -16.8561   23.9697 C   0  0  0  0  0  0  0  0  0  0  0  0
    9.6041  -16.7393   23.7992 O   0  0  0  0  0  0  0  0  0  0  0  0
    7.7991  -16.4956   25.2035 N   0  0  0  0  0  0  0  0  0  0  0  0
    8.5988  -15.8955   26.2849 C   0  0  1  0  0  0  0  0  0  0  0  0
    7.6355  -15.1959   27.1812 C   0  0  0  0  0  0  0  0  0  0  0  0
    7.1780  -13.9392   26.5971 C   0  0  0  0  0  0  0  0  0  0  0  0
    8.1294  -12.9725   26.3016 C   0  0  0  0  0  0  0  0  0  0  0  0
    7.7852  -11.7773   25.7348 C   0  0  0  0  0  0  0  0  0  0  0  0
    6.4793  -11.5156   25.4479 C   0  0  0  0  0  0  0  0  0  0  0  0
    5.5113  -12.4389   25.7238 C   0  0  0  0  0  0  0  0  0  0  0  0
    5.8663  -13.6603   26.3034 C   0  0  0  0  0  0  0  0  0  0  0  0
    9.3476  -16.9195   27.0041 C   0  0  0  0  0  0  0  0  0  0  0  0
    9.0151  -18.1416   26.8459 O   0  0  0  0  0  0  0  0  0  0  0  0
   10.4052  -16.7081   27.8580 O   0  0  0  0  0  0  0  0  0  0  0  0
  1  2  1  0
  2  4  1  0
  3  2  2  0
  4  5  1  0
  5  6  1  6
  7  8  2  0
  7  5  1  0
  9  7  1  0
 10  9  1  0
 10 11  1  6
 11 12  1  0
 12 13  1  0
 13 14  1  0
 14 15  1  0
 16 18  1  0
 16 10  1  0
 17 16  2  0
 19 27  1  0
 19 18  1  0
 19 20  1  1
 21 22  2  0
 21 20  1  0
 23 22  1  0
 24 23  2  0
 25 24  1  0
 25 26  2  0
 26 21  1  0
 27 29  1  0
 28 27  2  0
M  END
$$$$
