NKF.pdb
     RDKit          3D

 29 29  0  0  1  0  0  0  0  0999 V2000
    9.2256  -21.9260   19.2192 N   0  0  0  0  0  0  0  0  0  0  0  0
    8.5786  -20.6746   19.3228 C   0  0  0  0  0  0  0  0  0  0  0  0
    7.3298  -20.6114   19.1919 O   0  0  0  0  0  0  0  0  0  0  0  0
    9.3186  -19.4166   19.5796 C   0  0  0  0  0  0  0  0  0  0  0  0
    8.9799  -18.9934   20.9886 C   0  0  2  0  0  0  0  0  0  0  0  0
    7.5367  -18.9792   21.1126 N   0  0  0  0  0  0  0  0  0  0  0  0
    9.5764  -17.7206   21.4045 C   0  0  0  0  0  0  0  0  0  0  0  0
   10.8249  -17.5189   21.4486 O   0  0  0  0  0  0  0  0  0  0  0  0
    8.7544  -16.6400   21.7840 N   0  0  0  0  0  0  0  0  0  0  0  0
    9.3356  -15.3869   22.2638 C   0  0  1  0  0  0  0  0  0  0  0  0
    8.6528  -14.1791   21.6598 C   0  0  0  0  0  0  0  0  0  0  0  0
    8.4302  -14.3666   20.1770 C   0  0  0  0  0  0  0  0  0  0  0  0
    7.8501  -13.1304   19.5388 C   0  0  0  0  0  0  0  0  0  0  0  0
    7.5536  -13.3314   18.0690 C   0  0  0  0  0  0  0  0  0  0  0  0
    6.9844  -12.0779   17.5706 N   0  0  0  0  0  0  0  0  0  0  0  0
    9.2476  -15.2722   23.7381 C   0  0  0  0  0  0  0  0  0  0  0  0
    9.6543  -14.2088   24.2607 O   0  0  0  0  0  0  0  0  0  0  0  0
    8.7297  -16.2943   24.5527 N   0  0  0  0  0  0  0  0  0  0  0  0
    8.8014  -16.2309   26.0224 C   0  0  1  0  0  0  0  0  0  0  0  0
    7.4588  -15.7840   26.4897 C   0  0  0  0  0  0  0  0  0  0  0  0
    7.3450  -14.3291   26.4755 C   0  0  0  0  0  0  0  0  0  0  0  0
    6.1770  -13.7709   25.9741 C   0  0  0  0  0  0  0  0  0  0  0  0
    5.9840  -12.4181   25.9445 C   0  0  0  0  0  0  0  0  0  0  0  0
    6.9543  -11.5857   26.4156 C   0  0  0  0  0  0  0  0  0  0  0  0
    8.1192  -12.0936   26.9161 C   0  0  0  0  0  0  0  0  0  0  0  0
    8.3138  -13.4774   26.9452 C   0  0  0  0  0  0  0  0  0  0  0  0
    9.1533  -17.5316   26.5799 C   0  0  0  0  0  0  0  0  0  0  0  0
    9.1939  -18.5392   25.7974 O   0  0  0  0  0  0  0  0  0  0  0  0
    9.4570  -17.8006   27.8943 O   0  0  0  0  0  0  0  0  0  0  0  0
  1  2  1  0
  2  4  1  0
  3  2  2  0
  4  5  1  0
  5  6  1  6
  7  8  2  0
  7  5  1  0
  9  7  1  0
 10  9  1  0
 10 11  1  6
 11 12  1  0
 12 13  1  0
 13 14  1  0
 14 15  1  0
 16 18  1  0
 16 10  1  0
 17 16  2  0
 19 27  1  0
 19 18  1  0
 19 20  1  1
 21 22  2  0
 21 20  1  0
 23 22  1  0
 24 23  2  0
 25 24  1  0
 25 26  2  0
 26 21  1  0
 27 29  1  0
 28 27  2  0
M  END
$$$$
