NKF.pdb
     RDKit          3D

 29 29  0  0  1  0  0  0  0  0999 V2000
    4.4467  -19.0085   18.8712 N   0  0  0  0  0  0  0  0  0  0  0  0
    5.6895  -19.4773   19.3519 C   0  0  0  0  0  0  0  0  0  0  0  0
    6.7338  -19.2515   18.6894 O   0  0  0  0  0  0  0  0  0  0  0  0
    5.8162  -20.2359   20.6186 C   0  0  0  0  0  0  0  0  0  0  0  0
    6.1233  -19.2280   21.6997 C   0  0  2  0  0  0  0  0  0  0  0  0
    4.9203  -18.4586   21.9435 N   0  0  0  0  0  0  0  0  0  0  0  0
    7.2760  -18.3660   21.4220 C   0  0  0  0  0  0  0  0  0  0  0  0
    8.3809  -18.8013   20.9850 O   0  0  0  0  0  0  0  0  0  0  0  0
    7.1934  -16.9756   21.6397 N   0  0  0  0  0  0  0  0  0  0  0  0
    8.4002  -16.1518   21.6983 C   0  0  1  0  0  0  0  0  0  0  0  0
    8.3145  -14.9568   20.7742 C   0  0  0  0  0  0  0  0  0  0  0  0
    9.6616  -14.2884   20.6252 C   0  0  0  0  0  0  0  0  0  0  0  0
    9.8259  -13.6603   19.2649 C   0  0  0  0  0  0  0  0  0  0  0  0
   11.2669  -13.6625   18.8045 C   0  0  0  0  0  0  0  0  0  0  0  0
   11.9925  -12.7222   19.6607 N   0  0  0  0  0  0  0  0  0  0  0  0
    8.6553  -15.6522   23.0694 C   0  0  0  0  0  0  0  0  0  0  0  0
    8.3309  -14.4692   23.3234 O   0  0  0  0  0  0  0  0  0  0  0  0
    9.2337  -16.4464   24.0749 N   0  0  0  0  0  0  0  0  0  0  0  0
    9.3828  -15.9649   25.4588 C   0  0  1  0  0  0  0  0  0  0  0  0
    8.0033  -15.7464   25.9785 C   0  0  0  0  0  0  0  0  0  0  0  0
    7.6988  -14.3247   26.1049 C   0  0  0  0  0  0  0  0  0  0  0  0
    6.3891  -13.9166   25.8924 C   0  0  0  0  0  0  0  0  0  0  0  0
    6.0181  -12.6064   26.0111 C   0  0  0  0  0  0  0  0  0  0  0  0
    6.9471  -11.6678   26.3457 C   0  0  0  0  0  0  0  0  0  0  0  0
    8.2471  -12.0265   26.5620 C   0  0  0  0  0  0  0  0  0  0  0  0
    8.6236  -13.3671   26.4400 C   0  0  0  0  0  0  0  0  0  0  0  0
   10.1093  -16.9356   26.2690 C   0  0  0  0  0  0  0  0  0  0  0  0
   10.0812  -18.1631   25.9202 O   0  0  0  0  0  0  0  0  0  0  0  0
   10.8447  -16.6667   27.3999 O   0  0  0  0  0  0  0  0  0  0  0  0
  1  2  1  0
  2  4  1  0
  3  2  2  0
  4  5  1  0
  5  6  1  6
  7  8  2  0
  7  5  1  0
  9  7  1  0
 10  9  1  0
 10 11  1  6
 11 12  1  0
 12 13  1  0
 13 14  1  0
 14 15  1  0
 16 18  1  0
 16 10  1  0
 17 16  2  0
 19 27  1  0
 19 18  1  0
 19 20  1  1
 21 22  2  0
 21 20  1  0
 23 22  1  0
 24 23  2  0
 25 24  1  0
 25 26  2  0
 26 21  1  0
 27 29  1  0
 28 27  2  0
M  END
$$$$
