NKF.pdb
     RDKit          3D

 29 29  0  0  1  0  0  0  0  0999 V2000
    7.6532  -14.6606   13.5673 N   0  0  0  0  0  0  0  0  0  0  0  0
    8.2878  -15.8047   14.1000 C   0  0  0  0  0  0  0  0  0  0  0  0
    9.2244  -16.3467   13.4600 O   0  0  0  0  0  0  0  0  0  0  0  0
    7.8898  -16.4026   15.3962 C   0  0  0  0  0  0  0  0  0  0  0  0
    9.1598  -16.6170   16.1838 C   0  0  2  0  0  0  0  0  0  0  0  0
    9.9243  -17.6526   15.5192 N   0  0  0  0  0  0  0  0  0  0  0  0
    8.9550  -16.9159   17.6042 C   0  0  0  0  0  0  0  0  0  0  0  0
    8.2932  -16.1702   18.3836 O   0  0  0  0  0  0  0  0  0  0  0  0
    9.5065  -18.0822   18.1726 N   0  0  0  0  0  0  0  0  0  0  0  0
    9.3301  -18.3808   19.5932 C   0  0  1  0  0  0  0  0  0  0  0  0
    9.8661  -19.7490   19.9542 C   0  0  0  0  0  0  0  0  0  0  0  0
    9.5285  -20.1041   21.3837 C   0  0  0  0  0  0  0  0  0  0  0  0
   10.0870  -21.4493   21.7716 C   0  0  0  0  0  0  0  0  0  0  0  0
    9.7844  -21.8001   23.2117 C   0  0  0  0  0  0  0  0  0  0  0  0
   10.5176  -23.0301   23.5171 N   0  0  0  0  0  0  0  0  0  0  0  0
   10.0102  -17.3824   20.4506 C   0  0  0  0  0  0  0  0  0  0  0  0
   11.2117  -17.1295   20.2021 O   0  0  0  0  0  0  0  0  0  0  0  0
    9.3642  -16.7202   21.5092 N   0  0  0  0  0  0  0  0  0  0  0  0
   10.0680  -15.7529   22.3683 C   0  0  1  0  0  0  0  0  0  0  0  0
    9.0617  -14.7235   22.7539 C   0  0  0  0  0  0  0  0  0  0  0  0
    8.4792  -14.0798   21.5808 C   0  0  0  0  0  0  0  0  0  0  0  0
    7.1481  -14.3416   21.2865 C   0  0  0  0  0  0  0  0  0  0  0  0
    6.5228  -13.7630   20.2175 C   0  0  0  0  0  0  0  0  0  0  0  0
    7.2119  -12.9063   19.4130 C   0  0  0  0  0  0  0  0  0  0  0  0
    8.5237  -12.6225   19.6663 C   0  0  0  0  0  0  0  0  0  0  0  0
    9.1605  -13.2156   20.7601 C   0  0  0  0  0  0  0  0  0  0  0  0
   10.6289  -16.4143   23.5406 C   0  0  0  0  0  0  0  0  0  0  0  0
   11.4237  -15.7546   24.2904 O   0  0  0  0  0  0  0  0  0  0  0  0
   10.3877  -17.7081   23.9408 O   0  0  0  0  0  0  0  0  0  0  0  0
  1  2  1  0
  2  4  1  0
  3  2  2  0
  4  5  1  0
  5  6  1  6
  7  8  2  0
  7  5  1  0
  9  7  1  0
 10  9  1  0
 10 11  1  6
 11 12  1  0
 12 13  1  0
 13 14  1  0
 14 15  1  0
 16 18  1  0
 16 10  1  0
 17 16  2  0
 19 27  1  0
 19 18  1  0
 19 20  1  1
 21 22  2  0
 21 20  1  0
 23 22  1  0
 24 23  2  0
 25 24  1  0
 25 26  2  0
 26 21  1  0
 27 29  1  0
 28 27  2  0
M  END
$$$$
