NKF.pdb
     RDKit          3D

 29 29  0  0  1  0  0  0  0  0999 V2000
    5.3909  -21.9195   24.5563 N   0  0  0  0  0  0  0  0  0  0  0  0
    5.4191  -20.6722   23.8938 C   0  0  0  0  0  0  0  0  0  0  0  0
    4.4553  -20.3413   23.1574 O   0  0  0  0  0  0  0  0  0  0  0  0
    6.5517  -19.7263   24.0291 C   0  0  0  0  0  0  0  0  0  0  0  0
    6.6538  -18.9808   22.7203 C   0  0  2  0  0  0  0  0  0  0  0  0
    6.8080  -19.9594   21.6634 N   0  0  0  0  0  0  0  0  0  0  0  0
    7.7060  -17.9611   22.6782 C   0  0  0  0  0  0  0  0  0  0  0  0
    8.9403  -18.2318   22.7471 O   0  0  0  0  0  0  0  0  0  0  0  0
    7.3706  -16.5972   22.5566 N   0  0  0  0  0  0  0  0  0  0  0  0
    8.4037  -15.5632   22.6000 C   0  0  1  0  0  0  0  0  0  0  0  0
    7.9682  -14.2986   21.8924 C   0  0  0  0  0  0  0  0  0  0  0  0
    7.8216  -14.5313   20.4065 C   0  0  0  0  0  0  0  0  0  0  0  0
    7.9387  -13.2472   19.6260 C   0  0  0  0  0  0  0  0  0  0  0  0
    7.6781  -13.4498   18.1497 C   0  0  0  0  0  0  0  0  0  0  0  0
    7.5381  -12.1206   17.5521 N   0  0  0  0  0  0  0  0  0  0  0  0
    8.7632  -15.2073   23.9924 C   0  0  0  0  0  0  0  0  0  0  0  0
    9.0251  -14.0062   24.2330 O   0  0  0  0  0  0  0  0  0  0  0  0
    8.8151  -16.1525   25.0318 N   0  0  0  0  0  0  0  0  0  0  0  0
    9.2860  -15.8007   26.3821 C   0  0  1  0  0  0  0  0  0  0  0  0
    8.0847  -15.3562   27.1436 C   0  0  0  0  0  0  0  0  0  0  0  0
    7.7067  -13.9902   26.7957 C   0  0  0  0  0  0  0  0  0  0  0  0
    8.6720  -12.9984   26.9040 C   0  0  0  0  0  0  0  0  0  0  0  0
    8.4039  -11.6983   26.5783 C   0  0  0  0  0  0  0  0  0  0  0  0
    7.1624  -11.3539   26.1353 C   0  0  0  0  0  0  0  0  0  0  0  0
    6.1833  -12.2985   26.0155 C   0  0  0  0  0  0  0  0  0  0  0  0
    6.4603  -13.6273   26.3492 C   0  0  0  0  0  0  0  0  0  0  0  0
    9.9280  -16.9438   27.0205 C   0  0  0  0  0  0  0  0  0  0  0  0
   10.3987  -16.7992   28.1981 O   0  0  0  0  0  0  0  0  0  0  0  0
   10.0854  -18.1985   26.4789 O   0  0  0  0  0  0  0  0  0  0  0  0
  1  2  1  0
  2  4  1  0
  3  2  2  0
  4  5  1  0
  5  6  1  6
  7  8  2  0
  7  5  1  0
  9  7  1  0
 10  9  1  0
 10 11  1  1
 11 12  1  0
 12 13  1  0
 13 14  1  0
 14 15  1  0
 16 18  1  0
 16 10  1  0
 17 16  2  0
 19 27  1  0
 19 18  1  0
 19 20  1  1
 21 22  2  0
 21 20  1  0
 23 22  1  0
 24 23  2  0
 25 24  1  0
 25 26  2  0
 26 21  1  0
 27 29  1  0
 28 27  2  0
M  END
$$$$
