NKF.pdb
     RDKit          3D

 29 29  0  0  1  0  0  0  0  0999 V2000
    8.0688  -19.7033   25.8235 N   0  0  0  0  0  0  0  0  0  0  0  0
    6.6731  -19.8914   25.7137 C   0  0  0  0  0  0  0  0  0  0  0  0
    6.1442  -20.9100   26.2268 O   0  0  0  0  0  0  0  0  0  0  0  0
    5.7950  -18.9285   25.0083 C   0  0  0  0  0  0  0  0  0  0  0  0
    6.0637  -19.0962   23.5323 C   0  0  2  0  0  0  0  0  0  0  0  0
    6.5376  -20.4484   23.3187 N   0  0  0  0  0  0  0  0  0  0  0  0
    6.9755  -18.1012   22.9601 C   0  0  0  0  0  0  0  0  0  0  0  0
    8.2262  -18.2725   22.8729 O   0  0  0  0  0  0  0  0  0  0  0  0
    6.4762  -16.8768   22.4711 N   0  0  0  0  0  0  0  0  0  0  0  0
    7.3653  -15.7361   22.2552 C   0  0  1  0  0  0  0  0  0  0  0  0
    6.6414  -14.5663   21.6250 C   0  0  0  0  0  0  0  0  0  0  0  0
    7.6188  -13.5208   21.1401 C   0  0  0  0  0  0  0  0  0  0  0  0
    7.5844  -13.3772   19.6401 C   0  0  0  0  0  0  0  0  0  0  0  0
    8.5304  -12.3049   19.1466 C   0  0  0  0  0  0  0  0  0  0  0  0
    8.4704  -12.3195   17.6838 N   0  0  0  0  0  0  0  0  0  0  0  0
    7.9730  -15.2685   23.5228 C   0  0  0  0  0  0  0  0  0  0  0  0
    7.5782  -14.1726   23.9836 O   0  0  0  0  0  0  0  0  0  0  0  0
    8.9545  -16.0007   24.2133 N   0  0  0  0  0  0  0  0  0  0  0  0
    9.7079  -15.4243   25.3399 C   0  0  1  0  0  0  0  0  0  0  0  0
    8.7603  -15.3562   26.4880 C   0  0  0  0  0  0  0  0  0  0  0  0
    7.9933  -14.1146   26.4750 C   0  0  0  0  0  0  0  0  0  0  0  0
    6.6091  -14.2034   26.4183 C   0  0  0  0  0  0  0  0  0  0  0  0
    5.8184  -13.0885   26.4227 C   0  0  0  0  0  0  0  0  0  0  0  0
    6.3903  -11.8535   26.4840 C   0  0  0  0  0  0  0  0  0  0  0  0
    7.7486  -11.7215   26.5396 C   0  0  0  0  0  0  0  0  0  0  0  0
    8.5548  -12.8634   26.5349 C   0  0  0  0  0  0  0  0  0  0  0  0
   10.8713  -16.2439   25.6578 C   0  0  0  0  0  0  0  0  0  0  0  0
   11.6261  -15.8827   26.6216 O   0  0  0  0  0  0  0  0  0  0  0  0
   11.2557  -17.3984   25.0163 O   0  0  0  0  0  0  0  0  0  0  0  0
  1  2  1  0
  2  4  1  0
  3  2  2  0
  4  5  1  0
  5  6  1  1
  7  8  2  0
  7  5  1  0
  9  7  1  0
 10  9  1  0
 10 11  1  1
 11 12  1  0
 12 13  1  0
 13 14  1  0
 14 15  1  0
 16 18  1  0
 16 10  1  0
 17 16  2  0
 19 27  1  0
 19 18  1  0
 19 20  1  1
 21 22  2  0
 21 20  1  0
 23 22  1  0
 24 23  2  0
 25 24  1  0
 25 26  2  0
 26 21  1  0
 27 29  1  0
 28 27  2  0
M  END
$$$$
