NKF.pdb
     RDKit          3D

 29 29  0  0  1  0  0  0  0  0999 V2000
    7.0336  -21.0358   20.1422 N   0  0  0  0  0  0  0  0  0  0  0  0
    7.1204  -20.0759   19.1095 C   0  0  0  0  0  0  0  0  0  0  0  0
    6.8583  -20.4142   17.9273 O   0  0  0  0  0  0  0  0  0  0  0  0
    7.5148  -18.6701   19.3627 C   0  0  0  0  0  0  0  0  0  0  0  0
    7.9153  -18.5864   20.8159 C   0  0  2  0  0  0  0  0  0  0  0  0
    6.7169  -18.7378   21.6156 N   0  0  0  0  0  0  0  0  0  0  0  0
    8.6625  -17.3776   21.1753 C   0  0  0  0  0  0  0  0  0  0  0  0
    9.8786  -17.1967   20.8756 O   0  0  0  0  0  0  0  0  0  0  0  0
    8.0337  -16.3392   21.8921 N   0  0  0  0  0  0  0  0  0  0  0  0
    8.7448  -15.0977   22.1940 C   0  0  1  0  0  0  0  0  0  0  0  0
    7.9094  -13.8763   21.8781 C   0  0  0  0  0  0  0  0  0  0  0  0
    7.2947  -13.9806   20.5015 C   0  0  0  0  0  0  0  0  0  0  0  0
    8.2023  -13.4129   19.4404 C   0  0  0  0  0  0  0  0  0  0  0  0
    7.5697  -13.4514   18.0668 C   0  0  0  0  0  0  0  0  0  0  0  0
    8.4915  -12.7772   17.1506 N   0  0  0  0  0  0  0  0  0  0  0  0
    9.1386  -15.0258   23.6203 C   0  0  0  0  0  0  0  0  0  0  0  0
    9.9218  -14.1085   23.9584 O   0  0  0  0  0  0  0  0  0  0  0  0
    8.6690  -15.9316   24.5875 N   0  0  0  0  0  0  0  0  0  0  0  0
    9.2134  -15.9623   25.9556 C   0  0  1  0  0  0  0  0  0  0  0  0
    8.0702  -15.6810   26.8691 C   0  0  0  0  0  0  0  0  0  0  0  0
    7.5795  -14.3162   26.7066 C   0  0  0  0  0  0  0  0  0  0  0  0
    8.4177  -13.2732   27.0762 C   0  0  0  0  0  0  0  0  0  0  0  0
    8.0410  -11.9667   26.9368 C   0  0  0  0  0  0  0  0  0  0  0  0
    6.8149  -11.6671   26.4239 C   0  0  0  0  0  0  0  0  0  0  0  0
    5.9589  -12.6632   26.0491 C   0  0  0  0  0  0  0  0  0  0  0  0
    6.3469  -13.9983   26.1927 C   0  0  0  0  0  0  0  0  0  0  0  0
    9.8182  -17.2577   26.2430 C   0  0  0  0  0  0  0  0  0  0  0  0
   10.3301  -17.4487   27.3965 O   0  0  0  0  0  0  0  0  0  0  0  0
    9.8988  -18.3289   25.3838 O   0  0  0  0  0  0  0  0  0  0  0  0
  1  2  1  0
  2  4  1  0
  3  2  2  0
  4  5  1  0
  5  6  1  1
  7  8  2  0
  7  5  1  0
  9  7  1  0
 10  9  1  0
 10 11  1  1
 11 12  1  0
 12 13  1  0
 13 14  1  0
 14 15  1  0
 16 18  1  0
 16 10  1  0
 17 16  2  0
 19 27  1  0
 19 18  1  0
 19 20  1  1
 21 22  2  0
 21 20  1  0
 23 22  1  0
 24 23  2  0
 25 24  1  0
 25 26  2  0
 26 21  1  0
 27 29  1  0
 28 27  2  0
M  END
$$$$
