NKF.pdb
     RDKit          3D

 29 29  0  0  1  0  0  0  0  0999 V2000
   15.1393  -13.1700   17.8157 N   0  0  0  0  0  0  0  0  0  0  0  0
   14.8788  -14.0903   18.8553 C   0  0  0  0  0  0  0  0  0  0  0  0
   15.7325  -14.9716   19.1292 O   0  0  0  0  0  0  0  0  0  0  0  0
   13.6252  -14.0626   19.6450 C   0  0  0  0  0  0  0  0  0  0  0  0
   12.8020  -15.2452   19.1947 C   0  0  2  0  0  0  0  0  0  0  0  0
   12.2158  -14.9147   17.9118 N   0  0  0  0  0  0  0  0  0  0  0  0
   11.7910  -15.6889   20.1590 C   0  0  0  0  0  0  0  0  0  0  0  0
   10.7801  -14.9965   20.4753 O   0  0  0  0  0  0  0  0  0  0  0  0
   11.9125  -16.9434   20.7907 N   0  0  0  0  0  0  0  0  0  0  0  0
   10.9183  -17.3932   21.7641 C   0  0  1  0  0  0  0  0  0  0  0  0
   10.7377  -18.8953   21.7350 C   0  0  0  0  0  0  0  0  0  0  0  0
    9.6746  -19.3330   22.7157 C   0  0  0  0  0  0  0  0  0  0  0  0
    9.5177  -20.8320   22.7368 C   0  0  0  0  0  0  0  0  0  0  0  0
    8.3448  -21.2720   23.5849 C   0  0  0  0  0  0  0  0  0  0  0  0
    8.2320  -22.7247   23.4409 N   0  0  0  0  0  0  0  0  0  0  0  0
   11.2893  -17.0040   23.1446 C   0  0  0  0  0  0  0  0  0  0  0  0
   12.4999  -17.0729   23.4592 O   0  0  0  0  0  0  0  0  0  0  0  0
   10.3479  -16.5652   24.0920 N   0  0  0  0  0  0  0  0  0  0  0  0
   10.7370  -16.1953   25.4634 C   0  0  1  0  0  0  0  0  0  0  0  0
    9.5384  -15.5642   26.0845 C   0  0  0  0  0  0  0  0  0  0  0  0
    9.8105  -15.1306   27.4512 C   0  0  0  0  0  0  0  0  0  0  0  0
    9.9277  -13.7685   27.6924 C   0  0  0  0  0  0  0  0  0  0  0  0
   10.1619  -13.2801   28.9473 C   0  0  0  0  0  0  0  0  0  0  0  0
   10.2855  -14.1408   29.9962 C   0  0  0  0  0  0  0  0  0  0  0  0
   10.1784  -15.4885   29.8023 C   0  0  0  0  0  0  0  0  0  0  0  0
    9.9388  -15.9851   28.5178 C   0  0  0  0  0  0  0  0  0  0  0  0
   11.1693  -17.3690   26.2131 C   0  0  0  0  0  0  0  0  0  0  0  0
   12.2767  -17.3144   26.8453 O   0  0  0  0  0  0  0  0  0  0  0  0
   10.4948  -18.5633   26.3190 O   0  0  0  0  0  0  0  0  0  0  0  0
  1  2  1  0
  2  4  1  0
  3  2  2  0
  4  5  1  0
  5  6  1  6
  7  8  2  0
  7  5  1  0
  9  7  1  0
 10  9  1  0
 10 11  1  1
 11 12  1  0
 12 13  1  0
 13 14  1  0
 14 15  1  0
 16 18  1  0
 16 10  1  0
 17 16  2  0
 19 27  1  0
 19 18  1  0
 19 20  1  1
 21 22  2  0
 21 20  1  0
 23 22  1  0
 24 23  2  0
 25 24  1  0
 25 26  2  0
 26 21  1  0
 27 29  1  0
 28 27  2  0
M  END
$$$$
