NKF.pdb
     RDKit          3D

 29 29  0  0  1  0  0  0  0  0999 V2000
    7.8926  -11.9862   17.8120 N   0  0  0  0  0  0  0  0  0  0  0  0
    7.7683  -13.3888   17.9240 C   0  0  0  0  0  0  0  0  0  0  0  0
    8.0883  -14.1176   16.9508 O   0  0  0  0  0  0  0  0  0  0  0  0
    7.2679  -14.0462   19.1542 C   0  0  0  0  0  0  0  0  0  0  0  0
    8.4501  -14.1888   20.0821 C   0  0  2  0  0  0  0  0  0  0  0  0
    9.5551  -14.7244   19.3135 N   0  0  0  0  0  0  0  0  0  0  0  0
    8.1888  -14.9808   21.2876 C   0  0  0  0  0  0  0  0  0  0  0  0
    7.2040  -14.7752   22.0552 O   0  0  0  0  0  0  0  0  0  0  0  0
    9.0538  -16.0340   21.6483 N   0  0  0  0  0  0  0  0  0  0  0  0
    8.7718  -16.8716   22.8133 C   0  0  1  0  0  0  0  0  0  0  0  0
    9.3224  -18.2716   22.6498 C   0  0  0  0  0  0  0  0  0  0  0  0
    8.4930  -19.0700   21.6710 C   0  0  0  0  0  0  0  0  0  0  0  0
    9.0871  -20.4316   21.4163 C   0  0  0  0  0  0  0  0  0  0  0  0
    8.3065  -21.2114   20.3813 C   0  0  0  0  0  0  0  0  0  0  0  0
    9.0191  -22.4722   20.1663 N   0  0  0  0  0  0  0  0  0  0  0  0
    9.3453  -16.2965   24.0522 C   0  0  0  0  0  0  0  0  0  0  0  0
   10.5278  -15.8858   24.0056 O   0  0  0  0  0  0  0  0  0  0  0  0
    8.6202  -16.1949   25.2523 N   0  0  0  0  0  0  0  0  0  0  0  0
    9.2347  -15.6955   26.4940 C   0  0  1  0  0  0  0  0  0  0  0  0
    8.1299  -15.1068   27.3024 C   0  0  0  0  0  0  0  0  0  0  0  0
    7.6353  -13.8683   26.7096 C   0  0  0  0  0  0  0  0  0  0  0  0
    6.2680  -13.7439   26.5042 C   0  0  0  0  0  0  0  0  0  0  0  0
    5.7232  -12.6085   25.9727 C   0  0  0  0  0  0  0  0  0  0  0  0
    6.5310  -11.5659   25.6317 C   0  0  0  0  0  0  0  0  0  0  0  0
    7.8819  -11.6476   25.8159 C   0  0  0  0  0  0  0  0  0  0  0  0
    8.4363  -12.8098   26.3597 C   0  0  0  0  0  0  0  0  0  0  0  0
    9.9024  -16.7752   27.2116 C   0  0  0  0  0  0  0  0  0  0  0  0
   10.5603  -16.4896   28.2675 O   0  0  0  0  0  0  0  0  0  0  0  0
    9.9000  -18.1071   26.8675 O   0  0  0  0  0  0  0  0  0  0  0  0
  1  2  1  0
  2  4  1  0
  3  2  2  0
  4  5  1  0
  5  6  1  6
  7  8  2  0
  7  5  1  0
  9  7  1  0
 10  9  1  0
 10 11  1  6
 11 12  1  0
 12 13  1  0
 13 14  1  0
 14 15  1  0
 16 18  1  0
 16 10  1  0
 17 16  2  0
 19 27  1  0
 19 18  1  0
 19 20  1  1
 21 22  2  0
 21 20  1  0
 23 22  1  0
 24 23  2  0
 25 24  1  0
 25 26  2  0
 26 21  1  0
 27 29  1  0
 28 27  2  0
M  END
$$$$
