ENA.pdb
     RDKit          3D

 23 22  0  0  1  0  0  0  0  0999 V2000
   10.3394  -18.7209   20.0698 N   0  0  0  0  0  0  0  0  0  0  0  0
   11.3182  -18.4164   21.0968 C   0  0  1  0  0  0  0  0  0  0  0  0
   12.6842  -18.5924   20.5270 C   0  0  0  0  0  0  0  0  0  0  0  0
   12.7845  -17.7737   19.2475 C   0  0  0  0  0  0  0  0  0  0  0  0
   14.0977  -17.9024   18.6110 C   0  0  0  0  0  0  0  0  0  0  0  0
   14.6960  -16.8768   18.2088 O   0  0  0  0  0  0  0  0  0  0  0  0
   11.0544  -17.0406   21.6165 C   0  0  0  0  0  0  0  0  0  0  0  0
   11.9630  -16.2125   21.8532 O   0  0  0  0  0  0  0  0  0  0  0  0
   14.7268  -19.1243   18.4262 O   0  0  0  0  0  0  0  0  0  0  0  0
    5.8102  -14.9695   21.1523 N   0  0  0  0  0  0  0  0  0  0  0  0
    7.1114  -15.5186   21.3055 C   0  0  0  0  0  0  0  0  0  0  0  0
    7.2074  -16.7661   21.2813 O   0  0  0  0  0  0  0  0  0  0  0  0
    8.2965  -14.6779   21.4845 C   0  0  0  0  0  0  0  0  0  0  0  0
    9.3806  -15.2857   22.3347 C   0  0  2  0  0  0  0  0  0  0  0  0
    9.7117  -16.5956   21.8739 N   0  0  0  0  0  0  0  0  0  0  0  0
    8.9076  -15.2891   23.7554 C   0  0  0  0  0  0  0  0  0  0  0  0
    8.5180  -14.2595   24.3314 O   0  0  0  0  0  0  0  0  0  0  0  0
    7.1240  -16.2163   26.1056 C   0  0  0  0  0  0  0  0  0  0  0  0
    8.5568  -16.6172   25.8529 C   0  0  2  0  0  0  0  0  0  0  0  0
    8.9144  -16.5283   24.4458 N   0  0  0  0  0  0  0  0  0  0  0  0
    8.8247  -17.9923   26.3845 C   0  0  0  0  0  0  0  0  0  0  0  0
    8.7245  -18.2004   27.7493 O   0  0  0  0  0  0  0  0  0  0  0  0
    9.1273  -18.8962   25.5814 O   0  0  0  0  0  0  0  0  0  0  0  0
  2  1  1  6
  2  7  1  0
  3  4  1  0
  3  2  1  0
  4  5  1  0
  5  9  1  0
  6  5  2  0
  7  8  2  0
 10 11  1  0
 11 12  2  0
 14 13  1  6
 13 11  1  0
 15  7  1  0
 15 14  1  0
 16 14  1  0
 16 17  2  0
 19 18  1  6
 19 20  1  0
 19 21  1  0
 20 16  1  0
 21 22  1  0
 23 21  2  0
M  END
$$$$
