ENA.pdb
     RDKit          3D

 23 22  0  0  1  0  0  0  0  0999 V2000
   10.4707  -17.3096   18.3630 N   0  0  0  0  0  0  0  0  0  0  0  0
    9.8837  -18.3238   19.2188 C   0  0  1  0  0  0  0  0  0  0  0  0
    9.6928  -19.5711   18.4256 C   0  0  0  0  0  0  0  0  0  0  0  0
    9.3214  -19.1867   17.0002 C   0  0  0  0  0  0  0  0  0  0  0  0
    9.0507  -20.3592   16.1647 C   0  0  0  0  0  0  0  0  0  0  0  0
    9.9674  -20.8450   15.4607 O   0  0  0  0  0  0  0  0  0  0  0  0
   10.7556  -18.5002   20.4193 C   0  0  0  0  0  0  0  0  0  0  0  0
   10.5135  -19.3298   21.3251 O   0  0  0  0  0  0  0  0  0  0  0  0
    7.8085  -20.9729   16.1104 O   0  0  0  0  0  0  0  0  0  0  0  0
   15.5617  -17.9117   19.0899 N   0  0  0  0  0  0  0  0  0  0  0  0
   14.8244  -18.4114   20.1967 C   0  0  0  0  0  0  0  0  0  0  0  0
   14.6685  -19.6515   20.2615 O   0  0  0  0  0  0  0  0  0  0  0  0
   14.2655  -17.5300   21.2233 C   0  0  0  0  0  0  0  0  0  0  0  0
   12.8680  -17.8780   21.6633 C   0  0  2  0  0  0  0  0  0  0  0  0
   11.9412  -17.7053   20.5914 N   0  0  0  0  0  0  0  0  0  0  0  0
   12.5292  -17.0249   22.8463 C   0  0  0  0  0  0  0  0  0  0  0  0
   13.3263  -16.8314   23.7795 O   0  0  0  0  0  0  0  0  0  0  0  0
    9.7439  -14.6286   23.6358 C   0  0  0  0  0  0  0  0  0  0  0  0
   10.7967  -15.6407   24.0162 C   0  0  2  0  0  0  0  0  0  0  0  0
   11.2433  -16.4268   22.8768 N   0  0  0  0  0  0  0  0  0  0  0  0
   10.3042  -16.5305   25.1167 C   0  0  0  0  0  0  0  0  0  0  0  0
   10.1202  -15.9809   26.3737 O   0  0  0  0  0  0  0  0  0  0  0  0
   10.0788  -17.7296   24.8616 O   0  0  0  0  0  0  0  0  0  0  0  0
  2  1  1  6
  2  7  1  0
  3  4  1  0
  3  2  1  0
  4  5  1  0
  5  9  1  0
  6  5  2  0
  7  8  2  0
 10 11  1  0
 11 12  2  0
 14 13  1  6
 13 11  1  0
 15  7  1  0
 15 14  1  0
 16 14  1  0
 16 17  2  0
 19 18  1  6
 19 20  1  0
 19 21  1  0
 20 16  1  0
 21 22  1  0
 23 21  2  0
M  END
$$$$
