ENA.pdb
     RDKit          3D

 23 22  0  0  1  0  0  0  0  0999 V2000
    8.3435  -18.2003   19.9306 N   0  0  0  0  0  0  0  0  0  0  0  0
    9.6982  -17.8189   20.2838 C   0  0  1  0  0  0  0  0  0  0  0  0
   10.5251  -17.7775   19.0445 C   0  0  0  0  0  0  0  0  0  0  0  0
    9.9516  -18.7732   18.0459 C   0  0  0  0  0  0  0  0  0  0  0  0
   10.7962  -18.9117   16.8570 C   0  0  0  0  0  0  0  0  0  0  0  0
   10.4726  -18.3306   15.7942 O   0  0  0  0  0  0  0  0  0  0  0  0
    9.6529  -16.5207   21.0220 C   0  0  0  0  0  0  0  0  0  0  0  0
   10.6719  -15.9620   21.4875 O   0  0  0  0  0  0  0  0  0  0  0  0
   11.9589  -19.6672   16.8448 O   0  0  0  0  0  0  0  0  0  0  0  0
    6.8595  -12.7871   19.1492 N   0  0  0  0  0  0  0  0  0  0  0  0
    7.7663  -13.1328   20.1867 C   0  0  0  0  0  0  0  0  0  0  0  0
    8.9824  -12.9358   19.9665 O   0  0  0  0  0  0  0  0  0  0  0  0
    7.3157  -13.6950   21.4611 C   0  0  0  0  0  0  0  0  0  0  0  0
    8.2560  -14.6960   22.0786 C   0  0  2  0  0  0  0  0  0  0  0  0
    8.4055  -15.8383   21.2355 N   0  0  0  0  0  0  0  0  0  0  0  0
    7.7243  -15.0575   23.4309 C   0  0  0  0  0  0  0  0  0  0  0  0
    6.6046  -14.6929   23.8270 O   0  0  0  0  0  0  0  0  0  0  0  0
    6.7528  -17.0363   25.4589 C   0  0  0  0  0  0  0  0  0  0  0  0
    8.0834  -16.3315   25.5603 C   0  0  2  0  0  0  0  0  0  0  0  0
    8.5508  -15.8473   24.2709 N   0  0  0  0  0  0  0  0  0  0  0  0
    9.1073  -17.2203   26.1983 C   0  0  0  0  0  0  0  0  0  0  0  0
   10.2883  -17.4573   25.5165 O   0  0  0  0  0  0  0  0  0  0  0  0
    8.8594  -17.7127   27.3163 O   0  0  0  0  0  0  0  0  0  0  0  0
  2  1  1  6
  2  7  1  0
  3  4  1  0
  3  2  1  0
  4  5  1  0
  5  9  1  0
  6  5  2  0
  7  8  2  0
 10 11  1  0
 11 12  2  0
 14 13  1  6
 13 11  1  0
 15  7  1  0
 15 14  1  0
 16 14  1  0
 16 17  2  0
 19 18  1  6
 19 20  1  0
 19 21  1  0
 20 16  1  0
 21 22  1  0
 23 21  2  0
M  END
$$$$
