ENA.pdb
     RDKit          3D

 23 22  0  0  1  0  0  0  0  0999 V2000
    0.9039  -28.9078   24.7172 N   0  0  0  0  0  0  0  0  0  0  0  0
    1.6204  -28.6077   23.4916 C   0  0  1  0  0  0  0  0  0  0  0  0
    0.6560  -28.0724   22.4891 C   0  0  0  0  0  0  0  0  0  0  0  0
   -0.1629  -29.2313   21.9378 C   0  0  0  0  0  0  0  0  0  0  0  0
   -1.1002  -28.7998   20.8979 C   0  0  0  0  0  0  0  0  0  0  0  0
   -1.2148  -27.5798   20.6327 O   0  0  0  0  0  0  0  0  0  0  0  0
    2.7411  -27.6720   23.8094 C   0  0  0  0  0  0  0  0  0  0  0  0
    3.5183  -27.2149   22.9408 O   0  0  0  0  0  0  0  0  0  0  0  0
   -1.8834  -29.6879   20.1765 O   0  0  0  0  0  0  0  0  0  0  0  0
    1.2545  -24.1260   25.6787 N   0  0  0  0  0  0  0  0  0  0  0  0
    2.6566  -24.2538   25.4890 C   0  0  0  0  0  0  0  0  0  0  0  0
    3.1755  -23.5457   24.5971 O   0  0  0  0  0  0  0  0  0  0  0  0
    3.4721  -25.1673   26.2914 C   0  0  0  0  0  0  0  0  0  0  0  0
    4.0269  -26.3473   25.5382 C   0  0  2  0  0  0  0  0  0  0  0  0
    2.9825  -27.2443   25.1606 N   0  0  0  0  0  0  0  0  0  0  0  0
    5.0537  -27.0083   26.4048 C   0  0  0  0  0  0  0  0  0  0  0  0
    4.7577  -27.8629   27.2566 O   0  0  0  0  0  0  0  0  0  0  0  0
    8.8405  -26.9613   26.3918 C   0  0  0  0  0  0  0  0  0  0  0  0
    7.4817  -27.2513   26.9809 C   0  0  2  0  0  0  0  0  0  0  0  0
    6.4079  -26.6261   26.2248 N   0  0  0  0  0  0  0  0  0  0  0  0
    7.4288  -26.8396   28.4208 C   0  0  0  0  0  0  0  0  0  0  0  0
    7.9736  -27.6893   29.3678 O   0  0  0  0  0  0  0  0  0  0  0  0
    6.8977  -25.7503   28.7128 O   0  0  0  0  0  0  0  0  0  0  0  0
  2  1  1  1
  2  7  1  0
  3  4  1  0
  3  2  1  0
  4  5  1  0
  5  9  1  0
  6  5  2  0
  7  8  2  0
 10 11  1  0
 11 12  2  0
 14 13  1  1
 13 11  1  0
 15  7  1  0
 15 14  1  0
 16 14  1  0
 16 17  2  0
 19 18  1  6
 19 20  1  0
 19 21  1  0
 20 16  1  0
 21 22  1  0
 23 21  2  0
M  END
$$$$
