ENA.pdb
     RDKit          3D

 23 22  0  0  1  0  0  0  0  0999 V2000
    9.3582  -13.3548   18.8881 N   0  0  0  0  0  0  0  0  0  0  0  0
    9.5291  -14.5271   19.7259 C   0  0  1  0  0  0  0  0  0  0  0  0
   10.9863  -14.7963   19.8855 C   0  0  0  0  0  0  0  0  0  0  0  0
   11.7613  -13.7534   19.0922 C   0  0  0  0  0  0  0  0  0  0  0  0
   13.1230  -14.1955   18.7817 C   0  0  0  0  0  0  0  0  0  0  0  0
   14.0607  -13.9150   19.5651 O   0  0  0  0  0  0  0  0  0  0  0  0
    8.8128  -14.3008   21.0175 C   0  0  0  0  0  0  0  0  0  0  0  0
    8.4563  -13.1678   21.4131 O   0  0  0  0  0  0  0  0  0  0  0  0
   13.4360  -14.9228   17.6433 O   0  0  0  0  0  0  0  0  0  0  0  0
    5.6910  -15.7756   21.1525 N   0  0  0  0  0  0  0  0  0  0  0  0
    5.8064  -16.6450   22.2701 C   0  0  0  0  0  0  0  0  0  0  0  0
    4.9746  -17.5764   22.3530 O   0  0  0  0  0  0  0  0  0  0  0  0
    6.8448  -16.4733   23.2877 C   0  0  0  0  0  0  0  0  0  0  0  0
    7.7346  -15.2751   23.0876 C   0  0  2  0  0  0  0  0  0  0  0  0
    8.4930  -15.4019   21.8849 N   0  0  0  0  0  0  0  0  0  0  0  0
    8.6090  -15.1410   24.2957 C   0  0  0  0  0  0  0  0  0  0  0  0
    9.6973  -15.7312   24.4004 O   0  0  0  0  0  0  0  0  0  0  0  0
    8.3704  -13.0116   27.4297 C   0  0  0  0  0  0  0  0  0  0  0  0
    8.9383  -14.1010   26.5532 C   0  0  2  0  0  0  0  0  0  0  0  0
    8.1538  -14.3017   25.3449 N   0  0  0  0  0  0  0  0  0  0  0  0
    9.0734  -15.3818   27.3191 C   0  0  0  0  0  0  0  0  0  0  0  0
   10.1407  -15.5174   28.1899 O   0  0  0  0  0  0  0  0  0  0  0  0
    8.2227  -16.2761   27.1449 O   0  0  0  0  0  0  0  0  0  0  0  0
  2  1  1  6
  2  7  1  0
  3  4  1  0
  3  2  1  0
  4  5  1  0
  5  9  1  0
  6  5  2  0
  7  8  2  0
 10 11  1  0
 11 12  2  0
 14 13  1  1
 13 11  1  0
 15  7  1  0
 15 14  1  0
 16 14  1  0
 16 17  2  0
 19 18  1  1
 19 20  1  0
 19 21  1  0
 20 16  1  0
 21 22  1  0
 23 21  2  0
M  END
$$$$
