ENA.pdb
     RDKit          3D

 23 22  0  0  1  0  0  0  0  0999 V2000
    9.7980  -17.2530   15.2790 N   0  0  0  0  0  0  0  0  0  0  0  0
   10.9918  -16.4408   15.1360 C   0  0  1  0  0  0  0  0  0  0  0  0
   11.0395  -15.8952   13.7498 C   0  0  0  0  0  0  0  0  0  0  0  0
   11.6468  -16.9495   12.8348 C   0  0  0  0  0  0  0  0  0  0  0  0
   11.7587  -16.4816   11.4511 C   0  0  0  0  0  0  0  0  0  0  0  0
   10.7667  -16.5569   10.6881 O   0  0  0  0  0  0  0  0  0  0  0  0
   10.9854  -15.3895   16.1977 C   0  0  0  0  0  0  0  0  0  0  0  0
   11.9526  -14.6229   16.4078 O   0  0  0  0  0  0  0  0  0  0  0  0
   12.9280  -15.9489   10.9299 O   0  0  0  0  0  0  0  0  0  0  0  0
    9.2738  -12.2097   20.0454 N   0  0  0  0  0  0  0  0  0  0  0  0
    8.1882  -12.6855   19.2622 C   0  0  0  0  0  0  0  0  0  0  0  0
    7.0676  -12.1695   19.4724 O   0  0  0  0  0  0  0  0  0  0  0  0
    8.3553  -13.7310   18.2511 C   0  0  0  0  0  0  0  0  0  0  0  0
    9.7654  -14.2335   18.0878 C   0  0  2  0  0  0  0  0  0  0  0  0
    9.8393  -15.2070   17.0463 N   0  0  0  0  0  0  0  0  0  0  0  0
   10.2173  -14.7810   19.4062 C   0  0  0  0  0  0  0  0  0  0  0  0
    9.4463  -15.3656   20.1855 O   0  0  0  0  0  0  0  0  0  0  0  0
   11.9764  -16.7906   20.8293 C   0  0  0  0  0  0  0  0  0  0  0  0
   12.1666  -15.2950   20.8969 C   0  0  2  0  0  0  0  0  0  0  0  0
   11.5825  -14.6125   19.7530 N   0  0  0  0  0  0  0  0  0  0  0  0
   13.6181  -14.9506   21.0382 C   0  0  0  0  0  0  0  0  0  0  0  0
   14.1932  -14.1247   20.0880 O   0  0  0  0  0  0  0  0  0  0  0  0
   14.2533  -15.4188   22.0031 O   0  0  0  0  0  0  0  0  0  0  0  0
  2  1  1  6
  2  7  1  0
  3  4  1  0
  3  2  1  0
  4  5  1  0
  5  9  1  0
  6  5  2  0
  7  8  2  0
 10 11  1  0
 11 12  2  0
 14 13  1  1
 13 11  1  0
 15  7  1  0
 15 14  1  0
 16 14  1  0
 16 17  2  0
 19 18  1  6
 19 20  1  0
 19 21  1  0
 20 16  1  0
 21 22  1  0
 23 21  2  0
M  END
$$$$
