ENA.pdb
     RDKit          3D

 23 22  0  0  1  0  0  0  0  0999 V2000
   10.5573  -17.6513   19.8381 N   0  0  0  0  0  0  0  0  0  0  0  0
   11.1356  -17.7398   21.1660 C   0  0  1  0  0  0  0  0  0  0  0  0
   12.4749  -17.0858   21.1522 C   0  0  0  0  0  0  0  0  0  0  0  0
   13.3764  -17.8483   20.1912 C   0  0  0  0  0  0  0  0  0  0  0  0
   14.6752  -17.1938   20.0155 C   0  0  0  0  0  0  0  0  0  0  0  0
   14.8622  -16.4387   19.0323 O   0  0  0  0  0  0  0  0  0  0  0  0
   10.1808  -17.1376   22.1449 C   0  0  0  0  0  0  0  0  0  0  0  0
    9.3278  -16.2777   21.8286 O   0  0  0  0  0  0  0  0  0  0  0  0
   15.7306  -17.3691   20.8977 O   0  0  0  0  0  0  0  0  0  0  0  0
    6.2971  -16.9089   25.7982 N   0  0  0  0  0  0  0  0  0  0  0  0
    7.4524  -17.6926   26.0617 C   0  0  0  0  0  0  0  0  0  0  0  0
    7.6549  -18.0229   27.2517 O   0  0  0  0  0  0  0  0  0  0  0  0
    8.3744  -18.1037   25.0014 C   0  0  0  0  0  0  0  0  0  0  0  0
    9.2999  -17.0209   24.5129 C   0  0  2  0  0  0  0  0  0  0  0  0
   10.1997  -17.5292   23.5282 N   0  0  0  0  0  0  0  0  0  0  0  0
   10.0196  -16.4573   25.6988 C   0  0  0  0  0  0  0  0  0  0  0  0
   11.0923  -16.9272   26.1136 O   0  0  0  0  0  0  0  0  0  0  0  0
    9.4316  -13.3924   27.8533 C   0  0  0  0  0  0  0  0  0  0  0  0
   10.0687  -14.7142   27.5004 C   0  0  2  0  0  0  0  0  0  0  0  0
    9.4325  -15.3446   26.3543 N   0  0  0  0  0  0  0  0  0  0  0  0
   10.0694  -15.6352   28.6823 C   0  0  0  0  0  0  0  0  0  0  0  0
   10.8018  -15.2710   29.7990 O   0  0  0  0  0  0  0  0  0  0  0  0
    9.4127  -16.6927   28.6176 O   0  0  0  0  0  0  0  0  0  0  0  0
  2  1  1  6
  2  7  1  0
  3  4  1  0
  3  2  1  0
  4  5  1  0
  5  9  1  0
  6  5  2  0
  7  8  2  0
 10 11  1  0
 11 12  2  0
 14 13  1  1
 13 11  1  0
 15  7  1  0
 15 14  1  0
 16 14  1  0
 16 17  2  0
 19 18  1  1
 19 20  1  0
 19 21  1  0
 20 16  1  0
 21 22  1  0
 23 21  2  0
M  END
$$$$
