ENA.pdb
     RDKit          3D

 23 22  0  0  1  0  0  0  0  0999 V2000
    4.1575  -19.1705   14.8199 N   0  0  0  0  0  0  0  0  0  0  0  0
    5.5507  -19.3699   15.1733 C   0  0  1  0  0  0  0  0  0  0  0  0
    6.3659  -18.2930   14.5431 C   0  0  0  0  0  0  0  0  0  0  0  0
    6.3739  -18.5103   13.0364 C   0  0  0  0  0  0  0  0  0  0  0  0
    7.1586  -17.4909   12.3355 C   0  0  0  0  0  0  0  0  0  0  0  0
    8.1447  -17.8346   11.6417 O   0  0  0  0  0  0  0  0  0  0  0  0
    5.6644  -19.4190   16.6623 C   0  0  0  0  0  0  0  0  0  0  0  0
    5.3845  -18.4489   17.4025 O   0  0  0  0  0  0  0  0  0  0  0  0
    6.8621  -16.1379   12.4003 O   0  0  0  0  0  0  0  0  0  0  0  0
    5.5124  -23.3189   21.2623 N   0  0  0  0  0  0  0  0  0  0  0  0
    5.3267  -22.0271   20.7011 C   0  0  0  0  0  0  0  0  0  0  0  0
    5.2055  -21.0727   21.5015 O   0  0  0  0  0  0  0  0  0  0  0  0
    5.2769  -21.8049   19.2549 C   0  0  0  0  0  0  0  0  0  0  0  0
    6.2156  -20.7434   18.7454 C   0  0  2  0  0  0  0  0  0  0  0  0
    6.1113  -20.6126   17.3277 N   0  0  0  0  0  0  0  0  0  0  0  0
    7.6025  -21.1050   19.1790 C   0  0  0  0  0  0  0  0  0  0  0  0
    8.2382  -22.0424   18.6682 O   0  0  0  0  0  0  0  0  0  0  0  0
   10.0863  -19.4421   21.5044 C   0  0  0  0  0  0  0  0  0  0  0  0
    9.5460  -20.5802   20.6735 C   0  0  2  0  0  0  0  0  0  0  0  0
    8.1888  -20.3314   20.2134 N   0  0  0  0  0  0  0  0  0  0  0  0
    9.6237  -21.8721   21.4287 C   0  0  0  0  0  0  0  0  0  0  0  0
   10.7800  -22.6258   21.3246 O   0  0  0  0  0  0  0  0  0  0  0  0
    8.6475  -22.2205   22.1211 O   0  0  0  0  0  0  0  0  0  0  0  0
  2  1  1  1
  2  7  1  0
  3  4  1  0
  3  2  1  0
  4  5  1  0
  5  9  1  0
  6  5  2  0
  7  8  2  0
 10 11  1  0
 11 12  2  0
 14 13  1  6
 13 11  1  0
 15  7  1  0
 15 14  1  0
 16 14  1  0
 16 17  2  0
 19 18  1  1
 19 20  1  0
 19 21  1  0
 20 16  1  0
 21 22  1  0
 23 21  2  0
M  END
$$$$
