ENA.pdb
     RDKit          3D

 23 22  0  0  1  0  0  0  0  0999 V2000
   10.2846  -18.4709   21.9739 N   0  0  0  0  0  0  0  0  0  0  0  0
   10.7255  -17.1998   22.5176 C   0  0  1  0  0  0  0  0  0  0  0  0
   11.1142  -16.3038   21.3918 C   0  0  0  0  0  0  0  0  0  0  0  0
   11.9399  -17.1069   20.3964 C   0  0  0  0  0  0  0  0  0  0  0  0
   12.2163  -16.3518   19.1718 C   0  0  0  0  0  0  0  0  0  0  0  0
   13.2846  -15.7036   19.0698 O   0  0  0  0  0  0  0  0  0  0  0  0
    9.6392  -16.6462   23.3813 C   0  0  0  0  0  0  0  0  0  0  0  0
    8.9612  -15.6413   23.0685 O   0  0  0  0  0  0  0  0  0  0  0  0
   11.3406  -16.3154   18.0974 O   0  0  0  0  0  0  0  0  0  0  0  0
    5.8354  -18.5154   23.9317 N   0  0  0  0  0  0  0  0  0  0  0  0
    6.9037  -18.9545   24.7588 C   0  0  0  0  0  0  0  0  0  0  0  0
    7.3890  -20.0807   24.5088 O   0  0  0  0  0  0  0  0  0  0  0  0
    7.4250  -18.1396   25.8576 C   0  0  0  0  0  0  0  0  0  0  0  0
    8.1787  -16.9082   25.4295 C   0  0  2  0  0  0  0  0  0  0  0  0
    9.3162  -17.2585   24.6414 N   0  0  0  0  0  0  0  0  0  0  0  0
    8.5577  -16.1460   26.6613 C   0  0  0  0  0  0  0  0  0  0  0  0
    7.7213  -15.7835   27.5055 O   0  0  0  0  0  0  0  0  0  0  0  0
    9.6781  -13.6680   27.9766 C   0  0  0  0  0  0  0  0  0  0  0  0
   10.3813  -15.0030   27.9475 C   0  0  2  0  0  0  0  0  0  0  0  0
    9.9305  -15.8400   26.8468 N   0  0  0  0  0  0  0  0  0  0  0  0
   10.2234  -15.7145   29.2568 C   0  0  0  0  0  0  0  0  0  0  0  0
   10.8447  -15.1822   30.3733 O   0  0  0  0  0  0  0  0  0  0  0  0
    9.5406  -16.7568   29.2932 O   0  0  0  0  0  0  0  0  0  0  0  0
  2  1  1  6
  2  7  1  0
  3  4  1  0
  3  2  1  0
  4  5  1  0
  5  9  1  0
  6  5  2  0
  7  8  2  0
 10 11  1  0
 11 12  2  0
 14 13  1  1
 13 11  1  0
 15  7  1  0
 15 14  1  0
 16 14  1  0
 16 17  2  0
 19 18  1  1
 19 20  1  0
 19 21  1  0
 20 16  1  0
 21 22  1  0
 23 21  2  0
M  END
$$$$
