ENA.pdb
     RDKit          3D

 23 22  0  0  1  0  0  0  0  0999 V2000
   11.0128  -19.2809   20.2468 N   0  0  0  0  0  0  0  0  0  0  0  0
   11.7837  -18.0535   20.1786 C   0  0  1  0  0  0  0  0  0  0  0  0
   12.4314  -17.9659   18.8390 C   0  0  0  0  0  0  0  0  0  0  0  0
   11.5366  -18.6605   17.8220 C   0  0  0  0  0  0  0  0  0  0  0  0
   12.0823  -18.5861   16.4645 C   0  0  0  0  0  0  0  0  0  0  0  0
   11.3219  -18.3227   15.5031 O   0  0  0  0  0  0  0  0  0  0  0  0
   10.8813  -16.9037   20.4883 C   0  0  0  0  0  0  0  0  0  0  0  0
   11.2406  -15.7079   20.3977 O   0  0  0  0  0  0  0  0  0  0  0  0
   13.4233  -18.7960   16.1809 O   0  0  0  0  0  0  0  0  0  0  0  0
    6.5824  -14.0914   21.5689 N   0  0  0  0  0  0  0  0  0  0  0  0
    6.2919  -15.2486   20.7977 C   0  0  0  0  0  0  0  0  0  0  0  0
    5.1348  -15.3435   20.3305 O   0  0  0  0  0  0  0  0  0  0  0  0
    7.2888  -16.2920   20.5511 C   0  0  0  0  0  0  0  0  0  0  0  0
    8.6113  -16.0785   21.2389 C   0  0  2  0  0  0  0  0  0  0  0  0
    9.5262  -17.1253   20.9145 N   0  0  0  0  0  0  0  0  0  0  0  0
    8.3575  -15.9860   22.7117 C   0  0  0  0  0  0  0  0  0  0  0  0
    7.5316  -16.7094   23.2932 O   0  0  0  0  0  0  0  0  0  0  0  0
    7.6443  -14.0512   25.1720 C   0  0  0  0  0  0  0  0  0  0  0  0
    8.8976  -14.8373   24.8739 C   0  0  2  0  0  0  0  0  0  0  0  0
    9.1024  -15.0282   23.4466 N   0  0  0  0  0  0  0  0  0  0  0  0
    8.8813  -16.1534   25.5901 C   0  0  0  0  0  0  0  0  0  0  0  0
    9.9398  -16.4587   26.4282 O   0  0  0  0  0  0  0  0  0  0  0  0
    7.9185  -16.9234   25.4059 O   0  0  0  0  0  0  0  0  0  0  0  0
  2  1  1  6
  2  7  1  0
  3  4  1  0
  3  2  1  0
  4  5  1  0
  5  9  1  0
  6  5  2  0
  7  8  2  0
 10 11  1  0
 11 12  2  0
 14 13  1  6
 13 11  1  0
 15  7  1  0
 15 14  1  0
 16 14  1  0
 16 17  2  0
 19 18  1  6
 19 20  1  0
 19 21  1  0
 20 16  1  0
 21 22  1  0
 23 21  2  0
M  END
$$$$
