ENA.pdb
     RDKit          3D

 23 22  0  0  1  0  0  0  0  0999 V2000
   10.2757  -16.2931   17.8209 N   0  0  0  0  0  0  0  0  0  0  0  0
   10.3873  -16.2665   19.2674 C   0  0  1  0  0  0  0  0  0  0  0  0
   11.5661  -15.4357   19.6439 C   0  0  0  0  0  0  0  0  0  0  0  0
   12.7874  -15.9645   18.9047 C   0  0  0  0  0  0  0  0  0  0  0  0
   13.9911  -15.1823   19.1966 C   0  0  0  0  0  0  0  0  0  0  0  0
   14.2086  -14.1195   18.5682 O   0  0  0  0  0  0  0  0  0  0  0  0
    9.0967  -15.7754   19.8380 C   0  0  0  0  0  0  0  0  0  0  0  0
    8.1477  -15.3659   19.1316 O   0  0  0  0  0  0  0  0  0  0  0  0
   14.9219  -15.5634   20.1512 O   0  0  0  0  0  0  0  0  0  0  0  0
    5.6748  -18.6897   23.2044 N   0  0  0  0  0  0  0  0  0  0  0  0
    5.8243  -17.6854   22.2108 C   0  0  0  0  0  0  0  0  0  0  0  0
    4.7894  -17.0749   21.8607 O   0  0  0  0  0  0  0  0  0  0  0  0
    7.1222  -17.3665   21.6134 C   0  0  0  0  0  0  0  0  0  0  0  0
    7.6138  -15.9679   21.8779 C   0  0  2  0  0  0  0  0  0  0  0  0
    8.8820  -15.7509   21.2595 N   0  0  0  0  0  0  0  0  0  0  0  0
    7.6669  -15.7687   23.3610 C   0  0  0  0  0  0  0  0  0  0  0  0
    6.6675  -15.8977   24.0878 O   0  0  0  0  0  0  0  0  0  0  0  0
    7.9785  -14.1918   25.8460 C   0  0  0  0  0  0  0  0  0  0  0  0
    9.0526  -15.1289   25.3502 C   0  0  2  0  0  0  0  0  0  0  0  0
    8.9182  -15.4206   23.9316 N   0  0  0  0  0  0  0  0  0  0  0  0
    9.0667  -16.3930   26.1547 C   0  0  0  0  0  0  0  0  0  0  0  0
    9.5214  -16.3357   27.4608 O   0  0  0  0  0  0  0  0  0  0  0  0
    8.6699  -17.4470   25.6206 O   0  0  0  0  0  0  0  0  0  0  0  0
  2  1  1  6
  2  7  1  0
  3  4  1  0
  3  2  1  0
  4  5  1  0
  5  9  1  0
  6  5  2  0
  7  8  2  0
 10 11  1  0
 11 12  2  0
 14 13  1  1
 13 11  1  0
 15  7  1  0
 15 14  1  0
 16 14  1  0
 16 17  2  0
 19 18  1  1
 19 20  1  0
 19 21  1  0
 20 16  1  0
 21 22  1  0
 23 21  2  0
M  END
$$$$
