ENA.pdb
     RDKit          3D

 23 22  0  0  1  0  0  0  0  0999 V2000
   10.2835  -15.7298   13.2587 N   0  0  0  0  0  0  0  0  0  0  0  0
    8.8886  -15.3505   13.1331 C   0  0  1  0  0  0  0  0  0  0  0  0
    8.2731  -16.1391   12.0282 C   0  0  0  0  0  0  0  0  0  0  0  0
    9.3872  -16.7592   11.1966 C   0  0  0  0  0  0  0  0  0  0  0  0
    8.8674  -17.6167   10.1286 C   0  0  0  0  0  0  0  0  0  0  0  0
    8.4419  -17.0994    9.0688 O   0  0  0  0  0  0  0  0  0  0  0  0
    8.2198  -15.5418   14.4555 C   0  0  0  0  0  0  0  0  0  0  0  0
    6.9939  -15.3623   14.6348 O   0  0  0  0  0  0  0  0  0  0  0  0
    8.8202  -18.9988   10.2302 O   0  0  0  0  0  0  0  0  0  0  0  0
    6.7960  -18.3721   16.0459 N   0  0  0  0  0  0  0  0  0  0  0  0
    7.8788  -18.6143   16.9331 C   0  0  0  0  0  0  0  0  0  0  0  0
    8.0643  -19.7987   17.2922 O   0  0  0  0  0  0  0  0  0  0  0  0
    8.7476  -17.5390   17.4150 C   0  0  0  0  0  0  0  0  0  0  0  0
    8.4016  -16.1671   16.8995 C   0  0  2  0  0  0  0  0  0  0  0  0
    8.9734  -15.9512   15.6094 N   0  0  0  0  0  0  0  0  0  0  0  0
    8.8757  -15.1623   17.9032 C   0  0  0  0  0  0  0  0  0  0  0  0
   10.0761  -15.0227   18.1918 O   0  0  0  0  0  0  0  0  0  0  0  0
    7.0958  -12.5442   19.9990 C   0  0  0  0  0  0  0  0  0  0  0  0
    8.2384  -13.4578   19.6279 C   0  0  2  0  0  0  0  0  0  0  0  0
    7.8964  -14.3518   18.5328 N   0  0  0  0  0  0  0  0  0  0  0  0
    8.7070  -14.2330   20.8216 C   0  0  0  0  0  0  0  0  0  0  0  0
    8.5135  -15.6035   20.8326 O   0  0  0  0  0  0  0  0  0  0  0  0
    9.2524  -13.6178   21.7586 O   0  0  0  0  0  0  0  0  0  0  0  0
  2  1  1  1
  2  7  1  0
  3  4  1  0
  3  2  1  0
  4  5  1  0
  5  9  1  0
  6  5  2  0
  7  8  2  0
 10 11  1  0
 11 12  2  0
 14 13  1  1
 13 11  1  0
 15  7  1  0
 15 14  1  0
 16 14  1  0
 16 17  2  0
 19 18  1  1
 19 20  1  0
 19 21  1  0
 20 16  1  0
 21 22  1  0
 23 21  2  0
M  END
$$$$
