QLA.pdb
     RDKit          3D

 23 22  0  0  1  0  0  0  0  0999 V2000
   18.6922  -19.2823  -11.9252 N   0  0  0  0  0  0  0  0  0  0  0  0
   18.9199  -19.9050  -10.6749 C   0  0  0  0  0  0  0  0  0  0  0  0
   17.9632  -20.3379  -10.0093 O   0  0  0  0  0  0  0  0  0  0  0  0
   20.3034  -20.0601  -10.1207 C   0  0  0  0  0  0  0  0  0  0  0  0
   21.3074  -19.3532  -10.9863 C   0  0  0  0  0  0  0  0  0  0  0  0
   21.5444  -19.9851  -12.3123 C   0  0  2  0  0  0  0  0  0  0  0  0
   21.8528  -21.4297  -12.1144 N   0  0  0  0  0  0  0  0  0  0  0  0
   22.6035  -19.4287  -13.1396 C   0  0  0  0  0  0  0  0  0  0  0  0
   22.5325  -18.1820  -13.4378 O   0  0  0  0  0  0  0  0  0  0  0  0
   28.1674  -20.5547  -15.5616 C   0  0  0  0  0  0  0  0  0  0  0  0
   27.0021  -19.5496  -15.4928 C   0  0  2  0  0  0  0  0  0  0  0  0
   27.6077  -18.2720  -14.9595 C   0  0  0  0  0  0  0  0  0  0  0  0
   25.9898  -20.1494  -14.5890 C   0  0  0  0  0  0  0  0  0  0  0  0
   24.6160  -19.4918  -14.6504 C   0  0  2  0  0  0  0  0  0  0  0  0
   23.7339  -20.0936  -13.6697 N   0  0  0  0  0  0  0  0  0  0  0  0
   24.0456  -19.5428  -16.0026 C   0  0  0  0  0  0  0  0  0  0  0  0
   24.6461  -18.9348  -16.9312 O   0  0  0  0  0  0  0  0  0  0  0  0
   22.1631  -21.5486  -18.3420 C   0  0  0  0  0  0  0  0  0  0  0  0
   22.3773  -20.1726  -17.7700 C   0  0  2  0  0  0  0  0  0  0  0  0
   22.8619  -20.2207  -16.3900 N   0  0  0  0  0  0  0  0  0  0  0  0
   21.1722  -19.3324  -17.8920 C   0  0  0  0  0  0  0  0  0  0  0  0
   20.6483  -18.9122  -19.1015 O   0  0  0  0  0  0  0  0  0  0  0  0
   20.5927  -18.9817  -16.8430 O   0  0  0  0  0  0  0  0  0  0  0  0
  1  2  1  0
  2  4  1  0
  3  2  2  0
  4  5  1  0
  6  8  1  0
  6  5  1  0
  6  7  1  1
  8 15  1  0
  9  8  2  0
 11 10  1  1
 11 13  1  0
 12 11  1  0
 14 13  1  6
 14 16  1  0
 15 14  1  0
 16 17  2  0
 16 20  1  0
 19 18  1  1
 19 21  1  0
 20 19  1  0
 21 22  1  0
 23 21  2  0
M  END
$$$$
