QLA.pdb
     RDKit          3D

 23 22  0  0  1  0  0  0  0  0999 V2000
   16.1496  -13.3124  -18.5323 N   0  0  0  0  0  0  0  0  0  0  0  0
   16.9589  -14.4624  -18.6916 C   0  0  0  0  0  0  0  0  0  0  0  0
   16.5928  -15.3850  -19.4403 O   0  0  0  0  0  0  0  0  0  0  0  0
   18.2657  -14.6028  -17.9720 C   0  0  0  0  0  0  0  0  0  0  0  0
   18.5071  -13.4264  -17.0695 C   0  0  0  0  0  0  0  0  0  0  0  0
   19.2962  -12.3222  -17.6792 C   0  0  2  0  0  0  0  0  0  0  0  0
   20.5466  -12.8836  -18.2645 N   0  0  0  0  0  0  0  0  0  0  0  0
   19.6839  -11.2191  -16.8141 C   0  0  0  0  0  0  0  0  0  0  0  0
   18.8675  -10.8771  -15.8841 O   0  0  0  0  0  0  0  0  0  0  0  0
   22.5311  -10.4955  -13.5942 C   0  0  0  0  0  0  0  0  0  0  0  0
   23.1951  -10.4384  -14.9830 C   0  0  2  0  0  0  0  0  0  0  0  0
   24.6776  -10.3271  -14.7125 C   0  0  0  0  0  0  0  0  0  0  0  0
   22.6255   -9.2512  -15.6667 C   0  0  0  0  0  0  0  0  0  0  0  0
   21.1330   -9.3452  -15.9623 C   0  0  2  0  0  0  0  0  0  0  0  0
   20.8738  -10.4554  -16.8580 N   0  0  0  0  0  0  0  0  0  0  0  0
   20.5994   -8.0824  -16.4886 C   0  0  0  0  0  0  0  0  0  0  0  0
   21.0336   -7.6621  -17.5965 O   0  0  0  0  0  0  0  0  0  0  0  0
   17.7862   -5.6452  -16.1571 C   0  0  0  0  0  0  0  0  0  0  0  0
   19.2208   -5.9843  -16.4627 C   0  0  2  0  0  0  0  0  0  0  0  0
   19.6213   -7.2617  -15.8718 N   0  0  0  0  0  0  0  0  0  0  0  0
   20.1375   -4.8969  -16.0749 C   0  0  0  0  0  0  0  0  0  0  0  0
   21.1718   -5.0509  -15.1691 O   0  0  0  0  0  0  0  0  0  0  0  0
   19.9696   -3.7743  -16.5951 O   0  0  0  0  0  0  0  0  0  0  0  0
  1  2  1  0
  2  4  1  0
  3  2  2  0
  4  5  1  0
  6  8  1  0
  6  5  1  0
  6  7  1  1
  8 15  1  0
  9  8  2  0
 11 10  1  1
 11 13  1  0
 12 11  1  0
 14 13  1  6
 14 16  1  0
 15 14  1  0
 16 17  2  0
 16 20  1  0
 19 18  1  1
 19 21  1  0
 20 19  1  0
 21 22  1  0
 23 21  2  0
M  END
$$$$
