QLA.pdb
     RDKit          3D

 23 22  0  0  1  0  0  0  0  0999 V2000
   15.8097  -22.7999    5.6107 N   0  0  0  0  0  0  0  0  0  0  0  0
   15.3598  -23.1196    4.3076 C   0  0  0  0  0  0  0  0  0  0  0  0
   14.6790  -24.1420    4.1152 O   0  0  0  0  0  0  0  0  0  0  0  0
   15.6856  -22.2474    3.1335 C   0  0  0  0  0  0  0  0  0  0  0  0
   16.5899  -21.1193    3.5414 C   0  0  0  0  0  0  0  0  0  0  0  0
   16.2074  -19.7858    3.0036 C   0  0  2  0  0  0  0  0  0  0  0  0
   16.3113  -19.8128    1.5172 N   0  0  0  0  0  0  0  0  0  0  0  0
   16.9656  -18.6343    3.4669 C   0  0  0  0  0  0  0  0  0  0  0  0
   18.2452  -18.7352    3.4916 O   0  0  0  0  0  0  0  0  0  0  0  0
   16.9118  -12.5566    3.9118 C   0  0  0  0  0  0  0  0  0  0  0  0
   17.6242  -13.8213    4.4277 C   0  0  2  0  0  0  0  0  0  0  0  0
   18.9779  -13.8190    3.7563 C   0  0  0  0  0  0  0  0  0  0  0  0
   16.7688  -14.9684    4.0355 C   0  0  0  0  0  0  0  0  0  0  0  0
   17.3215  -16.3342    4.4261 C   0  0  2  0  0  0  0  0  0  0  0  0
   16.4691  -17.3828    3.9008 N   0  0  0  0  0  0  0  0  0  0  0  0
   17.5048  -16.4549    5.8781 C   0  0  0  0  0  0  0  0  0  0  0  0
   18.3389  -15.6952    6.4435 O   0  0  0  0  0  0  0  0  0  0  0  0
   17.2772  -18.6720    8.7696 C   0  0  0  0  0  0  0  0  0  0  0  0
   17.0172  -17.3077    8.1885 C   0  0  2  0  0  0  0  0  0  0  0  0
   16.8268  -17.3554    6.7384 N   0  0  0  0  0  0  0  0  0  0  0  0
   18.0636  -16.3405    8.5661 C   0  0  0  0  0  0  0  0  0  0  0  0
   18.4357  -16.0830    9.8734 O   0  0  0  0  0  0  0  0  0  0  0  0
   18.6462  -15.7199    7.6525 O   0  0  0  0  0  0  0  0  0  0  0  0
  1  2  1  0
  2  4  1  0
  3  2  2  0
  4  5  1  0
  6  8  1  0
  6  5  1  0
  6  7  1  6
  8 15  1  0
  9  8  2  0
 11 10  1  6
 11 13  1  0
 12 11  1  0
 14 13  1  1
 14 16  1  0
 15 14  1  0
 16 17  2  0
 16 20  1  0
 19 18  1  6
 19 21  1  0
 20 19  1  0
 21 22  1  0
 23 21  2  0
M  END
$$$$
