QLA.pdb
     RDKit          3D

 23 22  0  0  1  0  0  0  0  0999 V2000
   20.4070  -20.9651  -13.4896 N   0  0  0  0  0  0  0  0  0  0  0  0
   19.9162  -21.2947  -14.7754 C   0  0  0  0  0  0  0  0  0  0  0  0
   19.4602  -22.4297  -14.9979 O   0  0  0  0  0  0  0  0  0  0  0  0
   19.9304  -20.2990  -15.8951 C   0  0  0  0  0  0  0  0  0  0  0  0
   20.5736  -19.0136  -15.4580 C   0  0  0  0  0  0  0  0  0  0  0  0
   21.6413  -18.5094  -16.3634 C   0  0  2  0  0  0  0  0  0  0  0  0
   22.7681  -19.4847  -16.3769 N   0  0  0  0  0  0  0  0  0  0  0  0
   22.2072  -17.2024  -16.0687 C   0  0  0  0  0  0  0  0  0  0  0  0
   22.1350  -16.7821  -14.8577 O   0  0  0  0  0  0  0  0  0  0  0  0
   27.1281  -14.6522  -16.0078 C   0  0  0  0  0  0  0  0  0  0  0  0
   25.6589  -14.7394  -15.5532 C   0  0  2  0  0  0  0  0  0  0  0  0
   25.6050  -15.9094  -14.5985 C   0  0  0  0  0  0  0  0  0  0  0  0
   24.8550  -14.9399  -16.7841 C   0  0  0  0  0  0  0  0  0  0  0  0
   23.3500  -15.0124  -16.5537 C   0  0  2  0  0  0  0  0  0  0  0  0
   22.8481  -16.3105  -16.9602 N   0  0  0  0  0  0  0  0  0  0  0  0
   22.6405  -13.9170  -17.2268 C   0  0  0  0  0  0  0  0  0  0  0  0
   22.6682  -13.8683  -18.4875 O   0  0  0  0  0  0  0  0  0  0  0  0
   19.9882  -11.3359  -16.6172 C   0  0  0  0  0  0  0  0  0  0  0  0
   21.1574  -11.8972  -17.3818 C   0  0  2  0  0  0  0  0  0  0  0  0
   21.9058  -12.8801  -16.5976 N   0  0  0  0  0  0  0  0  0  0  0  0
   22.0373  -10.8339  -17.8998 C   0  0  0  0  0  0  0  0  0  0  0  0
   21.6391   -9.8953  -18.8349 O   0  0  0  0  0  0  0  0  0  0  0  0
   23.2077  -10.7788  -17.4684 O   0  0  0  0  0  0  0  0  0  0  0  0
  1  2  1  0
  2  4  1  0
  3  2  2  0
  4  5  1  0
  6  8  1  0
  6  5  1  0
  6  7  1  1
  8 15  1  0
  9  8  2  0
 11 10  1  6
 11 13  1  0
 12 11  1  0
 14 13  1  6
 14 16  1  0
 15 14  1  0
 16 17  2  0
 16 20  1  0
 19 18  1  1
 19 21  1  0
 20 19  1  0
 21 22  1  0
 23 21  2  0
M  END
$$$$
