QLA.pdb
     RDKit          3D

 23 22  0  0  1  0  0  0  0  0999 V2000
   18.0921  -22.3616  -12.9465 N   0  0  0  0  0  0  0  0  0  0  0  0
   18.5362  -22.7708  -14.2264 C   0  0  0  0  0  0  0  0  0  0  0  0
   18.0028  -23.7410  -14.7920 O   0  0  0  0  0  0  0  0  0  0  0  0
   19.6493  -22.0570  -14.9313 C   0  0  0  0  0  0  0  0  0  0  0  0
   20.1295  -20.8862  -14.1218 C   0  0  0  0  0  0  0  0  0  0  0  0
   21.1292  -21.2203  -13.0717 C   0  0  2  0  0  0  0  0  0  0  0  0
   20.5289  -20.9686  -11.7310 N   0  0  0  0  0  0  0  0  0  0  0  0
   22.4024  -20.5181  -13.1115 C   0  0  0  0  0  0  0  0  0  0  0  0
   22.3850  -19.2448  -12.9481 O   0  0  0  0  0  0  0  0  0  0  0  0
   25.4137  -19.8032  -10.3539 C   0  0  0  0  0  0  0  0  0  0  0  0
   25.5573  -21.2042  -10.9781 C   0  0  2  0  0  0  0  0  0  0  0  0
   26.6160  -21.9012  -10.1556 C   0  0  0  0  0  0  0  0  0  0  0  0
   25.9500  -20.9897  -12.3928 C   0  0  0  0  0  0  0  0  0  0  0  0
   24.9045  -20.2729  -13.2393 C   0  0  2  0  0  0  0  0  0  0  0  0
   23.6922  -21.0653  -13.3062 N   0  0  0  0  0  0  0  0  0  0  0  0
   25.4160  -19.9428  -14.5757 C   0  0  0  0  0  0  0  0  0  0  0  0
   25.5575  -20.8768  -15.4124 O   0  0  0  0  0  0  0  0  0  0  0  0
   26.4613  -16.9853  -16.7189 C   0  0  0  0  0  0  0  0  0  0  0  0
   26.2083  -18.4397  -16.4240 C   0  0  2  0  0  0  0  0  0  0  0  0
   25.7765  -18.6532  -15.0422 N   0  0  0  0  0  0  0  0  0  0  0  0
   27.3705  -19.2802  -16.7644 C   0  0  0  0  0  0  0  0  0  0  0  0
   28.2133  -19.8431  -15.8227 O   0  0  0  0  0  0  0  0  0  0  0  0
   27.6055  -19.4955  -17.9717 O   0  0  0  0  0  0  0  0  0  0  0  0
  1  2  1  0
  2  4  1  0
  3  2  2  0
  4  5  1  0
  6  8  1  0
  6  5  1  0
  6  7  1  1
  8 15  1  0
  9  8  2  0
 11 10  1  1
 11 13  1  0
 12 11  1  0
 14 13  1  1
 14 16  1  0
 15 14  1  0
 16 17  2  0
 16 20  1  0
 19 18  1  1
 19 21  1  0
 20 19  1  0
 21 22  1  0
 23 21  2  0
M  END
$$$$
