QLA.pdb
     RDKit          3D

 23 22  0  0  1  0  0  0  0  0999 V2000
   24.9303  -21.4752  -16.8580 N   0  0  0  0  0  0  0  0  0  0  0  0
   26.1083  -21.0520  -17.5183 C   0  0  0  0  0  0  0  0  0  0  0  0
   26.0387  -20.5171  -18.6384 O   0  0  0  0  0  0  0  0  0  0  0  0
   27.4595  -21.2329  -16.8962 C   0  0  0  0  0  0  0  0  0  0  0  0
   27.3353  -21.7508  -15.4916 C   0  0  0  0  0  0  0  0  0  0  0  0
   26.4305  -20.9622  -14.6122 C   0  0  2  0  0  0  0  0  0  0  0  0
   26.8526  -19.5331  -14.6366 N   0  0  0  0  0  0  0  0  0  0  0  0
   26.3393  -21.3599  -13.2162 C   0  0  0  0  0  0  0  0  0  0  0  0
   26.0694  -22.5896  -12.9643 O   0  0  0  0  0  0  0  0  0  0  0  0
   26.2030  -18.9451   -7.5316 C   0  0  0  0  0  0  0  0  0  0  0  0
   26.0483  -20.2551   -8.3272 C   0  0  2  0  0  0  0  0  0  0  0  0
   26.9031  -21.2671   -7.6002 C   0  0  0  0  0  0  0  0  0  0  0  0
   26.5168  -19.9619   -9.7041 C   0  0  0  0  0  0  0  0  0  0  0  0
   25.9384  -20.8754  -10.7786 C   0  0  2  0  0  0  0  0  0  0  0  0
   26.5178  -20.5532  -12.0680 N   0  0  0  0  0  0  0  0  0  0  0  0
   24.4712  -20.8218  -10.8100 C   0  0  0  0  0  0  0  0  0  0  0  0
   23.8363  -21.1309   -9.7641 O   0  0  0  0  0  0  0  0  0  0  0  0
   21.6513  -19.0868  -12.2934 C   0  0  0  0  0  0  0  0  0  0  0  0
   22.2089  -20.4004  -11.8137 C   0  0  2  0  0  0  0  0  0  0  0  0
   23.6677  -20.4486  -11.9172 N   0  0  0  0  0  0  0  0  0  0  0  0
   21.5793  -21.5465  -12.4942 C   0  0  0  0  0  0  0  0  0  0  0  0
   22.2780  -22.4652  -13.2569 O   0  0  0  0  0  0  0  0  0  0  0  0
   20.3454  -21.6951  -12.3736 O   0  0  0  0  0  0  0  0  0  0  0  0
  1  2  1  0
  2  4  1  0
  3  2  2  0
  4  5  1  0
  6  8  1  0
  6  5  1  0
  6  7  1  1
  8 15  1  0
  9  8  2  0
 11 10  1  1
 11 13  1  0
 12 11  1  0
 14 13  1  1
 14 16  1  0
 15 14  1  0
 16 17  2  0
 16 20  1  0
 19 18  1  6
 19 21  1  0
 20 19  1  0
 21 22  1  0
 23 21  2  0
M  END
$$$$
