QLA.pdb
     RDKit          3D

 23 22  0  0  1  0  0  0  0  0999 V2000
   22.3981  -18.7407  -15.8638 N   0  0  0  0  0  0  0  0  0  0  0  0
   22.0600  -19.7344  -16.8130 C   0  0  0  0  0  0  0  0  0  0  0  0
   22.0111  -20.9299  -16.4752 O   0  0  0  0  0  0  0  0  0  0  0  0
   21.7544  -19.3818  -18.2369 C   0  0  0  0  0  0  0  0  0  0  0  0
   21.8444  -17.8975  -18.4502 C   0  0  0  0  0  0  0  0  0  0  0  0
   22.8885  -17.4673  -19.4191 C   0  0  2  0  0  0  0  0  0  0  0  0
   23.9537  -18.5079  -19.4800 N   0  0  0  0  0  0  0  0  0  0  0  0
   23.5455  -16.1931  -19.1738 C   0  0  0  0  0  0  0  0  0  0  0  0
   22.7996  -15.1737  -18.9438 O   0  0  0  0  0  0  0  0  0  0  0  0
   25.7304  -14.6010  -15.7957 C   0  0  0  0  0  0  0  0  0  0  0  0
   26.5405  -15.5130  -16.7365 C   0  0  2  0  0  0  0  0  0  0  0  0
   27.8298  -15.7995  -16.0025 C   0  0  0  0  0  0  0  0  0  0  0  0
   26.7302  -14.7482  -17.9937 C   0  0  0  0  0  0  0  0  0  0  0  0
   25.4748  -14.6095  -18.8472 C   0  0  2  0  0  0  0  0  0  0  0  0
   24.9332  -15.9201  -19.1491 N   0  0  0  0  0  0  0  0  0  0  0  0
   25.7253  -13.8279  -20.0649 C   0  0  0  0  0  0  0  0  0  0  0  0
   26.6461  -14.2042  -20.8414 O   0  0  0  0  0  0  0  0  0  0  0  0
   24.2233  -11.6416  -22.5665 C   0  0  0  0  0  0  0  0  0  0  0  0
   25.4080  -11.9371  -21.6859 C   0  0  2  0  0  0  0  0  0  0  0  0
   25.0250  -12.6654  -20.4758 N   0  0  0  0  0  0  0  0  0  0  0  0
   26.1727  -10.7183  -21.3654 C   0  0  0  0  0  0  0  0  0  0  0  0
   26.7584   -9.9060  -22.3199 O   0  0  0  0  0  0  0  0  0  0  0  0
   26.2973  -10.4027  -20.1637 O   0  0  0  0  0  0  0  0  0  0  0  0
  1  2  1  0
  2  4  1  0
  3  2  2  0
  4  5  1  0
  6  8  1  0
  6  5  1  0
  6  7  1  1
  8 15  1  0
  9  8  2  0
 11 10  1  1
 11 13  1  0
 12 11  1  0
 14 13  1  6
 14 16  1  0
 15 14  1  0
 16 17  2  0
 16 20  1  0
 19 18  1  1
 19 21  1  0
 20 19  1  0
 21 22  1  0
 23 21  2  0
M  END
$$$$
