QLA.pdb
     RDKit          3D

 23 22  0  0  1  0  0  0  0  0999 V2000
   14.7681  -12.6556  -19.6036 N   0  0  0  0  0  0  0  0  0  0  0  0
   14.9742  -11.3604  -19.0720 C   0  0  0  0  0  0  0  0  0  0  0  0
   14.5474  -10.3617  -19.6771 O   0  0  0  0  0  0  0  0  0  0  0  0
   15.7042  -11.1542  -17.7797 C   0  0  0  0  0  0  0  0  0  0  0  0
   16.9645  -10.3666  -17.9985 C   0  0  0  0  0  0  0  0  0  0  0  0
   18.1451  -10.8508  -17.2333 C   0  0  2  0  0  0  0  0  0  0  0  0
   17.7185  -11.9556  -16.3285 N   0  0  0  0  0  0  0  0  0  0  0  0
   18.8597   -9.8801  -16.4193 C   0  0  0  0  0  0  0  0  0  0  0  0
   18.2442   -9.3834  -15.4081 O   0  0  0  0  0  0  0  0  0  0  0  0
   22.0465   -9.7949  -13.3070 C   0  0  0  0  0  0  0  0  0  0  0  0
   22.4857  -10.0411  -14.7629 C   0  0  2  0  0  0  0  0  0  0  0  0
   23.9424  -10.4341  -14.6795 C   0  0  0  0  0  0  0  0  0  0  0  0
   22.2550   -8.7668  -15.4870 C   0  0  0  0  0  0  0  0  0  0  0  0
   20.7873   -8.4230  -15.7134 C   0  0  2  0  0  0  0  0  0  0  0  0
   20.1790   -9.4008  -16.5943 N   0  0  0  0  0  0  0  0  0  0  0  0
   20.6180   -7.0539  -16.2168 C   0  0  0  0  0  0  0  0  0  0  0  0
   20.9508   -6.8067  -17.4088 O   0  0  0  0  0  0  0  0  0  0  0  0
   18.8829   -3.8128  -15.4362 C   0  0  0  0  0  0  0  0  0  0  0  0
   19.9398   -4.6386  -16.1200 C   0  0  2  0  0  0  0  0  0  0  0  0
   20.1056   -5.9491  -15.4905 N   0  0  0  0  0  0  0  0  0  0  0  0
   21.2223   -3.9185  -16.2182 C   0  0  0  0  0  0  0  0  0  0  0  0
   21.5420   -3.0569  -17.2523 O   0  0  0  0  0  0  0  0  0  0  0  0
   22.0664   -4.0974  -15.3156 O   0  0  0  0  0  0  0  0  0  0  0  0
  1  2  1  0
  2  4  1  0
  3  2  2  0
  4  5  1  0
  6  8  1  0
  6  5  1  0
  6  7  1  1
  8 15  1  0
  9  8  2  0
 11 10  1  1
 11 13  1  0
 12 11  1  0
 14 13  1  6
 14 16  1  0
 15 14  1  0
 16 17  2  0
 16 20  1  0
 19 18  1  1
 19 21  1  0
 20 19  1  0
 21 22  1  0
 23 21  2  0
M  END
$$$$
