QLA.pdb
     RDKit          3D

 23 22  0  0  1  0  0  0  0  0999 V2000
   27.0488  -16.0645  -14.7746 N   0  0  0  0  0  0  0  0  0  0  0  0
   27.8172  -16.3638  -15.9248 C   0  0  0  0  0  0  0  0  0  0  0  0
   28.6938  -15.5725  -16.3136 O   0  0  0  0  0  0  0  0  0  0  0  0
   27.6013  -17.6275  -16.7004 C   0  0  0  0  0  0  0  0  0  0  0  0
   26.5675  -18.4915  -16.0360 C   0  0  0  0  0  0  0  0  0  0  0  0
   27.1060  -19.4573  -15.0404 C   0  0  2  0  0  0  0  0  0  0  0  0
   28.0137  -20.4148  -15.7335 N   0  0  0  0  0  0  0  0  0  0  0  0
   26.1454  -20.2456  -14.2846 C   0  0  0  0  0  0  0  0  0  0  0  0
   25.7827  -21.3741  -14.7777 O   0  0  0  0  0  0  0  0  0  0  0  0
   26.4650  -22.0472  -10.3528 C   0  0  0  0  0  0  0  0  0  0  0  0
   25.9866  -20.5851  -10.2743 C   0  0  2  0  0  0  0  0  0  0  0  0
   26.0037  -20.2377   -8.8038 C   0  0  0  0  0  0  0  0  0  0  0  0
   24.6300  -20.5596  -10.8747 C   0  0  0  0  0  0  0  0  0  0  0  0
   24.5978  -20.8033  -12.3791 C   0  0  2  0  0  0  0  0  0  0  0  0
   25.5449  -19.9294  -13.0435 N   0  0  0  0  0  0  0  0  0  0  0  0
   23.2432  -20.6587  -12.9274 C   0  0  0  0  0  0  0  0  0  0  0  0
   22.7561  -19.4988  -13.0270 O   0  0  0  0  0  0  0  0  0  0  0  0
   20.7445  -22.4335  -15.0432 C   0  0  0  0  0  0  0  0  0  0  0  0
   21.0972  -21.4312  -13.9768 C   0  0  2  0  0  0  0  0  0  0  0  0
   22.4000  -21.7089  -13.3711 N   0  0  0  0  0  0  0  0  0  0  0  0
   20.0388  -21.3175  -12.9570 C   0  0  0  0  0  0  0  0  0  0  0  0
   18.8116  -20.7218  -13.1870 O   0  0  0  0  0  0  0  0  0  0  0  0
   20.2646  -21.7867  -11.8221 O   0  0  0  0  0  0  0  0  0  0  0  0
  1  2  1  0
  2  4  1  0
  3  2  2  0
  4  5  1  0
  6  8  1  0
  6  5  1  0
  6  7  1  6
  8 15  1  0
  9  8  2  0
 11 10  1  1
 11 13  1  0
 12 11  1  0
 14 13  1  1
 14 16  1  0
 15 14  1  0
 16 17  2  0
 16 20  1  0
 19 18  1  6
 19 21  1  0
 20 19  1  0
 21 22  1  0
 23 21  2  0
M  END
$$$$
