QLA.pdb
     RDKit          3D

 23 22  0  0  1  0  0  0  0  0999 V2000
   20.8617  -10.3586  -21.6613 N   0  0  0  0  0  0  0  0  0  0  0  0
   20.0490  -11.4924  -21.9002 C   0  0  0  0  0  0  0  0  0  0  0  0
   20.1201  -12.0943  -22.9857 O   0  0  0  0  0  0  0  0  0  0  0  0
   19.0895  -11.9967  -20.8656 C   0  0  0  0  0  0  0  0  0  0  0  0
   19.1130  -11.1220  -19.6445 C   0  0  0  0  0  0  0  0  0  0  0  0
   20.0812  -11.5398  -18.5948 C   0  0  2  0  0  0  0  0  0  0  0  0
   19.6278  -12.8291  -18.0004 N   0  0  0  0  0  0  0  0  0  0  0  0
   20.3153  -10.6178  -17.4945 C   0  0  0  0  0  0  0  0  0  0  0  0
   19.4616  -10.6066  -16.5357 O   0  0  0  0  0  0  0  0  0  0  0  0
   22.9425  -10.3330  -13.9075 C   0  0  0  0  0  0  0  0  0  0  0  0
   23.5687  -10.0559  -15.2874 C   0  0  2  0  0  0  0  0  0  0  0  0
   25.0590   -9.9958  -15.0448 C   0  0  0  0  0  0  0  0  0  0  0  0
   22.9909   -8.7718  -15.7548 C   0  0  0  0  0  0  0  0  0  0  0  0
   21.5274   -8.8503  -16.1740 C   0  0  2  0  0  0  0  0  0  0  0  0
   21.3888   -9.7111  -17.3324 N   0  0  0  0  0  0  0  0  0  0  0  0
   20.9544   -7.5191  -16.4106 C   0  0  0  0  0  0  0  0  0  0  0  0
   21.3712   -6.8525  -17.3978 O   0  0  0  0  0  0  0  0  0  0  0  0
   18.0932   -5.2984  -15.3450 C   0  0  0  0  0  0  0  0  0  0  0  0
   19.4169   -5.5759  -16.0061 C   0  0  2  0  0  0  0  0  0  0  0  0
   19.9551   -6.8839  -15.6305 N   0  0  0  0  0  0  0  0  0  0  0  0
   20.3917   -4.4979  -15.7595 C   0  0  0  0  0  0  0  0  0  0  0  0
   20.3390   -3.2596  -16.3741 O   0  0  0  0  0  0  0  0  0  0  0  0
   21.3162   -4.7168  -14.9493 O   0  0  0  0  0  0  0  0  0  0  0  0
  1  2  1  0
  2  4  1  0
  3  2  2  0
  4  5  1  0
  6  8  1  0
  6  5  1  0
  6  7  1  1
  8 15  1  0
  9  8  2  0
 11 10  1  1
 11 13  1  0
 12 11  1  0
 14 13  1  6
 14 16  1  0
 15 14  1  0
 16 17  2  0
 16 20  1  0
 19 18  1  1
 19 21  1  0
 20 19  1  0
 21 22  1  0
 23 21  2  0
M  END
$$$$
