QLA.pdb
     RDKit          3D

 23 22  0  0  1  0  0  0  0  0999 V2000
   23.2049  -18.2820  -13.4275 N   0  0  0  0  0  0  0  0  0  0  0  0
   23.1683  -19.1404  -14.5521 C   0  0  0  0  0  0  0  0  0  0  0  0
   22.9381  -18.6786  -15.6832 O   0  0  0  0  0  0  0  0  0  0  0  0
   23.4027  -20.6142  -14.4169 C   0  0  0  0  0  0  0  0  0  0  0  0
   23.7249  -20.9751  -12.9946 C   0  0  0  0  0  0  0  0  0  0  0  0
   25.1197  -20.6731  -12.5737 C   0  0  2  0  0  0  0  0  0  0  0  0
   26.0644  -21.4370  -13.4369 N   0  0  0  0  0  0  0  0  0  0  0  0
   25.4776  -20.9528  -11.1919 C   0  0  0  0  0  0  0  0  0  0  0  0
   25.5297  -22.1829  -10.8282 O   0  0  0  0  0  0  0  0  0  0  0  0
   27.4780  -18.2726   -6.0059 C   0  0  0  0  0  0  0  0  0  0  0  0
   27.0801  -19.6202   -6.6373 C   0  0  2  0  0  0  0  0  0  0  0  0
   28.2531  -20.5396   -6.3882 C   0  0  0  0  0  0  0  0  0  0  0  0
   26.8338  -19.3480   -8.0749 C   0  0  0  0  0  0  0  0  0  0  0  0
   26.0197  -20.4185   -8.7925 C   0  0  2  0  0  0  0  0  0  0  0  0
   25.7893  -20.0267  -10.1692 N   0  0  0  0  0  0  0  0  0  0  0  0
   24.7638  -20.7123   -8.0904 C   0  0  0  0  0  0  0  0  0  0  0  0
   23.8418  -19.8513   -8.1230 O   0  0  0  0  0  0  0  0  0  0  0  0
   22.8344  -23.5256   -6.5056 C   0  0  0  0  0  0  0  0  0  0  0  0
   23.1669  -22.0716   -6.7100 C   0  0  2  0  0  0  0  0  0  0  0  0
   24.4649  -21.8912   -7.3613 N   0  0  0  0  0  0  0  0  0  0  0  0
   23.0801  -21.3057   -5.4535 C   0  0  0  0  0  0  0  0  0  0  0  0
   24.1574  -20.6631   -4.8698 O   0  0  0  0  0  0  0  0  0  0  0  0
   21.9704  -21.2335   -4.8857 O   0  0  0  0  0  0  0  0  0  0  0  0
  1  2  1  0
  2  4  1  0
  3  2  2  0
  4  5  1  0
  6  8  1  0
  6  5  1  0
  6  7  1  6
  8 15  1  0
  9  8  2  0
 11 10  1  1
 11 13  1  0
 12 11  1  0
 14 13  1  1
 14 16  1  0
 15 14  1  0
 16 17  2  0
 16 20  1  0
 19 18  1  1
 19 21  1  0
 20 19  1  0
 21 22  1  0
 23 21  2  0
M  END
$$$$
