QLA.pdb
     RDKit          3D

 23 22  0  0  1  0  0  0  0  0999 V2000
   17.5991  -19.3713  -12.5184 N   0  0  0  0  0  0  0  0  0  0  0  0
   17.4918  -20.7430  -12.8497 C   0  0  0  0  0  0  0  0  0  0  0  0
   16.3732  -21.2606  -13.0124 O   0  0  0  0  0  0  0  0  0  0  0  0
   18.7074  -21.6039  -13.0126 C   0  0  0  0  0  0  0  0  0  0  0  0
   19.9612  -20.7857  -12.8895 C   0  0  0  0  0  0  0  0  0  0  0  0
   20.8821  -20.8739  -14.0549 C   0  0  2  0  0  0  0  0  0  0  0  0
   21.1155  -22.3089  -14.3828 N   0  0  0  0  0  0  0  0  0  0  0  0
   22.1869  -20.2443  -13.9265 C   0  0  0  0  0  0  0  0  0  0  0  0
   22.2198  -19.0090  -13.5783 O   0  0  0  0  0  0  0  0  0  0  0  0
   26.8893  -21.4733  -11.1347 C   0  0  0  0  0  0  0  0  0  0  0  0
   25.8283  -20.5368  -11.7432 C   0  0  2  0  0  0  0  0  0  0  0  0
   24.5768  -20.7685  -10.9288 C   0  0  0  0  0  0  0  0  0  0  0  0
   25.6924  -20.9331  -13.1665 C   0  0  0  0  0  0  0  0  0  0  0  0
   24.6996  -20.0968  -13.9656 C   0  0  2  0  0  0  0  0  0  0  0  0
   23.4587  -20.8274  -14.1345 N   0  0  0  0  0  0  0  0  0  0  0  0
   25.2596  -19.6657  -15.2529 C   0  0  0  0  0  0  0  0  0  0  0  0
   25.4326  -20.5328  -16.1533 O   0  0  0  0  0  0  0  0  0  0  0  0
   26.0873  -16.5779  -17.2593 C   0  0  0  0  0  0  0  0  0  0  0  0
   26.1957  -18.0412  -16.9226 C   0  0  2  0  0  0  0  0  0  0  0  0
   25.6359  -18.3447  -15.6051 N   0  0  0  0  0  0  0  0  0  0  0  0
   27.5791  -18.5340  -17.0500 C   0  0  0  0  0  0  0  0  0  0  0  0
   28.2078  -18.7527  -18.2628 O   0  0  0  0  0  0  0  0  0  0  0  0
   28.2183  -18.7659  -16.0027 O   0  0  0  0  0  0  0  0  0  0  0  0
  1  2  1  0
  2  4  1  0
  3  2  2  0
  4  5  1  0
  6  8  1  0
  6  5  1  0
  6  7  1  1
  8 15  1  0
  9  8  2  0
 11 10  1  1
 11 13  1  0
 12 11  1  0
 14 13  1  6
 14 16  1  0
 15 14  1  0
 16 17  2  0
 16 20  1  0
 19 18  1  1
 19 21  1  0
 20 19  1  0
 21 22  1  0
 23 21  2  0
M  END
$$$$
