QLA.pdb
     RDKit          3D

 23 22  0  0  1  0  0  0  0  0999 V2000
   16.0200  -13.1385  -16.2291 N   0  0  0  0  0  0  0  0  0  0  0  0
   16.1229  -12.8593  -17.6127 C   0  0  0  0  0  0  0  0  0  0  0  0
   15.4984  -13.5491  -18.4372 O   0  0  0  0  0  0  0  0  0  0  0  0
   16.9769  -11.7379  -18.1211 C   0  0  0  0  0  0  0  0  0  0  0  0
   17.6252  -11.0025  -16.9830 C   0  0  0  0  0  0  0  0  0  0  0  0
   18.5087   -9.8761  -17.3889 C   0  0  2  0  0  0  0  0  0  0  0  0
   19.4486  -10.3510  -18.4435 N   0  0  0  0  0  0  0  0  0  0  0  0
   19.3094   -9.2455  -16.3513 C   0  0  0  0  0  0  0  0  0  0  0  0
   18.7165   -8.9121  -15.2625 O   0  0  0  0  0  0  0  0  0  0  0  0
   22.4400  -10.6698  -13.6058 C   0  0  0  0  0  0  0  0  0  0  0  0
   22.9288  -10.3628  -15.0340 C   0  0  2  0  0  0  0  0  0  0  0  0
   24.3482  -10.8781  -15.0896 C   0  0  0  0  0  0  0  0  0  0  0  0
   22.8239   -8.8923  -15.2012 C   0  0  0  0  0  0  0  0  0  0  0  0
   21.3963   -8.3607  -15.2563 C   0  0  2  0  0  0  0  0  0  0  0  0
   20.6918   -8.9470  -16.3797 N   0  0  0  0  0  0  0  0  0  0  0  0
   21.3606   -6.8932  -15.2945 C   0  0  0  0  0  0  0  0  0  0  0  0
   21.9356   -6.3030  -16.2503 O   0  0  0  0  0  0  0  0  0  0  0  0
   19.6544   -3.8702  -13.9265 C   0  0  0  0  0  0  0  0  0  0  0  0
   20.8818   -4.5893  -14.4191 C   0  0  2  0  0  0  0  0  0  0  0  0
   20.7317   -6.0433  -14.3496 N   0  0  0  0  0  0  0  0  0  0  0  0
   22.1005   -4.1366  -13.7243 C   0  0  0  0  0  0  0  0  0  0  0  0
   22.8899   -4.9611  -12.9425 O   0  0  0  0  0  0  0  0  0  0  0  0
   22.4381   -2.9411  -13.8502 O   0  0  0  0  0  0  0  0  0  0  0  0
  1  2  1  0
  2  4  1  0
  3  2  2  0
  4  5  1  0
  6  8  1  0
  6  5  1  0
  6  7  1  6
  8 15  1  0
  9  8  2  0
 11 10  1  1
 11 13  1  0
 12 11  1  0
 14 13  1  6
 14 16  1  0
 15 14  1  0
 16 17  2  0
 16 20  1  0
 19 18  1  1
 19 21  1  0
 20 19  1  0
 21 22  1  0
 23 21  2  0
M  END
$$$$
