WCT.pdb
     RDKit          3D

 28 29  0  0  1  0  0  0  0  0999 V2000
    6.5581  -17.6100   24.1812 N   0  0  0  0  0  0  0  0  0  0  0  0
    7.5025  -16.6059   23.6577 C   0  0  1  0  0  0  0  0  0  0  0  0
    8.1296  -15.9893   24.8653 C   0  0  0  0  0  0  0  0  0  0  0  0
    7.2508  -15.0399   25.5949 C   0  0  0  0  0  0  0  0  0  0  0  0
    6.1651  -15.3992   26.4047 C   0  0  0  0  0  0  0  0  0  0  0  0
    5.6221  -14.2971   26.9289 N   0  0  0  0  0  0  0  0  0  0  0  0
    6.3106  -13.2189   26.4934 C   0  0  0  0  0  0  0  0  0  0  0  0
    6.1923  -11.8736   26.7040 C   0  0  0  0  0  0  0  0  0  0  0  0
    7.0621  -11.0164   26.1001 C   0  0  0  0  0  0  0  0  0  0  0  0
    8.0761  -11.4467   25.2698 C   0  0  0  0  0  0  0  0  0  0  0  0
    8.2019  -12.7998   25.0529 C   0  0  0  0  0  0  0  0  0  0  0  0
    7.3291  -13.6922   25.6577 C   0  0  0  0  0  0  0  0  0  0  0  0
    8.3803  -17.2432   22.6949 C   0  0  0  0  0  0  0  0  0  0  0  0
    9.1103  -18.2262   22.9886 O   0  0  0  0  0  0  0  0  0  0  0  0
    8.4875  -16.8090   21.3184 N   0  0  0  0  0  0  0  0  0  0  0  0
    9.5049  -17.3166   20.4367 C   0  0  1  0  0  0  0  0  0  0  0  0
    9.1821  -16.6928   19.0569 C   0  0  0  0  0  0  0  0  0  0  0  0
    7.5153  -17.2078   18.5639 S   0  0  0  0  0  0  0  0  0  0  0  0
   10.8927  -16.9575   20.8277 C   0  0  0  0  0  0  0  0  0  0  0  0
   11.1491  -15.7514   21.0967 O   0  0  0  0  0  0  0  0  0  0  0  0
   14.9856  -18.5095   23.1404 C   0  0  0  0  0  0  0  0  0  0  0  0
   13.5467  -18.5823   22.6931 C   0  0  1  0  0  0  0  0  0  0  0  0
   12.6422  -18.4184   23.7481 O   0  0  0  0  0  0  0  0  0  0  0  0
   13.2263  -17.7274   21.5213 C   0  0  2  0  0  0  0  0  0  0  0  0
   11.9541  -17.8980   20.9189 N   0  0  0  0  0  0  0  0  0  0  0  0
   14.3787  -17.6349   20.5549 C   0  0  0  0  0  0  0  0  0  0  0  0
   14.2906  -18.2310   19.4251 O   0  0  0  0  0  0  0  0  0  0  0  0
   15.5503  -16.9586   20.7714 O   0  0  0  0  0  0  0  0  0  0  0  0
  2  1  1  1
  3  2  1  0
  3  4  1  0
  4  5  2  0
  5  6  1  0
  7  6  1  0
  8  7  2  0
  9  8  1  0
 10 11  1  0
 10  9  2  0
 11 12  2  0
 12  4  1  0
 12  7  1  0
 13 14  2  0
 13  2  1  0
 15 13  1  0
 16 19  1  0
 16 15  1  0
 16 17  1  6
 18 17  1  0
 19 20  2  0
 22 21  1  1
 22 23  1  0
 24 22  1  0
 25 19  1  0
 24 25  1  6
 26 28  1  0
 26 24  1  0
 27 26  2  0
M  END
$$$$
