WCT.pdb
     RDKit          3D

 28 29  0  0  1  0  0  0  0  0999 V2000
    7.1120  -18.2674   24.9806 N   0  0  0  0  0  0  0  0  0  0  0  0
    7.3330  -16.9307   24.3988 C   0  0  1  0  0  0  0  0  0  0  0  0
    7.9577  -16.1253   25.4911 C   0  0  0  0  0  0  0  0  0  0  0  0
    7.0709  -15.0827   26.0674 C   0  0  0  0  0  0  0  0  0  0  0  0
    5.7622  -15.2927   26.5227 C   0  0  0  0  0  0  0  0  0  0  0  0
    5.2743  -14.1471   27.0061 N   0  0  0  0  0  0  0  0  0  0  0  0
    6.2148  -13.1842   26.8862 C   0  0  0  0  0  0  0  0  0  0  0  0
    6.2537  -11.8559   27.2060 C   0  0  0  0  0  0  0  0  0  0  0  0
    7.3782  -11.1316   26.9473 C   0  0  0  0  0  0  0  0  0  0  0  0
    8.5016  -11.6824   26.3667 C   0  0  0  0  0  0  0  0  0  0  0  0
    8.4703  -13.0193   26.0419 C   0  0  0  0  0  0  0  0  0  0  0  0
    7.3374  -13.7778   26.2968 C   0  0  0  0  0  0  0  0  0  0  0  0
    8.0740  -17.0737   23.1602 C   0  0  0  0  0  0  0  0  0  0  0  0
    8.8962  -18.0072   22.9650 O   0  0  0  0  0  0  0  0  0  0  0  0
    7.9282  -16.1625   22.0452 N   0  0  0  0  0  0  0  0  0  0  0  0
    8.7239  -16.2846   20.8527 C   0  0  1  0  0  0  0  0  0  0  0  0
    8.1964  -15.1771   19.9080 C   0  0  0  0  0  0  0  0  0  0  0  0
    6.4689  -15.5413   19.4963 S   0  0  0  0  0  0  0  0  0  0  0  0
   10.1827  -16.0981   21.0649 C   0  0  0  0  0  0  0  0  0  0  0  0
   10.5639  -15.2124   21.8791 O   0  0  0  0  0  0  0  0  0  0  0  0
   12.0414  -16.8650   23.3344 C   0  0  0  0  0  0  0  0  0  0  0  0
   12.5404  -17.7945   22.2560 C   0  0  1  0  0  0  0  0  0  0  0  0
   11.9939  -19.0790   22.3519 O   0  0  0  0  0  0  0  0  0  0  0  0
   12.4614  -17.2357   20.8820 C   0  0  2  0  0  0  0  0  0  0  0  0
   11.1798  -16.8641   20.4026 N   0  0  0  0  0  0  0  0  0  0  0  0
   13.3036  -18.0134   19.9042 C   0  0  0  0  0  0  0  0  0  0  0  0
   12.7383  -18.8807   19.1507 O   0  0  0  0  0  0  0  0  0  0  0  0
   14.6573  -17.8847   19.7370 O   0  0  0  0  0  0  0  0  0  0  0  0
  2  1  1  1
  3  2  1  0
  3  4  1  0
  4  5  2  0
  5  6  1  0
  7  6  1  0
  8  7  2  0
  9  8  1  0
 10 11  1  0
 10  9  2  0
 11 12  2  0
 12  4  1  0
 12  7  1  0
 13 14  2  0
 13  2  1  0
 15 13  1  0
 16 19  1  0
 16 15  1  0
 16 17  1  6
 18 17  1  0
 19 20  2  0
 22 21  1  1
 22 23  1  0
 24 22  1  0
 25 19  1  0
 24 25  1  6
 26 28  1  0
 26 24  1  0
 27 26  2  0
M  END
$$$$
