WCT.pdb
     RDKit          3D

 28 29  0  0  1  0  0  0  0  0999 V2000
    6.9319  -17.6699   23.8620 N   0  0  0  0  0  0  0  0  0  0  0  0
    7.9442  -16.6233   23.6296 C   0  0  1  0  0  0  0  0  0  0  0  0
    8.3425  -16.1530   24.9905 C   0  0  0  0  0  0  0  0  0  0  0  0
    7.3843  -15.2066   25.6165 C   0  0  0  0  0  0  0  0  0  0  0  0
    6.1565  -15.5590   26.1929 C   0  0  0  0  0  0  0  0  0  0  0  0
    5.5715  -14.4649   26.6878 N   0  0  0  0  0  0  0  0  0  0  0  0
    6.3694  -13.3987   26.4585 C   0  0  0  0  0  0  0  0  0  0  0  0
    6.2681  -12.0647   26.7383 C   0  0  0  0  0  0  0  0  0  0  0  0
    7.2660  -11.2176   26.3605 C   0  0  0  0  0  0  0  0  0  0  0  0
    8.3958  -11.6473   25.6960 C   0  0  0  0  0  0  0  0  0  0  0  0
    8.5053  -12.9891   25.4107 C   0  0  0  0  0  0  0  0  0  0  0  0
    7.5030  -13.8712   25.7865 C   0  0  0  0  0  0  0  0  0  0  0  0
    8.9842  -17.1574   22.7712 C   0  0  0  0  0  0  0  0  0  0  0  0
    9.4020  -18.3413   22.8671 O   0  0  0  0  0  0  0  0  0  0  0  0
    9.6241  -16.3800   21.7315 N   0  0  0  0  0  0  0  0  0  0  0  0
   10.8011  -16.8456   21.0475 C   0  0  1  0  0  0  0  0  0  0  0  0
   11.0096  -15.8417   19.8873 C   0  0  0  0  0  0  0  0  0  0  0  0
    9.6323  -16.0103   18.7208 S   0  0  0  0  0  0  0  0  0  0  0  0
   12.0251  -16.8882   21.8888 C   0  0  0  0  0  0  0  0  0  0  0  0
   12.2989  -15.8849   22.6038 O   0  0  0  0  0  0  0  0  0  0  0  0
   13.0016  -18.8710   24.9484 C   0  0  0  0  0  0  0  0  0  0  0  0
   13.9567  -19.2112   23.8313 C   0  0  1  0  0  0  0  0  0  0  0  0
   13.7592  -20.4997   23.3227 O   0  0  0  0  0  0  0  0  0  0  0  0
   14.0456  -18.1790   22.7669 C   0  0  2  0  0  0  0  0  0  0  0  0
   12.9099  -17.9991   21.9373 N   0  0  0  0  0  0  0  0  0  0  0  0
   15.3629  -18.2289   22.0371 C   0  0  0  0  0  0  0  0  0  0  0  0
   15.3685  -18.4916   20.7839 O   0  0  0  0  0  0  0  0  0  0  0  0
   16.5951  -18.0184   22.5977 O   0  0  0  0  0  0  0  0  0  0  0  0
  2  1  1  1
  3  2  1  0
  3  4  1  0
  4  5  2  0
  5  6  1  0
  7  6  1  0
  8  7  2  0
  9  8  1  0
 10 11  1  0
 10  9  2  0
 11 12  2  0
 12  4  1  0
 12  7  1  0
 13 14  2  0
 13  2  1  0
 15 13  1  0
 16 19  1  0
 16 15  1  0
 16 17  1  6
 18 17  1  0
 19 20  2  0
 22 21  1  1
 22 23  1  0
 24 22  1  0
 25 19  1  0
 24 25  1  6
 26 28  1  0
 26 24  1  0
 27 26  2  0
M  END
$$$$
