WCT.pdb
     RDKit          3D

 28 29  0  0  1  0  0  0  0  0999 V2000
    5.9817  -17.6540   24.5288 N   0  0  0  0  0  0  0  0  0  0  0  0
    6.5495  -16.3703   24.0772 C   0  0  1  0  0  0  0  0  0  0  0  0
    7.4212  -15.9098   25.1996 C   0  0  0  0  0  0  0  0  0  0  0  0
    6.9061  -14.7224   25.9280 C   0  0  0  0  0  0  0  0  0  0  0  0
    5.6818  -14.6559   26.6066 C   0  0  0  0  0  0  0  0  0  0  0  0
    5.5566  -13.4528   27.1733 N   0  0  0  0  0  0  0  0  0  0  0  0
    6.6561  -12.7190   26.8930 C   0  0  0  0  0  0  0  0  0  0  0  0
    7.0493  -11.4481   27.2064 C   0  0  0  0  0  0  0  0  0  0  0  0
    8.2474  -10.9814   26.7559 C   0  0  0  0  0  0  0  0  0  0  0  0
    9.1002  -11.7423   25.9835 C   0  0  0  0  0  0  0  0  0  0  0  0
    8.7114  -13.0231   25.6639 C   0  0  0  0  0  0  0  0  0  0  0  0
    7.4968  -13.5209   26.1120 C   0  0  0  0  0  0  0  0  0  0  0  0
    7.1681  -16.5606   22.7792 C   0  0  0  0  0  0  0  0  0  0  0  0
    7.9968  -17.4806   22.5505 O   0  0  0  0  0  0  0  0  0  0  0  0
    6.8828  -15.7159   21.6391 N   0  0  0  0  0  0  0  0  0  0  0  0
    7.7402  -15.6801   20.4843 C   0  0  1  0  0  0  0  0  0  0  0  0
    7.4412  -14.3189   19.8096 C   0  0  0  0  0  0  0  0  0  0  0  0
    8.5533  -14.1183   18.3921 S   0  0  0  0  0  0  0  0  0  0  0  0
    9.1911  -15.7695   20.7924 C   0  0  0  0  0  0  0  0  0  0  0  0
    9.6806  -14.9568   21.6246 O   0  0  0  0  0  0  0  0  0  0  0  0
   11.1471  -19.3343   21.1230 C   0  0  0  0  0  0  0  0  0  0  0  0
   11.8081  -18.0091   21.4106 C   0  0  1  0  0  0  0  0  0  0  0  0
   13.1898  -18.1225   21.6007 O   0  0  0  0  0  0  0  0  0  0  0  0
   11.4439  -16.9253   20.4625 C   0  0  2  0  0  0  0  0  0  0  0  0
   10.0646  -16.7229   20.2031 N   0  0  0  0  0  0  0  0  0  0  0  0
   12.3266  -16.9196   19.2413 C   0  0  0  0  0  0  0  0  0  0  0  0
   11.8209  -17.2365   18.1085 O   0  0  0  0  0  0  0  0  0  0  0  0
   13.6593  -16.6028   19.2206 O   0  0  0  0  0  0  0  0  0  0  0  0
  2  1  1  1
  3  2  1  0
  3  4  1  0
  4  5  2  0
  5  6  1  0
  7  6  1  0
  8  7  2  0
  9  8  1  0
 10 11  1  0
 10  9  2  0
 11 12  2  0
 12  4  1  0
 12  7  1  0
 13 14  2  0
 13  2  1  0
 15 13  1  0
 16 19  1  0
 16 15  1  0
 16 17  1  1
 18 17  1  0
 19 20  2  0
 22 21  1  6
 22 23  1  0
 24 22  1  0
 25 19  1  0
 24 25  1  6
 26 28  1  0
 26 24  1  0
 27 26  2  0
M  END
$$$$
