WCT.pdb
     RDKit          3D

 28 29  0  0  1  0  0  0  0  0999 V2000
    6.6362  -18.4111   25.1737 N   0  0  0  0  0  0  0  0  0  0  0  0
    6.9766  -17.0898   24.6147 C   0  0  1  0  0  0  0  0  0  0  0  0
    7.6132  -16.3398   25.7390 C   0  0  0  0  0  0  0  0  0  0  0  0
    6.8465  -15.1524   26.1951 C   0  0  0  0  0  0  0  0  0  0  0  0
    5.5064  -15.1613   26.6049 C   0  0  0  0  0  0  0  0  0  0  0  0
    5.1514  -13.9291   26.9789 N   0  0  0  0  0  0  0  0  0  0  0  0
    6.2106  -13.1031   26.8304 C   0  0  0  0  0  0  0  0  0  0  0  0
    6.4070  -11.7688   27.0517 C   0  0  0  0  0  0  0  0  0  0  0  0
    7.6231  -11.2127   26.7910 C   0  0  0  0  0  0  0  0  0  0  0  0
    8.6872  -11.9434   26.3047 C   0  0  0  0  0  0  0  0  0  0  0  0
    8.4974  -13.2877   26.0794 C   0  0  0  0  0  0  0  0  0  0  0  0
    7.2687  -13.8767   26.3385 C   0  0  0  0  0  0  0  0  0  0  0  0
    7.7548  -17.2775   23.4051 C   0  0  0  0  0  0  0  0  0  0  0  0
    8.6589  -18.1484   23.3079 O   0  0  0  0  0  0  0  0  0  0  0  0
    7.5556  -16.4865   22.2096 N   0  0  0  0  0  0  0  0  0  0  0  0
    8.5213  -16.4614   21.1433 C   0  0  1  0  0  0  0  0  0  0  0  0
    8.1158  -15.2498   20.2686 C   0  0  0  0  0  0  0  0  0  0  0  0
    9.2572  -15.1415   18.8643 S   0  0  0  0  0  0  0  0  0  0  0  0
    9.9284  -16.2970   21.5915 C   0  0  0  0  0  0  0  0  0  0  0  0
   10.2214  -15.2932   22.2981 O   0  0  0  0  0  0  0  0  0  0  0  0
   12.3612  -17.5881   24.0635 C   0  0  0  0  0  0  0  0  0  0  0  0
   12.8521  -17.9782   22.6914 C   0  0  1  0  0  0  0  0  0  0  0  0
   12.6932  -19.3429   22.4265 O   0  0  0  0  0  0  0  0  0  0  0  0
   12.3470  -17.1154   21.5928 C   0  0  2  0  0  0  0  0  0  0  0  0
   10.9693  -17.2098   21.2711 N   0  0  0  0  0  0  0  0  0  0  0  0
   13.2762  -17.1055   20.4066 C   0  0  0  0  0  0  0  0  0  0  0  0
   14.4759  -16.6856   20.5615 O   0  0  0  0  0  0  0  0  0  0  0  0
   12.9558  -17.5101   19.1376 O   0  0  0  0  0  0  0  0  0  0  0  0
  2  1  1  1
  3  2  1  0
  3  4  1  0
  4  5  2  0
  5  6  1  0
  7  6  1  0
  8  7  2  0
  9  8  1  0
 10 11  1  0
 10  9  2  0
 11 12  2  0
 12  4  1  0
 12  7  1  0
 13 14  2  0
 13  2  1  0
 15 13  1  0
 16 19  1  0
 16 15  1  0
 16 17  1  6
 18 17  1  0
 19 20  2  0
 22 21  1  1
 22 23  1  0
 24 22  1  0
 25 19  1  0
 24 25  1  6
 26 28  1  0
 26 24  1  0
 27 26  2  0
M  END
$$$$
