WCT.pdb
     RDKit          3D

 28 29  0  0  1  0  0  0  0  0999 V2000
    6.7768  -18.7670   24.7531 N   0  0  0  0  0  0  0  0  0  0  0  0
    7.0023  -17.3450   24.4348 C   0  0  1  0  0  0  0  0  0  0  0  0
    7.5310  -16.7396   25.6941 C   0  0  0  0  0  0  0  0  0  0  0  0
    6.8866  -15.4568   26.0748 C   0  0  0  0  0  0  0  0  0  0  0  0
    5.5098  -15.2614   26.2482 C   0  0  0  0  0  0  0  0  0  0  0  0
    5.2872  -13.9982   26.6209 N   0  0  0  0  0  0  0  0  0  0  0  0
    6.4697  -13.3489   26.6998 C   0  0  0  0  0  0  0  0  0  0  0  0
    6.8258  -12.0693   27.0219 C   0  0  0  0  0  0  0  0  0  0  0  0
    8.1395  -11.7087   27.0029 C   0  0  0  0  0  0  0  0  0  0  0  0
    9.1482  -12.5877   26.6677 C   0  0  0  0  0  0  0  0  0  0  0  0
    8.7977  -13.8781   26.3422 C   0  0  0  0  0  0  0  0  0  0  0  0
    7.4671  -14.2692   26.3557 C   0  0  0  0  0  0  0  0  0  0  0  0
    7.8286  -17.2547   23.2462 C   0  0  0  0  0  0  0  0  0  0  0  0
    8.6062  -18.1780   22.8883 O   0  0  0  0  0  0  0  0  0  0  0  0
    7.8258  -16.1023   22.3706 N   0  0  0  0  0  0  0  0  0  0  0  0
    8.6462  -16.0408   21.1902 C   0  0  1  0  0  0  0  0  0  0  0  0
    8.1079  -14.8261   20.3951 C   0  0  0  0  0  0  0  0  0  0  0  0
    6.3012  -14.9463   20.3067 S   0  0  0  0  0  0  0  0  0  0  0  0
   10.0956  -15.8518   21.4576 C   0  0  0  0  0  0  0  0  0  0  0  0
   10.8749  -15.7077   20.4755 O   0  0  0  0  0  0  0  0  0  0  0  0
   11.8174  -15.0794   25.4236 C   0  0  0  0  0  0  0  0  0  0  0  0
   12.2548  -16.2701   24.6071 C   0  0  1  0  0  0  0  0  0  0  0  0
   11.8129  -17.4855   25.1413 O   0  0  0  0  0  0  0  0  0  0  0  0
   11.9828  -16.1473   23.1520 C   0  0  2  0  0  0  0  0  0  0  0  0
   10.6590  -15.8219   22.7619 N   0  0  0  0  0  0  0  0  0  0  0  0
   12.6229  -17.2576   22.3597 C   0  0  0  0  0  0  0  0  0  0  0  0
   11.8747  -18.0617   21.7016 O   0  0  0  0  0  0  0  0  0  0  0  0
   13.9678  -17.5038   22.2723 O   0  0  0  0  0  0  0  0  0  0  0  0
  2  1  1  1
  3  2  1  0
  3  4  1  0
  4  5  2  0
  5  6  1  0
  7  6  1  0
  8  7  2  0
  9  8  1  0
 10 11  1  0
 10  9  2  0
 11 12  2  0
 12  4  1  0
 12  7  1  0
 13 14  2  0
 13  2  1  0
 15 13  1  0
 16 19  1  0
 16 15  1  0
 16 17  1  6
 18 17  1  0
 19 20  2  0
 22 21  1  1
 22 23  1  0
 24 22  1  0
 25 19  1  0
 24 25  1  1
 26 28  1  0
 26 24  1  0
 27 26  2  0
M  END
$$$$
