WCT.pdb
     RDKit          3D

 28 29  0  0  1  0  0  0  0  0999 V2000
    6.4926  -17.9282   24.6554 N   0  0  0  0  0  0  0  0  0  0  0  0
    7.0731  -16.7398   24.0035 C   0  0  1  0  0  0  0  0  0  0  0  0
    7.8083  -16.0181   25.0853 C   0  0  0  0  0  0  0  0  0  0  0  0
    7.0131  -14.9680   25.7713 C   0  0  0  0  0  0  0  0  0  0  0  0
    5.8470  -15.1910   26.5158 C   0  0  0  0  0  0  0  0  0  0  0  0
    5.4150  -14.0306   27.0168 N   0  0  0  0  0  0  0  0  0  0  0  0
    6.2548  -13.0454   26.6293 C   0  0  0  0  0  0  0  0  0  0  0  0
    6.2913  -11.6959   26.8432 C   0  0  0  0  0  0  0  0  0  0  0  0
    7.2931  -10.9523   26.2960 C   0  0  0  0  0  0  0  0  0  0  0  0
    8.2920  -11.5039   25.5210 C   0  0  0  0  0  0  0  0  0  0  0  0
    8.2623  -12.8620   25.3011 C   0  0  0  0  0  0  0  0  0  0  0  0
    7.2532  -13.6403   25.8488 C   0  0  0  0  0  0  0  0  0  0  0  0
    7.8312  -17.1641   22.8420 C   0  0  0  0  0  0  0  0  0  0  0  0
    8.4008  -18.2851   22.7755 O   0  0  0  0  0  0  0  0  0  0  0  0
    7.9925  -16.3406   21.6628 N   0  0  0  0  0  0  0  0  0  0  0  0
    8.8681  -16.7172   20.5849 C   0  0  1  0  0  0  0  0  0  0  0  0
    8.4768  -15.7859   19.4114 C   0  0  0  0  0  0  0  0  0  0  0  0
    7.8767  -14.2167   20.0925 S   0  0  0  0  0  0  0  0  0  0  0  0
   10.3148  -16.5544   20.8822 C   0  0  0  0  0  0  0  0  0  0  0  0
   10.7217  -15.4337   21.2959 O   0  0  0  0  0  0  0  0  0  0  0  0
   12.5602  -17.6209   23.5929 C   0  0  0  0  0  0  0  0  0  0  0  0
   13.0417  -18.2819   22.3252 C   0  0  1  0  0  0  0  0  0  0  0  0
   12.7584  -19.6516   22.2866 O   0  0  0  0  0  0  0  0  0  0  0  0
   12.6465  -17.5763   21.0792 C   0  0  2  0  0  0  0  0  0  0  0  0
   11.2726  -17.5930   20.7290 N   0  0  0  0  0  0  0  0  0  0  0  0
   13.5945  -17.8586   19.9426 C   0  0  0  0  0  0  0  0  0  0  0  0
   13.1875  -18.5662   18.9561 O   0  0  0  0  0  0  0  0  0  0  0  0
   14.8907  -17.4236   19.8568 O   0  0  0  0  0  0  0  0  0  0  0  0
  2  1  1  1
  3  2  1  0
  3  4  1  0
  4  5  2  0
  5  6  1  0
  7  6  1  0
  8  7  2  0
  9  8  1  0
 10 11  1  0
 10  9  2  0
 11 12  2  0
 12  4  1  0
 12  7  1  0
 13 14  2  0
 13  2  1  0
 15 13  1  0
 16 19  1  0
 16 15  1  0
 16 17  1  6
 18 17  1  0
 19 20  2  0
 22 21  1  1
 22 23  1  0
 24 22  1  0
 25 19  1  0
 24 25  1  6
 26 28  1  0
 26 24  1  0
 27 26  2  0
M  END
$$$$
