WCT.pdb
     RDKit          3D

 28 29  0  0  1  0  0  0  0  0999 V2000
    6.3949  -17.7195   24.5549 N   0  0  0  0  0  0  0  0  0  0  0  0
    6.7748  -16.3855   24.0547 C   0  0  1  0  0  0  0  0  0  0  0  0
    7.6278  -15.7918   25.1279 C   0  0  0  0  0  0  0  0  0  0  0  0
    6.9291  -14.8047   25.9900 C   0  0  0  0  0  0  0  0  0  0  0  0
    5.8571  -15.0914   26.8459 C   0  0  0  0  0  0  0  0  0  0  0  0
    5.4983  -13.9784   27.4914 N   0  0  0  0  0  0  0  0  0  0  0  0
    6.2955  -12.9631   27.0920 C   0  0  0  0  0  0  0  0  0  0  0  0
    6.3697  -11.6368   27.4139 C   0  0  0  0  0  0  0  0  0  0  0  0
    7.3067  -10.8483   26.8169 C   0  0  0  0  0  0  0  0  0  0  0  0
    8.2018  -11.3309   25.8849 C   0  0  0  0  0  0  0  0  0  0  0  0
    8.1335  -12.6654   25.5556 C   0  0  0  0  0  0  0  0  0  0  0  0
    7.1890  -13.4883   26.1510 C   0  0  0  0  0  0  0  0  0  0  0  0
    7.3569  -16.5271   22.7337 C   0  0  0  0  0  0  0  0  0  0  0  0
    8.0303  -17.5350   22.3932 O   0  0  0  0  0  0  0  0  0  0  0  0
    7.2094  -15.5283   21.6967 N   0  0  0  0  0  0  0  0  0  0  0  0
    8.0080  -15.5492   20.5001 C   0  0  1  0  0  0  0  0  0  0  0  0
    7.8762  -14.1240   19.9095 C   0  0  0  0  0  0  0  0  0  0  0  0
    8.8233  -14.0467   18.3658 S   0  0  0  0  0  0  0  0  0  0  0  0
    9.4438  -15.8592   20.7242 C   0  0  0  0  0  0  0  0  0  0  0  0
   10.0876  -15.1607   21.5551 O   0  0  0  0  0  0  0  0  0  0  0  0
   13.2976  -18.9763   20.5704 C   0  0  0  0  0  0  0  0  0  0  0  0
   11.8225  -18.6652   20.5148 C   0  0  1  0  0  0  0  0  0  0  0  0
   11.1312  -19.1126   21.6461 O   0  0  0  0  0  0  0  0  0  0  0  0
   11.5072  -17.2560   20.1666 C   0  0  2  0  0  0  0  0  0  0  0  0
   10.1384  -16.9031   20.0554 N   0  0  0  0  0  0  0  0  0  0  0  0
   12.3887  -16.7341   19.0617 C   0  0  0  0  0  0  0  0  0  0  0  0
   12.0069  -16.8690   17.8469 O   0  0  0  0  0  0  0  0  0  0  0  0
   13.5980  -16.1128   19.2307 O   0  0  0  0  0  0  0  0  0  0  0  0
  2  1  1  1
  3  2  1  0
  3  4  1  0
  4  5  2  0
  5  6  1  0
  7  6  1  0
  8  7  2  0
  9  8  1  0
 10 11  1  0
 10  9  2  0
 11 12  2  0
 12  4  1  0
 12  7  1  0
 13 14  2  0
 13  2  1  0
 15 13  1  0
 16 19  1  0
 16 15  1  0
 16 17  1  1
 18 17  1  0
 19 20  2  0
 22 21  1  1
 22 23  1  0
 24 22  1  0
 25 19  1  0
 24 25  1  6
 26 28  1  0
 26 24  1  0
 27 26  2  0
M  END
$$$$
