WCT.pdb
     RDKit          3D

 28 29  0  0  1  0  0  0  0  0999 V2000
    6.7240  -17.3835   23.4423 N   0  0  0  0  0  0  0  0  0  0  0  0
    8.0431  -16.7326   23.5446 C   0  0  1  0  0  0  0  0  0  0  0  0
    8.2478  -16.4870   25.0039 C   0  0  0  0  0  0  0  0  0  0  0  0
    7.3168  -15.4918   25.5943 C   0  0  0  0  0  0  0  0  0  0  0  0
    6.1130  -15.7942   26.2448 C   0  0  0  0  0  0  0  0  0  0  0  0
    5.5498  -14.6632   26.6782 N   0  0  0  0  0  0  0  0  0  0  0  0
    6.3390  -13.6209   26.3366 C   0  0  0  0  0  0  0  0  0  0  0  0
    6.2506  -12.2691   26.5181 C   0  0  0  0  0  0  0  0  0  0  0  0
    7.2335  -11.4574   26.0372 C   0  0  0  0  0  0  0  0  0  0  0  0
    8.3349  -11.9410   25.3623 C   0  0  0  0  0  0  0  0  0  0  0  0
    8.4312  -13.3011   25.1756 C   0  0  0  0  0  0  0  0  0  0  0  0
    7.4439  -14.1478   25.6573 C   0  0  0  0  0  0  0  0  0  0  0  0
    9.0246  -17.5483   22.8553 C   0  0  0  0  0  0  0  0  0  0  0  0
    9.0846  -18.7985   22.9921 O   0  0  0  0  0  0  0  0  0  0  0  0
   10.0112  -16.9977   21.9508 N   0  0  0  0  0  0  0  0  0  0  0  0
   11.1822  -17.7366   21.5597 C   0  0  1  0  0  0  0  0  0  0  0  0
   11.6105  -17.1155   20.2075 C   0  0  0  0  0  0  0  0  0  0  0  0
   11.7320  -15.3179   20.4084 S   0  0  0  0  0  0  0  0  0  0  0  0
   12.3121  -17.6524   22.5209 C   0  0  0  0  0  0  0  0  0  0  0  0
   12.7983  -16.5170   22.7800 O   0  0  0  0  0  0  0  0  0  0  0  0
   12.6660  -18.5284   26.3132 C   0  0  0  0  0  0  0  0  0  0  0  0
   13.5808  -19.3841   25.4725 C   0  0  1  0  0  0  0  0  0  0  0  0
   13.1579  -20.7157   25.3948 O   0  0  0  0  0  0  0  0  0  0  0  0
   13.9101  -18.8057   24.1445 C   0  0  2  0  0  0  0  0  0  0  0  0
   12.8797  -18.7816   23.1708 N   0  0  0  0  0  0  0  0  0  0  0  0
   15.2502  -19.2734   23.6388 C   0  0  0  0  0  0  0  0  0  0  0  0
   16.2927  -19.0541   24.3491 O   0  0  0  0  0  0  0  0  0  0  0  0
   15.4735  -19.9277   22.4560 O   0  0  0  0  0  0  0  0  0  0  0  0
  2  1  1  1
  3  2  1  0
  3  4  1  0
  4  5  2  0
  5  6  1  0
  7  6  1  0
  8  7  2  0
  9  8  1  0
 10 11  1  0
 10  9  2  0
 11 12  2  0
 12  4  1  0
 12  7  1  0
 13 14  2  0
 13  2  1  0
 15 13  1  0
 16 19  1  0
 16 15  1  0
 16 17  1  6
 18 17  1  0
 19 20  2  0
 22 21  1  6
 22 23  1  0
 24 22  1  0
 25 19  1  0
 24 25  1  6
 26 28  1  0
 26 24  1  0
 27 26  2  0
M  END
$$$$
