WCT.pdb
     RDKit          3D

 28 29  0  0  1  0  0  0  0  0999 V2000
    6.2067  -17.2709   24.6672 N   0  0  0  0  0  0  0  0  0  0  0  0
    7.3720  -17.0916   23.7818 C   0  0  1  0  0  0  0  0  0  0  0  0
    8.1220  -15.9312   24.3498 C   0  0  0  0  0  0  0  0  0  0  0  0
    7.3241  -15.0736   25.2629 C   0  0  0  0  0  0  0  0  0  0  0  0
    6.4007  -15.5370   26.2096 C   0  0  0  0  0  0  0  0  0  0  0  0
    5.8935  -14.4968   26.8768 N   0  0  0  0  0  0  0  0  0  0  0  0
    6.4489  -13.3592   26.4040 C   0  0  0  0  0  0  0  0  0  0  0  0
    6.2982  -12.0357   26.7102 C   0  0  0  0  0  0  0  0  0  0  0  0
    7.0166  -11.0991   26.0299 C   0  0  0  0  0  0  0  0  0  0  0  0
    7.9057  -11.4261   25.0273 C   0  0  0  0  0  0  0  0  0  0  0  0
    8.0631  -12.7566   24.7133 C   0  0  0  0  0  0  0  0  0  0  0  0
    7.3437  -13.7286   25.3928 C   0  0  0  0  0  0  0  0  0  0  0  0
    8.0742  -18.3556   23.6671 C   0  0  0  0  0  0  0  0  0  0  0  0
    7.7703  -19.3656   24.3547 O   0  0  0  0  0  0  0  0  0  0  0  0
    9.1760  -18.5644   22.7522 N   0  0  0  0  0  0  0  0  0  0  0  0
    9.1968  -17.9777   21.4386 C   0  0  1  0  0  0  0  0  0  0  0  0
    7.9613  -17.0453   21.4004 C   0  0  0  0  0  0  0  0  0  0  0  0
    6.6224  -17.8938   20.5207 S   0  0  0  0  0  0  0  0  0  0  0  0
   10.4193  -17.1889   21.1367 C   0  0  0  0  0  0  0  0  0  0  0  0
   10.5575  -16.7142   19.9755 O   0  0  0  0  0  0  0  0  0  0  0  0
   13.5806  -15.5716   20.5087 C   0  0  0  0  0  0  0  0  0  0  0  0
   13.8428  -16.3839   21.7527 C   0  0  1  0  0  0  0  0  0  0  0  0
   14.1793  -15.5921   22.8562 O   0  0  0  0  0  0  0  0  0  0  0  0
   12.7910  -17.3862   22.0618 C   0  0  2  0  0  0  0  0  0  0  0  0
   11.4472  -16.9344   22.0844 N   0  0  0  0  0  0  0  0  0  0  0  0
   13.1794  -18.2797   23.2111 C   0  0  0  0  0  0  0  0  0  0  0  0
   12.4283  -18.3198   24.2474 O   0  0  0  0  0  0  0  0  0  0  0  0
   14.2926  -19.0766   23.2625 O   0  0  0  0  0  0  0  0  0  0  0  0
  2  1  1  1
  3  2  1  0
  3  4  1  0
  4  5  2  0
  5  6  1  0
  7  6  1  0
  8  7  2  0
  9  8  1  0
 10 11  1  0
 10  9  2  0
 11 12  2  0
 12  4  1  0
 12  7  1  0
 13 14  2  0
 13  2  1  0
 15 13  1  0
 16 19  1  0
 16 15  1  0
 16 17  1  1
 18 17  1  0
 19 20  2  0
 22 21  1  6
 22 23  1  0
 24 22  1  0
 25 19  1  0
 24 25  1  1
 26 28  1  0
 26 24  1  0
 27 26  2  0
M  END
$$$$
