WCT.pdb
     RDKit          3D

 28 29  0  0  1  0  0  0  0  0999 V2000
    6.8130  -18.7126   25.2867 N   0  0  0  0  0  0  0  0  0  0  0  0
    6.9208  -17.3207   24.8123 C   0  0  1  0  0  0  0  0  0  0  0  0
    7.5257  -16.5639   25.9495 C   0  0  0  0  0  0  0  0  0  0  0  0
    6.7896  -15.3297   26.3246 C   0  0  0  0  0  0  0  0  0  0  0  0
    5.4101  -15.2477   26.5574 C   0  0  0  0  0  0  0  0  0  0  0  0
    5.0951  -13.9971   26.9051 N   0  0  0  0  0  0  0  0  0  0  0  0
    6.2189  -13.2466   26.9101 C   0  0  0  0  0  0  0  0  0  0  0  0
    6.4762  -11.9316   27.1796 C   0  0  0  0  0  0  0  0  0  0  0  0
    7.7512  -11.4604   27.0886 C   0  0  0  0  0  0  0  0  0  0  0  0
    8.8168  -12.2599   26.7305 C   0  0  0  0  0  0  0  0  0  0  0  0
    8.5659  -13.5851   26.4578 C   0  0  0  0  0  0  0  0  0  0  0  0
    7.2763  -14.0883   26.5449 C   0  0  0  0  0  0  0  0  0  0  0  0
    7.6266  -17.3091   23.5452 C   0  0  0  0  0  0  0  0  0  0  0  0
    8.5095  -18.1576   23.2523 O   0  0  0  0  0  0  0  0  0  0  0  0
    7.3733  -16.3284   22.5114 N   0  0  0  0  0  0  0  0  0  0  0  0
    8.2002  -16.2276   21.3383 C   0  0  1  0  0  0  0  0  0  0  0  0
    7.7727  -14.9011   20.6637 C   0  0  0  0  0  0  0  0  0  0  0  0
    8.7445  -14.6820   19.1491 S   0  0  0  0  0  0  0  0  0  0  0  0
    9.6596  -16.1916   21.6158 C   0  0  0  0  0  0  0  0  0  0  0  0
   10.1200  -15.2306   22.2920 O   0  0  0  0  0  0  0  0  0  0  0  0
   12.1429  -18.4888   23.5205 C   0  0  0  0  0  0  0  0  0  0  0  0
   12.5320  -18.4066   22.0652 C   0  0  1  0  0  0  0  0  0  0  0  0
   12.3216  -19.6078   21.3792 O   0  0  0  0  0  0  0  0  0  0  0  0
   11.9773  -17.2292   21.3493 C   0  0  2  0  0  0  0  0  0  0  0  0
   10.5724  -17.1823   21.1634 N   0  0  0  0  0  0  0  0  0  0  0  0
   12.7906  -16.8704   20.1327 C   0  0  0  0  0  0  0  0  0  0  0  0
   12.2608  -16.9933   18.9735 O   0  0  0  0  0  0  0  0  0  0  0  0
   14.0825  -16.4145   20.1416 O   0  0  0  0  0  0  0  0  0  0  0  0
  2  1  1  1
  3  2  1  0
  3  4  1  0
  4  5  2  0
  5  6  1  0
  7  6  1  0
  8  7  2  0
  9  8  1  0
 10 11  1  0
 10  9  2  0
 11 12  2  0
 12  4  1  0
 12  7  1  0
 13 14  2  0
 13  2  1  0
 15 13  1  0
 16 19  1  0
 16 15  1  0
 16 17  1  1
 18 17  1  0
 19 20  2  0
 22 21  1  1
 22 23  1  0
 24 22  1  0
 25 19  1  0
 24 25  1  6
 26 28  1  0
 26 24  1  0
 27 26  2  0
M  END
$$$$
