WCT.pdb
     RDKit          3D

 28 29  0  0  1  0  0  0  0  0999 V2000
    6.5234  -17.0906   24.6346 N   0  0  0  0  0  0  0  0  0  0  0  0
    7.0698  -15.8560   24.0418 C   0  0  1  0  0  0  0  0  0  0  0  0
    8.3437  -15.5972   24.7779 C   0  0  0  0  0  0  0  0  0  0  0  0
    8.1739  -14.8600   26.0560 C   0  0  0  0  0  0  0  0  0  0  0  0
    8.5007  -15.3537   27.3261 C   0  0  0  0  0  0  0  0  0  0  0  0
    8.2497  -14.4146   28.2422 N   0  0  0  0  0  0  0  0  0  0  0  0
    7.7668  -13.3150   27.6227 C   0  0  0  0  0  0  0  0  0  0  0  0
    7.3497  -12.0895   28.0613 C   0  0  0  0  0  0  0  0  0  0  0  0
    6.8974  -11.1692   27.1643 C   0  0  0  0  0  0  0  0  0  0  0  0
    6.8376  -11.4174   25.8087 C   0  0  0  0  0  0  0  0  0  0  0  0
    7.2559  -12.6490   25.3593 C   0  0  0  0  0  0  0  0  0  0  0  0
    7.7217  -13.6018   26.2532 C   0  0  0  0  0  0  0  0  0  0  0  0
    7.1456  -16.0192   22.6025 C   0  0  0  0  0  0  0  0  0  0  0  0
    7.2848  -17.1436   22.0533 O   0  0  0  0  0  0  0  0  0  0  0  0
    7.0623  -14.9085   21.6783 N   0  0  0  0  0  0  0  0  0  0  0  0
    7.5223  -15.0127   20.3190 C   0  0  1  0  0  0  0  0  0  0  0  0
    7.4592  -13.5677   19.7664 C   0  0  0  0  0  0  0  0  0  0  0  0
    7.9072  -13.5992   18.0101 S   0  0  0  0  0  0  0  0  0  0  0  0
    8.9059  -15.5352   20.1762 C   0  0  0  0  0  0  0  0  0  0  0  0
    9.8000  -15.0893   20.9472 O   0  0  0  0  0  0  0  0  0  0  0  0
   10.9927  -17.9832   21.3766 C   0  0  0  0  0  0  0  0  0  0  0  0
   10.8520  -18.3073   19.9100 C   0  0  1  0  0  0  0  0  0  0  0  0
    9.9974  -19.3897   19.6735 O   0  0  0  0  0  0  0  0  0  0  0  0
   10.5478  -17.1344   19.0508 C   0  0  2  0  0  0  0  0  0  0  0  0
    9.2836  -16.5146   19.2182 N   0  0  0  0  0  0  0  0  0  0  0  0
   10.9600  -17.3583   17.6189 C   0  0  0  0  0  0  0  0  0  0  0  0
   10.0690  -17.3042   16.7008 O   0  0  0  0  0  0  0  0  0  0  0  0
   12.2321  -17.6259   17.1864 O   0  0  0  0  0  0  0  0  0  0  0  0
  2  1  1  1
  3  2  1  0
  3  4  1  0
  4  5  2  0
  5  6  1  0
  7  6  1  0
  8  7  2  0
  9  8  1  0
 10 11  1  0
 10  9  2  0
 11 12  2  0
 12  4  1  0
 12  7  1  0
 13 14  2  0
 13  2  1  0
 15 13  1  0
 16 19  1  0
 16 15  1  0
 16 17  1  1
 18 17  1  0
 19 20  2  0
 22 21  1  1
 22 23  1  0
 24 22  1  0
 25 19  1  0
 24 25  1  6
 26 28  1  0
 26 24  1  0
 27 26  2  0
M  END
$$$$
