QSL.pdb
     RDKit          3D

 24 23  0  0  1  0  0  0  0  0999 V2000
   12.4559  -14.0359  -18.3132 N   0  0  0  0  0  0  0  0  0  0  0  0
   11.8222  -13.9237  -17.0241 C   0  0  0  0  0  0  0  0  0  0  0  0
   10.7591  -14.5608  -16.8823 O   0  0  0  0  0  0  0  0  0  0  0  0
   12.4832  -13.0780  -16.0163 C   0  0  0  0  0  0  0  0  0  0  0  0
   13.7191  -12.4590  -16.5921 C   0  0  0  0  0  0  0  0  0  0  0  0
   14.3894  -11.5189  -15.6244 C   0  0  2  0  0  0  0  0  0  0  0  0
   13.3613  -10.4618  -15.3853 N   0  0  0  0  0  0  0  0  0  0  0  0
   15.5612  -10.8245  -16.1532 C   0  0  0  0  0  0  0  0  0  0  0  0
   16.3690  -11.4243  -16.9459 O   0  0  0  0  0  0  0  0  0  0  0  0
   17.6862   -6.5707  -17.0629 O   0  0  0  0  0  0  0  0  0  0  0  0
   16.6169   -7.4254  -16.8808 C   0  0  0  0  0  0  0  0  0  0  0  0
   17.0728   -8.8309  -16.5132 C   0  0  2  0  0  0  0  0  0  0  0  0
   15.9385   -9.4753  -15.8801 N   0  0  0  0  0  0  0  0  0  0  0  0
   18.2095   -8.6707  -15.5610 C   0  0  0  0  0  0  0  0  0  0  0  0
   17.9330   -8.3718  -14.3710 O   0  0  0  0  0  0  0  0  0  0  0  0
   22.5908  -10.2778  -13.1813 C   0  0  0  0  0  0  0  0  0  0  0  0
   22.9770   -9.7660  -14.6181 C   0  0  1  0  0  0  0  0  0  0  0  0
   24.0071  -10.7439  -15.0680 C   0  0  0  0  0  0  0  0  0  0  0  0
   21.7104   -9.6837  -15.3502 C   0  0  0  0  0  0  0  0  0  0  0  0
   20.6802   -8.6885  -14.9449 C   0  0  2  0  0  0  0  0  0  0  0  0
   19.5513   -8.8343  -15.9208 N   0  0  0  0  0  0  0  0  0  0  0  0
   21.1207   -7.3086  -15.1154 C   0  0  0  0  0  0  0  0  0  0  0  0
   21.0348   -6.7501  -16.2654 O   0  0  0  0  0  0  0  0  0  0  0  0
   21.6298   -6.5228  -14.1236 O   0  0  0  0  0  0  0  0  0  0  0  0
  2  1  1  0
  2  3  2  0
  4  2  1  0
  5  4  1  0
  6  5  1  0
  6  7  1  6
  8  6  1  0
  9  8  2  0
 10 11  1  0
 12 11  1  1
 12 13  1  0
 13  8  1  0
 14 12  1  0
 15 14  2  0
 17 16  1  1
 18 17  1  0
 19 17  1  0
 20 19  1  6
 20 21  1  0
 21 14  1  0
 22 20  1  0
 22 24  1  0
 23 22  2  0
M  END
$$$$
