QSL.pdb
     RDKit          3D

 24 23  0  0  1  0  0  0  0  0999 V2000
   17.2890  -15.9020  -17.3604 N   0  0  0  0  0  0  0  0  0  0  0  0
   17.9184  -14.9541  -16.4767 C   0  0  0  0  0  0  0  0  0  0  0  0
   18.0413  -15.3150  -15.2889 O   0  0  0  0  0  0  0  0  0  0  0  0
   18.3468  -13.6699  -17.0558 C   0  0  0  0  0  0  0  0  0  0  0  0
   17.7173  -13.4744  -18.4003 C   0  0  0  0  0  0  0  0  0  0  0  0
   18.7386  -13.1970  -19.4726 C   0  0  2  0  0  0  0  0  0  0  0  0
   19.6052  -14.4137  -19.4620 N   0  0  0  0  0  0  0  0  0  0  0  0
   19.6279  -12.0705  -19.1983 C   0  0  0  0  0  0  0  0  0  0  0  0
   20.8214  -12.2721  -18.7792 O   0  0  0  0  0  0  0  0  0  0  0  0
   18.4938   -8.0590  -19.5275 O   0  0  0  0  0  0  0  0  0  0  0  0
   19.7838   -8.4131  -19.8702 C   0  0  0  0  0  0  0  0  0  0  0  0
   20.2641   -9.6268  -19.0863 C   0  0  2  0  0  0  0  0  0  0  0  0
   19.3113  -10.6873  -19.3519 N   0  0  0  0  0  0  0  0  0  0  0  0
   20.2530   -9.2322  -17.6481 C   0  0  0  0  0  0  0  0  0  0  0  0
   19.2420   -9.5436  -16.9679 O   0  0  0  0  0  0  0  0  0  0  0  0
   24.0278  -10.3140  -13.9932 C   0  0  0  0  0  0  0  0  0  0  0  0
   22.5659  -10.1018  -14.5346 C   0  0  1  0  0  0  0  0  0  0  0  0
   21.7092  -10.5235  -13.3909 C   0  0  0  0  0  0  0  0  0  0  0  0
   22.5191   -8.7061  -14.9783 C   0  0  0  0  0  0  0  0  0  0  0  0
   21.2715   -8.1572  -15.5765 C   0  0  2  0  0  0  0  0  0  0  0  0
   21.2982   -8.5417  -17.0255 N   0  0  0  0  0  0  0  0  0  0  0  0
   21.2412   -6.6991  -15.5969 C   0  0  0  0  0  0  0  0  0  0  0  0
   21.4694   -6.0725  -16.6909 O   0  0  0  0  0  0  0  0  0  0  0  0
   20.9751   -5.9080  -14.5180 O   0  0  0  0  0  0  0  0  0  0  0  0
  2  1  1  0
  2  3  2  0
  4  2  1  0
  5  4  1  0
  6  5  1  0
  6  7  1  1
  8  6  1  0
  9  8  2  0
 10 11  1  0
 12 11  1  6
 12 13  1  0
 13  8  1  0
 14 12  1  0
 15 14  2  0
 17 16  1  1
 18 17  1  0
 19 17  1  0
 20 19  1  1
 20 21  1  0
 21 14  1  0
 22 20  1  0
 22 24  1  0
 23 22  2  0
M  END
$$$$
