QSL.pdb
     RDKit          3D

 24 23  0  0  1  0  0  0  0  0999 V2000
   29.0327  -22.1630  -14.4571 N   0  0  0  0  0  0  0  0  0  0  0  0
   28.3323  -22.0021  -15.7058 C   0  0  0  0  0  0  0  0  0  0  0  0
   28.2795  -23.0130  -16.4350 O   0  0  0  0  0  0  0  0  0  0  0  0
   27.7575  -20.6775  -15.9938 C   0  0  0  0  0  0  0  0  0  0  0  0
   27.3785  -19.9909  -14.7181 C   0  0  0  0  0  0  0  0  0  0  0  0
   26.1556  -20.6010  -14.0843 C   0  0  2  0  0  0  0  0  0  0  0  0
   25.0598  -20.2860  -15.0494 N   0  0  0  0  0  0  0  0  0  0  0  0
   25.7554  -19.9986  -12.8147 C   0  0  0  0  0  0  0  0  0  0  0  0
   25.6759  -18.7257  -12.6960 O   0  0  0  0  0  0  0  0  0  0  0  0
   23.4623  -21.6326   -9.9240 O   0  0  0  0  0  0  0  0  0  0  0  0
   23.7516  -20.2831   -9.9698 C   0  0  0  0  0  0  0  0  0  0  0  0
   25.2044  -20.0289  -10.3480 C   0  0  2  0  0  0  0  0  0  0  0  0
   25.4188  -20.6977  -11.6167 N   0  0  0  0  0  0  0  0  0  0  0  0
   26.0344  -20.6334   -9.2664 C   0  0  0  0  0  0  0  0  0  0  0  0
   26.2465  -21.8719   -9.3202 O   0  0  0  0  0  0  0  0  0  0  0  0
   30.0039  -20.3775   -5.3881 C   0  0  0  0  0  0  0  0  0  0  0  0
   28.6288  -19.6958   -5.0420 C   0  0  1  0  0  0  0  0  0  0  0  0
   29.0212  -18.5404   -4.1872 C   0  0  0  0  0  0  0  0  0  0  0  0
   27.9921  -19.4361   -6.3360 C   0  0  0  0  0  0  0  0  0  0  0  0
   27.3121  -20.5410   -7.0656 C   0  0  2  0  0  0  0  0  0  0  0  0
   26.5823  -19.9007   -8.2082 N   0  0  0  0  0  0  0  0  0  0  0  0
   26.2584  -21.1784   -6.2841 C   0  0  0  0  0  0  0  0  0  0  0  0
   26.4944  -22.2819   -5.6772 O   0  0  0  0  0  0  0  0  0  0  0  0
   24.9960  -20.6863   -6.1268 O   0  0  0  0  0  0  0  0  0  0  0  0
  2  1  1  0
  2  3  2  0
  4  2  1  0
  5  4  1  0
  6  5  1  0
  6  7  1  6
  8  6  1  0
  9  8  2  0
 10 11  1  0
 12 11  1  1
 12 13  1  0
 13  8  1  0
 14 12  1  0
 15 14  2  0
 17 16  1  6
 18 17  1  0
 19 17  1  0
 20 19  1  1
 20 21  1  0
 21 14  1  0
 22 20  1  0
 22 24  1  0
 23 22  2  0
M  END
$$$$
