QSL.pdb
     RDKit          3D

 24 23  0  0  1  0  0  0  0  0999 V2000
   29.2309  -20.2463  -18.7787 N   0  0  0  0  0  0  0  0  0  0  0  0
   28.0396  -21.0518  -18.6920 C   0  0  0  0  0  0  0  0  0  0  0  0
   27.6792  -21.6072  -19.7493 O   0  0  0  0  0  0  0  0  0  0  0  0
   27.3740  -21.1371  -17.3813 C   0  0  0  0  0  0  0  0  0  0  0  0
   28.1263  -20.3323  -16.3671 C   0  0  0  0  0  0  0  0  0  0  0  0
   28.1766  -21.0123  -15.0237 C   0  0  2  0  0  0  0  0  0  0  0  0
   27.3131  -22.2181  -15.2027 N   0  0  0  0  0  0  0  0  0  0  0  0
   27.5803  -20.2528  -13.9272 C   0  0  0  0  0  0  0  0  0  0  0  0
   27.9182  -19.0344  -13.7216 O   0  0  0  0  0  0  0  0  0  0  0  0
   24.0127  -20.9669  -12.4006 O   0  0  0  0  0  0  0  0  0  0  0  0
   24.6268  -19.7693  -12.0914 C   0  0  0  0  0  0  0  0  0  0  0  0
   26.1256  -19.9396  -11.8839 C   0  0  2  0  0  0  0  0  0  0  0  0
   26.6050  -20.7304  -13.0010 N   0  0  0  0  0  0  0  0  0  0  0  0
   26.2934  -20.6647  -10.5915 C   0  0  0  0  0  0  0  0  0  0  0  0
   26.3267  -21.9213  -10.6303 O   0  0  0  0  0  0  0  0  0  0  0  0
   28.6021  -18.5307   -5.8835 C   0  0  0  0  0  0  0  0  0  0  0  0
   28.3780  -19.6139   -7.0023 C   0  0  1  0  0  0  0  0  0  0  0  0
   29.2799  -20.7264   -6.5919 C   0  0  0  0  0  0  0  0  0  0  0  0
   26.9315  -19.8467   -7.0277 C   0  0  0  0  0  0  0  0  0  0  0  0
   26.3424  -20.7573   -8.0472 C   0  0  2  0  0  0  0  0  0  0  0  0
   26.4143  -20.0248   -9.3535 N   0  0  0  0  0  0  0  0  0  0  0  0
   24.9163  -20.9903   -7.8491 C   0  0  0  0  0  0  0  0  0  0  0  0
   24.0627  -20.3725   -8.5781 O   0  0  0  0  0  0  0  0  0  0  0  0
   24.3847  -21.8442   -6.9278 O   0  0  0  0  0  0  0  0  0  0  0  0
  2  1  1  0
  2  3  2  0
  4  2  1  0
  5  4  1  0
  6  5  1  0
  6  7  1  6
  8  6  1  0
  9  8  2  0
 10 11  1  0
 12 11  1  6
 12 13  1  0
 13  8  1  0
 14 12  1  0
 15 14  2  0
 17 16  1  1
 18 17  1  0
 19 17  1  0
 20 19  1  1
 20 21  1  0
 21 14  1  0
 22 20  1  0
 22 24  1  0
 23 22  2  0
M  END
$$$$
