QSL.pdb
     RDKit          3D

 24 23  0  0  1  0  0  0  0  0999 V2000
   17.6099  -19.5617  -15.0606 N   0  0  0  0  0  0  0  0  0  0  0  0
   18.4745  -19.7906  -13.9311 C   0  0  0  0  0  0  0  0  0  0  0  0
   19.0422  -18.7817  -13.4662 O   0  0  0  0  0  0  0  0  0  0  0  0
   18.6014  -21.1748  -13.4454 C   0  0  0  0  0  0  0  0  0  0  0  0
   20.0121  -21.6507  -13.6055 C   0  0  0  0  0  0  0  0  0  0  0  0
   20.3833  -21.8567  -15.0510 C   0  0  2  0  0  0  0  0  0  0  0  0
   19.6681  -23.1133  -15.4264 N   0  0  0  0  0  0  0  0  0  0  0  0
   21.8010  -22.1167  -15.2909 C   0  0  0  0  0  0  0  0  0  0  0  0
   22.6015  -22.3084  -14.3094 O   0  0  0  0  0  0  0  0  0  0  0  0
   23.6703  -22.2965  -19.1086 O   0  0  0  0  0  0  0  0  0  0  0  0
   23.9789  -23.1770  -18.0906 C   0  0  0  0  0  0  0  0  0  0  0  0
   23.8448  -22.5264  -16.7205 C   0  0  2  0  0  0  0  0  0  0  0  0
   22.4428  -22.1908  -16.5635 N   0  0  0  0  0  0  0  0  0  0  0  0
   24.6979  -21.3034  -16.7483 C   0  0  0  0  0  0  0  0  0  0  0  0
   24.1510  -20.2210  -17.0818 O   0  0  0  0  0  0  0  0  0  0  0  0
   28.5565  -20.3559  -12.9018 C   0  0  0  0  0  0  0  0  0  0  0  0
   27.2929  -20.1676  -13.8201 C   0  0  1  0  0  0  0  0  0  0  0  0
   26.6957  -18.8939  -13.3293 C   0  0  0  0  0  0  0  0  0  0  0  0
   27.8026  -20.2288  -15.1925 C   0  0  0  0  0  0  0  0  0  0  0  0
   26.8729  -20.0437  -16.3402 C   0  0  2  0  0  0  0  0  0  0  0  0
   26.0590  -21.3000  -16.4260 N   0  0  0  0  0  0  0  0  0  0  0  0
   27.5586  -19.9767  -17.6258 C   0  0  0  0  0  0  0  0  0  0  0  0
   27.6523  -21.0273  -18.3532 O   0  0  0  0  0  0  0  0  0  0  0  0
   28.1267  -18.8532  -18.1507 O   0  0  0  0  0  0  0  0  0  0  0  0
  2  1  1  0
  2  3  2  0
  4  2  1  0
  5  4  1  0
  6  5  1  0
  6  7  1  1
  8  6  1  0
  9  8  2  0
 10 11  1  0
 12 11  1  6
 12 13  1  0
 13  8  1  0
 14 12  1  0
 15 14  2  0
 17 16  1  1
 18 17  1  0
 19 17  1  0
 20 19  1  1
 20 21  1  0
 21 14  1  0
 22 20  1  0
 22 24  1  0
 23 22  2  0
M  END
$$$$
