QSL.pdb
     RDKit          3D

 24 23  0  0  1  0  0  0  0  0999 V2000
   11.4929  -14.5127  -10.5691 N   0  0  0  0  0  0  0  0  0  0  0  0
   11.3751  -15.2863  -11.7788 C   0  0  0  0  0  0  0  0  0  0  0  0
   10.3548  -15.9979  -11.8732 O   0  0  0  0  0  0  0  0  0  0  0  0
   12.4574  -15.1626  -12.7694 C   0  0  0  0  0  0  0  0  0  0  0  0
   13.4794  -14.1755  -12.2968 C   0  0  0  0  0  0  0  0  0  0  0  0
   14.6539  -14.0781  -13.2352 C   0  0  2  0  0  0  0  0  0  0  0  0
   15.4330  -15.3229  -12.9606 N   0  0  0  0  0  0  0  0  0  0  0  0
   15.5657  -12.9685  -12.9663 C   0  0  0  0  0  0  0  0  0  0  0  0
   16.2970  -12.9687  -11.9146 O   0  0  0  0  0  0  0  0  0  0  0  0
   16.0872   -9.7922  -15.5638 O   0  0  0  0  0  0  0  0  0  0  0  0
   17.1355  -10.1198  -14.7267 C   0  0  0  0  0  0  0  0  0  0  0  0
   16.6463  -10.7289  -13.4198 C   0  0  2  0  0  0  0  0  0  0  0  0
   15.7554  -11.8137  -13.7835 N   0  0  0  0  0  0  0  0  0  0  0  0
   15.9194   -9.6467  -12.6954 C   0  0  0  0  0  0  0  0  0  0  0  0
   14.6707   -9.5912  -12.8349 O   0  0  0  0  0  0  0  0  0  0  0  0
   13.8892   -6.7364   -8.8382 C   0  0  0  0  0  0  0  0  0  0  0  0
   15.4587   -6.6500   -8.9060 C   0  0  1  0  0  0  0  0  0  0  0  0
   15.8701   -6.7070   -7.4751 C   0  0  0  0  0  0  0  0  0  0  0  0
   15.8650   -7.7344   -9.8039 C   0  0  0  0  0  0  0  0  0  0  0  0
   15.8272   -7.5331  -11.2782 C   0  0  2  0  0  0  0  0  0  0  0  0
   16.5493   -8.7019  -11.8786 N   0  0  0  0  0  0  0  0  0  0  0  0
   16.5989   -6.3758  -11.7168 C   0  0  0  0  0  0  0  0  0  0  0  0
   16.0683   -5.2098  -11.6920 O   0  0  0  0  0  0  0  0  0  0  0  0
   17.8873   -6.4192  -12.1625 O   0  0  0  0  0  0  0  0  0  0  0  0
  2  1  1  0
  2  3  2  0
  4  2  1  0
  5  4  1  0
  6  5  1  0
  6  7  1  1
  8  6  1  0
  9  8  2  0
 10 11  1  0
 12 11  1  6
 12 13  1  0
 13  8  1  0
 14 12  1  0
 15 14  2  0
 17 16  1  1
 18 17  1  0
 19 17  1  0
 20 19  1  1
 20 21  1  0
 21 14  1  0
 22 20  1  0
 22 24  1  0
 23 22  2  0
M  END
$$$$
