QSL.pdb
     RDKit          3D

 24 23  0  0  1  0  0  0  0  0999 V2000
   21.4170  -21.3062  -15.3667 N   0  0  0  0  0  0  0  0  0  0  0  0
   20.5188  -22.4112  -15.5861 C   0  0  0  0  0  0  0  0  0  0  0  0
   19.7011  -22.6384  -14.6717 O   0  0  0  0  0  0  0  0  0  0  0  0
   20.6549  -23.1533  -16.8504 C   0  0  0  0  0  0  0  0  0  0  0  0
   21.7304  -22.5424  -17.6944 C   0  0  0  0  0  0  0  0  0  0  0  0
   22.9636  -23.4054  -17.7584 C   0  0  2  0  0  0  0  0  0  0  0  0
   22.4277  -24.7979  -17.6840 N   0  0  0  0  0  0  0  0  0  0  0  0
   23.8718  -23.2654  -16.6224 C   0  0  0  0  0  0  0  0  0  0  0  0
   23.8111  -24.0822  -15.6375 O   0  0  0  0  0  0  0  0  0  0  0  0
   26.0554  -19.8136  -15.5751 O   0  0  0  0  0  0  0  0  0  0  0  0
   26.6969  -21.0361  -15.5444 C   0  0  0  0  0  0  0  0  0  0  0  0
   25.7238  -22.1789  -15.2887 C   0  0  2  0  0  0  0  0  0  0  0  0
   24.8830  -22.2702  -16.4667 N   0  0  0  0  0  0  0  0  0  0  0  0
   24.9327  -21.7982  -14.0831 C   0  0  0  0  0  0  0  0  0  0  0  0
   23.7389  -21.4439  -14.2594 O   0  0  0  0  0  0  0  0  0  0  0  0
   24.3758  -21.5530   -8.4656 C   0  0  0  0  0  0  0  0  0  0  0  0
   25.3069  -20.5416   -9.2307 C   0  0  1  0  0  0  0  0  0  0  0  0
   26.3773  -20.2394   -8.2394 C   0  0  0  0  0  0  0  0  0  0  0  0
   25.6675  -21.2196  -10.4786 C   0  0  0  0  0  0  0  0  0  0  0  0
   24.6923  -21.2791  -11.6017 C   0  0  2  0  0  0  0  0  0  0  0  0
   25.4458  -21.8154  -12.7818 N   0  0  0  0  0  0  0  0  0  0  0  0
   24.2415  -19.9622  -12.0372 C   0  0  0  0  0  0  0  0  0  0  0  0
   23.0629  -19.5603  -11.7350 O   0  0  0  0  0  0  0  0  0  0  0  0
   24.9897  -19.0796  -12.7595 O   0  0  0  0  0  0  0  0  0  0  0  0
  2  1  1  0
  2  3  2  0
  4  2  1  0
  5  4  1  0
  6  5  1  0
  6  7  1  1
  8  6  1  0
  9  8  2  0
 10 11  1  0
 12 11  1  6
 12 13  1  0
 13  8  1  0
 14 12  1  0
 15 14  2  0
 17 16  1  1
 18 17  1  0
 19 17  1  0
 20 19  1  1
 20 21  1  0
 21 14  1  0
 22 20  1  0
 22 24  1  0
 23 22  2  0
M  END
$$$$
