QSL.pdb
     RDKit          3D

 24 23  0  0  1  0  0  0  0  0999 V2000
   16.1937  -13.7523  -18.0663 N   0  0  0  0  0  0  0  0  0  0  0  0
   17.3758  -13.5809  -18.8719 C   0  0  0  0  0  0  0  0  0  0  0  0
   18.1604  -14.5503  -18.9014 O   0  0  0  0  0  0  0  0  0  0  0  0
   17.5386  -12.2947  -19.5700 C   0  0  0  0  0  0  0  0  0  0  0  0
   18.4038  -11.3759  -18.7640 C   0  0  0  0  0  0  0  0  0  0  0  0
   19.7861  -11.2380  -19.3470 C   0  0  2  0  0  0  0  0  0  0  0  0
   20.4755  -12.4959  -18.9298 N   0  0  0  0  0  0  0  0  0  0  0  0
   20.5809  -10.1441  -18.7930 C   0  0  0  0  0  0  0  0  0  0  0  0
   21.3851  -10.3541  -17.8183 O   0  0  0  0  0  0  0  0  0  0  0  0
   19.9492   -6.0827  -19.5638 O   0  0  0  0  0  0  0  0  0  0  0  0
   21.2566   -6.5243  -19.5140 C   0  0  0  0  0  0  0  0  0  0  0  0
   21.4032   -7.7591  -18.6353 C   0  0  2  0  0  0  0  0  0  0  0  0
   20.5727   -8.7865  -19.2334 N   0  0  0  0  0  0  0  0  0  0  0  0
   20.9060   -7.3762  -17.2823 C   0  0  0  0  0  0  0  0  0  0  0  0
   19.7728   -7.7995  -16.9384 O   0  0  0  0  0  0  0  0  0  0  0  0
   21.4485   -8.7794  -12.1727 C   0  0  0  0  0  0  0  0  0  0  0  0
   21.0874   -7.3513  -12.7255 C   0  0  1  0  0  0  0  0  0  0  0  0
   21.8577   -6.4332  -11.8403 C   0  0  0  0  0  0  0  0  0  0  0  0
   21.4133   -7.3981  -14.1533 C   0  0  0  0  0  0  0  0  0  0  0  0
   21.1227   -6.2245  -15.0216 C   0  0  2  0  0  0  0  0  0  0  0  0
   21.6283   -6.5796  -16.3877 N   0  0  0  0  0  0  0  0  0  0  0  0
   21.8903   -5.0394  -14.6561 C   0  0  0  0  0  0  0  0  0  0  0  0
   23.0337   -4.8299  -15.1950 O   0  0  0  0  0  0  0  0  0  0  0  0
   21.4855   -4.0911  -13.7631 O   0  0  0  0  0  0  0  0  0  0  0  0
  2  1  1  0
  2  3  2  0
  4  2  1  0
  5  4  1  0
  6  5  1  0
  6  7  1  1
  8  6  1  0
  9  8  2  0
 10 11  1  0
 12 11  1  6
 12 13  1  0
 13  8  1  0
 14 12  1  0
 15 14  2  0
 17 16  1  1
 18 17  1  0
 19 17  1  0
 20 19  1  1
 20 21  1  0
 21 14  1  0
 22 20  1  0
 22 24  1  0
 23 22  2  0
M  END
$$$$
