QSL.pdb
     RDKit          3D

 24 23  0  0  1  0  0  0  0  0999 V2000
   15.4787  -10.7278  -16.6557 N   0  0  0  0  0  0  0  0  0  0  0  0
   15.4191  -11.3021  -17.9757 C   0  0  0  0  0  0  0  0  0  0  0  0
   14.3303  -11.8201  -18.2959 O   0  0  0  0  0  0  0  0  0  0  0  0
   16.6339  -11.2227  -18.8038 C   0  0  0  0  0  0  0  0  0  0  0  0
   17.6675  -10.3787  -18.1244 C   0  0  0  0  0  0  0  0  0  0  0  0
   18.8886  -11.1729  -17.7399 C   0  0  2  0  0  0  0  0  0  0  0  0
   18.3314  -12.4769  -17.2699 N   0  0  0  0  0  0  0  0  0  0  0  0
   19.6444  -10.6317  -16.6126 C   0  0  0  0  0  0  0  0  0  0  0  0
   19.1111  -10.5532  -15.4506 O   0  0  0  0  0  0  0  0  0  0  0  0
   23.6663  -10.0061  -16.7477 O   0  0  0  0  0  0  0  0  0  0  0  0
   23.0766  -10.1489  -15.5072 C   0  0  0  0  0  0  0  0  0  0  0  0
   21.6579   -9.5964  -15.4887 C   0  0  2  0  0  0  0  0  0  0  0  0
   20.9883  -10.1523  -16.6487 N   0  0  0  0  0  0  0  0  0  0  0  0
   21.7808   -8.1135  -15.5894 C   0  0  0  0  0  0  0  0  0  0  0  0
   21.6776   -7.5981  -16.7320 O   0  0  0  0  0  0  0  0  0  0  0  0
   21.3624   -3.3637  -16.4872 C   0  0  0  0  0  0  0  0  0  0  0  0
   20.5623   -3.8640  -15.2283 C   0  0  1  0  0  0  0  0  0  0  0  0
   19.1711   -3.4039  -15.4978 C   0  0  0  0  0  0  0  0  0  0  0  0
   20.8303   -5.3024  -15.1492 C   0  0  0  0  0  0  0  0  0  0  0  0
   22.1304   -5.7884  -14.6115 C   0  0  2  0  0  0  0  0  0  0  0  0
   22.0024   -7.2774  -14.4901 N   0  0  0  0  0  0  0  0  0  0  0  0
   22.3871   -5.3419  -13.2469 C   0  0  0  0  0  0  0  0  0  0  0  0
   22.8665   -4.1720  -13.0391 O   0  0  0  0  0  0  0  0  0  0  0  0
   22.1484   -6.0805  -12.1253 O   0  0  0  0  0  0  0  0  0  0  0  0
  2  1  1  0
  2  3  2  0
  4  2  1  0
  5  4  1  0
  6  5  1  0
  6  7  1  1
  8  6  1  0
  9  8  2  0
 10 11  1  0
 12 11  1  6
 12 13  1  0
 13  8  1  0
 14 12  1  0
 15 14  2  0
 17 16  1  6
 18 17  1  0
 19 17  1  0
 20 19  1  1
 20 21  1  0
 21 14  1  0
 22 20  1  0
 22 24  1  0
 23 22  2  0
M  END
$$$$
