QSL.pdb
     RDKit          3D

 24 23  0  0  1  0  0  0  0  0999 V2000
   27.0158  -18.3243  -18.2810 N   0  0  0  0  0  0  0  0  0  0  0  0
   28.3458  -18.8366  -18.0702 C   0  0  0  0  0  0  0  0  0  0  0  0
   29.2787  -18.1131  -18.4736 O   0  0  0  0  0  0  0  0  0  0  0  0
   28.4698  -20.1466  -17.4097 C   0  0  0  0  0  0  0  0  0  0  0  0
   27.1178  -20.6567  -17.0169 C   0  0  0  0  0  0  0  0  0  0  0  0
   26.6764  -20.1274  -15.6773 C   0  0  2  0  0  0  0  0  0  0  0  0
   27.6641  -20.7115  -14.7208 N   0  0  0  0  0  0  0  0  0  0  0  0
   25.3652  -20.5949  -15.2330 C   0  0  0  0  0  0  0  0  0  0  0  0
   24.3634  -20.5741  -16.0310 O   0  0  0  0  0  0  0  0  0  0  0  0
   24.4470  -21.2766  -11.3146 O   0  0  0  0  0  0  0  0  0  0  0  0
   23.8328  -22.1582  -12.1820 C   0  0  0  0  0  0  0  0  0  0  0  0
   23.7208  -21.5830  -13.5873 C   0  0  2  0  0  0  0  0  0  0  0  0
   25.0442  -21.1062  -13.9397 N   0  0  0  0  0  0  0  0  0  0  0  0
   22.7411  -20.4614  -13.5077 C   0  0  0  0  0  0  0  0  0  0  0  0
   23.0357  -19.4834  -12.7739 O   0  0  0  0  0  0  0  0  0  0  0  0
   21.3039  -17.3696  -17.3104 C   0  0  0  0  0  0  0  0  0  0  0  0
   21.6112  -17.7633  -15.8184 C   0  0  1  0  0  0  0  0  0  0  0  0
   21.7501  -16.4467  -15.1351 C   0  0  0  0  0  0  0  0  0  0  0  0
   20.5177  -18.6551  -15.4232 C   0  0  0  0  0  0  0  0  0  0  0  0
   20.5422  -19.3166  -14.0900 C   0  0  2  0  0  0  0  0  0  0  0  0
   21.5257  -20.4430  -14.2001 N   0  0  0  0  0  0  0  0  0  0  0  0
   19.2845  -19.9752  -13.7557 C   0  0  0  0  0  0  0  0  0  0  0  0
   18.2722  -19.2734  -13.4028 O   0  0  0  0  0  0  0  0  0  0  0  0
   19.0743  -21.3224  -13.7917 O   0  0  0  0  0  0  0  0  0  0  0  0
  2  1  1  0
  2  3  2  0
  4  2  1  0
  5  4  1  0
  6  5  1  0
  6  7  1  1
  8  6  1  0
  9  8  2  0
 10 11  1  0
 12 11  1  1
 12 13  1  0
 13  8  1  0
 14 12  1  0
 15 14  2  0
 17 16  1  6
 18 17  1  0
 19 17  1  0
 20 19  1  6
 20 21  1  0
 21 14  1  0
 22 20  1  0
 22 24  1  0
 23 22  2  0
M  END
$$$$
