QSL.pdb
     RDKit          3D

 24 23  0  0  1  0  0  0  0  0999 V2000
   12.5827  -11.2886  -15.3494 N   0  0  0  0  0  0  0  0  0  0  0  0
   13.4965  -12.4020  -15.3831 C   0  0  0  0  0  0  0  0  0  0  0  0
   12.9980  -13.5229  -15.1563 O   0  0  0  0  0  0  0  0  0  0  0  0
   14.9094  -12.1096  -15.6766 C   0  0  0  0  0  0  0  0  0  0  0  0
   15.5469  -11.4203  -14.5101 C   0  0  0  0  0  0  0  0  0  0  0  0
   16.8689  -10.7946  -14.8711 C   0  0  2  0  0  0  0  0  0  0  0  0
   17.8238  -11.9432  -14.8503 N   0  0  0  0  0  0  0  0  0  0  0  0
   17.3801   -9.8322  -13.8977 C   0  0  0  0  0  0  0  0  0  0  0  0
   18.1273  -10.2194  -12.9320 O   0  0  0  0  0  0  0  0  0  0  0  0
   17.8641   -5.9864  -14.6779 O   0  0  0  0  0  0  0  0  0  0  0  0
   18.4976   -6.5015  -13.5642 C   0  0  0  0  0  0  0  0  0  0  0  0
   17.6408   -7.5432  -12.8577 C   0  0  2  0  0  0  0  0  0  0  0  0
   17.1362   -8.4259  -13.8917 N   0  0  0  0  0  0  0  0  0  0  0  0
   16.5347   -6.7981  -12.1902 C   0  0  0  0  0  0  0  0  0  0  0  0
   15.4955   -6.5752  -12.8626 O   0  0  0  0  0  0  0  0  0  0  0  0
   14.9250   -7.1717   -6.8493 C   0  0  0  0  0  0  0  0  0  0  0  0
   14.7500   -7.0907   -8.4107 C   0  0  1  0  0  0  0  0  0  0  0  0
   13.2730   -7.1518   -8.5966 C   0  0  0  0  0  0  0  0  0  0  0  0
   15.4656   -5.8777   -8.8153 C   0  0  0  0  0  0  0  0  0  0  0  0
   15.5234   -5.4923  -10.2519 C   0  0  2  0  0  0  0  0  0  0  0  0
   16.5945   -6.3404  -10.8697 N   0  0  0  0  0  0  0  0  0  0  0  0
   15.9895   -4.1258  -10.4586 C   0  0  0  0  0  0  0  0  0  0  0  0
   15.2026   -3.1421  -10.2243 O   0  0  0  0  0  0  0  0  0  0  0  0
   17.2376   -3.7827  -10.8888 O   0  0  0  0  0  0  0  0  0  0  0  0
  2  1  1  0
  2  3  2  0
  4  2  1  0
  5  4  1  0
  6  5  1  0
  6  7  1  1
  8  6  1  0
  9  8  2  0
 10 11  1  0
 12 11  1  6
 12 13  1  0
 13  8  1  0
 14 12  1  0
 15 14  2  0
 17 16  1  1
 18 17  1  0
 19 17  1  0
 20 19  1  1
 20 21  1  0
 21 14  1  0
 22 20  1  0
 22 24  1  0
 23 22  2  0
M  END
$$$$
