QSL.pdb
     RDKit          3D

 24 23  0  0  1  0  0  0  0  0999 V2000
   15.4235  -14.3768  -14.7573 N   0  0  0  0  0  0  0  0  0  0  0  0
   14.0467  -13.9613  -14.8436 C   0  0  0  0  0  0  0  0  0  0  0  0
   13.1993  -14.8067  -14.4920 O   0  0  0  0  0  0  0  0  0  0  0  0
   13.7803  -12.5985  -15.3334 C   0  0  0  0  0  0  0  0  0  0  0  0
   15.0674  -11.8559  -15.5186 C   0  0  0  0  0  0  0  0  0  0  0  0
   15.1515  -11.1892  -16.8669 C   0  0  2  0  0  0  0  0  0  0  0  0
   15.0855  -12.3279  -17.8316 N   0  0  0  0  0  0  0  0  0  0  0  0
   16.4153  -10.5081  -17.1385 C   0  0  0  0  0  0  0  0  0  0  0  0
   17.3919  -11.1401  -17.6747 O   0  0  0  0  0  0  0  0  0  0  0  0
   17.1345   -6.5677  -16.0927 O   0  0  0  0  0  0  0  0  0  0  0  0
   17.7428   -7.0273  -17.2440 C   0  0  0  0  0  0  0  0  0  0  0  0
   17.9872   -8.5293  -17.1934 C   0  0  2  0  0  0  0  0  0  0  0  0
   16.7131   -9.1392  -16.8651 N   0  0  0  0  0  0  0  0  0  0  0  0
   18.9937   -8.7574  -16.1167 C   0  0  0  0  0  0  0  0  0  0  0  0
   18.5639   -8.9438  -14.9495 O   0  0  0  0  0  0  0  0  0  0  0  0
   23.4088  -10.8203  -13.9427 C   0  0  0  0  0  0  0  0  0  0  0  0
   23.7851   -9.7417  -15.0245 C   0  0  1  0  0  0  0  0  0  0  0  0
   24.9995  -10.3117  -15.6729 C   0  0  0  0  0  0  0  0  0  0  0  0
   22.5719   -9.5618  -15.8263 C   0  0  0  0  0  0  0  0  0  0  0  0
   21.3757   -8.9077  -15.2290 C   0  0  2  0  0  0  0  0  0  0  0  0
   20.3749   -8.7743  -16.3375 N   0  0  0  0  0  0  0  0  0  0  0  0
   21.6257   -7.5335  -14.8094 C   0  0  0  0  0  0  0  0  0  0  0  0
   21.6954   -7.2512  -13.5615 O   0  0  0  0  0  0  0  0  0  0  0  0
   21.8065   -6.4788  -15.6553 O   0  0  0  0  0  0  0  0  0  0  0  0
  2  1  1  0
  2  3  2  0
  4  2  1  0
  5  4  1  0
  6  5  1  0
  6  7  1  6
  8  6  1  0
  9  8  2  0
 10 11  1  0
 12 11  1  1
 12 13  1  0
 13  8  1  0
 14 12  1  0
 15 14  2  0
 17 16  1  1
 18 17  1  0
 19 17  1  0
 20 19  1  6
 20 21  1  0
 21 14  1  0
 22 20  1  0
 22 24  1  0
 23 22  2  0
M  END
$$$$
