CKK.pdb
     RDKit          3D

 25 24  0  0  1  0  0  0  0  0999 V2000
   25.3633  -15.2274  -16.8506 N   0  0  0  0  0  0  0  0  0  0  0  0
   24.9454  -14.3605  -15.7831 C   0  0  1  0  0  0  0  0  0  0  0  0
   26.1591  -13.7122  -15.1549 C   0  0  0  0  0  0  0  0  0  0  0  0
   27.1827  -15.0294  -14.4421 S   0  0  0  0  0  0  0  0  0  0  0  0
   23.9967  -13.3596  -16.3170 C   0  0  0  0  0  0  0  0  0  0  0  0
   24.1266  -12.9275  -17.4854 O   0  0  0  0  0  0  0  0  0  0  0  0
   22.9462  -12.8928  -15.5087 N   0  0  0  0  0  0  0  0  0  0  0  0
   21.9418  -12.0342  -16.0625 C   0  0  1  0  0  0  0  0  0  0  0  0
   20.5769  -12.4088  -15.4690 C   0  0  0  0  0  0  0  0  0  0  0  0
   19.8909  -13.2712  -16.5185 C   0  0  0  0  0  0  0  0  0  0  0  0
   19.9454  -14.7303  -16.1651 C   0  0  0  0  0  0  0  0  0  0  0  0
   19.2141  -15.4893  -17.2519 C   0  0  0  0  0  0  0  0  0  0  0  0
   19.3388  -16.9229  -17.0973 N   0  0  0  0  0  0  0  0  0  0  0  0
   22.2250  -10.6390  -15.6354 C   0  0  0  0  0  0  0  0  0  0  0  0
   22.6945  -10.4555  -14.4767 O   0  0  0  0  0  0  0  0  0  0  0  0
   21.9870   -9.5234  -16.4787 N   0  0  0  0  0  0  0  0  0  0  0  0
   22.4943   -8.2304  -16.0514 C   0  0  1  0  0  0  0  0  0  0  0  0
   22.6669   -7.3053  -17.2341 C   0  0  0  0  0  0  0  0  0  0  0  0
   23.0625   -5.9412  -16.8239 C   0  0  0  0  0  0  0  0  0  0  0  0
   23.1754   -4.9612  -17.9662 C   0  0  0  0  0  0  0  0  0  0  0  0
   23.5279   -3.5675  -17.4691 C   0  0  0  0  0  0  0  0  0  0  0  0
   23.4748   -2.6035  -18.5532 N   0  0  0  0  0  0  0  0  0  0  0  0
   21.5340   -7.7266  -15.0494 C   0  0  0  0  0  0  0  0  0  0  0  0
   20.3218   -7.9189  -15.2051 O   0  0  0  0  0  0  0  0  0  0  0  0
   21.9409   -7.0348  -13.9213 O   0  0  0  0  0  0  0  0  0  0  0  0
  2  3  1  0
  2  1  1  6
  4  3  1  0
  5  2  1  0
  6  5  2  0
  7  5  1  0
  8  7  1  0
  8  9  1  1
 10  9  1  0
 11 10  1  0
 12 11  1  0
 13 12  1  0
 14  8  1  0
 14 15  2  0
 16 14  1  0
 17 16  1  0
 17 18  1  6
 19 20  1  0
 19 18  1  0
 20 21  1  0
 21 22  1  0
 23 17  1  0
 24 23  2  0
 25 23  1  0
M  END
$$$$
