CKK.pdb
     RDKit          3D

 25 24  0  0  1  0  0  0  0  0999 V2000
   23.9671  -14.0861  -16.7829 N   0  0  0  0  0  0  0  0  0  0  0  0
   24.6398  -14.5078  -15.5848 C   0  0  1  0  0  0  0  0  0  0  0  0
   23.9613  -13.8916  -14.3815 C   0  0  0  0  0  0  0  0  0  0  0  0
   23.4205  -12.2234  -14.8458 S   0  0  0  0  0  0  0  0  0  0  0  0
   24.6390  -15.9854  -15.5250 C   0  0  0  0  0  0  0  0  0  0  0  0
   23.5625  -16.6198  -15.6122 O   0  0  0  0  0  0  0  0  0  0  0  0
   25.8516  -16.6783  -15.3695 N   0  0  0  0  0  0  0  0  0  0  0  0
   25.8751  -18.1090  -15.4446 C   0  0  1  0  0  0  0  0  0  0  0  0
   26.7737  -18.5366  -16.6131 C   0  0  0  0  0  0  0  0  0  0  0  0
   26.7759  -20.0582  -16.5995 C   0  0  0  0  0  0  0  0  0  0  0  0
   27.5944  -20.6258  -17.7240 C   0  0  0  0  0  0  0  0  0  0  0  0
   27.4783  -22.1337  -17.6553 C   0  0  0  0  0  0  0  0  0  0  0  0
   28.3418  -22.7934  -18.6113 N   0  0  0  0  0  0  0  0  0  0  0  0
   26.5047  -18.6368  -14.2061 C   0  0  0  0  0  0  0  0  0  0  0  0
   27.5987  -18.1273  -13.8315 O   0  0  0  0  0  0  0  0  0  0  0  0
   25.9215  -19.6809  -13.4432 N   0  0  0  0  0  0  0  0  0  0  0  0
   26.7287  -20.2900  -12.3994 C   0  0  1  0  0  0  0  0  0  0  0  0
   25.8749  -21.1478  -11.4941 C   0  0  0  0  0  0  0  0  0  0  0  0
   25.6073  -20.4953  -10.1948 C   0  0  0  0  0  0  0  0  0  0  0  0
   24.7405  -21.3069   -9.2632 C   0  0  0  0  0  0  0  0  0  0  0  0
   24.5300  -20.5921   -7.9371 C   0  0  0  0  0  0  0  0  0  0  0  0
   23.6598  -21.3624   -7.0673 N   0  0  0  0  0  0  0  0  0  0  0  0
   27.7894  -21.0468  -13.0936 C   0  0  0  0  0  0  0  0  0  0  0  0
   27.4932  -21.8314  -14.0032 O   0  0  0  0  0  0  0  0  0  0  0  0
   29.1271  -20.9128  -12.7633 O   0  0  0  0  0  0  0  0  0  0  0  0
  2  3  1  0
  2  1  1  6
  4  3  1  0
  5  2  1  0
  6  5  2  0
  7  5  1  0
  8  7  1  0
  8  9  1  6
 10  9  1  0
 11 10  1  0
 12 11  1  0
 13 12  1  0
 14  8  1  0
 14 15  2  0
 16 14  1  0
 17 16  1  0
 17 18  1  6
 19 20  1  0
 19 18  1  0
 20 21  1  0
 21 22  1  0
 23 17  1  0
 24 23  2  0
 25 23  1  0
M  END
$$$$
