CKK.pdb
     RDKit          3D

 25 24  0  0  1  0  0  0  0  0999 V2000
   22.0082  -30.2462  -13.5325 N   0  0  0  0  0  0  0  0  0  0  0  0
   20.6469  -29.8800  -13.2524 C   0  0  1  0  0  0  0  0  0  0  0  0
   19.9754  -30.9899  -12.4745 C   0  0  0  0  0  0  0  0  0  0  0  0
   19.3874  -32.2236  -13.6675 S   0  0  0  0  0  0  0  0  0  0  0  0
   20.6337  -28.5991  -12.5134 C   0  0  0  0  0  0  0  0  0  0  0  0
   21.4935  -28.3704  -11.6318 O   0  0  0  0  0  0  0  0  0  0  0  0
   19.6518  -27.6364  -12.8028 N   0  0  0  0  0  0  0  0  0  0  0  0
   19.6841  -26.3604  -12.1519 C   0  0  1  0  0  0  0  0  0  0  0  0
   19.2852  -25.2722  -13.1581 C   0  0  0  0  0  0  0  0  0  0  0  0
   19.3777  -23.9546  -12.4025 C   0  0  0  0  0  0  0  0  0  0  0  0
   18.8289  -22.8101  -13.2060 C   0  0  0  0  0  0  0  0  0  0  0  0
   18.9539  -21.5599  -12.3614 C   0  0  0  0  0  0  0  0  0  0  0  0
   18.3375  -20.4109  -12.9896 N   0  0  0  0  0  0  0  0  0  0  0  0
   18.6539  -26.3502  -11.0807 C   0  0  0  0  0  0  0  0  0  0  0  0
   17.4595  -26.6089  -11.4019 O   0  0  0  0  0  0  0  0  0  0  0  0
   18.9680  -26.0627   -9.7276 N   0  0  0  0  0  0  0  0  0  0  0  0
   17.8941  -26.1395   -8.7514 C   0  0  1  0  0  0  0  0  0  0  0  0
   18.4445  -26.0901   -7.3447 C   0  0  0  0  0  0  0  0  0  0  0  0
   17.3781  -26.1699   -6.3239 C   0  0  0  0  0  0  0  0  0  0  0  0
   17.8807  -26.1295   -4.9014 C   0  0  0  0  0  0  0  0  0  0  0  0
   16.7501  -26.3455   -3.9069 C   0  0  0  0  0  0  0  0  0  0  0  0
   17.2517  -26.3379   -2.5447 N   0  0  0  0  0  0  0  0  0  0  0  0
   16.9802  -25.0222   -9.0620 C   0  0  0  0  0  0  0  0  0  0  0  0
   15.7561  -25.1934   -9.0092 O   0  0  0  0  0  0  0  0  0  0  0  0
   17.4445  -23.7671   -9.4167 O   0  0  0  0  0  0  0  0  0  0  0  0
  2  3  1  0
  2  1  1  1
  4  3  1  0
  5  2  1  0
  6  5  2  0
  7  5  1  0
  8  7  1  0
  8  9  1  6
 10  9  1  0
 11 10  1  0
 12 11  1  0
 13 12  1  0
 14  8  1  0
 14 15  2  0
 16 14  1  0
 17 16  1  0
 17 18  1  1
 19 20  1  0
 19 18  1  0
 20 21  1  0
 21 22  1  0
 23 17  1  0
 24 23  2  0
 25 23  1  0
M  END
$$$$
