CKK.pdb
     RDKit          3D

 25 24  0  0  1  0  0  0  0  0999 V2000
   26.5898  -15.4493  -17.2520 N   0  0  0  0  0  0  0  0  0  0  0  0
   26.0537  -15.8678  -15.9858 C   0  0  1  0  0  0  0  0  0  0  0  0
   25.3068  -14.7171  -15.3487 C   0  0  0  0  0  0  0  0  0  0  0  0
   26.5358  -13.5767  -14.6556 S   0  0  0  0  0  0  0  0  0  0  0  0
   25.1832  -17.0449  -16.1952 C   0  0  0  0  0  0  0  0  0  0  0  0
   24.4341  -17.1054  -17.1971 O   0  0  0  0  0  0  0  0  0  0  0  0
   25.1983  -18.0984  -15.2653 N   0  0  0  0  0  0  0  0  0  0  0  0
   24.4283  -19.2818  -15.5092 C   0  0  1  0  0  0  0  0  0  0  0  0
   25.1426  -20.4854  -14.8792 C   0  0  0  0  0  0  0  0  0  0  0  0
   24.3705  -21.7133  -15.3393 C   0  0  0  0  0  0  0  0  0  0  0  0
   24.8962  -22.9720  -14.7100 C   0  0  0  0  0  0  0  0  0  0  0  0
   24.1057  -24.1304  -15.2802 C   0  0  0  0  0  0  0  0  0  0  0  0
   24.5683  -25.4075  -14.7806 N   0  0  0  0  0  0  0  0  0  0  0  0
   23.1222  -19.1475  -14.8128 C   0  0  0  0  0  0  0  0  0  0  0  0
   23.1252  -18.7400  -13.6167 O   0  0  0  0  0  0  0  0  0  0  0  0
   21.8900  -19.4590  -15.4428 N   0  0  0  0  0  0  0  0  0  0  0  0
   20.6657  -19.1904  -14.7073 C   0  0  1  0  0  0  0  0  0  0  0  0
   19.5720  -18.7236  -15.6401 C   0  0  0  0  0  0  0  0  0  0  0  0
   18.2787  -18.5534  -14.9444 C   0  0  0  0  0  0  0  0  0  0  0  0
   17.1364  -18.1642  -15.8509 C   0  0  0  0  0  0  0  0  0  0  0  0
   15.8312  -18.0445  -15.0789 C   0  0  0  0  0  0  0  0  0  0  0  0
   14.7466  -17.6438  -15.9567 N   0  0  0  0  0  0  0  0  0  0  0  0
   20.3344  -20.4412  -13.9962 C   0  0  0  0  0  0  0  0  0  0  0  0
   19.6999  -20.3983  -12.9350 O   0  0  0  0  0  0  0  0  0  0  0  0
   20.7112  -21.6838  -14.4764 O   0  0  0  0  0  0  0  0  0  0  0  0
  2  3  1  0
  2  1  1  6
  4  3  1  0
  5  2  1  0
  6  5  2  0
  7  5  1  0
  8  7  1  0
  8  9  1  1
 10  9  1  0
 11 10  1  0
 12 11  1  0
 13 12  1  0
 14  8  1  0
 14 15  2  0
 16 14  1  0
 17 16  1  0
 17 18  1  6
 19 20  1  0
 19 18  1  0
 20 21  1  0
 21 22  1  0
 23 17  1  0
 24 23  2  0
 25 23  1  0
M  END
$$$$
