CKK.pdb
     RDKit          3D

 25 24  0  0  1  0  0  0  0  0999 V2000
   28.2380  -22.2040  -15.7045 N   0  0  0  0  0  0  0  0  0  0  0  0
   27.3947  -21.6267  -16.7152 C   0  0  1  0  0  0  0  0  0  0  0  0
   27.7942  -22.1622  -18.0722 C   0  0  0  0  0  0  0  0  0  0  0  0
   29.5615  -21.8230  -18.3019 S   0  0  0  0  0  0  0  0  0  0  0  0
   25.9824  -21.9269  -16.3951 C   0  0  0  0  0  0  0  0  0  0  0  0
   25.0690  -21.5675  -17.1731 O   0  0  0  0  0  0  0  0  0  0  0  0
   25.6664  -22.6181  -15.2131 N   0  0  0  0  0  0  0  0  0  0  0  0
   24.3051  -22.9581  -14.9230 C   0  0  1  0  0  0  0  0  0  0  0  0
   24.2763  -24.0032  -13.7993 C   0  0  0  0  0  0  0  0  0  0  0  0
   22.8343  -24.4821  -13.7152 C   0  0  0  0  0  0  0  0  0  0  0  0
   22.5635  -25.6096  -14.6702 C   0  0  0  0  0  0  0  0  0  0  0  0
   21.1252  -26.0385  -14.4718 C   0  0  0  0  0  0  0  0  0  0  0  0
   20.9648  -26.9002  -13.3201 N   0  0  0  0  0  0  0  0  0  0  0  0
   23.6173  -21.7490  -14.3997 C   0  0  0  0  0  0  0  0  0  0  0  0
   24.1527  -21.1303  -13.4368 O   0  0  0  0  0  0  0  0  0  0  0  0
   22.3948  -21.2760  -14.9420 N   0  0  0  0  0  0  0  0  0  0  0  0
   21.7586  -20.1425  -14.2923 C   0  0  1  0  0  0  0  0  0  0  0  0
   21.4552  -19.0520  -15.2939 C   0  0  0  0  0  0  0  0  0  0  0  0
   20.6870  -17.9402  -14.6944 C   0  0  0  0  0  0  0  0  0  0  0  0
   20.3588  -16.8262  -15.6583 C   0  0  0  0  0  0  0  0  0  0  0  0
   19.5118  -15.7504  -14.9957 C   0  0  0  0  0  0  0  0  0  0  0  0
   19.4095  -14.5774  -15.8448 N   0  0  0  0  0  0  0  0  0  0  0  0
   20.5543  -20.6774  -13.6264 C   0  0  0  0  0  0  0  0  0  0  0  0
   20.1934  -20.2131  -12.5379 O   0  0  0  0  0  0  0  0  0  0  0  0
   19.7974  -21.6961  -14.1795 O   0  0  0  0  0  0  0  0  0  0  0  0
  2  3  1  0
  2  1  1  1
  4  3  1  0
  5  2  1  0
  6  5  2  0
  7  5  1  0
  8  7  1  0
  8  9  1  1
 10  9  1  0
 11 10  1  0
 12 11  1  0
 13 12  1  0
 14  8  1  0
 14 15  2  0
 16 14  1  0
 17 16  1  0
 17 18  1  6
 19 20  1  0
 19 18  1  0
 20 21  1  0
 21 22  1  0
 23 17  1  0
 24 23  2  0
 25 23  1  0
M  END
$$$$
