CKK.pdb
     RDKit          3D

 25 24  0  0  1  0  0  0  0  0999 V2000
   22.7072  -10.6915  -16.3862 N   0  0  0  0  0  0  0  0  0  0  0  0
   22.1083   -9.8139  -15.4182 C   0  0  1  0  0  0  0  0  0  0  0  0
   23.1147   -8.7668  -14.9954 C   0  0  0  0  0  0  0  0  0  0  0  0
   24.3727   -9.5881  -13.9785 S   0  0  0  0  0  0  0  0  0  0  0  0
   20.8917   -9.2090  -16.0022 C   0  0  0  0  0  0  0  0  0  0  0  0
   20.8579   -8.9076  -17.2174 O   0  0  0  0  0  0  0  0  0  0  0  0
   19.7705   -8.9723  -15.1887 N   0  0  0  0  0  0  0  0  0  0  0  0
   18.5408   -8.5270  -15.7738 C   0  0  1  0  0  0  0  0  0  0  0  0
   17.3653   -9.1608  -15.0174 C   0  0  0  0  0  0  0  0  0  0  0  0
   17.0259  -10.4373  -15.7730 C   0  0  0  0  0  0  0  0  0  0  0  0
   15.8038  -11.1090  -15.2143 C   0  0  0  0  0  0  0  0  0  0  0  0
   15.6195  -12.4128  -15.9614 C   0  0  0  0  0  0  0  0  0  0  0  0
   14.3687  -13.0614  -15.6303 N   0  0  0  0  0  0  0  0  0  0  0  0
   18.4306   -7.0574  -15.5806 C   0  0  0  0  0  0  0  0  0  0  0  0
   18.9092   -6.5592  -14.5226 O   0  0  0  0  0  0  0  0  0  0  0  0
   17.8126   -6.2100  -16.5358 N   0  0  0  0  0  0  0  0  0  0  0  0
   17.8025   -4.7816  -16.2686 C   0  0  1  0  0  0  0  0  0  0  0  0
   17.5159   -4.0025  -17.5316 C   0  0  0  0  0  0  0  0  0  0  0  0
   17.5845   -2.5417  -17.3151 C   0  0  0  0  0  0  0  0  0  0  0  0
   17.4675   -1.7240  -18.5783 C   0  0  0  0  0  0  0  0  0  0  0  0
   17.6450   -0.2397  -18.2972 C   0  0  0  0  0  0  0  0  0  0  0  0
   19.0429    0.0798  -18.0710 N   0  0  0  0  0  0  0  0  0  0  0  0
   16.7949   -4.5719  -15.2100 C   0  0  0  0  0  0  0  0  0  0  0  0
   15.8505   -5.3623  -15.0918 O   0  0  0  0  0  0  0  0  0  0  0  0
   16.8639   -3.5077  -14.3273 O   0  0  0  0  0  0  0  0  0  0  0  0
  2  3  1  0
  2  1  1  6
  4  3  1  0
  5  2  1  0
  6  5  2  0
  7  5  1  0
  8  7  1  0
  8  9  1  1
 10  9  1  0
 11 10  1  0
 12 11  1  0
 13 12  1  0
 14  8  1  0
 14 15  2  0
 16 14  1  0
 17 16  1  0
 17 18  1  6
 19 20  1  0
 19 18  1  0
 20 21  1  0
 21 22  1  0
 23 17  1  0
 24 23  2  0
 25 23  1  0
M  END
$$$$
