CKK.pdb
     RDKit          3D

 25 24  0  0  1  0  0  0  0  0999 V2000
   24.5786  -11.7682  -17.4360 N   0  0  0  0  0  0  0  0  0  0  0  0
   24.1973  -11.1941  -16.1747 C   0  0  1  0  0  0  0  0  0  0  0  0
   25.3768  -10.4596  -15.5772 C   0  0  0  0  0  0  0  0  0  0  0  0
   26.5841  -11.7006  -15.0355 S   0  0  0  0  0  0  0  0  0  0  0  0
   23.0361  -10.3020  -16.3815 C   0  0  0  0  0  0  0  0  0  0  0  0
   22.9991   -9.5332  -17.3696 O   0  0  0  0  0  0  0  0  0  0  0  0
   21.9712  -10.3185  -15.4647 N   0  0  0  0  0  0  0  0  0  0  0  0
   20.7634   -9.6046  -15.7550 C   0  0  1  0  0  0  0  0  0  0  0  0
   19.6076  -10.2272  -14.9598 C   0  0  0  0  0  0  0  0  0  0  0  0
   18.3516   -9.4977  -15.4135 C   0  0  0  0  0  0  0  0  0  0  0  0
   17.1176  -10.0498  -14.7586 C   0  0  0  0  0  0  0  0  0  0  0  0
   15.9257   -9.3317  -15.3552 C   0  0  0  0  0  0  0  0  0  0  0  0
   14.6699   -9.8339  -14.8402 N   0  0  0  0  0  0  0  0  0  0  0  0
   20.9120   -8.2076  -15.2699 C   0  0  0  0  0  0  0  0  0  0  0  0
   21.4849   -8.0217  -14.1590 O   0  0  0  0  0  0  0  0  0  0  0  0
   20.4363   -7.0929  -16.0071 N   0  0  0  0  0  0  0  0  0  0  0  0
   20.6916   -5.7666  -15.4706 C   0  0  1  0  0  0  0  0  0  0  0  0
   21.5158   -4.9475  -16.4371 C   0  0  0  0  0  0  0  0  0  0  0  0
   21.3114   -3.4948  -16.2545 C   0  0  0  0  0  0  0  0  0  0  0  0
   22.1777   -2.6331  -17.1406 C   0  0  0  0  0  0  0  0  0  0  0  0
   21.9710   -1.1544  -16.8501 C   0  0  0  0  0  0  0  0  0  0  0  0
   22.7716   -0.3358  -17.7425 N   0  0  0  0  0  0  0  0  0  0  0  0
   19.3669   -5.1795  -15.1872 C   0  0  0  0  0  0  0  0  0  0  0  0
   18.3612   -5.6225  -15.7556 O   0  0  0  0  0  0  0  0  0  0  0  0
   19.1997   -4.1342  -14.2951 O   0  0  0  0  0  0  0  0  0  0  0  0
  2  3  1  0
  2  1  1  6
  4  3  1  0
  5  2  1  0
  6  5  2  0
  7  5  1  0
  8  7  1  0
  8  9  1  1
 10  9  1  0
 11 10  1  0
 12 11  1  0
 13 12  1  0
 14  8  1  0
 14 15  2  0
 16 14  1  0
 17 16  1  0
 17 18  1  6
 19 20  1  0
 19 18  1  0
 20 21  1  0
 21 22  1  0
 23 17  1  0
 24 23  2  0
 25 23  1  0
M  END
$$$$
