CKK.pdb
     RDKit          3D

 25 24  0  0  1  0  0  0  0  0999 V2000
   25.8427  -22.6174  -14.6028 N   0  0  0  0  0  0  0  0  0  0  0  0
   25.1825  -21.3842  -14.2726 C   0  0  1  0  0  0  0  0  0  0  0  0
   24.8684  -20.6241  -15.5421 C   0  0  0  0  0  0  0  0  0  0  0  0
   26.4415  -20.0854  -16.2673 S   0  0  0  0  0  0  0  0  0  0  0  0
   23.9638  -21.6833  -13.4901 C   0  0  0  0  0  0  0  0  0  0  0  0
   23.3724  -22.7776  -13.6370 O   0  0  0  0  0  0  0  0  0  0  0  0
   23.4691  -20.7348  -12.5789 N   0  0  0  0  0  0  0  0  0  0  0  0
   22.3126  -21.0348  -11.7880 C   0  0  1  0  0  0  0  0  0  0  0  0
   22.2276  -20.0387  -10.6234 C   0  0  0  0  0  0  0  0  0  0  0  0
   21.0303  -20.4747   -9.7914 C   0  0  0  0  0  0  0  0  0  0  0  0
   21.2375  -21.8325   -9.1830 C   0  0  0  0  0  0  0  0  0  0  0  0
   19.9685  -22.1977   -8.4425 C   0  0  0  0  0  0  0  0  0  0  0  0
   19.9905  -23.5614   -7.9582 N   0  0  0  0  0  0  0  0  0  0  0  0
   21.1013  -20.8210  -12.6223 C   0  0  0  0  0  0  0  0  0  0  0  0
   20.8466  -19.6460  -13.0108 O   0  0  0  0  0  0  0  0  0  0  0  0
   20.2353  -21.8827  -12.9900 N   0  0  0  0  0  0  0  0  0  0  0  0
   19.1079  -21.5702  -13.8521 C   0  0  1  0  0  0  0  0  0  0  0  0
   18.6978  -22.7814  -14.6577 C   0  0  0  0  0  0  0  0  0  0  0  0
   19.4398  -22.8824  -15.9324 C   0  0  0  0  0  0  0  0  0  0  0  0
   20.3503  -24.0826  -16.0235 C   0  0  0  0  0  0  0  0  0  0  0  0
   21.0424  -24.1529  -17.3762 C   0  0  0  0  0  0  0  0  0  0  0  0
   21.9227  -25.3051  -17.4469 N   0  0  0  0  0  0  0  0  0  0  0  0
   18.0409  -21.0699  -12.9627 C   0  0  0  0  0  0  0  0  0  0  0  0
   17.2682  -20.1894  -13.3606 O   0  0  0  0  0  0  0  0  0  0  0  0
   17.8653  -21.5540  -11.6777 O   0  0  0  0  0  0  0  0  0  0  0  0
  2  3  1  0
  2  1  1  6
  4  3  1  0
  5  2  1  0
  6  5  2  0
  7  5  1  0
  8  7  1  0
  8  9  1  1
 10  9  1  0
 11 10  1  0
 12 11  1  0
 13 12  1  0
 14  8  1  0
 14 15  2  0
 16 14  1  0
 17 16  1  0
 17 18  1  1
 19 20  1  0
 19 18  1  0
 20 21  1  0
 21 22  1  0
 23 17  1  0
 24 23  2  0
 25 23  1  0
M  END
$$$$
