CKK.pdb
     RDKit          3D

 25 24  0  0  1  0  0  0  0  0999 V2000
   18.6536   -8.2923  -11.8671 N   0  0  0  0  0  0  0  0  0  0  0  0
   18.8192   -8.7911  -13.2048 C   0  0  1  0  0  0  0  0  0  0  0  0
   17.7521   -8.2004  -14.0995 C   0  0  0  0  0  0  0  0  0  0  0  0
   16.1461   -8.8218  -13.5288 S   0  0  0  0  0  0  0  0  0  0  0  0
   20.1817   -8.4636  -13.6772 C   0  0  0  0  0  0  0  0  0  0  0  0
   20.7655   -7.4381  -13.2573 O   0  0  0  0  0  0  0  0  0  0  0  0
   20.8220   -9.3074  -14.6006 N   0  0  0  0  0  0  0  0  0  0  0  0
   22.1327   -8.9833  -15.0798 C   0  0  1  0  0  0  0  0  0  0  0  0
   22.9137  -10.2815  -15.3258 C   0  0  0  0  0  0  0  0  0  0  0  0
   24.3338   -9.8532  -15.6653 C   0  0  0  0  0  0  0  0  0  0  0  0
   25.2429  -11.0339  -15.8559 C   0  0  0  0  0  0  0  0  0  0  0  0
   26.6514  -10.5026  -16.0162 C   0  0  0  0  0  0  0  0  0  0  0  0
   27.5899  -11.5413  -16.3836 N   0  0  0  0  0  0  0  0  0  0  0  0
   22.0005   -8.3081  -16.3973 C   0  0  0  0  0  0  0  0  0  0  0  0
   21.4247   -8.9346  -17.3314 O   0  0  0  0  0  0  0  0  0  0  0  0
   22.4949   -6.9996  -16.6331 N   0  0  0  0  0  0  0  0  0  0  0  0
   22.2740   -6.4180  -17.9465 C   0  0  1  0  0  0  0  0  0  0  0  0
   20.7978   -6.2203  -18.2033 C   0  0  0  0  0  0  0  0  0  0  0  0
   20.4937   -6.0881  -19.6440 C   0  0  0  0  0  0  0  0  0  0  0  0
   19.3409   -6.9421  -20.1127 C   0  0  0  0  0  0  0  0  0  0  0  0
   19.1015   -6.7803  -21.6060 C   0  0  0  0  0  0  0  0  0  0  0  0
   18.0215   -7.6415  -22.0525 N   0  0  0  0  0  0  0  0  0  0  0  0
   23.0461   -5.1598  -17.9704 C   0  0  0  0  0  0  0  0  0  0  0  0
   23.0889   -4.4816  -19.0042 O   0  0  0  0  0  0  0  0  0  0  0  0
   23.7373   -4.6982  -16.8633 O   0  0  0  0  0  0  0  0  0  0  0  0
  2  3  1  0
  2  1  1  1
  4  3  1  0
  5  2  1  0
  6  5  2  0
  7  5  1  0
  8  7  1  0
  8  9  1  6
 10  9  1  0
 11 10  1  0
 12 11  1  0
 13 12  1  0
 14  8  1  0
 14 15  2  0
 16 14  1  0
 17 16  1  0
 17 18  1  1
 19 20  1  0
 19 18  1  0
 20 21  1  0
 21 22  1  0
 23 17  1  0
 24 23  2  0
 25 23  1  0
M  END
$$$$
