CKK.pdb
     RDKit          3D

 25 24  0  0  1  0  0  0  0  0999 V2000
   22.6583  -27.2170  -14.8026 N   0  0  0  0  0  0  0  0  0  0  0  0
   21.2875  -27.4095  -14.4158 C   0  0  1  0  0  0  0  0  0  0  0  0
   21.1299  -28.7710  -13.7760 C   0  0  0  0  0  0  0  0  0  0  0  0
   21.3881  -30.0208  -15.0654 S   0  0  0  0  0  0  0  0  0  0  0  0
   20.8857  -26.3183  -13.5021 C   0  0  0  0  0  0  0  0  0  0  0  0
   21.2374  -26.3401  -12.3002 O   0  0  0  0  0  0  0  0  0  0  0  0
   20.1063  -25.2539  -13.9863 N   0  0  0  0  0  0  0  0  0  0  0  0
   19.7598  -24.1664  -13.1202 C   0  0  1  0  0  0  0  0  0  0  0  0
   19.1888  -23.0162  -13.9608 C   0  0  0  0  0  0  0  0  0  0  0  0
   20.2780  -21.9544  -14.0051 C   0  0  0  0  0  0  0  0  0  0  0  0
   20.7849  -21.7321  -15.4017 C   0  0  0  0  0  0  0  0  0  0  0  0
   21.8850  -20.6947  -15.3267 C   0  0  0  0  0  0  0  0  0  0  0  0
   22.4406  -20.3908  -16.6281 N   0  0  0  0  0  0  0  0  0  0  0  0
   18.6711  -24.6136  -12.2126 C   0  0  0  0  0  0  0  0  0  0  0  0
   17.7000  -25.2466  -12.7156 O   0  0  0  0  0  0  0  0  0  0  0  0
   18.6902  -24.3543  -10.8181 N   0  0  0  0  0  0  0  0  0  0  0  0
   17.5656  -24.8232  -10.0260 C   0  0  1  0  0  0  0  0  0  0  0  0
   17.9553  -24.9620   -8.5723 C   0  0  0  0  0  0  0  0  0  0  0  0
   16.8024  -25.3116   -7.7154 C   0  0  0  0  0  0  0  0  0  0  0  0
   17.1236  -25.3699   -6.2418 C   0  0  0  0  0  0  0  0  0  0  0  0
   15.8940  -25.7238   -5.4193 C   0  0  0  0  0  0  0  0  0  0  0  0
   16.1975  -25.7002   -3.9999 N   0  0  0  0  0  0  0  0  0  0  0  0
   16.4762  -23.8522  -10.2499 C   0  0  0  0  0  0  0  0  0  0  0  0
   15.3229  -24.2536  -10.4486 O   0  0  0  0  0  0  0  0  0  0  0  0
   16.6952  -22.4852  -10.2467 O   0  0  0  0  0  0  0  0  0  0  0  0
  2  3  1  0
  2  1  1  1
  4  3  1  0
  5  2  1  0
  6  5  2  0
  7  5  1  0
  8  7  1  0
  8  9  1  6
 10  9  1  0
 11 10  1  0
 12 11  1  0
 13 12  1  0
 14  8  1  0
 14 15  2  0
 16 14  1  0
 17 16  1  0
 17 18  1  1
 19 20  1  0
 19 18  1  0
 20 21  1  0
 21 22  1  0
 23 17  1  0
 24 23  2  0
 25 23  1  0
M  END
$$$$
