CKK.pdb
     RDKit          3D

 25 24  0  0  1  0  0  0  0  0999 V2000
   34.6183  -28.8712  -18.3418 N   0  0  0  0  0  0  0  0  0  0  0  0
   33.4303  -28.7616  -19.1435 C   0  0  1  0  0  0  0  0  0  0  0  0
   33.3042  -29.9820  -20.0282 C   0  0  0  0  0  0  0  0  0  0  0  0
   34.5834  -29.8703  -21.3097 S   0  0  0  0  0  0  0  0  0  0  0  0
   32.2604  -28.5993  -18.2536 C   0  0  0  0  0  0  0  0  0  0  0  0
   32.3178  -28.9771  -17.0608 O   0  0  0  0  0  0  0  0  0  0  0  0
   31.0810  -28.0188  -18.7501 N   0  0  0  0  0  0  0  0  0  0  0  0
   29.9807  -27.7635  -17.8686 C   0  0  1  0  0  0  0  0  0  0  0  0
   29.2521  -26.4933  -18.3284 C   0  0  0  0  0  0  0  0  0  0  0  0
   28.1393  -26.2640  -17.3161 C   0  0  0  0  0  0  0  0  0  0  0  0
   27.4194  -24.9684  -17.5612 C   0  0  0  0  0  0  0  0  0  0  0  0
   26.3611  -24.8258  -16.4881 C   0  0  0  0  0  0  0  0  0  0  0  0
   25.5656  -23.6289  -16.6593 N   0  0  0  0  0  0  0  0  0  0  0  0
   29.0087  -28.8813  -17.9902 C   0  0  0  0  0  0  0  0  0  0  0  0
   28.7898  -29.3565  -19.1403 O   0  0  0  0  0  0  0  0  0  0  0  0
   28.3294  -29.4224  -16.8686 N   0  0  0  0  0  0  0  0  0  0  0  0
   27.5712  -30.6471  -17.0614 C   0  0  1  0  0  0  0  0  0  0  0  0
   27.4659  -31.4212  -15.7675 C   0  0  0  0  0  0  0  0  0  0  0  0
   26.6957  -32.6731  -15.9261 C   0  0  0  0  0  0  0  0  0  0  0  0
   26.4654  -33.4238  -14.6372 C   0  0  0  0  0  0  0  0  0  0  0  0
   25.6203  -34.6681  -14.8630 C   0  0  0  0  0  0  0  0  0  0  0  0
   25.4780  -35.4263  -13.6333 N   0  0  0  0  0  0  0  0  0  0  0  0
   26.2619  -30.2347  -17.6051 C   0  0  0  0  0  0  0  0  0  0  0  0
   25.6699  -30.9652  -18.4092 O   0  0  0  0  0  0  0  0  0  0  0  0
   25.6572  -29.0423  -17.2459 O   0  0  0  0  0  0  0  0  0  0  0  0
  2  3  1  0
  2  1  1  1
  4  3  1  0
  5  2  1  0
  6  5  2  0
  7  5  1  0
  8  7  1  0
  8  9  1  6
 10  9  1  0
 11 10  1  0
 12 11  1  0
 13 12  1  0
 14  8  1  0
 14 15  2  0
 16 14  1  0
 17 16  1  0
 17 18  1  1
 19 20  1  0
 19 18  1  0
 20 21  1  0
 21 22  1  0
 23 17  1  0
 24 23  2  0
 25 23  1  0
M  END
$$$$
