CKK.pdb
     RDKit          3D

 25 24  0  0  1  0  0  0  0  0999 V2000
   26.8181  -20.6818   -9.3054 N   0  0  0  0  0  0  0  0  0  0  0  0
   25.5328  -21.0216   -9.8516 C   0  0  1  0  0  0  0  0  0  0  0  0
   24.4452  -20.3756   -9.0222 C   0  0  0  0  0  0  0  0  0  0  0  0
   24.3888  -21.2297   -7.4227 S   0  0  0  0  0  0  0  0  0  0  0  0
   25.4800  -20.5921  -11.2657 C   0  0  0  0  0  0  0  0  0  0  0  0
   25.6780  -19.3930  -11.5687 O   0  0  0  0  0  0  0  0  0  0  0  0
   25.2066  -21.5345  -12.2716 N   0  0  0  0  0  0  0  0  0  0  0  0
   25.2100  -21.1362  -13.6479 C   0  0  1  0  0  0  0  0  0  0  0  0
   25.5761  -22.3447  -14.5204 C   0  0  0  0  0  0  0  0  0  0  0  0
   25.6417  -21.8211  -15.9477 C   0  0  0  0  0  0  0  0  0  0  0  0
   25.9480  -22.9152  -16.9305 C   0  0  0  0  0  0  0  0  0  0  0  0
   25.9780  -22.2924  -18.3101 C   0  0  0  0  0  0  0  0  0  0  0  0
   26.3170  -23.2537  -19.3375 N   0  0  0  0  0  0  0  0  0  0  0  0
   23.8295  -20.7375  -14.0278 C   0  0  0  0  0  0  0  0  0  0  0  0
   22.8655  -21.3890  -13.5349 O   0  0  0  0  0  0  0  0  0  0  0  0
   23.5664  -19.6622  -14.9149 N   0  0  0  0  0  0  0  0  0  0  0  0
   22.1797  -19.2834  -15.1283 C   0  0  1  0  0  0  0  0  0  0  0  0
   22.0890  -17.9010  -15.7325 C   0  0  0  0  0  0  0  0  0  0  0  0
   20.6921  -17.4994  -16.0026 C   0  0  0  0  0  0  0  0  0  0  0  0
   20.5539  -16.1439  -16.6518 C   0  0  0  0  0  0  0  0  0  0  0  0
   19.0935  -15.7823  -16.8761 C   0  0  0  0  0  0  0  0  0  0  0  0
   18.9766  -14.5197  -17.5829 N   0  0  0  0  0  0  0  0  0  0  0  0
   21.5966  -20.3358  -15.9841 C   0  0  0  0  0  0  0  0  0  0  0  0
   22.2684  -20.8310  -16.8974 O   0  0  0  0  0  0  0  0  0  0  0  0
   20.3050  -20.8005  -15.8042 O   0  0  0  0  0  0  0  0  0  0  0  0
  2  3  1  0
  2  1  1  1
  4  3  1  0
  5  2  1  0
  6  5  2  0
  7  5  1  0
  8  7  1  0
  8  9  1  6
 10  9  1  0
 11 10  1  0
 12 11  1  0
 13 12  1  0
 14  8  1  0
 14 15  2  0
 16 14  1  0
 17 16  1  0
 17 18  1  6
 19 20  1  0
 19 18  1  0
 20 21  1  0
 21 22  1  0
 23 17  1  0
 24 23  2  0
 25 23  1  0
M  END
$$$$
