CKK.pdb
     RDKit          3D

 25 24  0  0  1  0  0  0  0  0999 V2000
   28.6335  -21.8947  -18.5336 N   0  0  0  0  0  0  0  0  0  0  0  0
   28.4902  -22.7411  -17.3809 C   0  0  1  0  0  0  0  0  0  0  0  0
   27.3785  -22.2126  -16.5018 C   0  0  0  0  0  0  0  0  0  0  0  0
   27.9496  -20.6570  -15.7637 S   0  0  0  0  0  0  0  0  0  0  0  0
   28.2314  -24.1267  -17.8283 C   0  0  0  0  0  0  0  0  0  0  0  0
   27.4669  -24.3449  -18.7961 O   0  0  0  0  0  0  0  0  0  0  0  0
   28.8466  -25.2012  -17.1636 N   0  0  0  0  0  0  0  0  0  0  0  0
   28.5398  -26.5488  -17.5412 C   0  0  1  0  0  0  0  0  0  0  0  0
   29.6995  -27.4641  -17.1252 C   0  0  0  0  0  0  0  0  0  0  0  0
   30.0100  -28.3202  -18.3444 C   0  0  0  0  0  0  0  0  0  0  0  0
   31.1347  -29.2806  -18.0808 C   0  0  0  0  0  0  0  0  0  0  0  0
   31.4382  -29.9939  -19.3812 C   0  0  0  0  0  0  0  0  0  0  0  0
   32.5107  -30.9555  -19.2408 N   0  0  0  0  0  0  0  0  0  0  0  0
   27.3474  -26.9946  -16.7742 C   0  0  0  0  0  0  0  0  0  0  0  0
   27.2985  -26.7242  -15.5408 O   0  0  0  0  0  0  0  0  0  0  0  0
   26.2778  -27.7046  -17.3778 N   0  0  0  0  0  0  0  0  0  0  0  0
   25.1266  -28.0271  -16.5515 C   0  0  1  0  0  0  0  0  0  0  0  0
   24.2756  -26.8003  -16.3165 C   0  0  0  0  0  0  0  0  0  0  0  0
   22.9826  -27.1304  -15.6802 C   0  0  0  0  0  0  0  0  0  0  0  0
   22.0359  -25.9608  -15.5625 C   0  0  0  0  0  0  0  0  0  0  0  0
   22.1586  -25.2817  -14.2071 C   0  0  0  0  0  0  0  0  0  0  0  0
   21.2337  -24.1677  -14.1017 N   0  0  0  0  0  0  0  0  0  0  0  0
   24.4108  -29.1102  -17.2546 C   0  0  0  0  0  0  0  0  0  0  0  0
   24.5078  -29.2180  -18.4833 O   0  0  0  0  0  0  0  0  0  0  0  0
   23.6205  -30.0278  -16.5838 O   0  0  0  0  0  0  0  0  0  0  0  0
  2  3  1  0
  2  1  1  6
  4  3  1  0
  5  2  1  0
  6  5  2  0
  7  5  1  0
  8  7  1  0
  8  9  1  1
 10  9  1  0
 11 10  1  0
 12 11  1  0
 13 12  1  0
 14  8  1  0
 14 15  2  0
 16 14  1  0
 17 16  1  0
 17 18  1  6
 19 20  1  0
 19 18  1  0
 20 21  1  0
 21 22  1  0
 23 17  1  0
 24 23  2  0
 25 23  1  0
M  END
$$$$
