CKK.pdb
     RDKit          3D

 25 24  0  0  1  0  0  0  0  0999 V2000
   27.0260  -22.0161  -11.2171 N   0  0  0  0  0  0  0  0  0  0  0  0
   25.7174  -21.4364  -11.0853 C   0  0  1  0  0  0  0  0  0  0  0  0
   25.8051  -20.1760  -10.2537 C   0  0  0  0  0  0  0  0  0  0  0  0
   24.3997  -20.1718   -9.1066 S   0  0  0  0  0  0  0  0  0  0  0  0
   25.1676  -21.1738  -12.4329 C   0  0  0  0  0  0  0  0  0  0  0  0
   25.9207  -20.7931  -13.3584 O   0  0  0  0  0  0  0  0  0  0  0  0
   23.7947  -21.3528  -12.6736 N   0  0  0  0  0  0  0  0  0  0  0  0
   23.3243  -21.5842  -14.0070 C   0  0  1  0  0  0  0  0  0  0  0  0
   22.3489  -22.7691  -13.9977 C   0  0  0  0  0  0  0  0  0  0  0  0
   22.8986  -23.7668  -15.0068 C   0  0  0  0  0  0  0  0  0  0  0  0
   22.1173  -25.0498  -15.0063 C   0  0  0  0  0  0  0  0  0  0  0  0
   22.6297  -25.8951  -16.1531 C   0  0  0  0  0  0  0  0  0  0  0  0
   22.0003  -27.1976  -16.1970 N   0  0  0  0  0  0  0  0  0  0  0  0
   22.5484  -20.3954  -14.4472 C   0  0  0  0  0  0  0  0  0  0  0  0
   21.7007  -19.9088  -13.6464 O   0  0  0  0  0  0  0  0  0  0  0  0
   22.7291  -19.7999  -15.7219 N   0  0  0  0  0  0  0  0  0  0  0  0
   21.9232  -18.6348  -16.0462 C   0  0  1  0  0  0  0  0  0  0  0  0
   22.5423  -17.8549  -17.1832 C   0  0  0  0  0  0  0  0  0  0  0  0
   21.7765  -16.6318  -17.5044 C   0  0  0  0  0  0  0  0  0  0  0  0
   22.3760  -15.8011  -18.6128 C   0  0  0  0  0  0  0  0  0  0  0  0
   21.5840  -14.5223  -18.8386 C   0  0  0  0  0  0  0  0  0  0  0  0
   22.1850  -13.7211  -19.8894 N   0  0  0  0  0  0  0  0  0  0  0  0
   20.5727  -19.1460  -16.3540 C   0  0  0  0  0  0  0  0  0  0  0  0
   20.4410  -20.2295  -16.9366 O   0  0  0  0  0  0  0  0  0  0  0  0
   19.4257  -18.4507  -16.0114 O   0  0  0  0  0  0  0  0  0  0  0  0
  2  3  1  0
  2  1  1  6
  4  3  1  0
  5  2  1  0
  6  5  2  0
  7  5  1  0
  8  7  1  0
  8  9  1  1
 10  9  1  0
 11 10  1  0
 12 11  1  0
 13 12  1  0
 14  8  1  0
 14 15  2  0
 16 14  1  0
 17 16  1  0
 17 18  1  6
 19 20  1  0
 19 18  1  0
 20 21  1  0
 21 22  1  0
 23 17  1  0
 24 23  2  0
 25 23  1  0
M  END
$$$$
