IWS.pdb
     RDKit          3D

 29 30  0  0  1  0  0  0  0  0999 V2000
   30.0281  -20.3286  -16.4989 C   0  0  0  0  0  0  0  0  0  0  0  0
   28.7142  -19.6619  -16.0898 C   0  0  0  0  0  0  0  0  0  0  0  0
   28.0338  -20.4568  -14.9925 C   0  0  2  0  0  0  0  0  0  0  0  0
   28.0367  -21.8942  -15.3781 C   0  0  0  0  0  0  0  0  0  0  0  0
   26.7281  -19.8966  -14.5821 C   0  0  2  0  0  0  0  0  0  0  0  0
   26.9323  -18.4862  -14.2459 N   0  0  0  0  0  0  0  0  0  0  0  0
   26.0451  -20.6168  -13.4910 C   0  0  0  0  0  0  0  0  0  0  0  0
   25.6808  -21.8078  -13.6610 O   0  0  0  0  0  0  0  0  0  0  0  0
   25.7576  -20.0599  -12.2308 N   0  0  0  0  0  0  0  0  0  0  0  0
   24.9644  -20.6248  -11.1970 C   0  0  1  0  0  0  0  0  0  0  0  0
   25.3951  -19.9540   -9.8839 C   0  0  0  0  0  0  0  0  0  0  0  0
   26.7599  -20.4284   -9.5073 C   0  0  0  0  0  0  0  0  0  0  0  0
   27.6125  -21.2465  -10.2112 C   0  0  0  0  0  0  0  0  0  0  0  0
   28.7173  -21.3762   -9.4556 N   0  0  0  0  0  0  0  0  0  0  0  0
   28.6061  -20.6873   -8.3203 C   0  0  0  0  0  0  0  0  0  0  0  0
   29.4244  -20.4858   -7.2264 C   0  0  0  0  0  0  0  0  0  0  0  0
   29.0474  -19.7006   -6.1553 C   0  0  0  0  0  0  0  0  0  0  0  0
   27.8155  -19.0813   -6.1466 C   0  0  0  0  0  0  0  0  0  0  0  0
   26.9970  -19.2850   -7.2444 C   0  0  0  0  0  0  0  0  0  0  0  0
   27.3740  -20.0715   -8.3183 C   0  0  0  0  0  0  0  0  0  0  0  0
   23.5312  -20.6104  -11.3906 C   0  0  0  0  0  0  0  0  0  0  0  0
   22.9851  -19.5766  -11.8424 O   0  0  0  0  0  0  0  0  0  0  0  0
   19.2847  -23.0829  -11.1510 O   0  0  0  0  0  0  0  0  0  0  0  0
   20.6651  -23.0319  -10.9066 C   0  0  0  0  0  0  0  0  0  0  0  0
   21.2419  -21.6933  -11.2844 C   0  0  2  0  0  0  0  0  0  0  0  0
   22.6794  -21.7079  -11.0991 N   0  0  0  0  0  0  0  0  0  0  0  0
   20.5925  -20.6533  -10.4447 C   0  0  0  0  0  0  0  0  0  0  0  0
   21.2417  -20.1287   -9.5087 O   0  0  0  0  0  0  0  0  0  0  0  0
   19.2888  -20.2855  -10.7114 O   0  0  0  0  0  0  0  0  0  0  0  0
  2  1  1  0
  3  2  1  0
  3  4  1  6
  5  3  1  0
  5  6  1  1
  7  5  1  0
  8  7  2  0
  9  7  1  0
 10  9  1  0
 11 12  1  0
 10 11  1  1
 12 20  1  0
 12 13  2  0
 13 14  1  0
 15 14  1  0
 15 16  2  0
 17 16  1  0
 18 17  2  0
 19 18  1  0
 19 20  2  0
 20 15  1  0
 21 22  2  0
 21 10  1  0
 25 24  1  1
 24 23  1  0
 25 26  1  0
 26 21  1  0
 27 25  1  0
 28 27  2  0
 29 27  1  0
M  END
$$$$
