IWS.pdb
     RDKit          3D

 29 30  0  0  1  0  0  0  0  0999 V2000
   28.0822  -17.5438  -17.1173 C   0  0  0  0  0  0  0  0  0  0  0  0
   28.6497  -18.4307  -16.0085 C   0  0  0  0  0  0  0  0  0  0  0  0
   27.5295  -19.1095  -15.2449 C   0  0  2  0  0  0  0  0  0  0  0  0
   26.5406  -18.0751  -14.8363 C   0  0  0  0  0  0  0  0  0  0  0  0
   28.0078  -20.0104  -14.1741 C   0  0  2  0  0  0  0  0  0  0  0  0
   28.9365  -20.9684  -14.7771 N   0  0  0  0  0  0  0  0  0  0  0  0
   26.9521  -20.6953  -13.4046 C   0  0  0  0  0  0  0  0  0  0  0  0
   26.4140  -21.7323  -13.8687 O   0  0  0  0  0  0  0  0  0  0  0  0
   26.4813  -20.2677  -12.1491 N   0  0  0  0  0  0  0  0  0  0  0  0
   25.4261  -20.8317  -11.3840 C   0  0  1  0  0  0  0  0  0  0  0  0
   25.6267  -20.3683   -9.9333 C   0  0  0  0  0  0  0  0  0  0  0  0
   26.9892  -20.7645   -9.4685 C   0  0  0  0  0  0  0  0  0  0  0  0
   27.8899  -21.6153  -10.0656 C   0  0  0  0  0  0  0  0  0  0  0  0
   28.9689  -21.6425   -9.2637 N   0  0  0  0  0  0  0  0  0  0  0  0
   28.7965  -20.8586   -8.1999 C   0  0  0  0  0  0  0  0  0  0  0  0
   29.5677  -20.5346   -7.1012 C   0  0  0  0  0  0  0  0  0  0  0  0
   29.1295  -19.6689   -6.1192 C   0  0  0  0  0  0  0  0  0  0  0  0
   27.8813  -19.0899   -6.2091 C   0  0  0  0  0  0  0  0  0  0  0  0
   27.1102  -19.4163   -7.3115 C   0  0  0  0  0  0  0  0  0  0  0  0
   27.5486  -20.2837   -8.2961 C   0  0  0  0  0  0  0  0  0  0  0  0
   24.0797  -20.6091  -11.8630 C   0  0  0  0  0  0  0  0  0  0  0  0
   23.6234  -19.4418  -11.8856 O   0  0  0  0  0  0  0  0  0  0  0  0
   22.1600  -22.9130  -14.6134 O   0  0  0  0  0  0  0  0  0  0  0  0
   21.3561  -22.6371  -13.4974 C   0  0  0  0  0  0  0  0  0  0  0  0
   21.8502  -21.4280  -12.7484 C   0  0  2  0  0  0  0  0  0  0  0  0
   23.2185  -21.6409  -12.3199 N   0  0  0  0  0  0  0  0  0  0  0  0
   20.9451  -21.1946  -11.5931 C   0  0  0  0  0  0  0  0  0  0  0  0
   21.4069  -21.2656  -10.4293 O   0  0  0  0  0  0  0  0  0  0  0  0
   19.6152  -20.9044  -11.8236 O   0  0  0  0  0  0  0  0  0  0  0  0
  2  1  1  0
  3  2  1  0
  3  4  1  1
  5  3  1  0
  5  6  1  6
  7  5  1  0
  8  7  2  0
  9  7  1  0
 10  9  1  0
 11 12  1  0
 10 11  1  1
 12 20  1  0
 12 13  2  0
 13 14  1  0
 15 14  1  0
 15 16  2  0
 17 16  1  0
 18 17  2  0
 19 18  1  0
 19 20  2  0
 20 15  1  0
 21 22  2  0
 21 10  1  0
 25 24  1  1
 24 23  1  0
 25 26  1  0
 26 21  1  0
 27 25  1  0
 28 27  2  0
 29 27  1  0
M  END
$$$$
