IWS.pdb
     RDKit          3D

 29 30  0  0  1  0  0  0  0  0999 V2000
   29.2603  -19.5963  -14.2201 C   0  0  0  0  0  0  0  0  0  0  0  0
   27.7507  -19.5261  -13.9870 C   0  0  0  0  0  0  0  0  0  0  0  0
   27.3687  -20.2985  -12.7395 C   0  0  2  0  0  0  0  0  0  0  0  0
   27.9777  -21.6542  -12.8172 C   0  0  0  0  0  0  0  0  0  0  0  0
   25.9217  -20.2522  -12.4378 C   0  0  2  0  0  0  0  0  0  0  0  0
   25.5043  -18.8490  -12.4620 N   0  0  0  0  0  0  0  0  0  0  0  0
   25.5152  -20.9133  -11.1834 C   0  0  0  0  0  0  0  0  0  0  0  0
   25.6677  -22.1543  -11.0537 O   0  0  0  0  0  0  0  0  0  0  0  0
   24.9505  -20.2448  -10.0811 N   0  0  0  0  0  0  0  0  0  0  0  0
   24.4237  -20.8241   -8.8963 C   0  0  1  0  0  0  0  0  0  0  0  0
   24.5567  -19.7720   -7.7851 C   0  0  0  0  0  0  0  0  0  0  0  0
   26.0024  -19.5167   -7.5123 C   0  0  0  0  0  0  0  0  0  0  0  0
   26.9503  -18.9608   -8.3393 C   0  0  0  0  0  0  0  0  0  0  0  0
   28.0969  -18.9426   -7.6370 N   0  0  0  0  0  0  0  0  0  0  0  0
   27.9221  -19.4544   -6.4190 C   0  0  0  0  0  0  0  0  0  0  0  0
   28.7454  -19.6658   -5.3308 C   0  0  0  0  0  0  0  0  0  0  0  0
   28.2893  -20.2318   -4.1571 C   0  0  0  0  0  0  0  0  0  0  0  0
   26.9691  -20.6106   -4.0349 C   0  0  0  0  0  0  0  0  0  0  0  0
   26.1458  -20.3974   -5.1272 C   0  0  0  0  0  0  0  0  0  0  0  0
   26.6021  -19.8303   -6.3038 C   0  0  0  0  0  0  0  0  0  0  0  0
   23.0943  -21.3876   -8.9792 C   0  0  0  0  0  0  0  0  0  0  0  0
   22.2810  -20.9174   -9.8091 O   0  0  0  0  0  0  0  0  0  0  0  0
   21.2652  -23.5318   -5.9298 O   0  0  0  0  0  0  0  0  0  0  0  0
   21.1345  -24.0945   -7.2081 C   0  0  0  0  0  0  0  0  0  0  0  0
   21.3199  -23.0600   -8.2864 C   0  0  2  0  0  0  0  0  0  0  0  0
   22.6339  -22.4592   -8.1701 N   0  0  0  0  0  0  0  0  0  0  0  0
   20.2411  -22.0471   -8.1498 C   0  0  0  0  0  0  0  0  0  0  0  0
   19.0476  -22.3989   -8.3059 O   0  0  0  0  0  0  0  0  0  0  0  0
   20.5737  -20.7403   -7.8540 O   0  0  0  0  0  0  0  0  0  0  0  0
  2  1  1  0
  3  2  1  0
  3  4  1  6
  5  3  1  0
  5  6  1  1
  7  5  1  0
  8  7  2  0
  9  7  1  0
 10  9  1  0
 11 12  1  0
 10 11  1  1
 12 20  1  0
 12 13  2  0
 13 14  1  0
 15 14  1  0
 15 16  2  0
 17 16  1  0
 18 17  2  0
 19 18  1  0
 19 20  2  0
 20 15  1  0
 21 22  2  0
 21 10  1  0
 25 24  1  1
 24 23  1  0
 25 26  1  0
 26 21  1  0
 27 25  1  0
 28 27  2  0
 29 27  1  0
M  END
$$$$
