IWS.pdb
     RDKit          3D

 29 30  0  0  1  0  0  0  0  0999 V2000
   23.0580  -22.7862  -20.4432 C   0  0  0  0  0  0  0  0  0  0  0  0
   22.6284  -23.1198  -19.0141 C   0  0  0  0  0  0  0  0  0  0  0  0
   23.5859  -22.5030  -18.0134 C   0  0  2  0  0  0  0  0  0  0  0  0
   24.9786  -22.8036  -18.4436 C   0  0  0  0  0  0  0  0  0  0  0  0
   23.2563  -22.8235  -16.6078 C   0  0  2  0  0  0  0  0  0  0  0  0
   21.8969  -22.3461  -16.3471 N   0  0  0  0  0  0  0  0  0  0  0  0
   24.2079  -22.3140  -15.6025 C   0  0  0  0  0  0  0  0  0  0  0  0
   25.4116  -22.6741  -15.6431 O   0  0  0  0  0  0  0  0  0  0  0  0
   23.8664  -21.4265  -14.5649 N   0  0  0  0  0  0  0  0  0  0  0  0
   24.7420  -20.8091  -13.6326 C   0  0  1  0  0  0  0  0  0  0  0  0
   24.4097  -19.3094  -13.6306 C   0  0  0  0  0  0  0  0  0  0  0  0
   24.8703  -18.6961  -14.9117 C   0  0  0  0  0  0  0  0  0  0  0  0
   24.1182  -18.1428  -15.9216 C   0  0  0  0  0  0  0  0  0  0  0  0
   24.9918  -17.7261  -16.8550 N   0  0  0  0  0  0  0  0  0  0  0  0
   26.2464  -17.9862  -16.4886 C   0  0  0  0  0  0  0  0  0  0  0  0
   27.4854  -17.7738  -17.0602 C   0  0  0  0  0  0  0  0  0  0  0  0
   28.6599  -18.1556  -16.4431 C   0  0  0  0  0  0  0  0  0  0  0  0
   28.6290  -18.7736  -15.2109 C   0  0  0  0  0  0  0  0  0  0  0  0
   27.3857  -18.9852  -14.6401 C   0  0  0  0  0  0  0  0  0  0  0  0
   26.2082  -18.6030  -15.2577 C   0  0  0  0  0  0  0  0  0  0  0  0
   24.7862  -21.3758  -12.3027 C   0  0  0  0  0  0  0  0  0  0  0  0
   23.8216  -22.0676  -11.9000 O   0  0  0  0  0  0  0  0  0  0  0  0
   26.8744  -20.7824   -7.9033 O   0  0  0  0  0  0  0  0  0  0  0  0
   26.9075  -20.6188   -9.2961 C   0  0  0  0  0  0  0  0  0  0  0  0
   25.7540  -21.3225   -9.9606 C   0  0  2  0  0  0  0  0  0  0  0  0
   25.8681  -21.2010  -11.4005 N   0  0  0  0  0  0  0  0  0  0  0  0
   24.4910  -20.7210   -9.4591 C   0  0  0  0  0  0  0  0  0  0  0  0
   24.0606  -19.6695   -9.9898 O   0  0  0  0  0  0  0  0  0  0  0  0
   23.8172  -21.3311   -8.4200 O   0  0  0  0  0  0  0  0  0  0  0  0
  2  1  1  0
  3  2  1  0
  3  4  1  6
  5  3  1  0
  5  6  1  1
  7  5  1  0
  8  7  2  0
  9  7  1  0
 10  9  1  0
 11 12  1  0
 10 11  1  1
 12 20  1  0
 12 13  2  0
 13 14  1  0
 15 14  1  0
 15 16  2  0
 17 16  1  0
 18 17  2  0
 19 18  1  0
 19 20  2  0
 20 15  1  0
 21 22  2  0
 21 10  1  0
 25 24  1  1
 24 23  1  0
 25 26  1  0
 26 21  1  0
 27 25  1  0
 28 27  2  0
 29 27  1  0
M  END
$$$$
