IWS.pdb
     RDKit          3D

 29 30  0  0  1  0  0  0  0  0999 V2000
   26.7261  -18.8252   -6.1639 C   0  0  0  0  0  0  0  0  0  0  0  0
   27.1627  -19.1786   -7.5861 C   0  0  0  0  0  0  0  0  0  0  0  0
   27.2529  -20.6825   -7.7563 C   0  0  2  0  0  0  0  0  0  0  0  0
   28.1492  -21.2256   -6.6997 C   0  0  0  0  0  0  0  0  0  0  0  0
   27.5536  -21.1016   -9.1424 C   0  0  2  0  0  0  0  0  0  0  0  0
   28.9396  -20.7286   -9.4318 N   0  0  0  0  0  0  0  0  0  0  0  0
   26.6315  -20.5884  -10.1730 C   0  0  0  0  0  0  0  0  0  0  0  0
   26.6774  -19.3767  -10.5044 O   0  0  0  0  0  0  0  0  0  0  0  0
   25.6705  -21.3719  -10.8389 N   0  0  0  0  0  0  0  0  0  0  0  0
   24.7927  -20.9642  -11.8783 C   0  0  1  0  0  0  0  0  0  0  0  0
   25.2719  -21.6519  -13.1655 C   0  0  0  0  0  0  0  0  0  0  0  0
   26.4236  -20.8921  -13.7363 C   0  0  0  0  0  0  0  0  0  0  0  0
   27.7703  -21.0984  -13.5478 C   0  0  0  0  0  0  0  0  0  0  0  0
   28.3994  -20.1579  -14.2743 N   0  0  0  0  0  0  0  0  0  0  0  0
   27.5255  -19.3752  -14.9064 C   0  0  0  0  0  0  0  0  0  0  0  0
   27.6342  -18.2915  -15.7553 C   0  0  0  0  0  0  0  0  0  0  0  0
   26.5305  -17.6497  -16.2806 C   0  0  0  0  0  0  0  0  0  0  0  0
   25.2596  -18.0819  -15.9658 C   0  0  0  0  0  0  0  0  0  0  0  0
   25.1533  -19.1685  -15.1147 C   0  0  0  0  0  0  0  0  0  0  0  0
   26.2588  -19.8123  -14.5878 C   0  0  0  0  0  0  0  0  0  0  0  0
   23.3762  -21.1376  -11.6433 C   0  0  0  0  0  0  0  0  0  0  0  0
   22.9906  -22.0491  -10.8741 O   0  0  0  0  0  0  0  0  0  0  0  0
   20.7445  -18.4142  -13.1925 O   0  0  0  0  0  0  0  0  0  0  0  0
   20.2796  -19.1237  -12.0752 C   0  0  0  0  0  0  0  0  0  0  0  0
   20.9524  -20.4656  -11.9564 C   0  0  2  0  0  0  0  0  0  0  0  0
   22.3685  -20.3315  -12.2346 N   0  0  0  0  0  0  0  0  0  0  0  0
   20.2945  -21.4013  -12.9051 C   0  0  0  0  0  0  0  0  0  0  0  0
   20.9564  -21.8685  -13.8623 O   0  0  0  0  0  0  0  0  0  0  0  0
   18.9692  -21.7375  -12.7141 O   0  0  0  0  0  0  0  0  0  0  0  0
  2  1  1  0
  3  2  1  0
  3  4  1  1
  5  3  1  0
  5  6  1  6
  7  5  1  0
  8  7  2  0
  9  7  1  0
 10  9  1  0
 11 12  1  0
 10 11  1  6
 12 20  1  0
 12 13  2  0
 13 14  1  0
 15 14  1  0
 15 16  2  0
 17 16  1  0
 18 17  2  0
 19 18  1  0
 19 20  2  0
 20 15  1  0
 21 22  2  0
 21 10  1  0
 25 24  1  6
 24 23  1  0
 25 26  1  0
 26 21  1  0
 27 25  1  0
 28 27  2  0
 29 27  1  0
M  END
$$$$
