IWS.pdb
     RDKit          3D

 29 30  0  0  1  0  0  0  0  0999 V2000
   25.6609  -16.7841  -19.7875 C   0  0  0  0  0  0  0  0  0  0  0  0
   26.6733  -17.2285  -18.7311 C   0  0  0  0  0  0  0  0  0  0  0  0
   26.0694  -18.2857  -17.8276 C   0  0  2  0  0  0  0  0  0  0  0  0
   24.7165  -17.8312  -17.4059 C   0  0  0  0  0  0  0  0  0  0  0  0
   26.9759  -18.7218  -16.7434 C   0  0  2  0  0  0  0  0  0  0  0  0
   28.1917  -19.2523  -17.3632 N   0  0  0  0  0  0  0  0  0  0  0  0
   26.3985  -19.6812  -15.7832 C   0  0  0  0  0  0  0  0  0  0  0  0
   26.2149  -20.8760  -16.1280 O   0  0  0  0  0  0  0  0  0  0  0  0
   26.0229  -19.3567  -14.4662 N   0  0  0  0  0  0  0  0  0  0  0  0
   25.4591  -20.2212  -13.4905 C   0  0  1  0  0  0  0  0  0  0  0  0
   26.0551  -19.8158  -12.1341 C   0  0  0  0  0  0  0  0  0  0  0  0
   27.5445  -19.8980  -12.2007 C   0  0  0  0  0  0  0  0  0  0  0  0
   28.4119  -19.1888  -12.9984 C   0  0  0  0  0  0  0  0  0  0  0  0
   29.6467  -19.6195  -12.6857 N   0  0  0  0  0  0  0  0  0  0  0  0
   29.6031  -20.5567  -11.7393 C   0  0  0  0  0  0  0  0  0  0  0  0
   30.5535  -21.3082  -11.0768 C   0  0  0  0  0  0  0  0  0  0  0  0
   30.2206  -22.2370  -10.1112 C   0  0  0  0  0  0  0  0  0  0  0  0
   28.9003  -22.4457   -9.7728 C   0  0  0  0  0  0  0  0  0  0  0  0
   27.9496  -21.6910  -10.4384 C   0  0  0  0  0  0  0  0  0  0  0  0
   28.2822  -20.7600  -11.4061 C   0  0  0  0  0  0  0  0  0  0  0  0
   24.0166  -20.3222  -13.4619 C   0  0  0  0  0  0  0  0  0  0  0  0
   23.3342  -19.2871  -13.2768 O   0  0  0  0  0  0  0  0  0  0  0  0
   22.0024  -24.0256  -13.4402 O   0  0  0  0  0  0  0  0  0  0  0  0
   21.4399  -22.9776  -14.1838 C   0  0  0  0  0  0  0  0  0  0  0  0
   21.8558  -21.6347  -13.6445 C   0  0  2  0  0  0  0  0  0  0  0  0
   23.3020  -21.5368  -13.6322 N   0  0  0  0  0  0  0  0  0  0  0  0
   21.2856  -21.4844  -12.2804 C   0  0  0  0  0  0  0  0  0  0  0  0
   22.0599  -21.3195  -11.3079 O   0  0  0  0  0  0  0  0  0  0  0  0
   19.9162  -21.5291  -12.1110 O   0  0  0  0  0  0  0  0  0  0  0  0
  2  1  1  0
  3  2  1  0
  3  4  1  1
  5  3  1  0
  5  6  1  6
  7  5  1  0
  8  7  2  0
  9  7  1  0
 10  9  1  0
 11 12  1  0
 10 11  1  1
 12 20  1  0
 12 13  2  0
 13 14  1  0
 15 14  1  0
 15 16  2  0
 17 16  1  0
 18 17  2  0
 19 18  1  0
 19 20  2  0
 20 15  1  0
 21 22  2  0
 21 10  1  0
 25 24  1  1
 24 23  1  0
 25 26  1  0
 26 21  1  0
 27 25  1  0
 28 27  2  0
 29 27  1  0
M  END
$$$$
