IWS.pdb
     RDKit          3D

 29 30  0  0  1  0  0  0  0  0999 V2000
   25.3130  -18.0733  -17.5786 C   0  0  0  0  0  0  0  0  0  0  0  0
   24.2482  -18.3291  -16.5115 C   0  0  0  0  0  0  0  0  0  0  0  0
   24.7959  -19.2251  -15.4179 C   0  0  2  0  0  0  0  0  0  0  0  0
   25.4177  -20.4194  -16.0517 C   0  0  0  0  0  0  0  0  0  0  0  0
   23.8247  -19.4951  -14.3357 C   0  0  2  0  0  0  0  0  0  0  0  0
   23.2136  -18.2202  -13.9548 N   0  0  0  0  0  0  0  0  0  0  0  0
   24.3666  -20.2045  -13.1615 C   0  0  0  0  0  0  0  0  0  0  0  0
   24.6233  -21.4327  -13.2375 O   0  0  0  0  0  0  0  0  0  0  0  0
   24.6287  -19.5974  -11.9190 N   0  0  0  0  0  0  0  0  0  0  0  0
   25.0076  -20.2356  -10.7082 C   0  0  1  0  0  0  0  0  0  0  0  0
   25.8549  -19.2283   -9.9164 C   0  0  0  0  0  0  0  0  0  0  0  0
   27.0231  -19.9311   -9.3075 C   0  0  0  0  0  0  0  0  0  0  0  0
   27.7127  -21.0239   -9.7786 C   0  0  0  0  0  0  0  0  0  0  0  0
   28.6786  -21.2752   -8.8776 N   0  0  0  0  0  0  0  0  0  0  0  0
   28.6340  -20.4039   -7.8702 C   0  0  0  0  0  0  0  0  0  0  0  0
   29.3727  -20.2175   -6.7185 C   0  0  0  0  0  0  0  0  0  0  0  0
   29.1006  -19.2041   -5.8212 C   0  0  0  0  0  0  0  0  0  0  0  0
   28.0604  -18.3296   -6.0544 C   0  0  0  0  0  0  0  0  0  0  0  0
   27.3216  -18.5187   -7.2097 C   0  0  0  0  0  0  0  0  0  0  0  0
   27.5935  -19.5338   -8.1094 C   0  0  0  0  0  0  0  0  0  0  0  0
   23.9470  -20.8205   -9.9177 C   0  0  0  0  0  0  0  0  0  0  0  0
   22.9098  -20.1526   -9.6956 O   0  0  0  0  0  0  0  0  0  0  0  0
   24.7906  -24.0821   -7.8346 O   0  0  0  0  0  0  0  0  0  0  0  0
   23.3992  -24.0367   -8.0067 C   0  0  0  0  0  0  0  0  0  0  0  0
   22.9535  -22.6998   -8.5371 C   0  0  2  0  0  0  0  0  0  0  0  0
   23.9975  -22.1261   -9.3628 N   0  0  0  0  0  0  0  0  0  0  0  0
   22.6282  -21.8254   -7.3803 C   0  0  0  0  0  0  0  0  0  0  0  0
   23.2753  -20.7642   -7.2139 O   0  0  0  0  0  0  0  0  0  0  0  0
   21.6211  -22.1983   -6.5127 O   0  0  0  0  0  0  0  0  0  0  0  0
  2  1  1  0
  3  2  1  0
  3  4  1  6
  5  3  1  0
  5  6  1  1
  7  5  1  0
  8  7  2  0
  9  7  1  0
 10  9  1  0
 11 12  1  0
 10 11  1  1
 12 20  1  0
 12 13  2  0
 13 14  1  0
 15 14  1  0
 15 16  2  0
 17 16  1  0
 18 17  2  0
 19 18  1  0
 19 20  2  0
 20 15  1  0
 21 22  2  0
 21 10  1  0
 25 24  1  1
 24 23  1  0
 25 26  1  0
 26 21  1  0
 27 25  1  0
 28 27  2  0
 29 27  1  0
M  END
$$$$
