IWS.pdb
     RDKit          3D

 29 30  0  0  1  0  0  0  0  0999 V2000
   18.8073  -15.5822  -17.0362 C   0  0  0  0  0  0  0  0  0  0  0  0
   18.4237  -14.1041  -17.1164 C   0  0  0  0  0  0  0  0  0  0  0  0
   19.5922  -13.2286  -16.7078 C   0  0  2  0  0  0  0  0  0  0  0  0
   20.1371  -13.7374  -15.4197 C   0  0  0  0  0  0  0  0  0  0  0  0
   19.2908  -11.7817  -16.7598 C   0  0  2  0  0  0  0  0  0  0  0  0
   18.8839  -11.4585  -18.1287 N   0  0  0  0  0  0  0  0  0  0  0  0
   20.3724  -10.8928  -16.2955 C   0  0  0  0  0  0  0  0  0  0  0  0
   20.8020  -10.9940  -15.1185 O   0  0  0  0  0  0  0  0  0  0  0  0
   20.9843   -9.9056  -17.0905 N   0  0  0  0  0  0  0  0  0  0  0  0
   22.0463   -9.0367  -16.7240 C   0  0  1  0  0  0  0  0  0  0  0  0
   23.1140   -9.1451  -17.8231 C   0  0  0  0  0  0  0  0  0  0  0  0
   23.8582  -10.4303  -17.6685 C   0  0  0  0  0  0  0  0  0  0  0  0
   23.6663  -11.6219  -18.3280 C   0  0  0  0  0  0  0  0  0  0  0  0
   24.5866  -12.4728  -17.8410 N   0  0  0  0  0  0  0  0  0  0  0  0
   25.3430  -11.8838  -16.9153 C   0  0  0  0  0  0  0  0  0  0  0  0
   26.3988  -12.2924  -16.1247 C   0  0  0  0  0  0  0  0  0  0  0  0
   27.0159  -11.4501  -15.2215 C   0  0  0  0  0  0  0  0  0  0  0  0
   26.5862  -10.1476  -15.0798 C   0  0  0  0  0  0  0  0  0  0  0  0
   25.5276   -9.7405  -15.8736 C   0  0  0  0  0  0  0  0  0  0  0  0
   24.9087  -10.5838  -16.7790 C   0  0  0  0  0  0  0  0  0  0  0  0
   21.6946   -7.6680  -16.4164 C   0  0  0  0  0  0  0  0  0  0  0  0
   20.9816   -7.0237  -17.2213 O   0  0  0  0  0  0  0  0  0  0  0  0
   21.6118   -3.9896  -13.1989 O   0  0  0  0  0  0  0  0  0  0  0  0
   21.9968   -5.3020  -13.5105 C   0  0  0  0  0  0  0  0  0  0  0  0
   21.8512   -5.5837  -14.9825 C   0  0  2  0  0  0  0  0  0  0  0  0
   22.1083   -6.9864  -15.2420 N   0  0  0  0  0  0  0  0  0  0  0  0
   22.7991   -4.7081  -15.7195 C   0  0  0  0  0  0  0  0  0  0  0  0
   24.0147   -5.0140  -15.7540 O   0  0  0  0  0  0  0  0  0  0  0  0
   22.3231   -3.5765  -16.3511 O   0  0  0  0  0  0  0  0  0  0  0  0
  2  1  1  0
  3  2  1  0
  3  4  1  1
  5  3  1  0
  5  6  1  6
  7  5  1  0
  8  7  2  0
  9  7  1  0
 10  9  1  0
 11 12  1  0
 10 11  1  6
 12 20  1  0
 12 13  2  0
 13 14  1  0
 15 14  1  0
 15 16  2  0
 17 16  1  0
 18 17  2  0
 19 18  1  0
 19 20  2  0
 20 15  1  0
 21 22  2  0
 21 10  1  0
 25 24  1  1
 24 23  1  0
 25 26  1  0
 26 21  1  0
 27 25  1  0
 28 27  2  0
 29 27  1  0
M  END
$$$$
