IWS.pdb
     RDKit          3D

 29 30  0  0  1  0  0  0  0  0999 V2000
   18.3475  -12.5982  -20.3176 C   0  0  0  0  0  0  0  0  0  0  0  0
   19.6724  -12.4419  -19.5704 C   0  0  0  0  0  0  0  0  0  0  0  0
   19.6483  -11.2012  -18.6992 C   0  0  2  0  0  0  0  0  0  0  0  0
   19.1243  -10.0661  -19.5065 C   0  0  0  0  0  0  0  0  0  0  0  0
   20.9201  -10.9582  -17.9846 C   0  0  2  0  0  0  0  0  0  0  0  0
   21.2622  -12.1792  -17.2525 N   0  0  0  0  0  0  0  0  0  0  0  0
   20.9334   -9.7782  -17.0996 C   0  0  0  0  0  0  0  0  0  0  0  0
   20.1657   -9.7348  -16.1052 O   0  0  0  0  0  0  0  0  0  0  0  0
   21.7645   -8.6574  -17.2841 N   0  0  0  0  0  0  0  0  0  0  0  0
   21.8206   -7.4828  -16.4878 C   0  0  1  0  0  0  0  0  0  0  0  0
   23.3046   -7.2001  -16.2097 C   0  0  0  0  0  0  0  0  0  0  0  0
   23.9133   -8.3741  -15.5164 C   0  0  0  0  0  0  0  0  0  0  0  0
   23.3737   -9.1682  -14.5315 C   0  0  0  0  0  0  0  0  0  0  0  0
   24.3078  -10.0901  -14.2389 N   0  0  0  0  0  0  0  0  0  0  0  0
   25.4002   -9.9197  -14.9829 C   0  0  0  0  0  0  0  0  0  0  0  0
   26.6153  -10.5684  -15.0809 C   0  0  0  0  0  0  0  0  0  0  0  0
   27.5981  -10.1684  -15.9641 C   0  0  0  0  0  0  0  0  0  0  0  0
   27.3902   -9.0857  -16.7922 C   0  0  0  0  0  0  0  0  0  0  0  0
   26.1712   -8.4373  -16.6920 C   0  0  0  0  0  0  0  0  0  0  0  0
   25.1857   -8.8373  -15.8073 C   0  0  0  0  0  0  0  0  0  0  0  0
   21.1115   -6.3233  -16.9821 C   0  0  0  0  0  0  0  0  0  0  0  0
   21.4083   -5.8584  -18.1077 O   0  0  0  0  0  0  0  0  0  0  0  0
   17.2443   -5.7171  -16.9358 O   0  0  0  0  0  0  0  0  0  0  0  0
   17.8946   -4.6267  -16.3392 C   0  0  0  0  0  0  0  0  0  0  0  0
   19.3299   -4.5312  -16.7840 C   0  0  2  0  0  0  0  0  0  0  0  0
   20.0802   -5.6589  -16.2680 N   0  0  0  0  0  0  0  0  0  0  0  0
   19.8819   -3.2391  -16.3000 C   0  0  0  0  0  0  0  0  0  0  0  0
   20.8884   -3.2451  -15.5519 O   0  0  0  0  0  0  0  0  0  0  0  0
   19.2764   -2.0590  -16.6831 O   0  0  0  0  0  0  0  0  0  0  0  0
  2  1  1  0
  3  2  1  0
  3  4  1  6
  5  3  1  0
  5  6  1  1
  7  5  1  0
  8  7  2  0
  9  7  1  0
 10  9  1  0
 11 12  1  0
 10 11  1  6
 12 20  1  0
 12 13  2  0
 13 14  1  0
 15 14  1  0
 15 16  2  0
 17 16  1  0
 18 17  2  0
 19 18  1  0
 19 20  2  0
 20 15  1  0
 21 22  2  0
 21 10  1  0
 25 24  1  1
 24 23  1  0
 25 26  1  0
 26 21  1  0
 27 25  1  0
 28 27  2  0
 29 27  1  0
M  END
$$$$
