IWS.pdb
     RDKit          3D

 29 30  0  0  1  0  0  0  0  0999 V2000
   30.3306  -20.3962  -17.0719 C   0  0  0  0  0  0  0  0  0  0  0  0
   29.1459  -19.6607  -16.4446 C   0  0  0  0  0  0  0  0  0  0  0  0
   28.6505  -20.4001  -15.2171 C   0  0  2  0  0  0  0  0  0  0  0  0
   28.4883  -21.8382  -15.5643 C   0  0  0  0  0  0  0  0  0  0  0  0
   27.4898  -19.7531  -14.5680 C   0  0  2  0  0  0  0  0  0  0  0  0
   27.8567  -18.3662  -14.2751 N   0  0  0  0  0  0  0  0  0  0  0  0
   26.9725  -20.4380  -13.3684 C   0  0  0  0  0  0  0  0  0  0  0  0
   26.4138  -21.5584  -13.4811 O   0  0  0  0  0  0  0  0  0  0  0  0
   27.0561  -19.9214  -12.0618 N   0  0  0  0  0  0  0  0  0  0  0  0
   26.3948  -20.3996  -10.8995 C   0  0  1  0  0  0  0  0  0  0  0  0
   27.0923  -19.7580   -9.6907 C   0  0  0  0  0  0  0  0  0  0  0  0
   26.4575  -20.2493   -8.4316 C   0  0  0  0  0  0  0  0  0  0  0  0
   25.2525  -20.8918   -8.2679 C   0  0  0  0  0  0  0  0  0  0  0  0
   25.1302  -21.1300   -6.9502 N   0  0  0  0  0  0  0  0  0  0  0  0
   26.1878  -20.6742   -6.2796 C   0  0  0  0  0  0  0  0  0  0  0  0
   26.5577  -20.6601   -4.9493 C   0  0  0  0  0  0  0  0  0  0  0  0
   27.7458  -20.1049   -4.5178 C   0  0  0  0  0  0  0  0  0  0  0  0
   28.6165  -19.5358   -5.4228 C   0  0  0  0  0  0  0  0  0  0  0  0
   28.2433  -19.5513   -6.7558 C   0  0  0  0  0  0  0  0  0  0  0  0
   27.0530  -20.1075   -7.1892 C   0  0  0  0  0  0  0  0  0  0  0  0
   24.9563  -20.2546  -10.8594 C   0  0  0  0  0  0  0  0  0  0  0  0
   24.4610  -19.1764  -10.4552 O   0  0  0  0  0  0  0  0  0  0  0  0
   22.6598  -23.3244  -12.3276 O   0  0  0  0  0  0  0  0  0  0  0  0
   22.2402  -22.0309  -12.6720 C   0  0  0  0  0  0  0  0  0  0  0  0
   22.6702  -21.0202  -11.6420 C   0  0  2  0  0  0  0  0  0  0  0  0
   24.0446  -21.2685  -11.2540 N   0  0  0  0  0  0  0  0  0  0  0  0
   21.7477  -21.1180  -10.4810 C   0  0  0  0  0  0  0  0  0  0  0  0
   22.2175  -21.3648   -9.3447 O   0  0  0  0  0  0  0  0  0  0  0  0
   20.3932  -20.9353  -10.6760 O   0  0  0  0  0  0  0  0  0  0  0  0
  2  1  1  0
  3  2  1  0
  3  4  1  6
  5  3  1  0
  5  6  1  1
  7  5  1  0
  8  7  2  0
  9  7  1  0
 10  9  1  0
 11 12  1  0
 10 11  1  1
 12 20  1  0
 12 13  2  0
 13 14  1  0
 15 14  1  0
 15 16  2  0
 17 16  1  0
 18 17  2  0
 19 18  1  0
 19 20  2  0
 20 15  1  0
 21 22  2  0
 21 10  1  0
 25 24  1  6
 24 23  1  0
 25 26  1  0
 26 21  1  0
 27 25  1  0
 28 27  2  0
 29 27  1  0
M  END
$$$$
