IWS.pdb
     RDKit          3D

 29 30  0  0  1  0  0  0  0  0999 V2000
   28.1604  -16.8896  -16.6739 C   0  0  0  0  0  0  0  0  0  0  0  0
   28.6865  -17.9572  -15.7138 C   0  0  0  0  0  0  0  0  0  0  0  0
   27.5368  -18.7190  -15.0840 C   0  0  2  0  0  0  0  0  0  0  0  0
   26.4905  -17.7432  -14.6743 C   0  0  0  0  0  0  0  0  0  0  0  0
   27.9663  -19.6844  -14.0493 C   0  0  2  0  0  0  0  0  0  0  0  0
   28.9433  -20.5886  -14.6590 N   0  0  0  0  0  0  0  0  0  0  0  0
   26.8786  -20.4318  -13.3906 C   0  0  0  0  0  0  0  0  0  0  0  0
   26.3681  -21.4270  -13.9644 O   0  0  0  0  0  0  0  0  0  0  0  0
   26.3467  -20.1107  -12.1277 N   0  0  0  0  0  0  0  0  0  0  0  0
   25.3547  -20.8217  -11.4016 C   0  0  1  0  0  0  0  0  0  0  0  0
   25.5356  -20.4572   -9.9204 C   0  0  0  0  0  0  0  0  0  0  0  0
   26.9460  -20.7263   -9.5106 C   0  0  0  0  0  0  0  0  0  0  0  0
   27.9109  -21.4527  -10.1686 C   0  0  0  0  0  0  0  0  0  0  0  0
   29.0117  -21.3986   -9.3984 N   0  0  0  0  0  0  0  0  0  0  0  0
   28.7924  -20.6812   -8.2969 C   0  0  0  0  0  0  0  0  0  0  0  0
   29.5601  -20.3228   -7.2065 C   0  0  0  0  0  0  0  0  0  0  0  0
   29.0655  -19.5486   -6.1760 C   0  0  0  0  0  0  0  0  0  0  0  0
   27.7616  -19.1011   -6.2065 C   0  0  0  0  0  0  0  0  0  0  0  0
   26.9942  -19.4618   -7.3008 C   0  0  0  0  0  0  0  0  0  0  0  0
   27.4891  -20.2374   -8.3340 C   0  0  0  0  0  0  0  0  0  0  0  0
   23.9875  -20.6796  -11.8515 C   0  0  0  0  0  0  0  0  0  0  0  0
   23.4689  -19.5389  -11.8822 O   0  0  0  0  0  0  0  0  0  0  0  0
   22.2395  -23.0823  -14.6302 O   0  0  0  0  0  0  0  0  0  0  0  0
   21.4152  -22.8619  -13.5167 C   0  0  0  0  0  0  0  0  0  0  0  0
   21.8196  -21.6185  -12.7700 C   0  0  2  0  0  0  0  0  0  0  0  0
   23.1724  -21.7637  -12.2702 N   0  0  0  0  0  0  0  0  0  0  0  0
   20.8486  -21.4025  -11.6659 C   0  0  0  0  0  0  0  0  0  0  0  0
   21.2615  -21.3861  -10.4819 O   0  0  0  0  0  0  0  0  0  0  0  0
   19.5127  -21.2243  -11.9652 O   0  0  0  0  0  0  0  0  0  0  0  0
  2  1  1  0
  3  2  1  0
  3  4  1  1
  5  3  1  0
  5  6  1  6
  7  5  1  0
  8  7  2  0
  9  7  1  0
 10  9  1  0
 11 12  1  0
 10 11  1  1
 12 20  1  0
 12 13  2  0
 13 14  1  0
 15 14  1  0
 15 16  2  0
 17 16  1  0
 18 17  2  0
 19 18  1  0
 19 20  2  0
 20 15  1  0
 21 22  2  0
 21 10  1  0
 25 24  1  1
 24 23  1  0
 25 26  1  0
 26 21  1  0
 27 25  1  0
 28 27  2  0
 29 27  1  0
M  END
$$$$
