VTC.pdb
     RDKit          3D

 21 20  0  0  1  0  0  0  0  0999 V2000
    7.1166  -12.9660   20.0144 C   0  0  0  0  0  0  0  0  0  0  0  0
    8.5762  -13.2953   20.0362 C   0  0  2  0  0  0  0  0  0  0  0  0
    9.2387  -12.5780   18.8850 C   0  0  0  0  0  0  0  0  0  0  0  0
    8.8516  -14.7675   19.8824 C   0  0  2  0  0  0  0  0  0  0  0  0
    8.3873  -15.3150   18.6515 N   0  0  0  0  0  0  0  0  0  0  0  0
    8.2672  -15.4761   21.0493 C   0  0  0  0  0  0  0  0  0  0  0  0
    7.4364  -16.4062   20.9387 O   0  0  0  0  0  0  0  0  0  0  0  0
   10.0605  -17.4187   23.1617 C   0  0  0  0  0  0  0  0  0  0  0  0
    8.5656  -17.2610   23.3195 C   0  0  1  0  0  0  0  0  0  0  0  0
    8.2747  -17.9033   24.5540 O   0  0  0  0  0  0  0  0  0  0  0  0
    8.1858  -15.8271   23.5229 C   0  0  2  0  0  0  0  0  0  0  0  0
    8.6680  -15.0817   22.3411 N   0  0  0  0  0  0  0  0  0  0  0  0
    8.7205  -15.1647   24.7049 C   0  0  0  0  0  0  0  0  0  0  0  0
    9.9441  -14.7648   24.6374 O   0  0  0  0  0  0  0  0  0  0  0  0
    8.0241  -14.9195   25.9148 N   0  0  0  0  0  0  0  0  0  0  0  0
    8.6096  -14.1270   26.9400 C   0  0  1  0  0  0  0  0  0  0  0  0
    7.5638  -13.2110   27.5947 C   0  0  0  0  0  0  0  0  0  0  0  0
    6.5240  -12.5906   26.2405 S   0  0  0  0  0  0  0  0  0  0  0  0
    9.3264  -14.9047   27.9647 C   0  0  0  0  0  0  0  0  0  0  0  0
   10.0218  -14.2521   28.9526 O   0  0  0  0  0  0  0  0  0  0  0  0
    9.3039  -16.1466   27.9381 O   0  0  0  0  0  0  0  0  0  0  0  0
  2  1  1  6
  2  3  1  0
  4  2  1  0
  4  5  1  6
  6  4  1  0
  6 12  1  0
  7  6  2  0
  9  8  1  1
  9 11  1  0
 10  9  1  0
 11 12  1  6
 11 13  1  0
 13 15  1  0
 14 13  2  0
 15 16  1  0
 16 17  1  1
 17 18  1  0
 19 16  1  0
 19 20  1  0
 21 19  2  0
M  END
$$$$
