VTC.pdb
     RDKit          3D

 21 20  0  0  1  0  0  0  0  0999 V2000
    8.3500  -12.9593   18.3171 C   0  0  0  0  0  0  0  0  0  0  0  0
    7.7941  -13.4899   19.6010 C   0  0  2  0  0  0  0  0  0  0  0  0
    8.2854  -12.6117   20.7263 C   0  0  0  0  0  0  0  0  0  0  0  0
    8.2284  -14.9014   19.8939 C   0  0  2  0  0  0  0  0  0  0  0  0
    7.8518  -15.8401   18.8902 N   0  0  0  0  0  0  0  0  0  0  0  0
    7.6981  -15.2860   21.2266 C   0  0  0  0  0  0  0  0  0  0  0  0
    6.4871  -15.5229   21.4384 O   0  0  0  0  0  0  0  0  0  0  0  0
    7.7965  -18.1090   22.6393 C   0  0  0  0  0  0  0  0  0  0  0  0
    8.4702  -17.3043   23.7271 C   0  0  1  0  0  0  0  0  0  0  0  0
    9.8548  -17.3846   23.4147 O   0  0  0  0  0  0  0  0  0  0  0  0
    8.1272  -15.8506   23.6236 C   0  0  2  0  0  0  0  0  0  0  0  0
    8.6022  -15.3886   22.3023 N   0  0  0  0  0  0  0  0  0  0  0  0
    8.7006  -14.9648   24.6278 C   0  0  0  0  0  0  0  0  0  0  0  0
    9.8693  -14.4845   24.3727 O   0  0  0  0  0  0  0  0  0  0  0  0
    8.0958  -14.5833   25.8516 N   0  0  0  0  0  0  0  0  0  0  0  0
    8.7968  -13.7693   26.7833 C   0  0  1  0  0  0  0  0  0  0  0  0
    7.9637  -12.5401   27.1786 C   0  0  0  0  0  0  0  0  0  0  0  0
    6.2259  -13.0210   26.9568 S   0  0  0  0  0  0  0  0  0  0  0  0
    9.2544  -14.4888   27.9841 C   0  0  0  0  0  0  0  0  0  0  0  0
   10.0234  -13.8376   28.9168 O   0  0  0  0  0  0  0  0  0  0  0  0
    8.9475  -15.6805   28.1552 O   0  0  0  0  0  0  0  0  0  0  0  0
  2  1  1  6
  2  3  1  0
  4  2  1  0
  4  5  1  6
  6  4  1  0
  6 12  1  0
  7  6  2  0
  9  8  1  6
  9 11  1  0
 10  9  1  0
 11 12  1  6
 11 13  1  0
 13 15  1  0
 14 13  2  0
 15 16  1  0
 16 17  1  1
 17 18  1  0
 19 16  1  0
 19 20  1  0
 21 19  2  0
M  END
$$$$
