VTC.pdb
     RDKit          3D

 21 20  0  0  1  0  0  0  0  0999 V2000
    0.4242  -20.1168   21.6832 C   0  0  0  0  0  0  0  0  0  0  0  0
    1.8928  -20.0738   21.9666 C   0  0  2  0  0  0  0  0  0  0  0  0
    2.0939  -19.4286   23.3165 C   0  0  0  0  0  0  0  0  0  0  0  0
    2.6666  -19.2736   20.9529 C   0  0  2  0  0  0  0  0  0  0  0  0
    2.4530  -19.6886   19.6065 N   0  0  0  0  0  0  0  0  0  0  0  0
    4.1053  -19.3246   21.3174 C   0  0  0  0  0  0  0  0  0  0  0  0
    4.8564  -20.2765   21.0056 O   0  0  0  0  0  0  0  0  0  0  0  0
    6.4538  -16.9405   20.2671 C   0  0  0  0  0  0  0  0  0  0  0  0
    6.6498  -16.9723   21.7655 C   0  0  1  0  0  0  0  0  0  0  0  0
    5.8170  -15.9265   22.2492 O   0  0  0  0  0  0  0  0  0  0  0  0
    6.0929  -18.2271   22.3630 C   0  0  2  0  0  0  0  0  0  0  0  0
    4.6487  -18.2500   22.0488 N   0  0  0  0  0  0  0  0  0  0  0  0
    6.2286  -18.3876   23.8044 C   0  0  0  0  0  0  0  0  0  0  0  0
    5.4207  -17.7028   24.5391 O   0  0  0  0  0  0  0  0  0  0  0  0
    7.1604  -19.2229   24.4701 N   0  0  0  0  0  0  0  0  0  0  0  0
    7.3104  -19.1592   25.8827 C   0  0  1  0  0  0  0  0  0  0  0  0
    7.0667  -20.5332   26.5261 C   0  0  0  0  0  0  0  0  0  0  0  0
    7.4803  -20.3426   28.2847 S   0  0  0  0  0  0  0  0  0  0  0  0
    8.6013  -18.6052   26.3251 C   0  0  0  0  0  0  0  0  0  0  0  0
    8.7108  -18.0477   27.5750 O   0  0  0  0  0  0  0  0  0  0  0  0
    9.5891  -18.6408   25.5724 O   0  0  0  0  0  0  0  0  0  0  0  0
  2  1  1  6
  2  3  1  0
  4  2  1  0
  4  5  1  6
  6  4  1  0
  6 12  1  0
  7  6  2  0
  9  8  1  6
  9 11  1  0
 10  9  1  0
 11 12  1  1
 11 13  1  0
 13 15  1  0
 14 13  2  0
 15 16  1  0
 16 17  1  6
 17 18  1  0
 19 16  1  0
 19 20  1  0
 21 19  2  0
M  END
$$$$
