VTC.pdb
     RDKit          3D

 21 20  0  0  1  0  0  0  0  0999 V2000
   16.7054  -13.8687   17.0189 C   0  0  0  0  0  0  0  0  0  0  0  0
   15.3965  -14.0498   17.7212 C   0  0  2  0  0  0  0  0  0  0  0  0
   15.6759  -14.5515   19.1173 C   0  0  0  0  0  0  0  0  0  0  0  0
   14.4961  -15.0483   17.0436 C   0  0  2  0  0  0  0  0  0  0  0  0
   14.2870  -14.7885   15.6583 N   0  0  0  0  0  0  0  0  0  0  0  0
   13.2125  -15.1002   17.7885 C   0  0  0  0  0  0  0  0  0  0  0  0
   12.4140  -14.1374   17.8429 O   0  0  0  0  0  0  0  0  0  0  0  0
   10.8391  -17.7216   17.1125 C   0  0  0  0  0  0  0  0  0  0  0  0
   10.9620  -17.7105   18.6189 C   0  0  1  0  0  0  0  0  0  0  0  0
   11.9395  -18.7046   18.8972 O   0  0  0  0  0  0  0  0  0  0  0  0
   11.5558  -16.4266   19.1093 C   0  0  2  0  0  0  0  0  0  0  0  0
   12.8793  -16.2901   18.4654 N   0  0  0  0  0  0  0  0  0  0  0  0
   11.7545  -16.2986   20.5467 C   0  0  0  0  0  0  0  0  0  0  0  0
   12.9708  -16.3646   20.9685 O   0  0  0  0  0  0  0  0  0  0  0  0
   10.7406  -16.1083   21.5187 N   0  0  0  0  0  0  0  0  0  0  0  0
   11.0629  -16.0662   22.9031 C   0  0  1  0  0  0  0  0  0  0  0  0
    9.9395  -15.3982   23.7112 C   0  0  0  0  0  0  0  0  0  0  0  0
   10.4766  -15.4424   25.4460 S   0  0  0  0  0  0  0  0  0  0  0  0
   11.4028  -17.3775   23.4808 C   0  0  0  0  0  0  0  0  0  0  0  0
   12.4770  -17.4907   24.3284 O   0  0  0  0  0  0  0  0  0  0  0  0
   10.7221  -18.3793   23.2040 O   0  0  0  0  0  0  0  0  0  0  0  0
  2  1  1  6
  2  3  1  0
  4  2  1  0
  4  5  1  6
  6  4  1  0
  6 12  1  0
  7  6  2  0
  9  8  1  6
  9 11  1  0
 10  9  1  0
 11 12  1  6
 11 13  1  0
 13 15  1  0
 14 13  2  0
 15 16  1  0
 16 17  1  1
 17 18  1  0
 19 16  1  0
 19 20  1  0
 21 19  2  0
M  END
$$$$
