VTC.pdb
     RDKit          3D

 21 20  0  0  1  0  0  0  0  0999 V2000
    9.1294  -20.1559   16.8235 C   0  0  0  0  0  0  0  0  0  0  0  0
    9.5234  -19.1064   17.8148 C   0  0  2  0  0  0  0  0  0  0  0  0
    9.4751  -19.7185   19.1939 C   0  0  0  0  0  0  0  0  0  0  0  0
    8.6057  -17.9129   17.8072 C   0  0  2  0  0  0  0  0  0  0  0  0
    8.4234  -17.3345   16.5178 N   0  0  0  0  0  0  0  0  0  0  0  0
    9.1235  -16.9196   18.7822 C   0  0  0  0  0  0  0  0  0  0  0  0
   10.1091  -16.1832   18.5500 O   0  0  0  0  0  0  0  0  0  0  0  0
    7.0911  -14.3032   20.2637 C   0  0  0  0  0  0  0  0  0  0  0  0
    7.7282  -15.0179   21.4333 C   0  0  1  0  0  0  0  0  0  0  0  0
    6.7673  -15.9951   21.8114 O   0  0  0  0  0  0  0  0  0  0  0  0
    8.9341  -15.7962   21.0071 C   0  0  2  0  0  0  0  0  0  0  0  0
    8.4736  -16.8020   20.0267 N   0  0  0  0  0  0  0  0  0  0  0  0
    9.6637  -16.5051   22.0497 C   0  0  0  0  0  0  0  0  0  0  0  0
    9.3795  -17.7528   22.2053 O   0  0  0  0  0  0  0  0  0  0  0  0
   10.6519  -15.9539   22.9032 N   0  0  0  0  0  0  0  0  0  0  0  0
   11.2675  -16.7501   23.9078 C   0  0  1  0  0  0  0  0  0  0  0  0
   12.6832  -16.2427   24.2236 C   0  0  0  0  0  0  0  0  0  0  0  0
   13.5550  -16.1686   22.6315 S   0  0  0  0  0  0  0  0  0  0  0  0
   10.4772  -16.8736   25.1443 C   0  0  0  0  0  0  0  0  0  0  0  0
   10.9345  -17.6649   26.1689 O   0  0  0  0  0  0  0  0  0  0  0  0
    9.4004  -16.2652   25.2628 O   0  0  0  0  0  0  0  0  0  0  0  0
  2  1  1  6
  2  3  1  0
  4  2  1  0
  4  5  1  6
  6  4  1  0
  6 12  1  0
  7  6  2  0
  9  8  1  6
  9 11  1  0
 10  9  1  0
 11 12  1  6
 11 13  1  0
 13 15  1  0
 14 13  2  0
 15 16  1  0
 16 17  1  1
 17 18  1  0
 19 16  1  0
 19 20  1  0
 21 19  2  0
M  END
$$$$
