VTC.pdb
     RDKit          3D

 21 20  0  0  1  0  0  0  0  0999 V2000
    7.1184  -13.3287   20.7851 C   0  0  0  0  0  0  0  0  0  0  0  0
    8.5722  -13.3390   20.4310 C   0  0  2  0  0  0  0  0  0  0  0  0
    8.7803  -12.4024   19.2655 C   0  0  0  0  0  0  0  0  0  0  0  0
    9.0710  -14.7000   20.0239 C   0  0  2  0  0  0  0  0  0  0  0  0
    8.4557  -15.2101   18.8443 N   0  0  0  0  0  0  0  0  0  0  0  0
    8.8966  -15.6241   21.1732 C   0  0  0  0  0  0  0  0  0  0  0  0
    8.1460  -16.6256   21.1377 O   0  0  0  0  0  0  0  0  0  0  0  0
    9.2730  -18.0021   21.6868 C   0  0  0  0  0  0  0  0  0  0  0  0
    9.9914  -17.6405   22.9666 C   0  0  1  0  0  0  0  0  0  0  0  0
   11.3422  -17.4489   22.5670 O   0  0  0  0  0  0  0  0  0  0  0  0
    9.5429  -16.3108   23.4882 C   0  0  2  0  0  0  0  0  0  0  0  0
    9.6104  -15.3596   22.3588 N   0  0  0  0  0  0  0  0  0  0  0  0
   10.3113  -15.7399   24.5862 C   0  0  0  0  0  0  0  0  0  0  0  0
   10.9406  -14.6422   24.3395 O   0  0  0  0  0  0  0  0  0  0  0  0
   10.4298  -16.2755   25.8930 N   0  0  0  0  0  0  0  0  0  0  0  0
   10.5207  -15.4166   27.0226 C   0  0  1  0  0  0  0  0  0  0  0  0
    9.2876  -14.5054   27.1238 C   0  0  0  0  0  0  0  0  0  0  0  0
    9.5724  -13.4361   28.5645 S   0  0  0  0  0  0  0  0  0  0  0  0
   10.7461  -16.1211   28.2961 C   0  0  0  0  0  0  0  0  0  0  0  0
   11.4914  -15.5236   29.2825 O   0  0  0  0  0  0  0  0  0  0  0  0
   10.2651  -17.2516   28.4802 O   0  0  0  0  0  0  0  0  0  0  0  0
  2  1  1  6
  2  3  1  0
  4  2  1  0
  4  5  1  6
  6  4  1  0
  6 12  1  0
  7  6  2  0
  9  8  1  6
  9 11  1  0
 10  9  1  0
 11 12  1  6
 11 13  1  0
 13 15  1  0
 14 13  2  0
 15 16  1  0
 16 17  1  1
 17 18  1  0
 19 16  1  0
 19 20  1  0
 21 19  2  0
M  END
$$$$
