VTC.pdb
     RDKit          3D

 21 20  0  0  1  0  0  0  0  0999 V2000
    7.0915  -13.2547   19.8285 C   0  0  0  0  0  0  0  0  0  0  0  0
    8.4835  -13.2259   19.2803 C   0  0  2  0  0  0  0  0  0  0  0  0
    8.5841  -12.0745   18.3092 C   0  0  0  0  0  0  0  0  0  0  0  0
    8.8538  -14.4852   18.5427 C   0  0  2  0  0  0  0  0  0  0  0  0
    8.0291  -14.7545   17.4124 N   0  0  0  0  0  0  0  0  0  0  0  0
    8.8403  -15.6130   19.5087 C   0  0  0  0  0  0  0  0  0  0  0  0
    7.8541  -16.3685   19.6641 O   0  0  0  0  0  0  0  0  0  0  0  0
   10.8032  -18.3883   19.4158 C   0  0  0  0  0  0  0  0  0  0  0  0
   11.0570  -17.9134   20.8281 C   0  0  1  0  0  0  0  0  0  0  0  0
   12.2550  -17.1540   20.7317 O   0  0  0  0  0  0  0  0  0  0  0  0
   10.0096  -16.9411   21.2743 C   0  0  2  0  0  0  0  0  0  0  0  0
    9.9928  -15.8420   20.2861 N   0  0  0  0  0  0  0  0  0  0  0  0
   10.1841  -16.3419   22.5906 C   0  0  0  0  0  0  0  0  0  0  0  0
   10.7848  -15.2021   22.6298 O   0  0  0  0  0  0  0  0  0  0  0  0
    9.7562  -16.8921   23.8247 N   0  0  0  0  0  0  0  0  0  0  0  0
   10.0946  -16.2635   25.0544 C   0  0  1  0  0  0  0  0  0  0  0  0
    8.9655  -15.3357   25.5292 C   0  0  0  0  0  0  0  0  0  0  0  0
    7.4660  -16.3598   25.5838 S   0  0  0  0  0  0  0  0  0  0  0  0
   10.4739  -17.2019   26.1242 C   0  0  0  0  0  0  0  0  0  0  0  0
   11.0056  -16.7212   27.2952 O   0  0  0  0  0  0  0  0  0  0  0  0
   10.3145  -18.4245   25.9705 O   0  0  0  0  0  0  0  0  0  0  0  0
  2  1  1  6
  2  3  1  0
  4  2  1  0
  4  5  1  6
  6  4  1  0
  6 12  1  0
  7  6  2  0
  9  8  1  6
  9 11  1  0
 10  9  1  0
 11 12  1  6
 11 13  1  0
 13 15  1  0
 14 13  2  0
 15 16  1  0
 16 17  1  1
 17 18  1  0
 19 16  1  0
 19 20  1  0
 21 19  2  0
M  END
$$$$
