VTC.pdb
     RDKit          3D

 21 20  0  0  1  0  0  0  0  0999 V2000
   11.8365  -13.5603   20.3150 C   0  0  0  0  0  0  0  0  0  0  0  0
   12.6086  -14.8200   20.5523 C   0  0  2  0  0  0  0  0  0  0  0  0
   13.6875  -14.9169   19.5010 C   0  0  0  0  0  0  0  0  0  0  0  0
   11.7594  -16.0596   20.4576 C   0  0  2  0  0  0  0  0  0  0  0  0
   11.2073  -16.2823   19.1630 N   0  0  0  0  0  0  0  0  0  0  0  0
   10.7005  -15.9805   21.4957 C   0  0  0  0  0  0  0  0  0  0  0  0
    9.5668  -15.4945   21.2806 O   0  0  0  0  0  0  0  0  0  0  0  0
    8.9960  -18.5294   22.6000 C   0  0  0  0  0  0  0  0  0  0  0  0
    9.5268  -17.9968   23.9112 C   0  0  1  0  0  0  0  0  0  0  0  0
   10.7475  -18.6992   24.1054 O   0  0  0  0  0  0  0  0  0  0  0  0
    9.9158  -16.5555   23.7983 C   0  0  2  0  0  0  0  0  0  0  0  0
   10.9870  -16.4764   22.7830 N   0  0  0  0  0  0  0  0  0  0  0  0
   10.4109  -15.9096   25.0065 C   0  0  0  0  0  0  0  0  0  0  0  0
   11.6889  -15.7725   25.1041 O   0  0  0  0  0  0  0  0  0  0  0  0
    9.6225  -15.4199   26.0777 N   0  0  0  0  0  0  0  0  0  0  0  0
   10.2331  -14.9763   27.2829 C   0  0  1  0  0  0  0  0  0  0  0  0
    9.4013  -13.8684   27.9477 C   0  0  0  0  0  0  0  0  0  0  0  0
    8.6280  -12.9406   26.5907 S   0  0  0  0  0  0  0  0  0  0  0  0
   10.5163  -16.0549   28.2448 C   0  0  0  0  0  0  0  0  0  0  0  0
   11.2659  -15.7898   29.3642 O   0  0  0  0  0  0  0  0  0  0  0  0
   10.0801  -17.2012   28.0470 O   0  0  0  0  0  0  0  0  0  0  0  0
  2  1  1  6
  2  3  1  0
  4  2  1  0
  4  5  1  6
  6  4  1  0
  6 12  1  0
  7  6  2  0
  9  8  1  6
  9 11  1  0
 10  9  1  0
 11 12  1  6
 11 13  1  0
 13 15  1  0
 14 13  2  0
 15 16  1  0
 16 17  1  1
 17 18  1  0
 19 16  1  0
 19 20  1  0
 21 19  2  0
M  END
$$$$
