VTC.pdb
     RDKit          3D

 21 20  0  0  1  0  0  0  0  0999 V2000
    2.1513  -20.9792   23.4668 C   0  0  0  0  0  0  0  0  0  0  0  0
    1.9988  -19.6171   22.8662 C   0  0  2  0  0  0  0  0  0  0  0  0
    0.5335  -19.3865   22.5863 C   0  0  0  0  0  0  0  0  0  0  0  0
    2.7471  -19.4565   21.5697 C   0  0  2  0  0  0  0  0  0  0  0  0
    2.2875  -20.3145   20.5290 N   0  0  0  0  0  0  0  0  0  0  0  0
    4.1944  -19.6523   21.8386 C   0  0  0  0  0  0  0  0  0  0  0  0
    4.7732  -20.7536   21.6978 O   0  0  0  0  0  0  0  0  0  0  0  0
    6.7737  -18.1276   20.1932 C   0  0  0  0  0  0  0  0  0  0  0  0
    7.1382  -17.8275   21.6290 C   0  0  1  0  0  0  0  0  0  0  0  0
    6.6312  -16.5182   21.8520 O   0  0  0  0  0  0  0  0  0  0  0  0
    6.3870  -18.7076   22.5791 C   0  0  2  0  0  0  0  0  0  0  0  0
    4.9502  -18.5453   22.2725 N   0  0  0  0  0  0  0  0  0  0  0  0
    6.5624  -18.4440   24.0009 C   0  0  0  0  0  0  0  0  0  0  0  0
    5.6493  -17.7363   24.5728 O   0  0  0  0  0  0  0  0  0  0  0  0
    7.6370  -18.8918   24.8094 N   0  0  0  0  0  0  0  0  0  0  0  0
    7.7579  -18.4590   26.1585 C   0  0  1  0  0  0  0  0  0  0  0  0
    6.5981  -18.9908   27.0149 C   0  0  0  0  0  0  0  0  0  0  0  0
    6.8838  -20.7761   27.1911 S   0  0  0  0  0  0  0  0  0  0  0  0
    9.0510  -18.7888   26.7814 C   0  0  0  0  0  0  0  0  0  0  0  0
    9.3007  -18.4063   28.0762 O   0  0  0  0  0  0  0  0  0  0  0  0
    9.9146  -19.4106   26.1403 O   0  0  0  0  0  0  0  0  0  0  0  0
  2  1  1  6
  2  3  1  0
  4  2  1  0
  4  5  1  6
  6  4  1  0
  6 12  1  0
  7  6  2  0
  9  8  1  6
  9 11  1  0
 10  9  1  0
 11 12  1  6
 11 13  1  0
 13 15  1  0
 14 13  2  0
 15 16  1  0
 16 17  1  1
 17 18  1  0
 19 16  1  0
 19 20  1  0
 21 19  2  0
M  END
$$$$
