VTC.pdb
     RDKit          3D

 21 20  0  0  1  0  0  0  0  0999 V2000
    7.2852  -12.6553   20.7313 C   0  0  0  0  0  0  0  0  0  0  0  0
    8.4760  -13.5177   20.4528 C   0  0  2  0  0  0  0  0  0  0  0  0
    8.9921  -13.1785   19.0754 C   0  0  0  0  0  0  0  0  0  0  0  0
    8.1579  -14.9891   20.4769 C   0  0  2  0  0  0  0  0  0  0  0  0
    7.2292  -15.3943   19.4751 N   0  0  0  0  0  0  0  0  0  0  0  0
    7.6798  -15.3411   21.8381 C   0  0  0  0  0  0  0  0  0  0  0  0
    6.4729  -15.3055   22.1694 O   0  0  0  0  0  0  0  0  0  0  0  0
    7.1524  -18.1437   23.1520 C   0  0  0  0  0  0  0  0  0  0  0  0
    8.1232  -17.6168   24.1837 C   0  0  1  0  0  0  0  0  0  0  0  0
    9.3947  -18.0561   23.7238 O   0  0  0  0  0  0  0  0  0  0  0  0
    8.1904  -16.1213   24.1573 C   0  0  2  0  0  0  0  0  0  0  0  0
    8.6308  -15.7335   22.8007 N   0  0  0  0  0  0  0  0  0  0  0  0
    9.0925  -15.4850   25.1077 C   0  0  0  0  0  0  0  0  0  0  0  0
   10.3297  -15.3960   24.7569 O   0  0  0  0  0  0  0  0  0  0  0  0
    8.7381  -14.9568   26.3743 N   0  0  0  0  0  0  0  0  0  0  0  0
    9.7330  -14.4343   27.2455 C   0  0  1  0  0  0  0  0  0  0  0  0
    9.1540  -13.3326   28.1469 C   0  0  0  0  0  0  0  0  0  0  0  0
    8.0644  -12.3392   27.0858 S   0  0  0  0  0  0  0  0  0  0  0  0
   10.4180  -15.4555   28.0561 C   0  0  0  0  0  0  0  0  0  0  0  0
   11.4769  -15.0956   28.8525 O   0  0  0  0  0  0  0  0  0  0  0  0
   10.0413  -16.6389   28.0214 O   0  0  0  0  0  0  0  0  0  0  0  0
  2  1  1  6
  2  3  1  0
  4  2  1  0
  4  5  1  6
  6  4  1  0
  6 12  1  0
  7  6  2  0
  9  8  1  6
  9 11  1  0
 10  9  1  0
 11 12  1  6
 11 13  1  0
 13 15  1  0
 14 13  2  0
 15 16  1  0
 16 17  1  1
 17 18  1  0
 19 16  1  0
 19 20  1  0
 21 19  2  0
M  END
$$$$
