VTC.pdb
     RDKit          3D

 21 20  0  0  1  0  0  0  0  0999 V2000
    7.2595  -12.8347   19.5405 C   0  0  0  0  0  0  0  0  0  0  0  0
    8.6365  -13.3765   19.7630 C   0  0  2  0  0  0  0  0  0  0  0  0
    9.5025  -12.9556   18.6004 C   0  0  0  0  0  0  0  0  0  0  0  0
    8.6735  -14.8793   19.8456 C   0  0  2  0  0  0  0  0  0  0  0  0
    8.2532  -15.5325   18.6510 N   0  0  0  0  0  0  0  0  0  0  0  0
    7.8602  -15.3028   21.0137 C   0  0  0  0  0  0  0  0  0  0  0  0
    6.8216  -15.9942   20.9093 O   0  0  0  0  0  0  0  0  0  0  0  0
    6.8760  -17.2449   22.0528 C   0  0  0  0  0  0  0  0  0  0  0  0
    7.3417  -16.7998   23.4201 C   0  0  1  0  0  0  0  0  0  0  0  0
    8.6611  -17.3188   23.5261 O   0  0  0  0  0  0  0  0  0  0  0  0
    7.4976  -15.3123   23.4869 C   0  0  2  0  0  0  0  0  0  0  0  0
    8.2787  -14.9069   22.2994 N   0  0  0  0  0  0  0  0  0  0  0  0
    8.1731  -14.7721   24.6590 C   0  0  0  0  0  0  0  0  0  0  0  0
    9.4550  -14.6587   24.5841 O   0  0  0  0  0  0  0  0  0  0  0  0
    7.5553  -14.3609   25.8666 N   0  0  0  0  0  0  0  0  0  0  0  0
    8.3139  -13.7294   26.8901 C   0  0  1  0  0  0  0  0  0  0  0  0
    7.5664  -12.5143   27.4612 C   0  0  0  0  0  0  0  0  0  0  0  0
    5.8975  -12.5720   26.7460 S   0  0  0  0  0  0  0  0  0  0  0  0
    8.7296  -14.6346   27.9748 C   0  0  0  0  0  0  0  0  0  0  0  0
    9.5581  -14.1728   28.9676 O   0  0  0  0  0  0  0  0  0  0  0  0
    8.3338  -15.8121   27.9943 O   0  0  0  0  0  0  0  0  0  0  0  0
  2  1  1  6
  2  3  1  0
  4  2  1  0
  4  5  1  6
  6  4  1  0
  6 12  1  0
  7  6  2  0
  9  8  1  6
  9 11  1  0
 10  9  1  0
 11 12  1  6
 11 13  1  0
 13 15  1  0
 14 13  2  0
 15 16  1  0
 16 17  1  1
 17 18  1  0
 19 16  1  0
 19 20  1  0
 21 19  2  0
M  END
$$$$
