VTC.pdb
     RDKit          3D

 21 20  0  0  1  0  0  0  0  0999 V2000
    8.6539  -13.0924   18.3193 C   0  0  0  0  0  0  0  0  0  0  0  0
    7.9149  -13.6109   19.5127 C   0  0  2  0  0  0  0  0  0  0  0  0
    8.1156  -12.6392   20.6504 C   0  0  0  0  0  0  0  0  0  0  0  0
    8.4016  -14.9610   19.9677 C   0  0  2  0  0  0  0  0  0  0  0  0
    8.3357  -15.9667   18.9604 N   0  0  0  0  0  0  0  0  0  0  0  0
    7.6341  -15.3504   21.1779 C   0  0  0  0  0  0  0  0  0  0  0  0
    6.5882  -16.0372   21.1329 O   0  0  0  0  0  0  0  0  0  0  0  0
    6.8292  -17.4600   22.4136 C   0  0  0  0  0  0  0  0  0  0  0  0
    7.5148  -16.9042   23.6406 C   0  0  1  0  0  0  0  0  0  0  0  0
    8.8877  -17.2183   23.4464 O   0  0  0  0  0  0  0  0  0  0  0  0
    7.4538  -15.4085   23.6704 C   0  0  2  0  0  0  0  0  0  0  0  0
    8.1068  -14.9258   22.4354 N   0  0  0  0  0  0  0  0  0  0  0  0
    8.1004  -14.7446   24.7942 C   0  0  0  0  0  0  0  0  0  0  0  0
    9.3584  -14.4929   24.6687 O   0  0  0  0  0  0  0  0  0  0  0  0
    7.4781  -14.3509   26.0053 N   0  0  0  0  0  0  0  0  0  0  0  0
    8.2020  -13.6213   26.9880 C   0  0  1  0  0  0  0  0  0  0  0  0
    7.2807  -12.6535   27.7468 C   0  0  0  0  0  0  0  0  0  0  0  0
    5.8547  -12.3637   26.6592 S   0  0  0  0  0  0  0  0  0  0  0  0
    8.9508  -14.4668   27.9332 C   0  0  0  0  0  0  0  0  0  0  0  0
    9.7425  -13.8821   28.8905 O   0  0  0  0  0  0  0  0  0  0  0  0
    8.8684  -15.7047   27.8671 O   0  0  0  0  0  0  0  0  0  0  0  0
  2  1  1  6
  2  3  1  0
  4  2  1  0
  4  5  1  6
  6  4  1  0
  6 12  1  0
  7  6  2  0
  9  8  1  6
  9 11  1  0
 10  9  1  0
 11 12  1  6
 11 13  1  0
 13 15  1  0
 14 13  2  0
 15 16  1  0
 16 17  1  1
 17 18  1  0
 19 16  1  0
 19 20  1  0
 21 19  2  0
M  END
$$$$
