MWG.pdb
     RDKit          3D

 27 28  0  0  1  0  0  0  0  0999 V2000
    7.4717  -11.6107   20.1823 C   0  0  0  0  0  0  0  0  0  0  0  0
    7.1997  -12.8104   18.8512 S   0  0  0  0  0  0  0  0  0  0  0  0
    6.8316  -14.4492   19.5447 C   0  0  0  0  0  0  0  0  0  0  0  0
    7.3445  -14.4718   20.9576 C   0  0  0  0  0  0  0  0  0  0  0  0
    8.3254  -15.6208   21.1816 C   0  0  2  0  0  0  0  0  0  0  0  0
    7.6010  -16.8846   21.2173 N   0  0  0  0  0  0  0  0  0  0  0  0
    9.1332  -15.4142   22.3951 C   0  0  0  0  0  0  0  0  0  0  0  0
    9.8857  -14.3940   22.4068 O   0  0  0  0  0  0  0  0  0  0  0  0
    9.1396  -16.2394   23.5226 N   0  0  0  0  0  0  0  0  0  0  0  0
    9.9692  -15.9718   24.7209 C   0  0  1  0  0  0  0  0  0  0  0  0
    9.0495  -16.1803   25.9046 C   0  0  0  0  0  0  0  0  0  0  0  0
    7.8243  -15.4049   25.9032 C   0  0  0  0  0  0  0  0  0  0  0  0
    6.5544  -15.8428   25.5936 C   0  0  0  0  0  0  0  0  0  0  0  0
    5.7097  -14.8054   25.7013 N   0  0  0  0  0  0  0  0  0  0  0  0
    6.3674  -13.6829   26.0731 C   0  0  0  0  0  0  0  0  0  0  0  0
    5.9353  -12.3850   26.3089 C   0  0  0  0  0  0  0  0  0  0  0  0
    6.8936  -11.4577   26.6830 C   0  0  0  0  0  0  0  0  0  0  0  0
    8.2171  -11.8115   26.8144 C   0  0  0  0  0  0  0  0  0  0  0  0
    8.6097  -13.1102   26.5720 C   0  0  0  0  0  0  0  0  0  0  0  0
    7.6864  -14.0536   26.1998 C   0  0  0  0  0  0  0  0  0  0  0  0
   11.1095  -16.9061   24.7333 C   0  0  0  0  0  0  0  0  0  0  0  0
   11.1444  -17.8159   25.5953 O   0  0  0  0  0  0  0  0  0  0  0  0
   12.1608  -16.7969   23.7927 N   0  0  0  0  0  0  0  0  0  0  0  0
   13.2963  -17.7275   23.8448 C   0  0  0  0  0  0  0  0  0  0  0  0
   14.2458  -17.4561   22.7355 C   0  0  0  0  0  0  0  0  0  0  0  0
   15.4720  -18.0751   22.5981 O   0  0  0  0  0  0  0  0  0  0  0  0
   13.9194  -16.6116   21.8641 O   0  0  0  0  0  0  0  0  0  0  0  0
  2  1  1  0
  3  2  1  0
  4  3  1  0
  4  5  1  0
  5  6  1  1
  7  8  2  0
  7  5  1  0
  9  7  1  0
 10  9  1  0
 11 12  1  0
 10 11  1  1
 12 13  2  0
 12 20  1  0
 13 14  1  0
 14 15  1  0
 15 16  2  0
 16 17  1  0
 18 17  2  0
 19 18  1  0
 20 19  2  0
 20 15  1  0
 21 22  2  0
 21 10  1  0
 23 21  1  0
 24 23  1  0
 24 25  1  0
 25 26  1  0
 27 25  2  0
M  END
$$$$
