MWG.pdb
     RDKit          3D

 27 28  0  0  1  0  0  0  0  0999 V2000
    7.9650  -11.8754   19.3823 C   0  0  0  0  0  0  0  0  0  0  0  0
    6.8171  -13.2744   19.2814 S   0  0  0  0  0  0  0  0  0  0  0  0
    7.6684  -14.8210   19.7118 C   0  0  0  0  0  0  0  0  0  0  0  0
    8.3098  -14.6288   21.0578 C   0  0  0  0  0  0  0  0  0  0  0  0
    9.0179  -15.8970   21.5296 C   0  0  2  0  0  0  0  0  0  0  0  0
    8.0696  -17.0026   21.5699 N   0  0  0  0  0  0  0  0  0  0  0  0
    9.6837  -15.6946   22.8272 C   0  0  0  0  0  0  0  0  0  0  0  0
   10.5757  -14.7948   22.8709 O   0  0  0  0  0  0  0  0  0  0  0  0
    9.4173  -16.4033   24.0015 N   0  0  0  0  0  0  0  0  0  0  0  0
   10.1789  -16.2101   25.2578 C   0  0  1  0  0  0  0  0  0  0  0  0
    9.1585  -16.3177   26.3703 C   0  0  0  0  0  0  0  0  0  0  0  0
    7.9536  -15.5277   26.2076 C   0  0  0  0  0  0  0  0  0  0  0  0
    6.7069  -15.9689   25.8189 C   0  0  0  0  0  0  0  0  0  0  0  0
    5.8767  -14.9151   25.7799 N   0  0  0  0  0  0  0  0  0  0  0  0
    6.5219  -13.7782   26.1293 C   0  0  0  0  0  0  0  0  0  0  0  0
    6.0969  -12.4611   26.2358 C   0  0  0  0  0  0  0  0  0  0  0  0
    7.0374  -11.5229   26.6275 C   0  0  0  0  0  0  0  0  0  0  0  0
    8.3372  -11.8846   26.8986 C   0  0  0  0  0  0  0  0  0  0  0  0
    8.7235  -13.2024   26.7822 C   0  0  0  0  0  0  0  0  0  0  0  0
    7.8174  -14.1570   26.3967 C   0  0  0  0  0  0  0  0  0  0  0  0
   11.2169  -17.2525   25.3546 C   0  0  0  0  0  0  0  0  0  0  0  0
   11.8270  -17.4082   26.4389 O   0  0  0  0  0  0  0  0  0  0  0  0
   11.5353  -18.0790   24.2512 N   0  0  0  0  0  0  0  0  0  0  0  0
   12.6114  -19.0730   24.3609 C   0  0  0  0  0  0  0  0  0  0  0  0
   13.9281  -18.4524   24.0658 C   0  0  0  0  0  0  0  0  0  0  0  0
   14.1065  -17.1118   23.7891 O   0  0  0  0  0  0  0  0  0  0  0  0
   14.9474  -19.1872   24.0661 O   0  0  0  0  0  0  0  0  0  0  0  0
  2  1  1  0
  3  2  1  0
  4  3  1  0
  4  5  1  0
  5  6  1  1
  7  8  2  0
  7  5  1  0
  9  7  1  0
 10  9  1  0
 11 12  1  0
 10 11  1  1
 12 13  2  0
 12 20  1  0
 13 14  1  0
 14 15  1  0
 15 16  2  0
 16 17  1  0
 18 17  2  0
 19 18  1  0
 20 19  2  0
 20 15  1  0
 21 22  2  0
 21 10  1  0
 23 21  1  0
 24 23  1  0
 24 25  1  0
 25 26  1  0
 27 25  2  0
M  END
$$$$
