MWG.pdb
     RDKit          3D

 27 28  0  0  1  0  0  0  0  0999 V2000
    6.8537  -12.6760   17.5501 C   0  0  0  0  0  0  0  0  0  0  0  0
    7.5064  -12.7102   19.2406 S   0  0  0  0  0  0  0  0  0  0  0  0
    8.0138  -14.3972   19.6867 C   0  0  0  0  0  0  0  0  0  0  0  0
    8.6155  -14.3431   21.0633 C   0  0  0  0  0  0  0  0  0  0  0  0
    9.1532  -15.7055   21.4959 C   0  0  2  0  0  0  0  0  0  0  0  0
    8.0977  -16.7049   21.3939 N   0  0  0  0  0  0  0  0  0  0  0  0
    9.7342  -15.6539   22.8478 C   0  0  0  0  0  0  0  0  0  0  0  0
   10.6428  -14.7910   23.0404 O   0  0  0  0  0  0  0  0  0  0  0  0
    9.3717  -16.4672   23.9245 N   0  0  0  0  0  0  0  0  0  0  0  0
   10.0037  -16.3751   25.2616 C   0  0  1  0  0  0  0  0  0  0  0  0
    8.8839  -16.5985   26.2549 C   0  0  0  0  0  0  0  0  0  0  0  0
    7.7558  -15.6930   26.1567 C   0  0  0  0  0  0  0  0  0  0  0  0
    6.4804  -15.9851   25.7231 C   0  0  0  0  0  0  0  0  0  0  0  0
    5.7471  -14.8621   25.7738 N   0  0  0  0  0  0  0  0  0  0  0  0
    6.4853  -13.8227   26.2270 C   0  0  0  0  0  0  0  0  0  0  0  0
    6.1768  -12.4876   26.4485 C   0  0  0  0  0  0  0  0  0  0  0  0
    7.1911  -11.6753   26.9277 C   0  0  0  0  0  0  0  0  0  0  0  0
    8.4502  -12.1741   27.1727 C   0  0  0  0  0  0  0  0  0  0  0  0
    8.7201  -13.5055   26.9412 C   0  0  0  0  0  0  0  0  0  0  0  0
    7.7386  -14.3377   26.4668 C   0  0  0  0  0  0  0  0  0  0  0  0
   11.0532  -17.4050   25.3680 C   0  0  0  0  0  0  0  0  0  0  0  0
   11.6419  -17.5663   26.4633 O   0  0  0  0  0  0  0  0  0  0  0  0
   11.4061  -18.2135   24.2618 N   0  0  0  0  0  0  0  0  0  0  0  0
   12.3698  -19.3098   24.4275 C   0  0  0  0  0  0  0  0  0  0  0  0
   13.7089  -18.9086   23.9255 C   0  0  0  0  0  0  0  0  0  0  0  0
   14.0004  -17.6607   23.4122 O   0  0  0  0  0  0  0  0  0  0  0  0
   14.6391  -19.7523   23.9674 O   0  0  0  0  0  0  0  0  0  0  0  0
  2  1  1  0
  3  2  1  0
  4  3  1  0
  4  5  1  0
  5  6  1  1
  7  8  2  0
  7  5  1  0
  9  7  1  0
 10  9  1  0
 11 12  1  0
 10 11  1  1
 12 13  2  0
 12 20  1  0
 13 14  1  0
 14 15  1  0
 15 16  2  0
 16 17  1  0
 18 17  2  0
 19 18  1  0
 20 19  2  0
 20 15  1  0
 21 22  2  0
 21 10  1  0
 23 21  1  0
 24 23  1  0
 24 25  1  0
 25 26  1  0
 27 25  2  0
M  END
$$$$
