MWG.pdb
     RDKit          3D

 27 28  0  0  1  0  0  0  0  0999 V2000
    8.2075  -11.7675   19.6182 C   0  0  0  0  0  0  0  0  0  0  0  0
    7.7549  -13.1388   18.5229 S   0  0  0  0  0  0  0  0  0  0  0  0
    7.7199  -14.7013   19.4501 C   0  0  0  0  0  0  0  0  0  0  0  0
    8.4197  -14.4695   20.7602 C   0  0  0  0  0  0  0  0  0  0  0  0
    8.5587  -15.7631   21.5601 C   0  0  2  0  0  0  0  0  0  0  0  0
    7.2634  -16.4239   21.6539 N   0  0  0  0  0  0  0  0  0  0  0  0
    9.1499  -15.5188   22.8863 C   0  0  0  0  0  0  0  0  0  0  0  0
    9.5348  -14.3346   23.1245 O   0  0  0  0  0  0  0  0  0  0  0  0
    9.3200  -16.4724   23.8932 N   0  0  0  0  0  0  0  0  0  0  0  0
   10.0269  -16.1938   25.1653 C   0  0  1  0  0  0  0  0  0  0  0  0
    8.9984  -16.4071   26.2549 C   0  0  0  0  0  0  0  0  0  0  0  0
    7.7997  -15.5962   26.1663 C   0  0  0  0  0  0  0  0  0  0  0  0
    6.5322  -16.0080   25.8143 C   0  0  0  0  0  0  0  0  0  0  0  0
    5.7165  -14.9424   25.8426 N   0  0  0  0  0  0  0  0  0  0  0  0
    6.3917  -13.8262   26.2017 C   0  0  0  0  0  0  0  0  0  0  0  0
    5.9905  -12.5077   26.3674 C   0  0  0  0  0  0  0  0  0  0  0  0
    6.9594  -11.5953   26.7505 C   0  0  0  0  0  0  0  0  0  0  0  0
    8.2637  -11.9829   26.9573 C   0  0  0  0  0  0  0  0  0  0  0  0
    8.6257  -13.3012   26.7834 C   0  0  0  0  0  0  0  0  0  0  0  0
    7.6911  -14.2307   26.4044 C   0  0  0  0  0  0  0  0  0  0  0  0
   11.1687  -17.1177   25.2920 C   0  0  0  0  0  0  0  0  0  0  0  0
   11.8312  -17.1278   26.3565 O   0  0  0  0  0  0  0  0  0  0  0  0
   11.5288  -17.9917   24.2391 N   0  0  0  0  0  0  0  0  0  0  0  0
   12.7111  -18.8539   24.3684 C   0  0  0  0  0  0  0  0  0  0  0  0
   13.9065  -18.1922   23.7861 C   0  0  0  0  0  0  0  0  0  0  0  0
   15.1533  -18.7794   23.7059 O   0  0  0  0  0  0  0  0  0  0  0  0
   13.7829  -17.0253   23.3367 O   0  0  0  0  0  0  0  0  0  0  0  0
  2  1  1  0
  3  2  1  0
  4  3  1  0
  4  5  1  0
  5  6  1  1
  7  8  2  0
  7  5  1  0
  9  7  1  0
 10  9  1  0
 11 12  1  0
 10 11  1  1
 12 13  2  0
 12 20  1  0
 13 14  1  0
 14 15  1  0
 15 16  2  0
 16 17  1  0
 18 17  2  0
 19 18  1  0
 20 19  2  0
 20 15  1  0
 21 22  2  0
 21 10  1  0
 23 21  1  0
 24 23  1  0
 24 25  1  0
 25 26  1  0
 27 25  2  0
M  END
$$$$
