MWG.pdb
     RDKit          3D

 27 28  0  0  1  0  0  0  0  0999 V2000
    8.2110  -11.6247   18.9176 C   0  0  0  0  0  0  0  0  0  0  0  0
    7.1916  -12.9955   18.3117 S   0  0  0  0  0  0  0  0  0  0  0  0
    7.7084  -14.5560   19.0861 C   0  0  0  0  0  0  0  0  0  0  0  0
    7.8457  -14.3085   20.5626 C   0  0  0  0  0  0  0  0  0  0  0  0
    8.3089  -15.5619   21.3022 C   0  0  2  0  0  0  0  0  0  0  0  0
    7.2638  -16.5760   21.2519 N   0  0  0  0  0  0  0  0  0  0  0  0
    8.7140  -15.2562   22.6844 C   0  0  0  0  0  0  0  0  0  0  0  0
    8.4937  -14.0757   23.0904 O   0  0  0  0  0  0  0  0  0  0  0  0
    9.3140  -16.1489   23.5763 N   0  0  0  0  0  0  0  0  0  0  0  0
   10.0671  -15.7156   24.7765 C   0  0  1  0  0  0  0  0  0  0  0  0
    9.2073  -16.1098   25.9580 C   0  0  0  0  0  0  0  0  0  0  0  0
    7.9075  -15.4726   26.0402 C   0  0  0  0  0  0  0  0  0  0  0  0
    6.6711  -16.0694   25.9174 C   0  0  0  0  0  0  0  0  0  0  0  0
    5.7283  -15.1224   26.0424 N   0  0  0  0  0  0  0  0  0  0  0  0
    6.2876  -13.9071   26.2452 C   0  0  0  0  0  0  0  0  0  0  0  0
    5.7360  -12.6466   26.4281 C   0  0  0  0  0  0  0  0  0  0  0  0
    6.6150  -11.5924   26.6132 C   0  0  0  0  0  0  0  0  0  0  0  0
    7.9770  -11.7900   26.6151 C   0  0  0  0  0  0  0  0  0  0  0  0
    8.4891  -13.0561   26.4305 C   0  0  0  0  0  0  0  0  0  0  0  0
    7.6467  -14.1223   26.2445 C   0  0  0  0  0  0  0  0  0  0  0  0
   11.3760  -16.3938   24.7923 C   0  0  0  0  0  0  0  0  0  0  0  0
   12.1513  -16.2029   25.7590 O   0  0  0  0  0  0  0  0  0  0  0  0
   11.7717  -17.2547   23.7415 N   0  0  0  0  0  0  0  0  0  0  0  0
   13.1149  -17.8497   23.7420 C   0  0  0  0  0  0  0  0  0  0  0  0
   13.1208  -19.1259   24.5017 C   0  0  0  0  0  0  0  0  0  0  0  0
   13.4611  -20.3482   23.9576 O   0  0  0  0  0  0  0  0  0  0  0  0
   12.7970  -19.0992   25.7155 O   0  0  0  0  0  0  0  0  0  0  0  0
  2  1  1  0
  3  2  1  0
  4  3  1  0
  4  5  1  0
  5  6  1  1
  7  8  2  0
  7  5  1  0
  9  7  1  0
 10  9  1  0
 11 12  1  0
 10 11  1  1
 12 13  2  0
 12 20  1  0
 13 14  1  0
 14 15  1  0
 15 16  2  0
 16 17  1  0
 18 17  2  0
 19 18  1  0
 20 19  2  0
 20 15  1  0
 21 22  2  0
 21 10  1  0
 23 21  1  0
 24 23  1  0
 24 25  1  0
 25 26  1  0
 27 25  2  0
M  END
$$$$
