MWG.pdb
     RDKit          3D

 27 28  0  0  1  0  0  0  0  0999 V2000
    6.1020  -12.3200   19.8040 C   0  0  0  0  0  0  0  0  0  0  0  0
    7.7848  -12.7149   19.2586 S   0  0  0  0  0  0  0  0  0  0  0  0
    8.2311  -14.4029   19.7620 C   0  0  0  0  0  0  0  0  0  0  0  0
    8.9016  -14.3158   21.1047 C   0  0  0  0  0  0  0  0  0  0  0  0
    9.3356  -15.6913   21.6069 C   0  0  2  0  0  0  0  0  0  0  0  0
    8.2035  -16.6079   21.5675 N   0  0  0  0  0  0  0  0  0  0  0  0
    9.9349  -15.6132   22.9495 C   0  0  0  0  0  0  0  0  0  0  0  0
   10.8323  -14.7338   23.1180 O   0  0  0  0  0  0  0  0  0  0  0  0
    9.6006  -16.4182   24.0415 N   0  0  0  0  0  0  0  0  0  0  0  0
   10.1746  -16.2314   25.3947 C   0  0  1  0  0  0  0  0  0  0  0  0
    9.0155  -16.4013   26.3529 C   0  0  0  0  0  0  0  0  0  0  0  0
    7.8421  -15.5939   26.0821 C   0  0  0  0  0  0  0  0  0  0  0  0
    6.6025  -16.0285   25.6642 C   0  0  0  0  0  0  0  0  0  0  0  0
    5.8050  -14.9590   25.5173 N   0  0  0  0  0  0  0  0  0  0  0  0
    6.4653  -13.8180   25.8221 C   0  0  0  0  0  0  0  0  0  0  0  0
    6.0731  -12.4864   25.8223 C   0  0  0  0  0  0  0  0  0  0  0  0
    7.0208  -11.5482   26.1962 C   0  0  0  0  0  0  0  0  0  0  0  0
    8.2962  -11.9237   26.5518 C   0  0  0  0  0  0  0  0  0  0  0  0
    8.6501  -13.2556   26.5400 C   0  0  0  0  0  0  0  0  0  0  0  0
    7.7360  -14.2106   26.1748 C   0  0  0  0  0  0  0  0  0  0  0  0
   11.2270  -17.2406   25.6129 C   0  0  0  0  0  0  0  0  0  0  0  0
   11.6933  -17.3973   26.7662 O   0  0  0  0  0  0  0  0  0  0  0  0
   11.7177  -18.0342   24.5493 N   0  0  0  0  0  0  0  0  0  0  0  0
   12.6795  -19.1120   24.8165 C   0  0  0  0  0  0  0  0  0  0  0  0
   14.0687  -18.6435   24.5784 C   0  0  0  0  0  0  0  0  0  0  0  0
   15.1893  -19.4339   24.7375 O   0  0  0  0  0  0  0  0  0  0  0  0
   14.2425  -17.4551   24.2092 O   0  0  0  0  0  0  0  0  0  0  0  0
  2  1  1  0
  3  2  1  0
  4  3  1  0
  4  5  1  0
  5  6  1  1
  7  8  2  0
  7  5  1  0
  9  7  1  0
 10  9  1  0
 11 12  1  0
 10 11  1  1
 12 13  2  0
 12 20  1  0
 13 14  1  0
 14 15  1  0
 15 16  2  0
 16 17  1  0
 18 17  2  0
 19 18  1  0
 20 19  2  0
 20 15  1  0
 21 22  2  0
 21 10  1  0
 23 21  1  0
 24 23  1  0
 24 25  1  0
 25 26  1  0
 27 25  2  0
M  END
$$$$
