MWG.pdb
     RDKit          3D

 27 28  0  0  1  0  0  0  0  0999 V2000
    7.8781  -12.2290   19.4198 C   0  0  0  0  0  0  0  0  0  0  0  0
    6.5669  -13.3922   19.8811 S   0  0  0  0  0  0  0  0  0  0  0  0
    7.2851  -14.9021   20.5928 C   0  0  0  0  0  0  0  0  0  0  0  0
    8.6925  -14.5828   21.0136 C   0  0  0  0  0  0  0  0  0  0  0  0
    9.4105  -15.8163   21.5571 C   0  0  2  0  0  0  0  0  0  0  0  0
    8.5443  -16.9818   21.4359 N   0  0  0  0  0  0  0  0  0  0  0  0
    9.8671  -15.6108   22.9417 C   0  0  0  0  0  0  0  0  0  0  0  0
   10.5970  -14.5958   23.1518 O   0  0  0  0  0  0  0  0  0  0  0  0
    9.5662  -16.4317   24.0316 N   0  0  0  0  0  0  0  0  0  0  0  0
   10.0605  -16.1735   25.4044 C   0  0  1  0  0  0  0  0  0  0  0  0
    8.8776  -16.4248   26.3144 C   0  0  0  0  0  0  0  0  0  0  0  0
    7.7119  -15.5931   26.0874 C   0  0  0  0  0  0  0  0  0  0  0  0
    6.4993  -15.9750   25.5546 C   0  0  0  0  0  0  0  0  0  0  0  0
    5.7002  -14.8980   25.5028 N   0  0  0  0  0  0  0  0  0  0  0  0
    6.3333  -13.8027   25.9828 C   0  0  0  0  0  0  0  0  0  0  0  0
    5.9290  -12.4831   26.1308 C   0  0  0  0  0  0  0  0  0  0  0  0
    6.8474  -11.5969   26.6685 C   0  0  0  0  0  0  0  0  0  0  0  0
    8.1066  -12.0105   27.0393 C   0  0  0  0  0  0  0  0  0  0  0  0
    8.4733  -13.3291   26.8777 C   0  0  0  0  0  0  0  0  0  0  0  0
    7.5881  -14.2330   26.3483 C   0  0  0  0  0  0  0  0  0  0  0  0
   11.1831  -17.0856   25.6895 C   0  0  0  0  0  0  0  0  0  0  0  0
   11.5367  -17.2659   26.8789 O   0  0  0  0  0  0  0  0  0  0  0  0
   11.8656  -17.7604   24.6499 N   0  0  0  0  0  0  0  0  0  0  0  0
   12.9630  -18.6842   24.9667 C   0  0  0  0  0  0  0  0  0  0  0  0
   13.4874  -19.3164   23.7292 C   0  0  0  0  0  0  0  0  0  0  0  0
   14.4974  -20.2574   23.7097 O   0  0  0  0  0  0  0  0  0  0  0  0
   12.9855  -18.9787   22.6279 O   0  0  0  0  0  0  0  0  0  0  0  0
  2  1  1  0
  3  2  1  0
  4  3  1  0
  4  5  1  0
  5  6  1  1
  7  8  2  0
  7  5  1  0
  9  7  1  0
 10  9  1  0
 11 12  1  0
 10 11  1  1
 12 13  2  0
 12 20  1  0
 13 14  1  0
 14 15  1  0
 15 16  2  0
 16 17  1  0
 18 17  2  0
 19 18  1  0
 20 19  2  0
 20 15  1  0
 21 22  2  0
 21 10  1  0
 23 21  1  0
 24 23  1  0
 24 25  1  0
 25 26  1  0
 27 25  2  0
M  END
$$$$
