MWG.pdb
     RDKit          3D

 27 28  0  0  1  0  0  0  0  0999 V2000
    7.6720  -11.8702   20.3710 C   0  0  0  0  0  0  0  0  0  0  0  0
    6.9176  -13.2799   19.5172 S   0  0  0  0  0  0  0  0  0  0  0  0
    7.1981  -14.8098   20.4567 C   0  0  0  0  0  0  0  0  0  0  0  0
    8.6797  -15.0629   20.4839 C   0  0  0  0  0  0  0  0  0  0  0  0
    9.0190  -16.3339   21.2596 C   0  0  2  0  0  0  0  0  0  0  0  0
    7.8189  -17.1438   21.4239 N   0  0  0  0  0  0  0  0  0  0  0  0
    9.6572  -16.0264   22.5503 C   0  0  0  0  0  0  0  0  0  0  0  0
   10.5931  -15.1715   22.5291 O   0  0  0  0  0  0  0  0  0  0  0  0
    9.3211  -16.5916   23.7831 N   0  0  0  0  0  0  0  0  0  0  0  0
    9.9622  -16.1975   25.0596 C   0  0  1  0  0  0  0  0  0  0  0  0
    8.8963  -16.3747   26.1194 C   0  0  0  0  0  0  0  0  0  0  0  0
    7.7142  -15.5471   25.9779 C   0  0  0  0  0  0  0  0  0  0  0  0
    6.4582  -15.9408   25.5687 C   0  0  0  0  0  0  0  0  0  0  0  0
    5.6571  -14.8639   25.5616 N   0  0  0  0  0  0  0  0  0  0  0  0
    6.3309  -13.7575   25.9522 C   0  0  0  0  0  0  0  0  0  0  0  0
    5.9411  -12.4336   26.1012 C   0  0  0  0  0  0  0  0  0  0  0  0
    6.9045  -11.5351   26.5287 C   0  0  0  0  0  0  0  0  0  0  0  0
    8.1925  -11.9411   26.7935 C   0  0  0  0  0  0  0  0  0  0  0  0
    8.5436  -13.2643   26.6344 C   0  0  0  0  0  0  0  0  0  0  0  0
    7.6141  -14.1803   26.2126 C   0  0  0  0  0  0  0  0  0  0  0  0
   11.1303  -17.0648   25.2975 C   0  0  0  0  0  0  0  0  0  0  0  0
   11.6906  -17.0409   26.4190 O   0  0  0  0  0  0  0  0  0  0  0  0
   11.6283  -17.9223   24.2882 N   0  0  0  0  0  0  0  0  0  0  0  0
   12.7828  -18.7889   24.5605 C   0  0  0  0  0  0  0  0  0  0  0  0
   13.2016  -19.5040   23.3280 C   0  0  0  0  0  0  0  0  0  0  0  0
   14.2064  -20.4497   23.2862 O   0  0  0  0  0  0  0  0  0  0  0  0
   12.6090  -19.2368   22.2527 O   0  0  0  0  0  0  0  0  0  0  0  0
  2  1  1  0
  3  2  1  0
  4  3  1  0
  4  5  1  0
  5  6  1  1
  7  8  2  0
  7  5  1  0
  9  7  1  0
 10  9  1  0
 11 12  1  0
 10 11  1  1
 12 13  2  0
 12 20  1  0
 13 14  1  0
 14 15  1  0
 15 16  2  0
 16 17  1  0
 18 17  2  0
 19 18  1  0
 20 19  2  0
 20 15  1  0
 21 22  2  0
 21 10  1  0
 23 21  1  0
 24 23  1  0
 24 25  1  0
 25 26  1  0
 27 25  2  0
M  END
$$$$
