MWG.pdb
     RDKit          3D

 27 28  0  0  1  0  0  0  0  0999 V2000
    8.4563  -11.5228   19.1809 C   0  0  0  0  0  0  0  0  0  0  0  0
    7.2537  -12.6156   19.9838 S   0  0  0  0  0  0  0  0  0  0  0  0
    7.8490  -14.3323   19.9626 C   0  0  0  0  0  0  0  0  0  0  0  0
    6.8424  -15.1729   20.6975 C   0  0  0  0  0  0  0  0  0  0  0  0
    7.5149  -16.2946   21.4861 C   0  0  2  0  0  0  0  0  0  0  0  0
    6.5167  -17.2746   21.8941 N   0  0  0  0  0  0  0  0  0  0  0  0
    8.2735  -15.7702   22.6339 C   0  0  0  0  0  0  0  0  0  0  0  0
    8.1668  -14.5277   22.8622 O   0  0  0  0  0  0  0  0  0  0  0  0
    9.0917  -16.5192   23.4835 N   0  0  0  0  0  0  0  0  0  0  0  0
    9.9392  -15.9139   24.5375 C   0  0  1  0  0  0  0  0  0  0  0  0
    9.2063  -16.1620   25.8382 C   0  0  0  0  0  0  0  0  0  0  0  0
    7.9351  -15.4819   25.9924 C   0  0  0  0  0  0  0  0  0  0  0  0
    6.6739  -16.0116   25.8225 C   0  0  0  0  0  0  0  0  0  0  0  0
    5.7727  -15.0425   26.0463 N   0  0  0  0  0  0  0  0  0  0  0  0
    6.3841  -13.8773   26.3614 C   0  0  0  0  0  0  0  0  0  0  0  0
    5.8872  -12.6184   26.6701 C   0  0  0  0  0  0  0  0  0  0  0  0
    6.8110  -11.6250   26.9494 C   0  0  0  0  0  0  0  0  0  0  0  0
    8.1633  -11.8788   26.9209 C   0  0  0  0  0  0  0  0  0  0  0  0
    8.6204  -13.1412   26.6103 C   0  0  0  0  0  0  0  0  0  0  0  0
    7.7327  -14.1481   26.3287 C   0  0  0  0  0  0  0  0  0  0  0  0
   11.2648  -16.5585   24.5162 C   0  0  0  0  0  0  0  0  0  0  0  0
   11.4992  -17.4998   25.3107 O   0  0  0  0  0  0  0  0  0  0  0  0
   12.2737  -16.1377   23.6178 N   0  0  0  0  0  0  0  0  0  0  0  0
   13.5725  -16.8238   23.5938 C   0  0  0  0  0  0  0  0  0  0  0  0
   14.4636  -16.2198   22.5706 C   0  0  0  0  0  0  0  0  0  0  0  0
   15.8358  -16.3703   22.5543 O   0  0  0  0  0  0  0  0  0  0  0  0
   13.9434  -15.5274   21.6602 O   0  0  0  0  0  0  0  0  0  0  0  0
  2  1  1  0
  3  2  1  0
  4  3  1  0
  4  5  1  0
  5  6  1  1
  7  8  2  0
  7  5  1  0
  9  7  1  0
 10  9  1  0
 11 12  1  0
 10 11  1  1
 12 13  2  0
 12 20  1  0
 13 14  1  0
 14 15  1  0
 15 16  2  0
 16 17  1  0
 18 17  2  0
 19 18  1  0
 20 19  2  0
 20 15  1  0
 21 22  2  0
 21 10  1  0
 23 21  1  0
 24 23  1  0
 24 25  1  0
 25 26  1  0
 27 25  2  0
M  END
$$$$
