MWG.pdb
     RDKit          3D

 27 28  0  0  1  0  0  0  0  0999 V2000
    8.2054  -11.7600   19.9622 C   0  0  0  0  0  0  0  0  0  0  0  0
    7.3073  -12.9916   18.9816 S   0  0  0  0  0  0  0  0  0  0  0  0
    7.6177  -14.6611   19.6284 C   0  0  0  0  0  0  0  0  0  0  0  0
    8.4907  -14.5237   20.8444 C   0  0  0  0  0  0  0  0  0  0  0  0
    8.8367  -15.8846   21.4451 C   0  0  2  0  0  0  0  0  0  0  0  0
    7.6137  -16.6371   21.6925 N   0  0  0  0  0  0  0  0  0  0  0  0
    9.6548  -15.7473   22.6616 C   0  0  0  0  0  0  0  0  0  0  0  0
   10.6991  -15.0353   22.5635 O   0  0  0  0  0  0  0  0  0  0  0  0
    9.3792  -16.3294   23.9015 N   0  0  0  0  0  0  0  0  0  0  0  0
   10.1235  -15.9969   25.1389 C   0  0  1  0  0  0  0  0  0  0  0  0
    9.1381  -16.1970   26.2700 C   0  0  0  0  0  0  0  0  0  0  0  0
    7.8804  -15.4854   26.1520 C   0  0  0  0  0  0  0  0  0  0  0  0
    6.6361  -16.0179   25.8913 C   0  0  0  0  0  0  0  0  0  0  0  0
    5.7451  -15.0150   25.8500 N   0  0  0  0  0  0  0  0  0  0  0  0
    6.3471  -13.8241   26.0742 C   0  0  0  0  0  0  0  0  0  0  0  0
    5.8550  -12.5273   26.1291 C   0  0  0  0  0  0  0  0  0  0  0  0
    6.7657  -11.5157   26.3849 C   0  0  0  0  0  0  0  0  0  0  0  0
    8.1011  -11.7883   26.5760 C   0  0  0  0  0  0  0  0  0  0  0  0
    8.5539  -13.0884   26.5143 C   0  0  0  0  0  0  0  0  0  0  0  0
    7.6788  -14.1141   26.2630 C   0  0  0  0  0  0  0  0  0  0  0  0
   11.2886  -16.8930   25.2533 C   0  0  0  0  0  0  0  0  0  0  0  0
   11.9507  -16.9011   26.3181 O   0  0  0  0  0  0  0  0  0  0  0  0
   11.6713  -17.7424   24.1884 N   0  0  0  0  0  0  0  0  0  0  0  0
   12.8797  -18.5699   24.3033 C   0  0  0  0  0  0  0  0  0  0  0  0
   14.0019  -17.9644   23.5417 C   0  0  0  0  0  0  0  0  0  0  0  0
   14.6620  -18.5941   22.5055 O   0  0  0  0  0  0  0  0  0  0  0  0
   14.3795  -16.8075   23.8543 O   0  0  0  0  0  0  0  0  0  0  0  0
  2  1  1  0
  3  2  1  0
  4  3  1  0
  4  5  1  0
  5  6  1  1
  7  8  2  0
  7  5  1  0
  9  7  1  0
 10  9  1  0
 11 12  1  0
 10 11  1  1
 12 13  2  0
 12 20  1  0
 13 14  1  0
 14 15  1  0
 15 16  2  0
 16 17  1  0
 18 17  2  0
 19 18  1  0
 20 19  2  0
 20 15  1  0
 21 22  2  0
 21 10  1  0
 23 21  1  0
 24 23  1  0
 24 25  1  0
 25 26  1  0
 27 25  2  0
M  END
$$$$
