MWG.pdb
     RDKit          3D

 27 28  0  0  1  0  0  0  0  0999 V2000
    7.8134  -16.6433   15.4643 C   0  0  0  0  0  0  0  0  0  0  0  0
    8.8132  -16.0566   16.8575 S   0  0  0  0  0  0  0  0  0  0  0  0
    7.7459  -15.3418   18.1429 C   0  0  0  0  0  0  0  0  0  0  0  0
    8.5839  -15.1496   19.3761 C   0  0  0  0  0  0  0  0  0  0  0  0
    7.7484  -14.6450   20.5507 C   0  0  2  0  0  0  0  0  0  0  0  0
    7.1441  -13.3638   20.2088 N   0  0  0  0  0  0  0  0  0  0  0  0
    8.5442  -14.5664   21.7870 C   0  0  0  0  0  0  0  0  0  0  0  0
    9.0988  -13.4533   22.0328 O   0  0  0  0  0  0  0  0  0  0  0  0
    8.7367  -15.6046   22.7021 N   0  0  0  0  0  0  0  0  0  0  0  0
    9.4917  -15.4435   23.9669 C   0  0  1  0  0  0  0  0  0  0  0  0
    8.6219  -16.0635   25.0391 C   0  0  0  0  0  0  0  0  0  0  0  0
    7.4617  -15.2930   25.4421 C   0  0  0  0  0  0  0  0  0  0  0  0
    6.1362  -15.6589   25.3452 C   0  0  0  0  0  0  0  0  0  0  0  0
    5.3826  -14.6530   25.8160 N   0  0  0  0  0  0  0  0  0  0  0  0
    6.1555  -13.6212   26.2270 C   0  0  0  0  0  0  0  0  0  0  0  0
    5.8440  -12.3852   26.7766 C   0  0  0  0  0  0  0  0  0  0  0  0
    6.9017  -11.5478   27.0898 C   0  0  0  0  0  0  0  0  0  0  0  0
    8.2050  -11.9282   26.8643 C   0  0  0  0  0  0  0  0  0  0  0  0
    8.4766  -13.1635   26.3170 C   0  0  0  0  0  0  0  0  0  0  0  0
    7.4526  -14.0174   25.9952 C   0  0  0  0  0  0  0  0  0  0  0  0
   10.7905  -16.1295   23.8410 C   0  0  0  0  0  0  0  0  0  0  0  0
   11.5144  -16.2579   24.8567 O   0  0  0  0  0  0  0  0  0  0  0  0
   11.2332  -16.6456   22.6002 N   0  0  0  0  0  0  0  0  0  0  0  0
   12.5430  -17.3033   22.5004 C   0  0  0  0  0  0  0  0  0  0  0  0
   12.7847  -17.7788   21.1143 C   0  0  0  0  0  0  0  0  0  0  0  0
   12.3555  -18.9978   20.6290 O   0  0  0  0  0  0  0  0  0  0  0  0
   13.4186  -17.0304   20.3288 O   0  0  0  0  0  0  0  0  0  0  0  0
  2  1  1  0
  3  2  1  0
  4  3  1  0
  4  5  1  0
  5  6  1  6
  7  8  2  0
  7  5  1  0
  9  7  1  0
 10  9  1  0
 11 12  1  0
 10 11  1  1
 12 13  2  0
 12 20  1  0
 13 14  1  0
 14 15  1  0
 15 16  2  0
 16 17  1  0
 18 17  2  0
 19 18  1  0
 20 19  2  0
 20 15  1  0
 21 22  2  0
 21 10  1  0
 23 21  1  0
 24 23  1  0
 24 25  1  0
 25 26  1  0
 27 25  2  0
M  END
$$$$
