DFN.pdb
     RDKit          3D

 28 28  0  0  1  0  0  0  0  0999 V2000
   28.3042  -22.6676  -17.4546 N   0  0  0  0  0  0  0  0  0  0  0  0
   27.7745  -21.3792  -17.0500 C   0  0  1  0  0  0  0  0  0  0  0  0
   26.9537  -20.8506  -18.2269 C   0  0  0  0  0  0  0  0  0  0  0  0
   27.9009  -20.3933  -19.2704 C   0  0  0  0  0  0  0  0  0  0  0  0
   28.0627  -21.0849  -20.3125 O   0  0  0  0  0  0  0  0  0  0  0  0
   26.8876  -21.5769  -15.8709 C   0  0  0  0  0  0  0  0  0  0  0  0
   26.0167  -22.5057  -15.8788 O   0  0  0  0  0  0  0  0  0  0  0  0
   28.6441  -19.2247  -19.1799 O   0  0  0  0  0  0  0  0  0  0  0  0
   26.9409  -20.7864  -14.7068 N   0  0  0  0  0  0  0  0  0  0  0  0
   26.1079  -21.0140  -13.5277 C   0  0  1  0  0  0  0  0  0  0  0  0
   26.8203  -20.4263  -12.3779 C   0  0  0  0  0  0  0  0  0  0  0  0
   26.1747  -20.4079  -11.0843 C   0  0  0  0  0  0  0  0  0  0  0  0
   25.2350  -19.4918  -10.6646 C   0  0  0  0  0  0  0  0  0  0  0  0
   24.6563  -19.5388   -9.4205 C   0  0  0  0  0  0  0  0  0  0  0  0
   25.0107  -20.5341   -8.5305 C   0  0  0  0  0  0  0  0  0  0  0  0
   25.9486  -21.4672   -8.9196 C   0  0  0  0  0  0  0  0  0  0  0  0
   26.5086  -21.3919  -10.1722 C   0  0  0  0  0  0  0  0  0  0  0  0
   24.7754  -20.3950  -13.6716 C   0  0  0  0  0  0  0  0  0  0  0  0
   24.7181  -19.3258  -14.3253 O   0  0  0  0  0  0  0  0  0  0  0  0
   20.5722  -18.6931  -15.7793 N   0  0  0  0  0  0  0  0  0  0  0  0
   20.7406  -20.0651  -15.3905 C   0  0  0  0  0  0  0  0  0  0  0  0
   19.6614  -20.7369  -15.4344 O   0  0  0  0  0  0  0  0  0  0  0  0
   22.0513  -20.6024  -14.9871 C   0  0  0  0  0  0  0  0  0  0  0  0
   22.3148  -20.3350  -13.5434 C   0  0  2  0  0  0  0  0  0  0  0  0
   23.5924  -20.9252  -13.1288 N   0  0  0  0  0  0  0  0  0  0  0  0
   21.2829  -21.0632  -12.7255 C   0  0  0  0  0  0  0  0  0  0  0  0
   20.3679  -20.4824  -12.1150 O   0  0  0  0  0  0  0  0  0  0  0  0
   21.3174  -22.4442  -12.6216 O   0  0  0  0  0  0  0  0  0  0  0  0
  2  6  1  0
  2  1  1  6
  2  3  1  0
  4  8  1  0
  4  3  1  0
  5  4  2  0
  6  9  1  0
  7  6  2  0
  9 10  1  0
 10 11  1  1
 11 12  1  0
 12 17  2  0
 12 13  1  0
 13 14  2  0
 14 15  1  0
 16 15  2  0
 17 16  1  0
 18 19  2  0
 18 10  1  0
 21 20  1  0
 21 23  1  0
 22 21  2  0
 24 23  1  6
 24 25  1  0
 25 18  1  0
 26 24  1  0
 27 26  2  0
 28 26  1  0
M  END
$$$$
