DFN.pdb
     RDKit          3D

 28 28  0  0  1  0  0  0  0  0999 V2000
   20.2781  -28.0414  -12.4805 N   0  0  0  0  0  0  0  0  0  0  0  0
   19.0512  -28.1647  -11.7165 C   0  0  1  0  0  0  0  0  0  0  0  0
   19.0153  -29.5914  -11.1674 C   0  0  0  0  0  0  0  0  0  0  0  0
   18.2882  -30.4345  -12.1450 C   0  0  0  0  0  0  0  0  0  0  0  0
   17.4519  -29.9041  -12.9260 O   0  0  0  0  0  0  0  0  0  0  0  0
   19.0929  -27.1955  -10.5873 C   0  0  0  0  0  0  0  0  0  0  0  0
   20.1481  -27.0840   -9.8836 O   0  0  0  0  0  0  0  0  0  0  0  0
   18.4670  -31.8054  -12.2659 O   0  0  0  0  0  0  0  0  0  0  0  0
   18.0155  -26.3639  -10.2260 N   0  0  0  0  0  0  0  0  0  0  0  0
   18.0728  -25.3764   -9.1501 C   0  0  1  0  0  0  0  0  0  0  0  0
   17.6560  -24.0854   -9.7287 C   0  0  0  0  0  0  0  0  0  0  0  0
   18.5013  -23.4503  -10.7148 C   0  0  0  0  0  0  0  0  0  0  0  0
   19.7633  -22.9446  -10.4902 C   0  0  0  0  0  0  0  0  0  0  0  0
   20.5150  -22.3586  -11.4783 C   0  0  0  0  0  0  0  0  0  0  0  0
   20.0122  -22.2572  -12.7610 C   0  0  0  0  0  0  0  0  0  0  0  0
   18.7519  -22.7538  -13.0194 C   0  0  0  0  0  0  0  0  0  0  0  0
   18.0255  -23.3345  -12.0078 C   0  0  0  0  0  0  0  0  0  0  0  0
   17.1876  -25.7402   -8.0261 C   0  0  0  0  0  0  0  0  0  0  0  0
   16.0538  -26.1873   -8.3233 O   0  0  0  0  0  0  0  0  0  0  0  0
   18.4430  -26.3041   -2.6465 N   0  0  0  0  0  0  0  0  0  0  0  0
   18.3857  -26.4724   -4.0713 C   0  0  0  0  0  0  0  0  0  0  0  0
   19.4328  -26.0667   -4.6688 O   0  0  0  0  0  0  0  0  0  0  0  0
   17.2112  -27.0614   -4.7369 C   0  0  0  0  0  0  0  0  0  0  0  0
   16.5759  -26.0794   -5.6628 C   0  0  2  0  0  0  0  0  0  0  0  0
   17.5365  -25.6162   -6.6703 N   0  0  0  0  0  0  0  0  0  0  0  0
   16.2264  -24.8418   -4.8817 C   0  0  0  0  0  0  0  0  0  0  0  0
   16.7669  -23.7392   -5.0803 O   0  0  0  0  0  0  0  0  0  0  0  0
   15.2638  -24.8892   -3.8866 O   0  0  0  0  0  0  0  0  0  0  0  0
  2  6  1  0
  2  1  1  6
  2  3  1  0
  4  8  1  0
  4  3  1  0
  5  4  2  0
  6  9  1  0
  7  6  2  0
  9 10  1  0
 10 11  1  6
 11 12  1  0
 12 17  2  0
 12 13  1  0
 13 14  2  0
 14 15  1  0
 16 15  2  0
 17 16  1  0
 18 19  2  0
 18 10  1  0
 21 20  1  0
 21 23  1  0
 22 21  2  0
 24 23  1  1
 24 25  1  0
 25 18  1  0
 26 24  1  0
 27 26  2  0
 28 26  1  0
M  END
$$$$
