DFN.pdb
     RDKit          3D

 28 28  0  0  1  0  0  0  0  0999 V2000
   28.5184  -20.1155  -15.8344 N   0  0  0  0  0  0  0  0  0  0  0  0
   27.3782  -21.0078  -15.7454 C   0  0  1  0  0  0  0  0  0  0  0  0
   27.7088  -22.2323  -16.5996 C   0  0  0  0  0  0  0  0  0  0  0  0
   28.2601  -21.7502  -17.8876 C   0  0  0  0  0  0  0  0  0  0  0  0
   27.6909  -20.8021  -18.4941 O   0  0  0  0  0  0  0  0  0  0  0  0
   27.2052  -21.4208  -14.3256 C   0  0  0  0  0  0  0  0  0  0  0  0
   26.4600  -22.4123  -14.0381 O   0  0  0  0  0  0  0  0  0  0  0  0
   29.3906  -22.2828  -18.4912 O   0  0  0  0  0  0  0  0  0  0  0  0
   27.8252  -20.7748  -13.2388 N   0  0  0  0  0  0  0  0  0  0  0  0
   27.4383  -20.9736  -11.8435 C   0  0  1  0  0  0  0  0  0  0  0  0
   28.4308  -20.2622  -11.0166 C   0  0  0  0  0  0  0  0  0  0  0  0
   28.2167  -20.1623   -9.5902 C   0  0  0  0  0  0  0  0  0  0  0  0
   27.3543  -19.2898   -8.9629 C   0  0  0  0  0  0  0  0  0  0  0  0
   27.1956  -19.2542   -7.5997 C   0  0  0  0  0  0  0  0  0  0  0  0
   27.9169  -20.1167   -6.7971 C   0  0  0  0  0  0  0  0  0  0  0  0
   28.7890  -21.0030   -7.3936 C   0  0  0  0  0  0  0  0  0  0  0  0
   28.9243  -21.0130   -8.7610 C   0  0  0  0  0  0  0  0  0  0  0  0
   26.0833  -20.4544  -11.5722 C   0  0  0  0  0  0  0  0  0  0  0  0
   25.7403  -19.4211  -12.1955 O   0  0  0  0  0  0  0  0  0  0  0  0
   21.0757  -19.4589  -12.2636 N   0  0  0  0  0  0  0  0  0  0  0  0
   21.5810  -20.6369  -11.6164 C   0  0  0  0  0  0  0  0  0  0  0  0
   20.6997  -21.2580  -10.9416 O   0  0  0  0  0  0  0  0  0  0  0  0
   22.9886  -21.0508  -11.7465 C   0  0  0  0  0  0  0  0  0  0  0  0
   23.8087  -20.5086  -10.6247 C   0  0  2  0  0  0  0  0  0  0  0  0
   25.1752  -21.0404  -10.6737 N   0  0  0  0  0  0  0  0  0  0  0  0
   23.2504  -21.0297   -9.3282 C   0  0  0  0  0  0  0  0  0  0  0  0
   22.0868  -20.8034   -8.9512 O   0  0  0  0  0  0  0  0  0  0  0  0
   24.0352  -21.8008   -8.4864 O   0  0  0  0  0  0  0  0  0  0  0  0
  2  6  1  0
  2  1  1  1
  2  3  1  0
  4  8  1  0
  4  3  1  0
  5  4  2  0
  6  9  1  0
  7  6  2  0
  9 10  1  0
 10 11  1  1
 11 12  1  0
 12 17  2  0
 12 13  1  0
 13 14  2  0
 14 15  1  0
 16 15  2  0
 17 16  1  0
 18 19  2  0
 18 10  1  0
 21 20  1  0
 21 23  1  0
 22 21  2  0
 24 23  1  6
 24 25  1  0
 25 18  1  0
 26 24  1  0
 27 26  2  0
 28 26  1  0
M  END
$$$$
