DFN.pdb
     RDKit          3D

 28 28  0  0  1  0  0  0  0  0999 V2000
   26.9724  -23.0563  -16.4976 N   0  0  0  0  0  0  0  0  0  0  0  0
   26.2040  -21.9438  -15.9721 C   0  0  1  0  0  0  0  0  0  0  0  0
   24.8096  -22.0388  -16.5925 C   0  0  0  0  0  0  0  0  0  0  0  0
   24.9103  -21.5946  -18.0024 C   0  0  0  0  0  0  0  0  0  0  0  0
   25.2901  -20.4200  -18.2609 O   0  0  0  0  0  0  0  0  0  0  0  0
   26.1043  -22.0889  -14.4938 C   0  0  0  0  0  0  0  0  0  0  0  0
   25.8785  -23.2322  -13.9809 O   0  0  0  0  0  0  0  0  0  0  0  0
   24.6078  -22.4021  -19.0898 O   0  0  0  0  0  0  0  0  0  0  0  0
   26.2453  -21.0196  -13.5885 N   0  0  0  0  0  0  0  0  0  0  0  0
   26.1472  -21.1617  -12.1372 C   0  0  1  0  0  0  0  0  0  0  0  0
   26.9457  -20.0731  -11.5436 C   0  0  0  0  0  0  0  0  0  0  0  0
   27.0739  -19.9975  -10.1055 C   0  0  0  0  0  0  0  0  0  0  0  0
   27.9362  -20.7438   -9.3321 C   0  0  0  0  0  0  0  0  0  0  0  0
   28.0100  -20.6148   -7.9672 C   0  0  0  0  0  0  0  0  0  0  0  0
   27.1987  -19.7075   -7.3138 C   0  0  0  0  0  0  0  0  0  0  0  0
   26.3242  -18.9447   -8.0589 C   0  0  0  0  0  0  0  0  0  0  0  0
   26.2752  -19.0983   -9.4235 C   0  0  0  0  0  0  0  0  0  0  0  0
   24.7484  -21.0787  -11.6728 C   0  0  0  0  0  0  0  0  0  0  0  0
   23.9323  -20.5133  -12.4398 O   0  0  0  0  0  0  0  0  0  0  0  0
   20.4667  -22.6742   -7.5628 N   0  0  0  0  0  0  0  0  0  0  0  0
   21.1258  -21.7660   -8.4587 C   0  0  0  0  0  0  0  0  0  0  0  0
   20.3449  -20.8938   -8.9561 O   0  0  0  0  0  0  0  0  0  0  0  0
   22.5666  -21.8684   -8.7468 C   0  0  0  0  0  0  0  0  0  0  0  0
   22.8473  -21.5515  -10.1772 C   0  0  2  0  0  0  0  0  0  0  0  0
   24.2893  -21.5868  -10.4455 N   0  0  0  0  0  0  0  0  0  0  0  0
   22.4529  -20.1229  -10.4373 C   0  0  0  0  0  0  0  0  0  0  0  0
   23.1460  -19.1526  -10.0830 O   0  0  0  0  0  0  0  0  0  0  0  0
   21.2712  -19.8311  -11.0988 O   0  0  0  0  0  0  0  0  0  0  0  0
  2  6  1  0
  2  1  1  6
  2  3  1  0
  4  8  1  0
  4  3  1  0
  5  4  2  0
  6  9  1  0
  7  6  2  0
  9 10  1  0
 10 11  1  1
 11 12  1  0
 12 17  2  0
 12 13  1  0
 13 14  2  0
 14 15  1  0
 16 15  2  0
 17 16  1  0
 18 19  2  0
 18 10  1  0
 21 20  1  0
 21 23  1  0
 22 21  2  0
 24 23  1  1
 24 25  1  0
 25 18  1  0
 26 24  1  0
 27 26  2  0
 28 26  1  0
M  END
$$$$
