DFN.pdb
     RDKit          3D

 28 28  0  0  1  0  0  0  0  0999 V2000
   19.2603  -13.2366  -18.3656 N   0  0  0  0  0  0  0  0  0  0  0  0
   19.4189  -11.8530  -18.7713 C   0  0  1  0  0  0  0  0  0  0  0  0
   18.2499  -11.5298  -19.7026 C   0  0  0  0  0  0  0  0  0  0  0  0
   18.4314  -12.3147  -20.9460 C   0  0  0  0  0  0  0  0  0  0  0  0
   17.4920  -13.0436  -21.3665 O   0  0  0  0  0  0  0  0  0  0  0  0
   19.3470  -10.9896  -17.5607 C   0  0  0  0  0  0  0  0  0  0  0  0
   18.4486  -11.1987  -16.6830 O   0  0  0  0  0  0  0  0  0  0  0  0
   19.5949  -12.3047  -21.7025 O   0  0  0  0  0  0  0  0  0  0  0  0
   20.2282   -9.9216  -17.3043 N   0  0  0  0  0  0  0  0  0  0  0  0
   20.1077   -9.0221  -16.1588 C   0  0  1  0  0  0  0  0  0  0  0  0
   21.4752   -8.7576  -15.6740 C   0  0  0  0  0  0  0  0  0  0  0  0
   21.6793   -7.7492  -14.6582 C   0  0  0  0  0  0  0  0  0  0  0  0
   22.0366   -6.4377  -14.8836 C   0  0  0  0  0  0  0  0  0  0  0  0
   22.2072   -5.5296  -13.8682 C   0  0  0  0  0  0  0  0  0  0  0  0
   22.0198   -5.9172  -12.5555 C   0  0  0  0  0  0  0  0  0  0  0  0
   21.6614   -7.2233  -12.2955 C   0  0  0  0  0  0  0  0  0  0  0  0
   21.4987   -8.1072  -13.3349 C   0  0  0  0  0  0  0  0  0  0  0  0
   19.4436   -7.7557  -16.5252 C   0  0  0  0  0  0  0  0  0  0  0  0
   19.7557   -7.2551  -17.6324 O   0  0  0  0  0  0  0  0  0  0  0  0
   14.6509   -4.0316  -16.4093 N   0  0  0  0  0  0  0  0  0  0  0  0
   16.0331   -4.4014  -16.5298 C   0  0  0  0  0  0  0  0  0  0  0  0
   16.7567   -3.4866  -17.0372 O   0  0  0  0  0  0  0  0  0  0  0  0
   16.5244   -5.7205  -16.0964 C   0  0  0  0  0  0  0  0  0  0  0  0
   18.0135   -5.7816  -16.1612 C   0  0  2  0  0  0  0  0  0  0  0  0
   18.5009   -7.0932  -15.7202 N   0  0  0  0  0  0  0  0  0  0  0  0
   18.5764   -4.8151  -15.1547 C   0  0  0  0  0  0  0  0  0  0  0  0
   19.2559   -3.8231  -15.4734 O   0  0  0  0  0  0  0  0  0  0  0  0
   18.3509   -5.0021  -13.8007 O   0  0  0  0  0  0  0  0  0  0  0  0
  2  6  1  0
  2  1  1  1
  2  3  1  0
  4  8  1  0
  4  3  1  0
  5  4  2  0
  6  9  1  0
  7  6  2  0
  9 10  1  0
 10 11  1  6
 11 12  1  0
 12 17  2  0
 12 13  1  0
 13 14  2  0
 14 15  1  0
 16 15  2  0
 17 16  1  0
 18 19  2  0
 18 10  1  0
 21 20  1  0
 21 23  1  0
 22 21  2  0
 24 23  1  1
 24 25  1  0
 25 18  1  0
 26 24  1  0
 27 26  2  0
 28 26  1  0
M  END
$$$$
