DFN.pdb
     RDKit          3D

 28 28  0  0  1  0  0  0  0  0999 V2000
   27.2987  -22.4024  -18.1735 N   0  0  0  0  0  0  0  0  0  0  0  0
   27.1554  -21.1813  -17.4036 C   0  0  1  0  0  0  0  0  0  0  0  0
   26.2971  -20.2311  -18.2395 C   0  0  0  0  0  0  0  0  0  0  0  0
   27.1357  -19.7220  -19.3497 C   0  0  0  0  0  0  0  0  0  0  0  0
   26.7039  -19.7764  -20.5335 O   0  0  0  0  0  0  0  0  0  0  0  0
   26.4530  -21.4999  -16.1302 C   0  0  0  0  0  0  0  0  0  0  0  0
   25.4769  -22.3175  -16.1297 O   0  0  0  0  0  0  0  0  0  0  0  0
   28.3986  -19.1737  -19.1748 O   0  0  0  0  0  0  0  0  0  0  0  0
   26.7987  -20.9456  -14.8828 N   0  0  0  0  0  0  0  0  0  0  0  0
   26.0400  -21.1675  -13.6535 C   0  0  1  0  0  0  0  0  0  0  0  0
   26.8667  -20.6637  -12.5410 C   0  0  0  0  0  0  0  0  0  0  0  0
   26.2849  -20.5624  -11.2213 C   0  0  0  0  0  0  0  0  0  0  0  0
   25.8593  -19.4009  -10.6142 C   0  0  0  0  0  0  0  0  0  0  0  0
   25.3080  -19.3792   -9.3571 C   0  0  0  0  0  0  0  0  0  0  0  0
   25.1607  -20.5547   -8.6465 C   0  0  0  0  0  0  0  0  0  0  0  0
   25.5765  -21.7351   -9.2258 C   0  0  0  0  0  0  0  0  0  0  0  0
   26.1243  -21.7222  -10.4859 C   0  0  0  0  0  0  0  0  0  0  0  0
   24.7401  -20.4682  -13.6793 C   0  0  0  0  0  0  0  0  0  0  0  0
   24.7300  -19.3150  -14.1731 O   0  0  0  0  0  0  0  0  0  0  0  0
   20.4635  -18.0048  -15.2041 N   0  0  0  0  0  0  0  0  0  0  0  0
   20.5774  -19.3704  -14.7753 C   0  0  0  0  0  0  0  0  0  0  0  0
   19.4592  -19.9009  -14.4816 O   0  0  0  0  0  0  0  0  0  0  0  0
   21.8800  -20.0534  -14.6970 C   0  0  0  0  0  0  0  0  0  0  0  0
   22.3237  -20.1927  -13.2796 C   0  0  2  0  0  0  0  0  0  0  0  0
   23.5386  -21.0105  -13.1918 N   0  0  0  0  0  0  0  0  0  0  0  0
   21.2859  -20.9819  -12.5286 C   0  0  0  0  0  0  0  0  0  0  0  0
   21.3682  -22.2096  -12.3459 O   0  0  0  0  0  0  0  0  0  0  0  0
   20.1718  -20.3507  -11.9999 O   0  0  0  0  0  0  0  0  0  0  0  0
  2  6  1  0
  2  1  1  6
  2  3  1  0
  4  8  1  0
  4  3  1  0
  5  4  2  0
  6  9  1  0
  7  6  2  0
  9 10  1  0
 10 11  1  1
 11 12  1  0
 12 17  2  0
 12 13  1  0
 13 14  2  0
 14 15  1  0
 16 15  2  0
 17 16  1  0
 18 19  2  0
 18 10  1  0
 21 20  1  0
 21 23  1  0
 22 21  2  0
 24 23  1  6
 24 25  1  0
 25 18  1  0
 26 24  1  0
 27 26  2  0
 28 26  1  0
M  END
$$$$
