DFN.pdb
     RDKit          3D

 28 28  0  0  1  0  0  0  0  0999 V2000
   28.5905  -21.0254  -16.0946 N   0  0  0  0  0  0  0  0  0  0  0  0
   27.3885  -21.8245  -16.2388 C   0  0  1  0  0  0  0  0  0  0  0  0
   27.8230  -23.1760  -16.8072 C   0  0  0  0  0  0  0  0  0  0  0  0
   28.8888  -22.9256  -17.8055 C   0  0  0  0  0  0  0  0  0  0  0  0
   28.7310  -22.0248  -18.6740 O   0  0  0  0  0  0  0  0  0  0  0  0
   26.7813  -22.0199  -14.8937 C   0  0  0  0  0  0  0  0  0  0  0  0
   25.8527  -22.8761  -14.7335 O   0  0  0  0  0  0  0  0  0  0  0  0
   30.0824  -23.6319  -17.8542 O   0  0  0  0  0  0  0  0  0  0  0  0
   27.1701  -21.3040  -13.7451 N   0  0  0  0  0  0  0  0  0  0  0  0
   26.4776  -21.3850  -12.4606 C   0  0  1  0  0  0  0  0  0  0  0  0
   27.4677  -21.0599  -11.4171 C   0  0  0  0  0  0  0  0  0  0  0  0
   27.0135  -20.8229  -10.0651 C   0  0  0  0  0  0  0  0  0  0  0  0
   25.6996  -20.7594   -9.6549 C   0  0  0  0  0  0  0  0  0  0  0  0
   25.3395  -20.5370   -8.3488 C   0  0  0  0  0  0  0  0  0  0  0  0
   26.3124  -20.3658   -7.3831 C   0  0  0  0  0  0  0  0  0  0  0  0
   27.6375  -20.4238   -7.7606 C   0  0  0  0  0  0  0  0  0  0  0  0
   27.9641  -20.6481   -9.0763 C   0  0  0  0  0  0  0  0  0  0  0  0
   25.3396  -20.4472  -12.3926 C   0  0  0  0  0  0  0  0  0  0  0  0
   25.5357  -19.2896  -12.8345 O   0  0  0  0  0  0  0  0  0  0  0  0
   20.7787  -20.8186  -15.4250 N   0  0  0  0  0  0  0  0  0  0  0  0
   21.6185  -20.0100  -14.5869 C   0  0  0  0  0  0  0  0  0  0  0  0
   21.2010  -18.8153  -14.4585 O   0  0  0  0  0  0  0  0  0  0  0  0
   22.8355  -20.5491  -13.9563 C   0  0  0  0  0  0  0  0  0  0  0  0
   22.8916  -20.1859  -12.5106 C   0  0  2  0  0  0  0  0  0  0  0  0
   24.0752  -20.7717  -11.8716 N   0  0  0  0  0  0  0  0  0  0  0  0
   21.7283  -20.8329  -11.8090 C   0  0  0  0  0  0  0  0  0  0  0  0
   21.7423  -22.0147  -11.4211 O   0  0  0  0  0  0  0  0  0  0  0  0
   20.5694  -20.1145  -11.5642 O   0  0  0  0  0  0  0  0  0  0  0  0
  2  6  1  0
  2  1  1  1
  2  3  1  0
  4  8  1  0
  4  3  1  0
  5  4  2  0
  6  9  1  0
  7  6  2  0
  9 10  1  0
 10 11  1  1
 11 12  1  0
 12 17  2  0
 12 13  1  0
 13 14  2  0
 14 15  1  0
 16 15  2  0
 17 16  1  0
 18 19  2  0
 18 10  1  0
 21 20  1  0
 21 23  1  0
 22 21  2  0
 24 23  1  6
 24 25  1  0
 25 18  1  0
 26 24  1  0
 27 26  2  0
 28 26  1  0
M  END
$$$$
