DFN.pdb
     RDKit          3D

 28 28  0  0  1  0  0  0  0  0999 V2000
   27.4158  -21.9842  -17.6609 N   0  0  0  0  0  0  0  0  0  0  0  0
   27.1047  -20.8114  -16.8660 C   0  0  1  0  0  0  0  0  0  0  0  0
   26.1528  -19.9531  -17.7000 C   0  0  0  0  0  0  0  0  0  0  0  0
   26.9456  -19.3125  -18.7753 C   0  0  0  0  0  0  0  0  0  0  0  0
   27.8970  -18.5413  -18.4741 O   0  0  0  0  0  0  0  0  0  0  0  0
   26.4202  -21.2486  -15.6183 C   0  0  0  0  0  0  0  0  0  0  0  0
   25.5134  -22.1409  -15.6697 O   0  0  0  0  0  0  0  0  0  0  0  0
   26.7090  -19.5061  -20.1290 O   0  0  0  0  0  0  0  0  0  0  0  0
   26.7099  -20.7312  -14.3411 N   0  0  0  0  0  0  0  0  0  0  0  0
   25.9703  -21.0849  -13.1312 C   0  0  1  0  0  0  0  0  0  0  0  0
   26.7315  -20.5457  -11.9889 C   0  0  0  0  0  0  0  0  0  0  0  0
   26.1355  -20.5692  -10.6718 C   0  0  0  0  0  0  0  0  0  0  0  0
   25.7253  -21.6952   -9.9918 C   0  0  0  0  0  0  0  0  0  0  0  0
   25.1717  -21.6440   -8.7365 C   0  0  0  0  0  0  0  0  0  0  0  0
   25.0062  -20.4275   -8.1031 C   0  0  0  0  0  0  0  0  0  0  0  0
   25.4066  -19.2809   -8.7565 C   0  0  0  0  0  0  0  0  0  0  0  0
   25.9573  -19.3670  -10.0125 C   0  0  0  0  0  0  0  0  0  0  0  0
   24.6041  -20.5258  -13.1421 C   0  0  0  0  0  0  0  0  0  0  0  0
   24.4751  -19.3611  -13.5900 O   0  0  0  0  0  0  0  0  0  0  0  0
   20.1122  -18.5681  -14.6568 N   0  0  0  0  0  0  0  0  0  0  0  0
   20.3402  -19.9408  -14.3029 C   0  0  0  0  0  0  0  0  0  0  0  0
   19.2678  -20.5900  -14.0870 O   0  0  0  0  0  0  0  0  0  0  0  0
   21.6983  -20.5033  -14.2099 C   0  0  0  0  0  0  0  0  0  0  0  0
   22.1643  -20.5378  -12.7933 C   0  0  2  0  0  0  0  0  0  0  0  0
   23.4637  -21.2107  -12.6884 N   0  0  0  0  0  0  0  0  0  0  0  0
   21.2265  -21.4089  -12.0020 C   0  0  0  0  0  0  0  0  0  0  0  0
   21.3857  -22.6360  -11.8745 O   0  0  0  0  0  0  0  0  0  0  0  0
   20.1230  -20.8587  -11.3709 O   0  0  0  0  0  0  0  0  0  0  0  0
  2  6  1  0
  2  1  1  6
  2  3  1  0
  4  8  1  0
  4  3  1  0
  5  4  2  0
  6  9  1  0
  7  6  2  0
  9 10  1  0
 10 11  1  1
 11 12  1  0
 12 17  2  0
 12 13  1  0
 13 14  2  0
 14 15  1  0
 16 15  2  0
 17 16  1  0
 18 19  2  0
 18 10  1  0
 21 20  1  0
 21 23  1  0
 22 21  2  0
 24 23  1  6
 24 25  1  0
 25 18  1  0
 26 24  1  0
 27 26  2  0
 28 26  1  0
M  END
$$$$
