DFN.pdb
     RDKit          3D

 28 28  0  0  1  0  0  0  0  0999 V2000
   17.8140  -12.0955  -16.0097 N   0  0  0  0  0  0  0  0  0  0  0  0
   18.4030  -11.1326  -16.9208 C   0  0  1  0  0  0  0  0  0  0  0  0
   17.3614  -10.0338  -17.1349 C   0  0  0  0  0  0  0  0  0  0  0  0
   16.2309  -10.6228  -17.8900 C   0  0  0  0  0  0  0  0  0  0  0  0
   15.0511  -10.4600  -17.4748 O   0  0  0  0  0  0  0  0  0  0  0  0
   19.6169  -10.5531  -16.2829 C   0  0  0  0  0  0  0  0  0  0  0  0
   19.5977  -10.2362  -15.0499 O   0  0  0  0  0  0  0  0  0  0  0  0
   16.3820  -11.3620  -19.0547 O   0  0  0  0  0  0  0  0  0  0  0  0
   20.8271  -10.3205  -16.9645 N   0  0  0  0  0  0  0  0  0  0  0  0
   22.0408   -9.8192  -16.3230 C   0  0  1  0  0  0  0  0  0  0  0  0
   23.1718  -10.5754  -16.8922 C   0  0  0  0  0  0  0  0  0  0  0  0
   24.5173  -10.2499  -16.4751 C   0  0  0  0  0  0  0  0  0  0  0  0
   25.0604  -10.5016  -15.2340 C   0  0  0  0  0  0  0  0  0  0  0  0
   26.3522  -10.1704  -14.9079 C   0  0  0  0  0  0  0  0  0  0  0  0
   27.1657   -9.5583  -15.8418 C   0  0  0  0  0  0  0  0  0  0  0  0
   26.6527   -9.2925  -17.0940 C   0  0  0  0  0  0  0  0  0  0  0  0
   25.3554   -9.6370  -17.3882 C   0  0  0  0  0  0  0  0  0  0  0  0
   22.2258   -8.3734  -16.5568 C   0  0  0  0  0  0  0  0  0  0  0  0
   22.0872   -7.9709  -17.7369 O   0  0  0  0  0  0  0  0  0  0  0  0
   22.8086   -3.3251  -16.4985 N   0  0  0  0  0  0  0  0  0  0  0  0
   21.6237   -3.8306  -15.8644 C   0  0  0  0  0  0  0  0  0  0  0  0
   20.7673   -2.9269  -15.6039 O   0  0  0  0  0  0  0  0  0  0  0  0
   21.4554   -5.2624  -15.5624 C   0  0  0  0  0  0  0  0  0  0  0  0
   22.6781   -6.0320  -15.9339 C   0  0  2  0  0  0  0  0  0  0  0  0
   22.5420   -7.4422  -15.5527 N   0  0  0  0  0  0  0  0  0  0  0  0
   23.8298   -5.5297  -15.1060 C   0  0  0  0  0  0  0  0  0  0  0  0
   24.4533   -6.2484  -14.3047 O   0  0  0  0  0  0  0  0  0  0  0  0
   24.2468   -4.2129  -15.2107 O   0  0  0  0  0  0  0  0  0  0  0  0
  2  6  1  0
  2  1  1  1
  2  3  1  0
  4  8  1  0
  4  3  1  0
  5  4  2  0
  6  9  1  0
  7  6  2  0
  9 10  1  0
 10 11  1  6
 11 12  1  0
 12 17  2  0
 12 13  1  0
 13 14  2  0
 14 15  1  0
 16 15  2  0
 17 16  1  0
 18 19  2  0
 18 10  1  0
 21 20  1  0
 21 23  1  0
 22 21  2  0
 24 23  1  1
 24 25  1  0
 25 18  1  0
 26 24  1  0
 27 26  2  0
 28 26  1  0
M  END
$$$$
