DFN.pdb
     RDKit          3D

 28 28  0  0  1  0  0  0  0  0999 V2000
   27.3249  -21.6197  -17.4310 N   0  0  0  0  0  0  0  0  0  0  0  0
   27.2165  -20.4681  -16.5557 C   0  0  1  0  0  0  0  0  0  0  0  0
   25.9788  -19.6893  -17.0028 C   0  0  0  0  0  0  0  0  0  0  0  0
   26.3084  -19.0083  -18.2768 C   0  0  0  0  0  0  0  0  0  0  0  0
   25.4787  -19.0259  -19.2264 O   0  0  0  0  0  0  0  0  0  0  0  0
   27.0281  -20.9468  -15.1587 C   0  0  0  0  0  0  0  0  0  0  0  0
   26.2371  -21.9155  -14.9196 O   0  0  0  0  0  0  0  0  0  0  0  0
   27.4992  -18.3334  -18.5060 O   0  0  0  0  0  0  0  0  0  0  0  0
   27.6812  -20.3892  -14.0427 N   0  0  0  0  0  0  0  0  0  0  0  0
   27.3599  -20.7263  -12.6574 C   0  0  1  0  0  0  0  0  0  0  0  0
   28.3828  -20.0849  -11.8104 C   0  0  0  0  0  0  0  0  0  0  0  0
   28.2796  -20.2001  -10.3729 C   0  0  0  0  0  0  0  0  0  0  0  0
   28.8873  -21.1614   -9.5949 C   0  0  0  0  0  0  0  0  0  0  0  0
   28.7509  -21.2069   -8.2295 C   0  0  0  0  0  0  0  0  0  0  0  0
   27.9786  -20.2632   -7.5802 C   0  0  0  0  0  0  0  0  0  0  0  0
   27.3567  -19.2870   -8.3299 C   0  0  0  0  0  0  0  0  0  0  0  0
   27.5138  -19.2697   -9.6949 C   0  0  0  0  0  0  0  0  0  0  0  0
   26.0142  -20.2531  -12.2773 C   0  0  0  0  0  0  0  0  0  0  0  0
   25.6790  -19.1166  -12.6893 O   0  0  0  0  0  0  0  0  0  0  0  0
   23.6013  -22.6715  -12.6054 N   0  0  0  0  0  0  0  0  0  0  0  0
   22.7456  -21.5596  -12.9107 C   0  0  0  0  0  0  0  0  0  0  0  0
   21.8531  -21.8334  -13.7747 O   0  0  0  0  0  0  0  0  0  0  0  0
   22.9177  -20.2472  -12.2646 C   0  0  0  0  0  0  0  0  0  0  0  0
   23.8490  -20.3436  -11.1033 C   0  0  2  0  0  0  0  0  0  0  0  0
   25.1067  -20.9889  -11.4960 N   0  0  0  0  0  0  0  0  0  0  0  0
   23.2508  -21.2772  -10.0861 C   0  0  0  0  0  0  0  0  0  0  0  0
   22.1329  -21.0941   -9.5722 O   0  0  0  0  0  0  0  0  0  0  0  0
   23.9438  -22.4043   -9.6758 O   0  0  0  0  0  0  0  0  0  0  0  0
  2  6  1  0
  2  1  1  6
  2  3  1  0
  4  8  1  0
  4  3  1  0
  5  4  2  0
  6  9  1  0
  7  6  2  0
  9 10  1  0
 10 11  1  1
 11 12  1  0
 12 17  2  0
 12 13  1  0
 13 14  2  0
 14 15  1  0
 16 15  2  0
 17 16  1  0
 18 19  2  0
 18 10  1  0
 21 20  1  0
 21 23  1  0
 22 21  2  0
 24 23  1  6
 24 25  1  0
 25 18  1  0
 26 24  1  0
 27 26  2  0
 28 26  1  0
M  END
$$$$
