DFN.pdb
     RDKit          3D

 28 28  0  0  1  0  0  0  0  0999 V2000
   28.1664  -22.6795  -18.2718 N   0  0  0  0  0  0  0  0  0  0  0  0
   27.5232  -21.4908  -17.7452 C   0  0  1  0  0  0  0  0  0  0  0  0
   26.5429  -21.0091  -18.8154 C   0  0  0  0  0  0  0  0  0  0  0  0
   27.1399  -19.8249  -19.4760 C   0  0  0  0  0  0  0  0  0  0  0  0
   27.1525  -18.7158  -18.8757 O   0  0  0  0  0  0  0  0  0  0  0  0
   26.7752  -21.8597  -16.5120 C   0  0  0  0  0  0  0  0  0  0  0  0
   26.2887  -23.0299  -16.3895 O   0  0  0  0  0  0  0  0  0  0  0  0
   27.7023  -19.8500  -20.7445 O   0  0  0  0  0  0  0  0  0  0  0  0
   26.5574  -20.9811  -15.4334 N   0  0  0  0  0  0  0  0  0  0  0  0
   25.8402  -21.3489  -14.2142 C   0  0  1  0  0  0  0  0  0  0  0  0
   26.2912  -20.4268  -13.1553 C   0  0  0  0  0  0  0  0  0  0  0  0
   25.7125  -20.5344  -11.8347 C   0  0  0  0  0  0  0  0  0  0  0  0
   24.5418  -19.9404  -11.4160 C   0  0  0  0  0  0  0  0  0  0  0  0
   24.0459  -20.0915  -10.1448 C   0  0  0  0  0  0  0  0  0  0  0  0
   24.7266  -20.8653   -9.2247 C   0  0  0  0  0  0  0  0  0  0  0  0
   25.9019  -21.4740   -9.6120 C   0  0  0  0  0  0  0  0  0  0  0  0
   26.3708  -21.3025  -10.8921 C   0  0  0  0  0  0  0  0  0  0  0  0
   24.3778  -21.2480  -14.3883 C   0  0  0  0  0  0  0  0  0  0  0  0
   23.9495  -20.2289  -14.9815 O   0  0  0  0  0  0  0  0  0  0  0  0
   19.3151  -21.6372  -14.5875 N   0  0  0  0  0  0  0  0  0  0  0  0
   19.8244  -22.9666  -14.3999 C   0  0  0  0  0  0  0  0  0  0  0  0
   18.9281  -23.8654  -14.4819 O   0  0  0  0  0  0  0  0  0  0  0  0
   21.2516  -23.2217  -14.1402 C   0  0  0  0  0  0  0  0  0  0  0  0
   22.0280  -21.9479  -14.1366 C   0  0  2  0  0  0  0  0  0  0  0  0
   23.4576  -22.2095  -13.9363 N   0  0  0  0  0  0  0  0  0  0  0  0
   21.6221  -21.1433  -12.9317 C   0  0  0  0  0  0  0  0  0  0  0  0
   21.9372  -21.4560  -11.7697 O   0  0  0  0  0  0  0  0  0  0  0  0
   20.8622  -19.9944  -13.0792 O   0  0  0  0  0  0  0  0  0  0  0  0
  2  6  1  0
  2  1  1  6
  2  3  1  0
  4  8  1  0
  4  3  1  0
  5  4  2  0
  6  9  1  0
  7  6  2  0
  9 10  1  0
 10 11  1  1
 11 12  1  0
 12 17  2  0
 12 13  1  0
 13 14  2  0
 14 15  1  0
 16 15  2  0
 17 16  1  0
 18 19  2  0
 18 10  1  0
 21 20  1  0
 21 23  1  0
 22 21  2  0
 24 23  1  1
 24 25  1  0
 25 18  1  0
 26 24  1  0
 27 26  2  0
 28 26  1  0
M  END
$$$$
