DFN.pdb
     RDKit          3D

 28 28  0  0  1  0  0  0  0  0999 V2000
   28.4723  -21.4239  -15.9016 N   0  0  0  0  0  0  0  0  0  0  0  0
   27.8849  -20.4249  -15.0292 C   0  0  1  0  0  0  0  0  0  0  0  0
   27.4163  -19.2777  -15.9252 C   0  0  0  0  0  0  0  0  0  0  0  0
   28.6192  -18.5580  -16.4052 C   0  0  0  0  0  0  0  0  0  0  0  0
   29.1139  -18.8492  -17.5282 O   0  0  0  0  0  0  0  0  0  0  0  0
   26.7137  -21.0271  -14.3350 C   0  0  0  0  0  0  0  0  0  0  0  0
   25.7705  -21.5474  -15.0138 O   0  0  0  0  0  0  0  0  0  0  0  0
   29.2585  -17.5577  -15.6864 O   0  0  0  0  0  0  0  0  0  0  0  0
   26.5652  -21.0658  -12.9352 N   0  0  0  0  0  0  0  0  0  0  0  0
   25.4174  -21.6603  -12.2532 C   0  0  1  0  0  0  0  0  0  0  0  0
   25.9146  -22.2189  -10.9820 C   0  0  0  0  0  0  0  0  0  0  0  0
   26.6228  -21.3562  -10.0631 C   0  0  0  0  0  0  0  0  0  0  0  0
   27.9894  -21.1907  -10.0024 C   0  0  0  0  0  0  0  0  0  0  0  0
   28.5959  -20.3464   -9.1056 C   0  0  0  0  0  0  0  0  0  0  0  0
   27.8306  -19.6192   -8.2145 C   0  0  0  0  0  0  0  0  0  0  0  0
   26.4594  -19.7617   -8.2492 C   0  0  0  0  0  0  0  0  0  0  0  0
   25.8838  -20.6152   -9.1594 C   0  0  0  0  0  0  0  0  0  0  0  0
   24.3598  -20.6639  -11.9924 C   0  0  0  0  0  0  0  0  0  0  0  0
   24.7227  -19.4663  -11.9047 O   0  0  0  0  0  0  0  0  0  0  0  0
   21.4013  -17.8717  -14.9557 N   0  0  0  0  0  0  0  0  0  0  0  0
   21.1442  -19.2341  -14.5824 C   0  0  0  0  0  0  0  0  0  0  0  0
   19.9623  -19.6167  -14.8556 O   0  0  0  0  0  0  0  0  0  0  0  0
   22.1752  -20.0728  -13.9476 C   0  0  0  0  0  0  0  0  0  0  0  0
   22.0104  -20.0882  -12.4651 C   0  0  2  0  0  0  0  0  0  0  0  0
   22.9977  -20.9753  -11.8401 N   0  0  0  0  0  0  0  0  0  0  0  0
   20.6827  -20.7159  -12.1376 C   0  0  0  0  0  0  0  0  0  0  0  0
   19.7396  -20.0825  -11.6309 O   0  0  0  0  0  0  0  0  0  0  0  0
   20.4588  -22.0582  -12.3964 O   0  0  0  0  0  0  0  0  0  0  0  0
  2  6  1  0
  2  1  1  6
  2  3  1  0
  4  8  1  0
  4  3  1  0
  5  4  2  0
  6  9  1  0
  7  6  2  0
  9 10  1  0
 10 11  1  1
 11 12  1  0
 12 17  2  0
 12 13  1  0
 13 14  2  0
 14 15  1  0
 16 15  2  0
 17 16  1  0
 18 19  2  0
 18 10  1  0
 21 20  1  0
 21 23  1  0
 22 21  2  0
 24 23  1  6
 24 25  1  0
 25 18  1  0
 26 24  1  0
 27 26  2  0
 28 26  1  0
M  END
$$$$
