SDG.pdb
     RDKit          3D

 19 18  0  0  1  0  0  0  0  0999 V2000
   20.0285  -13.3677  -15.4390 O   0  0  0  0  0  0  0  0  0  0  0  0
   20.1841  -11.9889  -15.6611 C   0  0  0  0  0  0  0  0  0  0  0  0
   18.8731  -11.4530  -16.2337 C   0  0  2  0  0  0  0  0  0  0  0  0
   18.7372  -11.7884  -17.6262 N   0  0  0  0  0  0  0  0  0  0  0  0
   18.9135   -9.9542  -16.1425 C   0  0  0  0  0  0  0  0  0  0  0  0
   19.5247   -9.2493  -16.9748 O   0  0  0  0  0  0  0  0  0  0  0  0
   18.2384   -9.3513  -15.0835 N   0  0  0  0  0  0  0  0  0  0  0  0
   18.1589   -7.8544  -14.9246 C   0  0  1  0  0  0  0  0  0  0  0  0
   16.8296   -7.6935  -14.2397 C   0  0  0  0  0  0  0  0  0  0  0  0
   15.6323   -7.6862  -15.0603 C   0  0  0  0  0  0  0  0  0  0  0  0
   14.5233   -8.2127  -14.8423 O   0  0  0  0  0  0  0  0  0  0  0  0
   19.3282   -7.5673  -14.0417 C   0  0  0  0  0  0  0  0  0  0  0  0
   19.5578   -8.2892  -12.9955 O   0  0  0  0  0  0  0  0  0  0  0  0
   15.6771   -6.9913  -16.3053 O   0  0  0  0  0  0  0  0  0  0  0  0
   20.2602   -6.5334  -14.2487 N   0  0  0  0  0  0  0  0  0  0  0  0
   21.3644   -6.3171  -13.3277 C   0  0  0  0  0  0  0  0  0  0  0  0
   22.1148   -5.1051  -13.7239 C   0  0  0  0  0  0  0  0  0  0  0  0
   23.0868   -4.5286  -12.9312 O   0  0  0  0  0  0  0  0  0  0  0  0
   21.8723   -4.5545  -14.8352 O   0  0  0  0  0  0  0  0  0  0  0  0
  1  2  1  0
  2  3  1  0
  3  4  1  6
  5  3  1  0
  5  6  2  0
  7  5  1  0
  8  7  1  0
  8  9  1  1
 10  9  1  0
 10 14  1  0
 11 10  2  0
 12  8  1  0
 13 12  2  0
 15 12  1  0
 16 15  1  0
 17 16  1  0
 17 18  1  0
 19 17  2  0
M  END
$$$$
