SDG.pdb
     RDKit          3D

 19 18  0  0  1  0  0  0  0  0999 V2000
   13.9287   -9.5455  -13.9162 O   0  0  0  0  0  0  0  0  0  0  0  0
   15.2770   -9.1649  -14.0246 C   0  0  0  0  0  0  0  0  0  0  0  0
   16.0012  -10.2258  -14.8515 C   0  0  2  0  0  0  0  0  0  0  0  0
   15.7725  -11.5442  -14.3227 N   0  0  0  0  0  0  0  0  0  0  0  0
   17.4756   -9.9582  -14.7478 C   0  0  0  0  0  0  0  0  0  0  0  0
   18.1816  -10.4438  -13.8374 O   0  0  0  0  0  0  0  0  0  0  0  0
   18.0540   -9.1360  -15.7123 N   0  0  0  0  0  0  0  0  0  0  0  0
   19.5367   -8.8684  -15.7609 C   0  0  1  0  0  0  0  0  0  0  0  0
   19.8177   -8.9913  -17.2333 C   0  0  0  0  0  0  0  0  0  0  0  0
   21.1504   -8.6637  -17.7062 C   0  0  0  0  0  0  0  0  0  0  0  0
   22.2390   -8.7232  -17.1013 O   0  0  0  0  0  0  0  0  0  0  0  0
   19.6227   -7.4690  -15.2478 C   0  0  0  0  0  0  0  0  0  0  0  0
   18.7649   -6.5768  -15.6176 O   0  0  0  0  0  0  0  0  0  0  0  0
   21.2908   -8.2022  -19.0488 O   0  0  0  0  0  0  0  0  0  0  0  0
   20.5969   -6.9987  -14.3477 N   0  0  0  0  0  0  0  0  0  0  0  0
   20.6302   -5.6059  -13.9314 C   0  0  0  0  0  0  0  0  0  0  0  0
   21.7651   -5.3880  -13.0075 C   0  0  0  0  0  0  0  0  0  0  0  0
   22.1654   -4.1349  -12.5889 O   0  0  0  0  0  0  0  0  0  0  0  0
   22.4132   -6.3797  -12.5677 O   0  0  0  0  0  0  0  0  0  0  0  0
  1  2  1  0
  2  3  1  0
  3  4  1  1
  5  3  1  0
  5  6  2  0
  7  5  1  0
  8  7  1  0
  8  9  1  6
 10  9  1  0
 10 14  1  0
 11 10  2  0
 12  8  1  0
 13 12  2  0
 15 12  1  0
 16 15  1  0
 17 16  1  0
 17 18  1  0
 19 17  2  0
M  END
$$$$
