SDG.pdb
     RDKit          3D

 19 18  0  0  1  0  0  0  0  0999 V2000
   15.2828   -9.9255  -16.5411 O   0  0  0  0  0  0  0  0  0  0  0  0
   16.4170   -9.6680  -15.7526 C   0  0  0  0  0  0  0  0  0  0  0  0
   17.4719  -10.7213  -16.0864 C   0  0  2  0  0  0  0  0  0  0  0  0
   17.1571  -11.9855  -15.4760 N   0  0  0  0  0  0  0  0  0  0  0  0
   18.7773  -10.2618  -15.5020 C   0  0  0  0  0  0  0  0  0  0  0  0
   19.1266  -10.5485  -14.3363 O   0  0  0  0  0  0  0  0  0  0  0  0
   19.6112   -9.4895  -16.3074 N   0  0  0  0  0  0  0  0  0  0  0  0
   20.9965   -9.0801  -15.8765 C   0  0  1  0  0  0  0  0  0  0  0  0
   21.8287   -9.5703  -17.0294 C   0  0  0  0  0  0  0  0  0  0  0  0
   22.5305  -10.8321  -16.8803 C   0  0  0  0  0  0  0  0  0  0  0  0
   23.7521  -11.0695  -16.9583 O   0  0  0  0  0  0  0  0  0  0  0  0
   20.8805   -7.5931  -15.8090 C   0  0  0  0  0  0  0  0  0  0  0  0
   20.2875   -6.9344  -16.7485 O   0  0  0  0  0  0  0  0  0  0  0  0
   21.7590  -11.9999  -16.6044 O   0  0  0  0  0  0  0  0  0  0  0  0
   21.3768   -6.7923  -14.7635 N   0  0  0  0  0  0  0  0  0  0  0  0
   21.2954   -5.3417  -14.8201 C   0  0  0  0  0  0  0  0  0  0  0  0
   22.0252   -4.7557  -13.6743 C   0  0  0  0  0  0  0  0  0  0  0  0
   22.4851   -5.5063  -12.6109 O   0  0  0  0  0  0  0  0  0  0  0  0
   22.2500   -3.5124  -13.6455 O   0  0  0  0  0  0  0  0  0  0  0  0
  1  2  1  0
  2  3  1  0
  3  4  1  1
  5  3  1  0
  5  6  2  0
  7  5  1  0
  8  7  1  0
  8  9  1  6
 10  9  1  0
 10 14  1  0
 11 10  2  0
 12  8  1  0
 13 12  2  0
 15 12  1  0
 16 15  1  0
 17 16  1  0
 17 18  1  0
 19 17  2  0
M  END
$$$$
