SDG.pdb
     RDKit          3D

 19 18  0  0  1  0  0  0  0  0999 V2000
   25.7096  -11.4475  -15.3983 O   0  0  0  0  0  0  0  0  0  0  0  0
   24.8867  -10.3091  -15.3621 C   0  0  0  0  0  0  0  0  0  0  0  0
   23.8288  -10.4575  -16.4542 C   0  0  2  0  0  0  0  0  0  0  0  0
   24.4262  -10.4475  -17.7630 N   0  0  0  0  0  0  0  0  0  0  0  0
   22.9196   -9.2644  -16.3747 C   0  0  0  0  0  0  0  0  0  0  0  0
   22.9957   -8.3102  -17.1789 O   0  0  0  0  0  0  0  0  0  0  0  0
   21.9658   -9.2436  -15.3596 N   0  0  0  0  0  0  0  0  0  0  0  0
   20.8817   -8.1983  -15.2920 C   0  0  1  0  0  0  0  0  0  0  0  0
   19.7428   -8.9821  -14.6997 C   0  0  0  0  0  0  0  0  0  0  0  0
   18.7830   -9.5868  -15.6052 C   0  0  0  0  0  0  0  0  0  0  0  0
   17.7939   -9.0733  -16.1643 O   0  0  0  0  0  0  0  0  0  0  0  0
   21.4691   -7.1931  -14.3574 C   0  0  0  0  0  0  0  0  0  0  0  0
   22.1617   -7.5693  -13.3341 O   0  0  0  0  0  0  0  0  0  0  0  0
   18.9491  -10.9645  -15.9360 O   0  0  0  0  0  0  0  0  0  0  0  0
   21.3402   -5.7978  -14.4891 N   0  0  0  0  0  0  0  0  0  0  0  0
   21.9725   -4.8892  -13.5464 C   0  0  0  0  0  0  0  0  0  0  0  0
   21.7566   -3.4910  -13.9792 C   0  0  0  0  0  0  0  0  0  0  0  0
   22.1857   -2.4015  -13.2481 O   0  0  0  0  0  0  0  0  0  0  0  0
   21.1538   -3.2583  -15.0653 O   0  0  0  0  0  0  0  0  0  0  0  0
  1  2  1  0
  2  3  1  0
  3  4  1  6
  5  3  1  0
  5  6  2  0
  7  5  1  0
  8  7  1  0
  8  9  1  1
 10  9  1  0
 10 14  1  0
 11 10  2  0
 12  8  1  0
 13 12  2  0
 15 12  1  0
 16 15  1  0
 17 16  1  0
 17 18  1  0
 19 17  2  0
M  END
$$$$
