SDG.pdb
     RDKit          3D

 19 18  0  0  1  0  0  0  0  0999 V2000
   23.8943  -13.0713  -18.0742 O   0  0  0  0  0  0  0  0  0  0  0  0
   23.5076  -11.9209  -17.3659 C   0  0  0  0  0  0  0  0  0  0  0  0
   22.0397  -12.0801  -16.9739 C   0  0  2  0  0  0  0  0  0  0  0  0
   21.3270  -12.8774  -17.9364 N   0  0  0  0  0  0  0  0  0  0  0  0
   21.4140  -10.7145  -16.9817 C   0  0  0  0  0  0  0  0  0  0  0  0
   21.3556  -10.0110  -18.0136 O   0  0  0  0  0  0  0  0  0  0  0  0
   20.8870  -10.2367  -15.7839 N   0  0  0  0  0  0  0  0  0  0  0  0
   20.2023   -8.8978  -15.6806 C   0  0  1  0  0  0  0  0  0  0  0  0
   18.8975   -9.2748  -15.0344 C   0  0  0  0  0  0  0  0  0  0  0  0
   17.8349   -9.7838  -15.8821 C   0  0  0  0  0  0  0  0  0  0  0  0
   17.4992   -9.4245  -17.0279 O   0  0  0  0  0  0  0  0  0  0  0  0
   21.1218   -8.1408  -14.7802 C   0  0  0  0  0  0  0  0  0  0  0  0
   21.8834   -8.7617  -13.9420 O   0  0  0  0  0  0  0  0  0  0  0  0
   17.0285  -10.8482  -15.3802 O   0  0  0  0  0  0  0  0  0  0  0  0
   21.2522   -6.7397  -14.7544 N   0  0  0  0  0  0  0  0  0  0  0  0
   22.1625   -6.0834  -13.8298 C   0  0  0  0  0  0  0  0  0  0  0  0
   22.0862   -4.6170  -14.0105 C   0  0  0  0  0  0  0  0  0  0  0  0
   21.3502   -4.0192  -15.0139 O   0  0  0  0  0  0  0  0  0  0  0  0
   22.7153   -3.8559  -13.2220 O   0  0  0  0  0  0  0  0  0  0  0  0
  1  2  1  0
  2  3  1  0
  3  4  1  6
  5  3  1  0
  5  6  2  0
  7  5  1  0
  8  7  1  0
  8  9  1  1
 10  9  1  0
 10 14  1  0
 11 10  2  0
 12  8  1  0
 13 12  2  0
 15 12  1  0
 16 15  1  0
 17 16  1  0
 17 18  1  0
 19 17  2  0
M  END
$$$$
