SDG.pdb
     RDKit          3D

 19 18  0  0  1  0  0  0  0  0999 V2000
   27.0477  -23.2920  -15.5413 O   0  0  0  0  0  0  0  0  0  0  0  0
   25.6733  -23.0889  -15.7525 C   0  0  0  0  0  0  0  0  0  0  0  0
   24.9215  -24.2582  -15.1190 C   0  0  2  0  0  0  0  0  0  0  0  0
   25.2165  -25.4941  -15.7939 N   0  0  0  0  0  0  0  0  0  0  0  0
   23.4512  -24.0021  -15.2895 C   0  0  0  0  0  0  0  0  0  0  0  0
   22.8296  -24.3325  -16.3227 O   0  0  0  0  0  0  0  0  0  0  0  0
   22.7782  -23.3721  -14.2450 N   0  0  0  0  0  0  0  0  0  0  0  0
   21.2990  -23.0861  -14.2941 C   0  0  1  0  0  0  0  0  0  0  0  0
   20.8121  -23.8002  -13.0633 C   0  0  0  0  0  0  0  0  0  0  0  0
   19.4001  -23.7182  -12.7369 C   0  0  0  0  0  0  0  0  0  0  0  0
   18.4099  -23.8129  -13.4886 O   0  0  0  0  0  0  0  0  0  0  0  0
   21.2605  -21.5979  -14.1798 C   0  0  0  0  0  0  0  0  0  0  0  0
   22.0829  -20.9744  -13.4031 O   0  0  0  0  0  0  0  0  0  0  0  0
   19.0386  -23.4985  -11.3745 O   0  0  0  0  0  0  0  0  0  0  0  0
   20.3706  -20.7586  -14.8756 N   0  0  0  0  0  0  0  0  0  0  0  0
   20.2993  -19.3341  -14.5925 C   0  0  0  0  0  0  0  0  0  0  0  0
   20.9675  -18.5763  -15.6734 C   0  0  0  0  0  0  0  0  0  0  0  0
   21.5662  -17.3486  -15.4733 O   0  0  0  0  0  0  0  0  0  0  0  0
   21.0046  -19.0549  -16.8424 O   0  0  0  0  0  0  0  0  0  0  0  0
  1  2  1  0
  2  3  1  0
  3  4  1  6
  5  3  1  0
  5  6  2  0
  7  5  1  0
  8  7  1  0
  8  9  1  1
 10  9  1  0
 10 14  1  0
 11 10  2  0
 12  8  1  0
 13 12  2  0
 15 12  1  0
 16 15  1  0
 17 16  1  0
 17 18  1  0
 19 17  2  0
M  END
$$$$
