SDG.pdb
     RDKit          3D

 19 18  0  0  1  0  0  0  0  0999 V2000
   17.7953  -11.4421  -13.6680 O   0  0  0  0  0  0  0  0  0  0  0  0
   17.7380  -10.0419  -13.5639 C   0  0  0  0  0  0  0  0  0  0  0  0
   16.5165   -9.6817  -12.7201 C   0  0  2  0  0  0  0  0  0  0  0  0
   15.2962   -9.8995  -13.4505 N   0  0  0  0  0  0  0  0  0  0  0  0
   16.5907   -8.2134  -12.4122 C   0  0  0  0  0  0  0  0  0  0  0  0
   15.9971   -7.3545  -13.0999 O   0  0  0  0  0  0  0  0  0  0  0  0
   17.3549   -7.8193  -11.3162 N   0  0  0  0  0  0  0  0  0  0  0  0
   17.4021   -6.3909  -10.8367 C   0  0  1  0  0  0  0  0  0  0  0  0
   17.1271   -6.5562   -9.3673 C   0  0  0  0  0  0  0  0  0  0  0  0
   15.7443   -6.6391   -8.9340 C   0  0  0  0  0  0  0  0  0  0  0  0
   14.7434   -6.0368   -9.3701 O   0  0  0  0  0  0  0  0  0  0  0  0
   18.8100   -6.0003  -11.1441 C   0  0  0  0  0  0  0  0  0  0  0  0
   19.2630   -4.8408  -10.7996 O   0  0  0  0  0  0  0  0  0  0  0  0
   15.4306   -7.5215   -7.8578 O   0  0  0  0  0  0  0  0  0  0  0  0
   19.7470   -6.8160  -11.8051 N   0  0  0  0  0  0  0  0  0  0  0  0
   21.1091   -6.3640  -12.0388 C   0  0  0  0  0  0  0  0  0  0  0  0
   21.1851   -5.6581  -13.3368 C   0  0  0  0  0  0  0  0  0  0  0  0
   22.3622   -5.1526  -13.8513 O   0  0  0  0  0  0  0  0  0  0  0  0
   20.1370   -5.4985  -14.0245 O   0  0  0  0  0  0  0  0  0  0  0  0
  1  2  1  0
  2  3  1  0
  3  4  1  6
  5  3  1  0
  5  6  2  0
  7  5  1  0
  8  7  1  0
  8  9  1  1
 10  9  1  0
 10 14  1  0
 11 10  2  0
 12  8  1  0
 13 12  2  0
 15 12  1  0
 16 15  1  0
 17 16  1  0
 17 18  1  0
 19 17  2  0
M  END
$$$$
