SDG.pdb
     RDKit          3D

 19 18  0  0  1  0  0  0  0  0999 V2000
   15.4205  -12.5009  -10.3846 O   0  0  0  0  0  0  0  0  0  0  0  0
   15.8427  -11.2661  -10.9059 C   0  0  0  0  0  0  0  0  0  0  0  0
   15.1217  -10.1594  -10.1383 C   0  0  2  0  0  0  0  0  0  0  0  0
   13.6959  -10.2526  -10.3063 N   0  0  0  0  0  0  0  0  0  0  0  0
   15.5502   -8.8439  -10.7234 C   0  0  0  0  0  0  0  0  0  0  0  0
   14.9797   -8.3335  -11.7119 O   0  0  0  0  0  0  0  0  0  0  0  0
   16.6243   -8.1884  -10.1258 N   0  0  0  0  0  0  0  0  0  0  0  0
   17.1113   -6.8417  -10.5965 C   0  0  1  0  0  0  0  0  0  0  0  0
   17.0780   -6.0456   -9.3209 C   0  0  0  0  0  0  0  0  0  0  0  0
   15.8515   -5.3478   -8.9805 C   0  0  0  0  0  0  0  0  0  0  0  0
   14.7887   -5.2594   -9.6265 O   0  0  0  0  0  0  0  0  0  0  0  0
   18.4911   -7.1533  -11.0741 C   0  0  0  0  0  0  0  0  0  0  0  0
   19.2900   -7.8731  -10.3586 O   0  0  0  0  0  0  0  0  0  0  0  0
   15.8018   -4.6459   -7.7396 O   0  0  0  0  0  0  0  0  0  0  0  0
   19.0382   -6.7206  -12.2964 N   0  0  0  0  0  0  0  0  0  0  0  0
   20.4329   -6.9643  -12.6274 C   0  0  0  0  0  0  0  0  0  0  0  0
   20.5478   -8.2076  -13.4212 C   0  0  0  0  0  0  0  0  0  0  0  0
   19.4626   -8.9968  -13.7456 O   0  0  0  0  0  0  0  0  0  0  0  0
   21.6816   -8.5848  -13.8324 O   0  0  0  0  0  0  0  0  0  0  0  0
  1  2  1  0
  2  3  1  0
  3  4  1  6
  5  3  1  0
  5  6  2  0
  7  5  1  0
  8  7  1  0
  8  9  1  1
 10  9  1  0
 10 14  1  0
 11 10  2  0
 12  8  1  0
 13 12  2  0
 15 12  1  0
 16 15  1  0
 17 16  1  0
 17 18  1  0
 19 17  2  0
M  END
$$$$
