SDG.pdb
     RDKit          3D

 19 18  0  0  1  0  0  0  0  0999 V2000
   30.7800  -14.4995   12.3453 O   0  0  0  0  0  0  0  0  0  0  0  0
   29.8946  -15.5785   12.1835 C   0  0  0  0  0  0  0  0  0  0  0  0
   30.5010  -16.5362   11.1593 C   0  0  2  0  0  0  0  0  0  0  0  0
   30.6117  -15.9145    9.8665 N   0  0  0  0  0  0  0  0  0  0  0  0
   29.5631  -17.7000   11.0107 C   0  0  0  0  0  0  0  0  0  0  0  0
   28.5800  -17.6731   10.2388 O   0  0  0  0  0  0  0  0  0  0  0  0
   29.8187  -18.8390   11.7711 N   0  0  0  0  0  0  0  0  0  0  0  0
   28.9833  -20.0887   11.6588 C   0  0  1  0  0  0  0  0  0  0  0  0
   30.0161  -21.1621   11.8668 C   0  0  0  0  0  0  0  0  0  0  0  0
   30.8845  -21.5023   10.7546 C   0  0  0  0  0  0  0  0  0  0  0  0
   30.5830  -21.8753    9.6037 O   0  0  0  0  0  0  0  0  0  0  0  0
   28.0344  -19.9387   12.8017 C   0  0  0  0  0  0  0  0  0  0  0  0
   28.4419  -19.4927   13.9433 O   0  0  0  0  0  0  0  0  0  0  0  0
   32.2943  -21.4143   10.9534 O   0  0  0  0  0  0  0  0  0  0  0  0
   26.6622  -20.2481   12.7563 N   0  0  0  0  0  0  0  0  0  0  0  0
   25.8135  -20.0885   13.9260 C   0  0  0  0  0  0  0  0  0  0  0  0
   25.9137  -21.2902   14.7833 C   0  0  0  0  0  0  0  0  0  0  0  0
   24.8477  -22.1328   15.0264 O   0  0  0  0  0  0  0  0  0  0  0  0
   27.0163  -21.5791   15.3291 O   0  0  0  0  0  0  0  0  0  0  0  0
  1  2  1  0
  2  3  1  0
  3  4  1  6
  5  3  1  0
  5  6  2  0
  7  5  1  0
  8  7  1  0
  8  9  1  1
 10  9  1  0
 10 14  1  0
 11 10  2  0
 12  8  1  0
 13 12  2  0
 15 12  1  0
 16 15  1  0
 17 16  1  0
 17 18  1  0
 19 17  2  0
M  END
$$$$
