SDG.pdb
     RDKit          3D

 19 18  0  0  1  0  0  0  0  0999 V2000
   25.8629  -12.9814  -15.7712 O   0  0  0  0  0  0  0  0  0  0  0  0
   25.3034  -11.8090  -16.3069 C   0  0  0  0  0  0  0  0  0  0  0  0
   23.8545  -12.1092  -16.6867 C   0  0  2  0  0  0  0  0  0  0  0  0
   23.7838  -13.0900  -17.7370 N   0  0  0  0  0  0  0  0  0  0  0  0
   23.2512  -10.8428  -17.2238 C   0  0  0  0  0  0  0  0  0  0  0  0
   23.1666  -10.6089  -18.4491 O   0  0  0  0  0  0  0  0  0  0  0  0
   22.7761   -9.9108  -16.3039 N   0  0  0  0  0  0  0  0  0  0  0  0
   22.0879   -8.6379  -16.7265 C   0  0  1  0  0  0  0  0  0  0  0  0
   20.6487   -9.0725  -16.7694 C   0  0  0  0  0  0  0  0  0  0  0  0
   19.6306   -8.0542  -16.9526 C   0  0  0  0  0  0  0  0  0  0  0  0
   19.3492   -7.3944  -17.9724 O   0  0  0  0  0  0  0  0  0  0  0  0
   22.4036   -7.7167  -15.5948 C   0  0  0  0  0  0  0  0  0  0  0  0
   22.4371   -8.1522  -14.3793 O   0  0  0  0  0  0  0  0  0  0  0  0
   18.8059   -7.7224  -15.8369 O   0  0  0  0  0  0  0  0  0  0  0  0
   22.6885   -6.3449  -15.7273 N   0  0  0  0  0  0  0  0  0  0  0  0
   23.0875   -5.5428  -14.5819 C   0  0  0  0  0  0  0  0  0  0  0  0
   21.9284   -4.7677  -14.0872 C   0  0  0  0  0  0  0  0  0  0  0  0
   21.9997   -3.9153  -13.0037 O   0  0  0  0  0  0  0  0  0  0  0  0
   20.8108   -4.8744  -14.6674 O   0  0  0  0  0  0  0  0  0  0  0  0
  1  2  1  0
  2  3  1  0
  3  4  1  6
  5  3  1  0
  5  6  2  0
  7  5  1  0
  8  7  1  0
  8  9  1  1
 10  9  1  0
 10 14  1  0
 11 10  2  0
 12  8  1  0
 13 12  2  0
 15 12  1  0
 16 15  1  0
 17 16  1  0
 17 18  1  0
 19 17  2  0
M  END
$$$$
