SDG.pdb
     RDKit          3D

 19 18  0  0  1  0  0  0  0  0999 V2000
   26.2251  -10.6561  -15.6764 O   0  0  0  0  0  0  0  0  0  0  0  0
   25.2158   -9.6891  -15.8204 C   0  0  0  0  0  0  0  0  0  0  0  0
   23.9905  -10.3732  -16.4243 C   0  0  2  0  0  0  0  0  0  0  0  0
   24.2556  -10.8301  -17.7625 N   0  0  0  0  0  0  0  0  0  0  0  0
   22.8948   -9.3498  -16.5161 C   0  0  0  0  0  0  0  0  0  0  0  0
   22.5545   -8.8291  -17.6006 O   0  0  0  0  0  0  0  0  0  0  0  0
   22.2497   -8.9840  -15.3367 N   0  0  0  0  0  0  0  0  0  0  0  0
   21.1479   -7.9558  -15.3048 C   0  0  1  0  0  0  0  0  0  0  0  0
   20.0194   -8.7410  -14.6949 C   0  0  0  0  0  0  0  0  0  0  0  0
   19.2651   -9.6361  -15.5532 C   0  0  0  0  0  0  0  0  0  0  0  0
   19.2665  -10.8824  -15.5888 O   0  0  0  0  0  0  0  0  0  0  0  0
   21.7137   -6.9138  -14.3975 C   0  0  0  0  0  0  0  0  0  0  0  0
   22.3486   -7.2484  -13.3236 O   0  0  0  0  0  0  0  0  0  0  0  0
   18.3805   -9.0586  -16.5118 O   0  0  0  0  0  0  0  0  0  0  0  0
   21.6231   -5.5253  -14.6088 N   0  0  0  0  0  0  0  0  0  0  0  0
   22.2095   -4.5796  -13.6728 C   0  0  0  0  0  0  0  0  0  0  0  0
   21.9821   -3.1980  -14.1508 C   0  0  0  0  0  0  0  0  0  0  0  0
   21.3734   -2.9086  -15.3555 O   0  0  0  0  0  0  0  0  0  0  0  0
   22.3536   -2.2212  -13.4404 O   0  0  0  0  0  0  0  0  0  0  0  0
  1  2  1  0
  2  3  1  0
  3  4  1  6
  5  3  1  0
  5  6  2  0
  7  5  1  0
  8  7  1  0
  8  9  1  1
 10  9  1  0
 10 14  1  0
 11 10  2  0
 12  8  1  0
 13 12  2  0
 15 12  1  0
 16 15  1  0
 17 16  1  0
 17 18  1  0
 19 17  2  0
M  END
$$$$
