KFV.pdb
     RDKit          3D

 28 28  0  0  1  0  0  0  0  0999 V2000
   27.8450  -21.1151  -18.7653 N   0  0  0  0  0  0  0  0  0  0  0  0
   27.5039  -20.1336  -17.7820 C   0  0  1  0  0  0  0  0  0  0  0  0
   26.5323  -19.1438  -18.3832 C   0  0  0  0  0  0  0  0  0  0  0  0
   27.2895  -18.3847  -19.4734 C   0  0  0  0  0  0  0  0  0  0  0  0
   27.7125  -17.0179  -18.9800 C   0  0  0  0  0  0  0  0  0  0  0  0
   27.5170  -16.0409  -20.1136 C   0  0  0  0  0  0  0  0  0  0  0  0
   28.6920  -15.9895  -20.9441 N   0  0  0  0  0  0  0  0  0  0  0  0
   26.8853  -20.7762  -16.5777 C   0  0  0  0  0  0  0  0  0  0  0  0
   26.0545  -21.6989  -16.6608 O   0  0  0  0  0  0  0  0  0  0  0  0
   27.2469  -20.3304  -15.2798 N   0  0  0  0  0  0  0  0  0  0  0  0
   26.4606  -20.6742  -14.1050 C   0  0  1  0  0  0  0  0  0  0  0  0
   27.2983  -20.2965  -12.9083 C   0  0  0  0  0  0  0  0  0  0  0  0
   26.5984  -20.4517  -11.6211 C   0  0  0  0  0  0  0  0  0  0  0  0
   26.0844  -19.3736  -10.9312 C   0  0  0  0  0  0  0  0  0  0  0  0
   25.4218  -19.5400   -9.7121 C   0  0  0  0  0  0  0  0  0  0  0  0
   25.2656  -20.7979   -9.1668 C   0  0  0  0  0  0  0  0  0  0  0  0
   25.7791  -21.8914   -9.8527 C   0  0  0  0  0  0  0  0  0  0  0  0
   26.4254  -21.6939  -11.0493 C   0  0  0  0  0  0  0  0  0  0  0  0
   25.1317  -20.0551  -14.1207 C   0  0  0  0  0  0  0  0  0  0  0  0
   24.9510  -18.8155  -14.1926 O   0  0  0  0  0  0  0  0  0  0  0  0
   21.8509  -22.3723  -15.0832 C   0  0  0  0  0  0  0  0  0  0  0  0
   21.8472  -20.8594  -15.1053 C   0  0  2  0  0  0  0  0  0  0  0  0
   22.3772  -20.3093  -16.3993 C   0  0  0  0  0  0  0  0  0  0  0  0
   22.6312  -20.3037  -13.9082 C   0  0  2  0  0  0  0  0  0  0  0  0
   23.9707  -20.8700  -14.0528 N   0  0  0  0  0  0  0  0  0  0  0  0
   21.9645  -20.8301  -12.6917 C   0  0  0  0  0  0  0  0  0  0  0  0
   22.5031  -21.9521  -12.0853 O   0  0  0  0  0  0  0  0  0  0  0  0
   20.9533  -20.2966  -12.2145 O   0  0  0  0  0  0  0  0  0  0  0  0
  2  1  1  6
  2  3  1  0
  4  3  1  0
  5  4  1  0
  6  5  1  0
  7  6  1  0
  8  9  2  0
  8  2  1  0
 10  8  1  0
 11 10  1  0
 12 13  1  0
 11 12  1  1
 13 18  2  0
 14 13  1  0
 14 15  2  0
 15 16  1  0
 16 17  2  0
 18 17  1  0
 19 20  2  0
 19 11  1  0
 22 21  1  6
 22 23  1  0
 24 25  1  6
 24 22  1  0
 25 19  1  0
 26 24  1  0
 27 26  1  0
 28 26  2  0
M  END
$$$$
