KFV.pdb
     RDKit          3D

 28 28  0  0  1  0  0  0  0  0999 V2000
   28.9153  -22.1210  -17.3542 N   0  0  0  0  0  0  0  0  0  0  0  0
   27.9954  -21.0341  -17.2156 C   0  0  1  0  0  0  0  0  0  0  0  0
   27.1777  -20.9101  -18.4810 C   0  0  0  0  0  0  0  0  0  0  0  0
   27.6153  -19.6156  -19.1672 C   0  0  0  0  0  0  0  0  0  0  0  0
   29.1156  -19.5941  -19.3650 C   0  0  0  0  0  0  0  0  0  0  0  0
   29.4887  -18.2302  -19.8926 C   0  0  0  0  0  0  0  0  0  0  0  0
   28.3228  -17.5420  -20.3823 N   0  0  0  0  0  0  0  0  0  0  0  0
   27.0826  -21.2522  -16.0473 C   0  0  0  0  0  0  0  0  0  0  0  0
   26.0925  -22.0041  -16.0995 O   0  0  0  0  0  0  0  0  0  0  0  0
   27.3386  -20.5844  -14.8214 N   0  0  0  0  0  0  0  0  0  0  0  0
   26.5233  -20.8149  -13.6388 C   0  0  1  0  0  0  0  0  0  0  0  0
   27.3862  -20.4603  -12.4529 C   0  0  0  0  0  0  0  0  0  0  0  0
   26.6853  -20.5529  -11.1602 C   0  0  0  0  0  0  0  0  0  0  0  0
   26.2022  -19.4387  -10.5065 C   0  0  0  0  0  0  0  0  0  0  0  0
   25.5381  -19.5457   -9.2816 C   0  0  0  0  0  0  0  0  0  0  0  0
   25.3495  -20.7798   -8.6937 C   0  0  0  0  0  0  0  0  0  0  0  0
   25.8318  -21.9093   -9.3428 C   0  0  0  0  0  0  0  0  0  0  0  0
   26.4804  -21.7699  -10.5463 C   0  0  0  0  0  0  0  0  0  0  0  0
   25.2504  -20.0891  -13.6870 C   0  0  0  0  0  0  0  0  0  0  0  0
   25.1728  -18.8445  -13.8255 O   0  0  0  0  0  0  0  0  0  0  0  0
   21.8247  -22.1008  -14.6636 C   0  0  0  0  0  0  0  0  0  0  0  0
   21.9258  -20.5912  -14.6525 C   0  0  2  0  0  0  0  0  0  0  0  0
   22.4986  -20.0513  -15.9325 C   0  0  0  0  0  0  0  0  0  0  0  0
   22.7407  -20.1172  -13.4410 C   0  0  2  0  0  0  0  0  0  0  0  0
   24.0261  -20.7998  -13.5744 N   0  0  0  0  0  0  0  0  0  0  0  0
   22.0141  -20.5914  -12.2376 C   0  0  0  0  0  0  0  0  0  0  0  0
   21.0189  -19.7833  -11.7147 O   0  0  0  0  0  0  0  0  0  0  0  0
   22.2738  -21.6765  -11.6991 O   0  0  0  0  0  0  0  0  0  0  0  0
  2  1  1  6
  2  3  1  0
  4  3  1  0
  5  4  1  0
  6  5  1  0
  7  6  1  0
  8  9  2  0
  8  2  1  0
 10  8  1  0
 11 10  1  0
 12 13  1  0
 11 12  1  1
 13 18  2  0
 14 13  1  0
 14 15  2  0
 15 16  1  0
 16 17  2  0
 18 17  1  0
 19 20  2  0
 19 11  1  0
 22 21  1  6
 22 23  1  0
 24 25  1  6
 24 22  1  0
 25 19  1  0
 26 24  1  0
 27 26  1  0
 28 26  2  0
M  END
$$$$
