KFV.pdb
     RDKit          3D

 28 28  0  0  1  0  0  0  0  0999 V2000
   26.1130  -21.8759  -13.2072 N   0  0  0  0  0  0  0  0  0  0  0  0
   25.8127  -20.7664  -12.3554 C   0  0  1  0  0  0  0  0  0  0  0  0
   24.3665  -20.3696  -12.5466 C   0  0  0  0  0  0  0  0  0  0  0  0
   24.2362  -19.8419  -13.9758 C   0  0  0  0  0  0  0  0  0  0  0  0
   23.5839  -20.8734  -14.8709 C   0  0  0  0  0  0  0  0  0  0  0  0
   23.4398  -20.2631  -16.2437 C   0  0  0  0  0  0  0  0  0  0  0  0
   22.7819  -21.1804  -17.1374 N   0  0  0  0  0  0  0  0  0  0  0  0
   26.0515  -21.1162  -10.9179 C   0  0  0  0  0  0  0  0  0  0  0  0
   25.6915  -22.1989  -10.4212 O   0  0  0  0  0  0  0  0  0  0  0  0
   26.7135  -20.1904  -10.0701 N   0  0  0  0  0  0  0  0  0  0  0  0
   26.9539  -20.4757   -8.6639 C   0  0  1  0  0  0  0  0  0  0  0  0
   28.2211  -19.7453   -8.2934 C   0  0  0  0  0  0  0  0  0  0  0  0
   28.5438  -19.8078   -6.8572 C   0  0  0  0  0  0  0  0  0  0  0  0
   29.1614  -20.9035   -6.2913 C   0  0  0  0  0  0  0  0  0  0  0  0
   29.4615  -20.9445   -4.9271 C   0  0  0  0  0  0  0  0  0  0  0  0
   29.1437  -19.8800   -4.1086 C   0  0  0  0  0  0  0  0  0  0  0  0
   28.5214  -18.7707   -4.6674 C   0  0  0  0  0  0  0  0  0  0  0  0
   28.2400  -18.7618   -6.0125 C   0  0  0  0  0  0  0  0  0  0  0  0
   25.8036  -20.1376   -7.8201 C   0  0  0  0  0  0  0  0  0  0  0  0
   25.1233  -19.0941   -7.9700 O   0  0  0  0  0  0  0  0  0  0  0  0
   23.7294  -23.1323   -6.0539 C   0  0  0  0  0  0  0  0  0  0  0  0
   23.2156  -21.7210   -6.2372 C   0  0  2  0  0  0  0  0  0  0  0  0
   22.6972  -21.4818   -7.6271 C   0  0  0  0  0  0  0  0  0  0  0  0
   24.3045  -20.7023   -5.8724 C   0  0  2  0  0  0  0  0  0  0  0  0
   25.4133  -21.0131   -6.7723 N   0  0  0  0  0  0  0  0  0  0  0  0
   24.6768  -20.9759   -4.4625 C   0  0  0  0  0  0  0  0  0  0  0  0
   25.9073  -21.5596   -4.2133 O   0  0  0  0  0  0  0  0  0  0  0  0
   23.9236  -20.6983   -3.5189 O   0  0  0  0  0  0  0  0  0  0  0  0
  2  1  1  6
  2  3  1  0
  4  3  1  0
  5  4  1  0
  6  5  1  0
  7  6  1  0
  8  9  2  0
  8  2  1  0
 10  8  1  0
 11 10  1  0
 12 13  1  0
 11 12  1  1
 13 18  2  0
 14 13  1  0
 14 15  2  0
 15 16  1  0
 16 17  2  0
 18 17  1  0
 19 20  2  0
 19 11  1  0
 22 21  1  6
 22 23  1  0
 24 25  1  6
 24 22  1  0
 25 19  1  0
 26 24  1  0
 27 26  1  0
 28 26  2  0
M  END
$$$$
