KFV.pdb
     RDKit          3D

 28 28  0  0  1  0  0  0  0  0999 V2000
   27.8189  -18.9130  -18.0296 N   0  0  0  0  0  0  0  0  0  0  0  0
   26.6441  -19.7293  -18.0463 C   0  0  1  0  0  0  0  0  0  0  0  0
   26.7686  -20.7579  -19.1470 C   0  0  0  0  0  0  0  0  0  0  0  0
   26.9371  -19.9878  -20.4573 C   0  0  0  0  0  0  0  0  0  0  0  0
   25.8382  -18.9600  -20.6203 C   0  0  0  0  0  0  0  0  0  0  0  0
   25.9956  -18.3336  -21.9844 C   0  0  0  0  0  0  0  0  0  0  0  0
   24.9489  -17.3743  -22.2232 N   0  0  0  0  0  0  0  0  0  0  0  0
   26.4558  -20.4219  -16.7307 C   0  0  0  0  0  0  0  0  0  0  0  0
   26.0118  -21.5808  -16.6392 O   0  0  0  0  0  0  0  0  0  0  0  0
   26.7908  -19.7479  -15.5276 N   0  0  0  0  0  0  0  0  0  0  0  0
   26.3514  -20.2348  -14.2289 C   0  0  1  0  0  0  0  0  0  0  0  0
   27.2741  -19.6145  -13.2089 C   0  0  0  0  0  0  0  0  0  0  0  0
   26.9462  -19.9713  -11.8175 C   0  0  0  0  0  0  0  0  0  0  0  0
   26.0758  -19.2218  -11.0540 C   0  0  0  0  0  0  0  0  0  0  0  0
   25.7750  -19.5764   -9.7361 C   0  0  0  0  0  0  0  0  0  0  0  0
   26.3474  -20.6943   -9.1645 C   0  0  0  0  0  0  0  0  0  0  0  0
   27.2257  -21.4570   -9.9239 C   0  0  0  0  0  0  0  0  0  0  0  0
   27.5005  -21.0813  -11.2169 C   0  0  0  0  0  0  0  0  0  0  0  0
   24.9302  -19.9709  -13.9843 C   0  0  0  0  0  0  0  0  0  0  0  0
   24.4408  -18.8161  -13.9492 O   0  0  0  0  0  0  0  0  0  0  0  0
   22.3770  -23.3169  -13.7219 C   0  0  0  0  0  0  0  0  0  0  0  0
   21.8789  -21.9567  -14.1593 C   0  0  2  0  0  0  0  0  0  0  0  0
   21.9708  -21.7702  -15.6474 C   0  0  0  0  0  0  0  0  0  0  0  0
   22.6337  -20.8451  -13.4169 C   0  0  2  0  0  0  0  0  0  0  0  0
   24.0358  -21.0535  -13.7729 N   0  0  0  0  0  0  0  0  0  0  0  0
   22.4155  -21.0867  -11.9695 C   0  0  0  0  0  0  0  0  0  0  0  0
   21.2643  -20.5820  -11.3892 O   0  0  0  0  0  0  0  0  0  0  0  0
   23.2271  -21.7197  -11.2800 O   0  0  0  0  0  0  0  0  0  0  0  0
  2  1  1  1
  2  3  1  0
  4  3  1  0
  5  4  1  0
  6  5  1  0
  7  6  1  0
  8  9  2  0
  8  2  1  0
 10  8  1  0
 11 10  1  0
 12 13  1  0
 11 12  1  1
 13 18  2  0
 14 13  1  0
 14 15  2  0
 15 16  1  0
 16 17  2  0
 18 17  1  0
 19 20  2  0
 19 11  1  0
 22 21  1  6
 22 23  1  0
 24 25  1  1
 24 22  1  0
 25 19  1  0
 26 24  1  0
 27 26  1  0
 28 26  2  0
M  END
$$$$
