KFV.pdb
     RDKit          3D

 28 28  0  0  1  0  0  0  0  0999 V2000
   27.2155  -23.0062  -17.1304 N   0  0  0  0  0  0  0  0  0  0  0  0
   27.1262  -21.7622  -16.4296 C   0  0  1  0  0  0  0  0  0  0  0  0
   26.3638  -20.7682  -17.2756 C   0  0  0  0  0  0  0  0  0  0  0  0
   27.1180  -20.6415  -18.5997 C   0  0  0  0  0  0  0  0  0  0  0  0
   28.4295  -19.9124  -18.4022 C   0  0  0  0  0  0  0  0  0  0  0  0
   29.0621  -19.7316  -19.7604 C   0  0  0  0  0  0  0  0  0  0  0  0
   30.3482  -19.0961  -19.6377 N   0  0  0  0  0  0  0  0  0  0  0  0
   26.4313  -21.9388  -15.1136 C   0  0  0  0  0  0  0  0  0  0  0  0
   25.4222  -22.6542  -14.9775 O   0  0  0  0  0  0  0  0  0  0  0  0
   26.9266  -21.2728  -13.9625 N   0  0  0  0  0  0  0  0  0  0  0  0
   26.1592  -21.2025  -12.7285 C   0  0  1  0  0  0  0  0  0  0  0  0
   27.1032  -20.6866  -11.6706 C   0  0  0  0  0  0  0  0  0  0  0  0
   26.4661  -20.4748  -10.3590 C   0  0  0  0  0  0  0  0  0  0  0  0
   26.4833  -19.2502   -9.7247 C   0  0  0  0  0  0  0  0  0  0  0  0
   25.8721  -19.0671   -8.4814 C   0  0  0  0  0  0  0  0  0  0  0  0
   25.2320  -20.1171   -7.8553 C   0  0  0  0  0  0  0  0  0  0  0  0
   25.2082  -21.3553   -8.4846 C   0  0  0  0  0  0  0  0  0  0  0  0
   25.8187  -21.5022   -9.7070 C   0  0  0  0  0  0  0  0  0  0  0  0
   24.9367  -20.4064  -12.8748 C   0  0  0  0  0  0  0  0  0  0  0  0
   24.9422  -19.1745  -13.1128 O   0  0  0  0  0  0  0  0  0  0  0  0
   21.4624  -22.0704  -14.1780 C   0  0  0  0  0  0  0  0  0  0  0  0
   21.7577  -20.5897  -14.0802 C   0  0  2  0  0  0  0  0  0  0  0  0
   22.5944  -20.1008  -15.2286 C   0  0  0  0  0  0  0  0  0  0  0  0
   22.4228  -20.2632  -12.7357 C   0  0  2  0  0  0  0  0  0  0  0  0
   23.6671  -21.0296  -12.7468 N   0  0  0  0  0  0  0  0  0  0  0  0
   21.5046  -20.7635  -11.6832 C   0  0  0  0  0  0  0  0  0  0  0  0
   21.8471  -21.9277  -11.0168 O   0  0  0  0  0  0  0  0  0  0  0  0
   20.4554  -20.1723  -11.3923 O   0  0  0  0  0  0  0  0  0  0  0  0
  2  1  1  6
  2  3  1  0
  4  3  1  0
  5  4  1  0
  6  5  1  0
  7  6  1  0
  8  9  2  0
  8  2  1  0
 10  8  1  0
 11 10  1  0
 12 13  1  0
 11 12  1  1
 13 18  2  0
 14 13  1  0
 14 15  2  0
 15 16  1  0
 16 17  2  0
 18 17  1  0
 19 20  2  0
 19 11  1  0
 22 21  1  6
 22 23  1  0
 24 25  1  6
 24 22  1  0
 25 19  1  0
 26 24  1  0
 27 26  1  0
 28 26  2  0
M  END
$$$$
