KFV.pdb
     RDKit          3D

 28 28  0  0  1  0  0  0  0  0999 V2000
   28.4927  -22.6457  -16.7280 N   0  0  0  0  0  0  0  0  0  0  0  0
   28.0118  -21.4088  -16.1935 C   0  0  1  0  0  0  0  0  0  0  0  0
   27.1596  -20.7160  -17.2322 C   0  0  0  0  0  0  0  0  0  0  0  0
   28.0294  -20.5455  -18.4782 C   0  0  0  0  0  0  0  0  0  0  0  0
   27.4068  -19.5518  -19.4350 C   0  0  0  0  0  0  0  0  0  0  0  0
   26.3251  -20.2713  -20.2030 C   0  0  0  0  0  0  0  0  0  0  0  0
   26.8852  -21.3531  -20.9704 N   0  0  0  0  0  0  0  0  0  0  0  0
   27.2026  -21.6410  -14.9537 C   0  0  0  0  0  0  0  0  0  0  0  0
   26.1684  -22.3330  -14.9463 O   0  0  0  0  0  0  0  0  0  0  0  0
   27.6138  -21.0580  -13.7269 N   0  0  0  0  0  0  0  0  0  0  0  0
   26.7791  -21.1096  -12.5364 C   0  0  1  0  0  0  0  0  0  0  0  0
   27.6558  -20.6838  -11.3847 C   0  0  0  0  0  0  0  0  0  0  0  0
   26.9455  -20.6031  -10.0964 C   0  0  0  0  0  0  0  0  0  0  0  0
   26.5513  -21.7292   -9.4045 C   0  0  0  0  0  0  0  0  0  0  0  0
   25.8798  -21.6336   -8.1826 C   0  0  0  0  0  0  0  0  0  0  0  0
   25.5939  -20.3990   -7.6364 C   0  0  0  0  0  0  0  0  0  0  0  0
   25.9861  -19.2576   -8.3243 C   0  0  0  0  0  0  0  0  0  0  0  0
   26.6447  -19.3860   -9.5235 C   0  0  0  0  0  0  0  0  0  0  0  0
   25.5544  -20.3161  -12.6773 C   0  0  0  0  0  0  0  0  0  0  0  0
   25.5563  -19.0792  -12.8878 O   0  0  0  0  0  0  0  0  0  0  0  0
   22.0862  -22.1797  -13.7604 C   0  0  0  0  0  0  0  0  0  0  0  0
   22.2892  -20.6816  -13.8239 C   0  0  2  0  0  0  0  0  0  0  0  0
   22.9957  -20.2574  -15.0804 C   0  0  0  0  0  0  0  0  0  0  0  0
   23.0377  -20.1887  -12.5776 C   0  0  2  0  0  0  0  0  0  0  0  0
   24.2865  -20.9478  -12.5761 N   0  0  0  0  0  0  0  0  0  0  0  0
   22.1959  -20.5557  -11.4124 C   0  0  0  0  0  0  0  0  0  0  0  0
   21.0602  -19.8037  -11.1641 O   0  0  0  0  0  0  0  0  0  0  0  0
   22.4819  -21.5046  -10.6689 O   0  0  0  0  0  0  0  0  0  0  0  0
  2  1  1  6
  2  3  1  0
  4  3  1  0
  5  4  1  0
  6  5  1  0
  7  6  1  0
  8  9  2  0
  8  2  1  0
 10  8  1  0
 11 10  1  0
 12 13  1  0
 11 12  1  1
 13 18  2  0
 14 13  1  0
 14 15  2  0
 15 16  1  0
 16 17  2  0
 18 17  1  0
 19 20  2  0
 19 11  1  0
 22 21  1  1
 22 23  1  0
 24 25  1  1
 24 22  1  0
 25 19  1  0
 26 24  1  0
 27 26  1  0
 28 26  2  0
M  END
$$$$
