KFV.pdb
     RDKit          3D

 28 28  0  0  1  0  0  0  0  0999 V2000
   28.9141  -21.9321  -14.0297 N   0  0  0  0  0  0  0  0  0  0  0  0
   28.4586  -20.8045  -13.2761 C   0  0  1  0  0  0  0  0  0  0  0  0
   27.3245  -20.1353  -14.0184 C   0  0  0  0  0  0  0  0  0  0  0  0
   27.7788  -19.9720  -15.4693 C   0  0  0  0  0  0  0  0  0  0  0  0
   28.0080  -18.5127  -15.7984 C   0  0  0  0  0  0  0  0  0  0  0  0
   26.8875  -18.0662  -16.7056 C   0  0  0  0  0  0  0  0  0  0  0  0
   27.1519  -16.7493  -17.2239 N   0  0  0  0  0  0  0  0  0  0  0  0
   27.9898  -21.2247  -11.9161 C   0  0  0  0  0  0  0  0  0  0  0  0
   27.0983  -22.0761  -11.7462 O   0  0  0  0  0  0  0  0  0  0  0  0
   28.5721  -20.6413  -10.7608 N   0  0  0  0  0  0  0  0  0  0  0  0
   27.9331  -20.7229   -9.4564 C   0  0  1  0  0  0  0  0  0  0  0  0
   28.9244  -20.1691   -8.4629 C   0  0  0  0  0  0  0  0  0  0  0  0
   28.3980  -20.0727   -7.0901 C   0  0  0  0  0  0  0  0  0  0  0  0
   28.0257  -18.8684   -6.5304 C   0  0  0  0  0  0  0  0  0  0  0  0
   27.5266  -18.7962   -5.2270 C   0  0  0  0  0  0  0  0  0  0  0  0
   27.3940  -19.9387   -4.4645 C   0  0  0  0  0  0  0  0  0  0  0  0
   27.7658  -21.1575   -5.0178 C   0  0  0  0  0  0  0  0  0  0  0  0
   28.2530  -21.1944   -6.3022 C   0  0  0  0  0  0  0  0  0  0  0  0
   26.6280  -20.0553   -9.4304 C   0  0  0  0  0  0  0  0  0  0  0  0
   26.4911  -18.8095   -9.4879 O   0  0  0  0  0  0  0  0  0  0  0  0
   23.4889  -21.8600  -11.0892 C   0  0  0  0  0  0  0  0  0  0  0  0
   23.5790  -20.3912  -10.7371 C   0  0  2  0  0  0  0  0  0  0  0  0
   24.4099  -19.6209  -11.7240 C   0  0  0  0  0  0  0  0  0  0  0  0
   24.1140  -20.2139   -9.3093 C   0  0  2  0  0  0  0  0  0  0  0  0
   25.4401  -20.8277   -9.3361 N   0  0  0  0  0  0  0  0  0  0  0  0
   23.1987  -20.9739   -8.4229 C   0  0  0  0  0  0  0  0  0  0  0  0
   21.9128  -20.4929   -8.2448 O   0  0  0  0  0  0  0  0  0  0  0  0
   23.5538  -22.0124   -7.8480 O   0  0  0  0  0  0  0  0  0  0  0  0
  2  1  1  6
  2  3  1  0
  4  3  1  0
  5  4  1  0
  6  5  1  0
  7  6  1  0
  8  9  2  0
  8  2  1  0
 10  8  1  0
 11 10  1  0
 12 13  1  0
 11 12  1  1
 13 18  2  0
 14 13  1  0
 14 15  2  0
 15 16  1  0
 16 17  2  0
 18 17  1  0
 19 20  2  0
 19 11  1  0
 22 21  1  6
 22 23  1  0
 24 25  1  6
 24 22  1  0
 25 19  1  0
 26 24  1  0
 27 26  1  0
 28 26  2  0
M  END
$$$$
