KFV.pdb
     RDKit          3D

 28 28  0  0  1  0  0  0  0  0999 V2000
   28.4471  -22.8734  -16.9356 N   0  0  0  0  0  0  0  0  0  0  0  0
   28.1043  -21.6167  -16.3439 C   0  0  1  0  0  0  0  0  0  0  0  0
   27.0833  -20.9194  -17.2136 C   0  0  0  0  0  0  0  0  0  0  0  0
   27.7671  -20.6204  -18.5482 C   0  0  0  0  0  0  0  0  0  0  0  0
   28.4783  -19.2854  -18.4991 C   0  0  0  0  0  0  0  0  0  0  0  0
   28.9854  -18.9852  -19.8885 C   0  0  0  0  0  0  0  0  0  0  0  0
   29.7790  -17.7839  -19.8877 N   0  0  0  0  0  0  0  0  0  0  0  0
   27.5437  -21.8093  -14.9674 C   0  0  0  0  0  0  0  0  0  0  0  0
   26.6874  -22.6735  -14.7057 O   0  0  0  0  0  0  0  0  0  0  0  0
   27.9931  -20.9842  -13.9039 N   0  0  0  0  0  0  0  0  0  0  0  0
   27.3797  -21.0316  -12.5856 C   0  0  1  0  0  0  0  0  0  0  0  0
   28.3508  -20.3668  -11.6415 C   0  0  0  0  0  0  0  0  0  0  0  0
   27.8780  -20.3092  -10.2472 C   0  0  0  0  0  0  0  0  0  0  0  0
   27.1135  -19.2630   -9.7748 C   0  0  0  0  0  0  0  0  0  0  0  0
   26.6722  -19.2259   -8.4493 C   0  0  0  0  0  0  0  0  0  0  0  0
   26.9946  -20.2446   -7.5761 C   0  0  0  0  0  0  0  0  0  0  0  0
   27.7641  -21.3037   -8.0406 C   0  0  0  0  0  0  0  0  0  0  0  0
   28.1822  -21.3102   -9.3497 C   0  0  0  0  0  0  0  0  0  0  0  0
   26.0375  -20.4417  -12.5718 C   0  0  0  0  0  0  0  0  0  0  0  0
   25.7796  -19.3076  -13.0425 O   0  0  0  0  0  0  0  0  0  0  0  0
   21.4663  -20.8765  -13.3034 C   0  0  0  0  0  0  0  0  0  0  0  0
   22.9115  -21.3124  -13.1990 C   0  0  2  0  0  0  0  0  0  0  0  0
   23.0497  -22.8069  -13.1272 C   0  0  0  0  0  0  0  0  0  0  0  0
   23.5896  -20.6380  -11.9983 C   0  0  2  0  0  0  0  0  0  0  0  0
   24.9535  -21.1631  -12.0052 N   0  0  0  0  0  0  0  0  0  0  0  0
   22.8548  -21.0944  -10.7930 C   0  0  0  0  0  0  0  0  0  0  0  0
   23.4780  -22.0007   -9.9521 O   0  0  0  0  0  0  0  0  0  0  0  0
   21.7147  -20.6892  -10.5266 O   0  0  0  0  0  0  0  0  0  0  0  0
  2  1  1  6
  2  3  1  0
  4  3  1  0
  5  4  1  0
  6  5  1  0
  7  6  1  0
  8  9  2  0
  8  2  1  0
 10  8  1  0
 11 10  1  0
 12 13  1  0
 11 12  1  1
 13 18  2  0
 14 13  1  0
 14 15  2  0
 15 16  1  0
 16 17  2  0
 18 17  1  0
 19 20  2  0
 19 11  1  0
 22 21  1  1
 22 23  1  0
 24 25  1  1
 24 22  1  0
 25 19  1  0
 26 24  1  0
 27 26  1  0
 28 26  2  0
M  END
$$$$
