KFV.pdb
     RDKit          3D

 28 28  0  0  1  0  0  0  0  0999 V2000
   26.9303  -22.5637  -16.7265 N   0  0  0  0  0  0  0  0  0  0  0  0
   26.6288  -21.3450  -16.0404 C   0  0  1  0  0  0  0  0  0  0  0  0
   25.6585  -20.5345  -16.8690 C   0  0  0  0  0  0  0  0  0  0  0  0
   26.4572  -19.9332  -18.0260 C   0  0  0  0  0  0  0  0  0  0  0  0
   26.3432  -18.4241  -18.0292 C   0  0  0  0  0  0  0  0  0  0  0  0
   27.0563  -17.9133  -19.2573 C   0  0  0  0  0  0  0  0  0  0  0  0
   26.8888  -16.4888  -19.3825 N   0  0  0  0  0  0  0  0  0  0  0  0
   26.0298  -21.6232  -14.6951 C   0  0  0  0  0  0  0  0  0  0  0  0
   25.1805  -22.5134  -14.5090 O   0  0  0  0  0  0  0  0  0  0  0  0
   26.4328  -20.8526  -13.5736 N   0  0  0  0  0  0  0  0  0  0  0  0
   25.7665  -20.9679  -12.2855 C   0  0  1  0  0  0  0  0  0  0  0  0
   26.7232  -20.4090  -11.2613 C   0  0  0  0  0  0  0  0  0  0  0  0
   26.1575  -20.3271   -9.9033 C   0  0  0  0  0  0  0  0  0  0  0  0
   26.7009  -19.5146   -8.9304 C   0  0  0  0  0  0  0  0  0  0  0  0
   26.1498  -19.4482   -7.6478 C   0  0  0  0  0  0  0  0  0  0  0  0
   25.0397  -20.2010   -7.3237 C   0  0  0  0  0  0  0  0  0  0  0  0
   24.4836  -21.0232   -8.2956 C   0  0  0  0  0  0  0  0  0  0  0  0
   25.0495  -21.0657   -9.5472 C   0  0  0  0  0  0  0  0  0  0  0  0
   24.4472  -20.3285  -12.2791 C   0  0  0  0  0  0  0  0  0  0  0  0
   24.2833  -19.0881  -12.3730 O   0  0  0  0  0  0  0  0  0  0  0  0
   21.1211  -22.4394  -13.4776 C   0  0  0  0  0  0  0  0  0  0  0  0
   21.2584  -20.9350  -13.3911 C   0  0  2  0  0  0  0  0  0  0  0  0
   21.9865  -20.3626  -14.5743 C   0  0  0  0  0  0  0  0  0  0  0  0
   21.9419  -20.5337  -12.0765 C   0  0  2  0  0  0  0  0  0  0  0  0
   23.2763  -21.1235  -12.1624 N   0  0  0  0  0  0  0  0  0  0  0  0
   21.1557  -21.1640  -10.9876 C   0  0  0  0  0  0  0  0  0  0  0  0
   19.9659  -20.5652  -10.6099 O   0  0  0  0  0  0  0  0  0  0  0  0
   21.5341  -22.1971  -10.4181 O   0  0  0  0  0  0  0  0  0  0  0  0
  2  1  1  6
  2  3  1  0
  4  3  1  0
  5  4  1  0
  6  5  1  0
  7  6  1  0
  8  9  2  0
  8  2  1  0
 10  8  1  0
 11 10  1  0
 12 13  1  0
 11 12  1  1
 13 18  2  0
 14 13  1  0
 14 15  2  0
 15 16  1  0
 16 17  2  0
 18 17  1  0
 19 20  2  0
 19 11  1  0
 22 21  1  6
 22 23  1  0
 24 25  1  6
 24 22  1  0
 25 19  1  0
 26 24  1  0
 27 26  1  0
 28 26  2  0
M  END
$$$$
