KFV.pdb
     RDKit          3D

 28 28  0  0  1  0  0  0  0  0999 V2000
   30.6256  -21.8657  -11.0836 N   0  0  0  0  0  0  0  0  0  0  0  0
   29.6232  -20.8773  -11.3386 C   0  0  1  0  0  0  0  0  0  0  0  0
   29.2596  -20.9045  -12.8057 C   0  0  0  0  0  0  0  0  0  0  0  0
   29.9422  -19.6998  -13.4546 C   0  0  0  0  0  0  0  0  0  0  0  0
   28.9155  -18.7067  -13.9546 C   0  0  0  0  0  0  0  0  0  0  0  0
   28.8125  -18.8688  -15.4516 C   0  0  0  0  0  0  0  0  0  0  0  0
   27.8141  -17.9808  -15.9880 N   0  0  0  0  0  0  0  0  0  0  0  0
   28.3987  -21.1325  -10.5131 C   0  0  0  0  0  0  0  0  0  0  0  0
   27.9015  -22.2656  -10.3815 O   0  0  0  0  0  0  0  0  0  0  0  0
   27.7640  -20.0531   -9.8452 N   0  0  0  0  0  0  0  0  0  0  0  0
   26.4010  -20.1556   -9.3470 C   0  0  1  0  0  0  0  0  0  0  0  0
   26.3091  -19.2199   -8.1670 C   0  0  0  0  0  0  0  0  0  0  0  0
   27.1151  -19.6441   -7.0089 C   0  0  0  0  0  0  0  0  0  0  0  0
   26.7909  -20.7539   -6.2569 C   0  0  0  0  0  0  0  0  0  0  0  0
   27.5682  -21.1426   -5.1625 C   0  0  0  0  0  0  0  0  0  0  0  0
   28.6875  -20.4180   -4.8070 C   0  0  0  0  0  0  0  0  0  0  0  0
   29.0240  -19.2982   -5.5571 C   0  0  0  0  0  0  0  0  0  0  0  0
   28.2387  -18.9428   -6.6274 C   0  0  0  0  0  0  0  0  0  0  0  0
   25.4035  -19.8982  -10.3900 C   0  0  0  0  0  0  0  0  0  0  0  0
   25.3676  -18.8388  -11.0614 O   0  0  0  0  0  0  0  0  0  0  0  0
   23.3070  -23.1843  -11.8621 C   0  0  0  0  0  0  0  0  0  0  0  0
   23.5820  -21.9159  -12.6399 C   0  0  2  0  0  0  0  0  0  0  0  0
   24.9356  -21.9323  -13.2920 C   0  0  0  0  0  0  0  0  0  0  0  0
   23.4211  -20.6864  -11.7350 C   0  0  2  0  0  0  0  0  0  0  0  0
   24.4148  -20.8754  -10.6801 N   0  0  0  0  0  0  0  0  0  0  0  0
   22.0459  -20.7518  -11.1821 C   0  0  0  0  0  0  0  0  0  0  0  0
   20.9921  -20.4020  -12.0090 O   0  0  0  0  0  0  0  0  0  0  0  0
   21.8234  -21.1065  -10.0161 O   0  0  0  0  0  0  0  0  0  0  0  0
  2  1  1  6
  2  3  1  0
  4  3  1  0
  5  4  1  0
  6  5  1  0
  7  6  1  0
  8  9  2  0
  8  2  1  0
 10  8  1  0
 11 10  1  0
 12 13  1  0
 11 12  1  1
 13 18  2  0
 14 13  1  0
 14 15  2  0
 15 16  1  0
 16 17  2  0
 18 17  1  0
 19 20  2  0
 19 11  1  0
 22 21  1  1
 22 23  1  0
 24 25  1  1
 24 22  1  0
 25 19  1  0
 26 24  1  0
 27 26  1  0
 28 26  2  0
M  END
$$$$
