KFV.pdb
     RDKit          3D

 28 28  0  0  1  0  0  0  0  0999 V2000
   27.2326  -21.8702  -13.6049 N   0  0  0  0  0  0  0  0  0  0  0  0
   27.1409  -20.6924  -12.7981 C   0  0  1  0  0  0  0  0  0  0  0  0
   25.9764  -19.8535  -13.2729 C   0  0  0  0  0  0  0  0  0  0  0  0
   25.7289  -20.2250  -14.7354 C   0  0  0  0  0  0  0  0  0  0  0  0
   24.5906  -19.4101  -15.3104 C   0  0  0  0  0  0  0  0  0  0  0  0
   24.8669  -19.2107  -16.7806 C   0  0  0  0  0  0  0  0  0  0  0  0
   23.8232  -18.4274  -17.3888 N   0  0  0  0  0  0  0  0  0  0  0  0
   26.9488  -21.0469  -11.3547 C   0  0  0  0  0  0  0  0  0  0  0  0
   26.2209  -21.9860  -10.9848 O   0  0  0  0  0  0  0  0  0  0  0  0
   27.6143  -20.2949  -10.3519 N   0  0  0  0  0  0  0  0  0  0  0  0
   27.3501  -20.5028   -8.9364 C   0  0  1  0  0  0  0  0  0  0  0  0
   28.4109  -19.7330   -8.1892 C   0  0  0  0  0  0  0  0  0  0  0  0
   28.2395  -19.7540   -6.7260 C   0  0  0  0  0  0  0  0  0  0  0  0
   28.5791  -20.8520   -5.9635 C   0  0  0  0  0  0  0  0  0  0  0  0
   28.4113  -20.8534   -4.5762 C   0  0  0  0  0  0  0  0  0  0  0  0
   27.8973  -19.7462   -3.9327 C   0  0  0  0  0  0  0  0  0  0  0  0
   27.5516  -18.6343   -4.6902 C   0  0  0  0  0  0  0  0  0  0  0  0
   27.7291  -18.6649   -6.0526 C   0  0  0  0  0  0  0  0  0  0  0  0
   25.9788  -20.1410   -8.5645 C   0  0  0  0  0  0  0  0  0  0  0  0
   25.5039  -18.9905   -8.7225 O   0  0  0  0  0  0  0  0  0  0  0  0
   23.0226  -20.6304   -9.9314 C   0  0  0  0  0  0  0  0  0  0  0  0
   22.8513  -21.3827   -8.6298 C   0  0  2  0  0  0  0  0  0  0  0  0
   21.4203  -21.4069   -8.1724 C   0  0  0  0  0  0  0  0  0  0  0  0
   23.7663  -20.7949   -7.5464 C   0  0  2  0  0  0  0  0  0  0  0  0
   25.1193  -21.1174   -7.9949 N   0  0  0  0  0  0  0  0  0  0  0  0
   23.4415  -21.5143   -6.2901 C   0  0  0  0  0  0  0  0  0  0  0  0
   22.2439  -21.2213   -5.6604 O   0  0  0  0  0  0  0  0  0  0  0  0
   24.2056  -22.3576   -5.8003 O   0  0  0  0  0  0  0  0  0  0  0  0
  2  1  1  6
  2  3  1  0
  4  3  1  0
  5  4  1  0
  6  5  1  0
  7  6  1  0
  8  9  2  0
  8  2  1  0
 10  8  1  0
 11 10  1  0
 12 13  1  0
 11 12  1  1
 13 18  2  0
 14 13  1  0
 14 15  2  0
 15 16  1  0
 16 17  2  0
 18 17  1  0
 19 20  2  0
 19 11  1  0
 22 21  1  6
 22 23  1  0
 24 25  1  6
 24 22  1  0
 25 19  1  0
 26 24  1  0
 27 26  1  0
 28 26  2  0
M  END
$$$$
