KFV.pdb
     RDKit          3D

 28 28  0  0  1  0  0  0  0  0999 V2000
   27.4219  -23.3303  -17.4985 N   0  0  0  0  0  0  0  0  0  0  0  0
   27.1114  -22.0196  -17.0165 C   0  0  1  0  0  0  0  0  0  0  0  0
   26.2383  -21.3117  -18.0273 C   0  0  0  0  0  0  0  0  0  0  0  0
   26.9861  -20.0473  -18.4517 C   0  0  0  0  0  0  0  0  0  0  0  0
   28.3690  -20.3884  -18.9632 C   0  0  0  0  0  0  0  0  0  0  0  0
   29.0248  -19.1024  -19.4035 C   0  0  0  0  0  0  0  0  0  0  0  0
   30.3417  -19.3600  -19.9253 N   0  0  0  0  0  0  0  0  0  0  0  0
   26.3996  -22.0892  -15.6995 C   0  0  0  0  0  0  0  0  0  0  0  0
   25.4019  -22.8091  -15.5124 O   0  0  0  0  0  0  0  0  0  0  0  0
   26.8647  -21.3113  -14.6074 N   0  0  0  0  0  0  0  0  0  0  0  0
   26.1216  -21.2207  -13.3600 C   0  0  1  0  0  0  0  0  0  0  0  0
   27.0928  -20.7118  -12.3236 C   0  0  0  0  0  0  0  0  0  0  0  0
   26.5027  -20.5577  -10.9823 C   0  0  0  0  0  0  0  0  0  0  0  0
   26.2775  -21.6358  -10.1521 C   0  0  0  0  0  0  0  0  0  0  0  0
   25.7183  -21.4706   -8.8820 C   0  0  0  0  0  0  0  0  0  0  0  0
   25.3762  -20.2138   -8.4265 C   0  0  0  0  0  0  0  0  0  0  0  0
   25.5984  -19.1203   -9.2540 C   0  0  0  0  0  0  0  0  0  0  0  0
   26.1499  -19.3167  -10.4973 C   0  0  0  0  0  0  0  0  0  0  0  0
   24.9087  -20.4073  -13.4895 C   0  0  0  0  0  0  0  0  0  0  0  0
   24.9254  -19.1914  -13.7988 O   0  0  0  0  0  0  0  0  0  0  0  0
   21.2515  -22.1816  -14.1837 C   0  0  0  0  0  0  0  0  0  0  0  0
   21.5557  -20.7100  -14.3605 C   0  0  2  0  0  0  0  0  0  0  0  0
   22.2113  -20.4207  -15.6812 C   0  0  0  0  0  0  0  0  0  0  0  0
   22.4129  -20.1959  -13.1955 C   0  0  2  0  0  0  0  0  0  0  0  0
   23.6358  -20.9937  -13.2604 N   0  0  0  0  0  0  0  0  0  0  0  0
   21.6543  -20.4934  -11.9557 C   0  0  0  0  0  0  0  0  0  0  0  0
   22.0333  -21.5940  -11.2061 O   0  0  0  0  0  0  0  0  0  0  0  0
   20.7048  -19.7905  -11.5825 O   0  0  0  0  0  0  0  0  0  0  0  0
  2  1  1  6
  2  3  1  0
  4  3  1  0
  5  4  1  0
  6  5  1  0
  7  6  1  0
  8  9  2  0
  8  2  1  0
 10  8  1  0
 11 10  1  0
 12 13  1  0
 11 12  1  1
 13 18  2  0
 14 13  1  0
 14 15  2  0
 15 16  1  0
 16 17  2  0
 18 17  1  0
 19 20  2  0
 19 11  1  0
 22 21  1  1
 22 23  1  0
 24 25  1  1
 24 22  1  0
 25 19  1  0
 26 24  1  0
 27 26  1  0
 28 26  2  0
M  END
$$$$
