KFV.pdb
     RDKit          3D

 28 28  0  0  1  0  0  0  0  0999 V2000
   28.5225  -21.7325  -13.9105 N   0  0  0  0  0  0  0  0  0  0  0  0
   28.1750  -20.6349  -13.0612 C   0  0  1  0  0  0  0  0  0  0  0  0
   26.9643  -19.9302  -13.6292 C   0  0  0  0  0  0  0  0  0  0  0  0
   26.9696  -20.1842  -15.1371 C   0  0  0  0  0  0  0  0  0  0  0  0
   27.6087  -19.0267  -15.8736 C   0  0  0  0  0  0  0  0  0  0  0  0
   26.5185  -18.0375  -16.2063 C   0  0  0  0  0  0  0  0  0  0  0  0
   25.6884  -18.5398  -17.2701 N   0  0  0  0  0  0  0  0  0  0  0  0
   27.8742  -21.1087  -11.6716 C   0  0  0  0  0  0  0  0  0  0  0  0
   27.1487  -22.0928  -11.4398 O   0  0  0  0  0  0  0  0  0  0  0  0
   28.4287  -20.4227  -10.5599 N   0  0  0  0  0  0  0  0  0  0  0  0
   27.8959  -20.5853   -9.2159 C   0  0  1  0  0  0  0  0  0  0  0  0
   28.9187  -19.9912   -8.2793 C   0  0  0  0  0  0  0  0  0  0  0  0
   28.4691  -19.9192   -6.8780 C   0  0  0  0  0  0  0  0  0  0  0  0
   28.4438  -21.0279   -6.0581 C   0  0  0  0  0  0  0  0  0  0  0  0
   28.0158  -20.9404   -4.7306 C   0  0  0  0  0  0  0  0  0  0  0  0
   27.6053  -19.7318   -4.2062 C   0  0  0  0  0  0  0  0  0  0  0  0
   27.6264  -18.6081   -5.0227 C   0  0  0  0  0  0  0  0  0  0  0  0
   28.0529  -18.7278   -6.3236 C   0  0  0  0  0  0  0  0  0  0  0  0
   26.5541  -20.0122   -9.0731 C   0  0  0  0  0  0  0  0  0  0  0  0
   26.3165  -18.7841   -9.1707 O   0  0  0  0  0  0  0  0  0  0  0  0
   23.4940  -21.8392  -10.5559 C   0  0  0  0  0  0  0  0  0  0  0  0
   23.4714  -20.4157  -10.0434 C   0  0  2  0  0  0  0  0  0  0  0  0
   24.1511  -19.4625  -10.9853 C   0  0  0  0  0  0  0  0  0  0  0  0
   24.0913  -20.3407   -8.6411 C   0  0  2  0  0  0  0  0  0  0  0  0
   25.4463  -20.8612   -8.8112 N   0  0  0  0  0  0  0  0  0  0  0  0
   23.2851  -21.2399   -7.7794 C   0  0  0  0  0  0  0  0  0  0  0  0
   21.9962  -20.8518   -7.4555 O   0  0  0  0  0  0  0  0  0  0  0  0
   23.7323  -22.3127   -7.3504 O   0  0  0  0  0  0  0  0  0  0  0  0
  2  1  1  6
  2  3  1  0
  4  3  1  0
  5  4  1  0
  6  5  1  0
  7  6  1  0
  8  9  2  0
  8  2  1  0
 10  8  1  0
 11 10  1  0
 12 13  1  0
 11 12  1  1
 13 18  2  0
 14 13  1  0
 14 15  2  0
 15 16  1  0
 16 17  2  0
 18 17  1  0
 19 20  2  0
 19 11  1  0
 22 21  1  6
 22 23  1  0
 24 25  1  6
 24 22  1  0
 25 19  1  0
 26 24  1  0
 27 26  1  0
 28 26  2  0
M  END
$$$$
