KFV.pdb
     RDKit          3D

 28 28  0  0  1  0  0  0  0  0999 V2000
   23.7463  -20.3741  -10.7788 N   0  0  0  0  0  0  0  0  0  0  0  0
   24.9970  -20.6809  -11.4021 C   0  0  1  0  0  0  0  0  0  0  0  0
   25.0909  -19.9436  -12.7185 C   0  0  0  0  0  0  0  0  0  0  0  0
   24.1028  -20.6135  -13.6740 C   0  0  0  0  0  0  0  0  0  0  0  0
   24.6359  -21.9485  -14.1475 C   0  0  0  0  0  0  0  0  0  0  0  0
   23.7342  -22.4349  -15.2556 C   0  0  0  0  0  0  0  0  0  0  0  0
   22.6129  -23.1573  -14.7137 N   0  0  0  0  0  0  0  0  0  0  0  0
   26.1438  -20.2854  -10.5222 C   0  0  0  0  0  0  0  0  0  0  0  0
   27.2936  -20.0991  -10.9603 O   0  0  0  0  0  0  0  0  0  0  0  0
   25.9333  -20.1106   -9.1297 N   0  0  0  0  0  0  0  0  0  0  0  0
   27.0367  -19.8719   -8.2120 C   0  0  1  0  0  0  0  0  0  0  0  0
   26.4155  -19.4750   -6.8956 C   0  0  0  0  0  0  0  0  0  0  0  0
   27.3996  -19.1981   -5.8346 C   0  0  0  0  0  0  0  0  0  0  0  0
   28.0590  -17.9901   -5.7432 C   0  0  0  0  0  0  0  0  0  0  0  0
   28.9882  -17.7444   -4.7287 C   0  0  0  0  0  0  0  0  0  0  0  0
   29.2690  -18.7137   -3.7875 C   0  0  0  0  0  0  0  0  0  0  0  0
   28.6110  -19.9344   -3.8695 C   0  0  0  0  0  0  0  0  0  0  0  0
   27.7028  -20.1444   -4.8793 C   0  0  0  0  0  0  0  0  0  0  0  0
   27.9454  -21.0188   -8.1198 C   0  0  0  0  0  0  0  0  0  0  0  0
   27.5545  -22.1902   -7.8980 O   0  0  0  0  0  0  0  0  0  0  0  0
   30.8978  -21.7195  -10.5704 C   0  0  0  0  0  0  0  0  0  0  0  0
   31.4110  -21.5962   -9.1523 C   0  0  2  0  0  0  0  0  0  0  0  0
   32.6249  -22.4484   -8.9120 C   0  0  0  0  0  0  0  0  0  0  0  0
   30.2977  -21.9273   -8.1485 C   0  0  2  0  0  0  0  0  0  0  0  0
   29.3430  -20.8291   -8.2849 N   0  0  0  0  0  0  0  0  0  0  0  0
   30.9286  -21.9140   -6.8058 C   0  0  0  0  0  0  0  0  0  0  0  0
   30.7391  -20.8000   -6.0059 O   0  0  0  0  0  0  0  0  0  0  0  0
   31.6101  -22.8620   -6.3914 O   0  0  0  0  0  0  0  0  0  0  0  0
  2  1  1  1
  2  3  1  0
  4  3  1  0
  5  4  1  0
  6  5  1  0
  7  6  1  0
  8  9  2  0
  8  2  1  0
 10  8  1  0
 11 10  1  0
 12 13  1  0
 11 12  1  1
 13 18  2  0
 14 13  1  0
 14 15  2  0
 15 16  1  0
 16 17  2  0
 18 17  1  0
 19 20  2  0
 19 11  1  0
 22 21  1  6
 22 23  1  0
 24 25  1  1
 24 22  1  0
 25 19  1  0
 26 24  1  0
 27 26  1  0
 28 26  2  0
M  END
$$$$
