HFC.pdb
     RDKit          3D

 28 29  0  0  1  0  0  0  0  0999 V2000
   18.7283   -9.7616  -17.0282 N   0  0  0  0  0  0  0  0  0  0  0  0
   18.1541   -8.5890  -16.4013 C   0  0  1  0  0  0  0  0  0  0  0  0
   16.6624   -8.5530  -16.7360 C   0  0  0  0  0  0  0  0  0  0  0  0
   16.5638   -8.0076  -18.1164 C   0  0  0  0  0  0  0  0  0  0  0  0
   17.1336   -6.8680  -18.6048 C   0  0  0  0  0  0  0  0  0  0  0  0
   16.7966   -6.7294  -19.9188 N   0  0  0  0  0  0  0  0  0  0  0  0
   16.0279   -7.7767  -20.2265 C   0  0  0  0  0  0  0  0  0  0  0  0
   15.8793   -8.5652  -19.1299 N   0  0  0  0  0  0  0  0  0  0  0  0
   18.3707   -8.6121  -14.9242 C   0  0  0  0  0  0  0  0  0  0  0  0
   18.0804   -9.5921  -14.2130 O   0  0  0  0  0  0  0  0  0  0  0  0
   18.9263   -7.4774  -14.3126 N   0  0  0  0  0  0  0  0  0  0  0  0
   19.1739   -7.3513  -12.8981 C   0  0  1  0  0  0  0  0  0  0  0  0
   20.6431   -6.9261  -12.7605 C   0  0  0  0  0  0  0  0  0  0  0  0
   21.5571   -8.0159  -13.0834 C   0  0  0  0  0  0  0  0  0  0  0  0
   21.7512   -9.0596  -12.2092 C   0  0  0  0  0  0  0  0  0  0  0  0
   22.6160  -10.0618  -12.5486 C   0  0  0  0  0  0  0  0  0  0  0  0
   23.2917  -10.0386  -13.7495 C   0  0  0  0  0  0  0  0  0  0  0  0
   23.1126   -9.0033  -14.6400 C   0  0  0  0  0  0  0  0  0  0  0  0
   22.2356   -8.0015  -14.2790 C   0  0  0  0  0  0  0  0  0  0  0  0
   18.2882   -6.3214  -12.2763 C   0  0  0  0  0  0  0  0  0  0  0  0
   18.3781   -5.0985  -12.6180 O   0  0  0  0  0  0  0  0  0  0  0  0
   17.3242   -6.6363  -11.2981 N   0  0  0  0  0  0  0  0  0  0  0  0
   16.4692   -5.6789  -10.6522 C   0  0  1  0  0  0  0  0  0  0  0  0
   15.0091   -6.0556  -10.7243 C   0  0  0  0  0  0  0  0  0  0  0  0
   14.6064   -6.3624  -12.4674 S   0  0  0  0  0  0  0  0  0  0  0  0
   16.8811   -5.3738   -9.2690 C   0  0  0  0  0  0  0  0  0  0  0  0
   16.3062   -4.4316   -8.6771 O   0  0  0  0  0  0  0  0  0  0  0  0
   17.8643   -6.0672   -8.5886 O   0  0  0  0  0  0  0  0  0  0  0  0
  2  1  1  6
  2  9  1  0
  3  2  1  0
  4  3  1  0
  5  4  2  0
  6  5  1  0
  7  6  1  0
  7  8  2  0
  8  4  1  0
  9 11  1  0
  9 10  2  0
 11 12  1  0
 12 13  1  6
 13 14  1  0
 14 19  2  0
 15 16  2  0
 15 14  1  0
 16 17  1  0
 17 18  2  0
 19 18  1  0
 20 12  1  0
 20 21  2  0
 22 20  1  0
 23 22  1  0
 23 24  1  1
 24 25  1  0
 26 23  1  0
 27 26  2  0
 28 26  1  0
M  END
$$$$
