HFC.pdb
     RDKit          3D

 28 29  0  0  1  0  0  0  0  0999 V2000
   28.0844  -22.2104  -17.2231 N   0  0  0  0  0  0  0  0  0  0  0  0
   26.8056  -21.5313  -17.1896 C   0  0  1  0  0  0  0  0  0  0  0  0
   26.0413  -21.8933  -18.4637 C   0  0  0  0  0  0  0  0  0  0  0  0
   26.7831  -21.2545  -19.5837 C   0  0  0  0  0  0  0  0  0  0  0  0
   26.9711  -19.9213  -19.8055 C   0  0  0  0  0  0  0  0  0  0  0  0
   27.7072  -19.7583  -20.9417 N   0  0  0  0  0  0  0  0  0  0  0  0
   27.9644  -20.9830  -21.4068 C   0  0  0  0  0  0  0  0  0  0  0  0
   27.4031  -21.9060  -20.5826 N   0  0  0  0  0  0  0  0  0  0  0  0
   26.0289  -21.9132  -15.9730 C   0  0  0  0  0  0  0  0  0  0  0  0
   25.2889  -22.9136  -15.9291 O   0  0  0  0  0  0  0  0  0  0  0  0
   26.1398  -21.1071  -14.8293 N   0  0  0  0  0  0  0  0  0  0  0  0
   25.3914  -21.3075  -13.6136 C   0  0  1  0  0  0  0  0  0  0  0  0
   26.0159  -20.3689  -12.5709 C   0  0  0  0  0  0  0  0  0  0  0  0
   25.3931  -20.5206  -11.2607 C   0  0  0  0  0  0  0  0  0  0  0  0
   24.2937  -19.7733  -10.9087 C   0  0  0  0  0  0  0  0  0  0  0  0
   23.7390  -19.9448   -9.6716 C   0  0  0  0  0  0  0  0  0  0  0  0
   24.2657  -20.8525   -8.7783 C   0  0  0  0  0  0  0  0  0  0  0  0
   25.3663  -21.6114   -9.1097 C   0  0  0  0  0  0  0  0  0  0  0  0
   25.9115  -21.4235  -10.3629 C   0  0  0  0  0  0  0  0  0  0  0  0
   23.9473  -20.9715  -13.7972 C   0  0  0  0  0  0  0  0  0  0  0  0
   23.5979  -19.8177  -14.2055 O   0  0  0  0  0  0  0  0  0  0  0  0
   22.9122  -21.8909  -13.5351 N   0  0  0  0  0  0  0  0  0  0  0  0
   21.5115  -21.5703  -13.5379 C   0  0  1  0  0  0  0  0  0  0  0  0
   20.6305  -22.7961  -13.5381 C   0  0  0  0  0  0  0  0  0  0  0  0
   18.9058  -22.2331  -13.4801 S   0  0  0  0  0  0  0  0  0  0  0  0
   21.1296  -20.6302  -12.4671 C   0  0  0  0  0  0  0  0  0  0  0  0
   21.4754  -20.9010  -11.2942 O   0  0  0  0  0  0  0  0  0  0  0  0
   20.4128  -19.4685  -12.6832 O   0  0  0  0  0  0  0  0  0  0  0  0
  2  1  1  6
  2  9  1  0
  3  2  1  0
  4  3  1  0
  5  4  2  0
  6  5  1  0
  7  6  1  0
  7  8  2  0
  8  4  1  0
  9 11  1  0
  9 10  2  0
 11 12  1  0
 12 13  1  1
 13 14  1  0
 14 19  2  0
 15 16  2  0
 15 14  1  0
 16 17  1  0
 17 18  2  0
 19 18  1  0
 20 12  1  0
 20 21  2  0
 22 20  1  0
 23 22  1  0
 23 24  1  1
 24 25  1  0
 26 23  1  0
 27 26  2  0
 28 26  1  0
M  END
$$$$
