HFC.pdb
     RDKit          3D

 28 29  0  0  1  0  0  0  0  0999 V2000
   28.9736  -19.5859  -19.1384 N   0  0  0  0  0  0  0  0  0  0  0  0
   27.7869  -19.0860  -18.4754 C   0  0  1  0  0  0  0  0  0  0  0  0
   26.6643  -19.0003  -19.5103 C   0  0  0  0  0  0  0  0  0  0  0  0
   27.0148  -17.8639  -20.4038 C   0  0  0  0  0  0  0  0  0  0  0  0
   26.7325  -16.5416  -20.2201 C   0  0  0  0  0  0  0  0  0  0  0  0
   27.2295  -15.8298  -21.2717 N   0  0  0  0  0  0  0  0  0  0  0  0
   27.8092  -16.7128  -22.0881 C   0  0  0  0  0  0  0  0  0  0  0  0
   27.6833  -17.9609  -21.5658 N   0  0  0  0  0  0  0  0  0  0  0  0
   27.3983  -19.9697  -17.3363 C   0  0  0  0  0  0  0  0  0  0  0  0
   27.5775  -21.2019  -17.3443 O   0  0  0  0  0  0  0  0  0  0  0  0
   26.8048  -19.3829  -16.2078 N   0  0  0  0  0  0  0  0  0  0  0  0
   26.4403  -20.0998  -15.0115 C   0  0  1  0  0  0  0  0  0  0  0  0
   26.7832  -19.1703  -13.8382 C   0  0  0  0  0  0  0  0  0  0  0  0
   26.4547  -19.7744  -12.5519 C   0  0  0  0  0  0  0  0  0  0  0  0
   27.1894  -20.8254  -12.0552 C   0  0  0  0  0  0  0  0  0  0  0  0
   26.8497  -21.3639  -10.8460 C   0  0  0  0  0  0  0  0  0  0  0  0
   25.7859  -20.8688  -10.1232 C   0  0  0  0  0  0  0  0  0  0  0  0
   25.0364  -19.8168  -10.6015 C   0  0  0  0  0  0  0  0  0  0  0  0
   25.3953  -19.2872  -11.8237 C   0  0  0  0  0  0  0  0  0  0  0  0
   24.9823  -20.4254  -14.9904 C   0  0  0  0  0  0  0  0  0  0  0  0
   24.1118  -19.5072  -15.1293 O   0  0  0  0  0  0  0  0  0  0  0  0
   24.4973  -21.7373  -14.8195 N   0  0  0  0  0  0  0  0  0  0  0  0
   23.1661  -22.0695  -14.3927 C   0  0  1  0  0  0  0  0  0  0  0  0
   23.1179  -23.3160  -13.5425 C   0  0  0  0  0  0  0  0  0  0  0  0
   21.7472  -24.3408  -14.1472 S   0  0  0  0  0  0  0  0  0  0  0  0
   22.4678  -20.9445  -13.7427 C   0  0  0  0  0  0  0  0  0  0  0  0
   21.2560  -20.7709  -14.0075 O   0  0  0  0  0  0  0  0  0  0  0  0
   23.0730  -20.0712  -12.8586 O   0  0  0  0  0  0  0  0  0  0  0  0
  2  1  1  6
  2  9  1  0
  3  2  1  0
  4  3  1  0
  5  4  2  0
  6  5  1  0
  7  6  1  0
  7  8  2  0
  8  4  1  0
  9 11  1  0
  9 10  2  0
 11 12  1  0
 12 13  1  1
 13 14  1  0
 14 19  2  0
 15 16  2  0
 15 14  1  0
 16 17  1  0
 17 18  2  0
 19 18  1  0
 20 12  1  0
 20 21  2  0
 22 20  1  0
 23 22  1  0
 23 24  1  1
 24 25  1  0
 26 23  1  0
 27 26  2  0
 28 26  1  0
M  END
$$$$
