HFC.pdb
     RDKit          3D

 28 29  0  0  1  0  0  0  0  0999 V2000
   18.4288  -11.4504  -20.0487 N   0  0  0  0  0  0  0  0  0  0  0  0
   19.8719  -11.5689  -20.0121 C   0  0  1  0  0  0  0  0  0  0  0  0
   20.3775  -11.6697  -21.4518 C   0  0  0  0  0  0  0  0  0  0  0  0
   19.8828  -12.9729  -21.9710 C   0  0  0  0  0  0  0  0  0  0  0  0
   18.9846  -13.1824  -22.9766 C   0  0  0  0  0  0  0  0  0  0  0  0
   18.8044  -14.5241  -23.1404 N   0  0  0  0  0  0  0  0  0  0  0  0
   19.5871  -15.1252  -22.2413 C   0  0  0  0  0  0  0  0  0  0  0  0
   20.2514  -14.1843  -21.5204 N   0  0  0  0  0  0  0  0  0  0  0  0
   20.4865  -10.4036  -19.3094 C   0  0  0  0  0  0  0  0  0  0  0  0
   21.7155  -10.2074  -19.2722 O   0  0  0  0  0  0  0  0  0  0  0  0
   19.6389   -9.4904  -18.6630 N   0  0  0  0  0  0  0  0  0  0  0  0
   20.0904   -8.3234  -17.9474 C   0  0  1  0  0  0  0  0  0  0  0  0
   19.0658   -7.2192  -18.2464 C   0  0  0  0  0  0  0  0  0  0  0  0
   19.3204   -6.5742  -19.5296 C   0  0  0  0  0  0  0  0  0  0  0  0
   20.3523   -5.6775  -19.6788 C   0  0  0  0  0  0  0  0  0  0  0  0
   20.5581   -5.0945  -20.8975 C   0  0  0  0  0  0  0  0  0  0  0  0
   19.7485   -5.3932  -21.9720 C   0  0  0  0  0  0  0  0  0  0  0  0
   18.7093   -6.2883  -21.8452 C   0  0  0  0  0  0  0  0  0  0  0  0
   18.5181   -6.8659  -20.6072 C   0  0  0  0  0  0  0  0  0  0  0  0
   20.1517   -8.5724  -16.4756 C   0  0  0  0  0  0  0  0  0  0  0  0
   19.1248   -8.9822  -15.8450 O   0  0  0  0  0  0  0  0  0  0  0  0
   21.3225   -8.3728  -15.7175 N   0  0  0  0  0  0  0  0  0  0  0  0
   21.4442   -8.6431  -14.3115 C   0  0  1  0  0  0  0  0  0  0  0  0
   22.6263   -9.5235  -13.9849 C   0  0  0  0  0  0  0  0  0  0  0  0
   22.4933  -11.0213  -15.0015 S   0  0  0  0  0  0  0  0  0  0  0  0
   21.4341   -7.4225  -13.4832 C   0  0  0  0  0  0  0  0  0  0  0  0
   21.6481   -6.3253  -14.0480 O   0  0  0  0  0  0  0  0  0  0  0  0
   21.2021   -7.4195  -12.1207 O   0  0  0  0  0  0  0  0  0  0  0  0
  2  1  1  6
  2  9  1  0
  3  2  1  0
  4  3  1  0
  5  4  2  0
  6  5  1  0
  7  6  1  0
  7  8  2  0
  8  4  1  0
  9 11  1  0
  9 10  2  0
 11 12  1  0
 12 13  1  1
 13 14  1  0
 14 19  2  0
 15 16  2  0
 15 14  1  0
 16 17  1  0
 17 18  2  0
 19 18  1  0
 20 12  1  0
 20 21  2  0
 22 20  1  0
 23 22  1  0
 23 24  1  6
 24 25  1  0
 26 23  1  0
 27 26  2  0
 28 26  1  0
M  END
$$$$
