HFC.pdb
     RDKit          3D

 28 29  0  0  1  0  0  0  0  0999 V2000
   29.2746  -21.6948  -12.8272 N   0  0  0  0  0  0  0  0  0  0  0  0
   28.3550  -20.6722  -12.3728 C   0  0  1  0  0  0  0  0  0  0  0  0
   27.4004  -20.3463  -13.5222 C   0  0  0  0  0  0  0  0  0  0  0  0
   27.8949  -19.0772  -14.1201 C   0  0  0  0  0  0  0  0  0  0  0  0
   29.0057  -18.3674  -13.7677 C   0  0  0  0  0  0  0  0  0  0  0  0
   29.1002  -17.2641  -14.5635 N   0  0  0  0  0  0  0  0  0  0  0  0
   28.0549  -17.3032  -15.3930 C   0  0  0  0  0  0  0  0  0  0  0  0
   27.3109  -18.4093  -15.1297 N   0  0  0  0  0  0  0  0  0  0  0  0
   27.6034  -21.1271  -11.1656 C   0  0  0  0  0  0  0  0  0  0  0  0
   27.2865  -22.3160  -10.9740 O   0  0  0  0  0  0  0  0  0  0  0  0
   27.2390  -20.1701  -10.2055 N   0  0  0  0  0  0  0  0  0  0  0  0
   26.1044  -20.2889   -9.3244 C   0  0  1  0  0  0  0  0  0  0  0  0
   26.2422  -19.1538   -8.2992 C   0  0  0  0  0  0  0  0  0  0  0  0
   27.0867  -19.5373   -7.1736 C   0  0  0  0  0  0  0  0  0  0  0  0
   28.3269  -18.9711   -6.9938 C   0  0  0  0  0  0  0  0  0  0  0  0
   29.0879  -19.3573   -5.9264 C   0  0  0  0  0  0  0  0  0  0  0  0
   28.6295  -20.3018   -5.0337 C   0  0  0  0  0  0  0  0  0  0  0  0
   27.3906  -20.8819   -5.1944 C   0  0  0  0  0  0  0  0  0  0  0  0
   26.6379  -20.4787   -6.2778 C   0  0  0  0  0  0  0  0  0  0  0  0
   24.8161  -20.1466  -10.0674 C   0  0  0  0  0  0  0  0  0  0  0  0
   24.3900  -18.9973  -10.4104 O   0  0  0  0  0  0  0  0  0  0  0  0
   24.0163  -21.2508  -10.4233 N   0  0  0  0  0  0  0  0  0  0  0  0
   22.8175  -21.1738  -11.2118 C   0  0  1  0  0  0  0  0  0  0  0  0
   22.4920  -22.4718  -11.9104 C   0  0  0  0  0  0  0  0  0  0  0  0
   20.8697  -22.2783  -12.7012 S   0  0  0  0  0  0  0  0  0  0  0  0
   21.6587  -20.6609  -10.4567 C   0  0  0  0  0  0  0  0  0  0  0  0
   21.5278  -21.0184   -9.2635 O   0  0  0  0  0  0  0  0  0  0  0  0
   20.7095  -19.8091  -10.9894 O   0  0  0  0  0  0  0  0  0  0  0  0
  2  1  1  6
  2  9  1  0
  3  2  1  0
  4  3  1  0
  5  4  2  0
  6  5  1  0
  7  6  1  0
  7  8  2  0
  8  4  1  0
  9 11  1  0
  9 10  2  0
 11 12  1  0
 12 13  1  1
 13 14  1  0
 14 19  2  0
 15 16  2  0
 15 14  1  0
 16 17  1  0
 17 18  2  0
 19 18  1  0
 20 12  1  0
 20 21  2  0
 22 20  1  0
 23 22  1  0
 23 24  1  1
 24 25  1  0
 26 23  1  0
 27 26  2  0
 28 26  1  0
M  END
$$$$
