HFC.pdb
     RDKit          3D

 28 29  0  0  1  0  0  0  0  0999 V2000
   14.0699   -9.5611  -15.1094 N   0  0  0  0  0  0  0  0  0  0  0  0
   15.4731   -9.8647  -14.9182 C   0  0  1  0  0  0  0  0  0  0  0  0
   15.8135  -11.0928  -15.7635 C   0  0  0  0  0  0  0  0  0  0  0  0
   15.0571  -12.2257  -15.1659 C   0  0  0  0  0  0  0  0  0  0  0  0
   13.9502  -12.8456  -15.6681 C   0  0  0  0  0  0  0  0  0  0  0  0
   13.5676  -13.8360  -14.8123 N   0  0  0  0  0  0  0  0  0  0  0  0
   14.4355  -13.8179  -13.7979 C   0  0  0  0  0  0  0  0  0  0  0  0
   15.3513  -12.8357  -14.0049 N   0  0  0  0  0  0  0  0  0  0  0  0
   16.3285   -8.7008  -15.2967 C   0  0  0  0  0  0  0  0  0  0  0  0
   16.1059   -7.9947  -16.2978 O   0  0  0  0  0  0  0  0  0  0  0  0
   17.4318   -8.3911  -14.4862 N   0  0  0  0  0  0  0  0  0  0  0  0
   18.3617   -7.3211  -14.7474 C   0  0  1  0  0  0  0  0  0  0  0  0
   18.8471   -6.8355  -13.3737 C   0  0  0  0  0  0  0  0  0  0  0  0
   19.7993   -5.7369  -13.4906 C   0  0  0  0  0  0  0  0  0  0  0  0
   19.3712   -4.4502  -13.7191 C   0  0  0  0  0  0  0  0  0  0  0  0
   20.2949   -3.4484  -13.8224 C   0  0  0  0  0  0  0  0  0  0  0  0
   21.6422   -3.7113  -13.7009 C   0  0  0  0  0  0  0  0  0  0  0  0
   22.0934   -4.9924  -13.4719 C   0  0  0  0  0  0  0  0  0  0  0  0
   21.1454   -5.9894  -13.3708 C   0  0  0  0  0  0  0  0  0  0  0  0
   19.5250   -7.7914  -15.5583 C   0  0  0  0  0  0  0  0  0  0  0  0
   20.1018   -8.8926  -15.2850 O   0  0  0  0  0  0  0  0  0  0  0  0
   20.0393   -7.0603  -16.6476 N   0  0  0  0  0  0  0  0  0  0  0  0
   21.1813   -7.4483  -17.4285 C   0  0  1  0  0  0  0  0  0  0  0  0
   20.8320   -8.4096  -18.5388 C   0  0  0  0  0  0  0  0  0  0  0  0
   22.3737   -8.8495  -19.3899 S   0  0  0  0  0  0  0  0  0  0  0  0
   21.9567   -6.2990  -17.9326 C   0  0  0  0  0  0  0  0  0  0  0  0
   21.3276   -5.2850  -18.3131 O   0  0  0  0  0  0  0  0  0  0  0  0
   23.3365   -6.2763  -18.0093 O   0  0  0  0  0  0  0  0  0  0  0  0
  2  1  1  6
  2  9  1  0
  3  2  1  0
  4  3  1  0
  5  4  2  0
  6  5  1  0
  7  6  1  0
  7  8  2  0
  8  4  1  0
  9 11  1  0
  9 10  2  0
 11 12  1  0
 12 13  1  1
 13 14  1  0
 14 19  2  0
 15 16  2  0
 15 14  1  0
 16 17  1  0
 17 18  2  0
 19 18  1  0
 20 12  1  0
 20 21  2  0
 22 20  1  0
 23 22  1  0
 23 24  1  6
 24 25  1  0
 26 23  1  0
 27 26  2  0
 28 26  1  0
M  END
$$$$
