HFC.pdb
     RDKit          3D

 28 29  0  0  1  0  0  0  0  0999 V2000
   32.8852  -35.5489   -2.3974 N   0  0  0  0  0  0  0  0  0  0  0  0
   33.0577  -36.9861   -2.3463 C   0  0  1  0  0  0  0  0  0  0  0  0
   34.1521  -37.3696   -3.3432 C   0  0  0  0  0  0  0  0  0  0  0  0
   33.6264  -37.0128   -4.6883 C   0  0  0  0  0  0  0  0  0  0  0  0
   34.2998  -36.4183   -5.7153 C   0  0  0  0  0  0  0  0  0  0  0  0
   33.4538  -36.2670   -6.7740 N   0  0  0  0  0  0  0  0  0  0  0  0
   32.2754  -36.7657   -6.3932 C   0  0  0  0  0  0  0  0  0  0  0  0
   32.3706  -37.2248   -5.1178 N   0  0  0  0  0  0  0  0  0  0  0  0
   33.4104  -37.4336   -0.9662 C   0  0  0  0  0  0  0  0  0  0  0  0
   33.7383  -38.6044   -0.6976 O   0  0  0  0  0  0  0  0  0  0  0  0
   33.3698  -36.4906    0.0727 N   0  0  0  0  0  0  0  0  0  0  0  0
   33.6691  -36.7825    1.4522 C   0  0  1  0  0  0  0  0  0  0  0  0
   34.7816  -35.8060    1.8612 C   0  0  0  0  0  0  0  0  0  0  0  0
   36.1061  -36.3258    1.5408 C   0  0  0  0  0  0  0  0  0  0  0  0
   36.6645  -37.3438    2.2776 C   0  0  0  0  0  0  0  0  0  0  0  0
   37.9080  -37.8031    1.9454 C   0  0  0  0  0  0  0  0  0  0  0  0
   38.6044  -37.2610    0.8870 C   0  0  0  0  0  0  0  0  0  0  0  0
   38.0645  -36.2408    0.1354 C   0  0  0  0  0  0  0  0  0  0  0  0
   36.8085  -35.7913    0.4867 C   0  0  0  0  0  0  0  0  0  0  0  0
   32.4740  -36.5837    2.3264 C   0  0  0  0  0  0  0  0  0  0  0  0
   31.6748  -35.6148    2.1200 O   0  0  0  0  0  0  0  0  0  0  0  0
   32.1691  -37.4373    3.4052 N   0  0  0  0  0  0  0  0  0  0  0  0
   31.0176  -37.3051    4.2545 C   0  0  1  0  0  0  0  0  0  0  0  0
   30.8362  -38.4821    5.1822 C   0  0  0  0  0  0  0  0  0  0  0  0
   29.2439  -38.2743    6.0286 S   0  0  0  0  0  0  0  0  0  0  0  0
   30.9831  -36.0268    4.9899 C   0  0  0  0  0  0  0  0  0  0  0  0
   32.0248  -35.6575    5.5790 O   0  0  0  0  0  0  0  0  0  0  0  0
   29.8683  -35.2133    5.0665 O   0  0  0  0  0  0  0  0  0  0  0  0
  2  1  1  1
  2  9  1  0
  3  2  1  0
  4  3  1  0
  5  4  2  0
  6  5  1  0
  7  6  1  0
  7  8  2  0
  8  4  1  0
  9 11  1  0
  9 10  2  0
 11 12  1  0
 12 13  1  1
 13 14  1  0
 14 19  2  0
 15 16  2  0
 15 14  1  0
 16 17  1  0
 17 18  2  0
 19 18  1  0
 20 12  1  0
 20 21  2  0
 22 20  1  0
 23 22  1  0
 23 24  1  1
 24 25  1  0
 26 23  1  0
 27 26  2  0
 28 26  1  0
M  END
$$$$
