HFC.pdb
     RDKit          3D

 28 29  0  0  1  0  0  0  0  0999 V2000
   25.9971  -18.7854  -16.1913 N   0  0  0  0  0  0  0  0  0  0  0  0
   26.6644  -18.4267  -14.9568 C   0  0  1  0  0  0  0  0  0  0  0  0
   26.7715  -16.9023  -14.8996 C   0  0  0  0  0  0  0  0  0  0  0  0
   27.6606  -16.5100  -16.0258 C   0  0  0  0  0  0  0  0  0  0  0  0
   28.2698  -17.3295  -16.9309 C   0  0  0  0  0  0  0  0  0  0  0  0
   28.9978  -16.5708  -17.7992 N   0  0  0  0  0  0  0  0  0  0  0  0
   28.8322  -15.3001  -17.4246 C   0  0  0  0  0  0  0  0  0  0  0  0
   28.0153  -15.2522  -16.3398 N   0  0  0  0  0  0  0  0  0  0  0  0
   25.9220  -18.9558  -13.7744 C   0  0  0  0  0  0  0  0  0  0  0  0
   24.8374  -18.4812  -13.3886 O   0  0  0  0  0  0  0  0  0  0  0  0
   26.4735  -20.0362  -13.0680 N   0  0  0  0  0  0  0  0  0  0  0  0
   25.8790  -20.6363  -11.8999 C   0  0  1  0  0  0  0  0  0  0  0  0
   25.4380  -22.0449  -12.3241 C   0  0  0  0  0  0  0  0  0  0  0  0
   24.2714  -22.0089  -13.1989 C   0  0  0  0  0  0  0  0  0  0  0  0
   23.0030  -21.8830  -12.6827 C   0  0  0  0  0  0  0  0  0  0  0  0
   21.9358  -21.8531  -13.5358 C   0  0  0  0  0  0  0  0  0  0  0  0
   22.1151  -21.9472  -14.8989 C   0  0  0  0  0  0  0  0  0  0  0  0
   23.3764  -22.0740  -15.4377 C   0  0  0  0  0  0  0  0  0  0  0  0
   24.4403  -22.1021  -14.5601 C   0  0  0  0  0  0  0  0  0  0  0  0
   26.8563  -20.7293  -10.7738 C   0  0  0  0  0  0  0  0  0  0  0  0
   28.0648  -20.3628  -10.9333 O   0  0  0  0  0  0  0  0  0  0  0  0
   26.5054  -21.2168   -9.4991 N   0  0  0  0  0  0  0  0  0  0  0  0
   26.8391  -20.5766   -8.2567 C   0  0  1  0  0  0  0  0  0  0  0  0
   27.0784  -19.0938   -8.4081 C   0  0  0  0  0  0  0  0  0  0  0  0
   27.5094  -18.4371   -6.7717 S   0  0  0  0  0  0  0  0  0  0  0  0
   25.8720  -20.8610   -7.1798 C   0  0  0  0  0  0  0  0  0  0  0  0
   24.6531  -20.8615   -7.4673 O   0  0  0  0  0  0  0  0  0  0  0  0
   26.2330  -21.1269   -5.8724 O   0  0  0  0  0  0  0  0  0  0  0  0
  2  1  1  6
  2  9  1  0
  3  2  1  0
  4  3  1  0
  5  4  2  0
  6  5  1  0
  7  6  1  0
  7  8  2  0
  8  4  1  0
  9 11  1  0
  9 10  2  0
 11 12  1  0
 12 13  1  6
 13 14  1  0
 14 19  2  0
 15 16  2  0
 15 14  1  0
 16 17  1  0
 17 18  2  0
 19 18  1  0
 20 12  1  0
 20 21  2  0
 22 20  1  0
 23 22  1  0
 23 24  1  6
 24 25  1  0
 26 23  1  0
 27 26  2  0
 28 26  1  0
M  END
$$$$
