HFC.pdb
     RDKit          3D

 28 29  0  0  1  0  0  0  0  0999 V2000
   27.9655  -20.3956  -18.9348 N   0  0  0  0  0  0  0  0  0  0  0  0
   26.9872  -19.6593  -18.1612 C   0  0  1  0  0  0  0  0  0  0  0  0
   25.8046  -19.3350  -19.0749 C   0  0  0  0  0  0  0  0  0  0  0  0
   26.1861  -18.1058  -19.8205 C   0  0  0  0  0  0  0  0  0  0  0  0
   26.2308  -17.9318  -21.1732 C   0  0  0  0  0  0  0  0  0  0  0  0
   26.6303  -16.6568  -21.4453 N   0  0  0  0  0  0  0  0  0  0  0  0
   26.8269  -16.0605  -20.2670 C   0  0  0  0  0  0  0  0  0  0  0  0
   26.5576  -16.9391  -19.2661 N   0  0  0  0  0  0  0  0  0  0  0  0
   26.5445  -20.4456  -16.9716 C   0  0  0  0  0  0  0  0  0  0  0  0
   26.4493  -21.6871  -16.9783 O   0  0  0  0  0  0  0  0  0  0  0  0
   26.2218  -19.7520  -15.7947 N   0  0  0  0  0  0  0  0  0  0  0  0
   25.8028  -20.3793  -14.5664 C   0  0  1  0  0  0  0  0  0  0  0  0
   26.3496  -19.4998  -13.4324 C   0  0  0  0  0  0  0  0  0  0  0  0
   26.0314  -20.0469  -12.1183 C   0  0  0  0  0  0  0  0  0  0  0  0
   26.8372  -20.9946  -11.5320 C   0  0  0  0  0  0  0  0  0  0  0  0
   26.5047  -21.4824  -10.2994 C   0  0  0  0  0  0  0  0  0  0  0  0
   25.3782  -21.0382   -9.6416 C   0  0  0  0  0  0  0  0  0  0  0  0
   24.5570  -20.0897  -10.2100 C   0  0  0  0  0  0  0  0  0  0  0  0
   24.9097  -19.6099  -11.4543 C   0  0  0  0  0  0  0  0  0  0  0  0
   24.3140  -20.4597  -14.4720 C   0  0  0  0  0  0  0  0  0  0  0  0
   23.5945  -19.4348  -14.7003 O   0  0  0  0  0  0  0  0  0  0  0  0
   23.6354  -21.6470  -14.1325 N   0  0  0  0  0  0  0  0  0  0  0  0
   22.2066  -21.7827  -14.0628 C   0  0  1  0  0  0  0  0  0  0  0  0
   21.7537  -23.2227  -14.0834 C   0  0  0  0  0  0  0  0  0  0  0  0
   19.9421  -23.2305  -13.9710 S   0  0  0  0  0  0  0  0  0  0  0  0
   21.6082  -21.0439  -12.9349 C   0  0  0  0  0  0  0  0  0  0  0  0
   22.1223  -21.1817  -11.8012 O   0  0  0  0  0  0  0  0  0  0  0  0
   20.5136  -20.2089  -13.0567 O   0  0  0  0  0  0  0  0  0  0  0  0
  2  1  1  6
  2  9  1  0
  3  2  1  0
  4  3  1  0
  5  4  2  0
  6  5  1  0
  7  6  1  0
  7  8  2  0
  8  4  1  0
  9 11  1  0
  9 10  2  0
 11 12  1  0
 12 13  1  1
 13 14  1  0
 14 19  2  0
 15 16  2  0
 15 14  1  0
 16 17  1  0
 17 18  2  0
 19 18  1  0
 20 12  1  0
 20 21  2  0
 22 20  1  0
 23 22  1  0
 23 24  1  1
 24 25  1  0
 26 23  1  0
 27 26  2  0
 28 26  1  0
M  END
$$$$
