HFC.pdb
     RDKit          3D

 28 29  0  0  1  0  0  0  0  0999 V2000
   27.1503  -23.2226  -17.2301 N   0  0  0  0  0  0  0  0  0  0  0  0
   26.2171  -23.2659  -16.1233 C   0  0  1  0  0  0  0  0  0  0  0  0
   26.1024  -24.7169  -15.6544 C   0  0  0  0  0  0  0  0  0  0  0  0
   25.3370  -25.4312  -16.7111 C   0  0  0  0  0  0  0  0  0  0  0  0
   24.0172  -25.2867  -17.0258 C   0  0  0  0  0  0  0  0  0  0  0  0
   23.7103  -26.1263  -18.0555 N   0  0  0  0  0  0  0  0  0  0  0  0
   24.8350  -26.7760  -18.3641 C   0  0  0  0  0  0  0  0  0  0  0  0
   25.8367  -26.3576  -17.5468 N   0  0  0  0  0  0  0  0  0  0  0  0
   26.6661  -22.3777  -15.0102 C   0  0  0  0  0  0  0  0  0  0  0  0
   27.8598  -22.2640  -14.6749 O   0  0  0  0  0  0  0  0  0  0  0  0
   25.6975  -21.6393  -14.3125 N   0  0  0  0  0  0  0  0  0  0  0  0
   25.9860  -20.7314  -13.2307 C   0  0  1  0  0  0  0  0  0  0  0  0
   25.4249  -19.3678  -13.6596 C   0  0  0  0  0  0  0  0  0  0  0  0
   26.2550  -18.7342  -14.6780 C   0  0  0  0  0  0  0  0  0  0  0  0
   25.6916  -18.1547  -15.7905 C   0  0  0  0  0  0  0  0  0  0  0  0
   26.5037  -17.5711  -16.7220 C   0  0  0  0  0  0  0  0  0  0  0  0
   27.8722  -17.5568  -16.5599 C   0  0  0  0  0  0  0  0  0  0  0  0
   28.4578  -18.1312  -15.4535 C   0  0  0  0  0  0  0  0  0  0  0  0
   27.6211  -18.7151  -14.5250 C   0  0  0  0  0  0  0  0  0  0  0  0
   25.3355  -21.1694  -11.9590 C   0  0  0  0  0  0  0  0  0  0  0  0
   24.2865  -21.8899  -11.9832 O   0  0  0  0  0  0  0  0  0  0  0  0
   25.8339  -20.8188  -10.6886 N   0  0  0  0  0  0  0  0  0  0  0  0
   25.1160  -20.9790   -9.4541 C   0  0  1  0  0  0  0  0  0  0  0  0
   25.8658  -20.4282   -8.2653 C   0  0  0  0  0  0  0  0  0  0  0  0
   27.6299  -20.7701   -8.5219 S   0  0  0  0  0  0  0  0  0  0  0  0
   23.7376  -20.4571   -9.5130 C   0  0  0  0  0  0  0  0  0  0  0  0
   23.4202  -19.7397  -10.4893 O   0  0  0  0  0  0  0  0  0  0  0  0
   22.7764  -20.7139   -8.5536 O   0  0  0  0  0  0  0  0  0  0  0  0
  2  1  1  6
  2  9  1  0
  3  2  1  0
  4  3  1  0
  5  4  2  0
  6  5  1  0
  7  6  1  0
  7  8  2  0
  8  4  1  0
  9 11  1  0
  9 10  2  0
 11 12  1  0
 12 13  1  6
 13 14  1  0
 14 19  2  0
 15 16  2  0
 15 14  1  0
 16 17  1  0
 17 18  2  0
 19 18  1  0
 20 12  1  0
 20 21  2  0
 22 20  1  0
 23 22  1  0
 23 24  1  1
 24 25  1  0
 26 23  1  0
 27 26  2  0
 28 26  1  0
M  END
$$$$
