HFC.pdb
     RDKit          3D

 28 29  0  0  1  0  0  0  0  0999 V2000
   18.7639  -13.5517  -17.4524 N   0  0  0  0  0  0  0  0  0  0  0  0
   18.2463  -12.2249  -17.7162 C   0  0  1  0  0  0  0  0  0  0  0  0
   16.7481  -12.3461  -17.9978 C   0  0  0  0  0  0  0  0  0  0  0  0
   16.6294  -13.0978  -19.2759 C   0  0  0  0  0  0  0  0  0  0  0  0
   16.1193  -14.3495  -19.4621 C   0  0  0  0  0  0  0  0  0  0  0  0
   16.1946  -14.6688  -20.7857 N   0  0  0  0  0  0  0  0  0  0  0  0
   16.7462  -13.6190  -21.3990 C   0  0  0  0  0  0  0  0  0  0  0  0
   17.0161  -12.6519  -20.4835 N   0  0  0  0  0  0  0  0  0  0  0  0
   18.5019  -11.3120  -16.5627 C   0  0  0  0  0  0  0  0  0  0  0  0
   18.0962  -11.5489  -15.4096 O   0  0  0  0  0  0  0  0  0  0  0  0
   19.2321  -10.1351  -16.7911 N   0  0  0  0  0  0  0  0  0  0  0  0
   19.4911   -9.1285  -15.7923 C   0  0  1  0  0  0  0  0  0  0  0  0
   20.9815   -8.7800  -15.9174 C   0  0  0  0  0  0  0  0  0  0  0  0
   21.3642   -7.6978  -15.0175 C   0  0  0  0  0  0  0  0  0  0  0  0
   21.4944   -7.9139  -13.6657 C   0  0  0  0  0  0  0  0  0  0  0  0
   21.8549   -6.8738  -12.8558 C   0  0  0  0  0  0  0  0  0  0  0  0
   22.0878   -5.6188  -13.3751 C   0  0  0  0  0  0  0  0  0  0  0  0
   21.9633   -5.3797  -14.7258 C   0  0  0  0  0  0  0  0  0  0  0  0
   21.5986   -6.4423  -15.5264 C   0  0  0  0  0  0  0  0  0  0  0  0
   18.6641   -7.9053  -16.0195 C   0  0  0  0  0  0  0  0  0  0  0  0
   18.6829   -7.3108  -17.1448 O   0  0  0  0  0  0  0  0  0  0  0  0
   17.8344   -7.3514  -15.0244 N   0  0  0  0  0  0  0  0  0  0  0  0
   17.0431   -6.1628  -15.1856 C   0  0  1  0  0  0  0  0  0  0  0  0
   15.7352   -6.2240  -14.4342 C   0  0  0  0  0  0  0  0  0  0  0  0
   14.9324   -7.7964  -14.8559 S   0  0  0  0  0  0  0  0  0  0  0  0
   17.7856   -4.9258  -14.8785 C   0  0  0  0  0  0  0  0  0  0  0  0
   18.9418   -5.0335  -14.4093 O   0  0  0  0  0  0  0  0  0  0  0  0
   17.2796   -3.6553  -15.0785 O   0  0  0  0  0  0  0  0  0  0  0  0
  2  1  1  1
  2  9  1  0
  3  2  1  0
  4  3  1  0
  5  4  2  0
  6  5  1  0
  7  6  1  0
  7  8  2  0
  8  4  1  0
  9 11  1  0
  9 10  2  0
 11 12  1  0
 12 13  1  6
 13 14  1  0
 14 19  2  0
 15 16  2  0
 15 14  1  0
 16 17  1  0
 17 18  2  0
 19 18  1  0
 20 12  1  0
 20 21  2  0
 22 20  1  0
 23 22  1  0
 23 24  1  1
 24 25  1  0
 26 23  1  0
 27 26  2  0
 28 26  1  0
M  END
$$$$
