HFC.pdb
     RDKit          3D

 28 29  0  0  1  0  0  0  0  0999 V2000
   28.0916  -20.7246  -17.7935 N   0  0  0  0  0  0  0  0  0  0  0  0
   27.0265  -19.9344  -17.2111 C   0  0  1  0  0  0  0  0  0  0  0  0
   25.9584  -19.7126  -18.2828 C   0  0  0  0  0  0  0  0  0  0  0  0
   26.5429  -18.7477  -19.2524 C   0  0  0  0  0  0  0  0  0  0  0  0
   27.1087  -19.0226  -20.4632 C   0  0  0  0  0  0  0  0  0  0  0  0
   27.5208  -17.8564  -21.0373 N   0  0  0  0  0  0  0  0  0  0  0  0
   27.2080  -16.8804  -20.1818 C   0  0  0  0  0  0  0  0  0  0  0  0
   26.6089  -17.4156  -19.0859 N   0  0  0  0  0  0  0  0  0  0  0  0
   26.4498  -20.6143  -16.0134 C   0  0  0  0  0  0  0  0  0  0  0  0
   26.1710  -21.8277  -15.9930 O   0  0  0  0  0  0  0  0  0  0  0  0
   26.2123  -19.8494  -14.8607 N   0  0  0  0  0  0  0  0  0  0  0  0
   25.6667  -20.3714  -13.6328 C   0  0  1  0  0  0  0  0  0  0  0  0
   26.1447  -19.4267  -12.5204 C   0  0  0  0  0  0  0  0  0  0  0  0
   27.0479  -20.0951  -11.5904 C   0  0  0  0  0  0  0  0  0  0  0  0
   26.6338  -20.4385  -10.3248 C   0  0  0  0  0  0  0  0  0  0  0  0
   27.5103  -21.0638   -9.4830 C   0  0  0  0  0  0  0  0  0  0  0  0
   28.7963  -21.3523   -9.8856 C   0  0  0  0  0  0  0  0  0  0  0  0
   29.2323  -21.0174  -11.1485 C   0  0  0  0  0  0  0  0  0  0  0  0
   28.3327  -20.3870  -11.9829 C   0  0  0  0  0  0  0  0  0  0  0  0
   24.1734  -20.4009  -13.6653 C   0  0  0  0  0  0  0  0  0  0  0  0
   23.5097  -19.3394  -13.8952 O   0  0  0  0  0  0  0  0  0  0  0  0
   23.4300  -21.5780  -13.4484 N   0  0  0  0  0  0  0  0  0  0  0  0
   21.9963  -21.6398  -13.3748 C   0  0  1  0  0  0  0  0  0  0  0  0
   21.4825  -23.0375  -13.1273 C   0  0  0  0  0  0  0  0  0  0  0  0
   19.6689  -22.9636  -13.1242 S   0  0  0  0  0  0  0  0  0  0  0  0
   21.4227  -20.6755  -12.4172 C   0  0  0  0  0  0  0  0  0  0  0  0
   22.0037  -20.5192  -11.3188 O   0  0  0  0  0  0  0  0  0  0  0  0
   20.2817  -19.9348  -12.6618 O   0  0  0  0  0  0  0  0  0  0  0  0
  2  1  1  6
  2  9  1  0
  3  2  1  0
  4  3  1  0
  5  4  2  0
  6  5  1  0
  7  6  1  0
  7  8  2  0
  8  4  1  0
  9 11  1  0
  9 10  2  0
 11 12  1  0
 12 13  1  1
 13 14  1  0
 14 19  2  0
 15 16  2  0
 15 14  1  0
 16 17  1  0
 17 18  2  0
 19 18  1  0
 20 12  1  0
 20 21  2  0
 22 20  1  0
 23 22  1  0
 23 24  1  1
 24 25  1  0
 26 23  1  0
 27 26  2  0
 28 26  1  0
M  END
$$$$
