HFC.pdb
     RDKit          3D

 28 29  0  0  1  0  0  0  0  0999 V2000
   23.9686  -12.5499  -18.9071 N   0  0  0  0  0  0  0  0  0  0  0  0
   23.7475  -11.1862  -19.3421 C   0  0  1  0  0  0  0  0  0  0  0  0
   22.7065  -11.2071  -20.4621 C   0  0  0  0  0  0  0  0  0  0  0  0
   23.3660  -11.8607  -21.6242 C   0  0  0  0  0  0  0  0  0  0  0  0
   22.8031  -12.1976  -22.8207 C   0  0  0  0  0  0  0  0  0  0  0  0
   23.7510  -12.7774  -23.6112 N   0  0  0  0  0  0  0  0  0  0  0  0
   24.8811  -12.7927  -22.9005 C   0  0  0  0  0  0  0  0  0  0  0  0
   24.6559  -12.2338  -21.6827 N   0  0  0  0  0  0  0  0  0  0  0  0
   23.2944  -10.3294  -18.2063 C   0  0  0  0  0  0  0  0  0  0  0  0
   22.5812  -10.7564  -17.2793 O   0  0  0  0  0  0  0  0  0  0  0  0
   23.6915   -8.9833  -18.1852 N   0  0  0  0  0  0  0  0  0  0  0  0
   23.3925   -8.0607  -17.1186 C   0  0  1  0  0  0  0  0  0  0  0  0
   24.7454   -7.5210  -16.6323 C   0  0  0  0  0  0  0  0  0  0  0  0
   25.5854   -8.5776  -16.0796 C   0  0  0  0  0  0  0  0  0  0  0  0
   26.7357   -8.9751  -16.7198 C   0  0  0  0  0  0  0  0  0  0  0  0
   27.4958   -9.9687  -16.1695 C   0  0  0  0  0  0  0  0  0  0  0  0
   27.1248  -10.5730  -14.9878 C   0  0  0  0  0  0  0  0  0  0  0  0
   25.9768  -10.1907  -14.3297 C   0  0  0  0  0  0  0  0  0  0  0  0
   25.2235   -9.1863  -14.9012 C   0  0  0  0  0  0  0  0  0  0  0  0
   22.5380   -6.9313  -17.5942 C   0  0  0  0  0  0  0  0  0  0  0  0
   22.7688   -6.3717  -18.7139 O   0  0  0  0  0  0  0  0  0  0  0  0
   21.4520   -6.4314  -16.8484 N   0  0  0  0  0  0  0  0  0  0  0  0
   20.6377   -5.3128  -17.2359 C   0  0  1  0  0  0  0  0  0  0  0  0
   19.4956   -5.7060  -18.1414 C   0  0  0  0  0  0  0  0  0  0  0  0
   18.4857   -4.2249  -18.4266 S   0  0  0  0  0  0  0  0  0  0  0  0
   20.1677   -4.5128  -16.0892 C   0  0  0  0  0  0  0  0  0  0  0  0
   20.2943   -3.2681  -16.1475 O   0  0  0  0  0  0  0  0  0  0  0  0
   19.5959   -5.0569  -14.9546 O   0  0  0  0  0  0  0  0  0  0  0  0
  2  1  1  1
  2  9  1  0
  3  2  1  0
  4  3  1  0
  5  4  2  0
  6  5  1  0
  7  6  1  0
  7  8  2  0
  8  4  1  0
  9 11  1  0
  9 10  2  0
 11 12  1  0
 12 13  1  6
 13 14  1  0
 14 19  2  0
 15 16  2  0
 15 14  1  0
 16 17  1  0
 17 18  2  0
 19 18  1  0
 20 12  1  0
 20 21  2  0
 22 20  1  0
 23 22  1  0
 23 24  1  1
 24 25  1  0
 26 23  1  0
 27 26  2  0
 28 26  1  0
M  END
$$$$
