HFC.pdb
     RDKit          3D

 28 29  0  0  1  0  0  0  0  0999 V2000
   27.5262  -21.2977  -16.4693 N   0  0  0  0  0  0  0  0  0  0  0  0
   27.0398  -20.2403  -15.6072 C   0  0  1  0  0  0  0  0  0  0  0  0
   25.9313  -19.4932  -16.3499 C   0  0  0  0  0  0  0  0  0  0  0  0
   26.6046  -18.4014  -17.1031 C   0  0  0  0  0  0  0  0  0  0  0  0
   27.4229  -18.5197  -18.1885 C   0  0  0  0  0  0  0  0  0  0  0  0
   27.8307  -17.2776  -18.5763 N   0  0  0  0  0  0  0  0  0  0  0  0
   27.2644  -16.4112  -17.7330 C   0  0  0  0  0  0  0  0  0  0  0  0
   26.5118  -17.0892  -16.8273 N   0  0  0  0  0  0  0  0  0  0  0  0
   26.5389  -20.7929  -14.3137 C   0  0  0  0  0  0  0  0  0  0  0  0
   25.9131  -21.8664  -14.2336 O   0  0  0  0  0  0  0  0  0  0  0  0
   26.7859  -20.0681  -13.1373 N   0  0  0  0  0  0  0  0  0  0  0  0
   26.3461  -20.4686  -11.8243 C   0  0  1  0  0  0  0  0  0  0  0  0
   27.1862  -19.6554  -10.8286 C   0  0  0  0  0  0  0  0  0  0  0  0
   26.8381  -19.9622   -9.4458 C   0  0  0  0  0  0  0  0  0  0  0  0
   27.3361  -21.0821   -8.8222 C   0  0  0  0  0  0  0  0  0  0  0  0
   26.9863  -21.3345   -7.5254 C   0  0  0  0  0  0  0  0  0  0  0  0
   26.1454  -20.4847   -6.8399 C   0  0  0  0  0  0  0  0  0  0  0  0
   25.6350  -19.3574   -7.4447 C   0  0  0  0  0  0  0  0  0  0  0  0
   26.0000  -19.1203   -8.7538 C   0  0  0  0  0  0  0  0  0  0  0  0
   24.8952  -20.1770  -11.6195 C   0  0  0  0  0  0  0  0  0  0  0  0
   24.4307  -19.0134  -11.8440 O   0  0  0  0  0  0  0  0  0  0  0  0
   23.9779  -21.1504  -11.1763 N   0  0  0  0  0  0  0  0  0  0  0  0
   22.5722  -20.9238  -10.9833 C   0  0  1  0  0  0  0  0  0  0  0  0
   21.7119  -21.8077  -11.8536 C   0  0  0  0  0  0  0  0  0  0  0  0
   22.1352  -21.4551  -13.5831 S   0  0  0  0  0  0  0  0  0  0  0  0
   22.1622  -20.9950   -9.5680 C   0  0  0  0  0  0  0  0  0  0  0  0
   22.9928  -21.4243   -8.7348 O   0  0  0  0  0  0  0  0  0  0  0  0
   20.9152  -20.6155   -9.1085 O   0  0  0  0  0  0  0  0  0  0  0  0
  2  1  1  6
  2  9  1  0
  3  2  1  0
  4  3  1  0
  5  4  2  0
  6  5  1  0
  7  6  1  0
  7  8  2  0
  8  4  1  0
  9 11  1  0
  9 10  2  0
 11 12  1  0
 12 13  1  1
 13 14  1  0
 14 19  2  0
 15 16  2  0
 15 14  1  0
 16 17  1  0
 17 18  2  0
 19 18  1  0
 20 12  1  0
 20 21  2  0
 22 20  1  0
 23 22  1  0
 23 24  1  6
 24 25  1  0
 26 23  1  0
 27 26  2  0
 28 26  1  0
M  END
$$$$
