HFC.pdb
     RDKit          3D

 28 29  0  0  1  0  0  0  0  0999 V2000
   20.8753  -20.7025  -11.9637 N   0  0  0  0  0  0  0  0  0  0  0  0
   21.9391  -21.3398  -12.7120 C   0  0  1  0  0  0  0  0  0  0  0  0
   21.4271  -21.6144  -14.1266 C   0  0  0  0  0  0  0  0  0  0  0  0
   20.5044  -22.7755  -14.0118 C   0  0  0  0  0  0  0  0  0  0  0  0
   20.5349  -23.7754  -13.0839 C   0  0  0  0  0  0  0  0  0  0  0  0
   19.5131  -24.6439  -13.3313 N   0  0  0  0  0  0  0  0  0  0  0  0
   18.8668  -24.1753  -14.4014 C   0  0  0  0  0  0  0  0  0  0  0  0
   19.4659  -23.0318  -14.8255 N   0  0  0  0  0  0  0  0  0  0  0  0
   23.1603  -20.4813  -12.7421 C   0  0  0  0  0  0  0  0  0  0  0  0
   23.1191  -19.2529  -12.9410 O   0  0  0  0  0  0  0  0  0  0  0  0
   24.4090  -21.0886  -12.5369 N   0  0  0  0  0  0  0  0  0  0  0  0
   25.6745  -20.4046  -12.6301 C   0  0  1  0  0  0  0  0  0  0  0  0
   26.6330  -21.1556  -11.6943 C   0  0  0  0  0  0  0  0  0  0  0  0
   26.4211  -20.7964  -10.2967 C   0  0  0  0  0  0  0  0  0  0  0  0
   26.7351  -21.6732   -9.2849 C   0  0  0  0  0  0  0  0  0  0  0  0
   26.5218  -21.2991   -7.9880 C   0  0  0  0  0  0  0  0  0  0  0  0
   25.9987  -20.0608   -7.6844 C   0  0  0  0  0  0  0  0  0  0  0  0
   25.6770  -19.1668   -8.6816 C   0  0  0  0  0  0  0  0  0  0  0  0
   25.8998  -19.5633   -9.9840 C   0  0  0  0  0  0  0  0  0  0  0  0
   26.2080  -20.4265  -14.0254 C   0  0  0  0  0  0  0  0  0  0  0  0
   26.5304  -21.5269  -14.5781 O   0  0  0  0  0  0  0  0  0  0  0  0
   26.3813  -19.2577  -14.7929 N   0  0  0  0  0  0  0  0  0  0  0  0
   26.8689  -19.2297  -16.1443 C   0  0  1  0  0  0  0  0  0  0  0  0
   25.9489  -18.4875  -17.0832 C   0  0  0  0  0  0  0  0  0  0  0  0
   24.7592  -17.5634  -16.0705 S   0  0  0  0  0  0  0  0  0  0  0  0
   28.2571  -18.7421  -16.2500 C   0  0  0  0  0  0  0  0  0  0  0  0
   28.7530  -18.1566  -15.2601 O   0  0  0  0  0  0  0  0  0  0  0  0
   29.0418  -18.8939  -17.3775 O   0  0  0  0  0  0  0  0  0  0  0  0
  2  1  1  1
  2  9  1  0
  3  2  1  0
  4  3  1  0
  5  4  2  0
  6  5  1  0
  7  6  1  0
  7  8  2  0
  8  4  1  0
  9 11  1  0
  9 10  2  0
 11 12  1  0
 12 13  1  1
 13 14  1  0
 14 19  2  0
 15 16  2  0
 15 14  1  0
 16 17  1  0
 17 18  2  0
 19 18  1  0
 20 12  1  0
 20 21  2  0
 22 20  1  0
 23 22  1  0
 23 24  1  6
 24 25  1  0
 26 23  1  0
 27 26  2  0
 28 26  1  0
M  END
$$$$
