HFC.pdb
     RDKit          3D

 28 29  0  0  1  0  0  0  0  0999 V2000
   28.2439  -22.8092  -18.1545 N   0  0  0  0  0  0  0  0  0  0  0  0
   27.4893  -21.6793  -17.6524 C   0  0  1  0  0  0  0  0  0  0  0  0
   26.5590  -21.1962  -18.7658 C   0  0  0  0  0  0  0  0  0  0  0  0
   27.1832  -19.9636  -19.3172 C   0  0  0  0  0  0  0  0  0  0  0  0
   28.3345  -19.8656  -20.0428 C   0  0  0  0  0  0  0  0  0  0  0  0
   28.5546  -18.5564  -20.3543 N   0  0  0  0  0  0  0  0  0  0  0  0
   27.5447  -17.8642  -19.8220 C   0  0  0  0  0  0  0  0  0  0  0  0
   26.6996  -18.7165  -19.1849 N   0  0  0  0  0  0  0  0  0  0  0  0
   26.7143  -22.0535  -16.4323 C   0  0  0  0  0  0  0  0  0  0  0  0
   26.2198  -23.1839  -16.2651 O   0  0  0  0  0  0  0  0  0  0  0  0
   26.5369  -21.0861  -15.4308 N   0  0  0  0  0  0  0  0  0  0  0  0
   25.8212  -21.3078  -14.1994 C   0  0  1  0  0  0  0  0  0  0  0  0
   26.3653  -20.2763  -13.2003 C   0  0  0  0  0  0  0  0  0  0  0  0
   25.7837  -20.4452  -11.8734 C   0  0  0  0  0  0  0  0  0  0  0  0
   26.3617  -21.2828  -10.9485 C   0  0  0  0  0  0  0  0  0  0  0  0
   25.7861  -21.4137   -9.7159 C   0  0  0  0  0  0  0  0  0  0  0  0
   24.6403  -20.7202   -9.3914 C   0  0  0  0  0  0  0  0  0  0  0  0
   24.0445  -19.8760  -10.3022 C   0  0  0  0  0  0  0  0  0  0  0  0
   24.6407  -19.7576  -11.5405 C   0  0  0  0  0  0  0  0  0  0  0  0
   24.3506  -21.1136  -14.3774 C   0  0  0  0  0  0  0  0  0  0  0  0
   23.8971  -20.0443  -14.8980 O   0  0  0  0  0  0  0  0  0  0  0  0
   23.4021  -22.0804  -13.9885 N   0  0  0  0  0  0  0  0  0  0  0  0
   21.9804  -21.9427  -14.1452 C   0  0  1  0  0  0  0  0  0  0  0  0
   21.2757  -23.2704  -14.2854 C   0  0  0  0  0  0  0  0  0  0  0  0
   22.5370  -24.5273  -14.6377 S   0  0  0  0  0  0  0  0  0  0  0  0
   21.3596  -21.1091  -13.0985 C   0  0  0  0  0  0  0  0  0  0  0  0
   22.0770  -20.7300  -12.1444 O   0  0  0  0  0  0  0  0  0  0  0  0
   20.0328  -20.7221  -13.1097 O   0  0  0  0  0  0  0  0  0  0  0  0
  2  1  1  6
  2  9  1  0
  3  2  1  0
  4  3  1  0
  5  4  2  0
  6  5  1  0
  7  6  1  0
  7  8  2  0
  8  4  1  0
  9 11  1  0
  9 10  2  0
 11 12  1  0
 12 13  1  1
 13 14  1  0
 14 19  2  0
 15 16  2  0
 15 14  1  0
 16 17  1  0
 17 18  2  0
 19 18  1  0
 20 12  1  0
 20 21  2  0
 22 20  1  0
 23 22  1  0
 23 24  1  1
 24 25  1  0
 26 23  1  0
 27 26  2  0
 28 26  1  0
M  END
$$$$
