WCH.pdb
     RDKit          3D

 31 33  0  0  1  0  0  0  0  0999 V2000
   27.0263  -33.7097   -9.4468 N   0  0  0  0  0  0  0  0  0  0  0  0
   26.6591  -33.5453   -8.0802 C   0  0  1  0  0  0  0  0  0  0  0  0
   25.1669  -33.6613   -7.9333 C   0  0  0  0  0  0  0  0  0  0  0  0
   24.3948  -32.5279   -8.4313 C   0  0  0  0  0  0  0  0  0  0  0  0
   23.9737  -31.4832   -7.6396 C   0  0  0  0  0  0  0  0  0  0  0  0
   23.2793  -30.6468   -8.4183 N   0  0  0  0  0  0  0  0  0  0  0  0
   23.2228  -31.0981   -9.7051 C   0  0  0  0  0  0  0  0  0  0  0  0
   22.6412  -30.5937  -10.8437 C   0  0  0  0  0  0  0  0  0  0  0  0
   22.7497  -31.2660  -12.0282 C   0  0  0  0  0  0  0  0  0  0  0  0
   23.4498  -32.4535  -12.0601 C   0  0  0  0  0  0  0  0  0  0  0  0
   24.0258  -32.9472  -10.9175 C   0  0  0  0  0  0  0  0  0  0  0  0
   23.9305  -32.2847   -9.6987 C   0  0  0  0  0  0  0  0  0  0  0  0
   27.3091  -34.5380   -7.1676 C   0  0  0  0  0  0  0  0  0  0  0  0
   27.8655  -35.5717   -7.6304 O   0  0  0  0  0  0  0  0  0  0  0  0
   27.3458  -34.3929   -5.7535 N   0  0  0  0  0  0  0  0  0  0  0  0
   28.3373  -35.0720   -4.9448 C   0  0  1  0  0  0  0  0  0  0  0  0
   29.4691  -34.1005   -4.6874 C   0  0  0  0  0  0  0  0  0  0  0  0
   28.7714  -32.6247   -3.8985 S   0  0  0  0  0  0  0  0  0  0  0  0
   27.8032  -35.4809   -3.6255 C   0  0  0  0  0  0  0  0  0  0  0  0
   27.2188  -34.7219   -2.8189 O   0  0  0  0  0  0  0  0  0  0  0  0
   27.9685  -36.8408   -3.2494 N   0  0  0  0  0  0  0  0  0  0  0  0
   27.5476  -37.2901   -1.9082 C   0  0  1  0  0  0  0  0  0  0  0  0
   28.2799  -36.4145   -0.9275 C   0  0  0  0  0  0  0  0  0  0  0  0
   29.7173  -36.6160   -0.8392 C   0  0  0  0  0  0  0  0  0  0  0  0
   30.4457  -37.7637   -0.6953 C   0  0  0  0  0  0  0  0  0  0  0  0
   31.7630  -37.4360   -0.7256 N   0  0  0  0  0  0  0  0  0  0  0  0
   31.8647  -36.1260   -0.8845 C   0  0  0  0  0  0  0  0  0  0  0  0
   30.6482  -35.6162   -0.9550 N   0  0  0  0  0  0  0  0  0  0  0  0
   26.0968  -36.8911   -1.8238 C   0  0  0  0  0  0  0  0  0  0  0  0
   25.3944  -36.2282   -2.7996 O   0  0  0  0  0  0  0  0  0  0  0  0
   25.4832  -37.2047   -0.7460 O   0  0  0  0  0  0  0  0  0  0  0  0
  2  1  1  6
  2  3  1  0
  3  4  1  0
  4  5  2  0
  6  5  1  0
  7  6  1  0
  8  7  2  0
  9  8  1  0
 10 11  1  0
 10  9  2  0
 11 12  2  0
 12  7  1  0
 12  4  1  0
 13  2  1  0
 13 15  1  0
 14 13  2  0
 16 15  1  0
 16 17  1  1
 17 18  1  0
 19 16  1  0
 20 19  2  0
 21 19  1  0
 22 21  1  0
 23 24  1  0
 22 23  1  1
 24 25  2  0
 26 25  1  0
 27 26  1  0
 28 27  2  0
 28 24  1  0
 29 22  1  0
 29 30  1  0
 31 29  2  0
M  END
$$$$
