WCH.pdb
     RDKit          3D

 31 33  0  0  1  0  0  0  0  0999 V2000
   26.3560  -22.3090  -14.2524 N   0  0  0  0  0  0  0  0  0  0  0  0
   26.0173  -21.7214  -12.9996 C   0  0  1  0  0  0  0  0  0  0  0  0
   26.8076  -20.4582  -12.7959 C   0  0  0  0  0  0  0  0  0  0  0  0
   27.8296  -20.5152  -11.7561 C   0  0  0  0  0  0  0  0  0  0  0  0
   29.1796  -20.5946  -12.0151 C   0  0  0  0  0  0  0  0  0  0  0  0
   29.8093  -20.6530  -10.8369 N   0  0  0  0  0  0  0  0  0  0  0  0
   28.9243  -20.6147   -9.7986 C   0  0  0  0  0  0  0  0  0  0  0  0
   29.0884  -20.6420   -8.4342 C   0  0  0  0  0  0  0  0  0  0  0  0
   28.0015  -20.5812   -7.6086 C   0  0  0  0  0  0  0  0  0  0  0  0
   26.7436  -20.4924   -8.1663 C   0  0  0  0  0  0  0  0  0  0  0  0
   26.5921  -20.4663   -9.5292 C   0  0  0  0  0  0  0  0  0  0  0  0
   27.6801  -20.5275  -10.3929 C   0  0  0  0  0  0  0  0  0  0  0  0
   24.5608  -21.4018  -12.8685 C   0  0  0  0  0  0  0  0  0  0  0  0
   23.8019  -21.4264  -13.8764 O   0  0  0  0  0  0  0  0  0  0  0  0
   23.9440  -21.0569  -11.6346 N   0  0  0  0  0  0  0  0  0  0  0  0
   22.5033  -21.0095  -11.4916 C   0  0  1  0  0  0  0  0  0  0  0  0
   22.1921  -20.6524  -10.0540 C   0  0  0  0  0  0  0  0  0  0  0  0
   20.3962  -20.7558   -9.8278 S   0  0  0  0  0  0  0  0  0  0  0  0
   21.8872  -19.9673  -12.3444 C   0  0  0  0  0  0  0  0  0  0  0  0
   22.0870  -18.7360  -12.2338 O   0  0  0  0  0  0  0  0  0  0  0  0
   21.0015  -20.4022  -13.3663 N   0  0  0  0  0  0  0  0  0  0  0  0
   20.2822  -19.4099  -14.1885 C   0  0  1  0  0  0  0  0  0  0  0  0
   20.6502  -19.7082  -15.6170 C   0  0  0  0  0  0  0  0  0  0  0  0
   21.9650  -19.2592  -16.0459 C   0  0  0  0  0  0  0  0  0  0  0  0
   22.5244  -18.0119  -16.0355 C   0  0  0  0  0  0  0  0  0  0  0  0
   23.8020  -18.1169  -16.4834 N   0  0  0  0  0  0  0  0  0  0  0  0
   24.0431  -19.3870  -16.7663 C   0  0  0  0  0  0  0  0  0  0  0  0
   22.9533  -20.0883  -16.5103 N   0  0  0  0  0  0  0  0  0  0  0  0
   18.8315  -19.7909  -14.0415 C   0  0  0  0  0  0  0  0  0  0  0  0
   18.3625  -20.9101  -13.3995 O   0  0  0  0  0  0  0  0  0  0  0  0
   17.9789  -18.9929  -14.5640 O   0  0  0  0  0  0  0  0  0  0  0  0
  2  1  1  6
  2  3  1  0
  3  4  1  0
  4  5  2  0
  6  5  1  0
  7  6  1  0
  8  7  2  0
  9  8  1  0
 10 11  1  0
 10  9  2  0
 11 12  2  0
 12  7  1  0
 12  4  1  0
 13  2  1  0
 13 15  1  0
 14 13  2  0
 16 15  1  0
 16 17  1  1
 17 18  1  0
 19 16  1  0
 20 19  2  0
 21 19  1  0
 22 21  1  0
 23 24  1  0
 22 23  1  6
 24 25  2  0
 26 25  1  0
 27 26  1  0
 28 27  2  0
 28 24  1  0
 29 22  1  0
 29 30  1  0
 31 29  2  0
M  END
$$$$
