WCH.pdb
     RDKit          3D

 31 33  0  0  1  0  0  0  0  0999 V2000
   26.1154  -22.5652  -14.0794 N   0  0  0  0  0  0  0  0  0  0  0  0
   25.6255  -21.7985  -12.9832 C   0  0  1  0  0  0  0  0  0  0  0  0
   26.4491  -20.5505  -12.8223 C   0  0  0  0  0  0  0  0  0  0  0  0
   27.4536  -20.5906  -11.7647 C   0  0  0  0  0  0  0  0  0  0  0  0
   28.8079  -20.6700  -11.9998 C   0  0  0  0  0  0  0  0  0  0  0  0
   29.4178  -20.7106  -10.8104 N   0  0  0  0  0  0  0  0  0  0  0  0
   28.5153  -20.6604   -9.7878 C   0  0  0  0  0  0  0  0  0  0  0  0
   28.6563  -20.6684   -8.4206 C   0  0  0  0  0  0  0  0  0  0  0  0
   27.5554  -20.5992   -7.6143 C   0  0  0  0  0  0  0  0  0  0  0  0
   26.3070  -20.5213   -8.1944 C   0  0  0  0  0  0  0  0  0  0  0  0
   26.1785  -20.5142   -9.5599 C   0  0  0  0  0  0  0  0  0  0  0  0
   27.2811  -20.5845  -10.4042 C   0  0  0  0  0  0  0  0  0  0  0  0
   24.1875  -21.4083  -13.1276 C   0  0  0  0  0  0  0  0  0  0  0  0
   23.5388  -21.7097  -14.1672 O   0  0  0  0  0  0  0  0  0  0  0  0
   23.4686  -20.6901  -12.1330 N   0  0  0  0  0  0  0  0  0  0  0  0
   22.0261  -20.5660  -12.1781 C   0  0  1  0  0  0  0  0  0  0  0  0
   21.5350  -20.3547  -10.7620 C   0  0  0  0  0  0  0  0  0  0  0  0
   19.7229  -20.3121  -10.7985 S   0  0  0  0  0  0  0  0  0  0  0  0
   21.5866  -19.3962  -12.9726 C   0  0  0  0  0  0  0  0  0  0  0  0
   21.9831  -18.2206  -12.8026 O   0  0  0  0  0  0  0  0  0  0  0  0
   20.6416  -19.6299  -14.0073 N   0  0  0  0  0  0  0  0  0  0  0  0
   20.1998  -18.5144  -14.8666 C   0  0  1  0  0  0  0  0  0  0  0  0
   20.5912  -18.8906  -16.2703 C   0  0  0  0  0  0  0  0  0  0  0  0
   22.0012  -18.7559  -16.5991 C   0  0  0  0  0  0  0  0  0  0  0  0
   22.8092  -17.6533  -16.6089 C   0  0  0  0  0  0  0  0  0  0  0  0
   24.0672  -18.0529  -16.9277 N   0  0  0  0  0  0  0  0  0  0  0  0
   24.0558  -19.3634  -17.1120 C   0  0  0  0  0  0  0  0  0  0  0  0
   22.8255  -19.8037  -16.9191 N   0  0  0  0  0  0  0  0  0  0  0  0
   18.6952  -18.5849  -14.8182 C   0  0  0  0  0  0  0  0  0  0  0  0
   17.8390  -17.5538  -15.1157 O   0  0  0  0  0  0  0  0  0  0  0  0
   18.1901  -19.7073  -14.4695 O   0  0  0  0  0  0  0  0  0  0  0  0
  2  1  1  6
  2  3  1  0
  3  4  1  0
  4  5  2  0
  6  5  1  0
  7  6  1  0
  8  7  2  0
  9  8  1  0
 10 11  1  0
 10  9  2  0
 11 12  2  0
 12  7  1  0
 12  4  1  0
 13  2  1  0
 13 15  1  0
 14 13  2  0
 16 15  1  0
 16 17  1  1
 17 18  1  0
 19 16  1  0
 20 19  2  0
 21 19  1  0
 22 21  1  0
 23 24  1  0
 22 23  1  6
 24 25  2  0
 26 25  1  0
 27 26  1  0
 28 27  2  0
 28 24  1  0
 29 22  1  0
 29 30  1  0
 31 29  2  0
M  END
$$$$
