WCH.pdb
     RDKit          3D

 31 33  0  0  1  0  0  0  0  0999 V2000
   28.3437  -20.9263   -9.4211 N   0  0  0  0  0  0  0  0  0  0  0  0
   26.9897  -21.3689   -9.4201 C   0  0  1  0  0  0  0  0  0  0  0  0
   26.2513  -20.7562   -8.2621 C   0  0  0  0  0  0  0  0  0  0  0  0
   27.0796  -20.0547   -7.2870 C   0  0  0  0  0  0  0  0  0  0  0  0
   27.3573  -18.7075   -7.3487 C   0  0  0  0  0  0  0  0  0  0  0  0
   28.1569  -18.4171   -6.3169 N   0  0  0  0  0  0  0  0  0  0  0  0
   28.4223  -19.5262   -5.5671 C   0  0  0  0  0  0  0  0  0  0  0  0
   29.1715  -19.7250   -4.4321 C   0  0  0  0  0  0  0  0  0  0  0  0
   29.2604  -20.9693   -3.8747 C   0  0  0  0  0  0  0  0  0  0  0  0
   28.5881  -22.0164   -4.4687 C   0  0  0  0  0  0  0  0  0  0  0  0
   27.8437  -21.8061   -5.6013 C   0  0  0  0  0  0  0  0  0  0  0  0
   27.7364  -20.5510   -6.1902 C   0  0  0  0  0  0  0  0  0  0  0  0
   26.2570  -21.0403  -10.6835 C   0  0  0  0  0  0  0  0  0  0  0  0
   26.1662  -19.8473  -11.0846 O   0  0  0  0  0  0  0  0  0  0  0  0
   25.6278  -22.0199  -11.4999 N   0  0  0  0  0  0  0  0  0  0  0  0
   24.9605  -21.6653  -12.7357 C   0  0  1  0  0  0  0  0  0  0  0  0
   24.9717  -22.8835  -13.6340 C   0  0  0  0  0  0  0  0  0  0  0  0
   24.2466  -22.4108  -15.2271 S   0  0  0  0  0  0  0  0  0  0  0  0
   23.5434  -21.2918  -12.5228 C   0  0  0  0  0  0  0  0  0  0  0  0
   22.7325  -21.9226  -11.8068 O   0  0  0  0  0  0  0  0  0  0  0  0
   23.0711  -20.1264  -13.1839 N   0  0  0  0  0  0  0  0  0  0  0  0
   21.6885  -19.6617  -12.9590 C   0  0  1  0  0  0  0  0  0  0  0  0
   21.6303  -18.2558  -13.4927 C   0  0  0  0  0  0  0  0  0  0  0  0
   20.3319  -17.6036  -13.4369 C   0  0  0  0  0  0  0  0  0  0  0  0
   19.1577  -18.0104  -12.8674 C   0  0  0  0  0  0  0  0  0  0  0  0
   18.2422  -17.0211  -13.0312 N   0  0  0  0  0  0  0  0  0  0  0  0
   18.8178  -16.0220  -13.6810 C   0  0  0  0  0  0  0  0  0  0  0  0
   20.0716  -16.3523  -13.9331 N   0  0  0  0  0  0  0  0  0  0  0  0
   20.8599  -20.5006  -13.8975 C   0  0  0  0  0  0  0  0  0  0  0  0
   19.5864  -20.9503  -13.6511 O   0  0  0  0  0  0  0  0  0  0  0  0
   21.4039  -20.8101  -15.0132 O   0  0  0  0  0  0  0  0  0  0  0  0
  2  1  1  6
  2  3  1  0
  3  4  1  0
  4  5  2  0
  6  5  1  0
  7  6  1  0
  8  7  2  0
  9  8  1  0
 10 11  1  0
 10  9  2  0
 11 12  2  0
 12  7  1  0
 12  4  1  0
 13  2  1  0
 13 15  1  0
 14 13  2  0
 16 15  1  0
 16 17  1  6
 17 18  1  0
 19 16  1  0
 20 19  2  0
 21 19  1  0
 22 21  1  0
 23 24  1  0
 22 23  1  6
 24 25  2  0
 26 25  1  0
 27 26  1  0
 28 27  2  0
 28 24  1  0
 29 22  1  0
 29 30  1  0
 31 29  2  0
M  END
$$$$
