WCH.pdb
     RDKit          3D

 31 33  0  0  1  0  0  0  0  0999 V2000
   25.8141  -22.8910  -12.2163 N   0  0  0  0  0  0  0  0  0  0  0  0
   25.3802  -21.8097  -11.3965 C   0  0  1  0  0  0  0  0  0  0  0  0
   26.3369  -20.6561  -11.5215 C   0  0  0  0  0  0  0  0  0  0  0  0
   27.5393  -20.7430  -10.6994 C   0  0  0  0  0  0  0  0  0  0  0  0
   28.7721  -21.1161  -11.1858 C   0  0  0  0  0  0  0  0  0  0  0  0
   29.6262  -21.1084  -10.1569 N   0  0  0  0  0  0  0  0  0  0  0  0
   29.0045  -20.7418   -8.9984 C   0  0  0  0  0  0  0  0  0  0  0  0
   29.4549  -20.5866   -7.7092 C   0  0  0  0  0  0  0  0  0  0  0  0
   28.5958  -20.1931   -6.7223 C   0  0  0  0  0  0  0  0  0  0  0  0
   27.2757  -19.9556   -7.0419 C   0  0  0  0  0  0  0  0  0  0  0  0
   26.8376  -20.1140   -8.3320 C   0  0  0  0  0  0  0  0  0  0  0  0
   27.6894  -20.5141   -9.3556 C   0  0  0  0  0  0  0  0  0  0  0  0
   24.0026  -21.3280  -11.7299 C   0  0  0  0  0  0  0  0  0  0  0  0
   23.5723  -21.3749  -12.9152 O   0  0  0  0  0  0  0  0  0  0  0  0
   23.1047  -20.7974  -10.7634 N   0  0  0  0  0  0  0  0  0  0  0  0
   21.6714  -20.8029  -10.9731 C   0  0  1  0  0  0  0  0  0  0  0  0
   21.0045  -20.7749   -9.6146 C   0  0  0  0  0  0  0  0  0  0  0  0
   21.2314  -22.4013   -8.8462 S   0  0  0  0  0  0  0  0  0  0  0  0
   21.2065  -19.6075  -11.7134 C   0  0  0  0  0  0  0  0  0  0  0  0
   21.4824  -18.4232  -11.4141 O   0  0  0  0  0  0  0  0  0  0  0  0
   20.3840  -19.8254  -12.8509 N   0  0  0  0  0  0  0  0  0  0  0  0
   19.9281  -18.6787  -13.6604 C   0  0  1  0  0  0  0  0  0  0  0  0
   19.9988  -19.1280  -15.0949 C   0  0  0  0  0  0  0  0  0  0  0  0
   19.6020  -18.1475  -16.0927 C   0  0  0  0  0  0  0  0  0  0  0  0
   19.2734  -16.8274  -15.9587 C   0  0  0  0  0  0  0  0  0  0  0  0
   19.0335  -16.3228  -17.1962 N   0  0  0  0  0  0  0  0  0  0  0  0
   19.2056  -17.2900  -18.0830 C   0  0  0  0  0  0  0  0  0  0  0  0
   19.5472  -18.3925  -17.4406 N   0  0  0  0  0  0  0  0  0  0  0  0
   18.4626  -18.5545  -13.3320 C   0  0  0  0  0  0  0  0  0  0  0  0
   17.7559  -17.3790  -13.2726 O   0  0  0  0  0  0  0  0  0  0  0  0
   17.8399  -19.6459  -13.0919 O   0  0  0  0  0  0  0  0  0  0  0  0
  2  1  1  6
  2  3  1  0
  3  4  1  0
  4  5  2  0
  6  5  1  0
  7  6  1  0
  8  7  2  0
  9  8  1  0
 10 11  1  0
 10  9  2  0
 11 12  2  0
 12  7  1  0
 12  4  1  0
 13  2  1  0
 13 15  1  0
 14 13  2  0
 16 15  1  0
 16 17  1  1
 17 18  1  0
 19 16  1  0
 20 19  2  0
 21 19  1  0
 22 21  1  0
 23 24  1  0
 22 23  1  6
 24 25  2  0
 26 25  1  0
 27 26  1  0
 28 27  2  0
 28 24  1  0
 29 22  1  0
 29 30  1  0
 31 29  2  0
M  END
$$$$
