WCH.pdb
     RDKit          3D

 31 33  0  0  1  0  0  0  0  0999 V2000
   26.0374  -33.7413   -6.2035 N   0  0  0  0  0  0  0  0  0  0  0  0
   25.0370  -34.2061   -5.3020 C   0  0  1  0  0  0  0  0  0  0  0  0
   24.7934  -35.6740   -5.5197 C   0  0  0  0  0  0  0  0  0  0  0  0
   23.6943  -36.2508   -4.7526 C   0  0  0  0  0  0  0  0  0  0  0  0
   22.3864  -35.8342   -4.8599 C   0  0  0  0  0  0  0  0  0  0  0  0
   21.6643  -36.5608   -4.0004 N   0  0  0  0  0  0  0  0  0  0  0  0
   22.4468  -37.4501   -3.3223 C   0  0  0  0  0  0  0  0  0  0  0  0
   22.1670  -38.3927   -2.3620 C   0  0  0  0  0  0  0  0  0  0  0  0
   23.1663  -39.1704   -1.8487 C   0  0  0  0  0  0  0  0  0  0  0  0
   24.4537  -38.9932   -2.3094 C   0  0  0  0  0  0  0  0  0  0  0  0
   24.7210  -38.0492   -3.2679 C   0  0  0  0  0  0  0  0  0  0  0  0
   23.7241  -37.2436   -3.8070 C   0  0  0  0  0  0  0  0  0  0  0  0
   25.3867  -33.9865   -3.8631 C   0  0  0  0  0  0  0  0  0  0  0  0
   26.5543  -34.2129   -3.4414 O   0  0  0  0  0  0  0  0  0  0  0  0
   24.4556  -33.5209   -2.8945 N   0  0  0  0  0  0  0  0  0  0  0  0
   24.8521  -33.2476   -1.5284 C   0  0  1  0  0  0  0  0  0  0  0  0
   24.1342  -31.9927   -1.0801 C   0  0  0  0  0  0  0  0  0  0  0  0
   25.2879  -30.6026   -1.2342 S   0  0  0  0  0  0  0  0  0  0  0  0
   24.4579  -34.3322   -0.6003 C   0  0  0  0  0  0  0  0  0  0  0  0
   23.3641  -34.9413   -0.6282 O   0  0  0  0  0  0  0  0  0  0  0  0
   25.3964  -34.7081    0.3976 N   0  0  0  0  0  0  0  0  0  0  0  0
   25.0816  -35.8112    1.3261 C   0  0  1  0  0  0  0  0  0  0  0  0
   26.4040  -36.3080    1.8453 C   0  0  0  0  0  0  0  0  0  0  0  0
   27.1646  -37.1609    0.9462 C   0  0  0  0  0  0  0  0  0  0  0  0
   27.1450  -37.2545   -0.4175 C   0  0  0  0  0  0  0  0  0  0  0  0
   28.0856  -38.1587   -0.7935 N   0  0  0  0  0  0  0  0  0  0  0  0
   28.6808  -38.6204    0.2946 C   0  0  0  0  0  0  0  0  0  0  0  0
   28.1424  -38.0337    1.3485 N   0  0  0  0  0  0  0  0  0  0  0  0
   24.4035  -35.1330    2.4885 C   0  0  0  0  0  0  0  0  0  0  0  0
   23.8618  -35.7698    3.5775 O   0  0  0  0  0  0  0  0  0  0  0  0
   24.3362  -33.8563    2.4408 O   0  0  0  0  0  0  0  0  0  0  0  0
  2  1  1  6
  2  3  1  0
  3  4  1  0
  4  5  2  0
  6  5  1  0
  7  6  1  0
  8  7  2  0
  9  8  1  0
 10 11  1  0
 10  9  2  0
 11 12  2  0
 12  7  1  0
 12  4  1  0
 13  2  1  0
 13 15  1  0
 14 13  2  0
 16 15  1  0
 16 17  1  1
 17 18  1  0
 19 16  1  0
 20 19  2  0
 21 19  1  0
 22 21  1  0
 23 24  1  0
 22 23  1  1
 24 25  2  0
 26 25  1  0
 27 26  1  0
 28 27  2  0
 28 24  1  0
 29 22  1  0
 29 30  1  0
 31 29  2  0
M  END
$$$$
