WCH.pdb
     RDKit          3D

 31 33  0  0  1  0  0  0  0  0999 V2000
   26.1950  -22.7842  -12.7351 N   0  0  0  0  0  0  0  0  0  0  0  0
   25.6440  -21.8553  -11.8062 C   0  0  1  0  0  0  0  0  0  0  0  0
   26.5357  -20.6491  -11.6978 C   0  0  0  0  0  0  0  0  0  0  0  0
   27.6325  -20.7603  -10.7420 C   0  0  0  0  0  0  0  0  0  0  0  0
   28.9198  -21.1006  -11.0923 C   0  0  0  0  0  0  0  0  0  0  0  0
   29.6447  -21.1295   -9.9690 N   0  0  0  0  0  0  0  0  0  0  0  0
   28.8841  -20.8191   -8.8791 C   0  0  0  0  0  0  0  0  0  0  0  0
   29.1751  -20.7156   -7.5399 C   0  0  0  0  0  0  0  0  0  0  0  0
   28.1989  -20.3731   -6.6475 C   0  0  0  0  0  0  0  0  0  0  0  0
   26.9231  -20.1342   -7.1127 C   0  0  0  0  0  0  0  0  0  0  0  0
   26.6444  -20.2407   -8.4515 C   0  0  0  0  0  0  0  0  0  0  0  0
   27.6179  -20.5883   -9.3815 C   0  0  0  0  0  0  0  0  0  0  0  0
   24.2647  -21.4005  -12.1691 C   0  0  0  0  0  0  0  0  0  0  0  0
   23.8409  -21.5079  -13.3528 O   0  0  0  0  0  0  0  0  0  0  0  0
   23.3580  -20.8306  -11.2337 N   0  0  0  0  0  0  0  0  0  0  0  0
   21.9578  -20.6390  -11.5517 C   0  0  1  0  0  0  0  0  0  0  0  0
   21.2467  -20.2255  -10.2810 C   0  0  0  0  0  0  0  0  0  0  0  0
   19.4788  -20.0735  -10.6532 S   0  0  0  0  0  0  0  0  0  0  0  0
   21.7485  -19.5578  -12.5417 C   0  0  0  0  0  0  0  0  0  0  0  0
   22.1126  -18.3684  -12.3964 O   0  0  0  0  0  0  0  0  0  0  0  0
   21.0827  -19.9005  -13.7489 N   0  0  0  0  0  0  0  0  0  0  0  0
   20.7764  -18.8540  -14.7435 C   0  0  1  0  0  0  0  0  0  0  0  0
   20.8270  -19.5298  -16.0872 C   0  0  0  0  0  0  0  0  0  0  0  0
   20.5369  -18.6889  -17.2375 C   0  0  0  0  0  0  0  0  0  0  0  0
   20.3396  -17.3389  -17.3232 C   0  0  0  0  0  0  0  0  0  0  0  0
   20.1602  -17.0192  -18.6306 N   0  0  0  0  0  0  0  0  0  0  0  0
   20.2424  -18.1285  -19.3477 C   0  0  0  0  0  0  0  0  0  0  0  0
   20.4683  -19.1410  -18.5300 N   0  0  0  0  0  0  0  0  0  0  0  0
   19.3274  -18.5223  -14.4958 C   0  0  0  0  0  0  0  0  0  0  0  0
   18.7412  -17.3000  -14.7127 O   0  0  0  0  0  0  0  0  0  0  0  0
   18.5963  -19.4711  -14.0464 O   0  0  0  0  0  0  0  0  0  0  0  0
  2  1  1  6
  2  3  1  0
  3  4  1  0
  4  5  2  0
  6  5  1  0
  7  6  1  0
  8  7  2  0
  9  8  1  0
 10 11  1  0
 10  9  2  0
 11 12  2  0
 12  7  1  0
 12  4  1  0
 13  2  1  0
 13 15  1  0
 14 13  2  0
 16 15  1  0
 16 17  1  1
 17 18  1  0
 19 16  1  0
 20 19  2  0
 21 19  1  0
 22 21  1  0
 23 24  1  0
 22 23  1  6
 24 25  2  0
 26 25  1  0
 27 26  1  0
 28 27  2  0
 28 24  1  0
 29 22  1  0
 29 30  1  0
 31 29  2  0
M  END
$$$$
