WCH.pdb
     RDKit          3D

 31 33  0  0  1  0  0  0  0  0999 V2000
   16.5004  -20.1702    2.7095 N   0  0  0  0  0  0  0  0  0  0  0  0
   17.5174  -19.3423    3.2660 C   0  0  1  0  0  0  0  0  0  0  0  0
   17.7772  -18.1707    2.3594 C   0  0  0  0  0  0  0  0  0  0  0  0
   18.7710  -18.3912    1.3141 C   0  0  0  0  0  0  0  0  0  0  0  0
   18.5853  -19.2468    0.2515 C   0  0  0  0  0  0  0  0  0  0  0  0
   19.7008  -19.2160   -0.4854 N   0  0  0  0  0  0  0  0  0  0  0  0
   20.6260  -18.3672    0.0497 C   0  0  0  0  0  0  0  0  0  0  0  0
   21.8929  -18.0050   -0.3412 C   0  0  0  0  0  0  0  0  0  0  0  0
   22.6107  -17.1064    0.3964 C   0  0  0  0  0  0  0  0  0  0  0  0
   22.0436  -16.5723    1.5341 C   0  0  0  0  0  0  0  0  0  0  0  0
   20.7786  -16.9414    1.9146 C   0  0  0  0  0  0  0  0  0  0  0  0
   20.0261  -17.8541    1.1836 C   0  0  0  0  0  0  0  0  0  0  0  0
   17.1824  -18.8269    4.6309 C   0  0  0  0  0  0  0  0  0  0  0  0
   15.9990  -18.5021    4.9250 O   0  0  0  0  0  0  0  0  0  0  0  0
   18.1451  -18.6701    5.6655 N   0  0  0  0  0  0  0  0  0  0  0  0
   17.7743  -18.1997    6.9844 C   0  0  1  0  0  0  0  0  0  0  0  0
   18.6297  -18.9333    7.9950 C   0  0  0  0  0  0  0  0  0  0  0  0
   18.1905  -20.6911    7.9290 S   0  0  0  0  0  0  0  0  0  0  0  0
   18.0347  -16.7524    7.1595 C   0  0  0  0  0  0  0  0  0  0  0  0
   18.9819  -16.1229    6.6354 O   0  0  0  0  0  0  0  0  0  0  0  0
   17.1377  -16.0251    7.9869 N   0  0  0  0  0  0  0  0  0  0  0  0
   17.3205  -14.5725    8.1721 C   0  0  1  0  0  0  0  0  0  0  0  0
   16.0554  -13.9273    7.6740 C   0  0  0  0  0  0  0  0  0  0  0  0
   15.9254  -13.8039    6.2310 C   0  0  0  0  0  0  0  0  0  0  0  0
   16.7871  -13.2895    5.3027 C   0  0  0  0  0  0  0  0  0  0  0  0
   16.2347  -13.4566    4.0736 N   0  0  0  0  0  0  0  0  0  0  0  0
   15.0644  -14.0572    4.2190 C   0  0  0  0  0  0  0  0  0  0  0  0
   14.8610  -14.2741    5.5060 N   0  0  0  0  0  0  0  0  0  0  0  0
   17.3235  -14.3887    9.6679 C   0  0  0  0  0  0  0  0  0  0  0  0
   17.5469  -13.2041   10.3249 O   0  0  0  0  0  0  0  0  0  0  0  0
   17.0964  -15.4343   10.3691 O   0  0  0  0  0  0  0  0  0  0  0  0
  2  1  1  6
  2  3  1  0
  3  4  1  0
  4  5  2  0
  6  5  1  0
  7  6  1  0
  8  7  2  0
  9  8  1  0
 10 11  1  0
 10  9  2  0
 11 12  2  0
 12  7  1  0
 12  4  1  0
 13  2  1  0
 13 15  1  0
 14 13  2  0
 16 15  1  0
 16 17  1  1
 17 18  1  0
 19 16  1  0
 20 19  2  0
 21 19  1  0
 22 21  1  0
 23 24  1  0
 22 23  1  6
 24 25  2  0
 26 25  1  0
 27 26  1  0
 28 27  2  0
 28 24  1  0
 29 22  1  0
 29 30  1  0
 31 29  2  0
M  END
$$$$
