WCH.pdb
     RDKit          3D

 31 33  0  0  1  0  0  0  0  0999 V2000
   25.6668  -22.4094  -12.0881 N   0  0  0  0  0  0  0  0  0  0  0  0
   25.1939  -21.0700  -11.9805 C   0  0  1  0  0  0  0  0  0  0  0  0
   26.0538  -20.1551  -12.8083 C   0  0  0  0  0  0  0  0  0  0  0  0
   27.4642  -20.1096  -12.4375 C   0  0  0  0  0  0  0  0  0  0  0  0
   28.4576  -19.6399  -13.2671 C   0  0  0  0  0  0  0  0  0  0  0  0
   29.6173  -19.7690  -12.6140 N   0  0  0  0  0  0  0  0  0  0  0  0
   29.4316  -20.3093  -11.3745 C   0  0  0  0  0  0  0  0  0  0  0  0
   30.2995  -20.6215  -10.3556 C   0  0  0  0  0  0  0  0  0  0  0  0
   29.8292  -21.1588   -9.1907 C   0  0  0  0  0  0  0  0  0  0  0  0
   28.4750  -21.3807   -9.0568 C   0  0  0  0  0  0  0  0  0  0  0  0
   27.6184  -21.0654  -10.0805 C   0  0  0  0  0  0  0  0  0  0  0  0
   28.0693  -20.5186  -11.2768 C   0  0  0  0  0  0  0  0  0  0  0  0
   23.7692  -20.9074  -12.4102 C   0  0  0  0  0  0  0  0  0  0  0  0
   23.3462  -21.4595  -13.4631 O   0  0  0  0  0  0  0  0  0  0  0  0
   22.8163  -20.1409  -11.6847 N   0  0  0  0  0  0  0  0  0  0  0  0
   21.3933  -20.2777  -11.9186 C   0  0  1  0  0  0  0  0  0  0  0  0
   20.6849  -20.0716  -10.5969 C   0  0  0  0  0  0  0  0  0  0  0  0
   21.4745  -21.1429   -9.3657 S   0  0  0  0  0  0  0  0  0  0  0  0
   20.8763  -19.2546  -12.8562 C   0  0  0  0  0  0  0  0  0  0  0  0
   21.1848  -18.0410  -12.8389 O   0  0  0  0  0  0  0  0  0  0  0  0
   19.9595  -19.6876  -13.8512 N   0  0  0  0  0  0  0  0  0  0  0  0
   19.5279  -18.7550  -14.9104 C   0  0  1  0  0  0  0  0  0  0  0  0
   19.7822  -19.4609  -16.2150 C   0  0  0  0  0  0  0  0  0  0  0  0
   21.1617  -19.4783  -16.6747 C   0  0  0  0  0  0  0  0  0  0  0  0
   22.2797  -18.8921  -16.1503 C   0  0  0  0  0  0  0  0  0  0  0  0
   23.3443  -19.2537  -16.9116 N   0  0  0  0  0  0  0  0  0  0  0  0
   22.9148  -20.0427  -17.8835 C   0  0  0  0  0  0  0  0  0  0  0  0
   21.6081  -20.1897  -17.7583 N   0  0  0  0  0  0  0  0  0  0  0  0
   18.0304  -18.6880  -14.7554 C   0  0  0  0  0  0  0  0  0  0  0  0
   17.2005  -17.8076  -15.4043 O   0  0  0  0  0  0  0  0  0  0  0  0
   17.5047  -19.5297  -13.9481 O   0  0  0  0  0  0  0  0  0  0  0  0
  2  1  1  6
  2  3  1  0
  3  4  1  0
  4  5  2  0
  6  5  1  0
  7  6  1  0
  8  7  2  0
  9  8  1  0
 10 11  1  0
 10  9  2  0
 11 12  2  0
 12  7  1  0
 12  4  1  0
 13  2  1  0
 13 15  1  0
 14 13  2  0
 16 15  1  0
 16 17  1  1
 17 18  1  0
 19 16  1  0
 20 19  2  0
 21 19  1  0
 22 21  1  0
 23 24  1  0
 22 23  1  6
 24 25  2  0
 26 25  1  0
 27 26  1  0
 28 27  2  0
 28 24  1  0
 29 22  1  0
 29 30  1  0
 31 29  2  0
M  END
$$$$
