WCH.pdb
     RDKit          3D

 31 33  0  0  1  0  0  0  0  0999 V2000
   21.5380  -12.9224    7.2372 N   0  0  0  0  0  0  0  0  0  0  0  0
   20.8069  -14.0242    7.7672 C   0  0  1  0  0  0  0  0  0  0  0  0
   20.2313  -14.8440    6.6455 C   0  0  0  0  0  0  0  0  0  0  0  0
   19.3888  -14.1170    5.7017 C   0  0  0  0  0  0  0  0  0  0  0  0
   19.1384  -12.7657    5.7849 C   0  0  0  0  0  0  0  0  0  0  0  0
   18.3152  -12.4497    4.7796 N   0  0  0  0  0  0  0  0  0  0  0  0
   18.0077  -13.5457    4.0265 C   0  0  0  0  0  0  0  0  0  0  0  0
   17.2228  -13.7185    2.9116 C   0  0  0  0  0  0  0  0  0  0  0  0
   17.0946  -14.9550    2.3446 C   0  0  0  0  0  0  0  0  0  0  0  0
   17.7638  -16.0206    2.9084 C   0  0  0  0  0  0  0  0  0  0  0  0
   18.5441  -15.8361    4.0212 C   0  0  0  0  0  0  0  0  0  0  0  0
   18.6917  -14.5895    4.6193 C   0  0  0  0  0  0  0  0  0  0  0  0
   21.6309  -14.9183    8.6403 C   0  0  0  0  0  0  0  0  0  0  0  0
   22.7924  -15.2677    8.2920 O   0  0  0  0  0  0  0  0  0  0  0  0
   21.1781  -15.4248    9.8895 N   0  0  0  0  0  0  0  0  0  0  0  0
   21.9297  -16.4223   10.6231 C   0  0  1  0  0  0  0  0  0  0  0  0
   22.6773  -15.7151   11.7332 C   0  0  0  0  0  0  0  0  0  0  0  0
   23.9851  -16.8241   12.3221 S   0  0  0  0  0  0  0  0  0  0  0  0
   21.0529  -17.4315   11.2601 C   0  0  0  0  0  0  0  0  0  0  0  0
   19.9495  -17.1884   11.7999 O   0  0  0  0  0  0  0  0  0  0  0  0
   21.5021  -18.7793   11.2563 N   0  0  0  0  0  0  0  0  0  0  0  0
   20.7023  -19.8237   11.9253 C   0  0  1  0  0  0  0  0  0  0  0  0
   20.3163  -20.8040   10.8506 C   0  0  0  0  0  0  0  0  0  0  0  0
   19.3518  -20.3317    9.8703 C   0  0  0  0  0  0  0  0  0  0  0  0
   18.0957  -19.8186   10.0364 C   0  0  0  0  0  0  0  0  0  0  0  0
   17.6177  -19.4650    8.8157 N   0  0  0  0  0  0  0  0  0  0  0  0
   18.5401  -19.7437    7.9084 C   0  0  0  0  0  0  0  0  0  0  0  0
   19.5880  -20.2642    8.5215 N   0  0  0  0  0  0  0  0  0  0  0  0
   21.6929  -20.5384   12.8080 C   0  0  0  0  0  0  0  0  0  0  0  0
   21.4211  -21.6385   13.5830 O   0  0  0  0  0  0  0  0  0  0  0  0
   22.8823  -20.0677   12.8240 O   0  0  0  0  0  0  0  0  0  0  0  0
  2  1  1  6
  2  3  1  0
  3  4  1  0
  4  5  2  0
  6  5  1  0
  7  6  1  0
  8  7  2  0
  9  8  1  0
 10 11  1  0
 10  9  2  0
 11 12  2  0
 12  7  1  0
 12  4  1  0
 13  2  1  0
 13 15  1  0
 14 13  2  0
 16 15  1  0
 16 17  1  1
 17 18  1  0
 19 16  1  0
 20 19  2  0
 21 19  1  0
 22 21  1  0
 23 24  1  0
 22 23  1  6
 24 25  2  0
 26 25  1  0
 27 26  1  0
 28 27  2  0
 28 24  1  0
 29 22  1  0
 29 30  1  0
 31 29  2  0
M  END
$$$$
