WCH.pdb
     RDKit          3D

 31 33  0  0  1  0  0  0  0  0999 V2000
   21.7652   -9.9221  -16.2734 N   0  0  0  0  0  0  0  0  0  0  0  0
   21.8620   -8.6969  -16.9937 C   0  0  1  0  0  0  0  0  0  0  0  0
   21.1343   -8.8144  -18.3046 C   0  0  0  0  0  0  0  0  0  0  0  0
   21.6058   -9.8702  -19.1945 C   0  0  0  0  0  0  0  0  0  0  0  0
   20.9470  -11.0650  -19.3788 C   0  0  0  0  0  0  0  0  0  0  0  0
   21.6718  -11.7926  -20.2352 N   0  0  0  0  0  0  0  0  0  0  0  0
   22.7936  -11.1228  -20.6299 C   0  0  0  0  0  0  0  0  0  0  0  0
   23.8199  -11.4484  -21.4842 C   0  0  0  0  0  0  0  0  0  0  0  0
   24.8372  -10.5640  -21.7070 C   0  0  0  0  0  0  0  0  0  0  0  0
   24.8154   -9.3452  -21.0625 C   0  0  0  0  0  0  0  0  0  0  0  0
   23.7861   -9.0314  -20.2120 C   0  0  0  0  0  0  0  0  0  0  0  0
   22.7387   -9.9123  -19.9662 C   0  0  0  0  0  0  0  0  0  0  0  0
   21.3129   -7.5231  -16.2443 C   0  0  0  0  0  0  0  0  0  0  0  0
   20.1513   -7.5581  -15.7525 O   0  0  0  0  0  0  0  0  0  0  0  0
   22.0387   -6.3178  -16.0384 N   0  0  0  0  0  0  0  0  0  0  0  0
   21.4414   -5.1730  -15.3820 C   0  0  1  0  0  0  0  0  0  0  0  0
   22.4912   -4.5541  -14.4842 C   0  0  0  0  0  0  0  0  0  0  0  0
   24.0599   -4.5282  -15.3928 S   0  0  0  0  0  0  0  0  0  0  0  0
   21.0187   -4.1299  -16.3444 C   0  0  0  0  0  0  0  0  0  0  0  0
   21.4686   -3.9969  -17.5055 O   0  0  0  0  0  0  0  0  0  0  0  0
   20.0252   -3.2105  -15.9132 N   0  0  0  0  0  0  0  0  0  0  0  0
   19.5872   -2.1248  -16.8117 C   0  0  1  0  0  0  0  0  0  0  0  0
   18.6307   -2.7538  -17.7886 C   0  0  0  0  0  0  0  0  0  0  0  0
   17.9795   -1.8471  -18.7204 C   0  0  0  0  0  0  0  0  0  0  0  0
   18.4981   -1.0984  -19.7397 C   0  0  0  0  0  0  0  0  0  0  0  0
   17.4729   -0.4598  -20.3602 N   0  0  0  0  0  0  0  0  0  0  0  0
   16.3444   -0.7939  -19.7551 C   0  0  0  0  0  0  0  0  0  0  0  0
   16.6273   -1.6257  -18.7688 N   0  0  0  0  0  0  0  0  0  0  0  0
   18.7563   -1.2286  -15.9299 C   0  0  0  0  0  0  0  0  0  0  0  0
   18.5157    0.1050  -16.1497 O   0  0  0  0  0  0  0  0  0  0  0  0
   18.2384   -1.7727  -14.8943 O   0  0  0  0  0  0  0  0  0  0  0  0
  2  1  1  1
  2  3  1  0
  3  4  1  0
  4  5  2  0
  6  5  1  0
  7  6  1  0
  8  7  2  0
  9  8  1  0
 10 11  1  0
 10  9  2  0
 11 12  2  0
 12  7  1  0
 12  4  1  0
 13  2  1  0
 13 15  1  0
 14 13  2  0
 16 15  1  0
 16 17  1  1
 17 18  1  0
 19 16  1  0
 20 19  2  0
 21 19  1  0
 22 21  1  0
 23 24  1  0
 22 23  1  6
 24 25  2  0
 26 25  1  0
 27 26  1  0
 28 27  2  0
 28 24  1  0
 29 22  1  0
 29 30  1  0
 31 29  2  0
M  END
$$$$
