WCH.pdb
     RDKit          3D

 31 33  0  0  1  0  0  0  0  0999 V2000
   21.2384  -15.3849  -17.4549 N   0  0  0  0  0  0  0  0  0  0  0  0
   21.1711  -14.0514  -17.9516 C   0  0  1  0  0  0  0  0  0  0  0  0
   19.8543  -13.8282  -18.6430 C   0  0  0  0  0  0  0  0  0  0  0  0
   19.6103  -14.6594  -19.8172 C   0  0  0  0  0  0  0  0  0  0  0  0
   19.0277  -15.9057  -19.7633 C   0  0  0  0  0  0  0  0  0  0  0  0
   18.9848  -16.3806  -21.0127 N   0  0  0  0  0  0  0  0  0  0  0  0
   19.5193  -15.4921  -21.9001 C   0  0  0  0  0  0  0  0  0  0  0  0
   19.6897  -15.5265  -23.2635 C   0  0  0  0  0  0  0  0  0  0  0  0
   20.2615  -14.4691  -23.9130 C   0  0  0  0  0  0  0  0  0  0  0  0
   20.6621  -13.3725  -23.1793 C   0  0  0  0  0  0  0  0  0  0  0  0
   20.4872  -13.3495  -21.8192 C   0  0  0  0  0  0  0  0  0  0  0  0
   19.9093  -14.4115  -21.1324 C   0  0  0  0  0  0  0  0  0  0  0  0
   21.3352  -13.0124  -16.8865 C   0  0  0  0  0  0  0  0  0  0  0  0
   20.4491  -12.8490  -16.0031 O   0  0  0  0  0  0  0  0  0  0  0  0
   22.4685  -12.1584  -16.7954 N   0  0  0  0  0  0  0  0  0  0  0  0
   22.5529  -11.1105  -15.7989 C   0  0  1  0  0  0  0  0  0  0  0  0
   24.0141  -10.7584  -15.6198 C   0  0  0  0  0  0  0  0  0  0  0  0
   24.8319  -12.1588  -14.8092 S   0  0  0  0  0  0  0  0  0  0  0  0
   21.8537   -9.8751  -16.2209 C   0  0  0  0  0  0  0  0  0  0  0  0
   21.8164   -9.4335  -17.3921 O   0  0  0  0  0  0  0  0  0  0  0  0
   21.1736   -9.1365  -15.2159 N   0  0  0  0  0  0  0  0  0  0  0  0
   20.5096   -7.8642  -15.5598 C   0  0  1  0  0  0  0  0  0  0  0  0
   19.0896   -7.9926  -15.0780 C   0  0  0  0  0  0  0  0  0  0  0  0
   18.1606   -8.6399  -15.9903 C   0  0  0  0  0  0  0  0  0  0  0  0
   18.3647   -9.1820  -17.2285 C   0  0  0  0  0  0  0  0  0  0  0  0
   17.1935   -9.7230  -17.6523 N   0  0  0  0  0  0  0  0  0  0  0  0
   16.2802   -9.5309  -16.7140 C   0  0  0  0  0  0  0  0  0  0  0  0
   16.8410   -8.8830  -15.7087 N   0  0  0  0  0  0  0  0  0  0  0  0
   21.1671   -6.8498  -14.6598 C   0  0  0  0  0  0  0  0  0  0  0  0
   21.0555   -5.4868  -14.7799 O   0  0  0  0  0  0  0  0  0  0  0  0
   21.8852   -7.3151  -13.7088 O   0  0  0  0  0  0  0  0  0  0  0  0
  2  1  1  1
  2  3  1  0
  3  4  1  0
  4  5  2  0
  6  5  1  0
  7  6  1  0
  8  7  2  0
  9  8  1  0
 10 11  1  0
 10  9  2  0
 11 12  2  0
 12  7  1  0
 12  4  1  0
 13  2  1  0
 13 15  1  0
 14 13  2  0
 16 15  1  0
 16 17  1  6
 17 18  1  0
 19 16  1  0
 20 19  2  0
 21 19  1  0
 22 21  1  0
 23 24  1  0
 22 23  1  1
 24 25  2  0
 26 25  1  0
 27 26  1  0
 28 27  2  0
 28 24  1  0
 29 22  1  0
 29 30  1  0
 31 29  2  0
M  END
$$$$
