NNS.pdb
     RDKit          3D

 23 22  0  0  1  0  0  0  0  0999 V2000
    8.3624  -12.5259   16.1204 N   0  0  0  0  0  0  0  0  0  0  0  0
    7.9675  -13.8727   16.2407 C   0  0  0  0  0  0  0  0  0  0  0  0
    8.2096  -14.6794   15.3264 O   0  0  0  0  0  0  0  0  0  0  0  0
    7.2657  -14.3224   17.4572 C   0  0  0  0  0  0  0  0  0  0  0  0
    8.2618  -14.9546   18.3588 C   0  0  2  0  0  0  0  0  0  0  0  0
    8.9030  -16.0544   17.7127 N   0  0  0  0  0  0  0  0  0  0  0  0
    7.7626  -15.3478   19.6865 C   0  0  0  0  0  0  0  0  0  0  0  0
    7.3735  -14.4310   20.4548 O   0  0  0  0  0  0  0  0  0  0  0  0
    4.8419  -18.8206   23.3993 N   0  0  0  0  0  0  0  0  0  0  0  0
    6.1762  -18.8017   22.9168 C   0  0  0  0  0  0  0  0  0  0  0  0
    7.0662  -19.1901   23.7108 O   0  0  0  0  0  0  0  0  0  0  0  0
    6.5494  -18.3580   21.5620 C   0  0  0  0  0  0  0  0  0  0  0  0
    7.2660  -17.0754   21.4627 C   0  0  2  0  0  0  0  0  0  0  0  0
    7.6975  -16.6869   20.1388 N   0  0  0  0  0  0  0  0  0  0  0  0
    8.1848  -16.6670   22.5110 C   0  0  0  0  0  0  0  0  0  0  0  0
    9.4417  -16.8900   22.2719 O   0  0  0  0  0  0  0  0  0  0  0  0
    7.4065  -14.3540   25.9077 O   0  0  0  0  0  0  0  0  0  0  0  0
    8.6683  -14.3084   25.2876 C   0  0  0  0  0  0  0  0  0  0  0  0
    8.9700  -15.6429   24.6658 C   0  0  2  0  0  0  0  0  0  0  0  0
    7.9049  -16.0691   23.7481 N   0  0  0  0  0  0  0  0  0  0  0  0
    9.1830  -16.6851   25.6818 C   0  0  0  0  0  0  0  0  0  0  0  0
   10.2331  -16.6260   26.5796 O   0  0  0  0  0  0  0  0  0  0  0  0
    8.4009  -17.6840   25.7698 O   0  0  0  0  0  0  0  0  0  0  0  0
  1  2  1  0
  2  4  1  0
  3  2  2  0
  4  5  1  0
  5  6  1  6
  7  5  1  0
  8  7  2  0
 10  9  1  0
 11 10  2  0
 12 10  1  0
 13 12  1  6
 13 15  1  0
 13 14  1  0
 14  7  1  0
 15 20  1  0
 16 15  2  0
 18 17  1  0
 19 18  1  1
 19 21  1  0
 20 19  1  0
 21 23  2  0
 21 22  1  0
M  END
$$$$
