NNS.pdb
     RDKit          3D

 23 22  0  0  1  0  0  0  0  0999 V2000
   14.5325  -16.1214   14.8560 N   0  0  0  0  0  0  0  0  0  0  0  0
   13.1497  -15.8972   15.0040 C   0  0  0  0  0  0  0  0  0  0  0  0
   12.3381  -16.4933   14.2751 O   0  0  0  0  0  0  0  0  0  0  0  0
   12.6683  -14.9522   16.0285 C   0  0  0  0  0  0  0  0  0  0  0  0
   12.5560  -15.6835   17.3159 C   0  0  2  0  0  0  0  0  0  0  0  0
   11.7602  -16.8588   17.1625 N   0  0  0  0  0  0  0  0  0  0  0  0
   12.0951  -14.8871   18.4648 C   0  0  0  0  0  0  0  0  0  0  0  0
   12.9458  -14.1709   19.0527 O   0  0  0  0  0  0  0  0  0  0  0  0
    8.1040  -12.3133   18.0202 N   0  0  0  0  0  0  0  0  0  0  0  0
    8.3580  -13.5095   18.7399 C   0  0  0  0  0  0  0  0  0  0  0  0
    7.9989  -14.5803   18.1943 O   0  0  0  0  0  0  0  0  0  0  0  0
    9.0069  -13.5457   20.0625 C   0  0  0  0  0  0  0  0  0  0  0  0
   10.3258  -14.1969   20.1319 C   0  0  2  0  0  0  0  0  0  0  0  0
   10.7612  -14.8841   18.9370 N   0  0  0  0  0  0  0  0  0  0  0  0
   10.7598  -14.8429   21.3584 C   0  0  0  0  0  0  0  0  0  0  0  0
    9.8138  -15.3536   22.0871 O   0  0  0  0  0  0  0  0  0  0  0  0
   11.8342  -18.3947   23.1213 O   0  0  0  0  0  0  0  0  0  0  0  0
   11.9919  -17.4372   22.1029 C   0  0  0  0  0  0  0  0  0  0  0  0
   12.4415  -16.1352   22.7039 C   0  0  2  0  0  0  0  0  0  0  0  0
   12.0576  -14.9889   21.8691 N   0  0  0  0  0  0  0  0  0  0  0  0
   13.8949  -16.1085   22.9289 C   0  0  0  0  0  0  0  0  0  0  0  0
   14.4725  -16.6917   24.0417 O   0  0  0  0  0  0  0  0  0  0  0  0
   14.6761  -15.5437   22.0993 O   0  0  0  0  0  0  0  0  0  0  0  0
  1  2  1  0
  2  4  1  0
  3  2  2  0
  4  5  1  0
  5  6  1  6
  7  5  1  0
  8  7  2  0
 10  9  1  0
 11 10  2  0
 12 10  1  0
 13 12  1  1
 13 15  1  0
 13 14  1  0
 14  7  1  0
 15 20  1  0
 16 15  2  0
 18 17  1  0
 19 18  1  6
 19 21  1  0
 20 19  1  0
 21 23  2  0
 21 22  1  0
M  END
$$$$
