NNS.pdb
     RDKit          3D

 23 22  0  0  1  0  0  0  0  0999 V2000
    9.2819  -13.5892   17.4742 N   0  0  0  0  0  0  0  0  0  0  0  0
    7.9973  -13.2089   17.9094 C   0  0  0  0  0  0  0  0  0  0  0  0
    7.2220  -12.6239   17.1335 O   0  0  0  0  0  0  0  0  0  0  0  0
    7.5752  -13.5084   19.2902 C   0  0  0  0  0  0  0  0  0  0  0  0
    8.7050  -14.1763   19.9845 C   0  0  2  0  0  0  0  0  0  0  0  0
    9.0852  -15.3700   19.2999 N   0  0  0  0  0  0  0  0  0  0  0  0
    8.5080  -14.4378   21.4197 C   0  0  0  0  0  0  0  0  0  0  0  0
    8.0147  -13.5131   22.1152 O   0  0  0  0  0  0  0  0  0  0  0  0
    7.2456  -18.9740   21.6711 N   0  0  0  0  0  0  0  0  0  0  0  0
    7.0025  -18.0126   22.6861 C   0  0  0  0  0  0  0  0  0  0  0  0
    5.8162  -17.6298   22.8246 O   0  0  0  0  0  0  0  0  0  0  0  0
    8.0544  -17.4614   23.5586 C   0  0  0  0  0  0  0  0  0  0  0  0
    8.3886  -16.0396   23.3704 C   0  0  2  0  0  0  0  0  0  0  0  0
    8.8398  -15.6600   22.0506 N   0  0  0  0  0  0  0  0  0  0  0  0
    9.0319  -15.2914   24.4364 C   0  0  0  0  0  0  0  0  0  0  0  0
   10.3284  -15.2410   24.3815 O   0  0  0  0  0  0  0  0  0  0  0  0
    7.2153  -12.8043   27.1589 O   0  0  0  0  0  0  0  0  0  0  0  0
    8.5565  -12.5380   26.8284 C   0  0  0  0  0  0  0  0  0  0  0  0
    9.2470  -13.8213   26.4616 C   0  0  2  0  0  0  0  0  0  0  0  0
    8.4493  -14.6188   25.5202 N   0  0  0  0  0  0  0  0  0  0  0  0
    9.5575  -14.6348   27.6472 C   0  0  0  0  0  0  0  0  0  0  0  0
    9.1819  -15.9622   27.7409 O   0  0  0  0  0  0  0  0  0  0  0  0
   10.1883  -14.1399   28.6344 O   0  0  0  0  0  0  0  0  0  0  0  0
  1  2  1  0
  2  4  1  0
  3  2  2  0
  4  5  1  0
  5  6  1  6
  7  5  1  0
  8  7  2  0
 10  9  1  0
 11 10  2  0
 12 10  1  0
 13 12  1  1
 13 15  1  0
 13 14  1  0
 14  7  1  0
 15 20  1  0
 16 15  2  0
 18 17  1  0
 19 18  1  1
 19 21  1  0
 20 19  1  0
 21 23  2  0
 21 22  1  0
M  END
$$$$
