NNS.pdb
     RDKit          3D

 23 22  0  0  1  0  0  0  0  0999 V2000
    8.2017  -12.2407   16.8701 N   0  0  0  0  0  0  0  0  0  0  0  0
    7.9187  -13.6204   16.8444 C   0  0  0  0  0  0  0  0  0  0  0  0
    7.8253  -14.2195   15.7592 O   0  0  0  0  0  0  0  0  0  0  0  0
    7.7344  -14.3521   18.1114 C   0  0  0  0  0  0  0  0  0  0  0  0
    8.4921  -15.6261   18.0241 C   0  0  2  0  0  0  0  0  0  0  0  0
    7.8324  -16.5490   17.1574 N   0  0  0  0  0  0  0  0  0  0  0  0
    8.8225  -16.2621   19.3098 C   0  0  0  0  0  0  0  0  0  0  0  0
    7.8700  -16.5283   20.0870 O   0  0  0  0  0  0  0  0  0  0  0  0
   11.3195  -20.4288   22.3401 N   0  0  0  0  0  0  0  0  0  0  0  0
   11.7980  -19.1352   22.0067 C   0  0  0  0  0  0  0  0  0  0  0  0
   12.5801  -18.5971   22.8266 O   0  0  0  0  0  0  0  0  0  0  0  0
   11.4257  -18.4184   20.7741 C   0  0  0  0  0  0  0  0  0  0  0  0
   10.4619  -17.3145   20.9194 C   0  0  2  0  0  0  0  0  0  0  0  0
   10.1395  -16.5867   19.7127 N   0  0  0  0  0  0  0  0  0  0  0  0
   10.4780  -16.4803   22.1084 C   0  0  0  0  0  0  0  0  0  0  0  0
   11.4326  -15.6015   22.1628 O   0  0  0  0  0  0  0  0  0  0  0  0
    7.5412  -16.0359   24.9706 O   0  0  0  0  0  0  0  0  0  0  0  0
    8.4927  -15.0103   24.8237 C   0  0  0  0  0  0  0  0  0  0  0  0
    9.7955  -15.5979   24.3588 C   0  0  2  0  0  0  0  0  0  0  0  0
    9.6092  -16.4933   23.2091 N   0  0  0  0  0  0  0  0  0  0  0  0
   10.4838  -16.3255   25.4361 C   0  0  0  0  0  0  0  0  0  0  0  0
   10.9813  -15.6786   26.5523 O   0  0  0  0  0  0  0  0  0  0  0  0
   10.6450  -17.5856   25.3766 O   0  0  0  0  0  0  0  0  0  0  0  0
  1  2  1  0
  2  4  1  0
  3  2  2  0
  4  5  1  0
  5  6  1  6
  7  5  1  0
  8  7  2  0
 10  9  1  0
 11 10  2  0
 12 10  1  0
 13 12  1  6
 13 15  1  0
 13 14  1  0
 14  7  1  0
 15 20  1  0
 16 15  2  0
 18 17  1  0
 19 18  1  1
 19 21  1  0
 20 19  1  0
 21 23  2  0
 21 22  1  0
M  END
$$$$
