NNS.pdb
     RDKit          3D

 23 22  0  0  1  0  0  0  0  0999 V2000
    8.4394  -12.1260   17.8186 N   0  0  0  0  0  0  0  0  0  0  0  0
    7.9752  -13.4153   17.4923 C   0  0  0  0  0  0  0  0  0  0  0  0
    8.2092  -13.8990   16.3713 O   0  0  0  0  0  0  0  0  0  0  0  0
    7.2105  -14.1899   18.4870 C   0  0  0  0  0  0  0  0  0  0  0  0
    8.0909  -15.2634   19.0136 C   0  0  2  0  0  0  0  0  0  0  0  0
    7.8543  -16.4934   18.3288 N   0  0  0  0  0  0  0  0  0  0  0  0
    8.0541  -15.4620   20.4716 C   0  0  0  0  0  0  0  0  0  0  0  0
    8.6776  -14.6352   21.1856 O   0  0  0  0  0  0  0  0  0  0  0  0
    6.4854  -19.6563   23.1035 N   0  0  0  0  0  0  0  0  0  0  0  0
    5.6622  -18.5033   23.0235 C   0  0  0  0  0  0  0  0  0  0  0  0
    4.4433  -18.6978   22.8002 O   0  0  0  0  0  0  0  0  0  0  0  0
    6.1642  -17.1275   23.1869 C   0  0  0  0  0  0  0  0  0  0  0  0
    7.4375  -16.8071   22.5201 C   0  0  2  0  0  0  0  0  0  0  0  0
    7.3619  -16.5210   21.1051 N   0  0  0  0  0  0  0  0  0  0  0  0
    8.6583  -17.4938   22.9046 C   0  0  0  0  0  0  0  0  0  0  0  0
    8.7686  -18.7175   22.4839 O   0  0  0  0  0  0  0  0  0  0  0  0
   12.2213  -15.8633   23.9908 O   0  0  0  0  0  0  0  0  0  0  0  0
   12.1827  -17.1779   23.4917 C   0  0  0  0  0  0  0  0  0  0  0  0
   10.9168  -17.8493   23.9446 C   0  0  2  0  0  0  0  0  0  0  0  0
    9.7339  -17.0222   23.6708 N   0  0  0  0  0  0  0  0  0  0  0  0
   10.9561  -18.1837   25.3766 C   0  0  0  0  0  0  0  0  0  0  0  0
   11.9329  -19.0054   25.9081 O   0  0  0  0  0  0  0  0  0  0  0  0
   10.0853  -17.7232   26.1811 O   0  0  0  0  0  0  0  0  0  0  0  0
  1  2  1  0
  2  4  1  0
  3  2  2  0
  4  5  1  0
  5  6  1  6
  7  5  1  0
  8  7  2  0
 10  9  1  0
 11 10  2  0
 12 10  1  0
 13 12  1  6
 13 15  1  0
 13 14  1  0
 14  7  1  0
 15 20  1  0
 16 15  2  0
 18 17  1  0
 19 18  1  1
 19 21  1  0
 20 19  1  0
 21 23  2  0
 21 22  1  0
M  END
$$$$
