NNS.pdb
     RDKit          3D

 23 22  0  0  1  0  0  0  0  0999 V2000
    7.7867  -12.7347   15.5460 N   0  0  0  0  0  0  0  0  0  0  0  0
    8.0740  -14.0969   15.7610 C   0  0  0  0  0  0  0  0  0  0  0  0
    8.6767  -14.7532   14.8942 O   0  0  0  0  0  0  0  0  0  0  0  0
    7.6573  -14.7416   17.0199 C   0  0  0  0  0  0  0  0  0  0  0  0
    8.8380  -14.8096   17.9177 C   0  0  2  0  0  0  0  0  0  0  0  0
    9.9553  -15.3864   17.2416 N   0  0  0  0  0  0  0  0  0  0  0  0
    8.6166  -15.4677   19.2156 C   0  0  0  0  0  0  0  0  0  0  0  0
    7.6378  -15.0791   19.9034 O   0  0  0  0  0  0  0  0  0  0  0  0
    8.9327  -20.2044   22.9290 N   0  0  0  0  0  0  0  0  0  0  0  0
    9.7088  -19.1059   22.4771 C   0  0  0  0  0  0  0  0  0  0  0  0
   10.5112  -18.6077   23.3024 O   0  0  0  0  0  0  0  0  0  0  0  0
    9.6144  -18.5421   21.1187 C   0  0  0  0  0  0  0  0  0  0  0  0
    9.2559  -17.1173   21.0201 C   0  0  2  0  0  0  0  0  0  0  0  0
    9.4366  -16.5026   19.7242 N   0  0  0  0  0  0  0  0  0  0  0  0
    9.5242  -16.2164   22.1274 C   0  0  0  0  0  0  0  0  0  0  0  0
   10.7185  -15.7070   22.1580 O   0  0  0  0  0  0  0  0  0  0  0  0
    6.8427  -14.6253   24.8943 O   0  0  0  0  0  0  0  0  0  0  0  0
    8.0087  -13.9093   24.5677 C   0  0  0  0  0  0  0  0  0  0  0  0
    9.1044  -14.8726   24.2075 C   0  0  2  0  0  0  0  0  0  0  0  0
    8.6756  -15.8223   23.1719 N   0  0  0  0  0  0  0  0  0  0  0  0
    9.5871  -15.6171   25.3809 C   0  0  0  0  0  0  0  0  0  0  0  0
   10.0889  -14.9745   26.4977 O   0  0  0  0  0  0  0  0  0  0  0  0
    9.5578  -16.8882   25.4079 O   0  0  0  0  0  0  0  0  0  0  0  0
  1  2  1  0
  2  4  1  0
  3  2  2  0
  4  5  1  0
  5  6  1  6
  7  5  1  0
  8  7  2  0
 10  9  1  0
 11 10  2  0
 12 10  1  0
 13 12  1  6
 13 15  1  0
 13 14  1  0
 14  7  1  0
 15 20  1  0
 16 15  2  0
 18 17  1  0
 19 18  1  1
 19 21  1  0
 20 19  1  0
 21 23  2  0
 21 22  1  0
M  END
$$$$
