NNS.pdb
     RDKit          3D

 23 22  0  0  1  0  0  0  0  0999 V2000
    6.4807  -12.5257   17.9727 N   0  0  0  0  0  0  0  0  0  0  0  0
    7.6606  -13.2766   18.1411 C   0  0  0  0  0  0  0  0  0  0  0  0
    8.1094  -13.9552   17.2012 O   0  0  0  0  0  0  0  0  0  0  0  0
    8.3622  -13.2540   19.4379 C   0  0  0  0  0  0  0  0  0  0  0  0
    8.5667  -14.6574   19.8777 C   0  0  2  0  0  0  0  0  0  0  0  0
    7.4956  -15.4889   19.4311 N   0  0  0  0  0  0  0  0  0  0  0  0
    8.8095  -14.8468   21.3171 C   0  0  0  0  0  0  0  0  0  0  0  0
    9.7315  -14.1723   21.8434 O   0  0  0  0  0  0  0  0  0  0  0  0
    7.2961  -18.0576   26.1458 N   0  0  0  0  0  0  0  0  0  0  0  0
    7.4623  -16.7033   25.7562 C   0  0  0  0  0  0  0  0  0  0  0  0
    7.8678  -15.9105   26.6395 O   0  0  0  0  0  0  0  0  0  0  0  0
    7.1864  -16.2038   24.3975 C   0  0  0  0  0  0  0  0  0  0  0  0
    8.3532  -15.9870   23.5256 C   0  0  2  0  0  0  0  0  0  0  0  0
    8.0689  -15.7367   22.1305 N   0  0  0  0  0  0  0  0  0  0  0  0
    9.5761  -16.7415   23.7380 C   0  0  0  0  0  0  0  0  0  0  0  0
    9.6082  -17.9203   23.1941 O   0  0  0  0  0  0  0  0  0  0  0  0
   14.2828  -17.3367   24.3963 O   0  0  0  0  0  0  0  0  0  0  0  0
   13.1844  -16.4580   24.3783 C   0  0  0  0  0  0  0  0  0  0  0  0
   11.9110  -17.2442   24.5154 C   0  0  2  0  0  0  0  0  0  0  0  0
   10.7266  -16.3773   24.4522 N   0  0  0  0  0  0  0  0  0  0  0  0
   11.8790  -18.0219   25.7636 C   0  0  0  0  0  0  0  0  0  0  0  0
   12.5024  -19.2512   25.8743 O   0  0  0  0  0  0  0  0  0  0  0  0
   11.2720  -17.5853   26.7923 O   0  0  0  0  0  0  0  0  0  0  0  0
  1  2  1  0
  2  4  1  0
  3  2  2  0
  4  5  1  0
  5  6  1  1
  7  5  1  0
  8  7  2  0
 10  9  1  0
 11 10  2  0
 12 10  1  0
 13 12  1  6
 13 15  1  0
 13 14  1  0
 14  7  1  0
 15 20  1  0
 16 15  2  0
 18 17  1  0
 19 18  1  1
 19 21  1  0
 20 19  1  0
 21 23  2  0
 21 22  1  0
M  END
$$$$
