NNS.pdb
     RDKit          3D

 23 22  0  0  1  0  0  0  0  0999 V2000
    7.3865  -12.6980   17.2461 N   0  0  0  0  0  0  0  0  0  0  0  0
    8.1427  -13.6254   16.5029 C   0  0  0  0  0  0  0  0  0  0  0  0
    7.6065  -14.2862   15.5967 O   0  0  0  0  0  0  0  0  0  0  0  0
    9.5745  -13.8089   16.8039 C   0  0  0  0  0  0  0  0  0  0  0  0
    9.6930  -14.8043   17.8993 C   0  0  2  0  0  0  0  0  0  0  0  0
    8.9992  -14.3591   19.0649 N   0  0  0  0  0  0  0  0  0  0  0  0
   11.0632  -15.2240   18.2357 C   0  0  0  0  0  0  0  0  0  0  0  0
   11.4930  -16.2802   17.7048 O   0  0  0  0  0  0  0  0  0  0  0  0
   15.2095  -15.9578   17.5993 N   0  0  0  0  0  0  0  0  0  0  0  0
   14.8111  -14.7315   18.1917 C   0  0  0  0  0  0  0  0  0  0  0  0
   14.8720  -13.7108   17.4651 O   0  0  0  0  0  0  0  0  0  0  0  0
   14.3426  -14.6102   19.5836 C   0  0  0  0  0  0  0  0  0  0  0  0
   12.9880  -15.1122   19.8691 C   0  0  2  0  0  0  0  0  0  0  0  0
   11.9125  -14.5102   19.1138 N   0  0  0  0  0  0  0  0  0  0  0  0
   12.6101  -15.4686   21.2256 C   0  0  0  0  0  0  0  0  0  0  0  0
   12.7769  -14.5380   22.1160 O   0  0  0  0  0  0  0  0  0  0  0  0
    9.6186  -17.6620   22.4657 O   0  0  0  0  0  0  0  0  0  0  0  0
   10.2770  -16.8030   23.3643 C   0  0  0  0  0  0  0  0  0  0  0  0
   11.7596  -16.8709   23.1280 C   0  0  2  0  0  0  0  0  0  0  0  0
   12.0941  -16.6790   21.7103 N   0  0  0  0  0  0  0  0  0  0  0  0
   12.3312  -18.1432   23.5951 C   0  0  0  0  0  0  0  0  0  0  0  0
   13.0084  -18.9961   22.7431 O   0  0  0  0  0  0  0  0  0  0  0  0
   12.2215  -18.5041   24.8097 O   0  0  0  0  0  0  0  0  0  0  0  0
  1  2  1  0
  2  4  1  0
  3  2  2  0
  4  5  1  0
  5  6  1  1
  7  5  1  0
  8  7  2  0
 10  9  1  0
 11 10  2  0
 12 10  1  0
 13 12  1  1
 13 15  1  0
 13 14  1  0
 14  7  1  0
 15 20  1  0
 16 15  2  0
 18 17  1  0
 19 18  1  6
 19 21  1  0
 20 19  1  0
 21 23  2  0
 21 22  1  0
M  END
$$$$
