NNS.pdb
     RDKit          3D

 23 22  0  0  1  0  0  0  0  0999 V2000
    7.7413  -14.6256   16.4984 N   0  0  0  0  0  0  0  0  0  0  0  0
    8.0966  -13.5138   17.2871 C   0  0  0  0  0  0  0  0  0  0  0  0
    8.1274  -12.3763   16.7867 O   0  0  0  0  0  0  0  0  0  0  0  0
    8.4316  -13.7049   18.7104 C   0  0  0  0  0  0  0  0  0  0  0  0
    9.5270  -14.7035   18.7977 C   0  0  2  0  0  0  0  0  0  0  0  0
    9.1765  -15.9012   18.1043 N   0  0  0  0  0  0  0  0  0  0  0  0
   10.0073  -15.0078   20.1555 C   0  0  0  0  0  0  0  0  0  0  0  0
   10.5570  -14.0768   20.7984 O   0  0  0  0  0  0  0  0  0  0  0  0
   10.1901  -18.3780   25.0197 N   0  0  0  0  0  0  0  0  0  0  0  0
   10.8968  -18.3581   23.7894 C   0  0  0  0  0  0  0  0  0  0  0  0
   12.1128  -18.6620   23.8351 O   0  0  0  0  0  0  0  0  0  0  0  0
   10.2802  -18.0056   22.4981 C   0  0  0  0  0  0  0  0  0  0  0  0
   10.6197  -16.6838   21.9447 C   0  0  2  0  0  0  0  0  0  0  0  0
    9.8842  -16.2770   20.7686 N   0  0  0  0  0  0  0  0  0  0  0  0
   11.9954  -16.2178   21.9537 C   0  0  0  0  0  0  0  0  0  0  0  0
   12.3429  -15.5187   22.9916 O   0  0  0  0  0  0  0  0  0  0  0  0
   14.9197  -16.0205   18.9336 O   0  0  0  0  0  0  0  0  0  0  0  0
   15.3147  -16.5580   20.1722 C   0  0  0  0  0  0  0  0  0  0  0  0
   14.4016  -16.0512   21.2528 C   0  0  2  0  0  0  0  0  0  0  0  0
   13.0011  -16.4131   20.9962 N   0  0  0  0  0  0  0  0  0  0  0  0
   14.5051  -14.5932   21.4184 C   0  0  0  0  0  0  0  0  0  0  0  0
   15.6529  -13.9928   21.9025 O   0  0  0  0  0  0  0  0  0  0  0  0
   13.5338  -13.8291   21.1183 O   0  0  0  0  0  0  0  0  0  0  0  0
  1  2  1  0
  2  4  1  0
  3  2  2  0
  4  5  1  0
  5  6  1  1
  7  5  1  0
  8  7  2  0
 10  9  1  0
 11 10  2  0
 12 10  1  0
 13 12  1  6
 13 15  1  0
 13 14  1  0
 14  7  1  0
 15 20  1  0
 16 15  2  0
 18 17  1  0
 19 18  1  6
 19 21  1  0
 20 19  1  0
 21 23  2  0
 21 22  1  0
M  END
$$$$
