NNS.pdb
     RDKit          3D

 23 22  0  0  1  0  0  0  0  0999 V2000
    7.3910  -12.1523   17.7393 N   0  0  0  0  0  0  0  0  0  0  0  0
    7.7284  -13.4721   18.0979 C   0  0  0  0  0  0  0  0  0  0  0  0
    8.3099  -14.2116   17.2853 O   0  0  0  0  0  0  0  0  0  0  0  0
    7.3895  -13.9732   19.4427 C   0  0  0  0  0  0  0  0  0  0  0  0
    8.6377  -14.4595   20.0832 C   0  0  2  0  0  0  0  0  0  0  0  0
    9.2714  -15.4479   19.2710 N   0  0  0  0  0  0  0  0  0  0  0  0
    8.5014  -14.9327   21.4704 C   0  0  0  0  0  0  0  0  0  0  0  0
    7.8269  -14.2242   22.2612 O   0  0  0  0  0  0  0  0  0  0  0  0
    7.1929  -19.4066   22.6680 N   0  0  0  0  0  0  0  0  0  0  0  0
    8.5329  -18.9524   22.5600 C   0  0  0  0  0  0  0  0  0  0  0  0
    9.1890  -19.3675   21.5748 O   0  0  0  0  0  0  0  0  0  0  0  0
    9.1674  -18.0404   23.5281 C   0  0  0  0  0  0  0  0  0  0  0  0
    8.9505  -16.5994   23.3159 C   0  0  2  0  0  0  0  0  0  0  0  0
    9.0816  -16.1285   21.9555 N   0  0  0  0  0  0  0  0  0  0  0  0
    9.4046  -15.6373   24.3048 C   0  0  0  0  0  0  0  0  0  0  0  0
   10.6781  -15.3831   24.2952 O   0  0  0  0  0  0  0  0  0  0  0  0
    7.1059  -13.1812   26.7148 O   0  0  0  0  0  0  0  0  0  0  0  0
    8.4121  -12.7704   26.3926 C   0  0  0  0  0  0  0  0  0  0  0  0
    9.2815  -13.9788   26.1871 C   0  0  2  0  0  0  0  0  0  0  0  0
    8.6609  -14.9467   25.2726 N   0  0  0  0  0  0  0  0  0  0  0  0
    9.6014  -14.6462   27.4584 C   0  0  0  0  0  0  0  0  0  0  0  0
   10.2453  -13.9854   28.4883 O   0  0  0  0  0  0  0  0  0  0  0  0
    9.2927  -15.8641   27.6548 O   0  0  0  0  0  0  0  0  0  0  0  0
  1  2  1  0
  2  4  1  0
  3  2  2  0
  4  5  1  0
  5  6  1  6
  7  5  1  0
  8  7  2  0
 10  9  1  0
 11 10  2  0
 12 10  1  0
 13 12  1  6
 13 15  1  0
 13 14  1  0
 14  7  1  0
 15 20  1  0
 16 15  2  0
 18 17  1  0
 19 18  1  1
 19 21  1  0
 20 19  1  0
 21 23  2  0
 21 22  1  0
M  END
$$$$
