NNS.pdb
     RDKit          3D

 23 22  0  0  1  0  0  0  0  0999 V2000
    6.9172  -12.4302   17.6410 N   0  0  0  0  0  0  0  0  0  0  0  0
    7.7900  -13.5328   17.7238 C   0  0  0  0  0  0  0  0  0  0  0  0
    8.2880  -14.0149   16.6919 O   0  0  0  0  0  0  0  0  0  0  0  0
    8.1112  -14.1130   19.0408 C   0  0  0  0  0  0  0  0  0  0  0  0
    8.4111  -15.5547   18.8503 C   0  0  2  0  0  0  0  0  0  0  0  0
    7.3401  -16.2087   18.1696 N   0  0  0  0  0  0  0  0  0  0  0  0
    8.7866  -16.2951   20.0659 C   0  0  0  0  0  0  0  0  0  0  0  0
    7.8599  -16.8227   20.7331 O   0  0  0  0  0  0  0  0  0  0  0  0
   10.1210  -20.2984   20.4637 N   0  0  0  0  0  0  0  0  0  0  0  0
   11.1012  -19.2828   20.3178 C   0  0  0  0  0  0  0  0  0  0  0  0
   11.6758  -19.2125   19.2051 O   0  0  0  0  0  0  0  0  0  0  0  0
   11.4617  -18.3350   21.3871 C   0  0  0  0  0  0  0  0  0  0  0  0
   10.5046  -17.2485   21.6550 C   0  0  2  0  0  0  0  0  0  0  0  0
   10.1191  -16.4435   20.5178 N   0  0  0  0  0  0  0  0  0  0  0  0
   10.5801  -16.4955   22.8948 C   0  0  0  0  0  0  0  0  0  0  0  0
   11.4915  -15.5712   22.9338 O   0  0  0  0  0  0  0  0  0  0  0  0
    7.7498  -16.1505   25.8021 O   0  0  0  0  0  0  0  0  0  0  0  0
    8.7507  -15.1648   25.7281 C   0  0  0  0  0  0  0  0  0  0  0  0
   10.0298  -15.7845   25.2401 C   0  0  2  0  0  0  0  0  0  0  0  0
    9.8092  -16.6292   24.0585 N   0  0  0  0  0  0  0  0  0  0  0  0
   10.6896  -16.5773   26.2889 C   0  0  0  0  0  0  0  0  0  0  0  0
   11.1474  -16.0020   27.4600 O   0  0  0  0  0  0  0  0  0  0  0  0
   10.8618  -17.8299   26.1527 O   0  0  0  0  0  0  0  0  0  0  0  0
  1  2  1  0
  2  4  1  0
  3  2  2  0
  4  5  1  0
  5  6  1  1
  7  5  1  0
  8  7  2  0
 10  9  1  0
 11 10  2  0
 12 10  1  0
 13 12  1  6
 13 15  1  0
 13 14  1  0
 14  7  1  0
 15 20  1  0
 16 15  2  0
 18 17  1  0
 19 18  1  1
 19 21  1  0
 20 19  1  0
 21 23  2  0
 21 22  1  0
M  END
$$$$
