NNS.pdb
     RDKit          3D

 23 22  0  0  1  0  0  0  0  0999 V2000
    6.9974  -13.0912   16.8208 N   0  0  0  0  0  0  0  0  0  0  0  0
    7.6647  -14.1930   16.2507 C   0  0  0  0  0  0  0  0  0  0  0  0
    7.5546  -14.4302   15.0354 O   0  0  0  0  0  0  0  0  0  0  0  0
    8.4956  -15.0644   17.1020 C   0  0  0  0  0  0  0  0  0  0  0  0
    9.5049  -14.2166   17.7857 C   0  0  2  0  0  0  0  0  0  0  0  0
   10.2806  -13.4870   16.8349 N   0  0  0  0  0  0  0  0  0  0  0  0
   10.3762  -14.9109   18.7477 C   0  0  0  0  0  0  0  0  0  0  0  0
    9.8228  -15.6433   19.6077 O   0  0  0  0  0  0  0  0  0  0  0  0
   14.3147  -15.9409   16.7584 N   0  0  0  0  0  0  0  0  0  0  0  0
   14.4140  -15.1373   17.9237 C   0  0  0  0  0  0  0  0  0  0  0  0
   14.8217  -13.9621   17.7624 O   0  0  0  0  0  0  0  0  0  0  0  0
   14.0686  -15.6114   19.2755 C   0  0  0  0  0  0  0  0  0  0  0  0
   12.6513  -15.5188   19.6642 C   0  0  2  0  0  0  0  0  0  0  0  0
   11.7867  -14.7998   18.7558 N   0  0  0  0  0  0  0  0  0  0  0  0
   12.2842  -15.3548   21.0600 C   0  0  0  0  0  0  0  0  0  0  0  0
   12.9400  -14.4400   21.7077 O   0  0  0  0  0  0  0  0  0  0  0  0
    8.8785  -16.5364   23.0670 O   0  0  0  0  0  0  0  0  0  0  0  0
    9.6995  -15.5148   23.5781 C   0  0  0  0  0  0  0  0  0  0  0  0
   11.1348  -15.8118   23.2461 C   0  0  2  0  0  0  0  0  0  0  0  0
   11.3230  -16.0493   21.8086 N   0  0  0  0  0  0  0  0  0  0  0  0
   11.6442  -16.9668   24.0012 C   0  0  0  0  0  0  0  0  0  0  0  0
   11.7766  -16.9388   25.3773 O   0  0  0  0  0  0  0  0  0  0  0  0
   11.9820  -18.0400   23.4082 O   0  0  0  0  0  0  0  0  0  0  0  0
  1  2  1  0
  2  4  1  0
  3  2  2  0
  4  5  1  0
  5  6  1  6
  7  5  1  0
  8  7  2  0
 10  9  1  0
 11 10  2  0
 12 10  1  0
 13 12  1  1
 13 15  1  0
 13 14  1  0
 14  7  1  0
 15 20  1  0
 16 15  2  0
 18 17  1  0
 19 18  1  6
 19 21  1  0
 20 19  1  0
 21 23  2  0
 21 22  1  0
M  END
$$$$
