RQS.pdb
     RDKit          3D

 27 26  0  0  1  0  0  0  0  0999 V2000
   18.9733  -19.8797  -12.3196 N   0  0  0  0  0  0  0  0  0  0  0  0
   19.2223  -21.0865  -11.6148 C   0  0  0  0  0  0  0  0  0  0  0  0
   18.3721  -22.0588  -11.6575 N   0  0  0  0  0  0  0  0  0  0  0  0
   20.4080  -21.2771  -10.8361 N   0  0  0  0  0  0  0  0  0  0  0  0
   21.4632  -20.2754  -10.8162 C   0  0  0  0  0  0  0  0  0  0  0  0
   22.7247  -20.9808  -11.2659 C   0  0  0  0  0  0  0  0  0  0  0  0
   23.9609  -20.1187  -11.1432 C   0  0  0  0  0  0  0  0  0  0  0  0
   25.0760  -20.8910  -11.8279 C   0  0  2  0  0  0  0  0  0  0  0  0
   25.8813  -21.5271  -10.7995 N   0  0  0  0  0  0  0  0  0  0  0  0
   25.9378  -20.0213  -12.6343 C   0  0  0  0  0  0  0  0  0  0  0  0
   26.9865  -19.4690  -12.2012 O   0  0  0  0  0  0  0  0  0  0  0  0
   18.5505  -22.9094  -11.1147 N   0  0  0  0  0  0  0  0  0  0  0  0
   28.5897  -21.3263  -17.6809 C   0  0  0  0  0  0  0  0  0  0  0  0
   28.5375  -21.8334  -16.3560 O   0  0  0  0  0  0  0  0  0  0  0  0
   29.0792  -22.9590  -16.1036 C   0  0  0  0  0  0  0  0  0  0  0  0
   27.8595  -21.0305  -15.3355 C   0  0  0  0  0  0  0  0  0  0  0  0
   27.1953  -19.7890  -15.8699 C   0  0  2  0  0  0  0  0  0  0  0  0
   26.4460  -18.9944  -14.8621 N   0  0  0  0  0  0  0  0  0  0  0  0
   25.6045  -19.7630  -13.9869 C   0  0  0  0  0  0  0  0  0  0  0  0
   25.7149  -17.8412  -15.4727 O   0  0  0  0  0  0  0  0  0  0  0  0
   24.4946  -17.9381  -15.7940 O   0  0  0  0  0  0  0  0  0  0  0  0
   26.3048  -13.8361  -14.8945 C   0  0  0  0  0  0  0  0  0  0  0  0
   26.3273  -14.2016  -16.2301 C   0  0  2  0  0  0  0  0  0  0  0  0
   25.5518  -15.5055  -16.3659 N   0  0  0  0  0  0  0  0  0  0  0  0
   26.3267  -16.5800  -15.7309 C   0  0  0  0  0  0  0  0  0  0  0  0
   25.3283  -15.8664  -17.7653 O   0  0  0  0  0  0  0  0  0  0  0  0
   24.2329  -15.4018  -18.4903 O   0  0  0  0  0  0  0  0  0  0  0  0
  2  3  2  0
  2  1  1  0
  4  2  1  0
  5  4  1  0
  6  5  1  0
  7  8  1  0
  7  6  1  0
  8 10  1  0
  8  9  1  1
 10 11  2  0
 12 13  1  0
 13 15  1  0
 14 13  2  0
 16 15  1  0
 17 16  1  1
 18 17  1  0
 18 10  1  0
 19 20  2  0
 19 17  1  0
 21 22  1  0
 23 22  1  1
 23 24  1  0
 23 25  1  0
 24 19  1  0
 25 26  1  0
 27 25  2  0
M  END
$$$$
