RQS.pdb
     RDKit          3D

 27 26  0  0  1  0  0  0  0  0999 V2000
   31.9223  -20.8770  -10.3695 N   0  0  0  0  0  0  0  0  0  0  0  0
   32.0043  -22.0353  -11.1862 C   0  0  0  0  0  0  0  0  0  0  0  0
   33.1176  -22.6818  -11.2983 N   0  0  0  0  0  0  0  0  0  0  0  0
   30.8746  -22.5309  -11.9120 N   0  0  0  0  0  0  0  0  0  0  0  0
   29.6404  -21.7647  -11.9962 C   0  0  0  0  0  0  0  0  0  0  0  0
   29.7851  -20.8607  -13.2016 C   0  0  0  0  0  0  0  0  0  0  0  0
   28.4588  -20.3656  -13.7330 C   0  0  0  0  0  0  0  0  0  0  0  0
   27.6205  -21.6082  -13.9815 C   0  0  2  0  0  0  0  0  0  0  0  0
   27.9509  -22.1184  -15.3011 N   0  0  0  0  0  0  0  0  0  0  0  0
   26.1828  -21.3261  -13.9289 C   0  0  0  0  0  0  0  0  0  0  0  0
   25.4196  -21.3594  -14.9333 O   0  0  0  0  0  0  0  0  0  0  0  0
   33.1738  -23.4836  -11.9337 N   0  0  0  0  0  0  0  0  0  0  0  0
   22.8725  -20.4957   -8.5226 C   0  0  0  0  0  0  0  0  0  0  0  0
   24.1365  -21.1059   -8.7353 O   0  0  0  0  0  0  0  0  0  0  0  0
   24.8153  -21.4884   -7.7267 C   0  0  0  0  0  0  0  0  0  0  0  0
   24.6014  -21.2686  -10.1148 C   0  0  0  0  0  0  0  0  0  0  0  0
   23.6830  -20.6719  -11.1484 C   0  0  2  0  0  0  0  0  0  0  0  0
   24.1654  -20.7730  -12.5503 N   0  0  0  0  0  0  0  0  0  0  0  0
   25.5785  -20.9927  -12.6915 C   0  0  0  0  0  0  0  0  0  0  0  0
   23.6863  -19.6409  -13.4023 O   0  0  0  0  0  0  0  0  0  0  0  0
   24.4439  -18.6653  -13.6784 O   0  0  0  0  0  0  0  0  0  0  0  0
   23.0780  -18.7635  -17.4158 C   0  0  0  0  0  0  0  0  0  0  0  0
   23.3163  -19.3337  -16.1765 C   0  0  1  0  0  0  0  0  0  0  0  0
   22.1538  -18.9621  -15.2652 N   0  0  0  0  0  0  0  0  0  0  0  0
   22.3721  -19.5811  -13.9510 C   0  0  0  0  0  0  0  0  0  0  0  0
   20.8738  -19.4370  -15.7893 O   0  0  0  0  0  0  0  0  0  0  0  0
   20.1686  -18.7486  -16.7743 O   0  0  0  0  0  0  0  0  0  0  0  0
  2  3  2  0
  2  1  1  0
  4  2  1  0
  5  4  1  0
  6  5  1  0
  7  8  1  0
  7  6  1  0
  8 10  1  0
  8  9  1  6
 10 11  2  0
 12 13  1  0
 13 15  1  0
 14 13  2  0
 16 15  1  0
 17 16  1  1
 18 17  1  0
 18 10  1  0
 19 20  2  0
 19 17  1  0
 21 22  1  0
 23 22  1  1
 23 24  1  0
 23 25  1  0
 24 19  1  0
 25 26  1  0
 27 25  2  0
M  END
$$$$
