RQS.pdb
     RDKit          3D

 27 26  0  0  1  0  0  0  0  0999 V2000
   25.6685  -21.5553  -12.9587 N   0  0  0  0  0  0  0  0  0  0  0  0
   26.5852  -20.8331  -12.1504 C   0  0  0  0  0  0  0  0  0  0  0  0
   26.4595  -20.8230  -10.8643 N   0  0  0  0  0  0  0  0  0  0  0  0
   27.6728  -20.0939  -12.7154 N   0  0  0  0  0  0  0  0  0  0  0  0
   27.5377  -19.4205  -13.9983 C   0  0  0  0  0  0  0  0  0  0  0  0
   26.9302  -18.0659  -13.7032 C   0  0  0  0  0  0  0  0  0  0  0  0
   25.7885  -17.7144  -14.6302 C   0  0  0  0  0  0  0  0  0  0  0  0
   25.9369  -18.6260  -15.8367 C   0  0  2  0  0  0  0  0  0  0  0  0
   26.1834  -17.7945  -17.0024 N   0  0  0  0  0  0  0  0  0  0  0  0
   24.7344  -19.4304  -16.0744 C   0  0  0  0  0  0  0  0  0  0  0  0
   23.9849  -19.2992  -17.0810 O   0  0  0  0  0  0  0  0  0  0  0  0
   27.1328  -20.3005  -10.2955 N   0  0  0  0  0  0  0  0  0  0  0  0
   23.7088  -25.2748  -13.9270 C   0  0  0  0  0  0  0  0  0  0  0  0
   22.4313  -24.9414  -14.4489 O   0  0  0  0  0  0  0  0  0  0  0  0
   21.5112  -25.8232  -14.4402 C   0  0  0  0  0  0  0  0  0  0  0  0
   22.2315  -23.5888  -14.9743 C   0  0  0  0  0  0  0  0  0  0  0  0
   23.4146  -22.6756  -14.7895 C   0  0  1  0  0  0  0  0  0  0  0  0
   23.2446  -21.3075  -15.3444 N   0  0  0  0  0  0  0  0  0  0  0  0
   24.3605  -20.4260  -15.1381 C   0  0  0  0  0  0  0  0  0  0  0  0
   21.9510  -20.6804  -14.9314 O   0  0  0  0  0  0  0  0  0  0  0  0
   21.7999  -20.1991  -13.7706 O   0  0  0  0  0  0  0  0  0  0  0  0
   17.8458  -18.5370  -16.0900 C   0  0  0  0  0  0  0  0  0  0  0  0
   18.8733  -19.3427  -16.5514 C   0  0  2  0  0  0  0  0  0  0  0  0
   19.6043  -19.9007  -15.3373 N   0  0  0  0  0  0  0  0  0  0  0  0
   20.8219  -20.5828  -15.7958 C   0  0  0  0  0  0  0  0  0  0  0  0
   18.7873  -20.8651  -14.6018 O   0  0  0  0  0  0  0  0  0  0  0  0
   17.7557  -20.4742  -13.7506 O   0  0  0  0  0  0  0  0  0  0  0  0
  2  3  2  0
  2  1  1  0
  4  2  1  0
  5  4  1  0
  6  5  1  0
  7  8  1  0
  7  6  1  0
  8 10  1  0
  8  9  1  6
 10 11  2  0
 12 13  1  0
 13 15  1  0
 14 13  2  0
 16 15  1  0
 17 16  1  6
 18 17  1  0
 18 10  1  0
 19 20  2  0
 19 17  1  0
 21 22  1  0
 23 22  1  1
 23 24  1  0
 23 25  1  0
 24 19  1  0
 25 26  1  0
 27 25  2  0
M  END
$$$$
