RQS.pdb
     RDKit          3D

 27 26  0  0  1  0  0  0  0  0999 V2000
   27.9193  -25.4370  -16.2876 N   0  0  0  0  0  0  0  0  0  0  0  0
   27.5729  -26.7106  -16.8102 C   0  0  0  0  0  0  0  0  0  0  0  0
   28.4923  -27.5513  -17.1536 N   0  0  0  0  0  0  0  0  0  0  0  0
   26.2100  -27.1141  -16.9786 N   0  0  0  0  0  0  0  0  0  0  0  0
   25.1325  -26.4345  -16.2752 C   0  0  0  0  0  0  0  0  0  0  0  0
   24.0992  -26.0820  -17.3237 C   0  0  0  0  0  0  0  0  0  0  0  0
   23.1985  -24.9410  -16.9070 C   0  0  0  0  0  0  0  0  0  0  0  0
   22.6427  -25.3257  -15.5463 C   0  0  2  0  0  0  0  0  0  0  0  0
   21.4206  -26.0828  -15.7561 N   0  0  0  0  0  0  0  0  0  0  0  0
   22.3378  -24.1531  -14.7209 C   0  0  0  0  0  0  0  0  0  0  0  0
   21.1757  -23.6905  -14.5536 O   0  0  0  0  0  0  0  0  0  0  0  0
   28.2306  -28.4153  -17.6382 N   0  0  0  0  0  0  0  0  0  0  0  0
   26.4118  -21.4715  -10.6536 C   0  0  0  0  0  0  0  0  0  0  0  0
   26.6526  -21.2768  -12.0391 O   0  0  0  0  0  0  0  0  0  0  0  0
   27.7996  -20.8681  -12.4152 C   0  0  0  0  0  0  0  0  0  0  0  0
   25.5624  -21.5590  -12.9758 C   0  0  0  0  0  0  0  0  0  0  0  0
   24.2728  -21.9681  -12.3144 C   0  0  1  0  0  0  0  0  0  0  0  0
   23.1668  -22.3035  -13.2486 N   0  0  0  0  0  0  0  0  0  0  0  0
   23.3868  -23.4725  -14.0547 C   0  0  0  0  0  0  0  0  0  0  0  0
   22.7366  -21.1294  -14.0693 O   0  0  0  0  0  0  0  0  0  0  0  0
   23.0286  -21.0497  -15.2983 O   0  0  0  0  0  0  0  0  0  0  0  0
   22.0931  -17.7318  -16.3347 C   0  0  0  0  0  0  0  0  0  0  0  0
   22.5875  -18.6899  -15.4657 C   0  0  1  0  0  0  0  0  0  0  0  0
   21.5086  -18.9748  -14.4290 N   0  0  0  0  0  0  0  0  0  0  0  0
   21.9847  -20.0413  -13.5380 C   0  0  0  0  0  0  0  0  0  0  0  0
   20.2588  -19.4166  -15.0467 O   0  0  0  0  0  0  0  0  0  0  0  0
   19.0903  -18.6598  -14.9913 O   0  0  0  0  0  0  0  0  0  0  0  0
  2  3  2  0
  2  1  1  0
  4  2  1  0
  5  4  1  0
  6  5  1  0
  7  8  1  0
  7  6  1  0
  8 10  1  0
  8  9  1  6
 10 11  2  0
 12 13  1  0
 13 15  1  0
 14 13  2  0
 16 15  1  0
 17 16  1  1
 18 17  1  0
 18 10  1  0
 19 20  2  0
 19 17  1  0
 21 22  1  0
 23 22  1  1
 23 24  1  0
 23 25  1  0
 24 19  1  0
 25 26  1  0
 27 25  2  0
M  END
$$$$
