RQS.pdb
     RDKit          3D

 27 26  0  0  1  0  0  0  0  0999 V2000
   31.5021  -21.8120  -10.1998 N   0  0  0  0  0  0  0  0  0  0  0  0
   31.7138  -21.8761  -11.6020 C   0  0  0  0  0  0  0  0  0  0  0  0
   32.6913  -22.5684  -12.0873 N   0  0  0  0  0  0  0  0  0  0  0  0
   30.8675  -21.1861  -12.5273 N   0  0  0  0  0  0  0  0  0  0  0  0
   29.7098  -20.4328  -12.0693 C   0  0  0  0  0  0  0  0  0  0  0  0
   28.5959  -21.4407  -11.8833 C   0  0  0  0  0  0  0  0  0  0  0  0
   27.7120  -21.5780  -13.1025 C   0  0  0  0  0  0  0  0  0  0  0  0
   26.5818  -22.5078  -12.6941 C   0  0  2  0  0  0  0  0  0  0  0  0
   26.7081  -23.7350  -13.4615 N   0  0  0  0  0  0  0  0  0  0  0  0
   25.2625  -21.9221  -12.9507 C   0  0  0  0  0  0  0  0  0  0  0  0
   24.6903  -21.9371  -14.0752 O   0  0  0  0  0  0  0  0  0  0  0  0
   32.8188  -22.6186  -13.1027 N   0  0  0  0  0  0  0  0  0  0  0  0
   21.0661  -20.2954   -8.4036 C   0  0  0  0  0  0  0  0  0  0  0  0
   20.3312  -20.0886   -9.6005 O   0  0  0  0  0  0  0  0  0  0  0  0
   19.1074  -19.7419   -9.5218 C   0  0  0  0  0  0  0  0  0  0  0  0
   21.0219  -20.2838  -10.8774 C   0  0  0  0  0  0  0  0  0  0  0  0
   22.4772  -20.6463  -10.7410 C   0  0  2  0  0  0  0  0  0  0  0  0
   23.1972  -20.8481  -12.0253 N   0  0  0  0  0  0  0  0  0  0  0  0
   24.5573  -21.2930  -11.8951 C   0  0  0  0  0  0  0  0  0  0  0  0
   23.0778  -19.6694  -12.9382 O   0  0  0  0  0  0  0  0  0  0  0  0
   23.7146  -18.5996  -12.7100 O   0  0  0  0  0  0  0  0  0  0  0  0
   22.3962  -19.7890  -16.8262 C   0  0  0  0  0  0  0  0  0  0  0  0
   22.9039  -18.6543  -16.2159 C   0  0  1  0  0  0  0  0  0  0  0  0
   22.1395  -18.4477  -14.9148 N   0  0  0  0  0  0  0  0  0  0  0  0
   22.2569  -19.6668  -14.1035 C   0  0  0  0  0  0  0  0  0  0  0  0
   20.7196  -18.1876  -15.1494 O   0  0  0  0  0  0  0  0  0  0  0  0
   20.2732  -17.0966  -15.8922 O   0  0  0  0  0  0  0  0  0  0  0  0
  2  3  2  0
  2  1  1  0
  4  2  1  0
  5  4  1  0
  6  5  1  0
  7  8  1  0
  7  6  1  0
  8 10  1  0
  8  9  1  6
 10 11  2  0
 12 13  1  0
 13 15  1  0
 14 13  2  0
 16 15  1  0
 17 16  1  6
 18 17  1  0
 18 10  1  0
 19 20  2  0
 19 17  1  0
 21 22  1  0
 23 22  1  1
 23 24  1  0
 23 25  1  0
 24 19  1  0
 25 26  1  0
 27 25  2  0
M  END
$$$$
