RQS.pdb
     RDKit          3D

 27 26  0  0  1  0  0  0  0  0999 V2000
   22.8087  -20.3954   -9.4482 N   0  0  0  0  0  0  0  0  0  0  0  0
   23.6675  -21.0629   -8.5360 C   0  0  0  0  0  0  0  0  0  0  0  0
   23.1952  -21.5861   -7.4528 N   0  0  0  0  0  0  0  0  0  0  0  0
   25.0742  -21.1835   -8.7711 N   0  0  0  0  0  0  0  0  0  0  0  0
   25.6940  -20.5863   -9.9444 C   0  0  0  0  0  0  0  0  0  0  0  0
   25.1149  -21.3079  -11.1423 C   0  0  0  0  0  0  0  0  0  0  0  0
   25.6901  -20.8298  -12.4565 C   0  0  0  0  0  0  0  0  0  0  0  0
   24.9788  -21.6275  -13.5365 C   0  0  2  0  0  0  0  0  0  0  0  0
   25.8251  -22.7518  -13.8977 N   0  0  0  0  0  0  0  0  0  0  0  0
   24.7181  -20.8260  -14.7361 C   0  0  0  0  0  0  0  0  0  0  0  0
   25.4616  -20.8191  -15.7556 O   0  0  0  0  0  0  0  0  0  0  0  0
   22.1967  -21.4943   -7.2418 N   0  0  0  0  0  0  0  0  0  0  0  0
   19.4222  -17.3478  -15.8668 C   0  0  0  0  0  0  0  0  0  0  0  0
   20.2245  -17.0873  -17.0087 O   0  0  0  0  0  0  0  0  0  0  0  0
   19.7718  -16.3194  -17.9195 C   0  0  0  0  0  0  0  0  0  0  0  0
   21.5445  -17.7179  -17.0837 C   0  0  0  0  0  0  0  0  0  0  0  0
   21.8905  -18.5657  -15.8882 C   0  0  1  0  0  0  0  0  0  0  0  0
   23.2166  -19.2331  -15.9544 N   0  0  0  0  0  0  0  0  0  0  0  0
   23.5704  -19.9970  -14.7898 C   0  0  0  0  0  0  0  0  0  0  0  0
   24.3081  -18.2956  -16.3626 O   0  0  0  0  0  0  0  0  0  0  0  0
   24.6698  -17.3462  -15.6078 O   0  0  0  0  0  0  0  0  0  0  0  0
   27.4524  -19.2587  -18.4612 C   0  0  0  0  0  0  0  0  0  0  0  0
   27.4126  -18.1036  -17.6984 C   0  0  1  0  0  0  0  0  0  0  0  0
   26.0623  -17.4398  -17.9344 N   0  0  0  0  0  0  0  0  0  0  0  0
   25.0027  -18.4018  -17.6028 C   0  0  0  0  0  0  0  0  0  0  0  0
   25.8900  -17.0294  -19.3275 O   0  0  0  0  0  0  0  0  0  0  0  0
   26.7833  -16.1746  -19.9699 O   0  0  0  0  0  0  0  0  0  0  0  0
  2  3  2  0
  2  1  1  0
  4  2  1  0
  5  4  1  0
  6  5  1  0
  7  8  1  0
  7  6  1  0
  8 10  1  0
  8  9  1  6
 10 11  2  0
 12 13  1  0
 13 15  1  0
 14 13  2  0
 16 15  1  0
 17 16  1  6
 18 17  1  0
 18 10  1  0
 19 20  2  0
 19 17  1  0
 21 22  1  0
 23 22  1  1
 23 24  1  0
 23 25  1  0
 24 19  1  0
 25 26  1  0
 27 25  2  0
M  END
$$$$
