RQS.pdb
     RDKit          3D

 27 26  0  0  1  0  0  0  0  0999 V2000
   20.9051  -20.0094  -16.8920 N   0  0  0  0  0  0  0  0  0  0  0  0
   19.5206  -20.3115  -16.8071 C   0  0  0  0  0  0  0  0  0  0  0  0
   18.7225  -20.0106  -17.7780 N   0  0  0  0  0  0  0  0  0  0  0  0
   18.9549  -20.9522  -15.6590 N   0  0  0  0  0  0  0  0  0  0  0  0
   19.6826  -21.9883  -14.9417 C   0  0  0  0  0  0  0  0  0  0  0  0
   19.3285  -23.2970  -15.6148 C   0  0  0  0  0  0  0  0  0  0  0  0
   18.7394  -24.3125  -14.6617 C   0  0  0  0  0  0  0  0  0  0  0  0
   19.9000  -24.8140  -13.8190 C   0  0  2  0  0  0  0  0  0  0  0  0
   20.7808  -25.5858  -14.6787 N   0  0  0  0  0  0  0  0  0  0  0  0
   19.4535  -25.6649  -12.7118 C   0  0  0  0  0  0  0  0  0  0  0  0
   19.2773  -26.9109  -12.8058 O   0  0  0  0  0  0  0  0  0  0  0  0
   17.7327  -20.2677  -17.7157 N   0  0  0  0  0  0  0  0  0  0  0  0
   19.6506  -24.3510   -6.4850 C   0  0  0  0  0  0  0  0  0  0  0  0
   18.8940  -25.5518   -6.5187 O   0  0  0  0  0  0  0  0  0  0  0  0
   18.5564  -26.1001   -5.4189 C   0  0  0  0  0  0  0  0  0  0  0  0
   18.5343  -26.1049   -7.8264 C   0  0  0  0  0  0  0  0  0  0  0  0
   18.9888  -25.2697   -8.9942 C   0  0  2  0  0  0  0  0  0  0  0  0
   18.6938  -25.8468  -10.3315 N   0  0  0  0  0  0  0  0  0  0  0  0
   19.1949  -25.0877  -11.4440 C   0  0  0  0  0  0  0  0  0  0  0  0
   17.2489  -26.1964  -10.4967 O   0  0  0  0  0  0  0  0  0  0  0  0
   16.3987  -25.3192  -10.8278 O   0  0  0  0  0  0  0  0  0  0  0  0
   13.7823  -29.5429  -10.8507 C   0  0  0  0  0  0  0  0  0  0  0  0
   15.1136  -29.3007  -10.5558 C   0  0  2  0  0  0  0  0  0  0  0  0
   15.3165  -27.7912  -10.5399 N   0  0  0  0  0  0  0  0  0  0  0  0
   16.7382  -27.5120  -10.2970 C   0  0  0  0  0  0  0  0  0  0  0  0
   14.5353  -27.1448   -9.4861 O   0  0  0  0  0  0  0  0  0  0  0  0
   13.2503  -26.6524   -9.7047 O   0  0  0  0  0  0  0  0  0  0  0  0
  2  3  2  0
  2  1  1  0
  4  2  1  0
  5  4  1  0
  6  5  1  0
  7  8  1  0
  7  6  1  0
  8 10  1  0
  8  9  1  6
 10 11  2  0
 12 13  1  0
 13 15  1  0
 14 13  2  0
 16 15  1  0
 17 16  1  1
 18 17  1  0
 18 10  1  0
 19 20  2  0
 19 17  1  0
 21 22  1  0
 23 22  1  6
 23 24  1  0
 23 25  1  0
 24 19  1  0
 25 26  1  0
 27 25  2  0
M  END
$$$$
