RQS.pdb
     RDKit          3D

 27 26  0  0  1  0  0  0  0  0999 V2000
   22.4857  -30.3483  -13.8694 N   0  0  0  0  0  0  0  0  0  0  0  0
   22.0523  -31.6929  -13.7298 C   0  0  0  0  0  0  0  0  0  0  0  0
   22.3272  -32.5689  -14.6392 N   0  0  0  0  0  0  0  0  0  0  0  0
   21.3015  -32.1317  -12.5929 N   0  0  0  0  0  0  0  0  0  0  0  0
   21.1939  -31.3064  -11.3992 C   0  0  0  0  0  0  0  0  0  0  0  0
   19.9971  -30.4051  -11.6146 C   0  0  0  0  0  0  0  0  0  0  0  0
   19.7074  -29.5123  -10.4291 C   0  0  0  0  0  0  0  0  0  0  0  0
   20.2220  -28.1345  -10.8106 C   0  0  2  0  0  0  0  0  0  0  0  0
   21.6684  -28.2096  -10.9260 N   0  0  0  0  0  0  0  0  0  0  0  0
   19.8785  -27.1186   -9.8109 C   0  0  0  0  0  0  0  0  0  0  0  0
   20.7222  -26.5471   -9.0666 O   0  0  0  0  0  0  0  0  0  0  0  0
   21.9649  -33.5229  -14.5469 N   0  0  0  0  0  0  0  0  0  0  0  0
   15.8708  -22.6043  -10.7947 C   0  0  0  0  0  0  0  0  0  0  0  0
   16.2431  -22.3322   -9.4520 O   0  0  0  0  0  0  0  0  0  0  0  0
   15.8969  -21.2235   -8.9275 C   0  0  0  0  0  0  0  0  0  0  0  0
   17.0117  -23.3483   -8.7291 C   0  0  0  0  0  0  0  0  0  0  0  0
   17.3643  -24.5569   -9.5554 C   0  0  2  0  0  0  0  0  0  0  0  0
   18.1356  -25.6050   -8.8377 N   0  0  0  0  0  0  0  0  0  0  0  0
   18.5267  -26.7290   -9.6429 C   0  0  0  0  0  0  0  0  0  0  0  0
   17.4746  -26.0299   -7.5651 O   0  0  0  0  0  0  0  0  0  0  0  0
   16.3714  -26.6503   -7.5779 O   0  0  0  0  0  0  0  0  0  0  0  0
   17.6001  -26.6397   -2.7812 C   0  0  0  0  0  0  0  0  0  0  0  0
   18.2517  -26.1048   -3.8799 C   0  0  2  0  0  0  0  0  0  0  0  0
   17.3072  -26.2029   -5.0708 N   0  0  0  0  0  0  0  0  0  0  0  0
   18.0270  -25.7720   -6.2767 C   0  0  0  0  0  0  0  0  0  0  0  0
   16.1311  -25.3489   -4.9085 O   0  0  0  0  0  0  0  0  0  0  0  0
   14.9821  -25.7783   -4.2477 O   0  0  0  0  0  0  0  0  0  0  0  0
  2  3  2  0
  2  1  1  0
  4  2  1  0
  5  4  1  0
  6  5  1  0
  7  8  1  0
  7  6  1  0
  8 10  1  0
  8  9  1  1
 10 11  2  0
 12 13  1  0
 13 15  1  0
 14 13  2  0
 16 15  1  0
 17 16  1  6
 18 17  1  0
 18 10  1  0
 19 20  2  0
 19 17  1  0
 21 22  1  0
 23 22  1  6
 23 24  1  0
 23 25  1  0
 24 19  1  0
 25 26  1  0
 27 25  2  0
M  END
$$$$
