RQS.pdb
     RDKit          3D

 27 26  0  0  1  0  0  0  0  0999 V2000
   28.3784  -20.3951  -13.7159 N   0  0  0  0  0  0  0  0  0  0  0  0
   28.5462  -20.9942  -12.4399 C   0  0  0  0  0  0  0  0  0  0  0  0
   29.6240  -20.7914  -11.7563 N   0  0  0  0  0  0  0  0  0  0  0  0
   27.5446  -21.8380  -11.8625 N   0  0  0  0  0  0  0  0  0  0  0  0
   26.3278  -22.1664  -12.5900 C   0  0  0  0  0  0  0  0  0  0  0  0
   25.2038  -21.4381  -11.8848 C   0  0  0  0  0  0  0  0  0  0  0  0
   23.8594  -21.6419  -12.5464 C   0  0  0  0  0  0  0  0  0  0  0  0
   23.9950  -21.0712  -13.9480 C   0  0  2  0  0  0  0  0  0  0  0  0
   25.2998  -21.4482  -14.4640 N   0  0  0  0  0  0  0  0  0  0  0  0
   23.8835  -19.6094  -13.9640 C   0  0  0  0  0  0  0  0  0  0  0  0
   24.4860  -18.8467  -13.1594 O   0  0  0  0  0  0  0  0  0  0  0  0
   29.7146  -21.2041  -10.8228 N   0  0  0  0  0  0  0  0  0  0  0  0
   26.4861  -15.3145  -15.1398 C   0  0  0  0  0  0  0  0  0  0  0  0
   26.5878  -16.6816  -15.5087 O   0  0  0  0  0  0  0  0  0  0  0  0
   27.7231  -17.1449  -15.8560 C   0  0  0  0  0  0  0  0  0  0  0  0
   25.3732  -17.4994  -15.4699 C   0  0  0  0  0  0  0  0  0  0  0  0
   24.1588  -16.7740  -14.9534 C   0  0  1  0  0  0  0  0  0  0  0  0
   22.8946  -17.5539  -14.9997 N   0  0  0  0  0  0  0  0  0  0  0  0
   23.0582  -18.9797  -14.9283 C   0  0  0  0  0  0  0  0  0  0  0  0
   22.0139  -17.1469  -16.1381 O   0  0  0  0  0  0  0  0  0  0  0  0
   21.8720  -17.8909  -17.1521 O   0  0  0  0  0  0  0  0  0  0  0  0
   18.7302  -16.6183  -15.7607 C   0  0  0  0  0  0  0  0  0  0  0  0
   19.1646  -16.6691  -17.0746 C   0  0  1  0  0  0  0  0  0  0  0  0
   20.3048  -15.6703  -17.2237 N   0  0  0  0  0  0  0  0  0  0  0  0
   21.2886  -15.9201  -16.1616 C   0  0  0  0  0  0  0  0  0  0  0  0
   19.8413  -14.2885  -17.1041 O   0  0  0  0  0  0  0  0  0  0  0  0
   18.9449  -13.7209  -18.0073 O   0  0  0  0  0  0  0  0  0  0  0  0
  2  3  2  0
  2  1  1  0
  4  2  1  0
  5  4  1  0
  6  5  1  0
  7  8  1  0
  7  6  1  0
  8 10  1  0
  8  9  1  1
 10 11  2  0
 12 13  1  0
 13 15  1  0
 14 13  2  0
 16 15  1  0
 17 16  1  1
 18 17  1  0
 18 10  1  0
 19 20  2  0
 19 17  1  0
 21 22  1  0
 23 22  1  6
 23 24  1  0
 23 25  1  0
 24 19  1  0
 25 26  1  0
 27 25  2  0
M  END
$$$$
