RQS.pdb
     RDKit          3D

 27 26  0  0  1  0  0  0  0  0999 V2000
   12.8437  -26.8131   -7.0808 N   0  0  0  0  0  0  0  0  0  0  0  0
   13.8850  -26.1823   -7.8108 C   0  0  0  0  0  0  0  0  0  0  0  0
   13.9388  -26.2837   -9.0980 N   0  0  0  0  0  0  0  0  0  0  0  0
   14.9074  -25.4180   -7.1633 N   0  0  0  0  0  0  0  0  0  0  0  0
   14.8415  -25.1291   -5.7386 C   0  0  0  0  0  0  0  0  0  0  0  0
   15.2852  -26.3910   -5.0302 C   0  0  0  0  0  0  0  0  0  0  0  0
   15.1431  -26.3073   -3.5271 C   0  0  0  0  0  0  0  0  0  0  0  0
   16.0854  -25.2018   -3.0813 C   0  0  2  0  0  0  0  0  0  0  0  0
   17.4458  -25.6298   -3.3588 N   0  0  0  0  0  0  0  0  0  0  0  0
   15.9623  -24.9130   -1.6492 C   0  0  0  0  0  0  0  0  0  0  0  0
   16.3510  -25.6923   -0.7361 O   0  0  0  0  0  0  0  0  0  0  0  0
   14.6865  -25.8065   -9.6110 N   0  0  0  0  0  0  0  0  0  0  0  0
   14.0783  -19.4206    2.4973 C   0  0  0  0  0  0  0  0  0  0  0  0
   15.2924  -20.0752    2.1615 O   0  0  0  0  0  0  0  0  0  0  0  0
   16.3659  -19.3913    2.0984 C   0  0  0  0  0  0  0  0  0  0  0  0
   15.2514  -21.5166    1.9036 C   0  0  0  0  0  0  0  0  0  0  0  0
   15.3376  -21.8838    0.4457 C   0  0  2  0  0  0  0  0  0  0  0  0
   15.2331  -23.3379    0.1572 N   0  0  0  0  0  0  0  0  0  0  0  0
   15.3767  -23.6937   -1.2276 C   0  0  0  0  0  0  0  0  0  0  0  0
   14.0178  -23.9562    0.7717 O   0  0  0  0  0  0  0  0  0  0  0  0
   12.8835  -23.8553    0.2193 O   0  0  0  0  0  0  0  0  0  0  0  0
   14.2416  -25.7812    4.3299 C   0  0  0  0  0  0  0  0  0  0  0  0
   13.1731  -26.2822    3.6051 C   0  0  1  0  0  0  0  0  0  0  0  0
   12.8095  -25.2510    2.5447 N   0  0  0  0  0  0  0  0  0  0  0  0
   14.0495  -24.6861    1.9957 C   0  0  0  0  0  0  0  0  0  0  0  0
   12.0114  -24.1566    3.0962 O   0  0  0  0  0  0  0  0  0  0  0  0
   10.6480  -24.2832    3.3540 O   0  0  0  0  0  0  0  0  0  0  0  0
  2  3  2  0
  2  1  1  0
  4  2  1  0
  5  4  1  0
  6  5  1  0
  7  8  1  0
  7  6  1  0
  8 10  1  0
  8  9  1  1
 10 11  2  0
 12 13  1  0
 13 15  1  0
 14 13  2  0
 16 15  1  0
 17 16  1  1
 18 17  1  0
 18 10  1  0
 19 20  2  0
 19 17  1  0
 21 22  1  0
 23 22  1  6
 23 24  1  0
 23 25  1  0
 24 19  1  0
 25 26  1  0
 27 25  2  0
M  END
$$$$
