RQS.pdb
     RDKit          3D

 27 26  0  0  1  0  0  0  0  0999 V2000
   15.4885  -13.1297  -10.0090 N   0  0  0  0  0  0  0  0  0  0  0  0
   14.1044  -13.2940   -9.7402 C   0  0  0  0  0  0  0  0  0  0  0  0
   13.6740  -14.3536   -9.1384 N   0  0  0  0  0  0  0  0  0  0  0  0
   13.1378  -12.3087  -10.1190 N   0  0  0  0  0  0  0  0  0  0  0  0
   13.5272  -11.1219  -10.8655 C   0  0  0  0  0  0  0  0  0  0  0  0
   13.8941  -10.0755   -9.8352 C   0  0  0  0  0  0  0  0  0  0  0  0
   14.3104   -8.7587  -10.4510 C   0  0  0  0  0  0  0  0  0  0  0  0
   14.6429   -7.8416   -9.2860 C   0  0  2  0  0  0  0  0  0  0  0  0
   13.4036   -7.5142   -8.6021 N   0  0  0  0  0  0  0  0  0  0  0  0
   15.2845   -6.5987   -9.7252 C   0  0  0  0  0  0  0  0  0  0  0  0
   14.6966   -5.6938  -10.3793 O   0  0  0  0  0  0  0  0  0  0  0  0
   12.6744  -14.4464   -8.9331 N   0  0  0  0  0  0  0  0  0  0  0  0
   18.1748   -1.8980   -7.7710 C   0  0  0  0  0  0  0  0  0  0  0  0
   16.8129   -2.2521   -7.9585 O   0  0  0  0  0  0  0  0  0  0  0  0
   15.9099   -1.5589   -7.3856 C   0  0  0  0  0  0  0  0  0  0  0  0
   16.5100   -3.4053   -8.8094 C   0  0  0  0  0  0  0  0  0  0  0  0
   17.7263   -4.1520   -9.2901 C   0  0  2  0  0  0  0  0  0  0  0  0
   17.4392   -5.3730  -10.0870 N   0  0  0  0  0  0  0  0  0  0  0  0
   16.6467   -6.3647   -9.4136 C   0  0  0  0  0  0  0  0  0  0  0  0
   18.6723   -5.9602  -10.6968 O   0  0  0  0  0  0  0  0  0  0  0  0
   19.1676   -7.0391  -10.2579 O   0  0  0  0  0  0  0  0  0  0  0  0
   20.7600   -7.9682  -13.8892 C   0  0  0  0  0  0  0  0  0  0  0  0
   19.7769   -7.3295  -13.1521 C   0  0  1  0  0  0  0  0  0  0  0  0
   20.4100   -6.1093  -12.4962 N   0  0  0  0  0  0  0  0  0  0  0  0
   19.3620   -5.3600  -11.7902 C   0  0  0  0  0  0  0  0  0  0  0  0
   21.0286   -5.2191  -13.4779 O   0  0  0  0  0  0  0  0  0  0  0  0
   20.3275   -4.1840  -14.0931 O   0  0  0  0  0  0  0  0  0  0  0  0
  2  3  2  0
  2  1  1  0
  4  2  1  0
  5  4  1  0
  6  5  1  0
  7  8  1  0
  7  6  1  0
  8 10  1  0
  8  9  1  6
 10 11  2  0
 12 13  1  0
 13 15  1  0
 14 13  2  0
 16 15  1  0
 17 16  1  6
 18 17  1  0
 18 10  1  0
 19 20  2  0
 19 17  1  0
 21 22  1  0
 23 22  1  1
 23 24  1  0
 23 25  1  0
 24 19  1  0
 25 26  1  0
 27 25  2  0
M  END
$$$$
