RQS.pdb
     RDKit          3D

 27 26  0  0  1  0  0  0  0  0999 V2000
   14.6771  -30.5666   -1.4539 N   0  0  0  0  0  0  0  0  0  0  0  0
   15.5716  -31.6403   -1.2042 C   0  0  0  0  0  0  0  0  0  0  0  0
   15.1403  -32.8578   -1.1635 N   0  0  0  0  0  0  0  0  0  0  0  0
   16.9701  -31.4255   -0.9883 N   0  0  0  0  0  0  0  0  0  0  0  0
   17.5429  -30.0891   -1.0459 C   0  0  0  0  0  0  0  0  0  0  0  0
   17.1049  -29.3861    0.2210 C   0  0  0  0  0  0  0  0  0  0  0  0
   17.6938  -28.0007    0.3632 C   0  0  0  0  0  0  0  0  0  0  0  0
   16.7493  -27.0694   -0.3779 C   0  0  2  0  0  0  0  0  0  0  0  0
   17.0688  -27.1364   -1.7936 N   0  0  0  0  0  0  0  0  0  0  0  0
   16.8762  -25.6796    0.0712 C   0  0  0  0  0  0  0  0  0  0  0  0
   17.7954  -24.8989   -0.3003 O   0  0  0  0  0  0  0  0  0  0  0  0
   15.7927  -33.6173   -0.9457 N   0  0  0  0  0  0  0  0  0  0  0  0
   12.4024  -21.6297    1.3840 C   0  0  0  0  0  0  0  0  0  0  0  0
   13.5721  -20.8484    1.5764 O   0  0  0  0  0  0  0  0  0  0  0  0
   13.4494  -19.6105    1.8531 C   0  0  0  0  0  0  0  0  0  0  0  0
   14.8729  -21.5094    1.4478 C   0  0  0  0  0  0  0  0  0  0  0  0
   14.7898  -22.9598    1.0510 C   0  0  2  0  0  0  0  0  0  0  0  0
   15.9664  -23.7836    1.4325 N   0  0  0  0  0  0  0  0  0  0  0  0
   15.9267  -25.1459    0.9773 C   0  0  0  0  0  0  0  0  0  0  0  0
   16.2807  -23.6890    2.8918 O   0  0  0  0  0  0  0  0  0  0  0  0
   16.4692  -24.7291    3.5878 O   0  0  0  0  0  0  0  0  0  0  0  0
   18.5313  -22.9712    6.4684 C   0  0  0  0  0  0  0  0  0  0  0  0
   18.1797  -23.0094    5.1295 C   0  0  1  0  0  0  0  0  0  0  0  0
   16.7751  -22.4338    5.0036 N   0  0  0  0  0  0  0  0  0  0  0  0
   16.3876  -22.4491    3.5867 C   0  0  0  0  0  0  0  0  0  0  0  0
   16.7035  -21.0544    5.4841 O   0  0  0  0  0  0  0  0  0  0  0  0
   16.5993  -20.7397    6.8374 O   0  0  0  0  0  0  0  0  0  0  0  0
  2  3  2  0
  2  1  1  0
  4  2  1  0
  5  4  1  0
  6  5  1  0
  7  8  1  0
  7  6  1  0
  8 10  1  0
  8  9  1  6
 10 11  2  0
 12 13  1  0
 13 15  1  0
 14 13  2  0
 16 15  1  0
 17 16  1  6
 18 17  1  0
 18 10  1  0
 19 20  2  0
 19 17  1  0
 21 22  1  0
 23 22  1  1
 23 24  1  0
 23 25  1  0
 24 19  1  0
 25 26  1  0
 27 25  2  0
M  END
$$$$
