RQS.pdb
     RDKit          3D

 27 26  0  0  1  0  0  0  0  0999 V2000
   26.6418  -20.4317   -9.9806 N   0  0  0  0  0  0  0  0  0  0  0  0
   25.6197  -20.3166  -10.9591 C   0  0  0  0  0  0  0  0  0  0  0  0
   24.3792  -20.4774  -10.6343 N   0  0  0  0  0  0  0  0  0  0  0  0
   25.9131  -20.0227  -12.3288 N   0  0  0  0  0  0  0  0  0  0  0  0
   27.2866  -19.9020  -12.7941 C   0  0  0  0  0  0  0  0  0  0  0  0
   27.3111  -18.7186  -13.7376 C   0  0  0  0  0  0  0  0  0  0  0  0
   26.8144  -19.0574  -15.1251 C   0  0  0  0  0  0  0  0  0  0  0  0
   27.3135  -20.4632  -15.4136 C   0  0  2  0  0  0  0  0  0  0  0  0
   28.3893  -20.3690  -16.3854 N   0  0  0  0  0  0  0  0  0  0  0  0
   26.2588  -21.3248  -15.9564 C   0  0  0  0  0  0  0  0  0  0  0  0
   26.0524  -21.4966  -17.1894 O   0  0  0  0  0  0  0  0  0  0  0  0
   23.6610  -20.4684  -11.3651 N   0  0  0  0  0  0  0  0  0  0  0  0
   24.0230  -26.2432  -16.8376 C   0  0  0  0  0  0  0  0  0  0  0  0
   25.3115  -26.0740  -16.2661 O   0  0  0  0  0  0  0  0  0  0  0  0
   26.2591  -26.8390  -16.6416 C   0  0  0  0  0  0  0  0  0  0  0  0
   25.4902  -25.0187  -15.2661 C   0  0  0  0  0  0  0  0  0  0  0  0
   24.2514  -24.2037  -15.0030 C   0  0  2  0  0  0  0  0  0  0  0  0
   24.2904  -22.8143  -15.5289 N   0  0  0  0  0  0  0  0  0  0  0  0
   25.4000  -22.0236  -15.0723 C   0  0  0  0  0  0  0  0  0  0  0  0
   22.9864  -22.1021  -15.3578 O   0  0  0  0  0  0  0  0  0  0  0  0
   22.8488  -21.1913  -14.4898 O   0  0  0  0  0  0  0  0  0  0  0  0
   19.3797  -20.4208  -14.3326 C   0  0  0  0  0  0  0  0  0  0  0  0
   20.5600  -21.1246  -14.5042 C   0  0  2  0  0  0  0  0  0  0  0  0
   20.5985  -21.6188  -15.9444 N   0  0  0  0  0  0  0  0  0  0  0  0
   21.8319  -22.3920  -16.1418 C   0  0  0  0  0  0  0  0  0  0  0  0
   20.5911  -20.5141  -16.9027 O   0  0  0  0  0  0  0  0  0  0  0  0
   21.7558  -19.8562  -17.2926 O   0  0  0  0  0  0  0  0  0  0  0  0
  2  3  2  0
  2  1  1  0
  4  2  1  0
  5  4  1  0
  6  5  1  0
  7  8  1  0
  7  6  1  0
  8 10  1  0
  8  9  1  6
 10 11  2  0
 12 13  1  0
 13 15  1  0
 14 13  2  0
 16 15  1  0
 17 16  1  6
 18 17  1  0
 18 10  1  0
 19 20  2  0
 19 17  1  0
 21 22  1  0
 23 22  1  1
 23 24  1  0
 23 25  1  0
 24 19  1  0
 25 26  1  0
 27 25  2  0
M  END
$$$$
