RQS.pdb
     RDKit          3D

 27 26  0  0  1  0  0  0  0  0999 V2000
   20.1847  -19.5779  -15.4059 N   0  0  0  0  0  0  0  0  0  0  0  0
   19.6453  -18.3503  -15.8723 C   0  0  0  0  0  0  0  0  0  0  0  0
   18.5514  -18.3333  -16.5600 N   0  0  0  0  0  0  0  0  0  0  0  0
   20.2802  -17.0954  -15.6065 N   0  0  0  0  0  0  0  0  0  0  0  0
   21.4674  -17.0162  -14.7688 C   0  0  0  0  0  0  0  0  0  0  0  0
   22.6439  -16.8915  -15.7130 C   0  0  0  0  0  0  0  0  0  0  0  0
   22.8005  -15.4997  -16.2831 C   0  0  0  0  0  0  0  0  0  0  0  0
   24.2948  -15.2879  -16.4583 C   0  0  2  0  0  0  0  0  0  0  0  0
   24.9860  -16.3758  -15.7878 N   0  0  0  0  0  0  0  0  0  0  0  0
   24.7449  -14.0158  -15.8852 C   0  0  0  0  0  0  0  0  0  0  0  0
   25.0550  -13.8586  -14.6722 O   0  0  0  0  0  0  0  0  0  0  0  0
   18.2085  -17.4461  -16.9409 N   0  0  0  0  0  0  0  0  0  0  0  0
   28.8915  -10.1859  -18.0836 C   0  0  0  0  0  0  0  0  0  0  0  0
   28.3610   -9.3854  -17.0380 O   0  0  0  0  0  0  0  0  0  0  0  0
   28.9921   -8.3372  -16.6816 C   0  0  0  0  0  0  0  0  0  0  0  0
   27.1032   -9.8064  -16.4164 C   0  0  0  0  0  0  0  0  0  0  0  0
   26.6233  -11.1643  -16.8564 C   0  0  1  0  0  0  0  0  0  0  0  0
   25.3473  -11.6100  -16.2384 N   0  0  0  0  0  0  0  0  0  0  0  0
   24.8508  -12.8717  -16.7141 C   0  0  0  0  0  0  0  0  0  0  0  0
   24.2961  -10.5464  -16.2684 O   0  0  0  0  0  0  0  0  0  0  0  0
   23.7303  -10.2180  -17.3519 O   0  0  0  0  0  0  0  0  0  0  0  0
   21.3585   -9.8347  -13.7549 C   0  0  0  0  0  0  0  0  0  0  0  0
   22.1054   -8.6779  -13.9028 C   0  0  2  0  0  0  0  0  0  0  0  0
   22.8595   -8.7797  -15.2222 N   0  0  0  0  0  0  0  0  0  0  0  0
   23.8667   -9.8428  -15.1056 C   0  0  0  0  0  0  0  0  0  0  0  0
   23.5453   -7.5327  -15.5585 O   0  0  0  0  0  0  0  0  0  0  0  0
   22.8587   -6.3844  -15.9474 O   0  0  0  0  0  0  0  0  0  0  0  0
  2  3  2  0
  2  1  1  0
  4  2  1  0
  5  4  1  0
  6  5  1  0
  7  8  1  0
  7  6  1  0
  8 10  1  0
  8  9  1  1
 10 11  2  0
 12 13  1  0
 13 15  1  0
 14 13  2  0
 16 15  1  0
 17 16  1  1
 18 17  1  0
 18 10  1  0
 19 20  2  0
 19 17  1  0
 21 22  1  0
 23 22  1  6
 23 24  1  0
 23 25  1  0
 24 19  1  0
 25 26  1  0
 27 25  2  0
M  END
$$$$
