SQS.pdb
     RDKit          3D

 22 21  0  0  1  0  0  0  0  0999 V2000
   14.2237  -10.0816  -15.6966 O   0  0  0  0  0  0  0  0  0  0  0  0
   14.6848   -9.5886  -14.4786 C   0  0  0  0  0  0  0  0  0  0  0  0
   16.1447   -9.9510  -14.2659 C   0  0  2  0  0  0  0  0  0  0  0  0
   16.2376  -11.3892  -14.1006 N   0  0  0  0  0  0  0  0  0  0  0  0
   16.6241   -9.3119  -13.0261 C   0  0  0  0  0  0  0  0  0  0  0  0
   16.4251   -9.8489  -11.8877 O   0  0  0  0  0  0  0  0  0  0  0  0
   21.6589   -5.7713  -12.5232 N   0  0  0  0  0  0  0  0  0  0  0  0
   21.5196   -7.1699  -12.5659 C   0  0  0  0  0  0  0  0  0  0  0  0
   22.5180   -7.8930  -12.8009 O   0  0  0  0  0  0  0  0  0  0  0  0
   20.2070   -7.8571  -12.3394 C   0  0  0  0  0  0  0  0  0  0  0  0
   19.1310   -6.8568  -12.0863 C   0  0  0  0  0  0  0  0  0  0  0  0
   17.8285   -7.4977  -11.7362 C   0  0  2  0  0  0  0  0  0  0  0  0
   17.3260   -8.0822  -12.9992 N   0  0  0  0  0  0  0  0  0  0  0  0
   16.8244   -6.5737  -11.1785 C   0  0  0  0  0  0  0  0  0  0  0  0
   16.1617   -5.8193  -11.8824 O   0  0  0  0  0  0  0  0  0  0  0  0
   14.4416   -5.2359   -7.1052 O   0  0  0  0  0  0  0  0  0  0  0  0
   15.4157   -6.0576   -7.6703 C   0  0  0  0  0  0  0  0  0  0  0  0
   15.6335   -5.7462   -9.1169 C   0  0  2  0  0  0  0  0  0  0  0  0
   16.6011   -6.5403   -9.7771 N   0  0  0  0  0  0  0  0  0  0  0  0
   15.9464   -4.3190   -9.2591 C   0  0  0  0  0  0  0  0  0  0  0  0
   14.9957   -3.3433   -9.5216 O   0  0  0  0  0  0  0  0  0  0  0  0
   17.1393   -3.9509   -9.1378 O   0  0  0  0  0  0  0  0  0  0  0  0
  2  1  1  0
  3  4  1  1
  3  2  1  0
  5  3  1  0
  6  5  2  0
  7  8  1  0
  8 10  1  0
  8  9  2  0
 10 11  1  0
 12 11  1  6
 12 13  1  0
 12 14  1  0
 13  5  1  0
 14 19  1  0
 15 14  2  0
 16 17  1  0
 18 17  1  1
 18 20  1  0
 19 18  1  0
 20 22  2  0
 20 21  1  0
M  END
$$$$
