SQS.pdb
     RDKit          3D

 22 21  0  0  1  0  0  0  0  0999 V2000
   14.5091  -12.0647  -16.0723 O   0  0  0  0  0  0  0  0  0  0  0  0
   15.0508  -11.3947  -14.9783 C   0  0  0  0  0  0  0  0  0  0  0  0
   16.5335  -11.6953  -14.8395 C   0  0  2  0  0  0  0  0  0  0  0  0
   16.6798  -13.0642  -14.3820 N   0  0  0  0  0  0  0  0  0  0  0  0
   17.1126  -10.8029  -13.8179 C   0  0  0  0  0  0  0  0  0  0  0  0
   17.0884  -11.1119  -12.5819 O   0  0  0  0  0  0  0  0  0  0  0  0
   21.7850   -6.8561  -14.7473 N   0  0  0  0  0  0  0  0  0  0  0  0
   21.3681   -6.4783  -13.4586 C   0  0  0  0  0  0  0  0  0  0  0  0
   22.0133   -5.6127  -12.8189 O   0  0  0  0  0  0  0  0  0  0  0  0
   20.1625   -7.0719  -12.7945 C   0  0  0  0  0  0  0  0  0  0  0  0
   19.4683   -8.0136  -13.7184 C   0  0  0  0  0  0  0  0  0  0  0  0
   18.3207   -8.7103  -13.0647 C   0  0  2  0  0  0  0  0  0  0  0  0
   17.7266   -9.5625  -14.1183 N   0  0  0  0  0  0  0  0  0  0  0  0
   17.2936   -7.8082  -12.5130 C   0  0  0  0  0  0  0  0  0  0  0  0
   16.4376   -7.2790  -13.2138 O   0  0  0  0  0  0  0  0  0  0  0  0
   15.4290   -5.8874   -8.4036 O   0  0  0  0  0  0  0  0  0  0  0  0
   16.4280   -6.6783   -8.9692 C   0  0  0  0  0  0  0  0  0  0  0  0
   16.3530   -6.6833  -10.4629 C   0  0  2  0  0  0  0  0  0  0  0  0
   17.2774   -7.5284  -11.1215 N   0  0  0  0  0  0  0  0  0  0  0  0
   16.4668   -5.3044  -10.9540 C   0  0  0  0  0  0  0  0  0  0  0  0
   15.3875   -4.4443  -11.0950 O   0  0  0  0  0  0  0  0  0  0  0  0
   17.6012   -4.8702  -11.2665 O   0  0  0  0  0  0  0  0  0  0  0  0
  2  1  1  0
  3  4  1  1
  3  2  1  0
  5  3  1  0
  6  5  2  0
  7  8  1  0
  8 10  1  0
  8  9  2  0
 10 11  1  0
 12 11  1  6
 12 13  1  0
 12 14  1  0
 13  5  1  0
 14 19  1  0
 15 14  2  0
 16 17  1  0
 18 17  1  1
 18 20  1  0
 19 18  1  0
 20 22  2  0
 20 21  1  0
M  END
$$$$
