SQS.pdb
     RDKit          3D

 22 21  0  0  1  0  0  0  0  0999 V2000
   15.2435  -11.8575   -9.7686 O   0  0  0  0  0  0  0  0  0  0  0  0
   15.6005  -10.6581  -10.3794 C   0  0  0  0  0  0  0  0  0  0  0  0
   15.0765   -9.4713   -9.5889 C   0  0  2  0  0  0  0  0  0  0  0  0
   13.6324   -9.4365   -9.7230 N   0  0  0  0  0  0  0  0  0  0  0  0
   15.6236   -8.2288  -10.1654 C   0  0  0  0  0  0  0  0  0  0  0  0
   15.2069   -7.7811  -11.2833 O   0  0  0  0  0  0  0  0  0  0  0  0
   16.3276   -2.8765   -7.7434 N   0  0  0  0  0  0  0  0  0  0  0  0
   15.2930   -3.4703   -8.4878 C   0  0  0  0  0  0  0  0  0  0  0  0
   14.1307   -3.0004   -8.4324 O   0  0  0  0  0  0  0  0  0  0  0  0
   15.5140   -4.6651   -9.3655 C   0  0  0  0  0  0  0  0  0  0  0  0
   16.9307   -5.1210   -9.2795 C   0  0  0  0  0  0  0  0  0  0  0  0
   17.2179   -6.2634  -10.1971 C   0  0  2  0  0  0  0  0  0  0  0  0
   16.6298   -7.4521   -9.5410 N   0  0  0  0  0  0  0  0  0  0  0  0
   18.6510   -6.4928  -10.4556 C   0  0  0  0  0  0  0  0  0  0  0  0
   19.4226   -6.8815   -9.5853 O   0  0  0  0  0  0  0  0  0  0  0  0
   20.1419   -8.6432  -13.0590 O   0  0  0  0  0  0  0  0  0  0  0  0
   20.7300   -7.4009  -13.2917 C   0  0  0  0  0  0  0  0  0  0  0  0
   20.5221   -6.4646  -12.1441 C   0  0  2  0  0  0  0  0  0  0  0  0
   19.1774   -6.2610  -11.7533 N   0  0  0  0  0  0  0  0  0  0  0  0
   21.1768   -5.1852  -12.4436 C   0  0  0  0  0  0  0  0  0  0  0  0
   22.5511   -4.9978  -12.4203 O   0  0  0  0  0  0  0  0  0  0  0  0
   20.4603   -4.1989  -12.7388 O   0  0  0  0  0  0  0  0  0  0  0  0
  2  1  1  0
  3  4  1  6
  3  2  1  0
  5  3  1  0
  6  5  2  0
  7  8  1  0
  8 10  1  0
  8  9  2  0
 10 11  1  0
 12 11  1  1
 12 13  1  0
 12 14  1  0
 13  5  1  0
 14 19  1  0
 15 14  2  0
 16 17  1  0
 18 17  1  6
 18 20  1  0
 19 18  1  0
 20 22  2  0
 20 21  1  0
M  END
$$$$
