SQS.pdb
     RDKit          3D

 22 21  0  0  1  0  0  0  0  0999 V2000
   13.7367   -7.3715  -16.9398 O   0  0  0  0  0  0  0  0  0  0  0  0
   14.7367   -7.2917  -15.9740 C   0  0  0  0  0  0  0  0  0  0  0  0
   15.6977   -8.4623  -16.0921 C   0  0  2  0  0  0  0  0  0  0  0  0
   15.0903   -9.6162  -15.4562 N   0  0  0  0  0  0  0  0  0  0  0  0
   16.9422   -8.1390  -15.3696 C   0  0  0  0  0  0  0  0  0  0  0  0
   16.9763   -8.1071  -14.0961 O   0  0  0  0  0  0  0  0  0  0  0  0
   21.9641  -10.9777  -15.9965 N   0  0  0  0  0  0  0  0  0  0  0  0
   22.4620   -9.8938  -15.2519 C   0  0  0  0  0  0  0  0  0  0  0  0
   23.6137   -9.9492  -14.7565 O   0  0  0  0  0  0  0  0  0  0  0  0
   21.6672   -8.6454  -15.0144 C   0  0  0  0  0  0  0  0  0  0  0  0
   20.3102   -8.7676  -15.6195 C   0  0  0  0  0  0  0  0  0  0  0  0
   19.4182   -7.6278  -15.2521 C   0  0  2  0  0  0  0  0  0  0  0  0
   18.1686   -7.8453  -16.0140 N   0  0  0  0  0  0  0  0  0  0  0  0
   19.9691   -6.2967  -15.5645 C   0  0  0  0  0  0  0  0  0  0  0  0
   20.0641   -5.8769  -16.7128 O   0  0  0  0  0  0  0  0  0  0  0  0
   20.8446   -1.8132  -14.2712 O   0  0  0  0  0  0  0  0  0  0  0  0
   20.2457   -3.0454  -14.0138 C   0  0  0  0  0  0  0  0  0  0  0  0
   20.9826   -4.1689  -14.6710 C   0  0  2  0  0  0  0  0  0  0  0  0
   20.4120   -5.4540  -14.5116 N   0  0  0  0  0  0  0  0  0  0  0  0
   22.3783   -4.1588  -14.2159 C   0  0  0  0  0  0  0  0  0  0  0  0
   23.3984   -3.4845  -14.8711 O   0  0  0  0  0  0  0  0  0  0  0  0
   22.6751   -4.7937  -13.1758 O   0  0  0  0  0  0  0  0  0  0  0  0
  2  1  1  0
  3  4  1  1
  3  2  1  0
  5  3  1  0
  6  5  2  0
  7  8  1  0
  8 10  1  0
  8  9  2  0
 10 11  1  0
 12 11  1  6
 12 13  1  0
 12 14  1  0
 13  5  1  0
 14 19  1  0
 15 14  2  0
 16 17  1  0
 18 17  1  1
 18 20  1  0
 19 18  1  0
 20 22  2  0
 20 21  1  0
M  END
$$$$
