SQS.pdb
     RDKit          3D

 22 21  0  0  1  0  0  0  0  0999 V2000
   14.6512   -9.2252  -17.2875 O   0  0  0  0  0  0  0  0  0  0  0  0
   15.7328   -9.1013  -16.4192 C   0  0  0  0  0  0  0  0  0  0  0  0
   16.6133  -10.3383  -16.4717 C   0  0  2  0  0  0  0  0  0  0  0  0
   15.9829  -11.3799  -15.6828 N   0  0  0  0  0  0  0  0  0  0  0  0
   17.9201  -10.0257  -15.8636 C   0  0  0  0  0  0  0  0  0  0  0  0
   18.0510   -9.9176  -14.6006 O   0  0  0  0  0  0  0  0  0  0  0  0
   23.3939  -11.6692  -18.1575 N   0  0  0  0  0  0  0  0  0  0  0  0
   23.7731  -10.9459  -17.0128 C   0  0  0  0  0  0  0  0  0  0  0  0
   24.9739  -10.9322  -16.6485 O   0  0  0  0  0  0  0  0  0  0  0  0
   22.7915  -10.1718  -16.1859 C   0  0  0  0  0  0  0  0  0  0  0  0
   21.4089  -10.3500  -16.7141 C   0  0  0  0  0  0  0  0  0  0  0  0
   20.4030   -9.5442  -15.9602 C   0  0  2  0  0  0  0  0  0  0  0  0
   19.1052   -9.8254  -16.6128 N   0  0  0  0  0  0  0  0  0  0  0  0
   20.6592   -8.0925  -15.9618 C   0  0  0  0  0  0  0  0  0  0  0  0
   20.4355   -7.3859  -16.9387 O   0  0  0  0  0  0  0  0  0  0  0  0
   22.1308   -4.2603  -13.2809 O   0  0  0  0  0  0  0  0  0  0  0  0
   21.8267   -5.6206  -13.3011 C   0  0  0  0  0  0  0  0  0  0  0  0
   21.5419   -6.1052  -14.6871 C   0  0  2  0  0  0  0  0  0  0  0  0
   21.1846   -7.4699  -14.7993 N   0  0  0  0  0  0  0  0  0  0  0  0
   22.6886   -5.7946  -15.5495 C   0  0  0  0  0  0  0  0  0  0  0  0
   22.7949   -4.6350  -16.3035 O   0  0  0  0  0  0  0  0  0  0  0  0
   23.6314   -6.6192  -15.6148 O   0  0  0  0  0  0  0  0  0  0  0  0
  2  1  1  0
  3  4  1  1
  3  2  1  0
  5  3  1  0
  6  5  2  0
  7  8  1  0
  8 10  1  0
  8  9  2  0
 10 11  1  0
 12 11  1  6
 12 13  1  0
 12 14  1  0
 13  5  1  0
 14 19  1  0
 15 14  2  0
 16 17  1  0
 18 17  1  1
 18 20  1  0
 19 18  1  0
 20 22  2  0
 20 21  1  0
M  END
$$$$
