SQS.pdb
     RDKit          3D

 22 21  0  0  1  0  0  0  0  0999 V2000
   16.2790  -12.7308  -14.2816 O   0  0  0  0  0  0  0  0  0  0  0  0
   17.2521  -11.7603  -14.5059 C   0  0  0  0  0  0  0  0  0  0  0  0
   17.1417  -11.1983  -15.9130 C   0  0  2  0  0  0  0  0  0  0  0  0
   17.8359  -12.0954  -16.8175 N   0  0  0  0  0  0  0  0  0  0  0  0
   17.8112   -9.8850  -15.9614 C   0  0  0  0  0  0  0  0  0  0  0  0
   19.0138   -9.7723  -16.3674 O   0  0  0  0  0  0  0  0  0  0  0  0
   14.8345   -4.3584  -15.4534 N   0  0  0  0  0  0  0  0  0  0  0  0
   16.1638   -3.9693  -15.6960 C   0  0  0  0  0  0  0  0  0  0  0  0
   16.4508   -2.7529  -15.8091 O   0  0  0  0  0  0  0  0  0  0  0  0
   17.2821   -4.9583  -15.8295 C   0  0  0  0  0  0  0  0  0  0  0  0
   16.7837   -6.3442  -15.5985 C   0  0  0  0  0  0  0  0  0  0  0  0
   17.8655   -7.3661  -15.7205 C   0  0  2  0  0  0  0  0  0  0  0  0
   17.1896   -8.6738  -15.5712 N   0  0  0  0  0  0  0  0  0  0  0  0
   18.9390   -7.2408  -14.7180 C   0  0  0  0  0  0  0  0  0  0  0  0
   18.8793   -7.7815  -13.6189 O   0  0  0  0  0  0  0  0  0  0  0  0
   23.3970   -7.4436  -13.7376 O   0  0  0  0  0  0  0  0  0  0  0  0
   22.2923   -7.4973  -14.5862 C   0  0  0  0  0  0  0  0  0  0  0  0
   21.2845   -6.4436  -14.2529 C   0  0  2  0  0  0  0  0  0  0  0  0
   20.0931   -6.4699  -15.0160 N   0  0  0  0  0  0  0  0  0  0  0  0
   21.9245   -5.1248  -14.3321 C   0  0  0  0  0  0  0  0  0  0  0  0
   22.6625   -4.5624  -13.3008 O   0  0  0  0  0  0  0  0  0  0  0  0
   21.8026   -4.4609  -15.3892 O   0  0  0  0  0  0  0  0  0  0  0  0
  2  1  1  0
  3  4  1  6
  3  2  1  0
  5  3  1  0
  6  5  2  0
  7  8  1  0
  8 10  1  0
  8  9  2  0
 10 11  1  0
 12 11  1  1
 12 13  1  0
 12 14  1  0
 13  5  1  0
 14 19  1  0
 15 14  2  0
 16 17  1  0
 18 17  1  6
 18 20  1  0
 19 18  1  0
 20 22  2  0
 20 21  1  0
M  END
$$$$
