SQS.pdb
     RDKit          3D

 22 21  0  0  1  0  0  0  0  0999 V2000
   16.0612  -32.5650   -5.6042 O   0  0  0  0  0  0  0  0  0  0  0  0
   15.3800  -31.5278   -6.2360 C   0  0  0  0  0  0  0  0  0  0  0  0
   16.3423  -30.6354   -7.0012 C   0  0  2  0  0  0  0  0  0  0  0  0
   17.6055  -31.3363   -7.1344 N   0  0  0  0  0  0  0  0  0  0  0  0
   16.5776  -29.4033   -6.2254 C   0  0  0  0  0  0  0  0  0  0  0  0
   17.5353  -29.3236   -5.3886 O   0  0  0  0  0  0  0  0  0  0  0  0
   14.0117  -23.7776   -7.4066 N   0  0  0  0  0  0  0  0  0  0  0  0
   14.7572  -23.5335   -6.2396 C   0  0  0  0  0  0  0  0  0  0  0  0
   14.8037  -22.3768   -5.7551 O   0  0  0  0  0  0  0  0  0  0  0  0
   15.5174  -24.6116   -5.5279 C   0  0  0  0  0  0  0  0  0  0  0  0
   15.3728  -25.9115   -6.2431 C   0  0  0  0  0  0  0  0  0  0  0  0
   16.0227  -27.0394   -5.5116 C   0  0  2  0  0  0  0  0  0  0  0  0
   15.7802  -28.2389   -6.3432 N   0  0  0  0  0  0  0  0  0  0  0  0
   15.5046  -27.2621   -4.1496 C   0  0  0  0  0  0  0  0  0  0  0  0
   14.4488  -27.8479   -3.9349 O   0  0  0  0  0  0  0  0  0  0  0  0
   18.1159  -27.6174   -1.1480 O   0  0  0  0  0  0  0  0  0  0  0  0
   17.0005  -26.9178   -0.6901 C   0  0  0  0  0  0  0  0  0  0  0  0
   15.8755  -26.9608   -1.6748 C   0  0  2  0  0  0  0  0  0  0  0  0
   16.2397  -26.7888   -3.0314 N   0  0  0  0  0  0  0  0  0  0  0  0
   14.8554  -25.9811   -1.2813 C   0  0  0  0  0  0  0  0  0  0  0  0
   14.1604  -26.0307   -0.0817 O   0  0  0  0  0  0  0  0  0  0  0  0
   14.5901  -25.0415   -2.0687 O   0  0  0  0  0  0  0  0  0  0  0  0
  2  1  1  0
  3  4  1  1
  3  2  1  0
  5  3  1  0
  6  5  2  0
  7  8  1  0
  8 10  1  0
  8  9  2  0
 10 11  1  0
 12 11  1  6
 12 13  1  0
 12 14  1  0
 13  5  1  0
 14 19  1  0
 15 14  2  0
 16 17  1  0
 18 17  1  1
 18 20  1  0
 19 18  1  0
 20 22  2  0
 20 21  1  0
M  END
$$$$
