SQS.pdb
     RDKit          3D

 22 21  0  0  1  0  0  0  0  0999 V2000
   16.0666  -10.3894  -16.4352 O   0  0  0  0  0  0  0  0  0  0  0  0
   17.1961   -9.7797  -15.8953 C   0  0  0  0  0  0  0  0  0  0  0  0
   18.4547  -10.5436  -16.2698 C   0  0  2  0  0  0  0  0  0  0  0  0
   18.4701  -11.7888  -15.5257 N   0  0  0  0  0  0  0  0  0  0  0  0
   19.6346   -9.7533  -15.8716 C   0  0  0  0  0  0  0  0  0  0  0  0
   19.8755   -9.4994  -14.6464 O   0  0  0  0  0  0  0  0  0  0  0  0
   24.8651   -8.9999  -19.1836 N   0  0  0  0  0  0  0  0  0  0  0  0
   25.0592   -8.0906  -18.1287 C   0  0  0  0  0  0  0  0  0  0  0  0
   26.1355   -7.4512  -18.0415 O   0  0  0  0  0  0  0  0  0  0  0  0
   24.0202   -7.8406  -17.0778 C   0  0  0  0  0  0  0  0  0  0  0  0
   22.7861   -8.6254  -17.3668 C   0  0  0  0  0  0  0  0  0  0  0  0
   21.7129   -8.3922  -16.3550 C   0  0  2  0  0  0  0  0  0  0  0  0
   20.5718   -9.2258  -16.7932 N   0  0  0  0  0  0  0  0  0  0  0  0
   21.2866   -6.9865  -16.2310 C   0  0  0  0  0  0  0  0  0  0  0  0
   20.6972   -6.3959  -17.1296 O   0  0  0  0  0  0  0  0  0  0  0  0
   19.9582   -3.3423  -13.4994 O   0  0  0  0  0  0  0  0  0  0  0  0
   20.2326   -4.6971  -13.6797 C   0  0  0  0  0  0  0  0  0  0  0  0
   21.2134   -4.9224  -14.7861 C   0  0  2  0  0  0  0  0  0  0  0  0
   21.5591   -6.2719  -15.0351 N   0  0  0  0  0  0  0  0  0  0  0  0
   22.4137   -4.1152  -14.5356 C   0  0  0  0  0  0  0  0  0  0  0  0
   22.5270   -2.7751  -14.8761 O   0  0  0  0  0  0  0  0  0  0  0  0
   23.3987   -4.6599  -13.9822 O   0  0  0  0  0  0  0  0  0  0  0  0
  2  1  1  0
  3  4  1  1
  3  2  1  0
  5  3  1  0
  6  5  2  0
  7  8  1  0
  8 10  1  0
  8  9  2  0
 10 11  1  0
 12 11  1  6
 12 13  1  0
 12 14  1  0
 13  5  1  0
 14 19  1  0
 15 14  2  0
 16 17  1  0
 18 17  1  1
 18 20  1  0
 19 18  1  0
 20 22  2  0
 20 21  1  0
M  END
$$$$
