SQS.pdb
     RDKit          3D

 22 21  0  0  1  0  0  0  0  0999 V2000
   13.5310   -5.7010   -6.7790 O   0  0  0  0  0  0  0  0  0  0  0  0
   14.6153   -6.4608   -7.2103 C   0  0  0  0  0  0  0  0  0  0  0  0
   14.2559   -7.2618   -8.4501 C   0  0  2  0  0  0  0  0  0  0  0  0
   13.3946   -8.3585   -8.0499 N   0  0  0  0  0  0  0  0  0  0  0  0
   15.4870   -7.8299   -9.0305 C   0  0  0  0  0  0  0  0  0  0  0  0
   15.8428   -9.0276   -8.7798 O   0  0  0  0  0  0  0  0  0  0  0  0
   15.5805  -10.7548  -13.1088 N   0  0  0  0  0  0  0  0  0  0  0  0
   16.9826  -10.6482  -13.1000 C   0  0  0  0  0  0  0  0  0  0  0  0
   17.6773  -11.4529  -13.7668 O   0  0  0  0  0  0  0  0  0  0  0  0
   17.7066   -9.5963  -12.3151 C   0  0  0  0  0  0  0  0  0  0  0  0
   16.7535   -8.8379  -11.4556 C   0  0  0  0  0  0  0  0  0  0  0  0
   17.4319   -7.7798  -10.6494 C   0  0  2  0  0  0  0  0  0  0  0  0
   16.3519   -7.1106   -9.8910 N   0  0  0  0  0  0  0  0  0  0  0  0
   18.1724   -6.7858  -11.4473 C   0  0  0  0  0  0  0  0  0  0  0  0
   17.6096   -5.9014  -12.0837 O   0  0  0  0  0  0  0  0  0  0  0  0
   22.6374   -5.2832  -12.8267 O   0  0  0  0  0  0  0  0  0  0  0  0
   21.8843   -6.2751  -12.2004 C   0  0  0  0  0  0  0  0  0  0  0  0
   20.4199   -5.9747  -12.2498 C   0  0  2  0  0  0  0  0  0  0  0  0
   19.5902   -6.8368  -11.4943 N   0  0  0  0  0  0  0  0  0  0  0  0
   19.9858   -5.9307  -13.6515 C   0  0  0  0  0  0  0  0  0  0  0  0
   19.9233   -4.7666  -14.4035 O   0  0  0  0  0  0  0  0  0  0  0  0
   19.6502   -7.0025  -14.2099 O   0  0  0  0  0  0  0  0  0  0  0  0
  2  1  1  0
  3  4  1  1
  3  2  1  0
  5  3  1  0
  6  5  2  0
  7  8  1  0
  8 10  1  0
  8  9  2  0
 10 11  1  0
 12 11  1  6
 12 13  1  0
 12 14  1  0
 13  5  1  0
 14 19  1  0
 15 14  2  0
 16 17  1  0
 18 17  1  6
 18 20  1  0
 19 18  1  0
 20 22  2  0
 20 21  1  0
M  END
$$$$
