SQS.pdb
     RDKit          3D

 22 21  0  0  1  0  0  0  0  0999 V2000
   13.7918   -9.7083  -14.3867 O   0  0  0  0  0  0  0  0  0  0  0  0
   15.1551   -9.5146  -14.1794 C   0  0  0  0  0  0  0  0  0  0  0  0
   15.9697  -10.1927  -15.2678 C   0  0  2  0  0  0  0  0  0  0  0  0
   16.0783  -11.6026  -14.9439 N   0  0  0  0  0  0  0  0  0  0  0  0
   17.3274   -9.6167  -15.2832 C   0  0  0  0  0  0  0  0  0  0  0  0
   18.2295  -10.0328  -14.4852 O   0  0  0  0  0  0  0  0  0  0  0  0
   19.9739   -7.4190  -20.3825 N   0  0  0  0  0  0  0  0  0  0  0  0
   20.9965   -7.2315  -19.4356 C   0  0  0  0  0  0  0  0  0  0  0  0
   22.1438   -6.8886  -19.8108 O   0  0  0  0  0  0  0  0  0  0  0  0
   20.7796   -7.4254  -17.9652 C   0  0  0  0  0  0  0  0  0  0  0  0
   19.3933   -7.9055  -17.7009 C   0  0  0  0  0  0  0  0  0  0  0  0
   19.1368   -8.1328  -16.2475 C   0  0  2  0  0  0  0  0  0  0  0  0
   17.7295   -8.5816  -16.1623 N   0  0  0  0  0  0  0  0  0  0  0  0
   19.3344   -6.9431  -15.3998 C   0  0  0  0  0  0  0  0  0  0  0  0
   18.5471   -6.0029  -15.3916 O   0  0  0  0  0  0  0  0  0  0  0  0
   22.3601   -7.0459  -12.4354 O   0  0  0  0  0  0  0  0  0  0  0  0
   21.3315   -6.1073  -12.3712 C   0  0  0  0  0  0  0  0  0  0  0  0
   20.8080   -5.7635  -13.7294 C   0  0  2  0  0  0  0  0  0  0  0  0
   20.4720   -6.8629  -14.5545 N   0  0  0  0  0  0  0  0  0  0  0  0
   21.7670   -4.8801  -14.4041 C   0  0  0  0  0  0  0  0  0  0  0  0
   22.1370   -3.6326  -13.9231 O   0  0  0  0  0  0  0  0  0  0  0  0
   22.2868   -5.2670  -15.4780 O   0  0  0  0  0  0  0  0  0  0  0  0
  2  1  1  0
  3  4  1  1
  3  2  1  0
  5  3  1  0
  6  5  2  0
  7  8  1  0
  8 10  1  0
  8  9  2  0
 10 11  1  0
 12 11  1  6
 12 13  1  0
 12 14  1  0
 13  5  1  0
 14 19  1  0
 15 14  2  0
 16 17  1  0
 18 17  1  1
 18 20  1  0
 19 18  1  0
 20 22  2  0
 20 21  1  0
M  END
$$$$
