SQS.pdb
     RDKit          3D

 22 21  0  0  1  0  0  0  0  0999 V2000
   17.0736  -12.4543  -14.4516 O   0  0  0  0  0  0  0  0  0  0  0  0
   17.6691  -11.3319  -15.0213 C   0  0  0  0  0  0  0  0  0  0  0  0
   18.2482  -11.6608  -16.3867 C   0  0  2  0  0  0  0  0  0  0  0  0
   18.8256  -12.9904  -16.3283 N   0  0  0  0  0  0  0  0  0  0  0  0
   19.3259  -10.7028  -16.6967 C   0  0  0  0  0  0  0  0  0  0  0  0
   20.2627  -11.0032  -17.5066 O   0  0  0  0  0  0  0  0  0  0  0  0
   20.5357   -7.9913  -20.7047 N   0  0  0  0  0  0  0  0  0  0  0  0
   19.3225   -7.8528  -20.0073 C   0  0  0  0  0  0  0  0  0  0  0  0
   18.2767   -7.5360  -20.6243 O   0  0  0  0  0  0  0  0  0  0  0  0
   19.2131   -8.0697  -18.5282 C   0  0  0  0  0  0  0  0  0  0  0  0
   20.5456   -8.4048  -17.9499 C   0  0  0  0  0  0  0  0  0  0  0  0
   20.5162   -8.4819  -16.4589 C   0  0  2  0  0  0  0  0  0  0  0  0
   19.4063   -9.4052  -16.1350 N   0  0  0  0  0  0  0  0  0  0  0  0
   20.3030   -7.1881  -15.7853 C   0  0  0  0  0  0  0  0  0  0  0  0
   19.2054   -6.6431  -15.7394 O   0  0  0  0  0  0  0  0  0  0  0  0
   21.6039   -6.6423  -12.3041 O   0  0  0  0  0  0  0  0  0  0  0  0
   21.9964   -5.5018  -13.0031 C   0  0  0  0  0  0  0  0  0  0  0  0
   21.3033   -5.3944  -14.3241 C   0  0  2  0  0  0  0  0  0  0  0  0
   21.3958   -6.5320  -15.1606 N   0  0  0  0  0  0  0  0  0  0  0  0
   21.7827   -4.1949  -15.0217 C   0  0  0  0  0  0  0  0  0  0  0  0
   21.5630   -2.9012  -14.5715 O   0  0  0  0  0  0  0  0  0  0  0  0
   22.4292   -4.3380  -16.0869 O   0  0  0  0  0  0  0  0  0  0  0  0
  2  1  1  0
  3  4  1  1
  3  2  1  0
  5  3  1  0
  6  5  2  0
  7  8  1  0
  8 10  1  0
  8  9  2  0
 10 11  1  0
 12 11  1  6
 12 13  1  0
 12 14  1  0
 13  5  1  0
 14 19  1  0
 15 14  2  0
 16 17  1  0
 18 17  1  1
 18 20  1  0
 19 18  1  0
 20 22  2  0
 20 21  1  0
M  END
$$$$
