SQS.pdb
     RDKit          3D

 22 21  0  0  1  0  0  0  0  0999 V2000
   13.1332   -8.3656  -10.0486 O   0  0  0  0  0  0  0  0  0  0  0  0
   14.4809   -8.4401  -10.3907 C   0  0  0  0  0  0  0  0  0  0  0  0
   14.7452   -9.6341  -11.2921 C   0  0  2  0  0  0  0  0  0  0  0  0
   14.5870  -10.8426  -10.5053 N   0  0  0  0  0  0  0  0  0  0  0  0
   16.1382   -9.5756  -11.7733 C   0  0  0  0  0  0  0  0  0  0  0  0
   17.1142   -9.8569  -11.0039 O   0  0  0  0  0  0  0  0  0  0  0  0
   17.8154  -11.0930  -17.4016 N   0  0  0  0  0  0  0  0  0  0  0  0
   18.0628  -11.8827  -16.2648 C   0  0  0  0  0  0  0  0  0  0  0  0
   18.2465  -13.1180  -16.3867 O   0  0  0  0  0  0  0  0  0  0  0  0
   18.1196  -11.3091  -14.8811 C   0  0  0  0  0  0  0  0  0  0  0  0
   17.8694   -9.8399  -14.9144 C   0  0  0  0  0  0  0  0  0  0  0  0
   17.9026   -9.2256  -13.5538 C   0  0  2  0  0  0  0  0  0  0  0  0
   16.4962   -9.2119  -13.0944 N   0  0  0  0  0  0  0  0  0  0  0  0
   18.4547   -7.8593  -13.5146 C   0  0  0  0  0  0  0  0  0  0  0  0
   17.7496   -6.8614  -13.6193 O   0  0  0  0  0  0  0  0  0  0  0  0
   22.4722   -5.1799  -12.7142 O   0  0  0  0  0  0  0  0  0  0  0  0
   21.9522   -6.4594  -12.9031 C   0  0  0  0  0  0  0  0  0  0  0  0
   20.5134   -6.4196  -13.3094 C   0  0  2  0  0  0  0  0  0  0  0  0
   19.8519   -7.6699  -13.3505 N   0  0  0  0  0  0  0  0  0  0  0  0
   20.3974   -5.7265  -14.5983 C   0  0  0  0  0  0  0  0  0  0  0  0
   20.1533   -4.3666  -14.7237 O   0  0  0  0  0  0  0  0  0  0  0  0
   20.5250   -6.3940  -15.6524 O   0  0  0  0  0  0  0  0  0  0  0  0
  2  1  1  0
  3  4  1  1
  3  2  1  0
  5  3  1  0
  6  5  2  0
  7  8  1  0
  8 10  1  0
  8  9  2  0
 10 11  1  0
 12 11  1  6
 12 13  1  0
 12 14  1  0
 13  5  1  0
 14 19  1  0
 15 14  2  0
 16 17  1  0
 18 17  1  6
 18 20  1  0
 19 18  1  0
 20 22  2  0
 20 21  1  0
M  END
$$$$
