SQS.pdb
     RDKit          3D

 22 21  0  0  1  0  0  0  0  0999 V2000
   14.6835   -9.2992  -16.2684 O   0  0  0  0  0  0  0  0  0  0  0  0
   15.9683   -8.9345  -15.8741 C   0  0  0  0  0  0  0  0  0  0  0  0
   16.9061  -10.1289  -15.9141 C   0  0  2  0  0  0  0  0  0  0  0  0
   16.4322  -11.1124  -14.9587 N   0  0  0  0  0  0  0  0  0  0  0  0
   18.2546   -9.6969  -15.5014 C   0  0  0  0  0  0  0  0  0  0  0  0
   18.5355   -9.4933  -14.2752 O   0  0  0  0  0  0  0  0  0  0  0  0
   20.5855  -11.6820  -18.4782 N   0  0  0  0  0  0  0  0  0  0  0  0
   21.3519  -12.0564  -17.3603 C   0  0  0  0  0  0  0  0  0  0  0  0
   21.5427  -13.2709  -17.1085 O   0  0  0  0  0  0  0  0  0  0  0  0
   21.9673  -11.0535  -16.4317 C   0  0  0  0  0  0  0  0  0  0  0  0
   21.6325   -9.6669  -16.8649 C   0  0  0  0  0  0  0  0  0  0  0  0
   20.6473   -9.0086  -15.9561 C   0  0  2  0  0  0  0  0  0  0  0  0
   19.3196   -9.4787  -16.4091 N   0  0  0  0  0  0  0  0  0  0  0  0
   20.6895   -7.5352  -15.9754 C   0  0  0  0  0  0  0  0  0  0  0  0
   20.1859   -6.8743  -16.8774 O   0  0  0  0  0  0  0  0  0  0  0  0
   20.1019   -3.4056  -14.4517 O   0  0  0  0  0  0  0  0  0  0  0  0
   19.9976   -4.7794  -14.6636 C   0  0  0  0  0  0  0  0  0  0  0  0
   21.3410   -5.4314  -14.7496 C   0  0  2  0  0  0  0  0  0  0  0  0
   21.3321   -6.8361  -14.9203 N   0  0  0  0  0  0  0  0  0  0  0  0
   22.1336   -5.0549  -13.5726 C   0  0  0  0  0  0  0  0  0  0  0  0
   22.6462   -3.7831  -13.3625 O   0  0  0  0  0  0  0  0  0  0  0  0
   22.3659   -5.9268  -12.7015 O   0  0  0  0  0  0  0  0  0  0  0  0
  2  1  1  0
  3  4  1  1
  3  2  1  0
  5  3  1  0
  6  5  2  0
  7  8  1  0
  8 10  1  0
  8  9  2  0
 10 11  1  0
 12 11  1  6
 12 13  1  0
 12 14  1  0
 13  5  1  0
 14 19  1  0
 15 14  2  0
 16 17  1  0
 18 17  1  1
 18 20  1  0
 19 18  1  0
 20 22  2  0
 20 21  1  0
M  END
$$$$
