SQS.pdb
     RDKit          3D

 22 21  0  0  1  0  0  0  0  0999 V2000
   18.1591  -12.0239  -17.7962 O   0  0  0  0  0  0  0  0  0  0  0  0
   18.8918  -11.2363  -16.9119 C   0  0  0  0  0  0  0  0  0  0  0  0
   20.3016  -11.7774  -16.7459 C   0  0  2  0  0  0  0  0  0  0  0  0
   20.2225  -13.0497  -16.0534 N   0  0  0  0  0  0  0  0  0  0  0  0
   21.0805  -10.8446  -15.9102 C   0  0  0  0  0  0  0  0  0  0  0  0
   20.9661  -10.8432  -14.6411 O   0  0  0  0  0  0  0  0  0  0  0  0
   26.8177  -10.0375  -16.3478 N   0  0  0  0  0  0  0  0  0  0  0  0
   26.0491  -10.8579  -15.5031 C   0  0  0  0  0  0  0  0  0  0  0  0
   26.5472  -11.9043  -15.0217 O   0  0  0  0  0  0  0  0  0  0  0  0
   24.6306  -10.5377  -15.1401 C   0  0  0  0  0  0  0  0  0  0  0  0
   24.1909   -9.2812  -15.8112 C   0  0  0  0  0  0  0  0  0  0  0  0
   22.7510   -8.9756  -15.5605 C   0  0  2  0  0  0  0  0  0  0  0  0
   21.9951   -9.8992  -16.4351 N   0  0  0  0  0  0  0  0  0  0  0  0
   22.3636   -7.5831  -15.8503 C   0  0  0  0  0  0  0  0  0  0  0  0
   22.5110   -7.0758  -16.9570 O   0  0  0  0  0  0  0  0  0  0  0  0
   19.6725   -3.8009  -14.5233 O   0  0  0  0  0  0  0  0  0  0  0  0
   20.0903   -5.1012  -14.2440 C   0  0  0  0  0  0  0  0  0  0  0  0
   21.3487   -5.4489  -14.9738 C   0  0  2  0  0  0  0  0  0  0  0  0
   21.7972   -6.7826  -14.8239 N   0  0  0  0  0  0  0  0  0  0  0  0
   22.4020   -4.4995  -14.5938 C   0  0  0  0  0  0  0  0  0  0  0  0
   22.6996   -3.3498  -15.3109 O   0  0  0  0  0  0  0  0  0  0  0  0
   23.0772   -4.7330  -13.5629 O   0  0  0  0  0  0  0  0  0  0  0  0
  2  1  1  0
  3  4  1  1
  3  2  1  0
  5  3  1  0
  6  5  2  0
  7  8  1  0
  8 10  1  0
  8  9  2  0
 10 11  1  0
 12 11  1  6
 12 13  1  0
 12 14  1  0
 13  5  1  0
 14 19  1  0
 15 14  2  0
 16 17  1  0
 18 17  1  1
 18 20  1  0
 19 18  1  0
 20 22  2  0
 20 21  1  0
M  END
$$$$
