GPF.pdb
     RDKit          3D

 23 24  0  0  1  0  0  0  0  0999 V2000
   26.8708  -16.5448  -14.5366 N   0  0  0  0  0  0  0  0  0  0  0  0
   27.6074  -17.6797  -14.0958 C   0  0  0  0  0  0  0  0  0  0  0  0
   26.8179  -18.6138  -13.2671 C   0  0  0  0  0  0  0  0  0  0  0  0
   25.8472  -18.1764  -12.6124 O   0  0  0  0  0  0  0  0  0  0  0  0
   27.1351  -19.9893  -13.1981 N   0  0  0  0  0  0  0  0  0  0  0  0
   28.2110  -20.6716  -13.9292 C   0  0  0  0  0  0  0  0  0  0  0  0
   27.4769  -21.9608  -14.3226 C   0  0  0  0  0  0  0  0  0  0  0  0
   26.8605  -22.3335  -12.9915 C   0  0  0  0  0  0  0  0  0  0  0  0
   26.4850  -21.0155  -12.4080 C   0  0  1  0  0  0  0  0  0  0  0  0
   26.9599  -20.9407  -10.9974 C   0  0  0  0  0  0  0  0  0  0  0  0
   28.2091  -20.8978  -10.7394 O   0  0  0  0  0  0  0  0  0  0  0  0
   26.0318  -20.9165   -9.9302 N   0  0  0  0  0  0  0  0  0  0  0  0
   26.4466  -21.0055   -8.5218 C   0  0  1  0  0  0  0  0  0  0  0  0
   27.3211  -19.8150   -8.2664 C   0  0  0  0  0  0  0  0  0  0  0  0
   27.7458  -19.6665   -6.8673 C   0  0  0  0  0  0  0  0  0  0  0  0
   27.2620  -18.6570   -6.0602 C   0  0  0  0  0  0  0  0  0  0  0  0
   27.6579  -18.5136   -4.7440 C   0  0  0  0  0  0  0  0  0  0  0  0
   28.5639  -19.3847   -4.1771 C   0  0  0  0  0  0  0  0  0  0  0  0
   29.0566  -20.3989   -4.9709 C   0  0  0  0  0  0  0  0  0  0  0  0
   28.6562  -20.5352   -6.2843 C   0  0  0  0  0  0  0  0  0  0  0  0
   25.2719  -21.1034   -7.6660 C   0  0  0  0  0  0  0  0  0  0  0  0
   25.3529  -21.7201   -6.4343 O   0  0  0  0  0  0  0  0  0  0  0  0
   24.1738  -20.6321   -8.0315 O   0  0  0  0  0  0  0  0  0  0  0  0
  1  2  1  0
  3  2  1  0
  3  4  2  0
  5  3  1  0
  6  5  1  0
  7  6  1  0
  8  7  1  0
  8  9  1  0
  9  5  1  0
  9 10  1  1
 10 11  2  0
 12 10  1  0
 12 13  1  0
 13 14  1  1
 14 15  1  0
 15 20  1  0
 16 15  2  0
 16 17  1  0
 17 18  2  0
 18 19  1  0
 20 19  2  0
 21 22  1  0
 21 13  1  0
 23 21  2  0
M  END
$$$$
