GPF.pdb
     RDKit          3D

 23 24  0  0  1  0  0  0  0  0999 V2000
   23.4364  -16.9533  -16.0114 N   0  0  0  0  0  0  0  0  0  0  0  0
   24.7303  -17.1738  -15.4619 C   0  0  0  0  0  0  0  0  0  0  0  0
   25.1411  -18.5929  -15.4629 C   0  0  0  0  0  0  0  0  0  0  0  0
   24.3817  -19.4468  -15.9694 O   0  0  0  0  0  0  0  0  0  0  0  0
   26.3720  -19.0062  -14.9048 N   0  0  0  0  0  0  0  0  0  0  0  0
   27.2933  -18.1752  -14.1186 C   0  0  0  0  0  0  0  0  0  0  0  0
   28.6303  -18.6478  -14.7059 C   0  0  0  0  0  0  0  0  0  0  0  0
   28.4324  -20.1472  -14.6469 C   0  0  0  0  0  0  0  0  0  0  0  0
   26.9903  -20.3146  -14.9802 C   0  0  1  0  0  0  0  0  0  0  0  0
   26.3528  -21.2300  -13.9920 C   0  0  0  0  0  0  0  0  0  0  0  0
   26.4007  -22.4942  -14.1603 O   0  0  0  0  0  0  0  0  0  0  0  0
   25.6882  -20.7078  -12.8578 N   0  0  0  0  0  0  0  0  0  0  0  0
   25.0031  -21.5667  -11.8799 C   0  0  1  0  0  0  0  0  0  0  0  0
   25.9990  -21.8425  -10.7939 C   0  0  0  0  0  0  0  0  0  0  0  0
   25.9538  -20.8891   -9.6764 C   0  0  0  0  0  0  0  0  0  0  0  0
   26.6691  -19.7091   -9.6937 C   0  0  0  0  0  0  0  0  0  0  0  0
   26.6295  -18.8091   -8.6457 C   0  0  0  0  0  0  0  0  0  0  0  0
   25.8637  -19.0575   -7.5263 C   0  0  0  0  0  0  0  0  0  0  0  0
   25.1431  -20.2327   -7.4941 C   0  0  0  0  0  0  0  0  0  0  0  0
   25.1881  -21.1260   -8.5447 C   0  0  0  0  0  0  0  0  0  0  0  0
   23.7704  -20.9278  -11.4391 C   0  0  0  0  0  0  0  0  0  0  0  0
   23.4945  -19.6222  -11.7905 O   0  0  0  0  0  0  0  0  0  0  0  0
   22.9441  -21.5491  -10.7373 O   0  0  0  0  0  0  0  0  0  0  0  0
  1  2  1  0
  3  2  1  0
  3  4  2  0
  5  3  1  0
  6  5  1  0
  7  6  1  0
  8  7  1  0
  8  9  1  0
  9  5  1  0
  9 10  1  1
 10 11  2  0
 12 10  1  0
 12 13  1  0
 13 14  1  1
 14 15  1  0
 15 20  1  0
 16 15  2  0
 16 17  1  0
 17 18  2  0
 18 19  1  0
 20 19  2  0
 21 22  1  0
 21 13  1  0
 23 21  2  0
M  END
$$$$
