GPF.pdb
     RDKit          3D

 23 24  0  0  1  0  0  0  0  0999 V2000
   21.3078  -19.0433  -13.4146 N   0  0  0  0  0  0  0  0  0  0  0  0
   22.6610  -19.4259  -13.6317 C   0  0  0  0  0  0  0  0  0  0  0  0
   23.2526  -20.1777  -12.5060 C   0  0  0  0  0  0  0  0  0  0  0  0
   22.6066  -20.2902  -11.4419 O   0  0  0  0  0  0  0  0  0  0  0  0
   24.5311  -20.7720  -12.6050 N   0  0  0  0  0  0  0  0  0  0  0  0
   25.4024  -20.7690  -13.7875 C   0  0  0  0  0  0  0  0  0  0  0  0
   25.9194  -22.2129  -13.7292 C   0  0  0  0  0  0  0  0  0  0  0  0
   26.3136  -22.2965  -12.2703 C   0  0  0  0  0  0  0  0  0  0  0  0
   25.2559  -21.5027  -11.5849 C   0  0  1  0  0  0  0  0  0  0  0  0
   25.8880  -20.5455  -10.6336 C   0  0  0  0  0  0  0  0  0  0  0  0
   26.2789  -19.3995  -11.0370 O   0  0  0  0  0  0  0  0  0  0  0  0
   26.0613  -20.8967   -9.2744 N   0  0  0  0  0  0  0  0  0  0  0  0
   27.0700  -20.2561   -8.4165 C   0  0  1  0  0  0  0  0  0  0  0  0
   26.5361  -20.3265   -7.0175 C   0  0  0  0  0  0  0  0  0  0  0  0
   27.4867  -19.8894   -5.9855 C   0  0  0  0  0  0  0  0  0  0  0  0
   27.7729  -18.5561   -5.7736 C   0  0  0  0  0  0  0  0  0  0  0  0
   28.6655  -18.1401   -4.8041 C   0  0  0  0  0  0  0  0  0  0  0  0
   29.3143  -19.0524   -3.9992 C   0  0  0  0  0  0  0  0  0  0  0  0
   29.0389  -20.3887   -4.1988 C   0  0  0  0  0  0  0  0  0  0  0  0
   28.1463  -20.7958   -5.1690 C   0  0  0  0  0  0  0  0  0  0  0  0
   28.3647  -20.8933   -8.6158 C   0  0  0  0  0  0  0  0  0  0  0  0
   29.5255  -20.1486   -8.5705 O   0  0  0  0  0  0  0  0  0  0  0  0
   28.4462  -22.1215   -8.8307 O   0  0  0  0  0  0  0  0  0  0  0  0
  1  2  1  0
  3  2  1  0
  3  4  2  0
  5  3  1  0
  6  5  1  0
  7  6  1  0
  8  7  1  0
  8  9  1  0
  9  5  1  0
  9 10  1  1
 10 11  2  0
 12 10  1  0
 12 13  1  0
 13 14  1  1
 14 15  1  0
 15 20  1  0
 16 15  2  0
 16 17  1  0
 17 18  2  0
 18 19  1  0
 20 19  2  0
 21 22  1  0
 21 13  1  0
 23 21  2  0
M  END
$$$$
