GPF.pdb
     RDKit          3D

 23 24  0  0  1  0  0  0  0  0999 V2000
   26.9009  -16.6560  -14.5780 N   0  0  0  0  0  0  0  0  0  0  0  0
   27.4411  -17.9242  -14.2252 C   0  0  0  0  0  0  0  0  0  0  0  0
   26.5807  -18.7015  -13.3097 C   0  0  0  0  0  0  0  0  0  0  0  0
   25.6617  -18.1184  -12.6950 O   0  0  0  0  0  0  0  0  0  0  0  0
   26.7730  -20.0877  -13.1134 N   0  0  0  0  0  0  0  0  0  0  0  0
   27.6847  -20.9552  -13.8709 C   0  0  0  0  0  0  0  0  0  0  0  0
   26.7907  -22.1930  -14.0275 C   0  0  0  0  0  0  0  0  0  0  0  0
   26.3056  -22.3537  -12.6029 C   0  0  0  0  0  0  0  0  0  0  0  0
   26.1284  -20.9484  -12.1420 C   0  0  1  0  0  0  0  0  0  0  0  0
   26.7735  -20.7750  -10.8099 C   0  0  0  0  0  0  0  0  0  0  0  0
   28.0438  -20.6972  -10.7142 O   0  0  0  0  0  0  0  0  0  0  0  0
   25.9853  -20.6949   -9.6380 N   0  0  0  0  0  0  0  0  0  0  0  0
   26.5576  -20.8403   -8.2908 C   0  0  1  0  0  0  0  0  0  0  0  0
   27.5439  -19.7228   -8.1315 C   0  0  0  0  0  0  0  0  0  0  0  0
   28.0344  -19.5412   -6.7581 C   0  0  0  0  0  0  0  0  0  0  0  0
   28.8794  -20.4522   -6.1577 C   0  0  0  0  0  0  0  0  0  0  0  0
   29.3438  -20.2856   -4.8668 C   0  0  0  0  0  0  0  0  0  0  0  0
   28.9765  -19.1882   -4.1173 C   0  0  0  0  0  0  0  0  0  0  0  0
   28.1324  -18.2688   -4.7032 C   0  0  0  0  0  0  0  0  0  0  0  0
   27.6732  -18.4425   -5.9927 C   0  0  0  0  0  0  0  0  0  0  0  0
   25.4896  -20.8669   -7.3005 C   0  0  0  0  0  0  0  0  0  0  0  0
   24.2367  -20.3778   -7.6092 O   0  0  0  0  0  0  0  0  0  0  0  0
   25.6890  -21.3316   -6.1578 O   0  0  0  0  0  0  0  0  0  0  0  0
  1  2  1  0
  3  2  1  0
  3  4  2  0
  5  3  1  0
  6  5  1  0
  7  6  1  0
  8  7  1  0
  8  9  1  0
  9  5  1  0
  9 10  1  1
 10 11  2  0
 12 10  1  0
 12 13  1  0
 13 14  1  1
 14 15  1  0
 15 20  1  0
 16 15  2  0
 16 17  1  0
 17 18  2  0
 18 19  1  0
 20 19  2  0
 21 22  1  0
 21 13  1  0
 23 21  2  0
M  END
$$$$
