GPF.pdb
     RDKit          3D

 23 24  0  0  1  0  0  0  0  0999 V2000
   26.5621  -18.1373  -14.6693 N   0  0  0  0  0  0  0  0  0  0  0  0
   27.2826  -18.2278  -13.4456 C   0  0  0  0  0  0  0  0  0  0  0  0
   27.0692  -19.4994  -12.7245 C   0  0  0  0  0  0  0  0  0  0  0  0
   25.9120  -19.9637  -12.6370 O   0  0  0  0  0  0  0  0  0  0  0  0
   28.1428  -20.2021  -12.1320 N   0  0  0  0  0  0  0  0  0  0  0  0
   29.5593  -19.8146  -12.1644 C   0  0  0  0  0  0  0  0  0  0  0  0
   30.1969  -21.1911  -12.3979 C   0  0  0  0  0  0  0  0  0  0  0  0
   29.4676  -22.0041  -11.3501 C   0  0  0  0  0  0  0  0  0  0  0  0
   28.0906  -21.4367  -11.3751 C   0  0  1  0  0  0  0  0  0  0  0  0
   27.6419  -21.1543   -9.9823 C   0  0  0  0  0  0  0  0  0  0  0  0
   28.4795  -20.7640   -9.1020 O   0  0  0  0  0  0  0  0  0  0  0  0
   26.2837  -21.3159   -9.6214 N   0  0  0  0  0  0  0  0  0  0  0  0
   25.7688  -20.9362   -8.2970 C   0  0  1  0  0  0  0  0  0  0  0  0
   26.3716  -19.6008   -7.9799 C   0  0  0  0  0  0  0  0  0  0  0  0
   27.2743  -19.6056   -6.8201 C   0  0  0  0  0  0  0  0  0  0  0  0
   28.2747  -18.6670   -6.6692 C   0  0  0  0  0  0  0  0  0  0  0  0
   29.1256  -18.6669   -5.5803 C   0  0  0  0  0  0  0  0  0  0  0  0
   29.0075  -19.6170   -4.5881 C   0  0  0  0  0  0  0  0  0  0  0  0
   28.0126  -20.5618   -4.7245 C   0  0  0  0  0  0  0  0  0  0  0  0
   27.1671  -20.5550   -5.8149 C   0  0  0  0  0  0  0  0  0  0  0  0
   24.3125  -20.9699   -8.3047 C   0  0  0  0  0  0  0  0  0  0  0  0
   23.6126  -21.2396   -7.1465 O   0  0  0  0  0  0  0  0  0  0  0  0
   23.6739  -20.7558   -9.3572 O   0  0  0  0  0  0  0  0  0  0  0  0
  1  2  1  0
  3  2  1  0
  3  4  2  0
  5  3  1  0
  6  5  1  0
  7  6  1  0
  8  7  1  0
  8  9  1  0
  9  5  1  0
  9 10  1  1
 10 11  2  0
 12 10  1  0
 12 13  1  0
 13 14  1  6
 14 15  1  0
 15 20  1  0
 16 15  2  0
 16 17  1  0
 17 18  2  0
 18 19  1  0
 20 19  2  0
 21 22  1  0
 21 13  1  0
 23 21  2  0
M  END
$$$$
