GPF.pdb
     RDKit          3D

 23 24  0  0  1  0  0  0  0  0999 V2000
   22.1606  -20.7571  -14.2263 N   0  0  0  0  0  0  0  0  0  0  0  0
   23.3578  -20.1143  -13.8037 C   0  0  0  0  0  0  0  0  0  0  0  0
   23.9951  -20.7564  -12.6358 C   0  0  0  0  0  0  0  0  0  0  0  0
   23.2754  -21.3079  -11.7754 O   0  0  0  0  0  0  0  0  0  0  0  0
   25.3986  -20.7613  -12.4697 N   0  0  0  0  0  0  0  0  0  0  0  0
   26.3812  -20.1188  -13.3524 C   0  0  0  0  0  0  0  0  0  0  0  0
   27.4585  -21.2118  -13.3762 C   0  0  0  0  0  0  0  0  0  0  0  0
   27.5737  -21.5050  -11.8959 C   0  0  0  0  0  0  0  0  0  0  0  0
   26.1691  -21.3874  -11.4141 C   0  0  1  0  0  0  0  0  0  0  0  0
   26.1306  -20.5371  -10.1909 C   0  0  0  0  0  0  0  0  0  0  0  0
   25.9097  -19.2836  -10.2841 O   0  0  0  0  0  0  0  0  0  0  0  0
   26.3384  -21.1099   -8.9144 N   0  0  0  0  0  0  0  0  0  0  0  0
   26.5901  -20.2955   -7.7157 C   0  0  1  0  0  0  0  0  0  0  0  0
   27.0364  -21.2481   -6.6477 C   0  0  0  0  0  0  0  0  0  0  0  0
   27.6744  -20.6035   -5.4914 C   0  0  0  0  0  0  0  0  0  0  0  0
   26.9897  -20.3676   -4.3167 C   0  0  0  0  0  0  0  0  0  0  0  0
   27.5853  -19.7623   -3.2265 C   0  0  0  0  0  0  0  0  0  0  0  0
   28.9048  -19.3647   -3.2693 C   0  0  0  0  0  0  0  0  0  0  0  0
   29.6026  -19.5936   -4.4363 C   0  0  0  0  0  0  0  0  0  0  0  0
   29.0005  -20.1985   -5.5205 C   0  0  0  0  0  0  0  0  0  0  0  0
   27.5361  -19.2332   -8.0298 C   0  0  0  0  0  0  0  0  0  0  0  0
   27.3719  -17.9703   -7.4985 O   0  0  0  0  0  0  0  0  0  0  0  0
   28.5096  -19.4466   -8.7836 O   0  0  0  0  0  0  0  0  0  0  0  0
  1  2  1  0
  3  2  1  0
  3  4  2  0
  5  3  1  0
  6  5  1  0
  7  6  1  0
  8  7  1  0
  8  9  1  0
  9  5  1  0
  9 10  1  1
 10 11  2  0
 12 10  1  0
 12 13  1  0
 13 14  1  1
 14 15  1  0
 15 20  1  0
 16 15  2  0
 16 17  1  0
 17 18  2  0
 18 19  1  0
 20 19  2  0
 21 22  1  0
 21 13  1  0
 23 21  2  0
M  END
$$$$
