GPF.pdb
     RDKit          3D

 23 24  0  0  1  0  0  0  0  0999 V2000
   28.2626  -21.4679  -15.4579 N   0  0  0  0  0  0  0  0  0  0  0  0
   27.1293  -21.8894  -14.7079 C   0  0  0  0  0  0  0  0  0  0  0  0
   26.7916  -20.9886  -13.5867 C   0  0  0  0  0  0  0  0  0  0  0  0
   27.6142  -20.1143  -13.2385 O   0  0  0  0  0  0  0  0  0  0  0  0
   25.5609  -21.0929  -12.8998 N   0  0  0  0  0  0  0  0  0  0  0  0
   24.4684  -22.0247  -13.2092 C   0  0  0  0  0  0  0  0  0  0  0  0
   23.2686  -21.0878  -13.0137 C   0  0  0  0  0  0  0  0  0  0  0  0
   23.6280  -20.4689  -11.6801 C   0  0  0  0  0  0  0  0  0  0  0  0
   25.1080  -20.3212  -11.7600 C   0  0  1  0  0  0  0  0  0  0  0  0
   25.7304  -20.8515  -10.5141 C   0  0  0  0  0  0  0  0  0  0  0  0
   25.8831  -22.1085  -10.3546 O   0  0  0  0  0  0  0  0  0  0  0  0
   26.1582  -19.9679   -9.4957 N   0  0  0  0  0  0  0  0  0  0  0  0
   26.7684  -20.4425   -8.2444 C   0  0  1  0  0  0  0  0  0  0  0  0
   27.5902  -19.3036   -7.7203 C   0  0  0  0  0  0  0  0  0  0  0  0
   28.1684  -19.5380   -6.3897 C   0  0  0  0  0  0  0  0  0  0  0  0
   29.1898  -20.4435   -6.1862 C   0  0  0  0  0  0  0  0  0  0  0  0
   29.7371  -20.6670   -4.9372 C   0  0  0  0  0  0  0  0  0  0  0  0
   29.2787  -19.9854   -3.8298 C   0  0  0  0  0  0  0  0  0  0  0  0
   28.2584  -19.0770   -4.0168 C   0  0  0  0  0  0  0  0  0  0  0  0
   27.7172  -18.8596   -5.2674 C   0  0  0  0  0  0  0  0  0  0  0  0
   25.7319  -20.9230   -7.3405 C   0  0  0  0  0  0  0  0  0  0  0  0
   24.4677  -20.3708   -7.3688 O   0  0  0  0  0  0  0  0  0  0  0  0
   25.9692  -21.8407   -6.5262 O   0  0  0  0  0  0  0  0  0  0  0  0
  1  2  1  0
  3  2  1  0
  3  4  2  0
  5  3  1  0
  6  5  1  0
  7  6  1  0
  8  7  1  0
  8  9  1  0
  9  5  1  0
  9 10  1  1
 10 11  2  0
 12 10  1  0
 12 13  1  0
 13 14  1  1
 14 15  1  0
 15 20  1  0
 16 15  2  0
 16 17  1  0
 17 18  2  0
 18 19  1  0
 20 19  2  0
 21 22  1  0
 21 13  1  0
 23 21  2  0
M  END
$$$$
