GPF.pdb
     RDKit          3D

 23 24  0  0  1  0  0  0  0  0999 V2000
   37.3696  -22.7356    9.4574 N   0  0  0  0  0  0  0  0  0  0  0  0
   36.3154  -23.2296   10.2755 C   0  0  0  0  0  0  0  0  0  0  0  0
   34.9816  -23.1301    9.6482 C   0  0  0  0  0  0  0  0  0  0  0  0
   34.8793  -22.6212    8.5112 O   0  0  0  0  0  0  0  0  0  0  0  0
   33.8199  -23.5968   10.3041 N   0  0  0  0  0  0  0  0  0  0  0  0
   33.7689  -24.2725   11.6073 C   0  0  0  0  0  0  0  0  0  0  0  0
   32.7245  -25.3531   11.2958 C   0  0  0  0  0  0  0  0  0  0  0  0
   31.6581  -24.5096   10.6309 C   0  0  0  0  0  0  0  0  0  0  0  0
   32.4463  -23.5164    9.8494 C   0  0  1  0  0  0  0  0  0  0  0  0
   31.9129  -22.1476   10.0998 C   0  0  0  0  0  0  0  0  0  0  0  0
   32.5139  -21.3586   10.9029 O   0  0  0  0  0  0  0  0  0  0  0  0
   30.7354  -21.7086    9.4503 N   0  0  0  0  0  0  0  0  0  0  0  0
   30.2102  -20.3436    9.6070 C   0  0  1  0  0  0  0  0  0  0  0  0
   29.7739  -19.9031    8.2421 C   0  0  0  0  0  0  0  0  0  0  0  0
   30.8740  -19.7280    7.2835 C   0  0  0  0  0  0  0  0  0  0  0  0
   31.0982  -20.6231    6.2573 C   0  0  0  0  0  0  0  0  0  0  0  0
   32.1308  -20.4624    5.3531 C   0  0  0  0  0  0  0  0  0  0  0  0
   32.9897  -19.3875    5.4413 C   0  0  0  0  0  0  0  0  0  0  0  0
   32.7788  -18.4841    6.4615 C   0  0  0  0  0  0  0  0  0  0  0  0
   31.7453  -18.6517    7.3602 C   0  0  0  0  0  0  0  0  0  0  0  0
   29.1665  -20.3294   10.6231 C   0  0  0  0  0  0  0  0  0  0  0  0
   28.6156  -21.5103   11.0770 O   0  0  0  0  0  0  0  0  0  0  0  0
   28.7533  -19.2507   11.0998 O   0  0  0  0  0  0  0  0  0  0  0  0
  1  2  1  0
  3  2  1  0
  3  4  2  0
  5  3  1  0
  6  5  1  0
  7  6  1  0
  8  7  1  0
  8  9  1  0
  9  5  1  0
  9 10  1  1
 10 11  2  0
 12 10  1  0
 12 13  1  0
 13 14  1  6
 14 15  1  0
 15 20  1  0
 16 15  2  0
 16 17  1  0
 17 18  2  0
 18 19  1  0
 20 19  2  0
 21 22  1  0
 21 13  1  0
 23 21  2  0
M  END
$$$$
