GPF.pdb
     RDKit          3D

 23 24  0  0  1  0  0  0  0  0999 V2000
   25.3091  -22.9920  -16.9524 N   0  0  0  0  0  0  0  0  0  0  0  0
   25.4100  -21.6915  -16.3838 C   0  0  0  0  0  0  0  0  0  0  0  0
   26.2103  -21.6472  -15.1428 C   0  0  0  0  0  0  0  0  0  0  0  0
   26.5060  -22.7180  -14.5698 O   0  0  0  0  0  0  0  0  0  0  0  0
   26.6487  -20.4228  -14.5895 N   0  0  0  0  0  0  0  0  0  0  0  0
   26.3990  -19.0824  -15.1360 C   0  0  0  0  0  0  0  0  0  0  0  0
   27.7757  -18.4472  -14.8974 C   0  0  0  0  0  0  0  0  0  0  0  0
   28.0080  -18.8475  -13.4564 C   0  0  0  0  0  0  0  0  0  0  0  0
   27.4267  -20.2170  -13.3844 C   0  0  1  0  0  0  0  0  0  0  0  0
   26.5414  -20.3212  -12.1902 C   0  0  0  0  0  0  0  0  0  0  0  0
   25.2923  -20.0793  -12.2908 O   0  0  0  0  0  0  0  0  0  0  0  0
   27.0758  -20.6891  -10.9332 N   0  0  0  0  0  0  0  0  0  0  0  0
   26.2267  -21.1016   -9.8052 C   0  0  1  0  0  0  0  0  0  0  0  0
   27.1411  -21.7414   -8.8043 C   0  0  0  0  0  0  0  0  0  0  0  0
   27.7160  -20.8063   -7.8270 C   0  0  0  0  0  0  0  0  0  0  0  0
   29.0682  -20.7761   -7.5528 C   0  0  0  0  0  0  0  0  0  0  0  0
   29.6135  -19.8984   -6.6352 C   0  0  0  0  0  0  0  0  0  0  0  0
   28.8181  -19.0061   -5.9480 C   0  0  0  0  0  0  0  0  0  0  0  0
   27.4647  -19.0240   -6.2111 C   0  0  0  0  0  0  0  0  0  0  0  0
   26.9280  -19.9036   -7.1288 C   0  0  0  0  0  0  0  0  0  0  0  0
   25.4730  -19.9577   -9.3098 C   0  0  0  0  0  0  0  0  0  0  0  0
   24.2435  -20.1367   -8.7094 O   0  0  0  0  0  0  0  0  0  0  0  0
   25.9254  -18.7981   -9.4198 O   0  0  0  0  0  0  0  0  0  0  0  0
  1  2  1  0
  3  2  1  0
  3  4  2  0
  5  3  1  0
  6  5  1  0
  7  6  1  0
  8  7  1  0
  8  9  1  0
  9  5  1  0
  9 10  1  1
 10 11  2  0
 12 10  1  0
 12 13  1  0
 13 14  1  1
 14 15  1  0
 15 20  1  0
 16 15  2  0
 16 17  1  0
 17 18  2  0
 18 19  1  0
 20 19  2  0
 21 22  1  0
 21 13  1  0
 23 21  2  0
M  END
$$$$
