VQY.pdb
     RDKit          3D

 29 29  0  0  1  0  0  0  0  0999 V2000
    8.5320  -12.9421   17.6098 C   0  0  0  0  0  0  0  0  0  0  0  0
    8.6522  -13.7054   18.9028 C   0  0  1  0  0  0  0  0  0  0  0  0
    7.5059  -13.4494   19.8210 C   0  0  0  0  0  0  0  0  0  0  0  0
    8.8678  -15.1596   18.5605 C   0  0  2  0  0  0  0  0  0  0  0  0
    7.7994  -15.6928   17.7501 N   0  0  0  0  0  0  0  0  0  0  0  0
    9.0101  -16.0232   19.7597 C   0  0  0  0  0  0  0  0  0  0  0  0
    8.0169  -16.5193   20.3325 O   0  0  0  0  0  0  0  0  0  0  0  0
   14.9215  -18.6314   21.7732 N   0  0  0  0  0  0  0  0  0  0  0  0
   13.6396  -19.0863   22.1623 C   0  0  0  0  0  0  0  0  0  0  0  0
   13.3894  -20.3086   22.1680 O   0  0  0  0  0  0  0  0  0  0  0  0
   12.5970  -18.1174   22.5603 C   0  0  0  0  0  0  0  0  0  0  0  0
   11.9873  -17.4084   21.4058 C   0  0  0  0  0  0  0  0  0  0  0  0
   10.5540  -16.9750   21.5460 C   0  0  2  0  0  0  0  0  0  0  0  0
   10.2785  -16.2927   20.2661 N   0  0  0  0  0  0  0  0  0  0  0  0
   10.2932  -16.0988   22.6688 C   0  0  0  0  0  0  0  0  0  0  0  0
   10.8640  -14.9799   22.7161 O   0  0  0  0  0  0  0  0  0  0  0  0
    5.8403  -11.2239   28.2336 O   0  0  0  0  0  0  0  0  0  0  0  0
    6.2935  -12.1606   27.3004 C   0  0  0  0  0  0  0  0  0  0  0  0
    5.4882  -13.1894   26.8433 C   0  0  0  0  0  0  0  0  0  0  0  0
    5.9384  -14.1050   25.9285 C   0  0  0  0  0  0  0  0  0  0  0  0
    7.2264  -14.0022   25.4483 C   0  0  0  0  0  0  0  0  0  0  0  0
    7.7532  -14.9519   24.4804 C   0  0  0  0  0  0  0  0  0  0  0  0
    9.1685  -15.4156   24.7475 C   0  0  2  0  0  0  0  0  0  0  0  0
    9.4209  -16.4449   23.7101 N   0  0  0  0  0  0  0  0  0  0  0  0
    9.2027  -16.1267   26.0469 C   0  0  0  0  0  0  0  0  0  0  0  0
    8.9577  -17.4973   26.1475 O   0  0  0  0  0  0  0  0  0  0  0  0
    8.0474  -12.9838   25.8902 C   0  0  0  0  0  0  0  0  0  0  0  0
    7.5738  -12.0598   26.8218 C   0  0  0  0  0  0  0  0  0  0  0  0
    9.4511  -15.5558   27.1400 O   0  0  0  0  0  0  0  0  0  0  0  0
  2  1  1  6
  3  2  1  0
  4  2  1  0
  4  5  1  1
  6 14  1  0
  6  4  1  0
  7  6  2  0
  8  9  1  0
  9 10  2  0
 11 12  1  0
 11  9  1  0
 13 12  1  6
 13 14  1  0
 15 13  1  0
 16 15  2  0
 18 28  2  0
 18 17  1  0
 19 18  1  0
 20 21  1  0
 20 19  2  0
 21 27  2  0
 22 21  1  0
 23 22  1  6
 23 25  1  0
 23 24  1  0
 24 15  1  0
 25 26  1  0
 27 28  1  0
 29 25  2  0
M  END
$$$$
