VQY.pdb
     RDKit          3D

 29 29  0  0  1  0  0  0  0  0999 V2000
    8.5007  -12.8098   20.4199 C   0  0  0  0  0  0  0  0  0  0  0  0
    7.6314  -13.2811   19.2836 C   0  0  1  0  0  0  0  0  0  0  0  0
    7.3097  -12.1864   18.3240 C   0  0  0  0  0  0  0  0  0  0  0  0
    8.2990  -14.4834   18.6613 C   0  0  2  0  0  0  0  0  0  0  0  0
    7.5762  -14.9742   17.5127 N   0  0  0  0  0  0  0  0  0  0  0  0
    8.4695  -15.6100   19.6130 C   0  0  0  0  0  0  0  0  0  0  0  0
    7.4938  -16.2685   20.0316 O   0  0  0  0  0  0  0  0  0  0  0  0
   12.9752  -19.4013   19.0916 N   0  0  0  0  0  0  0  0  0  0  0  0
   12.6962  -19.7120   20.4434 C   0  0  0  0  0  0  0  0  0  0  0  0
   13.2783  -20.6685   20.9938 O   0  0  0  0  0  0  0  0  0  0  0  0
   11.7167  -18.9076   21.2033 C   0  0  0  0  0  0  0  0  0  0  0  0
   11.1148  -17.8108   20.4022 C   0  0  0  0  0  0  0  0  0  0  0  0
   10.0463  -16.9846   21.0637 C   0  0  2  0  0  0  0  0  0  0  0  0
    9.7450  -15.9486   20.0560 N   0  0  0  0  0  0  0  0  0  0  0  0
   10.4361  -16.3865   22.3235 C   0  0  0  0  0  0  0  0  0  0  0  0
   11.2461  -15.4253   22.3187 O   0  0  0  0  0  0  0  0  0  0  0  0
   10.5967  -14.4253   30.9347 O   0  0  0  0  0  0  0  0  0  0  0  0
   10.2832  -14.8508   29.6407 C   0  0  0  0  0  0  0  0  0  0  0  0
   10.3608  -16.1814   29.2671 C   0  0  0  0  0  0  0  0  0  0  0  0
   10.0525  -16.5924   27.9967 C   0  0  0  0  0  0  0  0  0  0  0  0
    9.6541  -15.6595   27.0634 C   0  0  0  0  0  0  0  0  0  0  0  0
    9.3209  -16.0442   25.7006 C   0  0  0  0  0  0  0  0  0  0  0  0
   10.5076  -16.2076   24.7761 C   0  0  2  0  0  0  0  0  0  0  0  0
    9.9411  -16.8330   23.5566 N   0  0  0  0  0  0  0  0  0  0  0  0
   11.4336  -17.2077   25.3570 C   0  0  0  0  0  0  0  0  0  0  0  0
   12.5951  -16.8348   26.0359 O   0  0  0  0  0  0  0  0  0  0  0  0
    9.5694  -14.3266   27.4140 C   0  0  0  0  0  0  0  0  0  0  0  0
    9.8868  -13.9246   28.7115 C   0  0  0  0  0  0  0  0  0  0  0  0
   11.2444  -18.4490   25.2823 O   0  0  0  0  0  0  0  0  0  0  0  0
  2  1  1  1
  3  2  1  0
  4  2  1  0
  4  5  1  6
  6 14  1  0
  6  4  1  0
  7  6  2  0
  8  9  1  0
  9 10  2  0
 11 12  1  0
 11  9  1  0
 13 12  1  6
 13 14  1  0
 15 13  1  0
 16 15  2  0
 18 28  2  0
 18 17  1  0
 19 18  1  0
 20 21  1  0
 20 19  2  0
 21 27  2  0
 22 21  1  0
 23 22  1  1
 23 25  1  0
 23 24  1  0
 24 15  1  0
 25 26  1  0
 27 28  1  0
 29 25  2  0
M  END
$$$$
