VQY.pdb
     RDKit          3D

 29 29  0  0  1  0  0  0  0  0999 V2000
    8.8115  -12.6934   21.0758 C   0  0  0  0  0  0  0  0  0  0  0  0
    8.0289  -13.1607   19.8766 C   0  0  1  0  0  0  0  0  0  0  0  0
    8.1027  -12.1977   18.7408 C   0  0  0  0  0  0  0  0  0  0  0  0
    8.4891  -14.5590   19.5430 C   0  0  2  0  0  0  0  0  0  0  0  0
    7.8938  -15.0523   18.3244 N   0  0  0  0  0  0  0  0  0  0  0  0
    8.2037  -15.5371   20.6228 C   0  0  0  0  0  0  0  0  0  0  0  0
    7.0437  -15.9395   20.8536 O   0  0  0  0  0  0  0  0  0  0  0  0
    6.8029  -19.7878   20.5691 N   0  0  0  0  0  0  0  0  0  0  0  0
    7.9778  -19.7448   21.3562 C   0  0  0  0  0  0  0  0  0  0  0  0
    8.0200  -20.3556   22.4432 O   0  0  0  0  0  0  0  0  0  0  0  0
    9.1534  -18.9774   20.8943 C   0  0  0  0  0  0  0  0  0  0  0  0
    9.8179  -18.2155   21.9829 C   0  0  0  0  0  0  0  0  0  0  0  0
    9.1041  -16.9982   22.5029 C   0  0  2  0  0  0  0  0  0  0  0  0
    9.2486  -16.0237   21.4033 N   0  0  0  0  0  0  0  0  0  0  0  0
    9.6352  -16.4673   23.7409 C   0  0  0  0  0  0  0  0  0  0  0  0
   10.7454  -15.8780   23.7265 O   0  0  0  0  0  0  0  0  0  0  0  0
    5.3349  -11.1955   25.6950 O   0  0  0  0  0  0  0  0  0  0  0  0
    6.1275  -12.2909   26.0493 C   0  0  0  0  0  0  0  0  0  0  0  0
    7.4047  -12.1374   26.5604 C   0  0  0  0  0  0  0  0  0  0  0  0
    8.1771  -13.2155   26.9055 C   0  0  0  0  0  0  0  0  0  0  0  0
    7.6727  -14.4877   26.7413 C   0  0  0  0  0  0  0  0  0  0  0  0
    8.4545  -15.6645   27.0878 C   0  0  0  0  0  0  0  0  0  0  0  0
    9.6025  -15.9662   26.1494 C   0  0  2  0  0  0  0  0  0  0  0  0
    8.9570  -16.5782   24.9627 N   0  0  0  0  0  0  0  0  0  0  0  0
   10.4460  -17.0262   26.7492 C   0  0  0  0  0  0  0  0  0  0  0  0
   11.3942  -16.7485   27.7355 O   0  0  0  0  0  0  0  0  0  0  0  0
    6.4009  -14.6645   26.2333 C   0  0  0  0  0  0  0  0  0  0  0  0
    5.6274  -13.5565   25.8867 C   0  0  0  0  0  0  0  0  0  0  0  0
   10.3715  -18.2376   26.4185 O   0  0  0  0  0  0  0  0  0  0  0  0
  2  1  1  1
  3  2  1  0
  4  2  1  0
  4  5  1  6
  6 14  1  0
  6  4  1  0
  7  6  2  0
  8  9  1  0
  9 10  2  0
 11 12  1  0
 11  9  1  0
 13 12  1  6
 13 14  1  0
 15 13  1  0
 16 15  2  0
 18 28  2  0
 18 17  1  0
 19 18  1  0
 20 21  1  0
 20 19  2  0
 21 27  2  0
 22 21  1  0
 23 22  1  1
 23 25  1  0
 23 24  1  0
 24 15  1  0
 25 26  1  0
 27 28  1  0
 29 25  2  0
M  END
$$$$
