VQY.pdb
     RDKit          3D

 29 29  0  0  1  0  0  0  0  0999 V2000
    8.6422  -12.8764   19.9631 C   0  0  0  0  0  0  0  0  0  0  0  0
    7.4406  -13.4313   19.2440 C   0  0  1  0  0  0  0  0  0  0  0  0
    7.3061  -12.8888   17.8620 C   0  0  0  0  0  0  0  0  0  0  0  0
    7.5126  -14.9371   19.3215 C   0  0  2  0  0  0  0  0  0  0  0  0
    6.4630  -15.5725   18.5617 N   0  0  0  0  0  0  0  0  0  0  0  0
    7.4483  -15.4505   20.7130 C   0  0  0  0  0  0  0  0  0  0  0  0
    6.3921  -15.4101   21.3790 O   0  0  0  0  0  0  0  0  0  0  0  0
    8.0258  -19.0839   24.9764 N   0  0  0  0  0  0  0  0  0  0  0  0
    7.0592  -19.2042   23.9504 C   0  0  0  0  0  0  0  0  0  0  0  0
    5.9658  -19.7559   24.1886 O   0  0  0  0  0  0  0  0  0  0  0  0
    7.3423  -18.6793   22.5981 C   0  0  0  0  0  0  0  0  0  0  0  0
    8.6581  -17.9964   22.5004 C   0  0  0  0  0  0  0  0  0  0  0  0
    8.6713  -16.5035   22.6817 C   0  0  2  0  0  0  0  0  0  0  0  0
    8.5887  -15.9924   21.2991 N   0  0  0  0  0  0  0  0  0  0  0  0
    9.8423  -15.9858   23.3581 C   0  0  0  0  0  0  0  0  0  0  0  0
   10.9173  -15.8708   22.7169 O   0  0  0  0  0  0  0  0  0  0  0  0
    9.8838  -17.5743   30.9636 O   0  0  0  0  0  0  0  0  0  0  0  0
   10.0681  -16.7292   29.8656 C   0  0  0  0  0  0  0  0  0  0  0  0
   10.2415  -15.3637   30.0119 C   0  0  0  0  0  0  0  0  0  0  0  0
   10.4213  -14.5403   28.9314 C   0  0  0  0  0  0  0  0  0  0  0  0
   10.4306  -15.0820   27.6639 C   0  0  0  0  0  0  0  0  0  0  0  0
   10.6127  -14.2500   26.4845 C   0  0  0  0  0  0  0  0  0  0  0  0
   11.0667  -14.9907   25.2457 C   0  0  2  0  0  0  0  0  0  0  0  0
    9.8270  -15.5994   24.7055 N   0  0  0  0  0  0  0  0  0  0  0  0
   11.9338  -16.1207   25.6537 C   0  0  0  0  0  0  0  0  0  0  0  0
   11.4956  -17.4452   25.6053 O   0  0  0  0  0  0  0  0  0  0  0  0
   10.2596  -16.4416   27.4943 C   0  0  0  0  0  0  0  0  0  0  0  0
   10.0776  -17.2661   28.6047 C   0  0  0  0  0  0  0  0  0  0  0  0
   13.1121  -15.9720   26.0682 O   0  0  0  0  0  0  0  0  0  0  0  0
  2  1  1  6
  3  2  1  0
  4  2  1  0
  4  5  1  6
  6 14  1  0
  6  4  1  0
  7  6  2  0
  8  9  1  0
  9 10  2  0
 11 12  1  0
 11  9  1  0
 13 12  1  6
 13 14  1  0
 15 13  1  0
 16 15  2  0
 18 28  2  0
 18 17  1  0
 19 18  1  0
 20 21  1  0
 20 19  2  0
 21 27  2  0
 22 21  1  0
 23 22  1  1
 23 25  1  0
 23 24  1  0
 24 15  1  0
 25 26  1  0
 27 28  1  0
 29 25  2  0
M  END
$$$$
