VQY.pdb
     RDKit          3D

 29 29  0  0  1  0  0  0  0  0999 V2000
    8.4767  -12.7988   21.5931 C   0  0  0  0  0  0  0  0  0  0  0  0
    7.7103  -13.3408   20.4150 C   0  0  1  0  0  0  0  0  0  0  0  0
    7.5363  -12.3265   19.3364 C   0  0  0  0  0  0  0  0  0  0  0  0
    8.3871  -14.6155   19.9727 C   0  0  2  0  0  0  0  0  0  0  0  0
    7.7973  -15.1572   18.7721 N   0  0  0  0  0  0  0  0  0  0  0  0
    8.3671  -15.6745   21.0129 C   0  0  0  0  0  0  0  0  0  0  0  0
    7.3557  -16.3806   21.2109 O   0  0  0  0  0  0  0  0  0  0  0  0
   12.6413  -18.5031   20.3835 N   0  0  0  0  0  0  0  0  0  0  0  0
   11.3279  -18.9678   20.1364 C   0  0  0  0  0  0  0  0  0  0  0  0
   11.0684  -19.5576   19.0681 O   0  0  0  0  0  0  0  0  0  0  0  0
   10.2638  -18.7548   21.1397 C   0  0  0  0  0  0  0  0  0  0  0  0
   10.6788  -17.8592   22.2499 C   0  0  0  0  0  0  0  0  0  0  0  0
    9.6310  -16.9442   22.8215 C   0  0  2  0  0  0  0  0  0  0  0  0
    9.4993  -15.8936   21.7927 N   0  0  0  0  0  0  0  0  0  0  0  0
    9.9638  -16.3718   24.1092 C   0  0  0  0  0  0  0  0  0  0  0  0
   10.9083  -15.5458   24.1849 O   0  0  0  0  0  0  0  0  0  0  0  0
    6.2759  -10.8526   25.7879 O   0  0  0  0  0  0  0  0  0  0  0  0
    6.8250  -12.0820   26.1628 C   0  0  0  0  0  0  0  0  0  0  0  0
    6.1553  -13.2765   25.9612 C   0  0  0  0  0  0  0  0  0  0  0  0
    6.6988  -14.4788   26.3314 C   0  0  0  0  0  0  0  0  0  0  0  0
    7.9450  -14.5037   26.9199 C   0  0  0  0  0  0  0  0  0  0  0  0
    8.5630  -15.7535   27.3353 C   0  0  0  0  0  0  0  0  0  0  0  0
    9.7979  -16.1448   26.5533 C   0  0  2  0  0  0  0  0  0  0  0  0
    9.2694  -16.6974   25.2826 N   0  0  0  0  0  0  0  0  0  0  0  0
   10.4653  -17.2727   27.2443 C   0  0  0  0  0  0  0  0  0  0  0  0
   11.1855  -17.0946   28.4269 O   0  0  0  0  0  0  0  0  0  0  0  0
    8.6313  -13.3242   27.1305 C   0  0  0  0  0  0  0  0  0  0  0  0
    8.0640  -12.1086   26.7480 C   0  0  0  0  0  0  0  0  0  0  0  0
   10.4331  -18.4572   26.8222 O   0  0  0  0  0  0  0  0  0  0  0  0
  2  1  1  1
  3  2  1  0
  4  2  1  0
  4  5  1  6
  6 14  1  0
  6  4  1  0
  7  6  2  0
  8  9  1  0
  9 10  2  0
 11 12  1  0
 11  9  1  0
 13 12  1  6
 13 14  1  0
 15 13  1  0
 16 15  2  0
 18 28  2  0
 18 17  1  0
 19 18  1  0
 20 21  1  0
 20 19  2  0
 21 27  2  0
 22 21  1  0
 23 22  1  1
 23 25  1  0
 23 24  1  0
 24 15  1  0
 25 26  1  0
 27 28  1  0
 29 25  2  0
M  END
$$$$
