VQY.pdb
     RDKit          3D

 29 29  0  0  1  0  0  0  0  0999 V2000
    8.6918  -12.6660   21.1934 C   0  0  0  0  0  0  0  0  0  0  0  0
    7.8116  -13.2054   20.0965 C   0  0  1  0  0  0  0  0  0  0  0  0
    7.6415  -12.2353   18.9773 C   0  0  0  0  0  0  0  0  0  0  0  0
    8.3625  -14.5485   19.6828 C   0  0  2  0  0  0  0  0  0  0  0  0
    7.6669  -15.0948   18.5425 N   0  0  0  0  0  0  0  0  0  0  0  0
    8.3186  -15.5547   20.7735 C   0  0  0  0  0  0  0  0  0  0  0  0
    7.2594  -16.1399   21.0840 O   0  0  0  0  0  0  0  0  0  0  0  0
   11.7762  -21.0944   21.8025 N   0  0  0  0  0  0  0  0  0  0  0  0
   12.1451  -19.7860   22.1948 C   0  0  0  0  0  0  0  0  0  0  0  0
   13.3058  -19.3789   21.9861 O   0  0  0  0  0  0  0  0  0  0  0  0
   11.1595  -18.9021   22.8517 C   0  0  0  0  0  0  0  0  0  0  0  0
   10.7273  -17.7695   21.9929 C   0  0  0  0  0  0  0  0  0  0  0  0
    9.6018  -16.9123   22.5029 C   0  0  2  0  0  0  0  0  0  0  0  0
    9.4821  -15.8605   21.4739 N   0  0  0  0  0  0  0  0  0  0  0  0
    9.8250  -16.3354   23.8122 C   0  0  0  0  0  0  0  0  0  0  0  0
   10.6491  -15.3939   23.9325 O   0  0  0  0  0  0  0  0  0  0  0  0
    5.9654  -10.9053   26.2207 O   0  0  0  0  0  0  0  0  0  0  0  0
    6.5653  -12.1513   26.4243 C   0  0  0  0  0  0  0  0  0  0  0  0
    7.8821  -12.2734   26.8330 C   0  0  0  0  0  0  0  0  0  0  0  0
    8.4648  -13.4979   27.0305 C   0  0  0  0  0  0  0  0  0  0  0  0
    7.7236  -14.6404   26.8179 C   0  0  0  0  0  0  0  0  0  0  0  0
    8.2974  -15.9636   27.0087 C   0  0  0  0  0  0  0  0  0  0  0  0
    9.5870  -16.2134   26.2578 C   0  0  2  0  0  0  0  0  0  0  0  0
    9.1527  -16.7814   24.9585 N   0  0  0  0  0  0  0  0  0  0  0  0
   10.3403  -17.2891   26.9438 C   0  0  0  0  0  0  0  0  0  0  0  0
   10.5229  -18.5479   26.3686 O   0  0  0  0  0  0  0  0  0  0  0  0
    6.4080  -14.5424   26.4101 C   0  0  0  0  0  0  0  0  0  0  0  0
    5.8297  -13.2883   26.2135 C   0  0  0  0  0  0  0  0  0  0  0  0
   10.8634  -17.1496   28.0793 O   0  0  0  0  0  0  0  0  0  0  0  0
  2  1  1  1
  3  2  1  0
  4  2  1  0
  4  5  1  6
  6 14  1  0
  6  4  1  0
  7  6  2  0
  8  9  1  0
  9 10  2  0
 11 12  1  0
 11  9  1  0
 13 12  1  6
 13 14  1  0
 15 13  1  0
 16 15  2  0
 18 28  2  0
 18 17  1  0
 19 18  1  0
 20 21  1  0
 20 19  2  0
 21 27  2  0
 22 21  1  0
 23 22  1  1
 23 25  1  0
 23 24  1  0
 24 15  1  0
 25 26  1  0
 27 28  1  0
 29 25  2  0
M  END
$$$$
