VQY.pdb
     RDKit          3D

 29 29  0  0  1  0  0  0  0  0999 V2000
    8.7051  -12.7645   17.6286 C   0  0  0  0  0  0  0  0  0  0  0  0
    8.7695  -13.5886   18.8878 C   0  0  1  0  0  0  0  0  0  0  0  0
    7.6380  -13.2984   19.8141 C   0  0  0  0  0  0  0  0  0  0  0  0
    8.8921  -15.0378   18.4837 C   0  0  2  0  0  0  0  0  0  0  0  0
    7.7888  -15.4687   17.6592 N   0  0  0  0  0  0  0  0  0  0  0  0
    8.9853  -15.9583   19.6447 C   0  0  0  0  0  0  0  0  0  0  0  0
    7.9752  -16.5199   20.1194 O   0  0  0  0  0  0  0  0  0  0  0  0
   11.7196  -20.3679   21.1603 N   0  0  0  0  0  0  0  0  0  0  0  0
   12.3212  -19.7692   22.2923 C   0  0  0  0  0  0  0  0  0  0  0  0
   12.7493  -20.4853   23.2200 O   0  0  0  0  0  0  0  0  0  0  0  0
   12.4422  -18.2987   22.3784 C   0  0  0  0  0  0  0  0  0  0  0  0
   11.8187  -17.5932   21.2293 C   0  0  0  0  0  0  0  0  0  0  0  0
   10.4453  -17.0180   21.4407 C   0  0  2  0  0  0  0  0  0  0  0  0
   10.2252  -16.2082   20.2261 N   0  0  0  0  0  0  0  0  0  0  0  0
   10.3034  -16.2120   22.6353 C   0  0  0  0  0  0  0  0  0  0  0  0
   10.9990  -15.1721   22.7569 O   0  0  0  0  0  0  0  0  0  0  0  0
    5.8022  -11.2557   28.1324 O   0  0  0  0  0  0  0  0  0  0  0  0
    6.3277  -12.1544   27.1997 C   0  0  0  0  0  0  0  0  0  0  0  0
    7.5120  -11.9054   26.5278 C   0  0  0  0  0  0  0  0  0  0  0  0
    8.0219  -12.7902   25.6140 C   0  0  0  0  0  0  0  0  0  0  0  0
    7.3408  -13.9602   25.3544 C   0  0  0  0  0  0  0  0  0  0  0  0
    7.8376  -14.9292   24.3898 C   0  0  0  0  0  0  0  0  0  0  0  0
    9.1922  -15.5182   24.7178 C   0  0  2  0  0  0  0  0  0  0  0  0
    9.4133  -16.5411   23.6670 N   0  0  0  0  0  0  0  0  0  0  0  0
    9.0957  -16.2593   25.9971 C   0  0  0  0  0  0  0  0  0  0  0  0
    9.4554  -15.6820   27.2161 O   0  0  0  0  0  0  0  0  0  0  0  0
    6.1575  -14.2294   26.0132 C   0  0  0  0  0  0  0  0  0  0  0  0
    5.6519  -13.3181   26.9405 C   0  0  0  0  0  0  0  0  0  0  0  0
    8.6884  -17.4467   26.0780 O   0  0  0  0  0  0  0  0  0  0  0  0
  2  1  1  6
  3  2  1  0
  4  2  1  0
  4  5  1  1
  6 14  1  0
  6  4  1  0
  7  6  2  0
  8  9  1  0
  9 10  2  0
 11 12  1  0
 11  9  1  0
 13 12  1  6
 13 14  1  0
 15 13  1  0
 16 15  2  0
 18 28  2  0
 18 17  1  0
 19 18  1  0
 20 21  1  0
 20 19  2  0
 21 27  2  0
 22 21  1  0
 23 22  1  6
 23 25  1  0
 23 24  1  0
 24 15  1  0
 25 26  1  0
 27 28  1  0
 29 25  2  0
M  END
$$$$
