VQY.pdb
     RDKit          3D

 29 29  0  0  1  0  0  0  0  0999 V2000
    8.8591  -12.9947   20.3983 C   0  0  0  0  0  0  0  0  0  0  0  0
    8.0592  -13.5952   19.2720 C   0  0  1  0  0  0  0  0  0  0  0  0
    7.8338  -12.6296   18.1588 C   0  0  0  0  0  0  0  0  0  0  0  0
    8.7372  -14.8792   18.8597 C   0  0  2  0  0  0  0  0  0  0  0  0
    8.0912  -15.4970   17.7267 N   0  0  0  0  0  0  0  0  0  0  0  0
    8.8005  -15.8798   19.9546 C   0  0  0  0  0  0  0  0  0  0  0  0
    7.8299  -16.6183   20.2254 O   0  0  0  0  0  0  0  0  0  0  0  0
   12.2892  -20.1389   21.9852 N   0  0  0  0  0  0  0  0  0  0  0  0
   12.0608  -19.7301   20.6501 C   0  0  0  0  0  0  0  0  0  0  0  0
   12.1076  -20.5683   19.7271 O   0  0  0  0  0  0  0  0  0  0  0  0
   11.7683  -18.3135   20.3469 C   0  0  0  0  0  0  0  0  0  0  0  0
   11.5573  -17.4875   21.5636 C   0  0  0  0  0  0  0  0  0  0  0  0
   10.1675  -16.9668   21.8067 C   0  0  2  0  0  0  0  0  0  0  0  0
    9.9668  -16.0057   20.7042 N   0  0  0  0  0  0  0  0  0  0  0  0
    9.9756  -16.3299   23.0929 C   0  0  0  0  0  0  0  0  0  0  0  0
   10.7013  -15.3520   23.4047 O   0  0  0  0  0  0  0  0  0  0  0  0
    6.5895  -10.3045   26.9126 O   0  0  0  0  0  0  0  0  0  0  0  0
    6.7817  -11.6400   26.5474 C   0  0  0  0  0  0  0  0  0  0  0  0
    5.7613  -12.5728   26.6141 C   0  0  0  0  0  0  0  0  0  0  0  0
    5.9561  -13.8809   26.2552 C   0  0  0  0  0  0  0  0  0  0  0  0
    7.1993  -14.2823   25.8153 C   0  0  0  0  0  0  0  0  0  0  0  0
    7.4584  -15.6603   25.4276 C   0  0  0  0  0  0  0  0  0  0  0  0
    8.9219  -16.0206   25.2944 C   0  0  2  0  0  0  0  0  0  0  0  0
    9.0047  -16.7565   24.0095 N   0  0  0  0  0  0  0  0  0  0  0  0
    9.2727  -16.9991   26.3502 C   0  0  0  0  0  0  0  0  0  0  0  0
    9.8042  -16.6038   27.5791 O   0  0  0  0  0  0  0  0  0  0  0  0
    8.2319  -13.3687   25.7406 C   0  0  0  0  0  0  0  0  0  0  0  0
    8.0171  -12.0407   26.1098 C   0  0  0  0  0  0  0  0  0  0  0  0
    9.1198  -18.2408   26.2190 O   0  0  0  0  0  0  0  0  0  0  0  0
  2  1  1  1
  3  2  1  0
  4  2  1  0
  4  5  1  6
  6 14  1  0
  6  4  1  0
  7  6  2  0
  8  9  1  0
  9 10  2  0
 11 12  1  0
 11  9  1  0
 13 12  1  1
 13 14  1  0
 15 13  1  0
 16 15  2  0
 18 28  2  0
 18 17  1  0
 19 18  1  0
 20 21  1  0
 20 19  2  0
 21 27  2  0
 22 21  1  0
 23 22  1  1
 23 25  1  0
 23 24  1  0
 24 15  1  0
 25 26  1  0
 27 28  1  0
 29 25  2  0
M  END
$$$$
