VQY.pdb
     RDKit          3D

 29 29  0  0  1  0  0  0  0  0999 V2000
    8.3650  -13.0837   21.6689 C   0  0  0  0  0  0  0  0  0  0  0  0
    7.9475  -13.3574   20.2477 C   0  0  1  0  0  0  0  0  0  0  0  0
    8.0287  -12.1417   19.3886 C   0  0  0  0  0  0  0  0  0  0  0  0
    8.7541  -14.5317   19.7491 C   0  0  2  0  0  0  0  0  0  0  0  0
    8.4338  -14.8722   18.3837 N   0  0  0  0  0  0  0  0  0  0  0  0
    8.5802  -15.7499   20.5795 C   0  0  0  0  0  0  0  0  0  0  0  0
    7.9649  -16.7510   20.1550 O   0  0  0  0  0  0  0  0  0  0  0  0
   10.3518  -20.0744   20.2790 N   0  0  0  0  0  0  0  0  0  0  0  0
   10.7888  -18.7727   19.9381 C   0  0  0  0  0  0  0  0  0  0  0  0
   11.4081  -18.5848   18.8714 O   0  0  0  0  0  0  0  0  0  0  0  0
   10.5147  -17.6366   20.8427 C   0  0  0  0  0  0  0  0  0  0  0  0
    9.7521  -18.0273   22.0563 C   0  0  0  0  0  0  0  0  0  0  0  0
    9.0216  -16.9355   22.7886 C   0  0  2  0  0  0  0  0  0  0  0  0
    9.1124  -15.7871   21.8653 N   0  0  0  0  0  0  0  0  0  0  0  0
    9.5714  -16.6037   24.0864 C   0  0  0  0  0  0  0  0  0  0  0  0
   10.6460  -15.9543   24.1467 O   0  0  0  0  0  0  0  0  0  0  0  0
    6.1837  -11.0589   26.1129 O   0  0  0  0  0  0  0  0  0  0  0  0
    6.7538  -12.2914   26.4439 C   0  0  0  0  0  0  0  0  0  0  0  0
    7.9942  -12.3864   27.0507 C   0  0  0  0  0  0  0  0  0  0  0  0
    8.5482  -13.5979   27.3724 C   0  0  0  0  0  0  0  0  0  0  0  0
    7.8551  -14.7545   27.0862 C   0  0  0  0  0  0  0  0  0  0  0  0
    8.4020  -16.0648   27.4031 C   0  0  0  0  0  0  0  0  0  0  0  0
    9.5720  -16.4920   26.5441 C   0  0  2  0  0  0  0  0  0  0  0  0
    8.9496  -16.9735   25.2870 N   0  0  0  0  0  0  0  0  0  0  0  0
   10.2139  -17.6754   27.1627 C   0  0  0  0  0  0  0  0  0  0  0  0
   10.2045  -18.9288   26.5481 O   0  0  0  0  0  0  0  0  0  0  0  0
    6.6159  -14.6835   26.4813 C   0  0  0  0  0  0  0  0  0  0  0  0
    6.0660  -13.4423   26.1601 C   0  0  0  0  0  0  0  0  0  0  0  0
   10.8062  -17.6386   28.2719 O   0  0  0  0  0  0  0  0  0  0  0  0
  2  1  1  1
  3  2  1  0
  4  2  1  0
  4  5  1  6
  6 14  1  0
  6  4  1  0
  7  6  2  0
  8  9  1  0
  9 10  2  0
 11 12  1  0
 11  9  1  0
 13 12  1  6
 13 14  1  0
 15 13  1  0
 16 15  2  0
 18 28  2  0
 18 17  1  0
 19 18  1  0
 20 21  1  0
 20 19  2  0
 21 27  2  0
 22 21  1  0
 23 22  1  1
 23 25  1  0
 23 24  1  0
 24 15  1  0
 25 26  1  0
 27 28  1  0
 29 25  2  0
M  END
$$$$
