VQY.pdb
     RDKit          3D

 29 29  0  0  1  0  0  0  0  0999 V2000
    9.1864  -12.9567   20.5432 C   0  0  0  0  0  0  0  0  0  0  0  0
    8.0777  -13.5113   19.6875 C   0  0  1  0  0  0  0  0  0  0  0  0
    7.8314  -12.6839   18.4721 C   0  0  0  0  0  0  0  0  0  0  0  0
    8.3947  -14.9598   19.4053 C   0  0  2  0  0  0  0  0  0  0  0  0
    7.4706  -15.5466   18.4649 N   0  0  0  0  0  0  0  0  0  0  0  0
    8.4022  -15.8013   20.6284 C   0  0  0  0  0  0  0  0  0  0  0  0
    7.3454  -16.1089   21.2195 O   0  0  0  0  0  0  0  0  0  0  0  0
   12.2561  -20.3162   20.9057 N   0  0  0  0  0  0  0  0  0  0  0  0
   11.7698  -20.4079   22.2311 C   0  0  0  0  0  0  0  0  0  0  0  0
   11.9683  -21.4453   22.8952 O   0  0  0  0  0  0  0  0  0  0  0  0
   11.0269  -19.2790   22.8294 C   0  0  0  0  0  0  0  0  0  0  0  0
   10.5938  -18.2695   21.8292 C   0  0  0  0  0  0  0  0  0  0  0  0
    9.7595  -17.1225   22.3292 C   0  0  2  0  0  0  0  0  0  0  0  0
    9.6125  -16.2640   21.1371 N   0  0  0  0  0  0  0  0  0  0  0  0
   10.3412  -16.3856   23.4317 C   0  0  0  0  0  0  0  0  0  0  0  0
   11.4636  -15.8411   23.2779 O   0  0  0  0  0  0  0  0  0  0  0  0
    5.0048  -12.5039   26.6575 O   0  0  0  0  0  0  0  0  0  0  0  0
    6.3103  -12.9288   26.3955 C   0  0  0  0  0  0  0  0  0  0  0  0
    6.6838  -13.4333   25.1617 C   0  0  0  0  0  0  0  0  0  0  0  0
    7.9654  -13.8488   24.9111 C   0  0  0  0  0  0  0  0  0  0  0  0
    8.9104  -13.7636   25.9109 C   0  0  0  0  0  0  0  0  0  0  0  0
   10.2827  -14.1962   25.6966 C   0  0  0  0  0  0  0  0  0  0  0  0
   10.5014  -15.6908   25.7863 C   0  0  2  0  0  0  0  0  0  0  0  0
    9.6993  -16.2479   24.6702 N   0  0  0  0  0  0  0  0  0  0  0  0
    9.8750  -16.1930   27.0315 C   0  0  0  0  0  0  0  0  0  0  0  0
    8.7814  -17.0605   27.0124 O   0  0  0  0  0  0  0  0  0  0  0  0
    8.5602  -13.2635   27.1494 C   0  0  0  0  0  0  0  0  0  0  0  0
    7.2512  -12.8448   27.3884 C   0  0  0  0  0  0  0  0  0  0  0  0
   10.2765  -15.8790   28.1815 O   0  0  0  0  0  0  0  0  0  0  0  0
  2  1  1  6
  3  2  1  0
  4  2  1  0
  4  5  1  6
  6 14  1  0
  6  4  1  0
  7  6  2  0
  8  9  1  0
  9 10  2  0
 11 12  1  0
 11  9  1  0
 13 12  1  6
 13 14  1  0
 15 13  1  0
 16 15  2  0
 18 28  2  0
 18 17  1  0
 19 18  1  0
 20 21  1  0
 20 19  2  0
 21 27  2  0
 22 21  1  0
 23 22  1  1
 23 25  1  0
 23 24  1  0
 24 15  1  0
 25 26  1  0
 27 28  1  0
 29 25  2  0
M  END
$$$$
