VQY.pdb
     RDKit          3D

 29 29  0  0  1  0  0  0  0  0999 V2000
    5.2002  -19.5813   18.0714 C   0  0  0  0  0  0  0  0  0  0  0  0
    6.1906  -19.3697   19.1865 C   0  0  1  0  0  0  0  0  0  0  0  0
    5.8306  -18.2109   20.0525 C   0  0  0  0  0  0  0  0  0  0  0  0
    6.3414  -20.6788   19.9227 C   0  0  2  0  0  0  0  0  0  0  0  0
    5.0812  -21.1680   20.4278 N   0  0  0  0  0  0  0  0  0  0  0  0
    7.2926  -20.5990   21.0597 C   0  0  0  0  0  0  0  0  0  0  0  0
    6.9188  -20.2722   22.2062 O   0  0  0  0  0  0  0  0  0  0  0  0
   13.3391  -22.6954   20.2502 N   0  0  0  0  0  0  0  0  0  0  0  0
   12.9446  -22.8664   21.5981 C   0  0  0  0  0  0  0  0  0  0  0  0
   13.4311  -23.7950   22.2747 O   0  0  0  0  0  0  0  0  0  0  0  0
   11.9576  -21.9491   22.2051 C   0  0  0  0  0  0  0  0  0  0  0  0
   10.7164  -21.8113   21.4004 C   0  0  0  0  0  0  0  0  0  0  0  0
    9.6897  -20.8255   21.8861 C   0  0  2  0  0  0  0  0  0  0  0  0
    8.6373  -20.8939   20.8531 N   0  0  0  0  0  0  0  0  0  0  0  0
   10.1771  -19.4709   22.0427 C   0  0  0  0  0  0  0  0  0  0  0  0
   10.1607  -18.6975   21.0519 O   0  0  0  0  0  0  0  0  0  0  0  0
    9.5704  -19.5760   29.1376 O   0  0  0  0  0  0  0  0  0  0  0  0
    9.7319  -18.9090   27.9199 C   0  0  0  0  0  0  0  0  0  0  0  0
    8.7634  -18.9419   26.9315 C   0  0  0  0  0  0  0  0  0  0  0  0
    8.9278  -18.2863   25.7394 C   0  0  0  0  0  0  0  0  0  0  0  0
   10.0863  -17.5739   25.5149 C   0  0  0  0  0  0  0  0  0  0  0  0
   10.3109  -16.8651   24.2645 C   0  0  0  0  0  0  0  0  0  0  0  0
   11.1874  -17.5921   23.2682 C   0  0  2  0  0  0  0  0  0  0  0  0
   10.6648  -18.9800   23.2617 N   0  0  0  0  0  0  0  0  0  0  0  0
   12.5634  -17.6751   23.8113 C   0  0  0  0  0  0  0  0  0  0  0  0
   13.4163  -16.5702   23.8392 O   0  0  0  0  0  0  0  0  0  0  0  0
   11.0659  -17.5271   26.4870 C   0  0  0  0  0  0  0  0  0  0  0  0
   10.8831  -18.2002   27.6951 C   0  0  0  0  0  0  0  0  0  0  0  0
   13.0578  -18.7323   24.2806 O   0  0  0  0  0  0  0  0  0  0  0  0
  2  1  1  6
  3  2  1  0
  4  2  1  0
  4  5  1  1
  6 14  1  0
  6  4  1  0
  7  6  2  0
  8  9  1  0
  9 10  2  0
 11 12  1  0
 11  9  1  0
 13 12  1  6
 13 14  1  0
 15 13  1  0
 16 15  2  0
 18 28  2  0
 18 17  1  0
 19 18  1  0
 20 21  1  0
 20 19  2  0
 21 27  2  0
 22 21  1  0
 23 22  1  1
 23 25  1  0
 23 24  1  0
 24 15  1  0
 25 26  1  0
 27 28  1  0
 29 25  2  0
M  END
$$$$
