VQY.pdb
     RDKit          3D

 29 29  0  0  1  0  0  0  0  0999 V2000
    8.4178  -12.8533   20.7558 C   0  0  0  0  0  0  0  0  0  0  0  0
    7.6427  -13.5414   19.6628 C   0  0  1  0  0  0  0  0  0  0  0  0
    7.3404  -12.6303   18.5221 C   0  0  0  0  0  0  0  0  0  0  0  0
    8.3960  -14.7928   19.2821 C   0  0  2  0  0  0  0  0  0  0  0  0
    7.7793  -15.4847   18.1759 N   0  0  0  0  0  0  0  0  0  0  0  0
    8.5323  -15.7529   20.4063 C   0  0  0  0  0  0  0  0  0  0  0  0
    7.5577  -16.4099   20.8297 O   0  0  0  0  0  0  0  0  0  0  0  0
   13.1957  -19.2005   20.6037 N   0  0  0  0  0  0  0  0  0  0  0  0
   12.9868  -19.2996   21.9995 C   0  0  0  0  0  0  0  0  0  0  0  0
   13.5804  -20.1793   22.6556 O   0  0  0  0  0  0  0  0  0  0  0  0
   12.0668  -18.3650   22.6810 C   0  0  0  0  0  0  0  0  0  0  0  0
   11.4549  -17.3726   21.7603 C   0  0  0  0  0  0  0  0  0  0  0  0
   10.0628  -16.9042   22.0834 C   0  0  2  0  0  0  0  0  0  0  0  0
    9.7735  -15.9322   21.0105 N   0  0  0  0  0  0  0  0  0  0  0  0
    9.9161  -16.2959   23.3891 C   0  0  0  0  0  0  0  0  0  0  0  0
   10.5046  -15.2110   23.6273 O   0  0  0  0  0  0  0  0  0  0  0  0
    6.8155  -10.4614   27.3065 O   0  0  0  0  0  0  0  0  0  0  0  0
    7.0772  -11.7997   26.9998 C   0  0  0  0  0  0  0  0  0  0  0  0
    8.3672  -12.2957   26.9223 C   0  0  0  0  0  0  0  0  0  0  0  0
    8.6175  -13.6088   26.6207 C   0  0  0  0  0  0  0  0  0  0  0  0
    7.5597  -14.4614   26.3879 C   0  0  0  0  0  0  0  0  0  0  0  0
    7.7728  -15.8625   26.0592 C   0  0  0  0  0  0  0  0  0  0  0  0
    9.2056  -16.2325   25.7437 C   0  0  2  0  0  0  0  0  0  0  0  0
    9.1360  -16.8661   24.4046 N   0  0  0  0  0  0  0  0  0  0  0  0
    9.6428  -17.2961   26.6779 C   0  0  0  0  0  0  0  0  0  0  0  0
   10.1703  -17.0046   27.9371 O   0  0  0  0  0  0  0  0  0  0  0  0
    6.2645  -13.9884   26.4600 C   0  0  0  0  0  0  0  0  0  0  0  0
    6.0267  -12.6488   26.7682 C   0  0  0  0  0  0  0  0  0  0  0  0
    9.5722  -18.5229   26.4091 O   0  0  0  0  0  0  0  0  0  0  0  0
  2  1  1  1
  3  2  1  0
  4  2  1  0
  4  5  1  6
  6 14  1  0
  6  4  1  0
  7  6  2  0
  8  9  1  0
  9 10  2  0
 11 12  1  0
 11  9  1  0
 13 12  1  6
 13 14  1  0
 15 13  1  0
 16 15  2  0
 18 28  2  0
 18 17  1  0
 19 18  1  0
 20 21  1  0
 20 19  2  0
 21 27  2  0
 22 21  1  0
 23 22  1  1
 23 25  1  0
 23 24  1  0
 24 15  1  0
 25 26  1  0
 27 28  1  0
 29 25  2  0
M  END
$$$$
