LPT.pdb
     RDKit          3D

 23 23  0  0  1  0  0  0  0  0999 V2000
   22.5019  -22.3344  -12.8188 C   0  0  0  0  0  0  0  0  0  0  0  0
   22.7173  -20.8407  -12.6150 C   0  0  1  0  0  0  0  0  0  0  0  0
   21.4304  -20.1393  -12.9217 C   0  0  0  0  0  0  0  0  0  0  0  0
   23.2947  -20.5433  -11.2800 C   0  0  0  0  0  0  0  0  0  0  0  0
   24.7407  -20.9594  -11.1055 C   0  0  2  0  0  0  0  0  0  0  0  0
   25.0897  -21.1579   -9.7560 N   0  0  0  0  0  0  0  0  0  0  0  0
   25.5643  -20.0413  -11.8885 C   0  0  0  0  0  0  0  0  0  0  0  0
   25.7495  -18.8799  -11.3783 O   0  0  0  0  0  0  0  0  0  0  0  0
   26.1713  -20.2846  -13.1276 N   0  0  0  0  0  0  0  0  0  0  0  0
   26.2088  -21.4597  -13.9708 C   0  0  0  0  0  0  0  0  0  0  0  0
   27.7239  -21.5474  -14.2269 C   0  0  0  0  0  0  0  0  0  0  0  0
   27.9834  -20.1198  -14.6636 C   0  0  0  0  0  0  0  0  0  0  0  0
   26.9706  -19.3144  -13.9182 C   0  0  1  0  0  0  0  0  0  0  0  0
   26.0098  -18.6167  -14.7968 C   0  0  0  0  0  0  0  0  0  0  0  0
   24.9000  -19.1612  -15.0993 O   0  0  0  0  0  0  0  0  0  0  0  0
   24.9090  -14.0989  -16.4340 C   0  0  0  0  0  0  0  0  0  0  0  0
   25.6526  -15.0909  -15.6078 C   0  0  1  0  0  0  0  0  0  0  0  0
   25.2490  -14.9932  -14.2625 O   0  0  0  0  0  0  0  0  0  0  0  0
   25.4345  -16.5245  -16.0342 C   0  0  2  0  0  0  0  0  0  0  0  0
   26.3600  -17.3344  -15.2872 N   0  0  0  0  0  0  0  0  0  0  0  0
   25.6331  -16.7398  -17.4650 C   0  0  0  0  0  0  0  0  0  0  0  0
   26.7946  -16.8364  -17.9231 O   0  0  0  0  0  0  0  0  0  0  0  0
   24.5817  -16.8449  -18.3610 O   0  0  0  0  0  0  0  0  0  0  0  0
  2  1  1  1
  3  2  1  0
  4  5  1  0
  4  2  1  0
  5  6  1  1
  5  7  1  0
  7  9  1  0
  8  7  2  0
  9 13  1  0
  9 10  1  0
 10 11  1  0
 11 12  1  0
 13 12  1  0
 13 14  1  6
 14 15  2  0
 14 20  1  0
 17 19  1  0
 17 16  1  6
 18 17  1  0
 19 21  1  0
 19 20  1  1
 21 22  2  0
 21 23  1  0
M  END
$$$$
