LPT.pdb
     RDKit          3D

 23 23  0  0  1  0  0  0  0  0999 V2000
   16.1617  -15.3826  -20.4454 C   0  0  0  0  0  0  0  0  0  0  0  0
   16.8501  -15.8321  -19.1636 C   0  0  1  0  0  0  0  0  0  0  0  0
   17.9668  -16.7577  -19.5357 C   0  0  0  0  0  0  0  0  0  0  0  0
   17.2431  -14.6794  -18.3145 C   0  0  0  0  0  0  0  0  0  0  0  0
   17.8202  -15.0517  -16.9644 C   0  0  2  0  0  0  0  0  0  0  0  0
   16.9677  -15.8913  -16.2223 N   0  0  0  0  0  0  0  0  0  0  0  0
   18.2819  -13.8219  -16.3248 C   0  0  0  0  0  0  0  0  0  0  0  0
   17.6455  -13.4650  -15.2708 O   0  0  0  0  0  0  0  0  0  0  0  0
   19.3355  -12.9925  -16.7308 N   0  0  0  0  0  0  0  0  0  0  0  0
   20.2088  -13.0344  -17.8836 C   0  0  0  0  0  0  0  0  0  0  0  0
   21.5723  -12.9055  -17.1814 C   0  0  0  0  0  0  0  0  0  0  0  0
   21.2890  -11.6969  -16.3124 C   0  0  0  0  0  0  0  0  0  0  0  0
   19.8281  -11.7872  -16.0168 C   0  0  1  0  0  0  0  0  0  0  0  0
   19.0477  -10.6519  -16.5494 C   0  0  0  0  0  0  0  0  0  0  0  0
   18.7376  -10.6051  -17.7829 O   0  0  0  0  0  0  0  0  0  0  0  0
   15.7025   -9.6989  -15.7515 C   0  0  0  0  0  0  0  0  0  0  0  0
   16.5638   -8.5534  -15.3448 C   0  0  1  0  0  0  0  0  0  0  0  0
   16.8584   -8.6390  -13.9706 O   0  0  0  0  0  0  0  0  0  0  0  0
   17.8836   -8.4925  -16.0792 C   0  0  2  0  0  0  0  0  0  0  0  0
   18.6591   -9.6267  -15.6520 N   0  0  0  0  0  0  0  0  0  0  0  0
   18.6292   -7.2619  -15.8291 C   0  0  0  0  0  0  0  0  0  0  0  0
   19.6476   -7.2899  -15.1008 O   0  0  0  0  0  0  0  0  0  0  0  0
   18.2613   -6.0392  -16.3666 O   0  0  0  0  0  0  0  0  0  0  0  0
  2  1  1  6
  3  2  1  0
  4  5  1  0
  4  2  1  0
  5  6  1  1
  5  7  1  0
  7  9  1  0
  8  7  2  0
  9 13  1  0
  9 10  1  0
 10 11  1  0
 11 12  1  0
 13 12  1  0
 13 14  1  6
 14 15  2  0
 14 20  1  0
 17 19  1  0
 17 16  1  6
 18 17  1  0
 19 21  1  0
 19 20  1  1
 21 22  2  0
 21 23  1  0
M  END
$$$$
