LPT.pdb
     RDKit          3D

 23 23  0  0  1  0  0  0  0  0999 V2000
   27.3777  -16.4437  -17.1919 C   0  0  0  0  0  0  0  0  0  0  0  0
   28.0158  -17.8193  -17.0516 C   0  0  1  0  0  0  0  0  0  0  0  0
   29.4770  -17.6290  -16.7854 C   0  0  0  0  0  0  0  0  0  0  0  0
   27.2992  -18.6619  -16.0615 C   0  0  0  0  0  0  0  0  0  0  0  0
   27.8057  -20.0853  -15.9527 C   0  0  2  0  0  0  0  0  0  0  0  0
   27.7969  -20.7607  -17.1881 N   0  0  0  0  0  0  0  0  0  0  0  0
   27.1145  -20.7180  -14.8318 C   0  0  0  0  0  0  0  0  0  0  0  0
   26.1600  -21.5162  -15.1400 O   0  0  0  0  0  0  0  0  0  0  0  0
   27.3749  -20.5517  -13.4652 N   0  0  0  0  0  0  0  0  0  0  0  0
   28.2929  -19.6881  -12.7547 C   0  0  0  0  0  0  0  0  0  0  0  0
   28.9655  -20.7238  -11.8361 C   0  0  0  0  0  0  0  0  0  0  0  0
   27.7286  -21.3854  -11.2630 C   0  0  0  0  0  0  0  0  0  0  0  0
   26.7122  -21.2769  -12.3516 C   0  0  1  0  0  0  0  0  0  0  0  0
   25.5356  -20.4646  -11.9806 C   0  0  0  0  0  0  0  0  0  0  0  0
   25.6342  -19.2006  -11.8692 O   0  0  0  0  0  0  0  0  0  0  0  0
   22.6111  -20.5280  -14.0329 C   0  0  0  0  0  0  0  0  0  0  0  0
   22.1293  -20.8516  -12.6608 C   0  0  1  0  0  0  0  0  0  0  0  0
   21.9579  -22.2427  -12.5283 O   0  0  0  0  0  0  0  0  0  0  0  0
   23.0733  -20.4138  -11.5645 C   0  0  2  0  0  0  0  0  0  0  0  0
   24.3059  -21.1311  -11.7549 N   0  0  0  0  0  0  0  0  0  0  0  0
   22.5576  -20.6656  -10.2215 C   0  0  0  0  0  0  0  0  0  0  0  0
   23.1537  -21.4688   -9.4679 O   0  0  0  0  0  0  0  0  0  0  0  0
   21.4195  -20.0497   -9.7269 O   0  0  0  0  0  0  0  0  0  0  0  0
  2  1  1  1
  3  2  1  0
  4  5  1  0
  4  2  1  0
  5  6  1  6
  5  7  1  0
  7  9  1  0
  8  7  2  0
  9 13  1  0
  9 10  1  0
 10 11  1  0
 11 12  1  0
 13 12  1  0
 13 14  1  1
 14 15  2  0
 14 20  1  0
 17 19  1  0
 17 16  1  6
 18 17  1  0
 19 21  1  0
 19 20  1  6
 21 22  2  0
 21 23  1  0
M  END
$$$$
