LPT.pdb
     RDKit          3D

 23 23  0  0  1  0  0  0  0  0999 V2000
   25.9864  -19.9269   -8.5070 C   0  0  0  0  0  0  0  0  0  0  0  0
   25.6231  -20.9521   -9.5728 C   0  0  1  0  0  0  0  0  0  0  0  0
   24.2040  -21.3736   -9.3477 C   0  0  0  0  0  0  0  0  0  0  0  0
   25.9246  -20.4580  -10.9399 C   0  0  0  0  0  0  0  0  0  0  0  0
   25.7403  -21.4815  -12.0411 C   0  0  2  0  0  0  0  0  0  0  0  0
   26.8905  -22.2659  -12.2516 N   0  0  0  0  0  0  0  0  0  0  0  0
   25.1715  -20.7923  -13.1970 C   0  0  0  0  0  0  0  0  0  0  0  0
   26.0149  -20.2783  -14.0142 O   0  0  0  0  0  0  0  0  0  0  0  0
   23.8160  -20.6298  -13.5117 N   0  0  0  0  0  0  0  0  0  0  0  0
   22.6099  -20.9169  -12.7658 C   0  0  0  0  0  0  0  0  0  0  0  0
   21.8323  -21.7157  -13.8269 C   0  0  0  0  0  0  0  0  0  0  0  0
   21.9593  -20.7608  -14.9967 C   0  0  0  0  0  0  0  0  0  0  0  0
   23.2696  -20.0789  -14.7778 C   0  0  1  0  0  0  0  0  0  0  0  0
   23.1479  -18.6218  -14.5681 C   0  0  0  0  0  0  0  0  0  0  0  0
   22.6842  -18.1645  -13.4746 O   0  0  0  0  0  0  0  0  0  0  0  0
   25.8875  -16.1613  -14.7302 C   0  0  0  0  0  0  0  0  0  0  0  0
   24.8830  -15.7931  -15.7670 C   0  0  1  0  0  0  0  0  0  0  0  0
   25.2780  -16.3013  -17.0193 O   0  0  0  0  0  0  0  0  0  0  0  0
   23.4963  -16.3261  -15.4885 C   0  0  2  0  0  0  0  0  0  0  0  0
   23.5598  -17.7582  -15.6129 N   0  0  0  0  0  0  0  0  0  0  0  0
   22.4797  -15.7962  -16.3934 C   0  0  0  0  0  0  0  0  0  0  0  0
   22.1331  -14.5962  -16.3035 O   0  0  0  0  0  0  0  0  0  0  0  0
   21.8656  -16.5678  -17.3665 O   0  0  0  0  0  0  0  0  0  0  0  0
  2  1  1  1
  3  2  1  0
  4  5  1  0
  4  2  1  0
  5  6  1  6
  5  7  1  0
  7  9  1  0
  8  7  2  0
  9 13  1  0
  9 10  1  0
 10 11  1  0
 11 12  1  0
 13 12  1  0
 13 14  1  1
 14 15  2  0
 14 20  1  0
 17 19  1  0
 17 16  1  1
 18 17  1  0
 19 21  1  0
 19 20  1  6
 21 22  2  0
 21 23  1  0
M  END
$$$$
