LPT.pdb
     RDKit          3D

 23 23  0  0  1  0  0  0  0  0999 V2000
   15.4979  -19.4930  -15.3192 C   0  0  0  0  0  0  0  0  0  0  0  0
   16.8117  -20.0566  -15.8440 C   0  0  1  0  0  0  0  0  0  0  0  0
   16.5236  -20.8081  -17.1068 C   0  0  0  0  0  0  0  0  0  0  0  0
   17.8558  -19.0075  -15.9590 C   0  0  0  0  0  0  0  0  0  0  0  0
   19.2043  -19.5023  -16.4397 C   0  0  2  0  0  0  0  0  0  0  0  0
   19.7318  -20.5206  -15.6228 N   0  0  0  0  0  0  0  0  0  0  0  0
   20.0435  -18.3325  -16.6882 C   0  0  0  0  0  0  0  0  0  0  0  0
   21.1267  -18.2643  -16.0059 O   0  0  0  0  0  0  0  0  0  0  0  0
   19.7999  -17.2820  -17.5826 N   0  0  0  0  0  0  0  0  0  0  0  0
   18.6429  -16.9428  -18.3823 C   0  0  0  0  0  0  0  0  0  0  0  0
   19.3198  -16.7538  -19.7515 C   0  0  0  0  0  0  0  0  0  0  0  0
   20.4383  -15.8151  -19.3463 C   0  0  0  0  0  0  0  0  0  0  0  0
   20.7459  -16.1928  -17.9347 C   0  0  1  0  0  0  0  0  0  0  0  0
   20.4941  -15.1067  -16.9658 C   0  0  0  0  0  0  0  0  0  0  0  0
   19.4447  -15.1158  -16.2457 O   0  0  0  0  0  0  0  0  0  0  0  0
   23.2654  -13.9949  -14.5479 C   0  0  0  0  0  0  0  0  0  0  0  0
   22.7393  -12.8246  -15.3050 C   0  0  1  0  0  0  0  0  0  0  0  0
   23.5853  -12.5380  -16.3934 O   0  0  0  0  0  0  0  0  0  0  0  0
   21.3511  -13.0350  -15.8647 C   0  0  2  0  0  0  0  0  0  0  0  0
   21.4488  -14.0648  -16.8648 N   0  0  0  0  0  0  0  0  0  0  0  0
   20.7747  -11.8286  -16.4524 C   0  0  0  0  0  0  0  0  0  0  0  0
   20.7667  -11.6869  -17.6967 O   0  0  0  0  0  0  0  0  0  0  0  0
   20.2247  -10.8112  -15.6896 O   0  0  0  0  0  0  0  0  0  0  0  0
  2  1  1  6
  3  2  1  0
  4  5  1  0
  4  2  1  0
  5  6  1  1
  5  7  1  0
  7  9  1  0
  8  7  2  0
  9 13  1  0
  9 10  1  0
 10 11  1  0
 11 12  1  0
 13 12  1  0
 13 14  1  1
 14 15  2  0
 14 20  1  0
 17 19  1  0
 17 16  1  6
 18 17  1  0
 19 21  1  0
 19 20  1  6
 21 22  2  0
 21 23  1  0
M  END
$$$$
