LPT.pdb
     RDKit          3D

 23 23  0  0  1  0  0  0  0  0999 V2000
   19.0007  -12.6445    4.9476 C   0  0  0  0  0  0  0  0  0  0  0  0
   17.9536  -13.2792    4.0422 C   0  0  1  0  0  0  0  0  0  0  0  0
   18.5549  -13.4445    2.6808 C   0  0  0  0  0  0  0  0  0  0  0  0
   17.3875  -14.5167    4.6358 C   0  0  0  0  0  0  0  0  0  0  0  0
   16.1688  -15.0643    3.9222 C   0  0  2  0  0  0  0  0  0  0  0  0
   15.0439  -14.2269    4.0478 N   0  0  0  0  0  0  0  0  0  0  0  0
   16.0166  -16.4636    4.3139 C   0  0  0  0  0  0  0  0  0  0  0  0
   15.0875  -16.7107    5.1618 O   0  0  0  0  0  0  0  0  0  0  0  0
   16.7674  -17.5603    3.8706 N   0  0  0  0  0  0  0  0  0  0  0  0
   17.8994  -17.6575    2.9747 C   0  0  0  0  0  0  0  0  0  0  0  0
   17.3959  -18.7717    2.0399 C   0  0  0  0  0  0  0  0  0  0  0  0
   16.9808  -19.7953    3.0773 C   0  0  0  0  0  0  0  0  0  0  0  0
   16.5575  -18.9795    4.2542 C   0  0  1  0  0  0  0  0  0  0  0  0
   17.3875  -19.2029    5.4555 C   0  0  0  0  0  0  0  0  0  0  0  0
   18.5487  -18.6892    5.5413 O   0  0  0  0  0  0  0  0  0  0  0  0
   16.4685  -18.3133    8.9550 C   0  0  0  0  0  0  0  0  0  0  0  0
   16.6472  -19.7889    8.8544 C   0  0  1  0  0  0  0  0  0  0  0  0
   15.4028  -20.4086    8.6312 O   0  0  0  0  0  0  0  0  0  0  0  0
   17.5643  -20.2165    7.7315 C   0  0  2  0  0  0  0  0  0  0  0  0
   16.8546  -19.9997    6.4988 N   0  0  0  0  0  0  0  0  0  0  0  0
   17.9797  -21.6136    7.8233 C   0  0  0  0  0  0  0  0  0  0  0  0
   17.5491  -22.4454    6.9919 O   0  0  0  0  0  0  0  0  0  0  0  0
   18.8432  -22.0770    8.8025 O   0  0  0  0  0  0  0  0  0  0  0  0
  2  1  1  1
  3  2  1  0
  4  5  1  0
  4  2  1  0
  5  6  1  1
  5  7  1  0
  7  9  1  0
  8  7  2  0
  9 13  1  0
  9 10  1  0
 10 11  1  0
 11 12  1  0
 13 12  1  0
 13 14  1  1
 14 15  2  0
 14 20  1  0
 17 19  1  0
 17 16  1  6
 18 17  1  0
 19 21  1  0
 19 20  1  6
 21 22  2  0
 21 23  1  0
M  END
$$$$
