LPT.pdb
     RDKit          3D

 23 23  0  0  1  0  0  0  0  0999 V2000
   13.5186   -9.9253  -15.8035 C   0  0  0  0  0  0  0  0  0  0  0  0
   14.6709  -10.8518  -16.1678 C   0  0  1  0  0  0  0  0  0  0  0  0
   14.6152  -11.1052  -17.6425 C   0  0  0  0  0  0  0  0  0  0  0  0
   15.9707  -10.3405  -15.6647 C   0  0  0  0  0  0  0  0  0  0  0  0
   17.1247  -11.3150  -15.7790 C   0  0  2  0  0  0  0  0  0  0  0  0
   16.9375  -12.4723  -14.9992 N   0  0  0  0  0  0  0  0  0  0  0  0
   18.3619  -10.5625  -15.5854 C   0  0  0  0  0  0  0  0  0  0  0  0
   18.8707  -10.6128  -14.4098 O   0  0  0  0  0  0  0  0  0  0  0  0
   19.0517   -9.7958  -16.5338 N   0  0  0  0  0  0  0  0  0  0  0  0
   18.7705   -9.4924  -17.9202 C   0  0  0  0  0  0  0  0  0  0  0  0
   20.1312   -9.8482  -18.5451 C   0  0  0  0  0  0  0  0  0  0  0  0
   21.0401   -9.0640  -17.6203 C   0  0  0  0  0  0  0  0  0  0  0  0
   20.3225   -9.0606  -16.3107 C   0  0  1  0  0  0  0  0  0  0  0  0
   19.9362   -7.7101  -15.8539 C   0  0  0  0  0  0  0  0  0  0  0  0
   18.7720   -7.2564  -16.0957 O   0  0  0  0  0  0  0  0  0  0  0  0
   22.7240   -5.8422  -13.2667 C   0  0  0  0  0  0  0  0  0  0  0  0
   21.2505   -5.6337  -13.1972 C   0  0  1  0  0  0  0  0  0  0  0  0
   20.9704   -4.3750  -12.6319 O   0  0  0  0  0  0  0  0  0  0  0  0
   20.5646   -5.6787  -14.5434 C   0  0  2  0  0  0  0  0  0  0  0  0
   20.8938   -6.9437  -15.1448 N   0  0  0  0  0  0  0  0  0  0  0  0
   20.9622   -4.5905  -15.4326 C   0  0  0  0  0  0  0  0  0  0  0  0
   21.9042   -4.7611  -16.2400 O   0  0  0  0  0  0  0  0  0  0  0  0
   20.3389   -3.3533  -15.4298 O   0  0  0  0  0  0  0  0  0  0  0  0
  2  1  1  6
  3  2  1  0
  4  5  1  0
  4  2  1  0
  5  6  1  1
  5  7  1  0
  7  9  1  0
  8  7  2  0
  9 13  1  0
  9 10  1  0
 10 11  1  0
 11 12  1  0
 13 12  1  0
 13 14  1  6
 14 15  2  0
 14 20  1  0
 17 19  1  0
 17 16  1  6
 18 17  1  0
 19 21  1  0
 19 20  1  6
 21 22  2  0
 21 23  1  0
M  END
$$$$
