LPT.pdb
     RDKit          3D

 23 23  0  0  1  0  0  0  0  0999 V2000
   26.1052  -23.3925  -15.4796 C   0  0  0  0  0  0  0  0  0  0  0  0
   25.0117  -22.4691  -15.9999 C   0  0  1  0  0  0  0  0  0  0  0  0
   24.7336  -22.8349  -17.4251 C   0  0  0  0  0  0  0  0  0  0  0  0
   23.8249  -22.4614  -15.1080 C   0  0  0  0  0  0  0  0  0  0  0  0
   23.9652  -21.5997  -13.8703 C   0  0  2  0  0  0  0  0  0  0  0  0
   22.8908  -21.7573  -12.9740 N   0  0  0  0  0  0  0  0  0  0  0  0
   24.2866  -20.2433  -14.3079 C   0  0  0  0  0  0  0  0  0  0  0  0
   23.2854  -19.4827  -14.5580 O   0  0  0  0  0  0  0  0  0  0  0  0
   25.5583  -19.6825  -14.4849 N   0  0  0  0  0  0  0  0  0  0  0  0
   26.8868  -20.2129  -14.2674 C   0  0  0  0  0  0  0  0  0  0  0  0
   27.4888  -19.0702  -13.4304 C   0  0  0  0  0  0  0  0  0  0  0  0
   27.1241  -17.8965  -14.3167 C   0  0  0  0  0  0  0  0  0  0  0  0
   25.8520  -18.3131  -14.9786 C   0  0  1  0  0  0  0  0  0  0  0  0
   25.9610  -18.4252  -16.4473 C   0  0  0  0  0  0  0  0  0  0  0  0
   26.5632  -19.4143  -16.9754 O   0  0  0  0  0  0  0  0  0  0  0  0
   23.2994  -18.8909  -18.7809 C   0  0  0  0  0  0  0  0  0  0  0  0
   23.9272  -17.5810  -19.1117 C   0  0  1  0  0  0  0  0  0  0  0  0
   23.2246  -16.5386  -18.4775 O   0  0  0  0  0  0  0  0  0  0  0  0
   25.3713  -17.4709  -18.6791 C   0  0  2  0  0  0  0  0  0  0  0  0
   25.3795  -17.4063  -17.2417 N   0  0  0  0  0  0  0  0  0  0  0  0
   26.0534  -16.3028  -19.2299 C   0  0  0  0  0  0  0  0  0  0  0  0
   26.3469  -15.3440  -18.4797 O   0  0  0  0  0  0  0  0  0  0  0  0
   26.4002  -16.1976  -20.5670 O   0  0  0  0  0  0  0  0  0  0  0  0
  2  1  1  1
  3  2  1  0
  4  5  1  0
  4  2  1  0
  5  6  1  6
  5  7  1  0
  7  9  1  0
  8  7  2  0
  9 13  1  0
  9 10  1  0
 10 11  1  0
 11 12  1  0
 13 12  1  0
 13 14  1  6
 14 15  2  0
 14 20  1  0
 17 19  1  0
 17 16  1  1
 18 17  1  0
 19 21  1  0
 19 20  1  1
 21 22  2  0
 21 23  1  0
M  END
$$$$
