LPT.pdb
     RDKit          3D

 23 23  0  0  1  0  0  0  0  0999 V2000
   27.6508  -24.6447  -20.5070 C   0  0  0  0  0  0  0  0  0  0  0  0
   28.3995  -24.3893  -19.2058 C   0  0  1  0  0  0  0  0  0  0  0  0
   29.6380  -23.6114  -19.5271 C   0  0  0  0  0  0  0  0  0  0  0  0
   27.5224  -23.7802  -18.1745 C   0  0  0  0  0  0  0  0  0  0  0  0
   28.0959  -23.7781  -16.7726 C   0  0  2  0  0  0  0  0  0  0  0  0
   28.4161  -25.0705  -16.3148 N   0  0  0  0  0  0  0  0  0  0  0  0
   27.2189  -22.9627  -15.9355 C   0  0  0  0  0  0  0  0  0  0  0  0
   26.5270  -23.5978  -15.0630 O   0  0  0  0  0  0  0  0  0  0  0  0
   27.0488  -21.5727  -15.9783 N   0  0  0  0  0  0  0  0  0  0  0  0
   27.5012  -20.5726  -16.9209 C   0  0  0  0  0  0  0  0  0  0  0  0
   28.1279  -19.5607  -15.9453 C   0  0  0  0  0  0  0  0  0  0  0  0
   26.9801  -19.4184  -14.9663 C   0  0  0  0  0  0  0  0  0  0  0  0
   26.3038  -20.7496  -14.9920 C   0  0  1  0  0  0  0  0  0  0  0  0
   24.9105  -20.6935  -15.4792 C   0  0  0  0  0  0  0  0  0  0  0  0
   24.6644  -20.6750  -16.7277 O   0  0  0  0  0  0  0  0  0  0  0  0
   21.9735  -22.2136  -12.9428 C   0  0  0  0  0  0  0  0  0  0  0  0
   21.9450  -22.0516  -14.4235 C   0  0  1  0  0  0  0  0  0  0  0  0
   20.6216  -22.1573  -14.8922 O   0  0  0  0  0  0  0  0  0  0  0  0
   22.4806  -20.7214  -14.9014 C   0  0  2  0  0  0  0  0  0  0  0  0
   23.8671  -20.6614  -14.5213 N   0  0  0  0  0  0  0  0  0  0  0  0
   21.7659  -19.5757  -14.3450 C   0  0  0  0  0  0  0  0  0  0  0  0
   22.2627  -18.9390  -13.3878 O   0  0  0  0  0  0  0  0  0  0  0  0
   20.5412  -19.1472  -14.8307 O   0  0  0  0  0  0  0  0  0  0  0  0
  2  1  1  6
  3  2  1  0
  4  5  1  0
  4  2  1  0
  5  6  1  1
  5  7  1  0
  7  9  1  0
  8  7  2  0
  9 13  1  0
  9 10  1  0
 10 11  1  0
 11 12  1  0
 13 12  1  0
 13 14  1  6
 14 15  2  0
 14 20  1  0
 17 19  1  0
 17 16  1  1
 18 17  1  0
 19 21  1  0
 19 20  1  1
 21 22  2  0
 21 23  1  0
M  END
$$$$
