LPT.pdb
     RDKit          3D

 23 23  0  0  1  0  0  0  0  0999 V2000
   27.0254  -17.6678  -12.8765 C   0  0  0  0  0  0  0  0  0  0  0  0
   26.4340  -19.0584  -13.0650 C   0  0  1  0  0  0  0  0  0  0  0  0
   25.6495  -19.0609  -14.3405 C   0  0  0  0  0  0  0  0  0  0  0  0
   27.4691  -20.1174  -12.9595 C   0  0  0  0  0  0  0  0  0  0  0  0
   26.9614  -21.4556  -12.4636 C   0  0  2  0  0  0  0  0  0  0  0  0
   25.6037  -21.6687  -12.7697 N   0  0  0  0  0  0  0  0  0  0  0  0
   27.3694  -21.5955  -11.0677 C   0  0  0  0  0  0  0  0  0  0  0  0
   26.4537  -21.9650  -10.2502 O   0  0  0  0  0  0  0  0  0  0  0  0
   28.6412  -21.3724  -10.5240 N   0  0  0  0  0  0  0  0  0  0  0  0
   29.8143  -20.7092  -11.0506 C   0  0  0  0  0  0  0  0  0  0  0  0
   30.8726  -21.7904  -10.7683 C   0  0  0  0  0  0  0  0  0  0  0  0
   30.5706  -22.0558   -9.3073 C   0  0  0  0  0  0  0  0  0  0  0  0
   29.1060  -21.7946   -9.1783 C   0  0  1  0  0  0  0  0  0  0  0  0
   28.7846  -20.6767   -8.2679 C   0  0  0  0  0  0  0  0  0  0  0  0
   28.6458  -19.4957   -8.7213 O   0  0  0  0  0  0  0  0  0  0  0  0
   26.7747  -19.6054   -3.9572 C   0  0  0  0  0  0  0  0  0  0  0  0
   27.1235  -20.4576   -5.1283 C   0  0  1  0  0  0  0  0  0  0  0  0
   26.0242  -20.5429   -6.0039 O   0  0  0  0  0  0  0  0  0  0  0  0
   28.2931  -19.9384   -5.9329 C   0  0  2  0  0  0  0  0  0  0  0  0
   28.6373  -20.9587   -6.8873 N   0  0  0  0  0  0  0  0  0  0  0  0
   29.4589  -19.6126   -5.1158 C   0  0  0  0  0  0  0  0  0  0  0  0
   30.2998  -20.5021   -4.8511 O   0  0  0  0  0  0  0  0  0  0  0  0
   29.6884  -18.3445   -4.6075 O   0  0  0  0  0  0  0  0  0  0  0  0
  2  1  1  6
  3  2  1  0
  4  5  1  0
  4  2  1  0
  5  6  1  1
  5  7  1  0
  7  9  1  0
  8  7  2  0
  9 13  1  0
  9 10  1  0
 10 11  1  0
 11 12  1  0
 13 12  1  0
 13 14  1  1
 14 15  2  0
 14 20  1  0
 17 19  1  0
 17 16  1  1
 18 17  1  0
 19 21  1  0
 19 20  1  6
 21 22  2  0
 21 23  1  0
M  END
$$$$
