LPT.pdb
     RDKit          3D

 23 23  0  0  1  0  0  0  0  0999 V2000
   23.9821  -15.5690  -17.1553 C   0  0  0  0  0  0  0  0  0  0  0  0
   24.5739  -16.9243  -17.5184 C   0  0  1  0  0  0  0  0  0  0  0  0
   25.9660  -16.7033  -18.0238 C   0  0  0  0  0  0  0  0  0  0  0  0
   24.4554  -17.8955  -16.4019 C   0  0  0  0  0  0  0  0  0  0  0  0
   24.9502  -19.2917  -16.7183 C   0  0  2  0  0  0  0  0  0  0  0  0
   24.1121  -19.9733  -17.6214 N   0  0  0  0  0  0  0  0  0  0  0  0
   25.2568  -19.9517  -15.4514 C   0  0  0  0  0  0  0  0  0  0  0  0
   24.3455  -20.7242  -14.9865 O   0  0  0  0  0  0  0  0  0  0  0  0
   26.4276  -19.8363  -14.6906 N   0  0  0  0  0  0  0  0  0  0  0  0
   27.5510  -18.9287  -14.7779 C   0  0  0  0  0  0  0  0  0  0  0  0
   28.7077  -19.9436  -14.7502 C   0  0  0  0  0  0  0  0  0  0  0  0
   28.2980  -20.7516  -13.5356 C   0  0  0  0  0  0  0  0  0  0  0  0
   26.8063  -20.6820  -13.5301 C   0  0  1  0  0  0  0  0  0  0  0  0
   26.2521  -20.0082  -12.3381 C   0  0  0  0  0  0  0  0  0  0  0  0
   26.2510  -18.7381  -12.2579 O   0  0  0  0  0  0  0  0  0  0  0  0
   22.8739  -20.3974  -11.1126 C   0  0  0  0  0  0  0  0  0  0  0  0
   23.7577  -20.7685   -9.9722 C   0  0  1  0  0  0  0  0  0  0  0  0
   23.8449  -22.1700   -9.8693 O   0  0  0  0  0  0  0  0  0  0  0  0
   25.1695  -20.2437  -10.0995 C   0  0  2  0  0  0  0  0  0  0  0  0
   25.7271  -20.8134  -11.2973 N   0  0  0  0  0  0  0  0  0  0  0  0
   26.0153  -20.5735   -8.9555 C   0  0  0  0  0  0  0  0  0  0  0  0
   26.9948  -21.3389   -9.1076 O   0  0  0  0  0  0  0  0  0  0  0  0
   25.7862  -20.0735   -7.6839 O   0  0  0  0  0  0  0  0  0  0  0  0
  2  1  1  1
  3  2  1  0
  4  5  1  0
  4  2  1  0
  5  6  1  1
  5  7  1  0
  7  9  1  0
  8  7  2  0
  9 13  1  0
  9 10  1  0
 10 11  1  0
 11 12  1  0
 13 12  1  0
 13 14  1  1
 14 15  2  0
 14 20  1  0
 17 19  1  0
 17 16  1  6
 18 17  1  0
 19 21  1  0
 19 20  1  6
 21 22  2  0
 21 23  1  0
M  END
$$$$
