FDT.pdb
     RDKit          3D

 27 27  0  0  1  0  0  0  0  0999 V2000
    6.3224  -17.0576   25.4569 N   0  0  0  0  0  0  0  0  0  0  0  0
    7.1652  -16.8894   24.3118 C   0  0  1  0  0  0  0  0  0  0  0  0
    6.8909  -15.5680   23.5963 C   0  0  0  0  0  0  0  0  0  0  0  0
    7.0648  -14.4244   24.5271 C   0  0  0  0  0  0  0  0  0  0  0  0
    6.3096  -14.2533   25.6680 C   0  0  0  0  0  0  0  0  0  0  0  0
    6.4921  -13.1766   26.5195 C   0  0  0  0  0  0  0  0  0  0  0  0
    7.4481  -12.2334   26.2447 C   0  0  0  0  0  0  0  0  0  0  0  0
    8.2183  -12.3704   25.1188 C   0  0  0  0  0  0  0  0  0  0  0  0
    8.0299  -13.4478   24.2741 C   0  0  0  0  0  0  0  0  0  0  0  0
    8.6031  -17.0382   24.6271 C   0  0  0  0  0  0  0  0  0  0  0  0
    9.0206  -17.7897   25.5450 O   0  0  0  0  0  0  0  0  0  0  0  0
    9.5815  -16.3235   23.8896 N   0  0  0  0  0  0  0  0  0  0  0  0
   10.9860  -16.4853   24.0356 C   0  0  1  0  0  0  0  0  0  0  0  0
   11.7388  -15.7590   22.9752 C   0  0  0  0  0  0  0  0  0  0  0  0
   11.4481  -16.2281   21.6110 C   0  0  0  0  0  0  0  0  0  0  0  0
   11.2841  -17.4293   21.2743 O   0  0  0  0  0  0  0  0  0  0  0  0
   11.4806  -16.1829   25.3999 C   0  0  0  0  0  0  0  0  0  0  0  0
   12.7124  -16.1107   25.5889 O   0  0  0  0  0  0  0  0  0  0  0  0
   11.3324  -15.3057   20.5547 O   0  0  0  0  0  0  0  0  0  0  0  0
    9.9265  -13.4482   27.6651 C   0  0  0  0  0  0  0  0  0  0  0  0
   10.0341  -14.7263   28.4568 C   0  0  1  0  0  0  0  0  0  0  0  0
    8.7776  -15.3287   28.4441 O   0  0  0  0  0  0  0  0  0  0  0  0
   11.0794  -15.6649   27.8423 C   0  0  2  0  0  0  0  0  0  0  0  0
   10.6280  -15.9694   26.5110 N   0  0  0  0  0  0  0  0  0  0  0  0
   11.1501  -16.8424   28.7192 C   0  0  0  0  0  0  0  0  0  0  0  0
   10.7140  -18.0573   28.2081 O   0  0  0  0  0  0  0  0  0  0  0  0
   11.5747  -16.8236   29.8899 O   0  0  0  0  0  0  0  0  0  0  0  0
  2  1  1  1
  3  2  1  0
  4  3  1  0
  4  5  2  0
  6  5  1  0
  7  6  2  0
  8  9  2  0
  8  7  1  0
  9  4  1  0
 10  2  1  0
 11 10  2  0
 12 10  1  0
 13 17  1  0
 13 12  1  0
 13 14  1  6
 15 14  1  0
 16 15  2  0
 17 18  2  0
 19 15  1  0
 21 20  1  6
 21 22  1  0
 23 21  1  0
 23 24  1  6
 24 17  1  0
 25 26  1  0
 25 23  1  0
 27 25  2  0
M  END
$$$$
