FDT.pdb
     RDKit          3D

 27 27  0  0  1  0  0  0  0  0999 V2000
    6.5837  -18.5781   23.1724 N   0  0  0  0  0  0  0  0  0  0  0  0
    7.0843  -17.2769   23.4978 C   0  0  1  0  0  0  0  0  0  0  0  0
    6.1009  -16.4926   24.3644 C   0  0  0  0  0  0  0  0  0  0  0  0
    6.5284  -15.0761   24.4879 C   0  0  0  0  0  0  0  0  0  0  0  0
    6.8187  -14.2742   23.4043 C   0  0  0  0  0  0  0  0  0  0  0  0
    7.2159  -12.9553   23.5475 C   0  0  0  0  0  0  0  0  0  0  0  0
    7.3332  -12.4012   24.7958 C   0  0  0  0  0  0  0  0  0  0  0  0
    7.0527  -13.1684   25.8969 C   0  0  0  0  0  0  0  0  0  0  0  0
    6.6569  -14.4838   25.7456 C   0  0  0  0  0  0  0  0  0  0  0  0
    8.4288  -17.3137   24.1144 C   0  0  0  0  0  0  0  0  0  0  0  0
    8.7034  -18.0505   25.0959 O   0  0  0  0  0  0  0  0  0  0  0  0
    9.4769  -16.5022   23.6095 N   0  0  0  0  0  0  0  0  0  0  0  0
   10.8264  -16.5512   24.0528 C   0  0  1  0  0  0  0  0  0  0  0  0
   11.7770  -16.1671   22.9724 C   0  0  0  0  0  0  0  0  0  0  0  0
   12.0977  -17.2630   22.0439 C   0  0  0  0  0  0  0  0  0  0  0  0
   11.6894  -18.4485   22.1492 O   0  0  0  0  0  0  0  0  0  0  0  0
   11.0644  -15.8126   25.3159 C   0  0  0  0  0  0  0  0  0  0  0  0
   11.8498  -14.8424   25.3043 O   0  0  0  0  0  0  0  0  0  0  0  0
   12.9233  -17.0275   20.9291 O   0  0  0  0  0  0  0  0  0  0  0  0
   10.0333  -13.3819   27.5919 C   0  0  0  0  0  0  0  0  0  0  0  0
    9.8953  -14.6814   28.3431 C   0  0  1  0  0  0  0  0  0  0  0  0
    8.5951  -15.1403   28.1421 O   0  0  0  0  0  0  0  0  0  0  0  0
   10.9079  -15.7163   27.8379 C   0  0  2  0  0  0  0  0  0  0  0  0
   10.4463  -16.1478   26.5458 N   0  0  0  0  0  0  0  0  0  0  0  0
   10.9380  -16.7934   28.8376 C   0  0  0  0  0  0  0  0  0  0  0  0
   11.3737  -16.4770   30.1172 O   0  0  0  0  0  0  0  0  0  0  0  0
   10.5989  -17.9708   28.6141 O   0  0  0  0  0  0  0  0  0  0  0  0
  2  1  1  1
  3  2  1  0
  4  3  1  0
  4  5  2  0
  6  5  1  0
  7  6  2  0
  8  9  2  0
  8  7  1  0
  9  4  1  0
 10  2  1  0
 11 10  2  0
 12 10  1  0
 13 17  1  0
 13 12  1  0
 13 14  1  6
 15 14  1  0
 16 15  2  0
 17 18  2  0
 19 15  1  0
 21 20  1  6
 21 22  1  0
 23 21  1  0
 23 24  1  6
 24 17  1  0
 25 26  1  0
 25 23  1  0
 27 25  2  0
M  END
$$$$
