FDT.pdb
     RDKit          3D

 27 27  0  0  1  0  0  0  0  0999 V2000
    6.3055  -16.5918   24.2278 N   0  0  0  0  0  0  0  0  0  0  0  0
    7.5030  -15.8631   24.5184 C   0  0  1  0  0  0  0  0  0  0  0  0
    7.3953  -15.1004   25.8375 C   0  0  0  0  0  0  0  0  0  0  0  0
    6.8093  -13.7543   25.6160 C   0  0  0  0  0  0  0  0  0  0  0  0
    7.4583  -12.7475   24.9330 C   0  0  0  0  0  0  0  0  0  0  0  0
    6.8889  -11.5000   24.7407 C   0  0  0  0  0  0  0  0  0  0  0  0
    5.6394  -11.2277   25.2344 C   0  0  0  0  0  0  0  0  0  0  0  0
    4.9637  -12.2046   25.9190 C   0  0  0  0  0  0  0  0  0  0  0  0
    5.5389  -13.4471   26.1068 C   0  0  0  0  0  0  0  0  0  0  0  0
    8.7155  -16.7104   24.4882 C   0  0  0  0  0  0  0  0  0  0  0  0
    8.7427  -17.8708   24.9720 O   0  0  0  0  0  0  0  0  0  0  0  0
    9.9150  -16.2333   23.9000 N   0  0  0  0  0  0  0  0  0  0  0  0
   11.2093  -16.7635   24.1527 C   0  0  1  0  0  0  0  0  0  0  0  0
   12.1796  -16.3822   23.0890 C   0  0  0  0  0  0  0  0  0  0  0  0
   11.7621  -16.7749   21.7335 C   0  0  0  0  0  0  0  0  0  0  0  0
   11.0970  -17.8037   21.4466 O   0  0  0  0  0  0  0  0  0  0  0  0
   11.7125  -16.4781   25.5176 C   0  0  0  0  0  0  0  0  0  0  0  0
   12.7504  -15.7961   25.6436 O   0  0  0  0  0  0  0  0  0  0  0  0
   12.1047  -15.9751   20.6277 O   0  0  0  0  0  0  0  0  0  0  0  0
   11.3583  -14.3516   28.0381 C   0  0  0  0  0  0  0  0  0  0  0  0
   10.9542  -15.6460   28.6963 C   0  0  1  0  0  0  0  0  0  0  0  0
    9.5694  -15.7533   28.5846 O   0  0  0  0  0  0  0  0  0  0  0  0
   11.6359  -16.8410   28.0189 C   0  0  2  0  0  0  0  0  0  0  0  0
   11.0774  -16.9391   26.6971 N   0  0  0  0  0  0  0  0  0  0  0  0
   11.3560  -18.0133   28.8604 C   0  0  0  0  0  0  0  0  0  0  0  0
   11.9465  -18.0650   30.1157 O   0  0  0  0  0  0  0  0  0  0  0  0
   10.6247  -18.9633   28.5229 O   0  0  0  0  0  0  0  0  0  0  0  0
  2  1  1  1
  3  2  1  0
  4  3  1  0
  4  5  2  0
  6  5  1  0
  7  6  2  0
  8  9  2  0
  8  7  1  0
  9  4  1  0
 10  2  1  0
 11 10  2  0
 12 10  1  0
 13 17  1  0
 13 12  1  0
 13 14  1  6
 15 14  1  0
 16 15  2  0
 17 18  2  0
 19 15  1  0
 21 20  1  6
 21 22  1  0
 23 21  1  0
 23 24  1  6
 24 17  1  0
 25 26  1  0
 25 23  1  0
 27 25  2  0
M  END
$$$$
