FDT.pdb
     RDKit          3D

 27 27  0  0  1  0  0  0  0  0999 V2000
    7.4237  -16.1669   26.1389 N   0  0  0  0  0  0  0  0  0  0  0  0
    7.2585  -16.5303   24.7641 C   0  0  1  0  0  0  0  0  0  0  0  0
    6.6458  -15.3937   23.9479 C   0  0  0  0  0  0  0  0  0  0  0  0
    6.6367  -14.1334   24.7328 C   0  0  0  0  0  0  0  0  0  0  0  0
    5.7601  -13.8917   25.7694 C   0  0  0  0  0  0  0  0  0  0  0  0
    5.7726  -12.7065   26.4855 C   0  0  0  0  0  0  0  0  0  0  0  0
    6.6754  -11.7224   26.1763 C   0  0  0  0  0  0  0  0  0  0  0  0
    7.5628  -11.9273   25.1515 C   0  0  0  0  0  0  0  0  0  0  0  0
    7.5439  -13.1129   24.4415 C   0  0  0  0  0  0  0  0  0  0  0  0
    8.5084  -17.0211   24.1429 C   0  0  0  0  0  0  0  0  0  0  0  0
    8.6522  -18.2100   23.7592 O   0  0  0  0  0  0  0  0  0  0  0  0
    9.6115  -16.1493   23.9546 N   0  0  0  0  0  0  0  0  0  0  0  0
   10.9755  -16.5266   24.0861 C   0  0  1  0  0  0  0  0  0  0  0  0
   11.8453  -15.7991   23.1203 C   0  0  0  0  0  0  0  0  0  0  0  0
   11.5246  -16.0692   21.7096 C   0  0  0  0  0  0  0  0  0  0  0  0
   11.3187  -15.1936   20.8299 O   0  0  0  0  0  0  0  0  0  0  0  0
   11.4801  -16.4568   25.4782 C   0  0  0  0  0  0  0  0  0  0  0  0
   12.6512  -16.8213   25.7104 O   0  0  0  0  0  0  0  0  0  0  0  0
   11.4265  -17.3945   21.2471 O   0  0  0  0  0  0  0  0  0  0  0  0
   11.0254  -13.4906   28.0660 C   0  0  0  0  0  0  0  0  0  0  0  0
   10.4698  -14.7826   28.6082 C   0  0  1  0  0  0  0  0  0  0  0  0
    9.1005  -14.7856   28.3502 O   0  0  0  0  0  0  0  0  0  0  0  0
   11.1389  -15.9897   27.9398 C   0  0  2  0  0  0  0  0  0  0  0  0
   10.7026  -15.9962   26.5693 N   0  0  0  0  0  0  0  0  0  0  0  0
   10.7106  -17.1757   28.6953 C   0  0  0  0  0  0  0  0  0  0  0  0
    9.8198  -18.0466   28.0826 O   0  0  0  0  0  0  0  0  0  0  0  0
   11.0929  -17.4518   29.8479 O   0  0  0  0  0  0  0  0  0  0  0  0
  2  1  1  1
  3  2  1  0
  4  3  1  0
  4  5  2  0
  6  5  1  0
  7  6  2  0
  8  9  2  0
  8  7  1  0
  9  4  1  0
 10  2  1  0
 11 10  2  0
 12 10  1  0
 13 17  1  0
 13 12  1  0
 13 14  1  6
 15 14  1  0
 16 15  2  0
 17 18  2  0
 19 15  1  0
 21 20  1  6
 21 22  1  0
 23 21  1  0
 23 24  1  6
 24 17  1  0
 25 26  1  0
 25 23  1  0
 27 25  2  0
M  END
$$$$
