FDT.pdb
     RDKit          3D

 27 27  0  0  1  0  0  0  0  0999 V2000
    8.3695  -15.4708   22.3371 N   0  0  0  0  0  0  0  0  0  0  0  0
    8.2355  -16.6615   21.5535 C   0  0  1  0  0  0  0  0  0  0  0  0
    7.5582  -16.3835   20.2129 C   0  0  0  0  0  0  0  0  0  0  0  0
    7.5416  -14.9263   19.9284 C   0  0  0  0  0  0  0  0  0  0  0  0
    6.8764  -14.0079   20.7129 C   0  0  0  0  0  0  0  0  0  0  0  0
    6.8767  -12.6535   20.4247 C   0  0  0  0  0  0  0  0  0  0  0  0
    7.5522  -12.1806   19.3298 C   0  0  0  0  0  0  0  0  0  0  0  0
    8.2254  -13.0645   18.5265 C   0  0  0  0  0  0  0  0  0  0  0  0
    8.2203  -14.4148   18.8208 C   0  0  0  0  0  0  0  0  0  0  0  0
    9.5173  -17.3765   21.3670 C   0  0  0  0  0  0  0  0  0  0  0  0
    9.5804  -18.5420   20.8988 O   0  0  0  0  0  0  0  0  0  0  0  0
   10.7456  -16.7594   21.7170 N   0  0  0  0  0  0  0  0  0  0  0  0
   11.6312  -17.2287   22.7247 C   0  0  1  0  0  0  0  0  0  0  0  0
   13.0450  -16.8626   22.4318 C   0  0  0  0  0  0  0  0  0  0  0  0
   13.7782  -17.8836   21.6666 C   0  0  0  0  0  0  0  0  0  0  0  0
   13.3138  -18.9965   21.3074 O   0  0  0  0  0  0  0  0  0  0  0  0
   11.2161  -16.8605   24.0994 C   0  0  0  0  0  0  0  0  0  0  0  0
   11.6902  -15.8258   24.6120 O   0  0  0  0  0  0  0  0  0  0  0  0
   15.1105  -17.6545   21.2759 O   0  0  0  0  0  0  0  0  0  0  0  0
    8.2135  -15.6343   25.4658 C   0  0  0  0  0  0  0  0  0  0  0  0
    8.4256  -16.9475   26.1746 C   0  0  1  0  0  0  0  0  0  0  0  0
    7.7132  -17.9175   25.4721 O   0  0  0  0  0  0  0  0  0  0  0  0
    9.9147  -17.3110   26.2201 C   0  0  2  0  0  0  0  0  0  0  0  0
   10.3044  -17.6223   24.8710 N   0  0  0  0  0  0  0  0  0  0  0  0
   10.0385  -18.4493   27.1418 C   0  0  0  0  0  0  0  0  0  0  0  0
    9.8234  -18.2146   28.4930 O   0  0  0  0  0  0  0  0  0  0  0  0
   10.3234  -19.6102   26.7921 O   0  0  0  0  0  0  0  0  0  0  0  0
  2  1  1  6
  3  2  1  0
  4  3  1  0
  4  5  2  0
  6  5  1  0
  7  6  2  0
  8  9  2  0
  8  7  1  0
  9  4  1  0
 10  2  1  0
 11 10  2  0
 12 10  1  0
 13 17  1  0
 13 12  1  0
 13 14  1  6
 15 14  1  0
 16 15  2  0
 17 18  2  0
 19 15  1  0
 21 20  1  6
 21 22  1  0
 23 21  1  0
 23 24  1  6
 24 17  1  0
 25 26  1  0
 25 23  1  0
 27 25  2  0
M  END
$$$$
