FDT.pdb
     RDKit          3D

 27 27  0  0  1  0  0  0  0  0999 V2000
    6.3725  -16.8955   20.1588 N   0  0  0  0  0  0  0  0  0  0  0  0
    7.7522  -17.0329   19.8019 C   0  0  1  0  0  0  0  0  0  0  0  0
    8.3122  -15.7449   19.2011 C   0  0  0  0  0  0  0  0  0  0  0  0
    8.0465  -14.5918   20.0979 C   0  0  0  0  0  0  0  0  0  0  0  0
    7.9923  -14.6961   21.4718 C   0  0  0  0  0  0  0  0  0  0  0  0
    7.7422  -13.6040   22.2856 C   0  0  0  0  0  0  0  0  0  0  0  0
    7.5378  -12.3653   21.7355 C   0  0  0  0  0  0  0  0  0  0  0  0
    7.5843  -12.2232   20.3726 C   0  0  0  0  0  0  0  0  0  0  0  0
    7.8344  -13.3180   19.5672 C   0  0  0  0  0  0  0  0  0  0  0  0
    8.5930  -17.5102   20.9218 C   0  0  0  0  0  0  0  0  0  0  0  0
    8.1108  -17.8573   22.0302 O   0  0  0  0  0  0  0  0  0  0  0  0
   10.0020  -17.5948   20.7815 N   0  0  0  0  0  0  0  0  0  0  0  0
   10.8902  -18.0689   21.7847 C   0  0  1  0  0  0  0  0  0  0  0  0
   12.2726  -18.2464   21.2592 C   0  0  0  0  0  0  0  0  0  0  0  0
   12.3524  -19.1158   20.0746 C   0  0  0  0  0  0  0  0  0  0  0  0
   12.8463  -18.7891   18.9644 O   0  0  0  0  0  0  0  0  0  0  0  0
   10.8496  -17.2771   23.0372 C   0  0  0  0  0  0  0  0  0  0  0  0
   10.7963  -16.0325   22.9582 O   0  0  0  0  0  0  0  0  0  0  0  0
   11.8525  -20.4301   20.1260 O   0  0  0  0  0  0  0  0  0  0  0  0
    9.0448  -15.6902   24.4547 C   0  0  0  0  0  0  0  0  0  0  0  0
    9.3532  -16.5659   25.6421 C   0  0  1  0  0  0  0  0  0  0  0  0
    8.4317  -17.6111   25.6368 O   0  0  0  0  0  0  0  0  0  0  0  0
   10.7819  -17.1170   25.5599 C   0  0  2  0  0  0  0  0  0  0  0  0
   10.8679  -17.8571   24.3296 N   0  0  0  0  0  0  0  0  0  0  0  0
   10.9785  -17.9475   26.7567 C   0  0  0  0  0  0  0  0  0  0  0  0
   11.0671  -19.3220   26.5834 O   0  0  0  0  0  0  0  0  0  0  0  0
   11.0709  -17.5010   27.9157 O   0  0  0  0  0  0  0  0  0  0  0  0
  2  1  1  1
  3  2  1  0
  4  3  1  0
  4  5  2  0
  6  5  1  0
  7  6  2  0
  8  9  2  0
  8  7  1  0
  9  4  1  0
 10  2  1  0
 11 10  2  0
 12 10  1  0
 13 17  1  0
 13 12  1  0
 13 14  1  6
 15 14  1  0
 16 15  2  0
 17 18  2  0
 19 15  1  0
 21 20  1  6
 21 22  1  0
 23 21  1  0
 23 24  1  6
 24 17  1  0
 25 26  1  0
 25 23  1  0
 27 25  2  0
M  END
$$$$
