FDT.pdb
     RDKit          3D

 27 27  0  0  1  0  0  0  0  0999 V2000
    6.0189  -16.7510   25.0307 N   0  0  0  0  0  0  0  0  0  0  0  0
    6.9674  -16.4389   24.0047 C   0  0  1  0  0  0  0  0  0  0  0  0
    6.8956  -14.9689   23.5959 C   0  0  0  0  0  0  0  0  0  0  0  0
    7.0464  -14.0890   24.7823 C   0  0  0  0  0  0  0  0  0  0  0  0
    8.1533  -13.2970   25.0035 C   0  0  0  0  0  0  0  0  0  0  0  0
    8.2689  -12.4851   26.1193 C   0  0  0  0  0  0  0  0  0  0  0  0
    7.2654  -12.4468   27.0523 C   0  0  0  0  0  0  0  0  0  0  0  0
    6.1493  -13.2210   26.8658 C   0  0  0  0  0  0  0  0  0  0  0  0
    6.0415  -14.0286   25.7496 C   0  0  0  0  0  0  0  0  0  0  0  0
    8.3500  -16.8283   24.3597 C   0  0  0  0  0  0  0  0  0  0  0  0
    8.6122  -17.5873   25.3274 O   0  0  0  0  0  0  0  0  0  0  0  0
    9.4512  -16.3490   23.6048 N   0  0  0  0  0  0  0  0  0  0  0  0
   10.8125  -16.6626   23.8669 C   0  0  1  0  0  0  0  0  0  0  0  0
   11.6925  -16.3043   22.7198 C   0  0  0  0  0  0  0  0  0  0  0  0
   11.4655  -17.1215   21.5172 C   0  0  0  0  0  0  0  0  0  0  0  0
   11.2887  -18.3672   21.5069 O   0  0  0  0  0  0  0  0  0  0  0  0
   11.3074  -16.1291   25.1584 C   0  0  0  0  0  0  0  0  0  0  0  0
   11.9155  -15.0389   25.1633 O   0  0  0  0  0  0  0  0  0  0  0  0
   11.4328  -16.5176   20.2466 O   0  0  0  0  0  0  0  0  0  0  0  0
   10.8571  -14.3737   29.2280 C   0  0  0  0  0  0  0  0  0  0  0  0
   10.5383  -15.0558   27.9223 C   0  0  1  0  0  0  0  0  0  0  0  0
   10.6844  -14.1069   26.9124 O   0  0  0  0  0  0  0  0  0  0  0  0
   11.4813  -16.2403   27.6786 C   0  0  2  0  0  0  0  0  0  0  0  0
   11.1282  -16.7915   26.3979 N   0  0  0  0  0  0  0  0  0  0  0  0
   11.2745  -17.1748   28.7943 C   0  0  0  0  0  0  0  0  0  0  0  0
   12.0218  -16.9810   29.9480 O   0  0  0  0  0  0  0  0  0  0  0  0
   10.4740  -18.1287   28.7741 O   0  0  0  0  0  0  0  0  0  0  0  0
  2  1  1  1
  3  2  1  0
  4  3  1  0
  4  5  2  0
  6  5  1  0
  7  6  2  0
  8  9  2  0
  8  7  1  0
  9  4  1  0
 10  2  1  0
 11 10  2  0
 12 10  1  0
 13 17  1  0
 13 12  1  0
 13 14  1  6
 15 14  1  0
 16 15  2  0
 17 18  2  0
 19 15  1  0
 21 20  1  1
 21 22  1  0
 23 21  1  0
 23 24  1  6
 24 17  1  0
 25 26  1  0
 25 23  1  0
 27 25  2  0
M  END
$$$$
