FDT.pdb
     RDKit          3D

 27 27  0  0  1  0  0  0  0  0999 V2000
    9.4205  -16.1170   21.1011 N   0  0  0  0  0  0  0  0  0  0  0  0
    9.1553  -15.3562   22.2846 C   0  0  1  0  0  0  0  0  0  0  0  0
    7.7467  -14.7654   22.2739 C   0  0  0  0  0  0  0  0  0  0  0  0
    7.5173  -13.9849   21.0318 C   0  0  0  0  0  0  0  0  0  0  0  0
    8.0830  -12.7495   20.7970 C   0  0  0  0  0  0  0  0  0  0  0  0
    7.8520  -12.0420   19.6292 C   0  0  0  0  0  0  0  0  0  0  0  0
    7.0384  -12.5619   18.6562 C   0  0  0  0  0  0  0  0  0  0  0  0
    6.4584  -13.7882   18.8548 C   0  0  0  0  0  0  0  0  0  0  0  0
    6.6937  -14.4881   20.0230 C   0  0  0  0  0  0  0  0  0  0  0  0
    9.4063  -16.1176   23.5281 C   0  0  0  0  0  0  0  0  0  0  0  0
    8.6943  -15.9881   24.5565 O   0  0  0  0  0  0  0  0  0  0  0  0
   10.4815  -17.0397   23.6053 N   0  0  0  0  0  0  0  0  0  0  0  0
   10.8483  -17.7624   24.7729 C   0  0  1  0  0  0  0  0  0  0  0  0
   11.7719  -18.8878   24.4584 C   0  0  0  0  0  0  0  0  0  0  0  0
   12.1610  -19.6847   25.6328 C   0  0  0  0  0  0  0  0  0  0  0  0
   11.3666  -20.1614   26.4842 O   0  0  0  0  0  0  0  0  0  0  0  0
   11.3457  -16.9020   25.8728 C   0  0  0  0  0  0  0  0  0  0  0  0
   12.4524  -16.3399   25.7408 O   0  0  0  0  0  0  0  0  0  0  0  0
   13.5171  -19.9701   25.8770 O   0  0  0  0  0  0  0  0  0  0  0  0
   10.2904  -13.7638   27.4369 C   0  0  0  0  0  0  0  0  0  0  0  0
   10.1887  -14.8229   28.5046 C   0  0  1  0  0  0  0  0  0  0  0  0
    8.8724  -15.2801   28.5109 O   0  0  0  0  0  0  0  0  0  0  0  0
   11.1520  -15.9816   28.2201 C   0  0  2  0  0  0  0  0  0  0  0  0
   10.6307  -16.6794   27.0755 N   0  0  0  0  0  0  0  0  0  0  0  0
   11.1886  -16.8028   29.4387 C   0  0  0  0  0  0  0  0  0  0  0  0
   11.7773  -16.2556   30.5706 O   0  0  0  0  0  0  0  0  0  0  0  0
   10.7271  -17.9564   29.5241 O   0  0  0  0  0  0  0  0  0  0  0  0
  2  1  1  6
  3  2  1  0
  4  3  1  0
  4  5  2  0
  6  5  1  0
  7  6  2  0
  8  9  2  0
  8  7  1  0
  9  4  1  0
 10  2  1  0
 11 10  2  0
 12 10  1  0
 13 17  1  0
 13 12  1  0
 13 14  1  6
 15 14  1  0
 16 15  2  0
 17 18  2  0
 19 15  1  0
 21 20  1  6
 21 22  1  0
 23 21  1  0
 23 24  1  6
 24 17  1  0
 25 26  1  0
 25 23  1  0
 27 25  2  0
M  END
$$$$
