FDT.pdb
     RDKit          3D

 27 27  0  0  1  0  0  0  0  0999 V2000
    6.8564  -17.3275   22.3702 N   0  0  0  0  0  0  0  0  0  0  0  0
    7.3497  -16.3002   23.2369 C   0  0  1  0  0  0  0  0  0  0  0  0
    6.2913  -15.8523   24.2432 C   0  0  0  0  0  0  0  0  0  0  0  0
    6.7317  -14.6246   24.9526 C   0  0  0  0  0  0  0  0  0  0  0  0
    7.0793  -13.4579   24.3051 C   0  0  0  0  0  0  0  0  0  0  0  0
    7.4874  -12.3264   24.9913 C   0  0  0  0  0  0  0  0  0  0  0  0
    7.5578  -12.3368   26.3602 C   0  0  0  0  0  0  0  0  0  0  0  0
    7.2197  -13.4795   27.0382 C   0  0  0  0  0  0  0  0  0  0  0  0
    6.8135  -14.6046   26.3462 C   0  0  0  0  0  0  0  0  0  0  0  0
    8.6092  -16.6748   23.9168 C   0  0  0  0  0  0  0  0  0  0  0  0
    8.6611  -17.5658   24.8029 O   0  0  0  0  0  0  0  0  0  0  0  0
    9.8279  -16.0286   23.5861 N   0  0  0  0  0  0  0  0  0  0  0  0
   11.1063  -16.4064   24.0788 C   0  0  1  0  0  0  0  0  0  0  0  0
   12.1876  -16.0999   23.1013 C   0  0  0  0  0  0  0  0  0  0  0  0
   12.1157  -16.8950   21.8650 C   0  0  0  0  0  0  0  0  0  0  0  0
   11.5732  -18.0251   21.7575 O   0  0  0  0  0  0  0  0  0  0  0  0
   11.3968  -15.8884   25.4371 C   0  0  0  0  0  0  0  0  0  0  0  0
   12.2228  -14.9608   25.5610 O   0  0  0  0  0  0  0  0  0  0  0  0
   12.6817  -16.4043   20.6738 O   0  0  0  0  0  0  0  0  0  0  0  0
   10.6501  -13.8144   28.0234 C   0  0  0  0  0  0  0  0  0  0  0  0
   10.4386  -15.1760   28.6345 C   0  0  1  0  0  0  0  0  0  0  0  0
    9.0899  -15.4925   28.4848 O   0  0  0  0  0  0  0  0  0  0  0  0
   11.3115  -16.2290   27.9412 C   0  0  2  0  0  0  0  0  0  0  0  0
   10.7854  -16.3904   26.6123 N   0  0  0  0  0  0  0  0  0  0  0  0
   11.2222  -17.4482   28.7574 C   0  0  0  0  0  0  0  0  0  0  0  0
   10.5981  -18.5560   28.2001 O   0  0  0  0  0  0  0  0  0  0  0  0
   11.6686  -17.5544   29.9152 O   0  0  0  0  0  0  0  0  0  0  0  0
  2  1  1  1
  3  2  1  0
  4  3  1  0
  4  5  2  0
  6  5  1  0
  7  6  2  0
  8  9  2  0
  8  7  1  0
  9  4  1  0
 10  2  1  0
 11 10  2  0
 12 10  1  0
 13 17  1  0
 13 12  1  0
 13 14  1  6
 15 14  1  0
 16 15  2  0
 17 18  2  0
 19 15  1  0
 21 20  1  6
 21 22  1  0
 23 21  1  0
 23 24  1  6
 24 17  1  0
 25 26  1  0
 25 23  1  0
 27 25  2  0
M  END
$$$$
