FDT.pdb
     RDKit          3D

 27 27  0  0  1  0  0  0  0  0999 V2000
    6.2449  -17.9522   23.6412 N   0  0  0  0  0  0  0  0  0  0  0  0
    6.9957  -16.8295   24.1161 C   0  0  1  0  0  0  0  0  0  0  0  0
    6.3481  -16.1947   25.3453 C   0  0  0  0  0  0  0  0  0  0  0  0
    6.5979  -14.7314   25.3700 C   0  0  0  0  0  0  0  0  0  0  0  0
    7.3658  -14.0770   24.4301 C   0  0  0  0  0  0  0  0  0  0  0  0
    7.5834  -12.7102   24.4766 C   0  0  0  0  0  0  0  0  0  0  0  0
    7.0296  -11.9566   25.4788 C   0  0  0  0  0  0  0  0  0  0  0  0
    6.2599  -12.5729   26.4314 C   0  0  0  0  0  0  0  0  0  0  0  0
    6.0476  -13.9375   26.3780 C   0  0  0  0  0  0  0  0  0  0  0  0
    8.4179  -17.1513   24.3671 C   0  0  0  0  0  0  0  0  0  0  0  0
    8.7763  -18.1116   25.0956 O   0  0  0  0  0  0  0  0  0  0  0  0
    9.4485  -16.3714   23.7824 N   0  0  0  0  0  0  0  0  0  0  0  0
   10.8396  -16.6184   23.9364 C   0  0  1  0  0  0  0  0  0  0  0  0
   11.6289  -16.0564   22.8052 C   0  0  0  0  0  0  0  0  0  0  0  0
   13.0526  -16.4284   22.8297 C   0  0  0  0  0  0  0  0  0  0  0  0
   13.4964  -17.6003   22.9420 O   0  0  0  0  0  0  0  0  0  0  0  0
   11.3712  -16.2191   25.2614 C   0  0  0  0  0  0  0  0  0  0  0  0
   12.5991  -16.0304   25.3827 O   0  0  0  0  0  0  0  0  0  0  0  0
   14.0453  -15.4368   22.7228 O   0  0  0  0  0  0  0  0  0  0  0  0
   10.3989  -13.4178   27.6920 C   0  0  0  0  0  0  0  0  0  0  0  0
   10.1848  -14.7443   28.3751 C   0  0  1  0  0  0  0  0  0  0  0  0
    8.8360  -15.0670   28.2404 O   0  0  0  0  0  0  0  0  0  0  0  0
   11.0576  -15.8341   27.7408 C   0  0  2  0  0  0  0  0  0  0  0  0
   10.5583  -16.0378   26.4074 N   0  0  0  0  0  0  0  0  0  0  0  0
   10.9332  -17.0207   28.5993 C   0  0  0  0  0  0  0  0  0  0  0  0
   11.5147  -16.9722   29.8590 O   0  0  0  0  0  0  0  0  0  0  0  0
   10.3413  -18.0667   28.2728 O   0  0  0  0  0  0  0  0  0  0  0  0
  2  1  1  1
  3  2  1  0
  4  3  1  0
  4  5  2  0
  6  5  1  0
  7  6  2  0
  8  9  2  0
  8  7  1  0
  9  4  1  0
 10  2  1  0
 11 10  2  0
 12 10  1  0
 13 17  1  0
 13 12  1  0
 13 14  1  6
 15 14  1  0
 16 15  2  0
 17 18  2  0
 19 15  1  0
 21 20  1  6
 21 22  1  0
 23 21  1  0
 23 24  1  6
 24 17  1  0
 25 26  1  0
 25 23  1  0
 27 25  2  0
M  END
$$$$
