FDT.pdb
     RDKit          3D

 27 27  0  0  1  0  0  0  0  0999 V2000
    5.8495  -16.8943   24.5146 N   0  0  0  0  0  0  0  0  0  0  0  0
    7.0241  -16.1078   24.7412 C   0  0  1  0  0  0  0  0  0  0  0  0
    7.0022  -15.4409   26.1153 C   0  0  0  0  0  0  0  0  0  0  0  0
    6.6026  -14.0157   25.9977 C   0  0  0  0  0  0  0  0  0  0  0  0
    5.4572  -13.4998   26.5660 C   0  0  0  0  0  0  0  0  0  0  0  0
    5.1074  -12.1658   26.4408 C   0  0  0  0  0  0  0  0  0  0  0  0
    5.9072  -11.3057   25.7340 C   0  0  0  0  0  0  0  0  0  0  0  0
    7.0545  -11.7831   25.1547 C   0  0  0  0  0  0  0  0  0  0  0  0
    7.3966  -13.1158   25.2843 C   0  0  0  0  0  0  0  0  0  0  0  0
    8.2762  -16.8688   24.5361 C   0  0  0  0  0  0  0  0  0  0  0  0
    8.4057  -18.0679   24.8922 O   0  0  0  0  0  0  0  0  0  0  0  0
    9.3981  -16.2596   23.9176 N   0  0  0  0  0  0  0  0  0  0  0  0
   10.7222  -16.7750   23.9510 C   0  0  1  0  0  0  0  0  0  0  0  0
   11.5085  -16.3551   22.7577 C   0  0  0  0  0  0  0  0  0  0  0  0
   12.8226  -17.0089   22.6502 C   0  0  0  0  0  0  0  0  0  0  0  0
   13.0813  -18.1859   23.0120 O   0  0  0  0  0  0  0  0  0  0  0  0
   11.4305  -16.5120   25.2265 C   0  0  0  0  0  0  0  0  0  0  0  0
   12.4422  -15.7811   25.2109 O   0  0  0  0  0  0  0  0  0  0  0  0
   13.9177  -16.3120   22.1070 O   0  0  0  0  0  0  0  0  0  0  0  0
   10.8489  -14.4140   27.6949 C   0  0  0  0  0  0  0  0  0  0  0  0
   10.8194  -15.7217   28.4438 C   0  0  1  0  0  0  0  0  0  0  0  0
    9.4894  -16.1320   28.5094 O   0  0  0  0  0  0  0  0  0  0  0  0
   11.6675  -16.7811   27.7296 C   0  0  2  0  0  0  0  0  0  0  0  0
   11.0212  -17.0475   26.4726 N   0  0  0  0  0  0  0  0  0  0  0  0
   11.7151  -17.9485   28.6215 C   0  0  0  0  0  0  0  0  0  0  0  0
   12.4785  -17.8497   29.7768 O   0  0  0  0  0  0  0  0  0  0  0  0
   11.1168  -19.0202   28.4106 O   0  0  0  0  0  0  0  0  0  0  0  0
  2  1  1  1
  3  2  1  0
  4  3  1  0
  4  5  2  0
  6  5  1  0
  7  6  2  0
  8  9  2  0
  8  7  1  0
  9  4  1  0
 10  2  1  0
 11 10  2  0
 12 10  1  0
 13 17  1  0
 13 12  1  0
 13 14  1  6
 15 14  1  0
 16 15  2  0
 17 18  2  0
 19 15  1  0
 21 20  1  6
 21 22  1  0
 23 21  1  0
 23 24  1  6
 24 17  1  0
 25 26  1  0
 25 23  1  0
 27 25  2  0
M  END
$$$$
