FDT.pdb
     RDKit          3D

 27 27  0  0  1  0  0  0  0  0999 V2000
    9.2908  -16.7172   25.3611 N   0  0  0  0  0  0  0  0  0  0  0  0
    9.8575  -15.5307   24.7949 C   0  0  1  0  0  0  0  0  0  0  0  0
   11.0740  -15.0518   25.5850 C   0  0  0  0  0  0  0  0  0  0  0  0
   10.6786  -14.6460   26.9574 C   0  0  0  0  0  0  0  0  0  0  0  0
    9.5961  -13.8352   27.2263 C   0  0  0  0  0  0  0  0  0  0  0  0
    9.2491  -13.4713   28.5166 C   0  0  0  0  0  0  0  0  0  0  0  0
    9.9878  -13.9165   29.5820 C   0  0  0  0  0  0  0  0  0  0  0  0
   11.0714  -14.7247   29.3530 C   0  0  0  0  0  0  0  0  0  0  0  0
   11.4113  -15.0835   28.0624 C   0  0  0  0  0  0  0  0  0  0  0  0
   10.1760  -15.6730   23.3571 C   0  0  0  0  0  0  0  0  0  0  0  0
   10.6679  -14.7366   22.6768 O   0  0  0  0  0  0  0  0  0  0  0  0
    9.9326  -16.8963   22.6815 N   0  0  0  0  0  0  0  0  0  0  0  0
   10.1125  -17.1026   21.2868 C   0  0  1  0  0  0  0  0  0  0  0  0
   10.3826  -18.5329   20.9705 C   0  0  0  0  0  0  0  0  0  0  0  0
   10.7866  -18.7681   19.5751 C   0  0  0  0  0  0  0  0  0  0  0  0
   10.0654  -18.5636   18.5646 O   0  0  0  0  0  0  0  0  0  0  0  0
    9.0289  -16.5258   20.4558 C   0  0  0  0  0  0  0  0  0  0  0  0
    7.8963  -17.0487   20.5002 O   0  0  0  0  0  0  0  0  0  0  0  0
   12.0719  -19.2614   19.2837 O   0  0  0  0  0  0  0  0  0  0  0  0
    7.6806  -13.1947   20.5867 C   0  0  0  0  0  0  0  0  0  0  0  0
    8.0750  -13.3596   19.1413 C   0  0  1  0  0  0  0  0  0  0  0  0
    9.3063  -12.7294   18.9732 O   0  0  0  0  0  0  0  0  0  0  0  0
    8.1822  -14.8432   18.7687 C   0  0  2  0  0  0  0  0  0  0  0  0
    9.2069  -15.4056   19.6069 N   0  0  0  0  0  0  0  0  0  0  0  0
    8.5073  -14.8913   17.3360 C   0  0  0  0  0  0  0  0  0  0  0  0
    7.5082  -14.5519   16.4338 O   0  0  0  0  0  0  0  0  0  0  0  0
    9.6185  -15.2160   16.8770 O   0  0  0  0  0  0  0  0  0  0  0  0
  2  1  1  1
  3  2  1  0
  4  3  1  0
  4  5  2  0
  6  5  1  0
  7  6  2  0
  8  9  2  0
  8  7  1  0
  9  4  1  0
 10  2  1  0
 11 10  2  0
 12 10  1  0
 13 17  1  0
 13 12  1  0
 13 14  1  1
 15 14  1  0
 16 15  2  0
 17 18  2  0
 19 15  1  0
 21 20  1  1
 21 22  1  0
 23 21  1  0
 23 24  1  1
 24 17  1  0
 25 26  1  0
 25 23  1  0
 27 25  2  0
M  END
$$$$
