FDT.pdb
     RDKit          3D

 27 27  0  0  1  0  0  0  0  0999 V2000
    5.8125  -16.8692   24.7985 N   0  0  0  0  0  0  0  0  0  0  0  0
    6.9800  -16.0422   24.8493 C   0  0  1  0  0  0  0  0  0  0  0  0
    7.0695  -15.2695   26.1639 C   0  0  0  0  0  0  0  0  0  0  0  0
    6.5469  -13.8901   25.9954 C   0  0  0  0  0  0  0  0  0  0  0  0
    5.3031  -13.4909   26.4369 C   0  0  0  0  0  0  0  0  0  0  0  0
    4.8396  -12.1972   26.2665 C   0  0  0  0  0  0  0  0  0  0  0  0
    5.6212  -11.2603   25.6418 C   0  0  0  0  0  0  0  0  0  0  0  0
    6.8642  -11.6209   25.1894 C   0  0  0  0  0  0  0  0  0  0  0  0
    7.3196  -12.9141   25.3632 C   0  0  0  0  0  0  0  0  0  0  0  0
    8.2285  -16.7900   24.5826 C   0  0  0  0  0  0  0  0  0  0  0  0
    8.4251  -17.9549   25.0136 O   0  0  0  0  0  0  0  0  0  0  0  0
    9.2693  -16.2068   23.8152 N   0  0  0  0  0  0  0  0  0  0  0  0
   10.6148  -16.6642   23.7926 C   0  0  1  0  0  0  0  0  0  0  0  0
   11.3545  -16.1460   22.6082 C   0  0  0  0  0  0  0  0  0  0  0  0
   12.6387  -16.8223   22.3654 C   0  0  0  0  0  0  0  0  0  0  0  0
   12.8742  -18.0381   22.5883 O   0  0  0  0  0  0  0  0  0  0  0  0
   11.3404  -16.4397   25.0657 C   0  0  0  0  0  0  0  0  0  0  0  0
   12.4716  -15.9135   25.0263 O   0  0  0  0  0  0  0  0  0  0  0  0
   13.7297  -16.1036   21.8426 O   0  0  0  0  0  0  0  0  0  0  0  0
   10.8170  -14.1799   27.6105 C   0  0  0  0  0  0  0  0  0  0  0  0
   10.7294  -15.4982   28.3361 C   0  0  1  0  0  0  0  0  0  0  0  0
    9.3800  -15.8348   28.4229 O   0  0  0  0  0  0  0  0  0  0  0  0
   11.5018  -16.5893   27.5848 C   0  0  2  0  0  0  0  0  0  0  0  0
   10.8189  -16.7914   26.3351 N   0  0  0  0  0  0  0  0  0  0  0  0
   11.4975  -17.7761   28.4519 C   0  0  0  0  0  0  0  0  0  0  0  0
   12.2847  -17.7455   29.5950 O   0  0  0  0  0  0  0  0  0  0  0  0
   10.8352  -18.8073   28.2302 O   0  0  0  0  0  0  0  0  0  0  0  0
  2  1  1  1
  3  2  1  0
  4  3  1  0
  4  5  2  0
  6  5  1  0
  7  6  2  0
  8  9  2  0
  8  7  1  0
  9  4  1  0
 10  2  1  0
 11 10  2  0
 12 10  1  0
 13 17  1  0
 13 12  1  0
 13 14  1  6
 15 14  1  0
 16 15  2  0
 17 18  2  0
 19 15  1  0
 21 20  1  6
 21 22  1  0
 23 21  1  0
 23 24  1  6
 24 17  1  0
 25 26  1  0
 25 23  1  0
 27 25  2  0
M  END
$$$$
