TQG.pdb
     RDKit          3D

 21 20  0  0  1  0  0  0  0  0999 V2000
   26.4326  -19.7997  -17.3569 C   0  0  0  0  0  0  0  0  0  0  0  0
   27.0575  -21.1697  -17.5011 C   0  0  1  0  0  0  0  0  0  0  0  0
   28.0837  -21.0518  -18.4478 O   0  0  0  0  0  0  0  0  0  0  0  0
   27.6612  -21.5380  -16.1698 C   0  0  2  0  0  0  0  0  0  0  0  0
   28.3403  -22.7929  -16.2847 N   0  0  0  0  0  0  0  0  0  0  0  0
   26.6500  -21.5815  -15.0902 C   0  0  0  0  0  0  0  0  0  0  0  0
   25.8731  -22.5558  -14.9215 O   0  0  0  0  0  0  0  0  0  0  0  0
   24.3493  -20.5029  -10.0845 N   0  0  0  0  0  0  0  0  0  0  0  0
   25.6663  -20.9465   -9.9012 C   0  0  0  0  0  0  0  0  0  0  0  0
   25.9759  -21.6590   -8.9357 O   0  0  0  0  0  0  0  0  0  0  0  0
   26.7104  -20.5557  -10.8818 C   0  0  0  0  0  0  0  0  0  0  0  0
   26.1576  -19.6519  -11.9501 C   0  0  0  0  0  0  0  0  0  0  0  0
   25.6258  -20.4359  -13.0796 C   0  0  2  0  0  0  0  0  0  0  0  0
   26.5414  -20.4984  -14.2104 N   0  0  0  0  0  0  0  0  0  0  0  0
   24.3109  -20.0481  -13.6042 C   0  0  0  0  0  0  0  0  0  0  0  0
   24.1970  -19.1430  -14.4418 O   0  0  0  0  0  0  0  0  0  0  0  0
   23.0969  -20.6958  -13.1746 N   0  0  0  0  0  0  0  0  0  0  0  0
   21.8311  -20.2530  -13.7135 C   0  0  0  0  0  0  0  0  0  0  0  0
   21.3519  -21.1017  -14.8040 C   0  0  0  0  0  0  0  0  0  0  0  0
   22.1648  -21.5508  -15.6479 O   0  0  0  0  0  0  0  0  0  0  0  0
   20.0186  -21.4360  -14.9472 O   0  0  0  0  0  0  0  0  0  0  0  0
  2  4  1  0
  2  1  1  1
  3  2  1  0
  4  5  1  6
  6  4  1  0
  7  6  2  0
  8  9  1  0
  9 10  2  0
 11  9  1  0
 11 12  1  0
 13 12  1  1
 13 15  1  0
 13 14  1  0
 14  6  1  0
 15 17  1  0
 16 15  2  0
 17 18  1  0
 18 19  1  0
 19 20  2  0
 19 21  1  0
M  END
$$$$
