TQG.pdb
     RDKit          3D

 21 20  0  0  1  0  0  0  0  0999 V2000
   27.3129  -11.6760  -15.4320 C   0  0  0  0  0  0  0  0  0  0  0  0
   26.3405  -10.5313  -15.6115 C   0  0  1  0  0  0  0  0  0  0  0  0
   26.9991   -9.5517  -16.3663 O   0  0  0  0  0  0  0  0  0  0  0  0
   25.1666  -11.0500  -16.4025 C   0  0  2  0  0  0  0  0  0  0  0  0
   25.6279  -11.5771  -17.6507 N   0  0  0  0  0  0  0  0  0  0  0  0
   24.1342  -10.0115  -16.6168 C   0  0  0  0  0  0  0  0  0  0  0  0
   23.9922   -9.4054  -17.7094 O   0  0  0  0  0  0  0  0  0  0  0  0
   18.6470  -10.7556  -14.6657 N   0  0  0  0  0  0  0  0  0  0  0  0
   19.3625  -11.2142  -15.7805 C   0  0  0  0  0  0  0  0  0  0  0  0
   19.0255  -12.2447  -16.3808 O   0  0  0  0  0  0  0  0  0  0  0  0
   20.5461  -10.4517  -16.2514 C   0  0  0  0  0  0  0  0  0  0  0  0
   20.8669   -9.3030  -15.3341 C   0  0  0  0  0  0  0  0  0  0  0  0
   22.1797   -8.7182  -15.6622 C   0  0  2  0  0  0  0  0  0  0  0  0
   23.2705   -9.6783  -15.5669 N   0  0  0  0  0  0  0  0  0  0  0  0
   22.5857   -7.5215  -14.9154 C   0  0  0  0  0  0  0  0  0  0  0  0
   23.5823   -7.5328  -14.1802 O   0  0  0  0  0  0  0  0  0  0  0  0
   21.8512   -6.2840  -14.9995 N   0  0  0  0  0  0  0  0  0  0  0  0
   22.2742   -5.1558  -14.2014 C   0  0  0  0  0  0  0  0  0  0  0  0
   21.3481   -4.0266  -14.2813 C   0  0  0  0  0  0  0  0  0  0  0  0
   21.5377   -3.0131  -13.5662 O   0  0  0  0  0  0  0  0  0  0  0  0
   20.2539   -4.0284  -15.1256 O   0  0  0  0  0  0  0  0  0  0  0  0
  2  4  1  0
  2  1  1  6
  3  2  1  0
  4  5  1  6
  6  4  1  0
  7  6  2  0
  8  9  1  0
  9 10  2  0
 11  9  1  0
 11 12  1  0
 13 12  1  1
 13 15  1  0
 13 14  1  0
 14  6  1  0
 15 17  1  0
 16 15  2  0
 17 18  1  0
 18 19  1  0
 19 20  2  0
 19 21  1  0
M  END
$$$$
