TQG.pdb
     RDKit          3D

 21 20  0  0  1  0  0  0  0  0999 V2000
   26.6443  -10.3141  -14.9799 C   0  0  0  0  0  0  0  0  0  0  0  0
   27.0174  -10.4478  -16.4397 C   0  0  1  0  0  0  0  0  0  0  0  0
   28.1810  -11.2265  -16.4932 O   0  0  0  0  0  0  0  0  0  0  0  0
   25.9011  -11.1899  -17.1296 C   0  0  2  0  0  0  0  0  0  0  0  0
   26.3330  -11.5980  -18.4319 N   0  0  0  0  0  0  0  0  0  0  0  0
   24.6620  -10.3849  -17.2122 C   0  0  0  0  0  0  0  0  0  0  0  0
   24.4441   -9.5602  -18.1361 O   0  0  0  0  0  0  0  0  0  0  0  0
   19.0414  -12.3417  -15.6072 N   0  0  0  0  0  0  0  0  0  0  0  0
   18.7967  -10.9925  -15.8986 C   0  0  0  0  0  0  0  0  0  0  0  0
   17.6414  -10.5494  -15.9682 O   0  0  0  0  0  0  0  0  0  0  0  0
   19.9424  -10.0767  -16.1281 C   0  0  0  0  0  0  0  0  0  0  0  0
   21.2585  -10.7997  -16.0317 C   0  0  0  0  0  0  0  0  0  0  0  0
   22.3853   -9.8710  -16.2344 C   0  0  2  0  0  0  0  0  0  0  0  0
   23.6804  -10.5369  -16.2261 N   0  0  0  0  0  0  0  0  0  0  0  0
   22.4796   -8.7231  -15.3244 C   0  0  0  0  0  0  0  0  0  0  0  0
   23.1404   -8.7871  -14.2789 O   0  0  0  0  0  0  0  0  0  0  0  0
   21.8135   -7.4747  -15.5997 N   0  0  0  0  0  0  0  0  0  0  0  0
   21.9242   -6.3905  -14.6504 C   0  0  0  0  0  0  0  0  0  0  0  0
   22.8293   -5.3337  -15.1008 C   0  0  0  0  0  0  0  0  0  0  0  0
   23.0656   -4.3544  -14.3526 O   0  0  0  0  0  0  0  0  0  0  0  0
   23.4462   -5.3681  -16.3371 O   0  0  0  0  0  0  0  0  0  0  0  0
  2  4  1  0
  2  1  1  1
  3  2  1  0
  4  5  1  6
  6  4  1  0
  7  6  2  0
  8  9  1  0
  9 10  2  0
 11  9  1  0
 11 12  1  0
 13 12  1  1
 13 15  1  0
 13 14  1  0
 14  6  1  0
 15 17  1  0
 16 15  2  0
 17 18  1  0
 18 19  1  0
 19 20  2  0
 19 21  1  0
M  END
$$$$
