TQG.pdb
     RDKit          3D

 21 20  0  0  1  0  0  0  0  0999 V2000
   19.9819  -21.3069  -12.7147 C   0  0  0  0  0  0  0  0  0  0  0  0
   21.0779  -20.3377  -13.0989 C   0  0  1  0  0  0  0  0  0  0  0  0
   22.2889  -21.0371  -13.0127 O   0  0  0  0  0  0  0  0  0  0  0  0
   20.8480  -19.9345  -14.5332 C   0  0  2  0  0  0  0  0  0  0  0  0
   21.0979  -21.0540  -15.3895 N   0  0  0  0  0  0  0  0  0  0  0  0
   21.6761  -18.7730  -14.9271 C   0  0  0  0  0  0  0  0  0  0  0  0
   21.6732  -17.6865  -14.2939 O   0  0  0  0  0  0  0  0  0  0  0  0
   27.1380  -19.1871  -17.6859 N   0  0  0  0  0  0  0  0  0  0  0  0
   26.9975  -18.6720  -16.3897 C   0  0  0  0  0  0  0  0  0  0  0  0
   27.9594  -18.6235  -15.6098 O   0  0  0  0  0  0  0  0  0  0  0  0
   25.6720  -18.1751  -15.9423 C   0  0  0  0  0  0  0  0  0  0  0  0
   24.6497  -18.2530  -17.0435 C   0  0  0  0  0  0  0  0  0  0  0  0
   23.3312  -17.7928  -16.5713 C   0  0  2  0  0  0  0  0  0  0  0  0
   22.5041  -18.8726  -16.0512 N   0  0  0  0  0  0  0  0  0  0  0  0
   22.5086  -17.0311  -17.5188 C   0  0  0  0  0  0  0  0  0  0  0  0
   21.6639  -17.5928  -18.2293 O   0  0  0  0  0  0  0  0  0  0  0  0
   22.6415  -15.6035  -17.6684 N   0  0  0  0  0  0  0  0  0  0  0  0
   21.8636  -14.9237  -18.6791 C   0  0  0  0  0  0  0  0  0  0  0  0
   20.5124  -14.5937  -18.2269 C   0  0  0  0  0  0  0  0  0  0  0  0
   19.8090  -15.4718  -17.6714 O   0  0  0  0  0  0  0  0  0  0  0  0
   19.9678  -13.3337  -18.3882 O   0  0  0  0  0  0  0  0  0  0  0  0
  2  4  1  0
  2  1  1  6
  3  2  1  0
  4  5  1  6
  6  4  1  0
  7  6  2  0
  8  9  1  0
  9 10  2  0
 11  9  1  0
 11 12  1  0
 13 12  1  6
 13 15  1  0
 13 14  1  0
 14  6  1  0
 15 17  1  0
 16 15  2  0
 17 18  1  0
 18 19  1  0
 19 20  2  0
 19 21  1  0
M  END
$$$$
