TQG.pdb
     RDKit          3D

 21 20  0  0  1  0  0  0  0  0999 V2000
   22.4563   -7.1162  -19.7875 C   0  0  0  0  0  0  0  0  0  0  0  0
   21.4670   -8.2253  -20.0692 C   0  0  1  0  0  0  0  0  0  0  0  0
   22.0811   -9.0983  -20.9769 O   0  0  0  0  0  0  0  0  0  0  0  0
   21.2235   -8.9588  -18.7748 C   0  0  2  0  0  0  0  0  0  0  0  0
   20.5330  -10.1836  -19.0431 N   0  0  0  0  0  0  0  0  0  0  0  0
   20.4778   -8.1352  -17.7972 C   0  0  0  0  0  0  0  0  0  0  0  0
   19.2864   -7.7750  -17.9761 O   0  0  0  0  0  0  0  0  0  0  0  0
   18.0852   -8.7747  -11.9708 N   0  0  0  0  0  0  0  0  0  0  0  0
   19.0348   -9.2146  -12.9034 C   0  0  0  0  0  0  0  0  0  0  0  0
   19.7770  -10.1767  -12.6597 O   0  0  0  0  0  0  0  0  0  0  0  0
   19.1541   -8.5155  -14.2076 C   0  0  0  0  0  0  0  0  0  0  0  0
   20.4053   -7.6829  -14.2783 C   0  0  0  0  0  0  0  0  0  0  0  0
   20.4821   -6.9557  -15.5583 C   0  0  2  0  0  0  0  0  0  0  0  0
   21.1129   -7.7316  -16.6170 N   0  0  0  0  0  0  0  0  0  0  0  0
   21.1257   -5.6365  -15.5421 C   0  0  0  0  0  0  0  0  0  0  0  0
   22.3462   -5.5172  -15.7150 O   0  0  0  0  0  0  0  0  0  0  0  0
   20.3759   -4.4245  -15.3258 N   0  0  0  0  0  0  0  0  0  0  0  0
   21.0799   -3.1659  -15.2298 C   0  0  0  0  0  0  0  0  0  0  0  0
   20.1840   -2.0109  -15.2771 C   0  0  0  0  0  0  0  0  0  0  0  0
   20.6495   -0.8545  -15.1331 O   0  0  0  0  0  0  0  0  0  0  0  0
   18.8227   -2.1410  -15.4772 O   0  0  0  0  0  0  0  0  0  0  0  0
  2  4  1  0
  2  1  1  1
  3  2  1  0
  4  5  1  6
  6  4  1  0
  7  6  2  0
  8  9  1  0
  9 10  2  0
 11  9  1  0
 11 12  1  0
 13 12  1  1
 13 15  1  0
 13 14  1  0
 14  6  1  0
 15 17  1  0
 16 15  2  0
 17 18  1  0
 18 19  1  0
 19 20  2  0
 19 21  1  0
M  END
$$$$
