TQG.pdb
     RDKit          3D

 21 20  0  0  1  0  0  0  0  0999 V2000
   15.0940   -5.4349   -8.7459 C   0  0  0  0  0  0  0  0  0  0  0  0
   16.3298   -5.9595   -9.4429 C   0  0  1  0  0  0  0  0  0  0  0  0
   17.3258   -6.0867   -8.4656 O   0  0  0  0  0  0  0  0  0  0  0  0
   16.0013   -7.3269   -9.9860 C   0  0  2  0  0  0  0  0  0  0  0  0
   15.7181   -8.2160   -8.9006 N   0  0  0  0  0  0  0  0  0  0  0  0
   17.0838   -7.8641  -10.8403 C   0  0  0  0  0  0  0  0  0  0  0  0
   17.8186   -8.8222  -10.4891 O   0  0  0  0  0  0  0  0  0  0  0  0
   17.2276  -11.6306  -13.2897 N   0  0  0  0  0  0  0  0  0  0  0  0
   17.6818  -10.5922  -14.1145 C   0  0  0  0  0  0  0  0  0  0  0  0
   18.7231  -10.7062  -14.7767 O   0  0  0  0  0  0  0  0  0  0  0  0
   16.9014   -9.3319  -14.1968 C   0  0  0  0  0  0  0  0  0  0  0  0
   17.7983   -8.1323  -14.3392 C   0  0  0  0  0  0  0  0  0  0  0  0
   18.3418   -7.7231  -13.0314 C   0  0  2  0  0  0  0  0  0  0  0  0
   17.3119   -7.2912  -12.0968 N   0  0  0  0  0  0  0  0  0  0  0  0
   19.3884   -6.6939  -13.0331 C   0  0  0  0  0  0  0  0  0  0  0  0
   19.1099   -5.4970  -12.8789 O   0  0  0  0  0  0  0  0  0  0  0  0
   20.7806   -7.0219  -13.2127 N   0  0  0  0  0  0  0  0  0  0  0  0
   21.7728   -5.9773  -13.0986 C   0  0  0  0  0  0  0  0  0  0  0  0
   21.7178   -5.0208  -14.2037 C   0  0  0  0  0  0  0  0  0  0  0  0
   22.5228   -4.0588  -14.2362 O   0  0  0  0  0  0  0  0  0  0  0  0
   20.8010   -5.1335  -15.2318 O   0  0  0  0  0  0  0  0  0  0  0  0
  2  4  1  0
  2  1  1  1
  3  2  1  0
  4  5  1  1
  6  4  1  0
  7  6  2  0
  8  9  1  0
  9 10  2  0
 11  9  1  0
 11 12  1  0
 13 12  1  6
 13 15  1  0
 13 14  1  0
 14  6  1  0
 15 17  1  0
 16 15  2  0
 17 18  1  0
 18 19  1  0
 19 20  2  0
 19 21  1  0
M  END
$$$$
