TQG.pdb
     RDKit          3D

 21 20  0  0  1  0  0  0  0  0999 V2000
   16.9946   -6.0796  -15.3298 C   0  0  0  0  0  0  0  0  0  0  0  0
   16.2093   -7.2565  -14.7945 C   0  0  1  0  0  0  0  0  0  0  0  0
   14.9462   -7.2126  -15.3994 O   0  0  0  0  0  0  0  0  0  0  0  0
   16.9168   -8.5137  -15.2320 C   0  0  2  0  0  0  0  0  0  0  0  0
   16.0832   -9.6469  -14.9676 N   0  0  0  0  0  0  0  0  0  0  0  0
   18.2378   -8.6667  -14.5826 C   0  0  0  0  0  0  0  0  0  0  0  0
   18.3882   -9.2192  -13.4630 O   0  0  0  0  0  0  0  0  0  0  0  0
   23.0723  -11.2753  -16.6455 N   0  0  0  0  0  0  0  0  0  0  0  0
   23.6284  -10.6337  -15.5301 C   0  0  0  0  0  0  0  0  0  0  0  0
   24.7376  -10.9628  -15.0861 O   0  0  0  0  0  0  0  0  0  0  0  0
   22.8749   -9.5393  -14.8677 C   0  0  0  0  0  0  0  0  0  0  0  0
   21.4848   -9.4048  -15.4276 C   0  0  0  0  0  0  0  0  0  0  0  0
   20.7415   -8.3339  -14.7393 C   0  0  2  0  0  0  0  0  0  0  0  0
   19.3792   -8.1802  -15.2305 N   0  0  0  0  0  0  0  0  0  0  0  0
   21.3518   -6.9990  -14.7220 C   0  0  0  0  0  0  0  0  0  0  0  0
   21.4446   -6.3237  -15.7560 O   0  0  0  0  0  0  0  0  0  0  0  0
   21.8691   -6.4124  -13.5111 N   0  0  0  0  0  0  0  0  0  0  0  0
   22.4291   -5.0807  -13.5545 C   0  0  0  0  0  0  0  0  0  0  0  0
   21.4163   -4.0472  -13.7670 C   0  0  0  0  0  0  0  0  0  0  0  0
   21.3254   -3.4839  -14.8846 O   0  0  0  0  0  0  0  0  0  0  0  0
   20.5398   -3.6577  -12.7720 O   0  0  0  0  0  0  0  0  0  0  0  0
  2  4  1  0
  2  1  1  6
  3  2  1  0
  4  5  1  1
  6  4  1  0
  7  6  2  0
  8  9  1  0
  9 10  2  0
 11  9  1  0
 11 12  1  0
 13 12  1  6
 13 15  1  0
 13 14  1  0
 14  6  1  0
 15 17  1  0
 16 15  2  0
 17 18  1  0
 18 19  1  0
 19 20  2  0
 19 21  1  0
M  END
$$$$
