TQG.pdb
     RDKit          3D

 21 20  0  0  1  0  0  0  0  0999 V2000
   14.9390   -9.2571  -14.3636 C   0  0  0  0  0  0  0  0  0  0  0  0
   15.3103   -9.4616  -15.8157 C   0  0  1  0  0  0  0  0  0  0  0  0
   15.7584   -8.2254  -16.2997 O   0  0  0  0  0  0  0  0  0  0  0  0
   16.4510  -10.4461  -15.8605 C   0  0  2  0  0  0  0  0  0  0  0  0
   16.0221  -11.6984  -15.3158 N   0  0  0  0  0  0  0  0  0  0  0  0
   17.6501   -9.9450  -15.1525 C   0  0  0  0  0  0  0  0  0  0  0  0
   17.7498   -9.9390  -13.8989 O   0  0  0  0  0  0  0  0  0  0  0  0
   23.1931  -11.6766  -16.4631 N   0  0  0  0  0  0  0  0  0  0  0  0
   23.4538  -10.7314  -15.4613 C   0  0  0  0  0  0  0  0  0  0  0  0
   24.5611  -10.6703  -14.9081 O   0  0  0  0  0  0  0  0  0  0  0  0
   22.3840   -9.7857  -15.0550 C   0  0  0  0  0  0  0  0  0  0  0  0
   21.0859  -10.0821  -15.7557 C   0  0  0  0  0  0  0  0  0  0  0  0
   20.0377   -9.1294  -15.3471 C   0  0  2  0  0  0  0  0  0  0  0  0
   18.7286   -9.4532  -15.8968 N   0  0  0  0  0  0  0  0  0  0  0  0
   20.2834   -7.7073  -15.6149 C   0  0  0  0  0  0  0  0  0  0  0  0
   19.9339   -7.1869  -16.6830 O   0  0  0  0  0  0  0  0  0  0  0  0
   20.9381   -6.8525  -14.6564 N   0  0  0  0  0  0  0  0  0  0  0  0
   21.1597   -5.4626  -14.9848 C   0  0  0  0  0  0  0  0  0  0  0  0
   21.7889   -4.7166  -13.8955 C   0  0  0  0  0  0  0  0  0  0  0  0
   22.0153   -5.2851  -12.8000 O   0  0  0  0  0  0  0  0  0  0  0  0
   22.1511   -3.3890  -14.0236 O   0  0  0  0  0  0  0  0  0  0  0  0
  2  4  1  0
  2  1  1  1
  3  2  1  0
  4  5  1  1
  6  4  1  0
  7  6  2  0
  8  9  1  0
  9 10  2  0
 11  9  1  0
 11 12  1  0
 13 12  1  6
 13 15  1  0
 13 14  1  0
 14  6  1  0
 15 17  1  0
 16 15  2  0
 17 18  1  0
 18 19  1  0
 19 20  2  0
 19 21  1  0
M  END
$$$$
