TQG.pdb
     RDKit          3D

 21 20  0  0  1  0  0  0  0  0999 V2000
   23.2718  -11.5092  -14.4940 C   0  0  0  0  0  0  0  0  0  0  0  0
   23.2619  -12.0584  -15.9034 C   0  0  1  0  0  0  0  0  0  0  0  0
   23.5763  -13.4207  -15.8121 O   0  0  0  0  0  0  0  0  0  0  0  0
   21.8599  -11.9157  -16.4386 C   0  0  2  0  0  0  0  0  0  0  0  0
   21.7469  -12.6262  -17.6761 N   0  0  0  0  0  0  0  0  0  0  0  0
   21.4666  -10.4987  -16.6053 C   0  0  0  0  0  0  0  0  0  0  0  0
   21.8926   -9.7779  -17.5435 O   0  0  0  0  0  0  0  0  0  0  0  0
   15.8663   -8.2824  -16.1560 N   0  0  0  0  0  0  0  0  0  0  0  0
   16.5944   -7.0846  -16.1488 C   0  0  0  0  0  0  0  0  0  0  0  0
   16.0276   -5.9874  -16.2538 O   0  0  0  0  0  0  0  0  0  0  0  0
   18.0721   -7.1302  -16.0130 C   0  0  0  0  0  0  0  0  0  0  0  0
   18.5789   -8.5450  -15.9393 C   0  0  0  0  0  0  0  0  0  0  0  0
   20.0450   -8.5716  -15.7872 C   0  0  2  0  0  0  0  0  0  0  0  0
   20.5824   -9.9214  -15.6865 N   0  0  0  0  0  0  0  0  0  0  0  0
   20.6186   -7.7907  -14.6846 C   0  0  0  0  0  0  0  0  0  0  0  0
   20.6363   -8.2329  -13.5279 O   0  0  0  0  0  0  0  0  0  0  0  0
   21.1851   -6.4813  -14.8911 N   0  0  0  0  0  0  0  0  0  0  0  0
   21.7067   -5.7506  -13.7585 C   0  0  0  0  0  0  0  0  0  0  0  0
   22.3645   -4.5026  -14.1440 C   0  0  0  0  0  0  0  0  0  0  0  0
   22.4650   -4.1998  -15.3576 O   0  0  0  0  0  0  0  0  0  0  0  0
   22.8894   -3.6270  -13.2123 O   0  0  0  0  0  0  0  0  0  0  0  0
  2  4  1  0
  2  1  1  1
  3  2  1  0
  4  5  1  6
  6  4  1  0
  7  6  2  0
  8  9  1  0
  9 10  2  0
 11  9  1  0
 11 12  1  0
 13 12  1  1
 13 15  1  0
 13 14  1  0
 14  6  1  0
 15 17  1  0
 16 15  2  0
 17 18  1  0
 18 19  1  0
 19 20  2  0
 19 21  1  0
M  END
$$$$
