TQG.pdb
     RDKit          3D

 21 20  0  0  1  0  0  0  0  0999 V2000
   18.4047  -13.0836  -15.4357 C   0  0  0  0  0  0  0  0  0  0  0  0
   17.8145  -11.8003  -15.9773 C   0  0  1  0  0  0  0  0  0  0  0  0
   16.5002  -11.7223  -15.4981 O   0  0  0  0  0  0  0  0  0  0  0  0
   18.6112  -10.6552  -15.4059 C   0  0  2  0  0  0  0  0  0  0  0  0
   17.8596   -9.4432  -15.5281 N   0  0  0  0  0  0  0  0  0  0  0  0
   19.9376  -10.5213  -16.0486 C   0  0  0  0  0  0  0  0  0  0  0  0
   20.8231  -11.4113  -15.9782 O   0  0  0  0  0  0  0  0  0  0  0  0
   18.7520   -9.5711  -19.7878 N   0  0  0  0  0  0  0  0  0  0  0  0
   19.6285  -10.6602  -19.6848 C   0  0  0  0  0  0  0  0  0  0  0  0
   19.2141  -11.8266  -19.7461 O   0  0  0  0  0  0  0  0  0  0  0  0
   21.0804  -10.4126  -19.4987 C   0  0  0  0  0  0  0  0  0  0  0  0
   21.3412   -9.0459  -18.9260 C   0  0  0  0  0  0  0  0  0  0  0  0
   21.4915   -9.1090  -17.4609 C   0  0  2  0  0  0  0  0  0  0  0  0
   20.2342   -9.3590  -16.7699 N   0  0  0  0  0  0  0  0  0  0  0  0
   22.1302   -7.9629  -16.8028 C   0  0  0  0  0  0  0  0  0  0  0  0
   23.0813   -7.3700  -17.3298 O   0  0  0  0  0  0  0  0  0  0  0  0
   21.6861   -7.4742  -15.5214 N   0  0  0  0  0  0  0  0  0  0  0  0
   22.3712   -6.3548  -14.9162 C   0  0  0  0  0  0  0  0  0  0  0  0
   21.8711   -6.0409  -13.5782 C   0  0  0  0  0  0  0  0  0  0  0  0
   20.9030   -6.6857  -13.1073 O   0  0  0  0  0  0  0  0  0  0  0  0
   22.4290   -5.0470  -12.7965 O   0  0  0  0  0  0  0  0  0  0  0  0
  2  4  1  0
  2  1  1  1
  3  2  1  0
  4  5  1  6
  6  4  1  0
  7  6  2  0
  8  9  1  0
  9 10  2  0
 11  9  1  0
 11 12  1  0
 13 12  1  6
 13 15  1  0
 13 14  1  0
 14  6  1  0
 15 17  1  0
 16 15  2  0
 17 18  1  0
 18 19  1  0
 19 20  2  0
 19 21  1  0
M  END
$$$$
