TQG.pdb
     RDKit          3D

 21 20  0  0  1  0  0  0  0  0999 V2000
   15.6070   -4.9946   -9.3722 C   0  0  0  0  0  0  0  0  0  0  0  0
   15.3011   -6.2399   -8.5698 C   0  0  1  0  0  0  0  0  0  0  0  0
   14.1016   -5.9999   -7.8865 O   0  0  0  0  0  0  0  0  0  0  0  0
   15.0900   -7.3702   -9.5447 C   0  0  2  0  0  0  0  0  0  0  0  0
   14.7458   -8.5604   -8.8280 N   0  0  0  0  0  0  0  0  0  0  0  0
   16.2732   -7.5949  -10.4048 C   0  0  0  0  0  0  0  0  0  0  0  0
   17.2783   -8.2487  -10.0258 O   0  0  0  0  0  0  0  0  0  0  0  0
   18.5616  -10.7003  -13.2009 N   0  0  0  0  0  0  0  0  0  0  0  0
   17.8364  -10.0709  -14.2221 C   0  0  0  0  0  0  0  0  0  0  0  0
   18.2170  -10.1135  -15.4008 O   0  0  0  0  0  0  0  0  0  0  0  0
   16.5890   -9.3393  -13.8861 C   0  0  0  0  0  0  0  0  0  0  0  0
   16.7828   -7.8490  -13.9600 C   0  0  0  0  0  0  0  0  0  0  0  0
   17.3220   -7.3249  -12.6920 C   0  0  2  0  0  0  0  0  0  0  0  0
   16.2891   -7.0628  -11.6993 N   0  0  0  0  0  0  0  0  0  0  0  0
   18.1678   -6.1277  -12.7675 C   0  0  0  0  0  0  0  0  0  0  0  0
   17.6872   -4.9943  -12.6324 O   0  0  0  0  0  0  0  0  0  0  0  0
   19.5880   -6.2104  -13.0005 N   0  0  0  0  0  0  0  0  0  0  0  0
   20.3854   -5.0067  -12.9383 C   0  0  0  0  0  0  0  0  0  0  0  0
   21.7943   -5.2439  -13.2512 C   0  0  0  0  0  0  0  0  0  0  0  0
   22.2217   -6.4196  -13.3494 O   0  0  0  0  0  0  0  0  0  0  0  0
   22.6906   -4.2102  -13.4466 O   0  0  0  0  0  0  0  0  0  0  0  0
  2  4  1  0
  2  1  1  6
  3  2  1  0
  4  5  1  1
  6  4  1  0
  7  6  2  0
  8  9  1  0
  9 10  2  0
 11  9  1  0
 11 12  1  0
 13 12  1  6
 13 15  1  0
 13 14  1  0
 14  6  1  0
 15 17  1  0
 16 15  2  0
 17 18  1  0
 18 19  1  0
 19 20  2  0
 19 21  1  0
M  END
$$$$
