SPR.pdb
     RDKit          3D

 25 25  0  0  1  0  0  0  0  0999 V2000
   27.7708  -18.2929  -15.5851 O   0  0  0  0  0  0  0  0  0  0  0  0
   27.6891  -19.2683  -16.5657 C   0  0  0  0  0  0  0  0  0  0  0  0
   28.5662  -20.4721  -16.2010 C   0  0  2  0  0  0  0  0  0  0  0  0
   28.5418  -21.3591  -17.3264 N   0  0  0  0  0  0  0  0  0  0  0  0
   28.1444  -21.0630  -14.9250 C   0  0  0  0  0  0  0  0  0  0  0  0
   27.1561  -21.8752  -14.9924 O   0  0  0  0  0  0  0  0  0  0  0  0
   28.7051  -20.8315  -13.6605 N   0  0  0  0  0  0  0  0  0  0  0  0
   29.8222  -19.9866  -13.2826 C   0  0  0  0  0  0  0  0  0  0  0  0
   30.3281  -20.4663  -11.9477 C   0  0  0  0  0  0  0  0  0  0  0  0
   29.5411  -21.7299  -11.7069 C   0  0  0  0  0  0  0  0  0  0  0  0
   28.2515  -21.4240  -12.4152 C   0  0  1  0  0  0  0  0  0  0  0  0
   27.3923  -20.4710  -11.6502 C   0  0  0  0  0  0  0  0  0  0  0  0
   27.4012  -19.2389  -11.8686 O   0  0  0  0  0  0  0  0  0  0  0  0
   20.8766  -23.1548  -14.1565 N   0  0  0  0  0  0  0  0  0  0  0  0
   20.4346  -21.7879  -14.1089 C   0  0  0  0  0  0  0  0  0  0  0  0
   19.1923  -21.5386  -14.2067 N   0  0  0  0  0  0  0  0  0  0  0  0
   21.4388  -20.8190  -13.9545 N   0  0  0  0  0  0  0  0  0  0  0  0
   22.8320  -21.2738  -13.7545 C   0  0  0  0  0  0  0  0  0  0  0  0
   23.2366  -20.7599  -12.4135 C   0  0  0  0  0  0  0  0  0  0  0  0
   24.5732  -20.9857  -11.8929 C   0  0  0  0  0  0  0  0  0  0  0  0
   25.0801  -20.5348  -10.5945 C   0  0  2  0  0  0  0  0  0  0  0  0
   26.5338  -20.9587  -10.6425 N   0  0  0  0  0  0  0  0  0  0  0  0
   24.5310  -21.0497   -9.3486 C   0  0  0  0  0  0  0  0  0  0  0  0
   24.8542  -22.1471   -8.8564 O   0  0  0  0  0  0  0  0  0  0  0  0
   23.5785  -20.3387   -8.5901 O   0  0  0  0  0  0  0  0  0  0  0  0
  2  1  1  0
  3  2  1  0
  3  4  1  6
  5  7  1  0
  5  3  1  0
  6  5  2  0
  7  8  1  0
  9  8  1  0
 10 11  1  0
 10  9  1  0
 11  7  1  0
 11 12  1  1
 13 12  2  0
 15 14  1  0
 15 16  2  0
 17 15  1  0
 18 17  1  0
 19 18  1  0
 20 19  1  0
 21 22  1  0
 21 20  1  6
 22 12  1  0
 23 21  1  0
 24 23  2  0
 25 23  1  0
M  END
$$$$
