SPR.pdb
     RDKit          3D

 25 25  0  0  1  0  0  0  0  0999 V2000
   22.8913  -15.1454  -17.2065 O   0  0  0  0  0  0  0  0  0  0  0  0
   22.9878  -16.4453  -16.7369 C   0  0  0  0  0  0  0  0  0  0  0  0
   23.8976  -17.2795  -17.6466 C   0  0  2  0  0  0  0  0  0  0  0  0
   23.0520  -17.8965  -18.6255 N   0  0  0  0  0  0  0  0  0  0  0  0
   24.7257  -18.2015  -16.8596 C   0  0  0  0  0  0  0  0  0  0  0  0
   24.3005  -19.4082  -16.7958 O   0  0  0  0  0  0  0  0  0  0  0  0
   25.9157  -17.8993  -16.1818 N   0  0  0  0  0  0  0  0  0  0  0  0
   26.5915  -16.6260  -16.0184 C   0  0  0  0  0  0  0  0  0  0  0  0
   28.0281  -16.9117  -15.6682 C   0  0  0  0  0  0  0  0  0  0  0  0
   28.1382  -18.4071  -15.8280 C   0  0  0  0  0  0  0  0  0  0  0  0
   26.7482  -18.8537  -15.4722 C   0  0  1  0  0  0  0  0  0  0  0  0
   26.4904  -18.8001  -14.0017 C   0  0  0  0  0  0  0  0  0  0  0  0
   26.1941  -17.7365  -13.4127 O   0  0  0  0  0  0  0  0  0  0  0  0
   19.2276  -21.2930  -12.8962 N   0  0  0  0  0  0  0  0  0  0  0  0
   19.5176  -20.8429  -11.5621 C   0  0  0  0  0  0  0  0  0  0  0  0
   18.5539  -20.6184  -10.7648 N   0  0  0  0  0  0  0  0  0  0  0  0
   20.8762  -20.6855  -11.2451 N   0  0  0  0  0  0  0  0  0  0  0  0
   21.8445  -20.5283  -12.3521 C   0  0  0  0  0  0  0  0  0  0  0  0
   23.1819  -20.3968  -11.7040 C   0  0  0  0  0  0  0  0  0  0  0  0
   24.3922  -20.2657  -12.4955 C   0  0  0  0  0  0  0  0  0  0  0  0
   25.7552  -20.1443  -11.9725 C   0  0  2  0  0  0  0  0  0  0  0  0
   26.5790  -19.9799  -13.2333 N   0  0  0  0  0  0  0  0  0  0  0  0
   26.3685  -21.2179  -11.2043 C   0  0  0  0  0  0  0  0  0  0  0  0
   27.1170  -22.0794  -11.7030 O   0  0  0  0  0  0  0  0  0  0  0  0
   26.1622  -21.3701   -9.8178 O   0  0  0  0  0  0  0  0  0  0  0  0
  2  1  1  0
  3  2  1  0
  3  4  1  6
  5  7  1  0
  5  3  1  0
  6  5  2  0
  7  8  1  0
  9  8  1  0
 10 11  1  0
 10  9  1  0
 11  7  1  0
 11 12  1  1
 13 12  2  0
 15 14  1  0
 15 16  2  0
 17 15  1  0
 18 17  1  0
 19 18  1  0
 20 19  1  0
 21 22  1  0
 21 20  1  6
 22 12  1  0
 23 21  1  0
 24 23  2  0
 25 23  1  0
M  END
$$$$
