SPR.pdb
     RDKit          3D

 25 25  0  0  1  0  0  0  0  0999 V2000
   25.3049  -20.0350  -16.4192 O   0  0  0  0  0  0  0  0  0  0  0  0
   26.5833  -19.8670  -15.9123 C   0  0  0  0  0  0  0  0  0  0  0  0
   27.1273  -21.1959  -15.3742 C   0  0  2  0  0  0  0  0  0  0  0  0
   27.4239  -22.0141  -16.5129 N   0  0  0  0  0  0  0  0  0  0  0  0
   26.2026  -21.7865  -14.3989 C   0  0  0  0  0  0  0  0  0  0  0  0
   25.6520  -22.8867  -14.7558 O   0  0  0  0  0  0  0  0  0  0  0  0
   25.8668  -21.2760  -13.1365 N   0  0  0  0  0  0  0  0  0  0  0  0
   26.2470  -20.0227  -12.5126 C   0  0  0  0  0  0  0  0  0  0  0  0
   26.0610  -20.1762  -11.0261 C   0  0  0  0  0  0  0  0  0  0  0  0
   25.7319  -21.6386  -10.8622 C   0  0  0  0  0  0  0  0  0  0  0  0
   25.0266  -21.9379  -12.1550 C   0  0  1  0  0  0  0  0  0  0  0  0
   23.6359  -21.3934  -12.1858 C   0  0  0  0  0  0  0  0  0  0  0  0
   23.3690  -20.2662  -12.6593 O   0  0  0  0  0  0  0  0  0  0  0  0
   16.5266  -25.8831   -9.3771 N   0  0  0  0  0  0  0  0  0  0  0  0
   15.9486  -24.6627   -9.8699 C   0  0  0  0  0  0  0  0  0  0  0  0
   14.6832  -24.5517   -9.9070 N   0  0  0  0  0  0  0  0  0  0  0  0
   16.8545  -23.6713  -10.2791 N   0  0  0  0  0  0  0  0  0  0  0  0
   18.2688  -24.0514  -10.4866 C   0  0  0  0  0  0  0  0  0  0  0  0
   18.9428  -22.8294  -11.0142 C   0  0  0  0  0  0  0  0  0  0  0  0
   20.3779  -22.7965  -11.2331 C   0  0  0  0  0  0  0  0  0  0  0  0
   21.1461  -21.6584  -11.7437 C   0  0  2  0  0  0  0  0  0  0  0  0
   22.5728  -22.1626  -11.6678 N   0  0  0  0  0  0  0  0  0  0  0  0
   21.1186  -20.3663  -11.0739 C   0  0  0  0  0  0  0  0  0  0  0  0
   20.3173  -19.4582  -11.3642 O   0  0  0  0  0  0  0  0  0  0  0  0
   22.0072  -20.0356  -10.0303 O   0  0  0  0  0  0  0  0  0  0  0  0
  2  1  1  0
  3  2  1  0
  3  4  1  6
  5  7  1  0
  5  3  1  0
  6  5  2  0
  7  8  1  0
  9  8  1  0
 10 11  1  0
 10  9  1  0
 11  7  1  0
 11 12  1  1
 13 12  2  0
 15 14  1  0
 15 16  2  0
 17 15  1  0
 18 17  1  0
 19 18  1  0
 20 19  1  0
 21 22  1  0
 21 20  1  1
 22 12  1  0
 23 21  1  0
 24 23  2  0
 25 23  1  0
M  END
$$$$
