SPR.pdb
     RDKit          3D

 25 25  0  0  1  0  0  0  0  0999 V2000
   27.2610  -17.6454  -15.7964 O   0  0  0  0  0  0  0  0  0  0  0  0
   28.5291  -17.8888  -16.2986 C   0  0  0  0  0  0  0  0  0  0  0  0
   28.7927  -19.3969  -16.3854 C   0  0  2  0  0  0  0  0  0  0  0  0
   28.4002  -19.8115  -17.6999 N   0  0  0  0  0  0  0  0  0  0  0  0
   28.1404  -20.1094  -15.2800 C   0  0  0  0  0  0  0  0  0  0  0  0
   27.0727  -20.7470  -15.5875 O   0  0  0  0  0  0  0  0  0  0  0  0
   28.5612  -20.1613  -13.9431 N   0  0  0  0  0  0  0  0  0  0  0  0
   29.6300  -19.4391  -13.2793 C   0  0  0  0  0  0  0  0  0  0  0  0
   29.9898  -20.1999  -12.0303 C   0  0  0  0  0  0  0  0  0  0  0  0
   29.1831  -21.4685  -12.1467 C   0  0  0  0  0  0  0  0  0  0  0  0
   27.9769  -20.9927  -12.9064 C   0  0  1  0  0  0  0  0  0  0  0  0
   27.0391  -20.2038  -12.0522 C   0  0  0  0  0  0  0  0  0  0  0  0
   27.1322  -18.9623  -11.9265 O   0  0  0  0  0  0  0  0  0  0  0  0
   19.5967  -20.2093  -14.1668 N   0  0  0  0  0  0  0  0  0  0  0  0
   20.5776  -19.3153  -14.7191 C   0  0  0  0  0  0  0  0  0  0  0  0
   20.1973  -18.3970  -15.5109 N   0  0  0  0  0  0  0  0  0  0  0  0
   21.9070  -19.5384  -14.3267 N   0  0  0  0  0  0  0  0  0  0  0  0
   22.2802  -20.8819  -13.8335 C   0  0  0  0  0  0  0  0  0  0  0  0
   23.7428  -20.8155  -13.5463 C   0  0  0  0  0  0  0  0  0  0  0  0
   24.2758  -19.8876  -12.5648 C   0  0  0  0  0  0  0  0  0  0  0  0
   24.6486  -20.2116  -11.1857 C   0  0  2  0  0  0  0  0  0  0  0  0
   26.0054  -20.8642  -11.3553 N   0  0  0  0  0  0  0  0  0  0  0  0
   23.8433  -21.1155  -10.3774 C   0  0  0  0  0  0  0  0  0  0  0  0
   24.0394  -22.3439  -10.3175 O   0  0  0  0  0  0  0  0  0  0  0  0
   22.7644  -20.6674   -9.5880 O   0  0  0  0  0  0  0  0  0  0  0  0
  2  1  1  0
  3  2  1  0
  3  4  1  6
  5  7  1  0
  5  3  1  0
  6  5  2  0
  7  8  1  0
  9  8  1  0
 10 11  1  0
 10  9  1  0
 11  7  1  0
 11 12  1  1
 13 12  2  0
 15 14  1  0
 15 16  2  0
 17 15  1  0
 18 17  1  0
 19 18  1  0
 20 19  1  0
 21 22  1  0
 21 20  1  6
 22 12  1  0
 23 21  1  0
 24 23  2  0
 25 23  1  0
M  END
$$$$
