SPR.pdb
     RDKit          3D

 25 25  0  0  1  0  0  0  0  0999 V2000
   26.3113  -17.6289  -15.5920 O   0  0  0  0  0  0  0  0  0  0  0  0
   26.8636  -17.8623  -16.8410 C   0  0  0  0  0  0  0  0  0  0  0  0
   27.4182  -19.2894  -16.9254 C   0  0  2  0  0  0  0  0  0  0  0  0
   26.8562  -19.8838  -18.1023 N   0  0  0  0  0  0  0  0  0  0  0  0
   27.1794  -20.0214  -15.6755 C   0  0  0  0  0  0  0  0  0  0  0  0
   26.1434  -20.7747  -15.6659 O   0  0  0  0  0  0  0  0  0  0  0  0
   27.9584  -19.9797  -14.5101 N   0  0  0  0  0  0  0  0  0  0  0  0
   29.0806  -19.1233  -14.1756 C   0  0  0  0  0  0  0  0  0  0  0  0
   29.8573  -19.7955  -13.0742 C   0  0  0  0  0  0  0  0  0  0  0  0
   29.1993  -21.1470  -12.9543 C   0  0  0  0  0  0  0  0  0  0  0  0
   27.7836  -20.8314  -13.3475 C   0  0  1  0  0  0  0  0  0  0  0  0
   27.0371  -20.1179  -12.2681 C   0  0  0  0  0  0  0  0  0  0  0  0
   27.1578  -18.8879  -12.0716 O   0  0  0  0  0  0  0  0  0  0  0  0
   19.8975  -20.4861  -14.4887 N   0  0  0  0  0  0  0  0  0  0  0  0
   20.3278  -21.7881  -14.0574 C   0  0  0  0  0  0  0  0  0  0  0  0
   19.7076  -22.8132  -14.4808 N   0  0  0  0  0  0  0  0  0  0  0  0
   21.4252  -21.8174  -13.1823 N   0  0  0  0  0  0  0  0  0  0  0  0
   22.0580  -20.5356  -12.8024 C   0  0  0  0  0  0  0  0  0  0  0  0
   23.1681  -20.8928  -11.8717 C   0  0  0  0  0  0  0  0  0  0  0  0
   24.0464  -19.8754  -11.3223 C   0  0  0  0  0  0  0  0  0  0  0  0
   25.2244  -20.1143  -10.4850 C   0  0  2  0  0  0  0  0  0  0  0  0
   26.1601  -20.8391  -11.4309 N   0  0  0  0  0  0  0  0  0  0  0  0
   25.1410  -20.9188   -9.2747 C   0  0  0  0  0  0  0  0  0  0  0  0
   25.5285  -22.1004   -9.2065 O   0  0  0  0  0  0  0  0  0  0  0  0
   24.6090  -20.4187   -8.0685 O   0  0  0  0  0  0  0  0  0  0  0  0
  2  1  1  0
  3  2  1  0
  3  4  1  6
  5  7  1  0
  5  3  1  0
  6  5  2  0
  7  8  1  0
  9  8  1  0
 10 11  1  0
 10  9  1  0
 11  7  1  0
 11 12  1  1
 13 12  2  0
 15 14  1  0
 15 16  2  0
 17 15  1  0
 18 17  1  0
 19 18  1  0
 20 19  1  0
 21 22  1  0
 21 20  1  6
 22 12  1  0
 23 21  1  0
 24 23  2  0
 25 23  1  0
M  END
$$$$
