SPR.pdb
     RDKit          3D

 25 25  0  0  1  0  0  0  0  0999 V2000
   27.8381  -20.7439  -19.3638 O   0  0  0  0  0  0  0  0  0  0  0  0
   28.4529  -21.8116  -18.7303 C   0  0  0  0  0  0  0  0  0  0  0  0
   29.1389  -21.3484  -17.4395 C   0  0  2  0  0  0  0  0  0  0  0  0
   29.8879  -22.4653  -16.9441 N   0  0  0  0  0  0  0  0  0  0  0  0
   28.1643  -20.7785  -16.5011 C   0  0  0  0  0  0  0  0  0  0  0  0
   27.7744  -21.5625  -15.5660 O   0  0  0  0  0  0  0  0  0  0  0  0
   27.6258  -19.4838  -16.5250 N   0  0  0  0  0  0  0  0  0  0  0  0
   27.7579  -18.4435  -17.5275 C   0  0  0  0  0  0  0  0  0  0  0  0
   27.4352  -17.1285  -16.8682 C   0  0  0  0  0  0  0  0  0  0  0  0
   27.2973  -17.4905  -15.4108 C   0  0  0  0  0  0  0  0  0  0  0  0
   26.7849  -18.9007  -15.4954 C   0  0  1  0  0  0  0  0  0  0  0  0
   25.3434  -18.9618  -15.8828 C   0  0  0  0  0  0  0  0  0  0  0  0
   24.9574  -18.7675  -17.0571 O   0  0  0  0  0  0  0  0  0  0  0  0
   19.8633  -23.5388  -13.4379 N   0  0  0  0  0  0  0  0  0  0  0  0
   18.7182  -22.8285  -13.9383 C   0  0  0  0  0  0  0  0  0  0  0  0
   17.5622  -23.3302  -13.7740 N   0  0  0  0  0  0  0  0  0  0  0  0
   18.9808  -21.6093  -14.5830 N   0  0  0  0  0  0  0  0  0  0  0  0
   20.3643  -21.3295  -15.0248 C   0  0  0  0  0  0  0  0  0  0  0  0
   20.9725  -20.4962  -13.9468 C   0  0  0  0  0  0  0  0  0  0  0  0
   22.3186  -19.9668  -14.0737 C   0  0  0  0  0  0  0  0  0  0  0  0
   22.9103  -19.3982  -15.2872 C   0  0  2  0  0  0  0  0  0  0  0  0
   24.3684  -19.2479  -14.9041 N   0  0  0  0  0  0  0  0  0  0  0  0
   22.4757  -18.1103  -15.8082 C   0  0  0  0  0  0  0  0  0  0  0  0
   21.6752  -17.9859  -16.7540 O   0  0  0  0  0  0  0  0  0  0  0  0
   22.9315  -16.8861  -15.2772 O   0  0  0  0  0  0  0  0  0  0  0  0
  2  1  1  0
  3  2  1  0
  3  4  1  1
  5  7  1  0
  5  3  1  0
  6  5  2  0
  7  8  1  0
  9  8  1  0
 10 11  1  0
 10  9  1  0
 11  7  1  0
 11 12  1  6
 13 12  2  0
 15 14  1  0
 15 16  2  0
 17 15  1  0
 18 17  1  0
 19 18  1  0
 20 19  1  0
 21 22  1  0
 21 20  1  1
 22 12  1  0
 23 21  1  0
 24 23  2  0
 25 23  1  0
M  END
$$$$
