SPR.pdb
     RDKit          3D

 25 25  0  0  1  0  0  0  0  0999 V2000
   20.4491   -3.4020  -14.6604 O   0  0  0  0  0  0  0  0  0  0  0  0
   20.1157   -3.5159  -16.0003 C   0  0  0  0  0  0  0  0  0  0  0  0
   20.2031   -4.9782  -16.4536 C   0  0  2  0  0  0  0  0  0  0  0  0
   19.8631   -5.0018  -17.8457 N   0  0  0  0  0  0  0  0  0  0  0  0
   19.3897   -5.8454  -15.5926 C   0  0  0  0  0  0  0  0  0  0  0  0
   18.1648   -5.9794  -15.9430 O   0  0  0  0  0  0  0  0  0  0  0  0
   19.8115   -6.5306  -14.4439 N   0  0  0  0  0  0  0  0  0  0  0  0
   21.0940   -6.5022  -13.7664 C   0  0  0  0  0  0  0  0  0  0  0  0
   21.1969   -7.7492  -12.9282 C   0  0  0  0  0  0  0  0  0  0  0  0
   19.9786   -8.5429  -13.3280 C   0  0  0  0  0  0  0  0  0  0  0  0
   19.0026   -7.4514  -13.6661 C   0  0  1  0  0  0  0  0  0  0  0  0
   18.4500   -6.7831  -12.4497 C   0  0  0  0  0  0  0  0  0  0  0  0
   19.0794   -5.8976  -11.8286 O   0  0  0  0  0  0  0  0  0  0  0  0
   10.3092   -7.9371  -10.9425 N   0  0  0  0  0  0  0  0  0  0  0  0
   11.4484   -8.3493  -10.1688 C   0  0  0  0  0  0  0  0  0  0  0  0
   11.2852   -9.1962   -9.2356 N   0  0  0  0  0  0  0  0  0  0  0  0
   12.6765   -7.7659  -10.5188 N   0  0  0  0  0  0  0  0  0  0  0  0
   12.7569   -6.9950  -11.7785 C   0  0  0  0  0  0  0  0  0  0  0  0
   14.1517   -6.4690  -11.8425 C   0  0  0  0  0  0  0  0  0  0  0  0
   15.1497   -6.8613  -10.8635 C   0  0  0  0  0  0  0  0  0  0  0  0
   16.5392   -6.3997  -10.8166 C   0  0  2  0  0  0  0  0  0  0  0  0
   17.1751   -7.1494  -11.9694 N   0  0  0  0  0  0  0  0  0  0  0  0
   17.3748   -6.6347   -9.6480 C   0  0  0  0  0  0  0  0  0  0  0  0
   18.1352   -7.6141   -9.5321 O   0  0  0  0  0  0  0  0  0  0  0  0
   17.3906   -5.7617   -8.5408 O   0  0  0  0  0  0  0  0  0  0  0  0
  2  1  1  0
  3  2  1  0
  3  4  1  6
  5  7  1  0
  5  3  1  0
  6  5  2  0
  7  8  1  0
  9  8  1  0
 10 11  1  0
 10  9  1  0
 11  7  1  0
 11 12  1  1
 13 12  2  0
 15 14  1  0
 15 16  2  0
 17 15  1  0
 18 17  1  0
 19 18  1  0
 20 19  1  0
 21 22  1  0
 21 20  1  1
 22 12  1  0
 23 21  1  0
 24 23  2  0
 25 23  1  0
M  END
$$$$
