SPR.pdb
     RDKit          3D

 25 25  0  0  1  0  0  0  0  0999 V2000
   24.9510  -23.3290  -16.3895 O   0  0  0  0  0  0  0  0  0  0  0  0
   25.6876  -22.7681  -17.4202 C   0  0  0  0  0  0  0  0  0  0  0  0
   27.1619  -22.6389  -17.0190 C   0  0  2  0  0  0  0  0  0  0  0  0
   27.7283  -23.9534  -17.0922 N   0  0  0  0  0  0  0  0  0  0  0  0
   27.2969  -21.9670  -15.7208 C   0  0  0  0  0  0  0  0  0  0  0  0
   27.9160  -22.6310  -14.8170 O   0  0  0  0  0  0  0  0  0  0  0  0
   26.8240  -20.6925  -15.3759 N   0  0  0  0  0  0  0  0  0  0  0  0
   25.9931  -19.7760  -16.1337 C   0  0  0  0  0  0  0  0  0  0  0  0
   26.1917  -18.3974  -15.5607 C   0  0  0  0  0  0  0  0  0  0  0  0
   27.3118  -18.5869  -14.5691 C   0  0  0  0  0  0  0  0  0  0  0  0
   27.0875  -20.0049  -14.1249 C   0  0  1  0  0  0  0  0  0  0  0  0
   25.9304  -20.1334  -13.1889 C   0  0  0  0  0  0  0  0  0  0  0  0
   24.7693  -20.3734  -13.5893 O   0  0  0  0  0  0  0  0  0  0  0  0
   27.6540  -18.4599   -5.8642 N   0  0  0  0  0  0  0  0  0  0  0  0
   27.6405  -19.8750   -5.6118 C   0  0  0  0  0  0  0  0  0  0  0  0
   27.7252  -20.2875   -4.4128 N   0  0  0  0  0  0  0  0  0  0  0  0
   27.5322  -20.7027   -6.7406 N   0  0  0  0  0  0  0  0  0  0  0  0
   27.4018  -20.0678   -8.0701 C   0  0  0  0  0  0  0  0  0  0  0  0
   25.9469  -20.1102   -8.3977 C   0  0  0  0  0  0  0  0  0  0  0  0
   25.4354  -19.5344   -9.6287 C   0  0  0  0  0  0  0  0  0  0  0  0
   25.0182  -20.2780  -10.8199 C   0  0  2  0  0  0  0  0  0  0  0  0
   26.1341  -19.9825  -11.8011 N   0  0  0  0  0  0  0  0  0  0  0  0
   23.7670  -19.9759  -11.4999 C   0  0  0  0  0  0  0  0  0  0  0  0
   22.6892  -20.5433  -11.2408 O   0  0  0  0  0  0  0  0  0  0  0  0
   23.6742  -19.0049  -12.5181 O   0  0  0  0  0  0  0  0  0  0  0  0
  2  1  1  0
  3  2  1  0
  3  4  1  1
  5  7  1  0
  5  3  1  0
  6  5  2  0
  7  8  1  0
  9  8  1  0
 10 11  1  0
 10  9  1  0
 11  7  1  0
 11 12  1  1
 13 12  2  0
 15 14  1  0
 15 16  2  0
 17 15  1  0
 18 17  1  0
 19 18  1  0
 20 19  1  0
 21 22  1  0
 21 20  1  1
 22 12  1  0
 23 21  1  0
 24 23  2  0
 25 23  1  0
M  END
$$$$
