SPR.pdb
     RDKit          3D

 25 25  0  0  1  0  0  0  0  0999 V2000
   26.9257  -18.5732  -15.0941 O   0  0  0  0  0  0  0  0  0  0  0  0
   27.6634  -19.5610  -15.7263 C   0  0  0  0  0  0  0  0  0  0  0  0
   27.9875  -20.6980  -14.7497 C   0  0  2  0  0  0  0  0  0  0  0  0
   28.7659  -21.6582  -15.4750 N   0  0  0  0  0  0  0  0  0  0  0  0
   26.7655  -21.2204  -14.1263 C   0  0  0  0  0  0  0  0  0  0  0  0
   26.1628  -22.1427  -14.7800 O   0  0  0  0  0  0  0  0  0  0  0  0
   26.2005  -20.8182  -12.9073 N   0  0  0  0  0  0  0  0  0  0  0  0
   26.6479  -19.8081  -11.9671 C   0  0  0  0  0  0  0  0  0  0  0  0
   26.0145  -20.1102  -10.6346 C   0  0  0  0  0  0  0  0  0  0  0  0
   25.3435  -21.4420  -10.8582 C   0  0  0  0  0  0  0  0  0  0  0  0
   24.9915  -21.3635  -12.3170 C   0  0  1  0  0  0  0  0  0  0  0  0
   23.8206  -20.4723  -12.5745 C   0  0  0  0  0  0  0  0  0  0  0  0
   23.9513  -19.2588  -12.8505 O   0  0  0  0  0  0  0  0  0  0  0  0
   25.4188  -24.5867  -15.8522 N   0  0  0  0  0  0  0  0  0  0  0  0
   24.2181  -25.3619  -16.0057 C   0  0  0  0  0  0  0  0  0  0  0  0
   24.2756  -26.6225  -15.8554 N   0  0  0  0  0  0  0  0  0  0  0  0
   23.0536  -24.6420  -16.3167 N   0  0  0  0  0  0  0  0  0  0  0  0
   23.1202  -23.1645  -16.3269 C   0  0  0  0  0  0  0  0  0  0  0  0
   22.4257  -22.7197  -15.0835 C   0  0  0  0  0  0  0  0  0  0  0  0
   22.2263  -21.3105  -14.7957 C   0  0  0  0  0  0  0  0  0  0  0  0
   21.5266  -20.7589  -13.6330 C   0  0  2  0  0  0  0  0  0  0  0  0
   22.5136  -20.9995  -12.5090 N   0  0  0  0  0  0  0  0  0  0  0  0
   20.2476  -21.2982  -13.1944 C   0  0  0  0  0  0  0  0  0  0  0  0
   19.1476  -20.8526  -13.5720 O   0  0  0  0  0  0  0  0  0  0  0  0
   20.1505  -22.3812  -12.2967 O   0  0  0  0  0  0  0  0  0  0  0  0
  2  1  1  0
  3  2  1  0
  3  4  1  6
  5  7  1  0
  5  3  1  0
  6  5  2  0
  7  8  1  0
  9  8  1  0
 10 11  1  0
 10  9  1  0
 11  7  1  0
 11 12  1  1
 13 12  2  0
 15 14  1  0
 15 16  2  0
 17 15  1  0
 18 17  1  0
 19 18  1  0
 20 19  1  0
 21 22  1  0
 21 20  1  6
 22 12  1  0
 23 21  1  0
 24 23  2  0
 25 23  1  0
M  END
$$$$
