SPR.pdb
     RDKit          3D

 25 25  0  0  1  0  0  0  0  0999 V2000
   19.8241  -10.2877    9.0373 O   0  0  0  0  0  0  0  0  0  0  0  0
   19.7115  -11.5327    8.4399 C   0  0  0  0  0  0  0  0  0  0  0  0
   21.0248  -11.9179    7.7484 C   0  0  2  0  0  0  0  0  0  0  0  0
   21.2014  -11.0065    6.6565 N   0  0  0  0  0  0  0  0  0  0  0  0
   21.0316  -13.3409    7.3875 C   0  0  0  0  0  0  0  0  0  0  0  0
   20.9795  -13.5926    6.1325 O   0  0  0  0  0  0  0  0  0  0  0  0
   21.0883  -14.4344    8.2637 N   0  0  0  0  0  0  0  0  0  0  0  0
   21.1594  -14.4584    9.7125 C   0  0  0  0  0  0  0  0  0  0  0  0
   21.6987  -15.8034   10.1224 C   0  0  0  0  0  0  0  0  0  0  0  0
   22.0863  -16.4409    8.8119 C   0  0  0  0  0  0  0  0  0  0  0  0
   21.0859  -15.8318    7.8703 C   0  0  1  0  0  0  0  0  0  0  0  0
   19.7245  -16.4282    8.0201 C   0  0  0  0  0  0  0  0  0  0  0  0
   18.9495  -16.1022    8.9470 O   0  0  0  0  0  0  0  0  0  0  0  0
   15.2604  -12.3511    3.3858 N   0  0  0  0  0  0  0  0  0  0  0  0
   14.2327  -13.1219    4.0308 C   0  0  0  0  0  0  0  0  0  0  0  0
   13.0242  -12.7414    3.9324 N   0  0  0  0  0  0  0  0  0  0  0  0
   14.6624  -14.2591    4.7330 N   0  0  0  0  0  0  0  0  0  0  0  0
   16.1158  -14.4762    4.9008 C   0  0  0  0  0  0  0  0  0  0  0  0
   16.2490  -15.7565    5.6554 C   0  0  0  0  0  0  0  0  0  0  0  0
   17.5530  -16.3109    5.9728 C   0  0  0  0  0  0  0  0  0  0  0  0
   17.8071  -17.5214    6.7577 C   0  0  2  0  0  0  0  0  0  0  0  0
   19.2790  -17.3941    7.0934 N   0  0  0  0  0  0  0  0  0  0  0  0
   17.6174  -18.8466    6.1860 C   0  0  0  0  0  0  0  0  0  0  0  0
   16.4983  -19.3507    5.9751 O   0  0  0  0  0  0  0  0  0  0  0  0
   18.6982  -19.6752    5.8207 O   0  0  0  0  0  0  0  0  0  0  0  0
  2  1  1  0
  3  2  1  0
  3  4  1  6
  5  7  1  0
  5  3  1  0
  6  5  2  0
  7  8  1  0
  9  8  1  0
 10 11  1  0
 10  9  1  0
 11  7  1  0
 11 12  1  1
 13 12  2  0
 15 14  1  0
 15 16  2  0
 17 15  1  0
 18 17  1  0
 19 18  1  0
 20 19  1  0
 21 22  1  0
 21 20  1  6
 22 12  1  0
 23 21  1  0
 24 23  2  0
 25 23  1  0
M  END
$$$$
