SPR.pdb
     RDKit          3D

 25 25  0  0  1  0  0  0  0  0999 V2000
   26.1298  -22.2913  -15.5075 O   0  0  0  0  0  0  0  0  0  0  0  0
   26.1209  -22.7765  -14.2097 C   0  0  0  0  0  0  0  0  0  0  0  0
   26.4479  -21.6564  -13.2148 C   0  0  2  0  0  0  0  0  0  0  0  0
   26.5868  -22.2721  -11.9281 N   0  0  0  0  0  0  0  0  0  0  0  0
   25.4552  -20.5777  -13.2922 C   0  0  0  0  0  0  0  0  0  0  0  0
   24.4816  -20.6626  -12.4640 O   0  0  0  0  0  0  0  0  0  0  0  0
   25.4651  -19.4816  -14.1672 N   0  0  0  0  0  0  0  0  0  0  0  0
   26.3779  -19.1688  -15.2505 C   0  0  0  0  0  0  0  0  0  0  0  0
   26.2689  -17.6929  -15.5294 C   0  0  0  0  0  0  0  0  0  0  0  0
   25.3815  -17.1899  -14.4188 C   0  0  0  0  0  0  0  0  0  0  0  0
   24.5113  -18.3873  -14.1594 C   0  0  1  0  0  0  0  0  0  0  0  0
   23.4709  -18.5759  -15.2147 C   0  0  0  0  0  0  0  0  0  0  0  0
   23.7267  -19.1049  -16.3195 O   0  0  0  0  0  0  0  0  0  0  0  0
   19.1822  -24.2311  -12.5568 N   0  0  0  0  0  0  0  0  0  0  0  0
   19.5316  -23.2294  -11.5869 C   0  0  0  0  0  0  0  0  0  0  0  0
   19.5573  -23.5460  -10.3565 N   0  0  0  0  0  0  0  0  0  0  0  0
   19.8221  -21.9530  -12.0944 N   0  0  0  0  0  0  0  0  0  0  0  0
   19.7275  -21.7369  -13.5545 C   0  0  0  0  0  0  0  0  0  0  0  0
   20.6840  -20.6341  -13.8631 C   0  0  0  0  0  0  0  0  0  0  0  0
   20.2592  -19.4504  -14.5889 C   0  0  0  0  0  0  0  0  0  0  0  0
   20.9834  -18.8070  -15.6878 C   0  0  2  0  0  0  0  0  0  0  0  0
   22.1476  -18.1494  -14.9754 N   0  0  0  0  0  0  0  0  0  0  0  0
   20.3562  -17.7809  -16.5080 C   0  0  0  0  0  0  0  0  0  0  0  0
   20.5495  -16.5609  -16.3498 O   0  0  0  0  0  0  0  0  0  0  0  0
   19.4696  -18.0899  -17.5599 O   0  0  0  0  0  0  0  0  0  0  0  0
  2  1  1  0
  3  2  1  0
  3  4  1  1
  5  7  1  0
  5  3  1  0
  6  5  2  0
  7  8  1  0
  9  8  1  0
 10 11  1  0
 10  9  1  0
 11  7  1  0
 11 12  1  6
 13 12  2  0
 15 14  1  0
 15 16  2  0
 17 15  1  0
 18 17  1  0
 19 18  1  0
 20 19  1  0
 21 22  1  0
 21 20  1  1
 22 12  1  0
 23 21  1  0
 24 23  2  0
 25 23  1  0
M  END
$$$$
