SPR.pdb
     RDKit          3D

 25 25  0  0  1  0  0  0  0  0999 V2000
   13.0753  -14.7310  -10.0675 O   0  0  0  0  0  0  0  0  0  0  0  0
   13.3930  -13.3824  -10.0698 C   0  0  0  0  0  0  0  0  0  0  0  0
   12.3965  -12.5968  -10.9308 C   0  0  2  0  0  0  0  0  0  0  0  0
   12.3741  -13.2265  -12.2181 N   0  0  0  0  0  0  0  0  0  0  0  0
   12.7206  -11.1650  -10.9364 C   0  0  0  0  0  0  0  0  0  0  0  0
   13.1875  -10.7087  -12.0385 O   0  0  0  0  0  0  0  0  0  0  0  0
   12.5730  -10.2613   -9.8741 N   0  0  0  0  0  0  0  0  0  0  0  0
   12.1791  -10.5037   -8.4990 C   0  0  0  0  0  0  0  0  0  0  0  0
   11.6933   -9.1989   -7.9250 C   0  0  0  0  0  0  0  0  0  0  0  0
   11.6752   -8.2755   -9.1171 C   0  0  0  0  0  0  0  0  0  0  0  0
   12.7989   -8.8292   -9.9472 C   0  0  1  0  0  0  0  0  0  0  0  0
   14.1422   -8.4701   -9.4013 C   0  0  0  0  0  0  0  0  0  0  0  0
   14.6451   -9.0607   -8.4193 O   0  0  0  0  0  0  0  0  0  0  0  0
   19.3401   -8.6599  -15.2966 N   0  0  0  0  0  0  0  0  0  0  0  0
   18.6635   -9.8000  -14.7409 C   0  0  0  0  0  0  0  0  0  0  0  0
   18.6755  -10.8965  -15.3831 N   0  0  0  0  0  0  0  0  0  0  0  0
   18.0304   -9.6000  -13.5039 N   0  0  0  0  0  0  0  0  0  0  0  0
   18.1101   -8.2615  -12.8797 C   0  0  0  0  0  0  0  0  0  0  0  0
   17.2552   -8.3329  -11.6590 C   0  0  0  0  0  0  0  0  0  0  0  0
   17.0473   -7.1687  -10.8165 C   0  0  0  0  0  0  0  0  0  0  0  0
   16.3035   -7.1395   -9.5548 C   0  0  2  0  0  0  0  0  0  0  0  0
   14.8853   -7.4316  -10.0010 N   0  0  0  0  0  0  0  0  0  0  0  0
   16.2495   -5.9366   -8.7368 C   0  0  0  0  0  0  0  0  0  0  0  0
   15.3369   -5.0927   -8.8145 O   0  0  0  0  0  0  0  0  0  0  0  0
   17.2374   -5.6272   -7.7796 O   0  0  0  0  0  0  0  0  0  0  0  0
  2  1  1  0
  3  2  1  0
  3  4  1  6
  5  7  1  0
  5  3  1  0
  6  5  2  0
  7  8  1  0
  9  8  1  0
 10 11  1  0
 10  9  1  0
 11  7  1  0
 11 12  1  1
 13 12  2  0
 15 14  1  0
 15 16  2  0
 17 15  1  0
 18 17  1  0
 19 18  1  0
 20 19  1  0
 21 22  1  0
 21 20  1  6
 22 12  1  0
 23 21  1  0
 24 23  2  0
 25 23  1  0
M  END
$$$$
