GRM.pdb
     RDKit          3D

 24 23  0  0  1  0  0  0  0  0999 V2000
   28.4921  -19.3469  -15.3391 N   0  0  0  0  0  0  0  0  0  0  0  0
   28.0181  -20.4460  -14.5459 C   0  0  0  0  0  0  0  0  0  0  0  0
   27.1262  -19.9353  -13.4836 C   0  0  0  0  0  0  0  0  0  0  0  0
   27.1903  -18.7259  -13.1656 O   0  0  0  0  0  0  0  0  0  0  0  0
   19.6396  -20.2657  -11.7126 N   0  0  0  0  0  0  0  0  0  0  0  0
   20.1499  -21.4376  -12.2967 C   0  0  0  0  0  0  0  0  0  0  0  0
   19.6020  -22.6057  -12.0820 N   0  0  0  0  0  0  0  0  0  0  0  0
   21.2846  -21.4109  -13.1482 N   0  0  0  0  0  0  0  0  0  0  0  0
   21.7666  -20.0712  -13.6191 C   0  0  0  0  0  0  0  0  0  0  0  0
   22.8587  -19.6046  -12.7212 C   0  0  0  0  0  0  0  0  0  0  0  0
   23.9202  -20.5257  -12.3577 C   0  0  0  0  0  0  0  0  0  0  0  0
   25.2287  -20.1692  -11.8099 C   0  0  2  0  0  0  0  0  0  0  0  0
   26.1994  -20.7583  -12.8083 N   0  0  0  0  0  0  0  0  0  0  0  0
   25.6658  -20.7985  -10.5366 C   0  0  0  0  0  0  0  0  0  0  0  0
   25.9701  -22.0065  -10.4728 O   0  0  0  0  0  0  0  0  0  0  0  0
   20.0498  -23.4731  -12.4249 C   0  0  0  0  0  0  0  0  0  0  0  0
   28.9642  -18.0423   -5.7318 S   0  0  0  0  0  0  0  0  0  0  0  0
   28.9374  -19.7683   -5.2068 C   0  0  0  0  0  0  0  0  0  0  0  0
   27.5809  -20.5988   -6.0341 C   0  0  0  0  0  0  0  0  0  0  0  0
   27.1793  -20.0868   -7.3571 C   0  0  1  0  0  0  0  0  0  0  0  0
   26.1160  -20.8345   -8.0500 N   0  0  0  0  0  0  0  0  0  0  0  0
   25.7701  -20.0842   -9.3067 C   0  0  0  0  0  0  0  0  0  0  0  0
   24.8977  -21.0128   -7.2638 O   0  0  0  0  0  0  0  0  0  0  0  0
   24.7882  -21.8531   -6.1762 O   0  0  0  0  0  0  0  0  0  0  0  0
  1  2  1  0
  3  2  1  0
  3 13  1  0
  4  3  2  0
  5  6  1  0
  6  8  1  0
  7  6  2  0
  8  9  1  0
  9 10  1  0
 10 11  1  0
 12 11  1  6
 12 13  1  0
 14 12  1  0
 14 21  1  0
 15 14  2  0
 17 16  1  0
 18 19  1  0
 18 17  1  0
 20 21  1  0
 20 19  1  6
 22 20  1  0
 23 22  1  0
 24 22  2  0
M  END
$$$$
