GRM.pdb
     RDKit          3D

 24 23  0  0  1  0  0  0  0  0999 V2000
   21.2202  -33.0251   -3.4968 N   0  0  0  0  0  0  0  0  0  0  0  0
   19.9065  -32.4456   -3.4875 C   0  0  0  0  0  0  0  0  0  0  0  0
   20.0207  -30.9719   -3.4936 C   0  0  0  0  0  0  0  0  0  0  0  0
   21.1505  -30.4494   -3.3585 O   0  0  0  0  0  0  0  0  0  0  0  0
   18.6122  -24.7631   -8.7791 N   0  0  0  0  0  0  0  0  0  0  0  0
   17.7480  -24.2678   -7.7878 C   0  0  0  0  0  0  0  0  0  0  0  0
   17.0210  -23.1983   -7.9836 N   0  0  0  0  0  0  0  0  0  0  0  0
   17.6217  -24.9041   -6.5259 N   0  0  0  0  0  0  0  0  0  0  0  0
   17.8821  -26.3797   -6.4643 C   0  0  0  0  0  0  0  0  0  0  0  0
   17.7600  -26.8361   -5.0524 C   0  0  0  0  0  0  0  0  0  0  0  0
   18.1168  -28.2023   -4.7153 C   0  0  0  0  0  0  0  0  0  0  0  0
   19.0748  -28.6220   -3.6929 C   0  0  2  0  0  0  0  0  0  0  0  0
   18.9030  -30.1235   -3.6462 N   0  0  0  0  0  0  0  0  0  0  0  0
   18.8284  -28.2326   -2.2800 C   0  0  0  0  0  0  0  0  0  0  0  0
   18.0302  -28.8612   -1.5564 O   0  0  0  0  0  0  0  0  0  0  0  0
   16.3289  -22.8907   -7.2788 C   0  0  0  0  0  0  0  0  0  0  0  0
   21.1459  -22.6719    1.6108 S   0  0  0  0  0  0  0  0  0  0  0  0
   21.2982  -24.3254    2.3164 C   0  0  0  0  0  0  0  0  0  0  0  0
   19.9993  -25.3598    1.6404 C   0  0  0  0  0  0  0  0  0  0  0  0
   20.2229  -25.9409    0.3040 C   0  0  1  0  0  0  0  0  0  0  0  0
   19.1574  -26.8173   -0.2123 N   0  0  0  0  0  0  0  0  0  0  0  0
   19.4735  -27.1281   -1.6494 C   0  0  0  0  0  0  0  0  0  0  0  0
   17.8182  -26.2375   -0.1448 O   0  0  0  0  0  0  0  0  0  0  0  0
   16.9754  -26.3472    0.9408 O   0  0  0  0  0  0  0  0  0  0  0  0
  1  2  1  0
  3  2  1  0
  3 13  1  0
  4  3  2  0
  5  6  1  0
  6  8  1  0
  7  6  2  0
  8  9  1  0
  9 10  1  0
 10 11  1  0
 12 11  1  6
 12 13  1  0
 14 12  1  0
 14 21  1  0
 15 14  2  0
 17 16  1  0
 18 19  1  0
 18 17  1  0
 20 21  1  0
 20 19  1  1
 22 20  1  0
 23 22  1  0
 24 22  2  0
M  END
$$$$
