GRM.pdb
     RDKit          3D

 24 23  0  0  1  0  0  0  0  0999 V2000
   26.6069  -23.3460  -16.1067 N   0  0  0  0  0  0  0  0  0  0  0  0
   26.1467  -22.3626  -15.1670 C   0  0  0  0  0  0  0  0  0  0  0  0
   24.7114  -22.0963  -15.3993 C   0  0  0  0  0  0  0  0  0  0  0  0
   24.1694  -22.5474  -16.4340 O   0  0  0  0  0  0  0  0  0  0  0  0
   17.4164  -20.8778  -12.5390 N   0  0  0  0  0  0  0  0  0  0  0  0
   17.6350  -22.2190  -12.1807 C   0  0  0  0  0  0  0  0  0  0  0  0
   16.6924  -23.1195  -12.2861 N   0  0  0  0  0  0  0  0  0  0  0  0
   18.8894  -22.6619  -11.6873 N   0  0  0  0  0  0  0  0  0  0  0  0
   20.0202  -21.6768  -11.6840 C   0  0  0  0  0  0  0  0  0  0  0  0
   20.4401  -21.4144  -13.0881 C   0  0  0  0  0  0  0  0  0  0  0  0
   21.8550  -21.3845  -13.4114 C   0  0  0  0  0  0  0  0  0  0  0  0
   22.4383  -21.1746  -14.7362 C   0  0  2  0  0  0  0  0  0  0  0  0
   23.9211  -21.3504  -14.4986 N   0  0  0  0  0  0  0  0  0  0  0  0
   22.3744  -19.8175  -15.3383 C   0  0  0  0  0  0  0  0  0  0  0  0
   22.9720  -18.8468  -14.8319 O   0  0  0  0  0  0  0  0  0  0  0  0
   16.8552  -24.0961  -11.9859 C   0  0  0  0  0  0  0  0  0  0  0  0
   23.5643  -16.1063  -21.5416 S   0  0  0  0  0  0  0  0  0  0  0  0
   22.1283  -17.0982  -21.0841 C   0  0  0  0  0  0  0  0  0  0  0  0
   21.8956  -16.9872  -19.3100 C   0  0  0  0  0  0  0  0  0  0  0  0
   21.9077  -18.2476  -18.5452 C   0  0  1  0  0  0  0  0  0  0  0  0
   21.6931  -18.1307  -17.0926 N   0  0  0  0  0  0  0  0  0  0  0  0
   21.6371  -19.5213  -16.5225 C   0  0  0  0  0  0  0  0  0  0  0  0
   20.4687  -17.4255  -16.7216 O   0  0  0  0  0  0  0  0  0  0  0  0
   20.3180  -16.0555  -16.7545 O   0  0  0  0  0  0  0  0  0  0  0  0
  1  2  1  0
  3  2  1  0
  3 13  1  0
  4  3  2  0
  5  6  1  0
  6  8  1  0
  7  6  2  0
  8  9  1  0
  9 10  1  0
 10 11  1  0
 12 11  1  1
 12 13  1  0
 14 12  1  0
 14 21  1  0
 15 14  2  0
 17 16  1  0
 18 19  1  0
 18 17  1  0
 20 21  1  0
 20 19  1  1
 22 20  1  0
 23 22  1  0
 24 22  2  0
M  END
$$$$
