GRM.pdb
     RDKit          3D

 24 23  0  0  1  0  0  0  0  0999 V2000
   28.8187  -19.9061  -16.2847 N   0  0  0  0  0  0  0  0  0  0  0  0
   28.6991  -20.8147  -15.1793 C   0  0  0  0  0  0  0  0  0  0  0  0
   27.7649  -20.2524  -14.1813 C   0  0  0  0  0  0  0  0  0  0  0  0
   27.4161  -19.0542  -14.2828 O   0  0  0  0  0  0  0  0  0  0  0  0
   20.7983  -18.0831  -14.5580 N   0  0  0  0  0  0  0  0  0  0  0  0
   20.5382  -18.8232  -13.3921 C   0  0  0  0  0  0  0  0  0  0  0  0
   19.5274  -18.5409  -12.6116 N   0  0  0  0  0  0  0  0  0  0  0  0
   21.3596  -19.9133  -13.0045 N   0  0  0  0  0  0  0  0  0  0  0  0
   22.7965  -19.8854  -13.4332 C   0  0  0  0  0  0  0  0  0  0  0  0
   23.4989  -21.0643  -12.8555 C   0  0  0  0  0  0  0  0  0  0  0  0
   24.9211  -21.2297  -13.0946 C   0  0  0  0  0  0  0  0  0  0  0  0
   26.0056  -20.5630  -12.3744 C   0  0  2  0  0  0  0  0  0  0  0  0
   27.2460  -21.0139  -13.1121 N   0  0  0  0  0  0  0  0  0  0  0  0
   26.2994  -20.9809  -10.9789 C   0  0  0  0  0  0  0  0  0  0  0  0
   26.5836  -22.1617  -10.6942 O   0  0  0  0  0  0  0  0  0  0  0  0
   19.3389  -19.1021  -11.7631 C   0  0  0  0  0  0  0  0  0  0  0  0
   29.7512  -19.2655   -5.4394 S   0  0  0  0  0  0  0  0  0  0  0  0
   28.0101  -18.9156   -5.1208 C   0  0  0  0  0  0  0  0  0  0  0  0
   27.0112  -19.9677   -6.1741 C   0  0  0  0  0  0  0  0  0  0  0  0
   27.0499  -19.7063   -7.6246 C   0  0  1  0  0  0  0  0  0  0  0  0
   26.2883  -20.6371   -8.4752 N   0  0  0  0  0  0  0  0  0  0  0  0
   26.2801  -20.0812   -9.8726 C   0  0  0  0  0  0  0  0  0  0  0  0
   24.9068  -20.8459   -8.0489 O   0  0  0  0  0  0  0  0  0  0  0  0
   23.8028  -20.3675   -8.7220 O   0  0  0  0  0  0  0  0  0  0  0  0
  1  2  1  0
  3  2  1  0
  3 13  1  0
  4  3  2  0
  5  6  1  0
  6  8  1  0
  7  6  2  0
  8  9  1  0
  9 10  1  0
 10 11  1  0
 12 11  1  6
 12 13  1  0
 14 12  1  0
 14 21  1  0
 15 14  2  0
 17 16  1  0
 18 19  1  0
 18 17  1  0
 20 21  1  0
 20 19  1  6
 22 20  1  0
 23 22  1  0
 24 22  2  0
M  END
$$$$
