GRM.pdb
     RDKit          3D

 24 23  0  0  1  0  0  0  0  0999 V2000
   19.1380  -23.8931   -8.9286 N   0  0  0  0  0  0  0  0  0  0  0  0
   18.7432  -25.1313   -8.3179 C   0  0  0  0  0  0  0  0  0  0  0  0
   18.2720  -24.8706   -6.9413 C   0  0  0  0  0  0  0  0  0  0  0  0
   18.5694  -23.7852   -6.3925 O   0  0  0  0  0  0  0  0  0  0  0  0
   13.3136  -21.5206   -5.1927 N   0  0  0  0  0  0  0  0  0  0  0  0
   12.4780  -22.2284   -4.3120 C   0  0  0  0  0  0  0  0  0  0  0  0
   11.2170  -21.9153   -4.1621 N   0  0  0  0  0  0  0  0  0  0  0  0
   12.9617  -23.3179   -3.5422 N   0  0  0  0  0  0  0  0  0  0  0  0
   14.4089  -23.6824   -3.6895 C   0  0  0  0  0  0  0  0  0  0  0  0
   14.5895  -24.4557   -4.9489 C   0  0  0  0  0  0  0  0  0  0  0  0
   15.5323  -25.5592   -4.9746 C   0  0  0  0  0  0  0  0  0  0  0  0
   16.9849  -25.4630   -4.8321 C   0  0  2  0  0  0  0  0  0  0  0  0
   17.4961  -25.7992   -6.2148 N   0  0  0  0  0  0  0  0  0  0  0  0
   17.6874  -26.4617   -3.9850 C   0  0  0  0  0  0  0  0  0  0  0  0
   17.8951  -27.6264   -4.3802 O   0  0  0  0  0  0  0  0  0  0  0  0
   10.6102  -22.4504   -3.5173 C   0  0  0  0  0  0  0  0  0  0  0  0
   21.2740  -25.1387    1.2699 S   0  0  0  0  0  0  0  0  0  0  0  0
   21.1215  -26.9172    1.5331 C   0  0  0  0  0  0  0  0  0  0  0  0
   19.9883  -27.5827    0.3137 C   0  0  0  0  0  0  0  0  0  0  0  0
   19.4948  -26.6613   -0.7262 C   0  0  1  0  0  0  0  0  0  0  0  0
   18.7870  -27.2783   -1.8612 N   0  0  0  0  0  0  0  0  0  0  0  0
   18.1715  -26.1735   -2.6749 C   0  0  0  0  0  0  0  0  0  0  0  0
   17.7340  -28.2143   -1.4746 O   0  0  0  0  0  0  0  0  0  0  0  0
   17.9128  -29.5742   -1.3354 O   0  0  0  0  0  0  0  0  0  0  0  0
  1  2  1  0
  3  2  1  0
  3 13  1  0
  4  3  2  0
  5  6  1  0
  6  8  1  0
  7  6  2  0
  8  9  1  0
  9 10  1  0
 10 11  1  0
 12 11  1  6
 12 13  1  0
 14 12  1  0
 14 21  1  0
 15 14  2  0
 17 16  1  0
 18 19  1  0
 18 17  1  0
 20 21  1  0
 20 19  1  6
 22 20  1  0
 23 22  1  0
 24 22  2  0
M  END
$$$$
