GRM.pdb
     RDKit          3D

 24 23  0  0  1  0  0  0  0  0999 V2000
   28.1245  -19.6059  -15.5340 N   0  0  0  0  0  0  0  0  0  0  0  0
   27.4675  -20.7146  -14.9006 C   0  0  0  0  0  0  0  0  0  0  0  0
   26.7278  -20.2337  -13.7147 C   0  0  0  0  0  0  0  0  0  0  0  0
   26.7842  -19.0194  -13.4144 O   0  0  0  0  0  0  0  0  0  0  0  0
   23.7451  -17.7807  -15.7250 N   0  0  0  0  0  0  0  0  0  0  0  0
   22.4485  -18.3113  -15.8350 C   0  0  0  0  0  0  0  0  0  0  0  0
   21.7189  -18.1235  -16.9042 N   0  0  0  0  0  0  0  0  0  0  0  0
   21.8674  -19.0772  -14.7915 N   0  0  0  0  0  0  0  0  0  0  0  0
   22.6467  -19.2173  -13.5178 C   0  0  0  0  0  0  0  0  0  0  0  0
   22.9432  -20.6577  -13.2855 C   0  0  0  0  0  0  0  0  0  0  0  0
   23.7489  -21.0402  -12.1402 C   0  0  0  0  0  0  0  0  0  0  0  0
   25.0781  -20.5303  -11.8049 C   0  0  2  0  0  0  0  0  0  0  0  0
   25.9557  -21.0907  -12.9012 N   0  0  0  0  0  0  0  0  0  0  0  0
   25.7477  -21.0331  -10.5773 C   0  0  0  0  0  0  0  0  0  0  0  0
   26.0226  -22.2407  -10.4282 O   0  0  0  0  0  0  0  0  0  0  0  0
   20.7603  -18.5076  -16.9669 C   0  0  0  0  0  0  0  0  0  0  0  0
   28.9852  -17.7140   -6.0669 S   0  0  0  0  0  0  0  0  0  0  0  0
   28.6493  -19.1815   -5.0724 C   0  0  0  0  0  0  0  0  0  0  0  0
   27.5913  -20.2820   -6.0123 C   0  0  0  0  0  0  0  0  0  0  0  0
   27.2871  -19.9037   -7.4045 C   0  0  1  0  0  0  0  0  0  0  0  0
   26.3849  -20.8044   -8.1424 N   0  0  0  0  0  0  0  0  0  0  0  0
   26.1226  -20.1901   -9.4899 C   0  0  0  0  0  0  0  0  0  0  0  0
   25.1038  -21.0435   -7.4822 O   0  0  0  0  0  0  0  0  0  0  0  0
   24.9222  -21.9071   -6.4230 O   0  0  0  0  0  0  0  0  0  0  0  0
  1  2  1  0
  3  2  1  0
  3 13  1  0
  4  3  2  0
  5  6  1  0
  6  8  1  0
  7  6  2  0
  8  9  1  0
  9 10  1  0
 10 11  1  0
 12 11  1  6
 12 13  1  0
 14 12  1  0
 14 21  1  0
 15 14  2  0
 17 16  1  0
 18 19  1  0
 18 17  1  0
 20 21  1  0
 20 19  1  6
 22 20  1  0
 23 22  1  0
 24 22  2  0
M  END
$$$$
