GRM.pdb
     RDKit          3D

 24 23  0  0  1  0  0  0  0  0999 V2000
   27.8390  -15.9250  -16.6511 N   0  0  0  0  0  0  0  0  0  0  0  0
   28.0297  -17.1826  -15.9849 C   0  0  0  0  0  0  0  0  0  0  0  0
   27.0435  -17.3128  -14.8916 C   0  0  0  0  0  0  0  0  0  0  0  0
   26.7026  -16.2895  -14.2557 O   0  0  0  0  0  0  0  0  0  0  0  0
   19.6917  -21.5034  -12.7572 N   0  0  0  0  0  0  0  0  0  0  0  0
   20.6433  -22.4751  -13.1107 C   0  0  0  0  0  0  0  0  0  0  0  0
   20.3397  -23.7463  -13.1608 N   0  0  0  0  0  0  0  0  0  0  0  0
   21.9804  -22.1245  -13.4308 N   0  0  0  0  0  0  0  0  0  0  0  0
   22.3407  -20.6690  -13.4048 C   0  0  0  0  0  0  0  0  0  0  0  0
   23.7048  -20.4958  -13.9759 C   0  0  0  0  0  0  0  0  0  0  0  0
   24.2508  -19.1579  -14.1148 C   0  0  0  0  0  0  0  0  0  0  0  0
   25.4308  -18.6271  -13.4328 C   0  0  2  0  0  0  0  0  0  0  0  0
   26.4662  -18.5495  -14.5319 N   0  0  0  0  0  0  0  0  0  0  0  0
   26.1109  -19.4736  -12.4183 C   0  0  0  0  0  0  0  0  0  0  0  0
   26.9140  -20.3706  -12.7447 O   0  0  0  0  0  0  0  0  0  0  0  0
   21.0598  -24.4559  -13.3805 C   0  0  0  0  0  0  0  0  0  0  0  0
   29.4427  -19.0451   -6.2212 S   0  0  0  0  0  0  0  0  0  0  0  0
   27.7128  -19.5535   -6.1543 C   0  0  0  0  0  0  0  0  0  0  0  0
   27.3057  -20.4055   -7.6783 C   0  0  0  0  0  0  0  0  0  0  0  0
   26.7627  -19.5944   -8.7833 C   0  0  1  0  0  0  0  0  0  0  0  0
   26.5840  -20.2850  -10.0721 N   0  0  0  0  0  0  0  0  0  0  0  0
   25.9032  -19.3311  -11.0146 C   0  0  0  0  0  0  0  0  0  0  0  0
   25.7890  -21.5080   -9.9924 O   0  0  0  0  0  0  0  0  0  0  0  0
   26.3191  -22.7775   -9.9019 O   0  0  0  0  0  0  0  0  0  0  0  0
  1  2  1  0
  3  2  1  0
  3 13  1  0
  4  3  2  0
  5  6  1  0
  6  8  1  0
  7  6  2  0
  8  9  1  0
  9 10  1  0
 10 11  1  0
 12 11  1  6
 12 13  1  0
 14 12  1  0
 14 21  1  0
 15 14  2  0
 17 16  1  0
 18 19  1  0
 18 17  1  0
 20 21  1  0
 20 19  1  6
 22 20  1  0
 23 22  1  0
 24 22  2  0
M  END
$$$$
