GRM.pdb
     RDKit          3D

 24 23  0  0  1  0  0  0  0  0999 V2000
   28.5120  -18.3643  -15.0845 N   0  0  0  0  0  0  0  0  0  0  0  0
   28.3619  -19.6600  -14.4841 C   0  0  0  0  0  0  0  0  0  0  0  0
   27.3217  -19.5970  -13.4358 C   0  0  0  0  0  0  0  0  0  0  0  0
   26.7806  -18.4968  -13.1819 O   0  0  0  0  0  0  0  0  0  0  0  0
   23.8693  -24.4492  -14.6876 N   0  0  0  0  0  0  0  0  0  0  0  0
   22.6795  -24.1574  -13.9990 C   0  0  0  0  0  0  0  0  0  0  0  0
   21.8839  -25.1039  -13.5727 N   0  0  0  0  0  0  0  0  0  0  0  0
   22.2832  -22.8214  -13.7323 N   0  0  0  0  0  0  0  0  0  0  0  0
   23.2315  -21.7263  -14.1205 C   0  0  0  0  0  0  0  0  0  0  0  0
   24.5683  -22.0087  -13.5288 C   0  0  0  0  0  0  0  0  0  0  0  0
   24.8279  -21.6323  -12.1511 C   0  0  0  0  0  0  0  0  0  0  0  0
   25.7917  -20.6328  -11.6914 C   0  0  2  0  0  0  0  0  0  0  0  0
   26.9100  -20.7318  -12.7042 N   0  0  0  0  0  0  0  0  0  0  0  0
   26.5063  -20.8659  -10.4094 C   0  0  0  0  0  0  0  0  0  0  0  0
   27.2367  -21.8624  -10.2377 O   0  0  0  0  0  0  0  0  0  0  0  0
   20.9736  -24.8760  -13.1369 C   0  0  0  0  0  0  0  0  0  0  0  0
   29.3540  -18.0056   -5.5549 S   0  0  0  0  0  0  0  0  0  0  0  0
   28.2672  -19.0265   -4.5390 C   0  0  0  0  0  0  0  0  0  0  0  0
   27.2870  -20.0705   -5.6175 C   0  0  0  0  0  0  0  0  0  0  0  0
   27.1997  -19.6844   -7.0378 C   0  0  1  0  0  0  0  0  0  0  0  0
   26.3922  -20.5612   -7.9032 N   0  0  0  0  0  0  0  0  0  0  0  0
   26.4153  -19.9845   -9.2920 C   0  0  0  0  0  0  0  0  0  0  0  0
   25.0008  -20.7043   -7.4814 O   0  0  0  0  0  0  0  0  0  0  0  0
   24.5894  -21.4368   -6.3883 O   0  0  0  0  0  0  0  0  0  0  0  0
  1  2  1  0
  3  2  1  0
  3 13  1  0
  4  3  2  0
  5  6  1  0
  6  8  1  0
  7  6  2  0
  8  9  1  0
  9 10  1  0
 10 11  1  0
 12 11  1  6
 12 13  1  0
 14 12  1  0
 14 21  1  0
 15 14  2  0
 17 16  1  0
 18 19  1  0
 18 17  1  0
 20 21  1  0
 20 19  1  6
 22 20  1  0
 23 22  1  0
 24 22  2  0
M  END
$$$$
