GRM.pdb
     RDKit          3D

 24 23  0  0  1  0  0  0  0  0999 V2000
   26.8481  -26.1856  -16.7413 N   0  0  0  0  0  0  0  0  0  0  0  0
   26.6088  -24.7751  -16.8641 C   0  0  0  0  0  0  0  0  0  0  0  0
   25.6562  -24.3466  -15.8182 C   0  0  0  0  0  0  0  0  0  0  0  0
   25.0589  -25.2181  -15.1463 O   0  0  0  0  0  0  0  0  0  0  0  0
   25.0261  -20.4423   -9.5887 N   0  0  0  0  0  0  0  0  0  0  0  0
   26.3270  -20.5015  -10.1170 C   0  0  0  0  0  0  0  0  0  0  0  0
   27.3307  -20.9651   -9.4182 N   0  0  0  0  0  0  0  0  0  0  0  0
   26.6152  -20.0614  -11.4348 N   0  0  0  0  0  0  0  0  0  0  0  0
   25.4859  -19.4847  -12.2356 C   0  0  0  0  0  0  0  0  0  0  0  0
   24.6395  -20.5955  -12.7519 C   0  0  0  0  0  0  0  0  0  0  0  0
   25.1684  -21.4699  -13.7829 C   0  0  0  0  0  0  0  0  0  0  0  0
   24.4738  -22.5964  -14.4057 C   0  0  2  0  0  0  0  0  0  0  0  0
   25.3898  -22.9881  -15.5430 N   0  0  0  0  0  0  0  0  0  0  0  0
   23.1891  -22.3434  -15.1086 C   0  0  0  0  0  0  0  0  0  0  0  0
   23.1444  -21.7221  -16.1894 O   0  0  0  0  0  0  0  0  0  0  0  0
   28.2872  -20.9853   -9.8120 C   0  0  0  0  0  0  0  0  0  0  0  0
   17.8702  -26.0111  -15.6156 S   0  0  0  0  0  0  0  0  0  0  0  0
   17.0661  -24.4068  -15.4285 C   0  0  0  0  0  0  0  0  0  0  0  0
   18.3023  -23.1208  -15.6077 C   0  0  0  0  0  0  0  0  0  0  0  0
   19.6626  -23.4167  -15.1221 C   0  0  1  0  0  0  0  0  0  0  0  0
   20.6715  -22.3631  -15.3270 N   0  0  0  0  0  0  0  0  0  0  0  0
   21.9264  -22.7827  -14.6123 C   0  0  0  0  0  0  0  0  0  0  0  0
   20.2729  -21.0467  -14.8345 O   0  0  0  0  0  0  0  0  0  0  0  0
   19.5594  -20.1233  -15.5686 O   0  0  0  0  0  0  0  0  0  0  0  0
  1  2  1  0
  3  2  1  0
  3 13  1  0
  4  3  2  0
  5  6  1  0
  6  8  1  0
  7  6  2  0
  8  9  1  0
  9 10  1  0
 10 11  1  0
 12 11  1  6
 12 13  1  0
 14 12  1  0
 14 21  1  0
 15 14  2  0
 17 16  1  0
 18 19  1  0
 18 17  1  0
 20 21  1  0
 20 19  1  6
 22 20  1  0
 23 22  1  0
 24 22  2  0
M  END
$$$$
