GRM.pdb
     RDKit          3D

 24 23  0  0  1  0  0  0  0  0999 V2000
   27.8473  -21.9045  -16.1993 N   0  0  0  0  0  0  0  0  0  0  0  0
   27.5064  -21.0050  -15.1332 C   0  0  0  0  0  0  0  0  0  0  0  0
   26.3390  -21.5359  -14.3982 C   0  0  0  0  0  0  0  0  0  0  0  0
   25.7481  -22.5458  -14.8441 O   0  0  0  0  0  0  0  0  0  0  0  0
   29.3409  -20.7042   -8.0386 N   0  0  0  0  0  0  0  0  0  0  0  0
   29.2719  -21.1472   -9.3704 C   0  0  0  0  0  0  0  0  0  0  0  0
   30.2992  -21.6971   -9.9645 N   0  0  0  0  0  0  0  0  0  0  0  0
   28.0840  -21.0198  -10.1359 N   0  0  0  0  0  0  0  0  0  0  0  0
   26.8888  -20.4111   -9.4650 C   0  0  0  0  0  0  0  0  0  0  0  0
   25.8017  -20.2425  -10.4682 C   0  0  0  0  0  0  0  0  0  0  0  0
   25.1650  -21.4205  -11.0287 C   0  0  0  0  0  0  0  0  0  0  0  0
   24.7475  -21.6030  -12.4185 C   0  0  2  0  0  0  0  0  0  0  0  0
   25.8591  -20.9490  -13.2076 N   0  0  0  0  0  0  0  0  0  0  0  0
   23.5460  -20.8763  -12.9050 C   0  0  0  0  0  0  0  0  0  0  0  0
   23.5302  -19.6336  -13.0123 O   0  0  0  0  0  0  0  0  0  0  0  0
   30.2411  -22.0019  -10.9515 C   0  0  0  0  0  0  0  0  0  0  0  0
   19.7465  -22.9214  -17.5724 S   0  0  0  0  0  0  0  0  0  0  0  0
   18.5382  -21.8215  -16.8070 C   0  0  0  0  0  0  0  0  0  0  0  0
   19.3504  -20.8929  -15.5063 C   0  0  0  0  0  0  0  0  0  0  0  0
   20.5182  -21.5163  -14.8571 C   0  0  1  0  0  0  0  0  0  0  0  0
   21.1996  -20.7109  -13.8290 N   0  0  0  0  0  0  0  0  0  0  0  0
   22.3357  -21.5300  -13.2812 C   0  0  0  0  0  0  0  0  0  0  0  0
   20.3412  -20.3039  -12.7192 O   0  0  0  0  0  0  0  0  0  0  0  0
   19.5455  -19.1780  -12.7217 O   0  0  0  0  0  0  0  0  0  0  0  0
  1  2  1  0
  3  2  1  0
  3 13  1  0
  4  3  2  0
  5  6  1  0
  6  8  1  0
  7  6  2  0
  8  9  1  0
  9 10  1  0
 10 11  1  0
 12 11  1  1
 12 13  1  0
 14 12  1  0
 14 21  1  0
 15 14  2  0
 17 16  1  0
 18 19  1  0
 18 17  1  0
 20 21  1  0
 20 19  1  6
 22 20  1  0
 23 22  1  0
 24 22  2  0
M  END
$$$$
