GRM.pdb
     RDKit          3D

 24 23  0  0  1  0  0  0  0  0999 V2000
   28.3890  -21.0891  -15.8743 N   0  0  0  0  0  0  0  0  0  0  0  0
   27.5852  -21.8757  -14.9815 C   0  0  0  0  0  0  0  0  0  0  0  0
   27.0215  -21.0021  -13.9308 C   0  0  0  0  0  0  0  0  0  0  0  0
   27.4033  -19.8117  -13.8608 O   0  0  0  0  0  0  0  0  0  0  0  0
   19.7289  -21.8389  -12.4465 N   0  0  0  0  0  0  0  0  0  0  0  0
   20.0317  -20.6732  -11.7223 C   0  0  0  0  0  0  0  0  0  0  0  0
   19.3096  -20.2938  -10.6999 N   0  0  0  0  0  0  0  0  0  0  0  0
   21.1360  -19.8507  -12.0649 N   0  0  0  0  0  0  0  0  0  0  0  0
   21.7682  -20.0631  -13.4081 C   0  0  0  0  0  0  0  0  0  0  0  0
   23.2375  -19.8521  -13.2923 C   0  0  0  0  0  0  0  0  0  0  0  0
   23.9906  -20.6244  -12.3210 C   0  0  0  0  0  0  0  0  0  0  0  0
   25.4175  -20.4942  -12.0267 C   0  0  2  0  0  0  0  0  0  0  0  0
   26.0651  -21.4559  -12.9972 N   0  0  0  0  0  0  0  0  0  0  0  0
   25.9241  -20.9796  -10.7167 C   0  0  0  0  0  0  0  0  0  0  0  0
   26.1227  -22.1917  -10.4989 O   0  0  0  0  0  0  0  0  0  0  0  0
   19.5832  -19.4735  -10.1320 C   0  0  0  0  0  0  0  0  0  0  0  0
   27.7970  -17.7614   -4.4336 S   0  0  0  0  0  0  0  0  0  0  0  0
   28.8784  -18.8783   -5.3493 C   0  0  0  0  0  0  0  0  0  0  0  0
   27.8642  -20.0668   -6.2283 C   0  0  0  0  0  0  0  0  0  0  0  0
   27.5057  -19.7509   -7.6232 C   0  0  1  0  0  0  0  0  0  0  0  0
   26.6184  -20.7111   -8.3016 N   0  0  0  0  0  0  0  0  0  0  0  0
   26.2183  -20.1136   -9.6225 C   0  0  0  0  0  0  0  0  0  0  0  0
   25.4076  -21.0411   -7.5538 O   0  0  0  0  0  0  0  0  0  0  0  0
   25.3766  -21.8531   -6.4401 O   0  0  0  0  0  0  0  0  0  0  0  0
  1  2  1  0
  3  2  1  0
  3 13  1  0
  4  3  2  0
  5  6  1  0
  6  8  1  0
  7  6  2  0
  8  9  1  0
  9 10  1  0
 10 11  1  0
 12 11  1  1
 12 13  1  0
 14 12  1  0
 14 21  1  0
 15 14  2  0
 17 16  1  0
 18 19  1  0
 18 17  1  0
 20 21  1  0
 20 19  1  6
 22 20  1  0
 23 22  1  0
 24 22  2  0
M  END
$$$$
