GRM.pdb
     RDKit          3D

 24 23  0  0  1  0  0  0  0  0999 V2000
   29.2970  -19.6864  -15.9237 N   0  0  0  0  0  0  0  0  0  0  0  0
   28.5682  -20.8105  -15.4069 C   0  0  0  0  0  0  0  0  0  0  0  0
   27.4837  -20.3285  -14.5257 C   0  0  0  0  0  0  0  0  0  0  0  0
   27.3260  -19.0956  -14.3748 O   0  0  0  0  0  0  0  0  0  0  0  0
   19.0893  -21.5632  -12.7059 N   0  0  0  0  0  0  0  0  0  0  0  0
   19.3338  -20.4847  -13.5730 C   0  0  0  0  0  0  0  0  0  0  0  0
   18.3653  -19.7205  -14.0074 N   0  0  0  0  0  0  0  0  0  0  0  0
   20.6438  -20.1718  -14.0195 N   0  0  0  0  0  0  0  0  0  0  0  0
   21.7832  -20.9390  -13.4177 C   0  0  0  0  0  0  0  0  0  0  0  0
   23.0490  -20.5369  -14.0905 C   0  0  0  0  0  0  0  0  0  0  0  0
   24.2797  -21.2323  -13.7602 C   0  0  0  0  0  0  0  0  0  0  0  0
   25.4346  -20.6682  -13.0621 C   0  0  2  0  0  0  0  0  0  0  0  0
   26.6130  -21.2048  -13.8428 N   0  0  0  0  0  0  0  0  0  0  0  0
   25.7327  -21.1332  -11.6825 C   0  0  0  0  0  0  0  0  0  0  0  0
   25.8481  -22.3449  -11.4095 O   0  0  0  0  0  0  0  0  0  0  0  0
   18.5525  -18.9572  -14.6802 C   0  0  0  0  0  0  0  0  0  0  0  0
   29.2448  -18.6576   -6.8467 S   0  0  0  0  0  0  0  0  0  0  0  0
   27.8346  -19.2186   -5.8709 C   0  0  0  0  0  0  0  0  0  0  0  0
   26.7904  -20.2428   -6.9076 C   0  0  0  0  0  0  0  0  0  0  0  0
   26.7332  -19.9159   -8.3441 C   0  0  1  0  0  0  0  0  0  0  0  0
   25.9122  -20.8059   -9.1830 N   0  0  0  0  0  0  0  0  0  0  0  0
   25.9072  -20.2467  -10.5791 C   0  0  0  0  0  0  0  0  0  0  0  0
   24.5296  -20.9477   -8.7330 O   0  0  0  0  0  0  0  0  0  0  0  0
   24.1382  -21.6913   -7.6400 O   0  0  0  0  0  0  0  0  0  0  0  0
  1  2  1  0
  3  2  1  0
  3 13  1  0
  4  3  2  0
  5  6  1  0
  6  8  1  0
  7  6  2  0
  8  9  1  0
  9 10  1  0
 10 11  1  0
 12 11  1  6
 12 13  1  0
 14 12  1  0
 14 21  1  0
 15 14  2  0
 17 16  1  0
 18 19  1  0
 18 17  1  0
 20 21  1  0
 20 19  1  6
 22 20  1  0
 23 22  1  0
 24 22  2  0
M  END
$$$$
