YHN.pdb
     RDKit          3D

 31 32  0  0  1  0  0  0  0  0999 V2000
   22.1351  -11.0594  -19.6971 O   0  0  0  0  0  0  0  0  0  0  0  0
   22.0479  -12.3391  -19.1254 C   0  0  0  0  0  0  0  0  0  0  0  0
   21.3010  -13.3079  -19.7775 C   0  0  0  0  0  0  0  0  0  0  0  0
   21.1778  -14.5877  -19.2634 C   0  0  0  0  0  0  0  0  0  0  0  0
   21.8071  -14.9306  -18.0716 C   0  0  0  0  0  0  0  0  0  0  0  0
   21.6416  -16.3089  -17.5733 C   0  0  0  0  0  0  0  0  0  0  0  0
   22.9863  -16.9578  -17.5420 C   0  0  2  0  0  0  0  0  0  0  0  0
   23.4807  -17.1084  -18.8945 N   0  0  0  0  0  0  0  0  0  0  0  0
   23.0046  -18.2558  -16.8081 C   0  0  0  0  0  0  0  0  0  0  0  0
   22.6047  -19.3131  -17.3503 O   0  0  0  0  0  0  0  0  0  0  0  0
   22.5404  -13.9609  -17.4417 C   0  0  0  0  0  0  0  0  0  0  0  0
   22.6698  -12.6763  -17.9480 C   0  0  0  0  0  0  0  0  0  0  0  0
   23.4772  -18.3589  -15.4562 N   0  0  0  0  0  0  0  0  0  0  0  0
   23.3877  -19.6055  -14.7219 C   0  0  1  0  0  0  0  0  0  0  0  0
   24.7065  -19.8772  -14.0724 C   0  0  0  0  0  0  0  0  0  0  0  0
   25.8283  -19.8639  -15.0262 C   0  0  0  0  0  0  0  0  0  0  0  0
   25.7207  -19.5870  -16.3676 C   0  0  0  0  0  0  0  0  0  0  0  0
   26.9273  -19.6610  -16.9319 N   0  0  0  0  0  0  0  0  0  0  0  0
   27.7852  -19.9820  -15.9531 C   0  0  0  0  0  0  0  0  0  0  0  0
   27.1366  -20.1094  -14.7889 N   0  0  0  0  0  0  0  0  0  0  0  0
   22.2861  -19.6056  -13.7255 C   0  0  0  0  0  0  0  0  0  0  0  0
   21.8382  -18.5597  -13.2421 O   0  0  0  0  0  0  0  0  0  0  0  0
   18.2476  -19.5480  -11.4585 N   0  0  0  0  0  0  0  0  0  0  0  0
   18.7055  -19.1264  -12.7329 C   0  0  0  0  0  0  0  0  0  0  0  0
   18.4872  -17.9360  -13.0698 O   0  0  0  0  0  0  0  0  0  0  0  0
   19.4118  -20.1066  -13.5941 C   0  0  0  0  0  0  0  0  0  0  0  0
   20.4007  -20.9375  -12.8066 C   0  0  2  0  0  0  0  0  0  0  0  0
   21.7348  -20.8394  -13.3197 N   0  0  0  0  0  0  0  0  0  0  0  0
   19.9511  -22.3385  -12.6491 C   0  0  0  0  0  0  0  0  0  0  0  0
   19.2479  -22.8000  -11.5503 O   0  0  0  0  0  0  0  0  0  0  0  0
   20.2191  -23.1595  -13.5588 O   0  0  0  0  0  0  0  0  0  0  0  0
  2  1  1  0
  3  2  2  0
  4  3  1  0
  5  4  2  0
  5 11  1  0
  6  5  1  0
  7  6  1  0
  7  8  1  6
  9  7  1  0
  9 13  1  0
 10  9  2  0
 11 12  2  0
 12  2  1  0
 14 13  1  0
 14 21  1  0
 14 15  1  1
 16 15  1  0
 17 16  2  0
 18 19  1  0
 18 17  1  0
 19 20  2  0
 20 16  1  0
 21 28  1  0
 22 21  2  0
 23 24  1  0
 24 26  1  0
 25 24  2  0
 27 26  1  6
 27 29  1  0
 28 27  1  0
 29 31  2  0
 29 30  1  0
M  END
$$$$
