YHN.pdb
     RDKit          3D

 31 32  0  0  1  0  0  0  0  0999 V2000
   23.0525  -12.0761  -25.8517 O   0  0  0  0  0  0  0  0  0  0  0  0
   22.6950  -11.8884  -24.5066 C   0  0  0  0  0  0  0  0  0  0  0  0
   23.3443  -10.9036  -23.7784 C   0  0  0  0  0  0  0  0  0  0  0  0
   23.0355  -10.6713  -22.4487 C   0  0  0  0  0  0  0  0  0  0  0  0
   22.0582  -11.4277  -21.8109 C   0  0  0  0  0  0  0  0  0  0  0  0
   21.7708  -11.1342  -20.3944 C   0  0  0  0  0  0  0  0  0  0  0  0
   22.7197  -11.9228  -19.5531 C   0  0  2  0  0  0  0  0  0  0  0  0
   22.5331  -13.3354  -19.8107 N   0  0  0  0  0  0  0  0  0  0  0  0
   22.6202  -11.6174  -18.0968 C   0  0  0  0  0  0  0  0  0  0  0  0
   21.7412  -12.1523  -17.3805 O   0  0  0  0  0  0  0  0  0  0  0  0
   21.4277  -12.3957  -22.5460 C   0  0  0  0  0  0  0  0  0  0  0  0
   21.7297  -12.6366  -23.8778 C   0  0  0  0  0  0  0  0  0  0  0  0
   23.5181  -10.7039  -17.4479 N   0  0  0  0  0  0  0  0  0  0  0  0
   23.3506  -10.3496  -16.0523 C   0  0  1  0  0  0  0  0  0  0  0  0
   24.6533  -10.5469  -15.3460 C   0  0  0  0  0  0  0  0  0  0  0  0
   25.3094  -11.8172  -15.6984 C   0  0  0  0  0  0  0  0  0  0  0  0
   24.8398  -12.7182  -16.6232 C   0  0  0  0  0  0  0  0  0  0  0  0
   25.6769  -13.7545  -16.6945 N   0  0  0  0  0  0  0  0  0  0  0  0
   26.6636  -13.5065  -15.8216 C   0  0  0  0  0  0  0  0  0  0  0  0
   26.4579  -12.3349  -15.2073 N   0  0  0  0  0  0  0  0  0  0  0  0
   22.8427   -8.9657  -15.8697 C   0  0  0  0  0  0  0  0  0  0  0  0
   23.1598   -8.0444  -16.6306 O   0  0  0  0  0  0  0  0  0  0  0  0
   20.0422   -5.0244  -14.4297 N   0  0  0  0  0  0  0  0  0  0  0  0
   20.0693   -5.5919  -15.7292 C   0  0  0  0  0  0  0  0  0  0  0  0
   19.5522   -4.9347  -16.6667 O   0  0  0  0  0  0  0  0  0  0  0  0
   20.7013   -6.9220  -15.9106 C   0  0  0  0  0  0  0  0  0  0  0  0
   21.3414   -7.4196  -14.6334 C   0  0  2  0  0  0  0  0  0  0  0  0
   21.9707   -8.6966  -14.7936 N   0  0  0  0  0  0  0  0  0  0  0  0
   20.4036   -7.3846  -13.4893 C   0  0  0  0  0  0  0  0  0  0  0  0
   19.7324   -6.2453  -13.0814 O   0  0  0  0  0  0  0  0  0  0  0  0
   20.2009   -8.4437  -12.8484 O   0  0  0  0  0  0  0  0  0  0  0  0
  2  1  1  0
  3  2  2  0
  4  3  1  0
  5  4  2  0
  5 11  1  0
  6  5  1  0
  7  6  1  0
  7  8  1  1
  9  7  1  0
  9 13  1  0
 10  9  2  0
 11 12  2  0
 12  2  1  0
 14 13  1  0
 14 21  1  0
 14 15  1  1
 16 15  1  0
 17 16  2  0
 18 19  1  0
 18 17  1  0
 19 20  2  0
 20 16  1  0
 21 28  1  0
 22 21  2  0
 23 24  1  0
 24 26  1  0
 25 24  2  0
 27 26  1  6
 27 29  1  0
 28 27  1  0
 29 31  2  0
 29 30  1  0
M  END
$$$$
