YHN.pdb
     RDKit          3D

 31 32  0  0  1  0  0  0  0  0999 V2000
   28.3528    0.9860  -17.9655 O   0  0  0  0  0  0  0  0  0  0  0  0
   27.3370    0.0236  -17.8468 C   0  0  0  0  0  0  0  0  0  0  0  0
   27.3401   -0.8118  -16.7406 C   0  0  0  0  0  0  0  0  0  0  0  0
   26.3651   -1.7798  -16.5680 C   0  0  0  0  0  0  0  0  0  0  0  0
   25.3531   -1.9346  -17.5092 C   0  0  0  0  0  0  0  0  0  0  0  0
   24.3412   -2.9810  -17.2715 C   0  0  0  0  0  0  0  0  0  0  0  0
   24.8685   -4.2702  -17.8100 C   0  0  2  0  0  0  0  0  0  0  0  0
   25.0963   -4.1408  -19.2341 N   0  0  0  0  0  0  0  0  0  0  0  0
   24.0015   -5.4438  -17.5019 C   0  0  0  0  0  0  0  0  0  0  0  0
   22.8923   -5.5966  -18.0661 O   0  0  0  0  0  0  0  0  0  0  0  0
   25.3662   -1.1005  -18.5950 C   0  0  0  0  0  0  0  0  0  0  0  0
   26.3381   -0.1283  -18.7774 C   0  0  0  0  0  0  0  0  0  0  0  0
   24.3901   -6.4485  -16.5527 N   0  0  0  0  0  0  0  0  0  0  0  0
   23.5135   -7.5572  -16.2308 C   0  0  1  0  0  0  0  0  0  0  0  0
   24.2836   -8.5659  -15.4407 C   0  0  0  0  0  0  0  0  0  0  0  0
   23.5185   -9.7975  -15.1834 C   0  0  0  0  0  0  0  0  0  0  0  0
   22.1805   -9.9651  -15.4466 C   0  0  0  0  0  0  0  0  0  0  0  0
   21.8123  -11.1979  -15.0942 N   0  0  0  0  0  0  0  0  0  0  0  0
   22.9097  -11.7993  -14.6134 C   0  0  0  0  0  0  0  0  0  0  0  0
   23.9556  -10.9649  -14.6595 N   0  0  0  0  0  0  0  0  0  0  0  0
   22.2886   -7.1278  -15.5084 C   0  0  0  0  0  0  0  0  0  0  0  0
   22.3061   -6.2219  -14.6674 O   0  0  0  0  0  0  0  0  0  0  0  0
   17.5338   -4.5855  -16.1901 N   0  0  0  0  0  0  0  0  0  0  0  0
   18.3766   -5.2108  -15.2361 C   0  0  0  0  0  0  0  0  0  0  0  0
   17.9744   -5.2686  -14.0473 O   0  0  0  0  0  0  0  0  0  0  0  0
   19.6791   -5.7583  -15.6893 C   0  0  0  0  0  0  0  0  0  0  0  0
   19.8099   -7.2321  -15.3744 C   0  0  2  0  0  0  0  0  0  0  0  0
   21.0678   -7.7755  -15.7928 N   0  0  0  0  0  0  0  0  0  0  0  0
   18.6563   -8.0134  -15.8729 C   0  0  0  0  0  0  0  0  0  0  0  0
   17.8081   -8.7377  -15.0537 O   0  0  0  0  0  0  0  0  0  0  0  0
   18.4283   -8.0244  -17.1063 O   0  0  0  0  0  0  0  0  0  0  0  0
  2  1  1  0
  3  2  2  0
  4  3  1  0
  5  4  2  0
  5 11  1  0
  6  5  1  0
  7  6  1  0
  7  8  1  6
  9  7  1  0
  9 13  1  0
 10  9  2  0
 11 12  2  0
 12  2  1  0
 14 13  1  0
 14 21  1  0
 14 15  1  1
 16 15  1  0
 17 16  2  0
 18 19  1  0
 18 17  1  0
 19 20  2  0
 20 16  1  0
 21 28  1  0
 22 21  2  0
 23 24  1  0
 24 26  1  0
 25 24  2  0
 27 26  1  6
 27 29  1  0
 28 27  1  0
 29 31  2  0
 29 30  1  0
M  END
$$$$
