YHN.pdb
     RDKit          3D

 31 32  0  0  1  0  0  0  0  0999 V2000
   36.6892   -2.3661  -15.8410 O   0  0  0  0  0  0  0  0  0  0  0  0
   36.4094   -3.6251  -15.2853 C   0  0  0  0  0  0  0  0  0  0  0  0
   37.1768   -4.0649  -14.2179 C   0  0  0  0  0  0  0  0  0  0  0  0
   36.9488   -5.2967  -13.6279 C   0  0  0  0  0  0  0  0  0  0  0  0
   35.9356   -6.1251  -14.0980 C   0  0  0  0  0  0  0  0  0  0  0  0
   35.7381   -7.4248  -13.4293 C   0  0  0  0  0  0  0  0  0  0  0  0
   36.3589   -8.4849  -14.2783 C   0  0  2  0  0  0  0  0  0  0  0  0
   37.7572   -8.1751  -14.4911 N   0  0  0  0  0  0  0  0  0  0  0  0
   35.6477   -8.7060  -15.5703 C   0  0  0  0  0  0  0  0  0  0  0  0
   36.2663   -9.0756  -16.5963 O   0  0  0  0  0  0  0  0  0  0  0  0
   35.1880   -5.6740  -15.1528 C   0  0  0  0  0  0  0  0  0  0  0  0
   35.4085   -4.4424  -15.7509 C   0  0  0  0  0  0  0  0  0  0  0  0
   34.2316   -8.5088  -15.7028 N   0  0  0  0  0  0  0  0  0  0  0  0
   33.5083   -9.0066  -16.8561 C   0  0  1  0  0  0  0  0  0  0  0  0
   33.6841  -10.4893  -16.9313 C   0  0  0  0  0  0  0  0  0  0  0  0
   32.9855  -11.0915  -18.0791 C   0  0  0  0  0  0  0  0  0  0  0  0
   32.1962  -10.4064  -18.9709 C   0  0  0  0  0  0  0  0  0  0  0  0
   31.7215  -11.2559  -19.8834 N   0  0  0  0  0  0  0  0  0  0  0  0
   32.2083  -12.4642  -19.5672 C   0  0  0  0  0  0  0  0  0  0  0  0
   32.9780  -12.3845  -18.4747 N   0  0  0  0  0  0  0  0  0  0  0  0
   32.0703   -8.6348  -16.8347 C   0  0  0  0  0  0  0  0  0  0  0  0
   31.4352   -8.5294  -15.7793 O   0  0  0  0  0  0  0  0  0  0  0  0
   31.1195   -3.6944  -18.9800 N   0  0  0  0  0  0  0  0  0  0  0  0
   30.6744   -4.7110  -18.0968 C   0  0  0  0  0  0  0  0  0  0  0  0
   29.6082   -4.5113  -17.4631 O   0  0  0  0  0  0  0  0  0  0  0  0
   31.4862   -5.9463  -17.9686 C   0  0  0  0  0  0  0  0  0  0  0  0
   30.6821   -7.1845  -18.2984 C   0  0  2  0  0  0  0  0  0  0  0  0
   31.4105   -8.3947  -18.0586 N   0  0  0  0  0  0  0  0  0  0  0  0
   30.1024   -7.1271  -19.6587 C   0  0  0  0  0  0  0  0  0  0  0  0
   28.8025   -6.7330  -19.9232 O   0  0  0  0  0  0  0  0  0  0  0  0
   30.8242   -7.4525  -20.6316 O   0  0  0  0  0  0  0  0  0  0  0  0
  2  1  1  0
  3  2  2  0
  4  3  1  0
  5  4  2  0
  5 11  1  0
  6  5  1  0
  7  6  1  0
  7  8  1  6
  9  7  1  0
  9 13  1  0
 10  9  2  0
 11 12  2  0
 12  2  1  0
 14 13  1  0
 14 21  1  0
 14 15  1  1
 16 15  1  0
 17 16  2  0
 18 19  1  0
 18 17  1  0
 19 20  2  0
 20 16  1  0
 21 28  1  0
 22 21  2  0
 23 24  1  0
 24 26  1  0
 25 24  2  0
 27 26  1  6
 27 29  1  0
 28 27  1  0
 29 31  2  0
 29 30  1  0
M  END
$$$$
