YHN.pdb
     RDKit          3D

 31 32  0  0  1  0  0  0  0  0999 V2000
   26.7263  -11.1713  -22.9517 O   0  0  0  0  0  0  0  0  0  0  0  0
   25.7421  -10.4556  -22.2508 C   0  0  0  0  0  0  0  0  0  0  0  0
   26.0654   -9.9201  -21.0137 C   0  0  0  0  0  0  0  0  0  0  0  0
   25.1378   -9.2047  -20.2754 C   0  0  0  0  0  0  0  0  0  0  0  0
   23.8512   -9.0065  -20.7646 C   0  0  0  0  0  0  0  0  0  0  0  0
   22.9066   -8.2352  -19.9349 C   0  0  0  0  0  0  0  0  0  0  0  0
   22.2286   -9.1809  -18.9990 C   0  0  2  0  0  0  0  0  0  0  0  0
   21.5144  -10.1841  -19.7606 N   0  0  0  0  0  0  0  0  0  0  0  0
   21.3345   -8.5064  -18.0143 C   0  0  0  0  0  0  0  0  0  0  0  0
   20.2829   -7.9308  -18.3812 O   0  0  0  0  0  0  0  0  0  0  0  0
   23.5501   -9.5426  -21.9880 C   0  0  0  0  0  0  0  0  0  0  0  0
   24.4715  -10.2609  -22.7351 C   0  0  0  0  0  0  0  0  0  0  0  0
   21.6304   -8.4829  -16.6095 N   0  0  0  0  0  0  0  0  0  0  0  0
   20.7111   -7.8909  -15.6578 C   0  0  1  0  0  0  0  0  0  0  0  0
   20.5434   -8.8270  -14.5044 C   0  0  0  0  0  0  0  0  0  0  0  0
   19.8160  -10.0555  -14.8648 C   0  0  0  0  0  0  0  0  0  0  0  0
   18.4505  -10.1609  -14.9747 C   0  0  0  0  0  0  0  0  0  0  0  0
   18.1303  -11.4099  -15.3169 N   0  0  0  0  0  0  0  0  0  0  0  0
   19.2848  -12.0832  -15.4206 C   0  0  0  0  0  0  0  0  0  0  0  0
   20.3193  -11.2777  -15.1499 N   0  0  0  0  0  0  0  0  0  0  0  0
   21.1463   -6.5460  -15.2015 C   0  0  0  0  0  0  0  0  0  0  0  0
   22.3380   -6.2643  -15.0318 O   0  0  0  0  0  0  0  0  0  0  0  0
   22.7088   -1.8325  -14.4677 N   0  0  0  0  0  0  0  0  0  0  0  0
   21.7358   -2.1805  -15.4392 C   0  0  0  0  0  0  0  0  0  0  0  0
   21.1467   -1.2470  -16.0392 O   0  0  0  0  0  0  0  0  0  0  0  0
   21.4669   -3.6174  -15.6926 C   0  0  0  0  0  0  0  0  0  0  0  0
   20.5196   -4.2017  -14.6680 C   0  0  2  0  0  0  0  0  0  0  0  0
   20.1672   -5.5604  -14.9550 N   0  0  0  0  0  0  0  0  0  0  0  0
   19.3374   -3.3398  -14.4461 C   0  0  0  0  0  0  0  0  0  0  0  0
   19.2620   -2.3816  -13.4506 O   0  0  0  0  0  0  0  0  0  0  0  0
   18.3440   -3.4802  -15.1991 O   0  0  0  0  0  0  0  0  0  0  0  0
  2  1  1  0
  3  2  2  0
  4  3  1  0
  5  4  2  0
  5 11  1  0
  6  5  1  0
  7  6  1  0
  7  8  1  6
  9  7  1  0
  9 13  1  0
 10  9  2  0
 11 12  2  0
 12  2  1  0
 14 13  1  0
 14 21  1  0
 14 15  1  1
 16 15  1  0
 17 16  2  0
 18 19  1  0
 18 17  1  0
 19 20  2  0
 20 16  1  0
 21 28  1  0
 22 21  2  0
 23 24  1  0
 24 26  1  0
 25 24  2  0
 27 26  1  6
 27 29  1  0
 28 27  1  0
 29 31  2  0
 29 30  1  0
M  END
$$$$
