YHN.pdb
     RDKit          3D

 31 32  0  0  1  0  0  0  0  0999 V2000
   28.6653  -20.4998   -5.9056 O   0  0  0  0  0  0  0  0  0  0  0  0
   28.1461  -20.3011   -7.1952 C   0  0  0  0  0  0  0  0  0  0  0  0
   26.7958  -20.0185   -7.3308 C   0  0  0  0  0  0  0  0  0  0  0  0
   26.2259  -19.8127   -8.5759 C   0  0  0  0  0  0  0  0  0  0  0  0
   27.0039  -19.8852   -9.7264 C   0  0  0  0  0  0  0  0  0  0  0  0
   26.3426  -19.6554  -11.0246 C   0  0  0  0  0  0  0  0  0  0  0  0
   25.5472  -20.8727  -11.3645 C   0  0  2  0  0  0  0  0  0  0  0  0
   26.4440  -21.9854  -11.5972 N   0  0  0  0  0  0  0  0  0  0  0  0
   24.6161  -20.6747  -12.5124 C   0  0  0  0  0  0  0  0  0  0  0  0
   24.7710  -19.7258  -13.3170 O   0  0  0  0  0  0  0  0  0  0  0  0
   28.3354  -20.1652   -9.5728 C   0  0  0  0  0  0  0  0  0  0  0  0
   28.9157  -20.3733   -8.3307 C   0  0  0  0  0  0  0  0  0  0  0  0
   23.5058  -21.5531  -12.7518 N   0  0  0  0  0  0  0  0  0  0  0  0
   22.6411  -21.3751  -13.9015 C   0  0  1  0  0  0  0  0  0  0  0  0
   22.9428  -22.4452  -14.9008 C   0  0  0  0  0  0  0  0  0  0  0  0
   24.2680  -22.2900  -15.5239 C   0  0  0  0  0  0  0  0  0  0  0  0
   25.3915  -23.0006  -15.1770 C   0  0  0  0  0  0  0  0  0  0  0  0
   26.4137  -22.6105  -15.9403 N   0  0  0  0  0  0  0  0  0  0  0  0
   25.9362  -21.6627  -16.7593 C   0  0  0  0  0  0  0  0  0  0  0  0
   24.6353  -21.4544  -16.5215 N   0  0  0  0  0  0  0  0  0  0  0  0
   21.2006  -21.3668  -13.5391 C   0  0  0  0  0  0  0  0  0  0  0  0
   20.7510  -22.0605  -12.6199 O   0  0  0  0  0  0  0  0  0  0  0  0
   18.1778  -18.9653  -11.7771 N   0  0  0  0  0  0  0  0  0  0  0  0
   18.0133  -18.3305  -13.0347 C   0  0  0  0  0  0  0  0  0  0  0  0
   17.5950  -17.1459  -13.0430 O   0  0  0  0  0  0  0  0  0  0  0  0
   18.3406  -19.0937  -14.2642 C   0  0  0  0  0  0  0  0  0  0  0  0
   18.9268  -20.4511  -13.9443 C   0  0  2  0  0  0  0  0  0  0  0  0
   20.3196  -20.5402  -14.2680 N   0  0  0  0  0  0  0  0  0  0  0  0
   18.1327  -21.5537  -14.5305 C   0  0  0  0  0  0  0  0  0  0  0  0
   18.5568  -22.3195  -15.6022 O   0  0  0  0  0  0  0  0  0  0  0  0
   17.0112  -21.8144  -14.0329 O   0  0  0  0  0  0  0  0  0  0  0  0
  2  1  1  0
  3  2  2  0
  4  3  1  0
  5  4  2  0
  5 11  1  0
  6  5  1  0
  7  6  1  0
  7  8  1  6
  9  7  1  0
  9 13  1  0
 10  9  2  0
 11 12  2  0
 12  2  1  0
 14 13  1  0
 14 21  1  0
 14 15  1  6
 16 15  1  0
 17 16  2  0
 18 19  1  0
 18 17  1  0
 19 20  2  0
 20 16  1  0
 21 28  1  0
 22 21  2  0
 23 24  1  0
 24 26  1  0
 25 24  2  0
 27 26  1  6
 27 29  1  0
 28 27  1  0
 29 31  2  0
 29 30  1  0
M  END
$$$$
