YHN.pdb
     RDKit          3D

 31 32  0  0  1  0  0  0  0  0999 V2000
   29.4931  -14.0161  -15.1340 O   0  0  0  0  0  0  0  0  0  0  0  0
   28.5595  -13.1672  -15.7503 C   0  0  0  0  0  0  0  0  0  0  0  0
   28.0866  -12.0742  -15.0408 C   0  0  0  0  0  0  0  0  0  0  0  0
   27.1654  -11.2013  -15.5949 C   0  0  0  0  0  0  0  0  0  0  0  0
   26.6919  -11.4049  -16.8865 C   0  0  0  0  0  0  0  0  0  0  0  0
   25.7131  -10.4417  -17.4246 C   0  0  0  0  0  0  0  0  0  0  0  0
   24.3514  -10.8633  -16.9797 C   0  0  2  0  0  0  0  0  0  0  0  0
   24.2378  -12.3037  -17.0735 N   0  0  0  0  0  0  0  0  0  0  0  0
   23.2469  -10.1812  -17.7139 C   0  0  0  0  0  0  0  0  0  0  0  0
   22.7230  -10.7020  -18.7270 O   0  0  0  0  0  0  0  0  0  0  0  0
   27.1703  -12.4895  -17.5719 C   0  0  0  0  0  0  0  0  0  0  0  0
   28.0925  -13.3697  -17.0261 C   0  0  0  0  0  0  0  0  0  0  0  0
   22.7326   -8.9058  -17.3010 N   0  0  0  0  0  0  0  0  0  0  0  0
   21.6199   -8.2849  -17.9921 C   0  0  1  0  0  0  0  0  0  0  0  0
   20.4019   -9.1300  -17.7995 C   0  0  0  0  0  0  0  0  0  0  0  0
   20.0605   -9.3279  -16.3808 C   0  0  0  0  0  0  0  0  0  0  0  0
   20.9552   -9.2791  -15.3393 C   0  0  0  0  0  0  0  0  0  0  0  0
   20.3104   -9.5004  -14.1927 N   0  0  0  0  0  0  0  0  0  0  0  0
   19.0217   -9.6871  -14.5114 C   0  0  0  0  0  0  0  0  0  0  0  0
   18.8504   -9.5861  -15.8353 N   0  0  0  0  0  0  0  0  0  0  0  0
   21.3807   -6.8865  -17.5520 C   0  0  0  0  0  0  0  0  0  0  0  0
   21.6494   -6.5034  -16.4078 O   0  0  0  0  0  0  0  0  0  0  0  0
   20.2016   -2.3671  -15.4382 N   0  0  0  0  0  0  0  0  0  0  0  0
   19.5382   -3.0502  -16.4893 C   0  0  0  0  0  0  0  0  0  0  0  0
   18.6588   -2.4242  -17.1320 O   0  0  0  0  0  0  0  0  0  0  0  0
   19.9147   -4.4575  -16.7710 C   0  0  0  0  0  0  0  0  0  0  0  0
   20.5884   -4.6007  -18.1179 C   0  0  2  0  0  0  0  0  0  0  0  0
   20.8299   -5.9681  -18.4707 N   0  0  0  0  0  0  0  0  0  0  0  0
   21.8015   -3.7602  -18.2268 C   0  0  0  0  0  0  0  0  0  0  0  0
   21.9624   -2.7637  -19.1735 O   0  0  0  0  0  0  0  0  0  0  0  0
   22.7407   -3.9564  -17.4189 O   0  0  0  0  0  0  0  0  0  0  0  0
  2  1  1  0
  3  2  2  0
  4  3  1  0
  5  4  2  0
  5 11  1  0
  6  5  1  0
  7  6  1  0
  7  8  1  6
  9  7  1  0
  9 13  1  0
 10  9  2  0
 11 12  2  0
 12  2  1  0
 14 13  1  0
 14 21  1  0
 14 15  1  1
 16 15  1  0
 17 16  2  0
 18 19  1  0
 18 17  1  0
 19 20  2  0
 20 16  1  0
 21 28  1  0
 22 21  2  0
 23 24  1  0
 24 26  1  0
 25 24  2  0
 27 26  1  1
 27 29  1  0
 28 27  1  0
 29 31  2  0
 29 30  1  0
M  END
$$$$
