YHN.pdb
     RDKit          3D

 31 32  0  0  1  0  0  0  0  0999 V2000
   31.3360  -19.9123  -24.4521 O   0  0  0  0  0  0  0  0  0  0  0  0
   30.3705  -19.6198  -23.4751 C   0  0  0  0  0  0  0  0  0  0  0  0
   30.5880  -20.0530  -22.1764 C   0  0  0  0  0  0  0  0  0  0  0  0
   29.6728  -19.7951  -21.1697 C   0  0  0  0  0  0  0  0  0  0  0  0
   28.5063  -19.0891  -21.4434 C   0  0  0  0  0  0  0  0  0  0  0  0
   27.5694  -18.8428  -20.3312 C   0  0  0  0  0  0  0  0  0  0  0  0
   27.4804  -17.3680  -20.1147 C   0  0  2  0  0  0  0  0  0  0  0  0
   28.7451  -16.8777  -19.6081 N   0  0  0  0  0  0  0  0  0  0  0  0
   26.3473  -16.9623  -19.2342 C   0  0  0  0  0  0  0  0  0  0  0  0
   26.5091  -16.8019  -18.0013 O   0  0  0  0  0  0  0  0  0  0  0  0
   28.3087  -18.6692  -22.7316 C   0  0  0  0  0  0  0  0  0  0  0  0
   29.2186  -18.9226  -23.7469 C   0  0  0  0  0  0  0  0  0  0  0  0
   25.0262  -16.7366  -19.7496 N   0  0  0  0  0  0  0  0  0  0  0  0
   23.9395  -16.3313  -18.8801 C   0  0  1  0  0  0  0  0  0  0  0  0
   22.9545  -15.5390  -19.6781 C   0  0  0  0  0  0  0  0  0  0  0  0
   21.7992  -15.0924  -18.8818 C   0  0  0  0  0  0  0  0  0  0  0  0
   21.6085  -15.3611  -17.5480 C   0  0  0  0  0  0  0  0  0  0  0  0
   20.4637  -14.8072  -17.1453 N   0  0  0  0  0  0  0  0  0  0  0  0
   19.9397  -14.1961  -18.2173 C   0  0  0  0  0  0  0  0  0  0  0  0
   20.7362  -14.3582  -19.2810 N   0  0  0  0  0  0  0  0  0  0  0  0
   23.2856  -17.4821  -18.2060 C   0  0  0  0  0  0  0  0  0  0  0  0
   23.0917  -18.5577  -18.7838 O   0  0  0  0  0  0  0  0  0  0  0  0
   22.5925  -20.6699  -13.7545 N   0  0  0  0  0  0  0  0  0  0  0  0
   21.8478  -19.4783  -13.9467 C   0  0  0  0  0  0  0  0  0  0  0  0
   20.6746  -19.4416  -13.4987 O   0  0  0  0  0  0  0  0  0  0  0  0
   22.4886  -18.3474  -14.6620 C   0  0  0  0  0  0  0  0  0  0  0  0
   22.2395  -18.4111  -16.1528 C   0  0  2  0  0  0  0  0  0  0  0  0
   22.8739  -17.3412  -16.8638 N   0  0  0  0  0  0  0  0  0  0  0  0
   20.8000  -18.5348  -16.4728 C   0  0  0  0  0  0  0  0  0  0  0  0
   20.1591  -19.7450  -16.6717 O   0  0  0  0  0  0  0  0  0  0  0  0
   20.1161  -17.4878  -16.5709 O   0  0  0  0  0  0  0  0  0  0  0  0
  2  1  1  0
  3  2  2  0
  4  3  1  0
  5  4  2  0
  5 11  1  0
  6  5  1  0
  7  6  1  0
  7  8  1  1
  9  7  1  0
  9 13  1  0
 10  9  2  0
 11 12  2  0
 12  2  1  0
 14 13  1  0
 14 21  1  0
 14 15  1  6
 16 15  1  0
 17 16  2  0
 18 19  1  0
 18 17  1  0
 19 20  2  0
 20 16  1  0
 21 28  1  0
 22 21  2  0
 23 24  1  0
 24 26  1  0
 25 24  2  0
 27 26  1  1
 27 29  1  0
 28 27  1  0
 29 31  2  0
 29 30  1  0
M  END
$$$$
