YHN.pdb
     RDKit          3D

 31 32  0  0  1  0  0  0  0  0999 V2000
   32.5856  -30.5193  -18.8589 O   0  0  0  0  0  0  0  0  0  0  0  0
   31.6597  -29.4718  -18.7253 C   0  0  0  0  0  0  0  0  0  0  0  0
   32.0238  -28.2053  -19.1555 C   0  0  0  0  0  0  0  0  0  0  0  0
   31.1544  -27.1327  -19.0501 C   0  0  0  0  0  0  0  0  0  0  0  0
   29.8863  -27.3059  -18.5062 C   0  0  0  0  0  0  0  0  0  0  0  0
   29.0030  -26.1277  -18.4210 C   0  0  0  0  0  0  0  0  0  0  0  0
   29.4013  -25.3324  -17.2214 C   0  0  2  0  0  0  0  0  0  0  0  0
   29.0575  -26.0653  -16.0209 N   0  0  0  0  0  0  0  0  0  0  0  0
   28.8280  -23.9559  -17.2018 C   0  0  0  0  0  0  0  0  0  0  0  0
   27.7850  -23.6969  -16.5562 O   0  0  0  0  0  0  0  0  0  0  0  0
   29.5443  -28.5637  -18.0869 C   0  0  0  0  0  0  0  0  0  0  0  0
   30.4076  -29.6443  -18.1876 C   0  0  0  0  0  0  0  0  0  0  0  0
   29.4364  -22.8680  -17.9147 N   0  0  0  0  0  0  0  0  0  0  0  0
   28.8775  -21.5314  -17.8653 C   0  0  1  0  0  0  0  0  0  0  0  0
   29.9040  -20.5622  -18.3570 C   0  0  0  0  0  0  0  0  0  0  0  0
   29.4445  -19.1642  -18.3023 C   0  0  0  0  0  0  0  0  0  0  0  0
   28.1831  -18.7617  -17.9356 C   0  0  0  0  0  0  0  0  0  0  0  0
   28.1096  -17.4310  -17.9953 N   0  0  0  0  0  0  0  0  0  0  0  0
   29.3145  -17.0016  -18.3964 C   0  0  0  0  0  0  0  0  0  0  0  0
   30.1384  -18.0394  -18.5878 N   0  0  0  0  0  0  0  0  0  0  0  0
   27.6115  -21.4112  -18.6328 C   0  0  0  0  0  0  0  0  0  0  0  0
   27.5041  -21.8286  -19.7914 O   0  0  0  0  0  0  0  0  0  0  0  0
   23.8122  -22.6069  -19.8810 N   0  0  0  0  0  0  0  0  0  0  0  0
   23.3605  -22.1954  -18.6011 C   0  0  0  0  0  0  0  0  0  0  0  0
   22.3805  -22.8028  -18.1022 O   0  0  0  0  0  0  0  0  0  0  0  0
   24.0636  -21.0774  -17.9250 C   0  0  0  0  0  0  0  0  0  0  0  0
   25.2627  -20.6056  -18.7176 C   0  0  2  0  0  0  0  0  0  0  0  0
   26.4975  -20.8014  -18.0179 N   0  0  0  0  0  0  0  0  0  0  0  0
   25.0972  -19.2189  -19.2068 C   0  0  0  0  0  0  0  0  0  0  0  0
   25.9196  -18.1701  -18.8341 O   0  0  0  0  0  0  0  0  0  0  0  0
   24.1610  -18.9729  -20.0045 O   0  0  0  0  0  0  0  0  0  0  0  0
  2  1  1  0
  3  2  2  0
  4  3  1  0
  5  4  2  0
  5 11  1  0
  6  5  1  0
  7  6  1  0
  7  8  1  1
  9  7  1  0
  9 13  1  0
 10  9  2  0
 11 12  2  0
 12  2  1  0
 14 13  1  0
 14 21  1  0
 14 15  1  6
 16 15  1  0
 17 16  2  0
 18 19  1  0
 18 17  1  0
 19 20  2  0
 20 16  1  0
 21 28  1  0
 22 21  2  0
 23 24  1  0
 24 26  1  0
 25 24  2  0
 27 26  1  1
 27 29  1  0
 28 27  1  0
 29 31  2  0
 29 30  1  0
M  END
$$$$
