YHN.pdb
     RDKit          3D

 31 32  0  0  1  0  0  0  0  0999 V2000
   29.8300   -8.8617  -22.8042 O   0  0  0  0  0  0  0  0  0  0  0  0
   28.6364   -8.5932  -22.1147 C   0  0  0  0  0  0  0  0  0  0  0  0
   27.4342   -8.7262  -22.7920 C   0  0  0  0  0  0  0  0  0  0  0  0
   26.2248   -8.4756  -22.1660 C   0  0  0  0  0  0  0  0  0  0  0  0
   26.1911   -8.0825  -20.8324 C   0  0  0  0  0  0  0  0  0  0  0  0
   24.8739   -7.8312  -20.2181 C   0  0  0  0  0  0  0  0  0  0  0  0
   24.5125   -9.0189  -19.3882 C   0  0  2  0  0  0  0  0  0  0  0  0
   24.4152  -10.1883  -20.2363 N   0  0  0  0  0  0  0  0  0  0  0  0
   23.2732   -8.8270  -18.5812 C   0  0  0  0  0  0  0  0  0  0  0  0
   22.1529   -8.7089  -19.1313 O   0  0  0  0  0  0  0  0  0  0  0  0
   27.3882   -7.9566  -20.1797 C   0  0  0  0  0  0  0  0  0  0  0  0
   28.6046   -8.2048  -20.7975 C   0  0  0  0  0  0  0  0  0  0  0  0
   23.3007   -8.7689  -17.1467 N   0  0  0  0  0  0  0  0  0  0  0  0
   22.1048   -8.4704  -16.3838 C   0  0  1  0  0  0  0  0  0  0  0  0
   22.2813   -8.9853  -14.9915 C   0  0  0  0  0  0  0  0  0  0  0  0
   21.1058   -8.7438  -14.1381 C   0  0  0  0  0  0  0  0  0  0  0  0
   19.9587   -8.1017  -14.5378 C   0  0  0  0  0  0  0  0  0  0  0  0
   19.0996   -8.0572  -13.5182 N   0  0  0  0  0  0  0  0  0  0  0  0
   19.7023   -8.6657  -12.4868 C   0  0  0  0  0  0  0  0  0  0  0  0
   20.9210   -9.0894  -12.8440 N   0  0  0  0  0  0  0  0  0  0  0  0
   21.7711   -7.0230  -16.3849 C   0  0  0  0  0  0  0  0  0  0  0  0
   22.5712   -6.1646  -15.9960 O   0  0  0  0  0  0  0  0  0  0  0  0
   19.3947   -2.6127  -17.0943 N   0  0  0  0  0  0  0  0  0  0  0  0
   18.9943   -3.4407  -18.1741 C   0  0  0  0  0  0  0  0  0  0  0  0
   18.3755   -2.9036  -19.1264 O   0  0  0  0  0  0  0  0  0  0  0  0
   19.3242   -4.8863  -18.1212 C   0  0  0  0  0  0  0  0  0  0  0  0
   20.1161   -5.2376  -16.8811 C   0  0  2  0  0  0  0  0  0  0  0  0
   20.5005   -6.6173  -16.8451 N   0  0  0  0  0  0  0  0  0  0  0  0
   19.4340   -4.8025  -15.6420 C   0  0  0  0  0  0  0  0  0  0  0  0
   19.7767   -3.6620  -14.9371 O   0  0  0  0  0  0  0  0  0  0  0  0
   18.4913   -5.5020  -15.2000 O   0  0  0  0  0  0  0  0  0  0  0  0
  2  1  1  0
  3  2  2  0
  4  3  1  0
  5  4  2  0
  5 11  1  0
  6  5  1  0
  7  6  1  0
  7  8  1  6
  9  7  1  0
  9 13  1  0
 10  9  2  0
 11 12  2  0
 12  2  1  0
 14 13  1  0
 14 21  1  0
 14 15  1  1
 16 15  1  0
 17 16  2  0
 18 19  1  0
 18 17  1  0
 19 20  2  0
 20 16  1  0
 21 28  1  0
 22 21  2  0
 23 24  1  0
 24 26  1  0
 25 24  2  0
 27 26  1  6
 27 29  1  0
 28 27  1  0
 29 31  2  0
 29 30  1  0
M  END
$$$$
