EPY.pdb
     RDKit          3D

 29 30  0  0  1  0  0  0  0  0999 V2000
    8.1188  -12.3492   18.8955 N   0  0  0  0  0  0  0  0  0  0  0  0
    8.7509  -13.6661   19.1904 C   0  0  1  0  0  0  0  0  0  0  0  0
   10.2325  -13.3516   19.2396 C   0  0  0  0  0  0  0  0  0  0  0  0
   11.1168  -14.5441   19.4168 C   0  0  0  0  0  0  0  0  0  0  0  0
   12.5528  -14.1545   19.4849 C   0  0  0  0  0  0  0  0  0  0  0  0
   12.9402  -13.4733   20.4590 O   0  0  0  0  0  0  0  0  0  0  0  0
    8.2088  -14.1888   20.4549 C   0  0  0  0  0  0  0  0  0  0  0  0
    7.8939  -13.3025   21.3248 O   0  0  0  0  0  0  0  0  0  0  0  0
   13.4635  -14.5171   18.5165 O   0  0  0  0  0  0  0  0  0  0  0  0
    8.0051  -15.5435   20.7884 N   0  0  0  0  0  0  0  0  0  0  0  0
    8.3967  -16.6979   20.0087 C   0  0  0  0  0  0  0  0  0  0  0  0
    7.4724  -17.8166   20.4394 C   0  0  0  0  0  0  0  0  0  0  0  0
    6.5695  -17.1770   21.4520 C   0  0  0  0  0  0  0  0  0  0  0  0
    7.3360  -16.0203   21.9938 C   0  0  1  0  0  0  0  0  0  0  0  0
    8.3055  -16.3693   23.0589 C   0  0  0  0  0  0  0  0  0  0  0  0
    9.4849  -16.7213   22.7896 O   0  0  0  0  0  0  0  0  0  0  0  0
    5.9382  -10.7538   26.0494 O   0  0  0  0  0  0  0  0  0  0  0  0
    6.5267  -12.0197   26.2213 C   0  0  0  0  0  0  0  0  0  0  0  0
    7.8914  -12.1775   26.2313 C   0  0  0  0  0  0  0  0  0  0  0  0
    8.4996  -13.4135   26.3993 C   0  0  0  0  0  0  0  0  0  0  0  0
    7.7014  -14.5216   26.5615 C   0  0  0  0  0  0  0  0  0  0  0  0
    8.2854  -15.8492   26.7398 C   0  0  0  0  0  0  0  0  0  0  0  0
    8.9223  -16.4290   25.4976 C   0  0  2  0  0  0  0  0  0  0  0  0
    7.9412  -16.3190   24.4105 N   0  0  0  0  0  0  0  0  0  0  0  0
    9.3935  -17.8042   25.6641 C   0  0  0  0  0  0  0  0  0  0  0  0
    8.7974  -18.8697   25.0129 O   0  0  0  0  0  0  0  0  0  0  0  0
    6.3318  -14.3784   26.5536 C   0  0  0  0  0  0  0  0  0  0  0  0
    5.7276  -13.1357   26.3848 C   0  0  0  0  0  0  0  0  0  0  0  0
   10.3690  -18.0657   26.4157 O   0  0  0  0  0  0  0  0  0  0  0  0
  2  1  1  1
  3  2  1  0
  3  4  1  0
  4  5  1  0
  5  9  1  0
  5  6  2  0
  7  2  1  0
  7  8  2  0
 10  7  1  0
 11 10  1  0
 12 13  1  0
 12 11  1  0
 13 14  1  0
 14 10  1  0
 15 16  2  0
 14 15  1  1
 18 17  1  0
 19 18  2  0
 20 19  1  0
 21 27  1  0
 21 20  2  0
 23 22  1  1
 22 21  1  0
 23 24  1  0
 24 15  1  0
 25 23  1  0
 26 25  1  0
 27 28  2  0
 28 18  1  0
 29 25  2  0
M  END
$$$$
