EPY.pdb
     RDKit          3D

 29 30  0  0  1  0  0  0  0  0999 V2000
   11.2496  -15.3151   17.2541 N   0  0  0  0  0  0  0  0  0  0  0  0
   10.0965  -15.8555   18.0282 C   0  0  1  0  0  0  0  0  0  0  0  0
   10.4970  -17.2881   18.3180 C   0  0  0  0  0  0  0  0  0  0  0  0
   11.5489  -17.4402   19.3696 C   0  0  0  0  0  0  0  0  0  0  0  0
   11.6778  -18.8562   19.8131 C   0  0  0  0  0  0  0  0  0  0  0  0
   10.6350  -19.5066   20.0421 O   0  0  0  0  0  0  0  0  0  0  0  0
    9.8982  -15.0351   19.2338 C   0  0  0  0  0  0  0  0  0  0  0  0
   10.9337  -14.4009   19.6424 O   0  0  0  0  0  0  0  0  0  0  0  0
   12.9003  -19.4701   19.9789 O   0  0  0  0  0  0  0  0  0  0  0  0
    8.7004  -14.8829   19.9618 N   0  0  0  0  0  0  0  0  0  0  0  0
    7.4207  -15.4894   19.6645 C   0  0  0  0  0  0  0  0  0  0  0  0
    6.3832  -14.5945   20.3081 C   0  0  0  0  0  0  0  0  0  0  0  0
    7.1853  -13.4860   20.9224 C   0  0  0  0  0  0  0  0  0  0  0  0
    8.5412  -14.0575   21.1541 C   0  0  1  0  0  0  0  0  0  0  0  0
    8.6684  -14.8558   22.3961 C   0  0  0  0  0  0  0  0  0  0  0  0
    8.4850  -16.1023   22.4023 O   0  0  0  0  0  0  0  0  0  0  0  0
   10.8714  -16.3310   30.9302 O   0  0  0  0  0  0  0  0  0  0  0  0
   10.6457  -15.7825   29.6548 C   0  0  0  0  0  0  0  0  0  0  0  0
   11.2829  -16.2758   28.5421 C   0  0  0  0  0  0  0  0  0  0  0  0
   11.0794  -15.7550   27.2719 C   0  0  0  0  0  0  0  0  0  0  0  0
   10.2051  -14.7037   27.1255 C   0  0  0  0  0  0  0  0  0  0  0  0
    9.9532  -14.1127   25.8130 C   0  0  0  0  0  0  0  0  0  0  0  0
    9.2230  -15.0156   24.8453 C   0  0  2  0  0  0  0  0  0  0  0  0
    8.9993  -14.2475   23.6138 N   0  0  0  0  0  0  0  0  0  0  0  0
    7.9739  -15.5616   25.3768 C   0  0  0  0  0  0  0  0  0  0  0  0
    7.9413  -16.7171   26.1374 O   0  0  0  0  0  0  0  0  0  0  0  0
    9.5593  -14.1990   28.2320 C   0  0  0  0  0  0  0  0  0  0  0  0
    9.7674  -14.7258   29.5037 C   0  0  0  0  0  0  0  0  0  0  0  0
    6.8741  -14.9903   25.1559 O   0  0  0  0  0  0  0  0  0  0  0  0
  2  1  1  6
  3  2  1  0
  3  4  1  0
  4  5  1  0
  5  9  1  0
  5  6  2  0
  7  2  1  0
  7  8  2  0
 10  7  1  0
 11 10  1  0
 12 13  1  0
 12 11  1  0
 13 14  1  0
 14 10  1  0
 15 16  2  0
 14 15  1  1
 18 17  1  0
 19 18  2  0
 20 19  1  0
 21 27  1  0
 21 20  2  0
 23 22  1  1
 22 21  1  0
 23 24  1  0
 24 15  1  0
 25 23  1  0
 26 25  1  0
 27 28  2  0
 28 18  1  0
 29 25  2  0
M  END
$$$$
