EPY.pdb
     RDKit          3D

 29 30  0  0  1  0  0  0  0  0999 V2000
    9.2651  -18.6599   19.8232 N   0  0  0  0  0  0  0  0  0  0  0  0
    8.2393  -17.5791   19.8025 C   0  0  1  0  0  0  0  0  0  0  0  0
    6.9534  -18.2959   20.1622 C   0  0  0  0  0  0  0  0  0  0  0  0
    6.9917  -19.0271   21.4657 C   0  0  0  0  0  0  0  0  0  0  0  0
    5.6876  -19.6823   21.7636 C   0  0  0  0  0  0  0  0  0  0  0  0
    4.6916  -19.3674   21.0768 O   0  0  0  0  0  0  0  0  0  0  0  0
    8.6257  -16.5293   20.7588 C   0  0  0  0  0  0  0  0  0  0  0  0
    9.5869  -16.8339   21.5492 O   0  0  0  0  0  0  0  0  0  0  0  0
    5.5425  -20.6180   22.7645 O   0  0  0  0  0  0  0  0  0  0  0  0
    8.0515  -15.2473   20.8802 N   0  0  0  0  0  0  0  0  0  0  0  0
    6.9159  -14.7315   20.1464 C   0  0  0  0  0  0  0  0  0  0  0  0
    7.0653  -13.2253   20.1648 C   0  0  0  0  0  0  0  0  0  0  0  0
    8.3436  -12.9927   20.9140 C   0  0  0  0  0  0  0  0  0  0  0  0
    8.5256  -14.1957   21.7733 C   0  0  1  0  0  0  0  0  0  0  0  0
    7.7609  -14.1666   23.0424 C   0  0  0  0  0  0  0  0  0  0  0  0
    6.5365  -14.4606   23.0832 O   0  0  0  0  0  0  0  0  0  0  0  0
   10.9347  -19.3865   26.2614 O   0  0  0  0  0  0  0  0  0  0  0  0
    9.9774  -18.3680   26.1046 C   0  0  0  0  0  0  0  0  0  0  0  0
    9.0101  -18.4404   25.1317 C   0  0  0  0  0  0  0  0  0  0  0  0
    8.0530  -17.4513   24.9541 C   0  0  0  0  0  0  0  0  0  0  0  0
    8.0774  -16.3570   25.7866 C   0  0  0  0  0  0  0  0  0  0  0  0
    7.0967  -15.2829   25.6451 C   0  0  0  0  0  0  0  0  0  0  0  0
    7.6911  -13.8968   25.5432 C   0  0  2  0  0  0  0  0  0  0  0  0
    8.3778  -13.8091   24.2481 N   0  0  0  0  0  0  0  0  0  0  0  0
    8.5820  -13.5548   26.6523 C   0  0  0  0  0  0  0  0  0  0  0  0
    9.9414  -13.3687   26.4730 O   0  0  0  0  0  0  0  0  0  0  0  0
    9.0412  -16.2709   26.7663 C   0  0  0  0  0  0  0  0  0  0  0  0
    9.9986  -17.2665   26.9395 C   0  0  0  0  0  0  0  0  0  0  0  0
    8.1345  -13.4174   27.8209 O   0  0  0  0  0  0  0  0  0  0  0  0
  2  1  1  1
  3  2  1  0
  3  4  1  0
  4  5  1  0
  5  9  1  0
  5  6  2  0
  7  2  1  0
  7  8  2  0
 10  7  1  0
 11 10  1  0
 12 13  1  0
 12 11  1  0
 13 14  1  0
 14 10  1  0
 15 16  2  0
 14 15  1  1
 18 17  1  0
 19 18  2  0
 20 19  1  0
 21 27  1  0
 21 20  2  0
 23 22  1  1
 22 21  1  0
 23 24  1  0
 24 15  1  0
 25 23  1  0
 26 25  1  0
 27 28  2  0
 28 18  1  0
 29 25  2  0
M  END
$$$$
