EPY.pdb
     RDKit          3D

 29 30  0  0  1  0  0  0  0  0999 V2000
   11.1389  -17.7154   18.1617 N   0  0  0  0  0  0  0  0  0  0  0  0
    9.7423  -17.7258   18.6815 C   0  0  1  0  0  0  0  0  0  0  0  0
    9.5187  -19.1695   19.0845 C   0  0  0  0  0  0  0  0  0  0  0  0
   10.4789  -19.6865   20.1073 C   0  0  0  0  0  0  0  0  0  0  0  0
   10.9601  -21.0536   19.7639 C   0  0  0  0  0  0  0  0  0  0  0  0
   12.1638  -21.3287   19.9597 O   0  0  0  0  0  0  0  0  0  0  0  0
    9.6356  -16.7710   19.7964 C   0  0  0  0  0  0  0  0  0  0  0  0
   10.7478  -16.2997   20.2234 O   0  0  0  0  0  0  0  0  0  0  0  0
   10.1286  -22.0197   19.2405 O   0  0  0  0  0  0  0  0  0  0  0  0
    8.4496  -16.3340   20.4210 N   0  0  0  0  0  0  0  0  0  0  0  0
    7.1039  -16.7878   20.1430 C   0  0  0  0  0  0  0  0  0  0  0  0
    6.1924  -15.6619   20.5821 C   0  0  0  0  0  0  0  0  0  0  0  0
    7.1313  -14.5985   21.0691 C   0  0  0  0  0  0  0  0  0  0  0  0
    8.3752  -15.3167   21.4640 C   0  0  1  0  0  0  0  0  0  0  0  0
    8.3344  -15.9192   22.8173 C   0  0  0  0  0  0  0  0  0  0  0  0
    8.0030  -17.1216   22.9957 O   0  0  0  0  0  0  0  0  0  0  0  0
    5.0801  -10.8654   27.0410 O   0  0  0  0  0  0  0  0  0  0  0  0
    6.1029  -11.8091   26.8367 C   0  0  0  0  0  0  0  0  0  0  0  0
    6.5225  -12.1452   25.5724 C   0  0  0  0  0  0  0  0  0  0  0  0
    7.5292  -13.0720   25.3408 C   0  0  0  0  0  0  0  0  0  0  0  0
    8.1276  -13.6756   26.4218 C   0  0  0  0  0  0  0  0  0  0  0  0
    9.1909  -14.6612   26.2392 C   0  0  0  0  0  0  0  0  0  0  0  0
    8.8576  -15.7759   25.2744 C   0  0  2  0  0  0  0  0  0  0  0  0
    8.6655  -15.1673   23.9518 N   0  0  0  0  0  0  0  0  0  0  0  0
    7.6998  -16.5757   25.6753 C   0  0  0  0  0  0  0  0  0  0  0  0
    6.4912  -16.5074   25.0049 O   0  0  0  0  0  0  0  0  0  0  0  0
    7.7172  -13.3484   27.6949 C   0  0  0  0  0  0  0  0  0  0  0  0
    6.7069  -12.4177   27.9209 C   0  0  0  0  0  0  0  0  0  0  0  0
    7.7668  -17.3617   26.6563 O   0  0  0  0  0  0  0  0  0  0  0  0
  2  1  1  1
  3  2  1  0
  3  4  1  0
  4  5  1  0
  5  9  1  0
  5  6  2  0
  7  2  1  0
  7  8  2  0
 10  7  1  0
 11 10  1  0
 12 13  1  0
 12 11  1  0
 13 14  1  0
 14 10  1  0
 15 16  2  0
 14 15  1  1
 18 17  1  0
 19 18  2  0
 20 19  1  0
 21 27  1  0
 21 20  2  0
 23 22  1  1
 22 21  1  0
 23 24  1  0
 24 15  1  0
 25 23  1  0
 26 25  1  0
 27 28  2  0
 28 18  1  0
 29 25  2  0
M  END
$$$$
