EPY.pdb
     RDKit          3D

 29 30  0  0  1  0  0  0  0  0999 V2000
   10.9973  -17.3850   19.6146 N   0  0  0  0  0  0  0  0  0  0  0  0
    9.5616  -17.0544   19.8389 C   0  0  1  0  0  0  0  0  0  0  0  0
    8.9387  -18.3860   20.2069 C   0  0  0  0  0  0  0  0  0  0  0  0
    7.4942  -18.3143   20.5859 C   0  0  0  0  0  0  0  0  0  0  0  0
    6.6418  -19.0877   19.6405 C   0  0  0  0  0  0  0  0  0  0  0  0
    5.5500  -18.5950   19.2825 O   0  0  0  0  0  0  0  0  0  0  0  0
    9.4609  -16.0353   20.8959 C   0  0  0  0  0  0  0  0  0  0  0  0
   10.3417  -16.1173   21.8227 O   0  0  0  0  0  0  0  0  0  0  0  0
    7.0133  -20.3205   19.1500 O   0  0  0  0  0  0  0  0  0  0  0  0
    8.5089  -14.9986   20.9789 N   0  0  0  0  0  0  0  0  0  0  0  0
    7.4407  -14.7238   20.0423 C   0  0  0  0  0  0  0  0  0  0  0  0
    7.1137  -13.2556   20.2121 C   0  0  0  0  0  0  0  0  0  0  0  0
    8.0821  -12.7825   21.2552 C   0  0  0  0  0  0  0  0  0  0  0  0
    8.4489  -13.9962   22.0371 C   0  0  1  0  0  0  0  0  0  0  0  0
    7.4747  -14.3669   23.0905 C   0  0  0  0  0  0  0  0  0  0  0  0
    6.8074  -15.4338   23.0278 O   0  0  0  0  0  0  0  0  0  0  0  0
   11.5307  -14.4621   29.3690 O   0  0  0  0  0  0  0  0  0  0  0  0
   10.4476  -14.6655   28.4950 C   0  0  0  0  0  0  0  0  0  0  0  0
   10.5221  -15.5698   27.4634 C   0  0  0  0  0  0  0  0  0  0  0  0
    9.4698  -15.7915   26.5864 C   0  0  0  0  0  0  0  0  0  0  0  0
    8.3084  -15.0757   26.7598 C   0  0  0  0  0  0  0  0  0  0  0  0
    7.1682  -15.2647   25.8656 C   0  0  0  0  0  0  0  0  0  0  0  0
    6.5230  -13.9839   25.3881 C   0  0  2  0  0  0  0  0  0  0  0  0
    7.2615  -13.5383   24.1996 N   0  0  0  0  0  0  0  0  0  0  0  0
    6.4614  -12.9386   26.4102 C   0  0  0  0  0  0  0  0  0  0  0  0
    7.2710  -11.8173   26.3650 O   0  0  0  0  0  0  0  0  0  0  0  0
    8.2194  -14.1658   27.7895 C   0  0  0  0  0  0  0  0  0  0  0  0
    9.2786  -13.9479   28.6663 C   0  0  0  0  0  0  0  0  0  0  0  0
    5.6595  -13.0273   27.3766 O   0  0  0  0  0  0  0  0  0  0  0  0
  2  1  1  1
  3  2  1  0
  3  4  1  0
  4  5  1  0
  5  9  1  0
  5  6  2  0
  7  2  1  0
  7  8  2  0
 10  7  1  0
 11 10  1  0
 12 13  1  0
 12 11  1  0
 13 14  1  0
 14 10  1  0
 15 16  2  0
 14 15  1  1
 18 17  1  0
 19 18  2  0
 20 19  1  0
 21 27  1  0
 21 20  2  0
 23 22  1  1
 22 21  1  0
 23 24  1  0
 24 15  1  0
 25 23  1  0
 26 25  1  0
 27 28  2  0
 28 18  1  0
 29 25  2  0
M  END
$$$$
