EPY.pdb
     RDKit          3D

 29 30  0  0  1  0  0  0  0  0999 V2000
   11.3197  -16.1622   16.9968 N   0  0  0  0  0  0  0  0  0  0  0  0
    9.9247  -16.1231   17.5194 C   0  0  1  0  0  0  0  0  0  0  0  0
    9.4687  -17.5660   17.4373 C   0  0  0  0  0  0  0  0  0  0  0  0
    9.1736  -18.2019   18.7579 C   0  0  0  0  0  0  0  0  0  0  0  0
    8.6507  -19.5868   18.5931 C   0  0  0  0  0  0  0  0  0  0  0  0
    8.4666  -20.0208   17.4352 O   0  0  0  0  0  0  0  0  0  0  0  0
    9.9369  -15.5772   18.8861 C   0  0  0  0  0  0  0  0  0  0  0  0
   11.0598  -15.6548   19.4979 O   0  0  0  0  0  0  0  0  0  0  0  0
    8.3645  -20.4012   19.6672 O   0  0  0  0  0  0  0  0  0  0  0  0
    8.8528  -14.9868   19.5673 N   0  0  0  0  0  0  0  0  0  0  0  0
    7.4689  -14.9670   19.1448 C   0  0  0  0  0  0  0  0  0  0  0  0
    6.8480  -13.7684   19.8298 C   0  0  0  0  0  0  0  0  0  0  0  0
    7.9818  -13.1567   20.5978 C   0  0  0  0  0  0  0  0  0  0  0  0
    8.9477  -14.2662   20.8322 C   0  0  1  0  0  0  0  0  0  0  0  0
    8.6176  -15.1357   21.9860 C   0  0  0  0  0  0  0  0  0  0  0  0
    8.0567  -16.2534   21.8322 O   0  0  0  0  0  0  0  0  0  0  0  0
    5.3377  -11.0146   26.7590 O   0  0  0  0  0  0  0  0  0  0  0  0
    6.3170  -11.9871   26.4875 C   0  0  0  0  0  0  0  0  0  0  0  0
    6.0927  -13.3179   26.7448 C   0  0  0  0  0  0  0  0  0  0  0  0
    7.0398  -14.2989   26.4868 C   0  0  0  0  0  0  0  0  0  0  0  0
    8.2491  -13.9200   25.9529 C   0  0  0  0  0  0  0  0  0  0  0  0
    9.2856  -14.9085   25.6629 C   0  0  0  0  0  0  0  0  0  0  0  0
    9.0615  -15.7033   24.3969 C   0  0  2  0  0  0  0  0  0  0  0  0
    8.9204  -14.7420   23.2958 N   0  0  0  0  0  0  0  0  0  0  0  0
    7.9197  -16.6155   24.4683 C   0  0  0  0  0  0  0  0  0  0  0  0
    6.7564  -16.3951   23.7521 O   0  0  0  0  0  0  0  0  0  0  0  0
    8.4879  -12.5896   25.6898 C   0  0  0  0  0  0  0  0  0  0  0  0
    7.5337  -11.6101   25.9506 C   0  0  0  0  0  0  0  0  0  0  0  0
    7.9595  -17.6437   25.1936 O   0  0  0  0  0  0  0  0  0  0  0  0
  2  1  1  1
  3  2  1  0
  3  4  1  0
  4  5  1  0
  5  9  1  0
  5  6  2  0
  7  2  1  0
  7  8  2  0
 10  7  1  0
 11 10  1  0
 12 13  1  0
 12 11  1  0
 13 14  1  0
 14 10  1  0
 15 16  2  0
 14 15  1  1
 18 17  1  0
 19 18  2  0
 20 19  1  0
 21 27  1  0
 21 20  2  0
 23 22  1  1
 22 21  1  0
 23 24  1  0
 24 15  1  0
 25 23  1  0
 26 25  1  0
 27 28  2  0
 28 18  1  0
 29 25  2  0
M  END
$$$$
