EPY.pdb
     RDKit          3D

 29 30  0  0  1  0  0  0  0  0999 V2000
   11.0159  -16.1194   17.1763 N   0  0  0  0  0  0  0  0  0  0  0  0
    9.6739  -15.7580   17.7143 C   0  0  1  0  0  0  0  0  0  0  0  0
    8.8606  -17.0239   17.5337 C   0  0  0  0  0  0  0  0  0  0  0  0
    8.9448  -17.9862   18.6748 C   0  0  0  0  0  0  0  0  0  0  0  0
    8.0192  -19.1382   18.4880 C   0  0  0  0  0  0  0  0  0  0  0  0
    8.0091  -20.0413   19.3524 O   0  0  0  0  0  0  0  0  0  0  0  0
    9.8149  -15.3333   19.1164 C   0  0  0  0  0  0  0  0  0  0  0  0
   10.9879  -15.4656   19.6144 O   0  0  0  0  0  0  0  0  0  0  0  0
    7.1786  -19.2417   17.4011 O   0  0  0  0  0  0  0  0  0  0  0  0
    8.8025  -14.8030   19.9420 N   0  0  0  0  0  0  0  0  0  0  0  0
    7.3993  -14.6663   19.6162 C   0  0  0  0  0  0  0  0  0  0  0  0
    6.8790  -13.5541   20.5014 C   0  0  0  0  0  0  0  0  0  0  0  0
    8.0842  -13.1057   21.2735 C   0  0  0  0  0  0  0  0  0  0  0  0
    9.0058  -14.2759   21.2870 C   0  0  1  0  0  0  0  0  0  0  0  0
    8.7002  -15.2876   22.3258 C   0  0  0  0  0  0  0  0  0  0  0  0
    7.8202  -16.1717   22.1486 O   0  0  0  0  0  0  0  0  0  0  0  0
    9.6708  -13.8315   29.9867 O   0  0  0  0  0  0  0  0  0  0  0  0
   10.0214  -14.4012   28.7494 C   0  0  0  0  0  0  0  0  0  0  0  0
   10.0529  -13.6493   27.6000 C   0  0  0  0  0  0  0  0  0  0  0  0
   10.3955  -14.1842   26.3662 C   0  0  0  0  0  0  0  0  0  0  0  0
   10.7151  -15.5199   26.2953 C   0  0  0  0  0  0  0  0  0  0  0  0
   11.0808  -16.1388   25.0231 C   0  0  0  0  0  0  0  0  0  0  0  0
    9.9085  -16.5276   24.1517 C   0  0  2  0  0  0  0  0  0  0  0  0
    9.3843  -15.2958   23.5481 N   0  0  0  0  0  0  0  0  0  0  0  0
    8.8658  -17.2679   24.8627 C   0  0  0  0  0  0  0  0  0  0  0  0
    9.0964  -18.5154   25.4153 O   0  0  0  0  0  0  0  0  0  0  0  0
   10.6877  -16.2858   27.4393 C   0  0  0  0  0  0  0  0  0  0  0  0
   10.3434  -15.7434   28.6743 C   0  0  0  0  0  0  0  0  0  0  0  0
    7.7098  -16.7874   24.9959 O   0  0  0  0  0  0  0  0  0  0  0  0
  2  1  1  1
  3  2  1  0
  3  4  1  0
  4  5  1  0
  5  9  1  0
  5  6  2  0
  7  2  1  0
  7  8  2  0
 10  7  1  0
 11 10  1  0
 12 13  1  0
 12 11  1  0
 13 14  1  0
 14 10  1  0
 15 16  2  0
 14 15  1  1
 18 17  1  0
 19 18  2  0
 20 19  1  0
 21 27  1  0
 21 20  2  0
 23 22  1  1
 22 21  1  0
 23 24  1  0
 24 15  1  0
 25 23  1  0
 26 25  1  0
 27 28  2  0
 28 18  1  0
 29 25  2  0
M  END
$$$$
