EPY.pdb
     RDKit          3D

 29 30  0  0  1  0  0  0  0  0999 V2000
   10.0015  -17.3000   17.3523 N   0  0  0  0  0  0  0  0  0  0  0  0
    8.9938  -17.4421   18.4410 C   0  0  1  0  0  0  0  0  0  0  0  0
    9.2283  -18.8435   18.9681 C   0  0  0  0  0  0  0  0  0  0  0  0
    8.6736  -19.9333   18.1080 C   0  0  0  0  0  0  0  0  0  0  0  0
    8.9456  -21.2785   18.6868 C   0  0  0  0  0  0  0  0  0  0  0  0
    8.6090  -22.2887   18.0316 O   0  0  0  0  0  0  0  0  0  0  0  0
    9.2111  -16.3838   19.4403 C   0  0  0  0  0  0  0  0  0  0  0  0
   10.4276  -16.0100   19.5879 O   0  0  0  0  0  0  0  0  0  0  0  0
    9.5518  -21.4465   19.9127 O   0  0  0  0  0  0  0  0  0  0  0  0
    8.2263  -15.7549   20.2294 N   0  0  0  0  0  0  0  0  0  0  0  0
    6.7944  -15.9461   20.1460 C   0  0  0  0  0  0  0  0  0  0  0  0
    6.1785  -14.6853   20.7138 C   0  0  0  0  0  0  0  0  0  0  0  0
    7.3574  -13.8266   21.0637 C   0  0  0  0  0  0  0  0  0  0  0  0
    8.4892  -14.7718   21.2747 C   0  0  1  0  0  0  0  0  0  0  0  0
    8.5276  -15.3953   22.6185 C   0  0  0  0  0  0  0  0  0  0  0  0
    7.9065  -16.4623   22.8700 O   0  0  0  0  0  0  0  0  0  0  0  0
   10.3319  -15.9944   31.3142 O   0  0  0  0  0  0  0  0  0  0  0  0
   10.2569  -15.5939   29.9679 C   0  0  0  0  0  0  0  0  0  0  0  0
   10.1205  -14.2712   29.6226 C   0  0  0  0  0  0  0  0  0  0  0  0
   10.0445  -13.8471   28.3035 C   0  0  0  0  0  0  0  0  0  0  0  0
   10.1081  -14.7911   27.3055 C   0  0  0  0  0  0  0  0  0  0  0  0
   10.0304  -14.4040   25.8985 C   0  0  0  0  0  0  0  0  0  0  0  0
    9.2939  -15.3849   25.0152 C   0  0  2  0  0  0  0  0  0  0  0  0
    9.2611  -14.8159   23.6618 N   0  0  0  0  0  0  0  0  0  0  0  0
    7.9522  -15.7175   25.4949 C   0  0  0  0  0  0  0  0  0  0  0  0
    6.8506  -14.9335   25.2004 O   0  0  0  0  0  0  0  0  0  0  0  0
   10.2447  -16.1207   27.6367 C   0  0  0  0  0  0  0  0  0  0  0  0
   10.3207  -16.5399   28.9620 C   0  0  0  0  0  0  0  0  0  0  0  0
    7.7544  -16.7408   26.2008 O   0  0  0  0  0  0  0  0  0  0  0  0
  2  1  1  6
  3  2  1  0
  3  4  1  0
  4  5  1  0
  5  9  1  0
  5  6  2  0
  7  2  1  0
  7  8  2  0
 10  7  1  0
 11 10  1  0
 12 13  1  0
 12 11  1  0
 13 14  1  0
 14 10  1  0
 15 16  2  0
 14 15  1  1
 18 17  1  0
 19 18  2  0
 20 19  1  0
 21 27  1  0
 21 20  2  0
 23 22  1  1
 22 21  1  0
 23 24  1  0
 24 15  1  0
 25 23  1  0
 26 25  1  0
 27 28  2  0
 28 18  1  0
 29 25  2  0
M  END
$$$$
