EPY.pdb
     RDKit          3D

 29 30  0  0  1  0  0  0  0  0999 V2000
    9.2071  -17.8863   18.6798 N   0  0  0  0  0  0  0  0  0  0  0  0
    8.2008  -17.2566   19.5808 C   0  0  1  0  0  0  0  0  0  0  0  0
    7.6064  -18.4303   20.3329 C   0  0  0  0  0  0  0  0  0  0  0  0
    8.6104  -19.4024   20.8644 C   0  0  0  0  0  0  0  0  0  0  0  0
    7.9524  -20.5372   21.5700 C   0  0  0  0  0  0  0  0  0  0  0  0
    8.0128  -20.5788   22.8180 O   0  0  0  0  0  0  0  0  0  0  0  0
    8.8749  -16.2735   20.4440 C   0  0  0  0  0  0  0  0  0  0  0  0
   10.1552  -16.3161   20.4283 O   0  0  0  0  0  0  0  0  0  0  0  0
    7.2834  -21.5369   20.8978 O   0  0  0  0  0  0  0  0  0  0  0  0
    8.2560  -15.3086   21.2649 N   0  0  0  0  0  0  0  0  0  0  0  0
    6.8381  -15.1604   21.5130 C   0  0  0  0  0  0  0  0  0  0  0  0
    6.6409  -13.7145   21.9153 C   0  0  0  0  0  0  0  0  0  0  0  0
    8.0155  -13.1202   21.8329 C   0  0  0  0  0  0  0  0  0  0  0  0
    8.9542  -14.2637   22.0058 C   0  0  1  0  0  0  0  0  0  0  0  0
    9.1936  -14.6555   23.4148 C   0  0  0  0  0  0  0  0  0  0  0  0
    9.6786  -13.8485   24.2520 O   0  0  0  0  0  0  0  0  0  0  0  0
    6.2968  -10.8642   26.2148 O   0  0  0  0  0  0  0  0  0  0  0  0
    6.7512  -12.1952   26.1960 C   0  0  0  0  0  0  0  0  0  0  0  0
    5.9390  -13.2329   26.5848 C   0  0  0  0  0  0  0  0  0  0  0  0
    6.3600  -14.5552   26.5761 C   0  0  0  0  0  0  0  0  0  0  0  0
    7.6413  -14.8338   26.1617 C   0  0  0  0  0  0  0  0  0  0  0  0
    8.1407  -16.2068   26.1342 C   0  0  0  0  0  0  0  0  0  0  0  0
    9.2967  -16.4377   25.1881 C   0  0  2  0  0  0  0  0  0  0  0  0
    8.8863  -15.9452   23.8670 N   0  0  0  0  0  0  0  0  0  0  0  0
    9.7429  -17.8301   25.1318 C   0  0  0  0  0  0  0  0  0  0  0  0
   10.2980  -18.4692   26.2264 O   0  0  0  0  0  0  0  0  0  0  0  0
    8.4666  -13.8037   25.7692 C   0  0  0  0  0  0  0  0  0  0  0  0
    8.0385  -12.4791   25.7799 C   0  0  0  0  0  0  0  0  0  0  0  0
    9.6352  -18.4999   24.0714 O   0  0  0  0  0  0  0  0  0  0  0  0
  2  1  1  6
  3  2  1  0
  3  4  1  0
  4  5  1  0
  5  9  1  0
  5  6  2  0
  7  2  1  0
  7  8  2  0
 10  7  1  0
 11 10  1  0
 12 13  1  0
 12 11  1  0
 13 14  1  0
 14 10  1  0
 15 16  2  0
 14 15  1  1
 18 17  1  0
 19 18  2  0
 20 19  1  0
 21 27  1  0
 21 20  2  0
 23 22  1  1
 22 21  1  0
 23 24  1  0
 24 15  1  0
 25 23  1  0
 26 25  1  0
 27 28  2  0
 28 18  1  0
 29 25  2  0
M  END
$$$$
