EPY.pdb
     RDKit          3D

 29 30  0  0  1  0  0  0  0  0999 V2000
    7.6979  -12.6749   18.2290 N   0  0  0  0  0  0  0  0  0  0  0  0
    7.9828  -14.1212   18.4479 C   0  0  1  0  0  0  0  0  0  0  0  0
    9.2985  -14.3419   17.7289 C   0  0  0  0  0  0  0  0  0  0  0  0
    9.8377  -15.7328   17.8299 C   0  0  0  0  0  0  0  0  0  0  0  0
   11.1103  -15.8823   17.0705 C   0  0  0  0  0  0  0  0  0  0  0  0
   12.1201  -16.3025   17.6760 O   0  0  0  0  0  0  0  0  0  0  0  0
    8.0404  -14.3877   19.8941 C   0  0  0  0  0  0  0  0  0  0  0  0
    8.4352  -13.4069   20.6176 O   0  0  0  0  0  0  0  0  0  0  0  0
   11.2119  -15.5749   15.7312 O   0  0  0  0  0  0  0  0  0  0  0  0
    7.7051  -15.5940   20.5426 N   0  0  0  0  0  0  0  0  0  0  0  0
    7.3281  -16.8418   19.9143 C   0  0  0  0  0  0  0  0  0  0  0  0
    6.5148  -17.5920   20.9473 C   0  0  0  0  0  0  0  0  0  0  0  0
    6.4655  -16.6608   22.1221 C   0  0  0  0  0  0  0  0  0  0  0  0
    7.6648  -15.7875   21.9880 C   0  0  1  0  0  0  0  0  0  0  0  0
    8.9213  -16.3854   22.4976 C   0  0  0  0  0  0  0  0  0  0  0  0
    9.5656  -17.2383   21.8304 O   0  0  0  0  0  0  0  0  0  0  0  0
    9.3348  -14.6792   30.1614 O   0  0  0  0  0  0  0  0  0  0  0  0
    9.8205  -14.7566   28.8436 C   0  0  0  0  0  0  0  0  0  0  0  0
    9.1823  -14.1175   27.8084 C   0  0  0  0  0  0  0  0  0  0  0  0
    9.6387  -14.1758   26.4991 C   0  0  0  0  0  0  0  0  0  0  0  0
   10.7747  -14.9031   26.2314 C   0  0  0  0  0  0  0  0  0  0  0  0
   11.3005  -15.0027   24.8716 C   0  0  0  0  0  0  0  0  0  0  0  0
   10.8473  -16.2266   24.1091 C   0  0  2  0  0  0  0  0  0  0  0  0
    9.4393  -16.0200   23.7467 N   0  0  0  0  0  0  0  0  0  0  0  0
   11.0398  -17.4802   24.8388 C   0  0  0  0  0  0  0  0  0  0  0  0
    9.9747  -18.2544   25.2644 O   0  0  0  0  0  0  0  0  0  0  0  0
   11.4249  -15.5490   27.2592 C   0  0  0  0  0  0  0  0  0  0  0  0
   10.9622  -15.4866   28.5707 C   0  0  0  0  0  0  0  0  0  0  0  0
   12.1960  -17.9000   25.1067 O   0  0  0  0  0  0  0  0  0  0  0  0
  2  1  1  1
  3  2  1  0
  3  4  1  0
  4  5  1  0
  5  9  1  0
  5  6  2  0
  7  2  1  0
  7  8  2  0
 10  7  1  0
 11 10  1  0
 12 13  1  0
 12 11  1  0
 13 14  1  0
 14 10  1  0
 15 16  2  0
 14 15  1  6
 18 17  1  0
 19 18  2  0
 20 19  1  0
 21 27  1  0
 21 20  2  0
 23 22  1  1
 22 21  1  0
 23 24  1  0
 24 15  1  0
 25 23  1  0
 26 25  1  0
 27 28  2  0
 28 18  1  0
 29 25  2  0
M  END
$$$$
