EPY.pdb
     RDKit          3D

 29 30  0  0  1  0  0  0  0  0999 V2000
   10.0253  -16.4038   17.4104 N   0  0  0  0  0  0  0  0  0  0  0  0
    9.0135  -16.8437   18.4122 C   0  0  1  0  0  0  0  0  0  0  0  0
    9.1130  -18.3556   18.3846 C   0  0  0  0  0  0  0  0  0  0  0  0
   10.4248  -18.9020   18.8492 C   0  0  0  0  0  0  0  0  0  0  0  0
   10.3690  -20.3796   19.0286 C   0  0  0  0  0  0  0  0  0  0  0  0
    9.4881  -20.8565   19.7766 O   0  0  0  0  0  0  0  0  0  0  0  0
    9.3373  -16.2474   19.7183 C   0  0  0  0  0  0  0  0  0  0  0  0
   10.5509  -15.8621   19.8598 O   0  0  0  0  0  0  0  0  0  0  0  0
   11.2500  -21.2338   18.4018 O   0  0  0  0  0  0  0  0  0  0  0  0
    8.4546  -16.0619   20.8019 N   0  0  0  0  0  0  0  0  0  0  0  0
    7.0937  -16.5426   20.9053 C   0  0  0  0  0  0  0  0  0  0  0  0
    6.4083  -15.6245   21.8946 C   0  0  0  0  0  0  0  0  0  0  0  0
    7.4691  -14.6332   22.2707 C   0  0  0  0  0  0  0  0  0  0  0  0
    8.7652  -15.3238   22.0213 C   0  0  1  0  0  0  0  0  0  0  0  0
    9.2018  -16.2255   23.1133 C   0  0  0  0  0  0  0  0  0  0  0  0
    8.9683  -17.4632   23.0815 O   0  0  0  0  0  0  0  0  0  0  0  0
    9.0954  -14.2704   30.5926 O   0  0  0  0  0  0  0  0  0  0  0  0
    9.7510  -14.5676   29.3842 C   0  0  0  0  0  0  0  0  0  0  0  0
    9.6167  -13.7598   28.2811 C   0  0  0  0  0  0  0  0  0  0  0  0
   10.2517  -14.0278   27.0767 C   0  0  0  0  0  0  0  0  0  0  0  0
   11.0456  -15.1471   26.9877 C   0  0  0  0  0  0  0  0  0  0  0  0
   11.7368  -15.4816   25.7444 C   0  0  0  0  0  0  0  0  0  0  0  0
   11.0003  -16.4593   24.8576 C   0  0  2  0  0  0  0  0  0  0  0  0
    9.8941  -15.7291   24.2252 N   0  0  0  0  0  0  0  0  0  0  0  0
   10.5288  -17.6527   25.5606 C   0  0  0  0  0  0  0  0  0  0  0  0
   11.3994  -18.6145   26.0422 O   0  0  0  0  0  0  0  0  0  0  0  0
   11.1896  -15.9661   28.0853 C   0  0  0  0  0  0  0  0  0  0  0  0
   10.5500  -15.6918   29.2910 C   0  0  0  0  0  0  0  0  0  0  0  0
    9.2996  -17.8457   25.7520 O   0  0  0  0  0  0  0  0  0  0  0  0
  2  1  1  6
  3  2  1  0
  3  4  1  0
  4  5  1  0
  5  9  1  0
  5  6  2  0
  7  2  1  0
  7  8  2  0
 10  7  1  0
 11 10  1  0
 12 13  1  0
 12 11  1  0
 13 14  1  0
 14 10  1  0
 15 16  2  0
 14 15  1  1
 18 17  1  0
 19 18  2  0
 20 19  1  0
 21 27  1  0
 21 20  2  0
 23 22  1  1
 22 21  1  0
 23 24  1  0
 24 15  1  0
 25 23  1  0
 26 25  1  0
 27 28  2  0
 28 18  1  0
 29 25  2  0
M  END
$$$$
