EPY.pdb
     RDKit          3D

 29 30  0  0  1  0  0  0  0  0999 V2000
   11.7378  -15.9144   17.4402 N   0  0  0  0  0  0  0  0  0  0  0  0
   10.3267  -16.0696   17.8935 C   0  0  1  0  0  0  0  0  0  0  0  0
   10.0939  -17.5661   17.8406 C   0  0  0  0  0  0  0  0  0  0  0  0
   10.8147  -18.3461   18.8930 C   0  0  0  0  0  0  0  0  0  0  0  0
   10.3563  -19.7627   18.9337 C   0  0  0  0  0  0  0  0  0  0  0  0
    9.4499  -20.1189   18.1499 O   0  0  0  0  0  0  0  0  0  0  0  0
   10.1861  -15.4903   19.2391 C   0  0  0  0  0  0  0  0  0  0  0  0
   11.2828  -15.3100   19.8762 O   0  0  0  0  0  0  0  0  0  0  0  0
   10.8941  -20.6886   19.8010 O   0  0  0  0  0  0  0  0  0  0  0  0
    8.9836  -15.1204   19.8758 N   0  0  0  0  0  0  0  0  0  0  0  0
    7.6387  -15.3733   19.4055 C   0  0  0  0  0  0  0  0  0  0  0  0
    6.7714  -14.3164   20.0550 C   0  0  0  0  0  0  0  0  0  0  0  0
    7.7355  -13.4916   20.8549 C   0  0  0  0  0  0  0  0  0  0  0  0
    8.8903  -14.3898   21.1350 C   0  0  1  0  0  0  0  0  0  0  0  0
    8.6949  -15.3021   22.2864 C   0  0  0  0  0  0  0  0  0  0  0  0
    8.4068  -16.5180   22.1247 O   0  0  0  0  0  0  0  0  0  0  0  0
    5.2068  -10.8408   26.6440 O   0  0  0  0  0  0  0  0  0  0  0  0
    6.1761  -11.8467   26.4799 C   0  0  0  0  0  0  0  0  0  0  0  0
    7.4548  -11.5475   26.0764 C   0  0  0  0  0  0  0  0  0  0  0  0
    8.4314  -12.5187   25.9067 C   0  0  0  0  0  0  0  0  0  0  0  0
    8.1023  -13.8311   26.1528 C   0  0  0  0  0  0  0  0  0  0  0  0
    9.0884  -14.8969   25.9883 C   0  0  0  0  0  0  0  0  0  0  0  0
    8.8954  -15.7486   24.7546 C   0  0  2  0  0  0  0  0  0  0  0  0
    8.8251  -14.8407   23.6025 N   0  0  0  0  0  0  0  0  0  0  0  0
    7.7280  -16.6281   24.8224 C   0  0  0  0  0  0  0  0  0  0  0  0
    7.7346  -17.8040   25.5517 O   0  0  0  0  0  0  0  0  0  0  0  0
    6.8244  -14.1458   26.5578 C   0  0  0  0  0  0  0  0  0  0  0  0
    5.8490  -13.1669   26.7265 C   0  0  0  0  0  0  0  0  0  0  0  0
    6.6661  -16.3395   24.2109 O   0  0  0  0  0  0  0  0  0  0  0  0
  2  1  1  1
  3  2  1  0
  3  4  1  0
  4  5  1  0
  5  9  1  0
  5  6  2  0
  7  2  1  0
  7  8  2  0
 10  7  1  0
 11 10  1  0
 12 13  1  0
 12 11  1  0
 13 14  1  0
 14 10  1  0
 15 16  2  0
 14 15  1  1
 18 17  1  0
 19 18  2  0
 20 19  1  0
 21 27  1  0
 21 20  2  0
 23 22  1  1
 22 21  1  0
 23 24  1  0
 24 15  1  0
 25 23  1  0
 26 25  1  0
 27 28  2  0
 28 18  1  0
 29 25  2  0
M  END
$$$$
