EPY.pdb
     RDKit          3D

 29 30  0  0  1  0  0  0  0  0999 V2000
    7.9884  -12.5836   18.4230 N   0  0  0  0  0  0  0  0  0  0  0  0
    8.1146  -14.0281   18.7666 C   0  0  1  0  0  0  0  0  0  0  0  0
    9.3185  -14.4846   17.9673 C   0  0  0  0  0  0  0  0  0  0  0  0
    9.7207  -15.9051   18.2035 C   0  0  0  0  0  0  0  0  0  0  0  0
   10.9316  -16.2687   17.4160 C   0  0  0  0  0  0  0  0  0  0  0  0
   11.0176  -17.4279   16.9557 O   0  0  0  0  0  0  0  0  0  0  0  0
    8.2776  -14.1650   20.2228 C   0  0  0  0  0  0  0  0  0  0  0  0
    8.9876  -13.2576   20.7831 O   0  0  0  0  0  0  0  0  0  0  0  0
   11.9542  -15.3762   17.1790 O   0  0  0  0  0  0  0  0  0  0  0  0
    7.7337  -15.1769   21.0402 N   0  0  0  0  0  0  0  0  0  0  0  0
    6.9977  -16.3438   20.6035 C   0  0  0  0  0  0  0  0  0  0  0  0
    6.1466  -16.7578   21.7848 C   0  0  0  0  0  0  0  0  0  0  0  0
    6.4556  -15.7339   22.8362 C   0  0  0  0  0  0  0  0  0  0  0  0
    7.8084  -15.2109   22.4967 C   0  0  1  0  0  0  0  0  0  0  0  0
    8.9308  -16.0549   22.9699 C   0  0  0  0  0  0  0  0  0  0  0  0
    9.3231  -17.0592   22.3179 O   0  0  0  0  0  0  0  0  0  0  0  0
    9.6689  -15.0361   30.6487 O   0  0  0  0  0  0  0  0  0  0  0  0
   10.1548  -15.0926   29.3300 C   0  0  0  0  0  0  0  0  0  0  0  0
    9.8612  -14.1082   28.4177 C   0  0  0  0  0  0  0  0  0  0  0  0
   10.3269  -14.1373   27.1108 C   0  0  0  0  0  0  0  0  0  0  0  0
   11.1127  -15.1950   26.7171 C   0  0  0  0  0  0  0  0  0  0  0  0
   11.6293  -15.2808   25.3528 C   0  0  0  0  0  0  0  0  0  0  0  0
   10.9309  -16.2960   24.4775 C   0  0  2  0  0  0  0  0  0  0  0  0
    9.5987  -15.7627   24.1660 N   0  0  0  0  0  0  0  0  0  0  0  0
   10.8540  -17.6315   25.0703 C   0  0  0  0  0  0  0  0  0  0  0  0
    9.6491  -18.2056   25.4357 O   0  0  0  0  0  0  0  0  0  0  0  0
   11.4151  -16.1891   27.6208 C   0  0  0  0  0  0  0  0  0  0  0  0
   10.9451  -16.1541   28.9306 C   0  0  0  0  0  0  0  0  0  0  0  0
   11.8954  -18.3100   25.2701 O   0  0  0  0  0  0  0  0  0  0  0  0
  2  1  1  1
  3  2  1  0
  3  4  1  0
  4  5  1  0
  5  9  1  0
  5  6  2  0
  7  2  1  0
  7  8  2  0
 10  7  1  0
 11 10  1  0
 12 13  1  0
 12 11  1  0
 13 14  1  0
 14 10  1  0
 15 16  2  0
 14 15  1  6
 18 17  1  0
 19 18  2  0
 20 19  1  0
 21 27  1  0
 21 20  2  0
 23 22  1  1
 22 21  1  0
 23 24  1  0
 24 15  1  0
 25 23  1  0
 26 25  1  0
 27 28  2  0
 28 18  1  0
 29 25  2  0
M  END
$$$$
