PEW.pdb
     RDKit          3D

 31 33  0  0  1  0  0  0  0  0999 V2000
   28.1075  -22.2804  -15.8401 N   0  0  0  0  0  0  0  0  0  0  0  0
   28.8202  -22.3802  -17.0993 C   0  0  0  0  0  0  0  0  0  0  0  0
   29.2092  -20.9867  -17.5051 C   0  0  0  0  0  0  0  0  0  0  0  0
   28.4014  -20.1217  -16.5600 C   0  0  0  0  0  0  0  0  0  0  0  0
   28.3729  -20.9800  -15.3156 C   0  0  1  0  0  0  0  0  0  0  0  0
   27.4389  -20.4966  -14.3047 C   0  0  0  0  0  0  0  0  0  0  0  0
   27.6482  -19.3620  -13.7848 O   0  0  0  0  0  0  0  0  0  0  0  0
   26.2920  -21.1913  -13.8367 N   0  0  0  0  0  0  0  0  0  0  0  0
   25.3176  -20.5758  -12.9500 C   0  0  1  0  0  0  0  0  0  0  0  0
   23.9184  -20.6686  -13.5119 C   0  0  0  0  0  0  0  0  0  0  0  0
   22.9058  -19.9653  -12.6423 C   0  0  0  0  0  0  0  0  0  0  0  0
   21.5641  -20.1961  -13.2385 C   0  0  0  0  0  0  0  0  0  0  0  0
   20.7137  -20.9734  -12.7398 O   0  0  0  0  0  0  0  0  0  0  0  0
   25.3992  -21.1887  -11.5801 C   0  0  0  0  0  0  0  0  0  0  0  0
   25.5144  -22.4388  -11.4195 O   0  0  0  0  0  0  0  0  0  0  0  0
   21.2151  -19.5284  -14.4042 O   0  0  0  0  0  0  0  0  0  0  0  0
   25.3497  -20.3887  -10.4327 N   0  0  0  0  0  0  0  0  0  0  0  0
   25.4030  -20.9236   -9.0531 C   0  0  1  0  0  0  0  0  0  0  0  0
   26.1694  -19.8723   -8.2940 C   0  0  0  0  0  0  0  0  0  0  0  0
   27.5571  -20.2227   -7.9415 C   0  0  0  0  0  0  0  0  0  0  0  0
   28.4376  -21.0028   -8.7052 C   0  0  0  0  0  0  0  0  0  0  0  0
   29.6064  -21.1466   -8.0660 N   0  0  0  0  0  0  0  0  0  0  0  0
   29.5153  -20.4798   -6.9028 C   0  0  0  0  0  0  0  0  0  0  0  0
   30.4974  -20.3388   -5.9168 C   0  0  0  0  0  0  0  0  0  0  0  0
   30.1868  -19.5876   -4.8059 C   0  0  0  0  0  0  0  0  0  0  0  0
   28.9398  -19.0081   -4.7016 C   0  0  0  0  0  0  0  0  0  0  0  0
   27.9738  -19.1472   -5.6706 C   0  0  0  0  0  0  0  0  0  0  0  0
   28.2702  -19.9005   -6.7945 C   0  0  0  0  0  0  0  0  0  0  0  0
   24.0259  -21.0845   -8.5921 C   0  0  0  0  0  0  0  0  0  0  0  0
   23.6670  -21.8245   -7.4666 O   0  0  0  0  0  0  0  0  0  0  0  0
   23.0884  -20.5235   -9.2539 O   0  0  0  0  0  0  0  0  0  0  0  0
  1  5  1  0
  2  1  1  0
  2  3  1  0
  3  4  1  0
  5  4  1  0
  6  7  2  0
  5  6  1  1
  8  6  1  0
  9  8  1  0
  9 10  1  6
 11 10  1  0
 12 11  1  0
 13 12  2  0
 14  9  1  0
 15 14  2  0
 16 12  1  0
 17 14  1  0
 18 29  1  0
 18 17  1  0
 19 20  1  0
 18 19  1  1
 20 21  2  0
 20 28  1  0
 21 22  1  0
 22 23  1  0
 23 24  2  0
 24 25  1  0
 26 25  2  0
 27 26  1  0
 28 27  2  0
 28 23  1  0
 29 30  1  0
 31 29  2  0
M  END
$$$$
