PEW.pdb
     RDKit          3D

 31 33  0  0  1  0  0  0  0  0999 V2000
   27.8396  -20.2126  -16.3523 N   0  0  0  0  0  0  0  0  0  0  0  0
   28.5176  -19.8051  -17.5679 C   0  0  0  0  0  0  0  0  0  0  0  0
   28.9791  -18.3889  -17.3697 C   0  0  0  0  0  0  0  0  0  0  0  0
   28.2446  -17.9667  -16.1143 C   0  0  0  0  0  0  0  0  0  0  0  0
   28.1927  -19.2666  -15.3438 C   0  0  1  0  0  0  0  0  0  0  0  0
   27.3111  -19.2123  -14.1828 C   0  0  0  0  0  0  0  0  0  0  0  0
   27.5544  -18.3583  -13.2812 O   0  0  0  0  0  0  0  0  0  0  0  0
   26.1811  -20.0435  -13.9611 N   0  0  0  0  0  0  0  0  0  0  0  0
   25.1925  -19.7551  -12.9343 C   0  0  1  0  0  0  0  0  0  0  0  0
   23.7848  -19.9342  -13.4523 C   0  0  0  0  0  0  0  0  0  0  0  0
   22.7482  -19.7060  -12.3801 C   0  0  0  0  0  0  0  0  0  0  0  0
   21.4197  -20.0271  -12.9639 C   0  0  0  0  0  0  0  0  0  0  0  0
   20.8783  -21.1552  -12.8636 O   0  0  0  0  0  0  0  0  0  0  0  0
   25.4407  -20.6035  -11.7188 C   0  0  0  0  0  0  0  0  0  0  0  0
   25.5334  -21.8632  -11.7980 O   0  0  0  0  0  0  0  0  0  0  0  0
   20.7276  -19.0444  -13.6579 O   0  0  0  0  0  0  0  0  0  0  0  0
   25.5778  -20.0208  -10.4536 N   0  0  0  0  0  0  0  0  0  0  0  0
   25.7903  -20.7947   -9.2094 C   0  0  1  0  0  0  0  0  0  0  0  0
   26.7897  -19.9681   -8.4434 C   0  0  0  0  0  0  0  0  0  0  0  0
   27.1729  -20.4927   -7.1202 C   0  0  0  0  0  0  0  0  0  0  0  0
   26.7499  -21.7026   -6.5510 C   0  0  0  0  0  0  0  0  0  0  0  0
   27.2667  -21.8453   -5.3230 N   0  0  0  0  0  0  0  0  0  0  0  0
   28.0188  -20.7601   -5.0727 C   0  0  0  0  0  0  0  0  0  0  0  0
   28.7632  -20.4803   -3.9220 C   0  0  0  0  0  0  0  0  0  0  0  0
   29.4806  -19.3059   -3.8928 C   0  0  0  0  0  0  0  0  0  0  0  0
   29.4437  -18.4572   -4.9792 C   0  0  0  0  0  0  0  0  0  0  0  0
   28.7114  -18.7319   -6.1105 C   0  0  0  0  0  0  0  0  0  0  0  0
   27.9834  -19.9093   -6.1556 C   0  0  0  0  0  0  0  0  0  0  0  0
   24.4971  -20.9105   -8.5393 C   0  0  0  0  0  0  0  0  0  0  0  0
   24.2007  -21.8880   -7.5908 O   0  0  0  0  0  0  0  0  0  0  0  0
   23.5762  -20.0764   -8.8357 O   0  0  0  0  0  0  0  0  0  0  0  0
  1  5  1  0
  2  1  1  0
  2  3  1  0
  3  4  1  0
  5  4  1  0
  6  7  2  0
  5  6  1  1
  8  6  1  0
  9  8  1  0
  9 10  1  6
 11 10  1  0
 12 11  1  0
 13 12  2  0
 14  9  1  0
 15 14  2  0
 16 12  1  0
 17 14  1  0
 18 29  1  0
 18 17  1  0
 19 20  1  0
 18 19  1  1
 20 21  2  0
 20 28  1  0
 21 22  1  0
 22 23  1  0
 23 24  2  0
 24 25  1  0
 26 25  2  0
 27 26  1  0
 28 27  2  0
 28 23  1  0
 29 30  1  0
 31 29  2  0
M  END
$$$$
