PEW.pdb
     RDKit          3D

 31 33  0  0  1  0  0  0  0  0999 V2000
   29.1863  -18.3530  -15.8280 N   0  0  0  0  0  0  0  0  0  0  0  0
   29.6227  -17.4202  -16.8493 C   0  0  0  0  0  0  0  0  0  0  0  0
   28.5586  -16.3672  -16.9779 C   0  0  0  0  0  0  0  0  0  0  0  0
   27.4024  -16.9583  -16.1984 C   0  0  0  0  0  0  0  0  0  0  0  0
   28.1287  -17.7174  -15.1110 C   0  0  1  0  0  0  0  0  0  0  0  0
   27.2561  -18.6004  -14.3449 C   0  0  0  0  0  0  0  0  0  0  0  0
   26.2303  -18.1042  -13.7945 O   0  0  0  0  0  0  0  0  0  0  0  0
   27.4505  -19.9940  -14.1522 N   0  0  0  0  0  0  0  0  0  0  0  0
   26.4043  -20.8614  -13.6348 C   0  0  1  0  0  0  0  0  0  0  0  0
   26.3356  -22.1644  -14.3961 C   0  0  0  0  0  0  0  0  0  0  0  0
   26.3501  -21.9545  -15.8901 C   0  0  0  0  0  0  0  0  0  0  0  0
   26.4504  -23.2919  -16.5306 C   0  0  0  0  0  0  0  0  0  0  0  0
   25.6892  -23.6716  -17.4539 O   0  0  0  0  0  0  0  0  0  0  0  0
   26.6024  -21.0965  -12.1637 C   0  0  0  0  0  0  0  0  0  0  0  0
   27.6574  -21.6322  -11.7146 O   0  0  0  0  0  0  0  0  0  0  0  0
   27.4274  -24.1791  -16.1009 O   0  0  0  0  0  0  0  0  0  0  0  0
   25.6181  -20.7271  -11.2396 N   0  0  0  0  0  0  0  0  0  0  0  0
   25.5828  -21.2053   -9.8389 C   0  0  1  0  0  0  0  0  0  0  0  0
   26.7816  -20.5464   -9.2084 C   0  0  0  0  0  0  0  0  0  0  0  0
   26.7547  -20.4429   -7.7383 C   0  0  0  0  0  0  0  0  0  0  0  0
   25.6947  -20.8127   -6.8978 C   0  0  0  0  0  0  0  0  0  0  0  0
   26.0002  -20.5501   -5.6199 N   0  0  0  0  0  0  0  0  0  0  0  0
   27.2342  -20.0182   -5.6007 C   0  0  0  0  0  0  0  0  0  0  0  0
   27.9717  -19.6043   -4.4865 C   0  0  0  0  0  0  0  0  0  0  0  0
   29.2350  -19.1030   -4.7045 C   0  0  0  0  0  0  0  0  0  0  0  0
   29.7252  -19.0259   -5.9912 C   0  0  0  0  0  0  0  0  0  0  0  0
   29.0000  -19.4322   -7.0869 C   0  0  0  0  0  0  0  0  0  0  0  0
   27.7267  -19.9384   -6.8847 C   0  0  0  0  0  0  0  0  0  0  0  0
   24.3121  -20.7742   -9.2606 C   0  0  0  0  0  0  0  0  0  0  0  0
   23.8062  -21.2569   -8.0548 O   0  0  0  0  0  0  0  0  0  0  0  0
   23.6140  -19.9096   -9.8904 O   0  0  0  0  0  0  0  0  0  0  0  0
  1  5  1  0
  2  1  1  0
  2  3  1  0
  3  4  1  0
  5  4  1  0
  6  7  2  0
  5  6  1  6
  8  6  1  0
  9  8  1  0
  9 10  1  6
 11 10  1  0
 12 11  1  0
 13 12  2  0
 14  9  1  0
 15 14  2  0
 16 12  1  0
 17 14  1  0
 18 29  1  0
 18 17  1  0
 19 20  1  0
 18 19  1  1
 20 21  2  0
 20 28  1  0
 21 22  1  0
 22 23  1  0
 23 24  2  0
 24 25  1  0
 26 25  2  0
 27 26  1  0
 28 27  2  0
 28 23  1  0
 29 30  1  0
 31 29  2  0
M  END
$$$$
