PEW.pdb
     RDKit          3D

 31 33  0  0  1  0  0  0  0  0999 V2000
   27.7063  -23.2434  -16.8580 N   0  0  0  0  0  0  0  0  0  0  0  0
   28.3402  -23.6315  -18.1035 C   0  0  0  0  0  0  0  0  0  0  0  0
   29.3889  -22.6007  -18.4122 C   0  0  0  0  0  0  0  0  0  0  0  0
   29.0681  -21.4891  -17.4347 C   0  0  0  0  0  0  0  0  0  0  0  0
   28.5535  -22.2710  -16.2473 C   0  0  1  0  0  0  0  0  0  0  0  0
   27.9308  -21.4299  -15.2310 C   0  0  0  0  0  0  0  0  0  0  0  0
   28.5970  -20.4636  -14.7579 O   0  0  0  0  0  0  0  0  0  0  0  0
   26.6201  -21.5940  -14.7091 N   0  0  0  0  0  0  0  0  0  0  0  0
   25.9926  -20.5987  -13.8547 C   0  0  1  0  0  0  0  0  0  0  0  0
   24.7225  -20.0596  -14.4699 C   0  0  0  0  0  0  0  0  0  0  0  0
   24.9978  -19.1230  -15.6202 C   0  0  0  0  0  0  0  0  0  0  0  0
   23.6929  -18.5796  -16.0793 C   0  0  0  0  0  0  0  0  0  0  0  0
   22.8494  -18.0673  -15.3034 O   0  0  0  0  0  0  0  0  0  0  0  0
   25.7393  -21.1702  -12.4880 C   0  0  0  0  0  0  0  0  0  0  0  0
   25.1632  -22.2864  -12.3330 O   0  0  0  0  0  0  0  0  0  0  0  0
   23.3726  -18.6316  -17.4287 O   0  0  0  0  0  0  0  0  0  0  0  0
   26.1360  -20.4793  -11.3372 N   0  0  0  0  0  0  0  0  0  0  0  0
   25.9103  -20.9749   -9.9604 C   0  0  1  0  0  0  0  0  0  0  0  0
   26.9656  -20.2678   -9.1510 C   0  0  0  0  0  0  0  0  0  0  0  0
   26.8555  -20.4159   -7.6885 C   0  0  0  0  0  0  0  0  0  0  0  0
   25.8643  -21.1272   -6.9969 C   0  0  0  0  0  0  0  0  0  0  0  0
   26.0528  -21.0224   -5.6745 N   0  0  0  0  0  0  0  0  0  0  0  0
   27.1432  -20.2610   -5.4811 C   0  0  0  0  0  0  0  0  0  0  0  0
   27.7280  -19.8952   -4.2643 C   0  0  0  0  0  0  0  0  0  0  0  0
   28.8634  -19.1182   -4.3070 C   0  0  0  0  0  0  0  0  0  0  0  0
   29.3796  -18.7317   -5.5261 C   0  0  0  0  0  0  0  0  0  0  0  0
   28.8044  -19.0907   -6.7226 C   0  0  0  0  0  0  0  0  0  0  0  0
   27.6609  -19.8718   -6.6969 C   0  0  0  0  0  0  0  0  0  0  0  0
   24.5470  -20.6108   -9.5817 C   0  0  0  0  0  0  0  0  0  0  0  0
   23.7633  -21.3532   -8.6998 O   0  0  0  0  0  0  0  0  0  0  0  0
   24.0316  -19.5563  -10.0858 O   0  0  0  0  0  0  0  0  0  0  0  0
  1  5  1  0
  2  1  1  0
  2  3  1  0
  3  4  1  0
  5  4  1  0
  6  7  2  0
  5  6  1  1
  8  6  1  0
  9  8  1  0
  9 10  1  6
 11 10  1  0
 12 11  1  0
 13 12  2  0
 14  9  1  0
 15 14  2  0
 16 12  1  0
 17 14  1  0
 18 29  1  0
 18 17  1  0
 19 20  1  0
 18 19  1  1
 20 21  2  0
 20 28  1  0
 21 22  1  0
 22 23  1  0
 23 24  2  0
 24 25  1  0
 26 25  2  0
 27 26  1  0
 28 27  2  0
 28 23  1  0
 29 30  1  0
 31 29  2  0
M  END
$$$$
