PEW.pdb
     RDKit          3D

 31 33  0  0  1  0  0  0  0  0999 V2000
   25.2648  -21.3052  -16.2284 N   0  0  0  0  0  0  0  0  0  0  0  0
   25.3896  -21.1007  -17.6588 C   0  0  0  0  0  0  0  0  0  0  0  0
   25.7552  -19.6594  -17.8747 C   0  0  0  0  0  0  0  0  0  0  0  0
   25.5147  -19.0421  -16.5127 C   0  0  0  0  0  0  0  0  0  0  0  0
   25.8822  -20.1856  -15.5943 C   0  0  1  0  0  0  0  0  0  0  0  0
   25.5054  -19.9512  -14.2046 C   0  0  0  0  0  0  0  0  0  0  0  0
   26.0190  -18.9657  -13.5994 O   0  0  0  0  0  0  0  0  0  0  0  0
   24.5979  -20.7393  -13.4481 N   0  0  0  0  0  0  0  0  0  0  0  0
   24.1490  -20.3503  -12.1208 C   0  0  1  0  0  0  0  0  0  0  0  0
   22.6840  -20.6577  -11.9174 C   0  0  0  0  0  0  0  0  0  0  0  0
   21.7930  -19.7697  -12.7503 C   0  0  0  0  0  0  0  0  0  0  0  0
   20.3844  -20.1134  -12.4237 C   0  0  0  0  0  0  0  0  0  0  0  0
   19.5502  -19.2735  -12.0059 O   0  0  0  0  0  0  0  0  0  0  0  0
   24.9977  -21.0089  -11.0697 C   0  0  0  0  0  0  0  0  0  0  0  0
   25.2525  -22.2482  -11.1047 O   0  0  0  0  0  0  0  0  0  0  0  0
   19.9507  -21.4223  -12.5819 O   0  0  0  0  0  0  0  0  0  0  0  0
   25.5356  -20.2653  -10.0129 N   0  0  0  0  0  0  0  0  0  0  0  0
   26.3643  -20.8489   -8.9336 C   0  0  1  0  0  0  0  0  0  0  0  0
   27.2963  -19.7275   -8.5558 C   0  0  0  0  0  0  0  0  0  0  0  0
   28.3517  -20.0726   -7.5864 C   0  0  0  0  0  0  0  0  0  0  0  0
   29.3489  -21.0445   -7.7536 C   0  0  0  0  0  0  0  0  0  0  0  0
   30.1183  -21.1153   -6.6589 N   0  0  0  0  0  0  0  0  0  0  0  0
   29.6517  -20.2138   -5.7782 C   0  0  0  0  0  0  0  0  0  0  0  0
   30.1504  -19.9230   -4.5042 C   0  0  0  0  0  0  0  0  0  0  0  0
   29.5194  -18.9380   -3.7786 C   0  0  0  0  0  0  0  0  0  0  0  0
   28.4350  -18.2806   -4.3206 C   0  0  0  0  0  0  0  0  0  0  0  0
   27.9442  -18.5669   -5.5730 C   0  0  0  0  0  0  0  0  0  0  0  0
   28.5673  -19.5559   -6.3158 C   0  0  0  0  0  0  0  0  0  0  0  0
   25.4626  -21.2434   -7.8537 C   0  0  0  0  0  0  0  0  0  0  0  0
   25.7563  -22.2398   -6.9242 O   0  0  0  0  0  0  0  0  0  0  0  0
   24.3355  -20.6515   -7.7491 O   0  0  0  0  0  0  0  0  0  0  0  0
  1  5  1  0
  2  1  1  0
  2  3  1  0
  3  4  1  0
  5  4  1  0
  6  7  2  0
  5  6  1  1
  8  6  1  0
  9  8  1  0
  9 10  1  1
 11 10  1  0
 12 11  1  0
 13 12  2  0
 14  9  1  0
 15 14  2  0
 16 12  1  0
 17 14  1  0
 18 29  1  0
 18 17  1  0
 19 20  1  0
 18 19  1  1
 20 21  2  0
 20 28  1  0
 21 22  1  0
 22 23  1  0
 23 24  2  0
 24 25  1  0
 26 25  2  0
 27 26  1  0
 28 27  2  0
 28 23  1  0
 29 30  1  0
 31 29  2  0
M  END
$$$$
