PEW.pdb
     RDKit          3D

 31 33  0  0  1  0  0  0  0  0999 V2000
   21.4468  -18.8073  -16.1297 N   0  0  0  0  0  0  0  0  0  0  0  0
   21.0540  -17.6110  -16.8496 C   0  0  0  0  0  0  0  0  0  0  0  0
   21.7249  -16.4451  -16.1801 C   0  0  0  0  0  0  0  0  0  0  0  0
   22.2407  -17.0475  -14.8897 C   0  0  0  0  0  0  0  0  0  0  0  0
   22.5729  -18.4564  -15.3263 C   0  0  1  0  0  0  0  0  0  0  0  0
   22.8648  -19.3504  -14.2112 C   0  0  0  0  0  0  0  0  0  0  0  0
   21.9442  -20.1105  -13.7917 O   0  0  0  0  0  0  0  0  0  0  0  0
   24.1098  -19.4527  -13.5354 N   0  0  0  0  0  0  0  0  0  0  0  0
   24.5108  -20.6541  -12.8209 C   0  0  1  0  0  0  0  0  0  0  0  0
   24.5983  -21.8466  -13.7441 C   0  0  0  0  0  0  0  0  0  0  0  0
   24.0626  -23.1041  -13.1053 C   0  0  0  0  0  0  0  0  0  0  0  0
   22.9218  -23.5771  -13.9321 C   0  0  0  0  0  0  0  0  0  0  0  0
   23.0473  -23.9693  -15.1180 O   0  0  0  0  0  0  0  0  0  0  0  0
   25.8093  -20.4230  -12.1003 C   0  0  0  0  0  0  0  0  0  0  0  0
   26.8141  -19.9267  -12.6886 O   0  0  0  0  0  0  0  0  0  0  0  0
   21.6468  -23.5938  -13.3839 O   0  0  0  0  0  0  0  0  0  0  0  0
   25.9468  -20.7525  -10.7470 N   0  0  0  0  0  0  0  0  0  0  0  0
   27.1735  -20.4976   -9.9581 C   0  0  1  0  0  0  0  0  0  0  0  0
   26.7686  -20.8456   -8.5496 C   0  0  0  0  0  0  0  0  0  0  0  0
   27.1448  -19.8649   -7.5155 C   0  0  0  0  0  0  0  0  0  0  0  0
   26.8911  -18.4859   -7.5456 C   0  0  0  0  0  0  0  0  0  0  0  0
   27.4026  -17.8945   -6.4575 N   0  0  0  0  0  0  0  0  0  0  0  0
   27.9846  -18.8507   -5.7139 C   0  0  0  0  0  0  0  0  0  0  0  0
   28.6335  -18.7033   -4.4836 C   0  0  0  0  0  0  0  0  0  0  0  0
   29.1424  -19.8351   -3.8879 C   0  0  0  0  0  0  0  0  0  0  0  0
   28.9991  -21.0568   -4.5114 C   0  0  0  0  0  0  0  0  0  0  0  0
   28.3616  -21.2019   -5.7213 C   0  0  0  0  0  0  0  0  0  0  0  0
   27.8445  -20.0727   -6.3343 C   0  0  0  0  0  0  0  0  0  0  0  0
   28.2243  -21.3620  -10.4905 C   0  0  0  0  0  0  0  0  0  0  0  0
   29.5846  -21.0689  -10.4081 O   0  0  0  0  0  0  0  0  0  0  0  0
   27.8883  -22.4488  -11.0716 O   0  0  0  0  0  0  0  0  0  0  0  0
  1  5  1  0
  2  1  1  0
  2  3  1  0
  3  4  1  0
  5  4  1  0
  6  7  2  0
  5  6  1  1
  8  6  1  0
  9  8  1  0
  9 10  1  6
 11 10  1  0
 12 11  1  0
 13 12  2  0
 14  9  1  0
 15 14  2  0
 16 12  1  0
 17 14  1  0
 18 29  1  0
 18 17  1  0
 19 20  1  0
 18 19  1  1
 20 21  2  0
 20 28  1  0
 21 22  1  0
 22 23  1  0
 23 24  2  0
 24 25  1  0
 26 25  2  0
 27 26  1  0
 28 27  2  0
 28 23  1  0
 29 30  1  0
 31 29  2  0
M  END
$$$$
