PEW.pdb
     RDKit          3D

 31 33  0  0  1  0  0  0  0  0999 V2000
   23.9363  -18.7644  -17.6688 N   0  0  0  0  0  0  0  0  0  0  0  0
   25.1934  -19.4045  -18.0057 C   0  0  0  0  0  0  0  0  0  0  0  0
   25.3081  -19.4048  -19.5039 C   0  0  0  0  0  0  0  0  0  0  0  0
   23.9143  -19.0141  -19.9496 C   0  0  0  0  0  0  0  0  0  0  0  0
   23.4941  -18.0778  -18.8392 C   0  0  1  0  0  0  0  0  0  0  0  0
   22.0767  -17.7353  -18.8812 C   0  0  0  0  0  0  0  0  0  0  0  0
   21.6328  -17.1323  -19.9013 O   0  0  0  0  0  0  0  0  0  0  0  0
   21.1254  -18.0191  -17.8655 N   0  0  0  0  0  0  0  0  0  0  0  0
   19.7100  -17.7242  -18.0209 C   0  0  1  0  0  0  0  0  0  0  0  0
   18.8518  -18.6918  -17.2404 C   0  0  0  0  0  0  0  0  0  0  0  0
   17.3781  -18.4321  -17.4332 C   0  0  0  0  0  0  0  0  0  0  0  0
   16.6358  -19.4289  -16.6181 C   0  0  0  0  0  0  0  0  0  0  0  0
   15.8197  -20.2476  -17.1076 O   0  0  0  0  0  0  0  0  0  0  0  0
   19.4278  -16.3015  -17.6273 C   0  0  0  0  0  0  0  0  0  0  0  0
   19.8109  -15.8333  -16.5156 O   0  0  0  0  0  0  0  0  0  0  0  0
   16.8416  -19.4728  -15.2462 O   0  0  0  0  0  0  0  0  0  0  0  0
   18.7274  -15.4456  -18.4852 N   0  0  0  0  0  0  0  0  0  0  0  0
   18.3607  -14.0533  -18.1402 C   0  0  1  0  0  0  0  0  0  0  0  0
   18.6054  -13.2946  -19.4182 C   0  0  0  0  0  0  0  0  0  0  0  0
   18.1851  -11.8818  -19.4134 C   0  0  0  0  0  0  0  0  0  0  0  0
   18.5848  -10.8983  -18.4969 C   0  0  0  0  0  0  0  0  0  0  0  0
   17.9823   -9.7335  -18.7715 N   0  0  0  0  0  0  0  0  0  0  0  0
   17.1981   -9.9276  -19.8454 C   0  0  0  0  0  0  0  0  0  0  0  0
   16.3923   -8.9895  -20.4989 C   0  0  0  0  0  0  0  0  0  0  0  0
   15.6835   -9.4107  -21.6012 C   0  0  0  0  0  0  0  0  0  0  0  0
   15.7881  -10.7207  -22.0192 C   0  0  0  0  0  0  0  0  0  0  0  0
   16.5800  -11.6435  -21.3765 C   0  0  0  0  0  0  0  0  0  0  0  0
   17.2991  -11.2358  -20.2652 C   0  0  0  0  0  0  0  0  0  0  0  0
   16.9592  -14.0588  -17.7274 C   0  0  0  0  0  0  0  0  0  0  0  0
   15.9997  -14.9220  -18.2541 O   0  0  0  0  0  0  0  0  0  0  0  0
   16.5790  -13.2254  -16.8371 O   0  0  0  0  0  0  0  0  0  0  0  0
  1  5  1  0
  2  1  1  0
  2  3  1  0
  3  4  1  0
  5  4  1  0
  6  7  2  0
  5  6  1  1
  8  6  1  0
  9  8  1  0
  9 10  1  1
 11 10  1  0
 12 11  1  0
 13 12  2  0
 14  9  1  0
 15 14  2  0
 16 12  1  0
 17 14  1  0
 18 29  1  0
 18 17  1  0
 19 20  1  0
 18 19  1  6
 20 21  2  0
 20 28  1  0
 21 22  1  0
 22 23  1  0
 23 24  2  0
 24 25  1  0
 26 25  2  0
 27 26  1  0
 28 27  2  0
 28 23  1  0
 29 30  1  0
 31 29  2  0
M  END
$$$$
