PEW.pdb
     RDKit          3D

 31 33  0  0  1  0  0  0  0  0999 V2000
   27.9122  -20.4090  -18.7356 N   0  0  0  0  0  0  0  0  0  0  0  0
   28.9348  -20.3539  -19.7626 C   0  0  0  0  0  0  0  0  0  0  0  0
   30.2444  -20.0862  -19.0763 C   0  0  0  0  0  0  0  0  0  0  0  0
   29.8186  -19.6966  -17.6760 C   0  0  0  0  0  0  0  0  0  0  0  0
   28.5868  -20.5527  -17.4863 C   0  0  1  0  0  0  0  0  0  0  0  0
   27.8161  -20.1968  -16.3000 C   0  0  0  0  0  0  0  0  0  0  0  0
   28.3857  -20.2559  -15.1715 O   0  0  0  0  0  0  0  0  0  0  0  0
   26.4581  -19.7811  -16.2882 N   0  0  0  0  0  0  0  0  0  0  0  0
   25.7878  -19.3467  -15.0731 C   0  0  1  0  0  0  0  0  0  0  0  0
   24.6603  -18.3872  -15.3730 C   0  0  0  0  0  0  0  0  0  0  0  0
   25.1172  -17.2083  -16.1963 C   0  0  0  0  0  0  0  0  0  0  0  0
   25.0857  -16.0087  -15.3194 C   0  0  0  0  0  0  0  0  0  0  0  0
   24.0589  -15.6345  -14.7018 O   0  0  0  0  0  0  0  0  0  0  0  0
   25.3020  -20.5355  -14.2923 C   0  0  0  0  0  0  0  0  0  0  0  0
   24.7327  -21.5131  -14.8598 O   0  0  0  0  0  0  0  0  0  0  0  0
   26.2384  -15.2518  -15.1626 O   0  0  0  0  0  0  0  0  0  0  0  0
   25.4662  -20.5970  -12.9037 N   0  0  0  0  0  0  0  0  0  0  0  0
   25.0743  -21.7626  -12.0791 C   0  0  1  0  0  0  0  0  0  0  0  0
   26.2470  -21.9529  -11.1532 C   0  0  0  0  0  0  0  0  0  0  0  0
   26.3078  -21.0351  -10.0015 C   0  0  0  0  0  0  0  0  0  0  0  0
   25.2817  -20.1880   -9.5581 C   0  0  0  0  0  0  0  0  0  0  0  0
   25.6939  -19.4689   -8.5052 N   0  0  0  0  0  0  0  0  0  0  0  0
   26.9640  -19.8235   -8.2462 C   0  0  0  0  0  0  0  0  0  0  0  0
   27.7959  -19.3470   -7.2276 C   0  0  0  0  0  0  0  0  0  0  0  0
   29.0653  -19.8719   -7.1390 C   0  0  0  0  0  0  0  0  0  0  0  0
   29.4699  -20.8337   -8.0407 C   0  0  0  0  0  0  0  0  0  0  0  0
   28.6523  -21.3018   -9.0427 C   0  0  0  0  0  0  0  0  0  0  0  0
   27.3721  -20.7834   -9.1460 C   0  0  0  0  0  0  0  0  0  0  0  0
   23.8373  -21.4120  -11.3849 C   0  0  0  0  0  0  0  0  0  0  0  0
   23.3087  -20.1227  -11.3469 O   0  0  0  0  0  0  0  0  0  0  0  0
   23.1980  -22.3310  -10.7697 O   0  0  0  0  0  0  0  0  0  0  0  0
  1  5  1  0
  2  1  1  0
  2  3  1  0
  3  4  1  0
  5  4  1  0
  6  7  2  0
  5  6  1  1
  8  6  1  0
  9  8  1  0
  9 10  1  6
 11 10  1  0
 12 11  1  0
 13 12  2  0
 14  9  1  0
 15 14  2  0
 16 12  1  0
 17 14  1  0
 18 29  1  0
 18 17  1  0
 19 20  1  0
 18 19  1  1
 20 21  2  0
 20 28  1  0
 21 22  1  0
 22 23  1  0
 23 24  2  0
 24 25  1  0
 26 25  2  0
 27 26  1  0
 28 27  2  0
 28 23  1  0
 29 30  1  0
 31 29  2  0
M  END
$$$$
