PEW.pdb
     RDKit          3D

 31 33  0  0  1  0  0  0  0  0999 V2000
   28.1170  -20.0923  -16.8078 N   0  0  0  0  0  0  0  0  0  0  0  0
   28.6540  -19.5987  -18.0614 C   0  0  0  0  0  0  0  0  0  0  0  0
   29.0971  -18.1815  -17.8314 C   0  0  0  0  0  0  0  0  0  0  0  0
   28.4868  -17.8509  -16.4853 C   0  0  0  0  0  0  0  0  0  0  0  0
   28.5488  -19.1914  -15.7887 C   0  0  1  0  0  0  0  0  0  0  0  0
   27.7919  -19.2275  -14.5422 C   0  0  0  0  0  0  0  0  0  0  0  0
   28.1053  -18.4155  -13.6236 O   0  0  0  0  0  0  0  0  0  0  0  0
   26.7134  -20.1052  -14.2530 N   0  0  0  0  0  0  0  0  0  0  0  0
   25.7441  -19.8278  -13.2050 C   0  0  1  0  0  0  0  0  0  0  0  0
   24.3345  -20.1266  -13.6587 C   0  0  0  0  0  0  0  0  0  0  0  0
   23.9859  -21.5875  -13.5156 C   0  0  0  0  0  0  0  0  0  0  0  0
   22.5928  -21.7666  -14.0013 C   0  0  0  0  0  0  0  0  0  0  0  0
   21.5917  -21.7446  -13.2441 O   0  0  0  0  0  0  0  0  0  0  0  0
   26.0916  -20.5918  -11.9582 C   0  0  0  0  0  0  0  0  0  0  0  0
   26.4075  -21.8167  -11.9983 O   0  0  0  0  0  0  0  0  0  0  0  0
   22.3667  -21.9692  -15.3556 O   0  0  0  0  0  0  0  0  0  0  0  0
   26.0760  -19.9661  -10.7063 N   0  0  0  0  0  0  0  0  0  0  0  0
   26.3802  -20.6610   -9.4348 C   0  0  1  0  0  0  0  0  0  0  0  0
   27.4006  -19.7687   -8.7779 C   0  0  0  0  0  0  0  0  0  0  0  0
   27.4258  -19.8030   -7.3045 C   0  0  0  0  0  0  0  0  0  0  0  0
   26.3774  -19.4408   -6.4461 C   0  0  0  0  0  0  0  0  0  0  0  0
   26.7591  -19.5631   -5.1676 N   0  0  0  0  0  0  0  0  0  0  0  0
   28.0308  -19.9973   -5.1654 C   0  0  0  0  0  0  0  0  0  0  0  0
   28.8370  -20.2825   -4.0585 C   0  0  0  0  0  0  0  0  0  0  0  0
   30.1140  -20.7381   -4.2963 C   0  0  0  0  0  0  0  0  0  0  0  0
   30.5507  -20.8963   -5.5947 C   0  0  0  0  0  0  0  0  0  0  0  0
   29.7584  -20.6154   -6.6832 C   0  0  0  0  0  0  0  0  0  0  0  0
   28.4710  -20.1553   -6.4612 C   0  0  0  0  0  0  0  0  0  0  0  0
   25.1315  -20.7664   -8.6835 C   0  0  0  0  0  0  0  0  0  0  0  0
   23.9917  -20.0151   -8.9656 O   0  0  0  0  0  0  0  0  0  0  0  0
   25.0713  -21.5872   -7.7066 O   0  0  0  0  0  0  0  0  0  0  0  0
  1  5  1  0
  2  1  1  0
  2  3  1  0
  3  4  1  0
  5  4  1  0
  6  7  2  0
  5  6  1  1
  8  6  1  0
  9  8  1  0
  9 10  1  6
 11 10  1  0
 12 11  1  0
 13 12  2  0
 14  9  1  0
 15 14  2  0
 16 12  1  0
 17 14  1  0
 18 29  1  0
 18 17  1  0
 19 20  1  0
 18 19  1  1
 20 21  2  0
 20 28  1  0
 21 22  1  0
 22 23  1  0
 23 24  2  0
 24 25  1  0
 26 25  2  0
 27 26  1  0
 28 27  2  0
 28 23  1  0
 29 30  1  0
 31 29  2  0
M  END
$$$$
