PEW.pdb
     RDKit          3D

 31 33  0  0  1  0  0  0  0  0999 V2000
   27.9579  -22.4288  -16.0345 N   0  0  0  0  0  0  0  0  0  0  0  0
   28.6131  -22.5622  -17.3215 C   0  0  0  0  0  0  0  0  0  0  0  0
   28.8925  -21.1752  -17.8275 C   0  0  0  0  0  0  0  0  0  0  0  0
   28.0785  -20.3044  -16.8930 C   0  0  0  0  0  0  0  0  0  0  0  0
   28.1655  -21.0850  -15.6011 C   0  0  1  0  0  0  0  0  0  0  0  0
   27.2532  -20.5980  -14.5722 C   0  0  0  0  0  0  0  0  0  0  0  0
   27.3925  -19.4108  -14.1568 O   0  0  0  0  0  0  0  0  0  0  0  0
   26.2004  -21.3435  -13.9782 N   0  0  0  0  0  0  0  0  0  0  0  0
   25.2590  -20.7503  -13.0419 C   0  0  1  0  0  0  0  0  0  0  0  0
   23.8291  -20.9723  -13.4759 C   0  0  0  0  0  0  0  0  0  0  0  0
   23.3825  -19.9659  -14.5073 C   0  0  0  0  0  0  0  0  0  0  0  0
   21.9592  -20.2512  -14.8265 C   0  0  0  0  0  0  0  0  0  0  0  0
   21.5988  -21.1676  -15.6050 O   0  0  0  0  0  0  0  0  0  0  0  0
   25.4990  -21.2795  -11.6559 C   0  0  0  0  0  0  0  0  0  0  0  0
   25.6511  -22.5166  -11.4362 O   0  0  0  0  0  0  0  0  0  0  0  0
   20.9646  -19.4773  -14.2448 O   0  0  0  0  0  0  0  0  0  0  0  0
   25.5618  -20.4129  -10.5585 N   0  0  0  0  0  0  0  0  0  0  0  0
   25.6794  -20.8691   -9.1549 C   0  0  1  0  0  0  0  0  0  0  0  0
   26.5178  -19.8008   -8.5033 C   0  0  0  0  0  0  0  0  0  0  0  0
   27.7276  -20.2738   -7.8067 C   0  0  0  0  0  0  0  0  0  0  0  0
   28.6590  -21.2019   -8.2947 C   0  0  0  0  0  0  0  0  0  0  0  0
   29.6159  -21.4244   -7.3835 N   0  0  0  0  0  0  0  0  0  0  0  0
   29.3363  -20.6651   -6.3106 C   0  0  0  0  0  0  0  0  0  0  0  0
   30.0669  -20.5583   -5.1225 C   0  0  0  0  0  0  0  0  0  0  0  0
   29.5988  -19.6953   -4.1578 C   0  0  0  0  0  0  0  0  0  0  0  0
   28.4451  -18.9758   -4.3885 C   0  0  0  0  0  0  0  0  0  0  0  0
   27.7263  -19.0811   -5.5563 C   0  0  0  0  0  0  0  0  0  0  0  0
   28.1835  -19.9457   -6.5369 C   0  0  0  0  0  0  0  0  0  0  0  0
   24.3271  -20.9595   -8.6089 C   0  0  0  0  0  0  0  0  0  0  0  0
   23.1819  -20.5849   -9.3098 O   0  0  0  0  0  0  0  0  0  0  0  0
   24.1743  -21.4010   -7.4200 O   0  0  0  0  0  0  0  0  0  0  0  0
  1  5  1  0
  2  1  1  0
  2  3  1  0
  3  4  1  0
  5  4  1  0
  6  7  2  0
  5  6  1  1
  8  6  1  0
  9  8  1  0
  9 10  1  6
 11 10  1  0
 12 11  1  0
 13 12  2  0
 14  9  1  0
 15 14  2  0
 16 12  1  0
 17 14  1  0
 18 29  1  0
 18 17  1  0
 19 20  1  0
 18 19  1  1
 20 21  2  0
 20 28  1  0
 21 22  1  0
 22 23  1  0
 23 24  2  0
 24 25  1  0
 26 25  2  0
 27 26  1  0
 28 27  2  0
 28 23  1  0
 29 30  1  0
 31 29  2  0
M  END
$$$$
