PEW.pdb
     RDKit          3D

 31 33  0  0  1  0  0  0  0  0999 V2000
   28.2530  -22.4306  -15.2020 N   0  0  0  0  0  0  0  0  0  0  0  0
   28.5345  -22.8921  -16.5479 C   0  0  0  0  0  0  0  0  0  0  0  0
   28.5160  -21.6883  -17.4469 C   0  0  0  0  0  0  0  0  0  0  0  0
   27.9081  -20.6174  -16.5652 C   0  0  0  0  0  0  0  0  0  0  0  0
   28.4319  -21.0147  -15.2036 C   0  0  1  0  0  0  0  0  0  0  0  0
   27.7963  -20.2898  -14.1088 C   0  0  0  0  0  0  0  0  0  0  0  0
   27.7007  -19.0309  -14.1954 O   0  0  0  0  0  0  0  0  0  0  0  0
   27.2626  -20.8727  -12.9288 N   0  0  0  0  0  0  0  0  0  0  0  0
   26.0278  -20.4049  -12.3197 C   0  0  1  0  0  0  0  0  0  0  0  0
   24.8464  -20.5954  -13.2417 C   0  0  0  0  0  0  0  0  0  0  0  0
   24.5321  -19.3495  -14.0325 C   0  0  0  0  0  0  0  0  0  0  0  0
   23.1667  -19.5086  -14.5976 C   0  0  0  0  0  0  0  0  0  0  0  0
   22.1772  -19.8701  -13.9150 O   0  0  0  0  0  0  0  0  0  0  0  0
   25.8071  -21.0871  -10.9988 C   0  0  0  0  0  0  0  0  0  0  0  0
   25.8572  -22.3468  -10.8873 O   0  0  0  0  0  0  0  0  0  0  0  0
   22.9549  -19.2491  -15.9445 O   0  0  0  0  0  0  0  0  0  0  0  0
   25.5375  -20.3434   -9.8441 N   0  0  0  0  0  0  0  0  0  0  0  0
   25.3289  -20.9451   -8.5074 C   0  0  1  0  0  0  0  0  0  0  0  0
   25.6795  -19.8299   -7.5575 C   0  0  0  0  0  0  0  0  0  0  0  0
   27.1135  -19.6772   -7.2523 C   0  0  0  0  0  0  0  0  0  0  0  0
   28.1128  -19.2564   -8.1418 C   0  0  0  0  0  0  0  0  0  0  0  0
   29.3085  -19.2656   -7.5370 N   0  0  0  0  0  0  0  0  0  0  0  0
   29.1186  -19.6808   -6.2731 C   0  0  0  0  0  0  0  0  0  0  0  0
   30.0788  -19.8308   -5.2670 C   0  0  0  0  0  0  0  0  0  0  0  0
   29.6496  -20.2550   -4.0298 C   0  0  0  0  0  0  0  0  0  0  0  0
   28.3108  -20.5141   -3.8245 C   0  0  0  0  0  0  0  0  0  0  0  0
   27.3666  -20.3673   -4.8138 C   0  0  0  0  0  0  0  0  0  0  0  0
   27.7822  -19.9419   -6.0646 C   0  0  0  0  0  0  0  0  0  0  0  0
   23.9299  -21.3585   -8.4265 C   0  0  0  0  0  0  0  0  0  0  0  0
   22.9901  -21.1125   -9.4262 O   0  0  0  0  0  0  0  0  0  0  0  0
   23.5329  -21.9771   -7.3817 O   0  0  0  0  0  0  0  0  0  0  0  0
  1  5  1  0
  2  1  1  0
  2  3  1  0
  3  4  1  0
  5  4  1  0
  6  7  2  0
  5  6  1  1
  8  6  1  0
  9  8  1  0
  9 10  1  6
 11 10  1  0
 12 11  1  0
 13 12  2  0
 14  9  1  0
 15 14  2  0
 16 12  1  0
 17 14  1  0
 18 29  1  0
 18 17  1  0
 19 20  1  0
 18 19  1  1
 20 21  2  0
 20 28  1  0
 21 22  1  0
 22 23  1  0
 23 24  2  0
 24 25  1  0
 26 25  2  0
 27 26  1  0
 28 27  2  0
 28 23  1  0
 29 30  1  0
 31 29  2  0
M  END
$$$$
