HML.pdb
     RDKit          3D

 27 27  0  0  1  0  0  0  0  0999 V2000
   23.8079  -21.3289  -14.0816 N   0  0  0  0  0  0  0  0  0  0  0  0
   23.6852  -20.8902  -12.7272 C   0  0  1  0  0  0  0  0  0  0  0  0
   22.3041  -21.2384  -12.2037 C   0  0  0  0  0  0  0  0  0  0  0  0
   21.3275  -20.1717  -12.5211 C   0  0  0  0  0  0  0  0  0  0  0  0
   21.5716  -19.0000  -13.1697 C   0  0  0  0  0  0  0  0  0  0  0  0
   20.3946  -18.3546  -13.2323 N   0  0  0  0  0  0  0  0  0  0  0  0
   19.4336  -19.0962  -12.6408 C   0  0  0  0  0  0  0  0  0  0  0  0
   20.0253  -20.2218  -12.2032 N   0  0  0  0  0  0  0  0  0  0  0  0
   24.7548  -21.3914  -11.8388 C   0  0  0  0  0  0  0  0  0  0  0  0
   25.0478  -22.5991  -11.8685 O   0  0  0  0  0  0  0  0  0  0  0  0
   30.1951  -21.2024  -12.8953 C   0  0  0  0  0  0  0  0  0  0  0  0
   30.6024  -21.2147  -11.1112 S   0  0  0  0  0  0  0  0  0  0  0  0
   29.0578  -21.4236  -10.2123 C   0  0  0  0  0  0  0  0  0  0  0  0
   27.8868  -20.8428  -10.9333 C   0  0  0  0  0  0  0  0  0  0  0  0
   26.5986  -20.9267  -10.1941 C   0  0  2  0  0  0  0  0  0  0  0  0
   25.4528  -20.5237  -10.9526 N   0  0  0  0  0  0  0  0  0  0  0  0
   26.6802  -20.2521   -8.8661 C   0  0  0  0  0  0  0  0  0  0  0  0
   26.4792  -19.0254   -8.6857 O   0  0  0  0  0  0  0  0  0  0  0  0
   28.8672  -20.6925   -3.7770 C   0  0  0  0  0  0  0  0  0  0  0  0
   29.5142  -20.2215   -5.0688 C   0  0  1  0  0  0  0  0  0  0  0  0
   30.9961  -20.5376   -4.9062 C   0  0  0  0  0  0  0  0  0  0  0  0
   28.9360  -20.9259   -6.2626 C   0  0  0  0  0  0  0  0  0  0  0  0
   27.5578  -20.4016   -6.5464 C   0  0  2  0  0  0  0  0  0  0  0  0
   27.0015  -21.0354   -7.7361 N   0  0  0  0  0  0  0  0  0  0  0  0
   27.4698  -18.9629   -6.7260 C   0  0  0  0  0  0  0  0  0  0  0  0
   26.4663  -18.3350   -6.2327 O   0  0  0  0  0  0  0  0  0  0  0  0
   28.3789  -18.1727   -7.3913 O   0  0  0  0  0  0  0  0  0  0  0  0
  2  9  1  0
  2  3  1  0
  2  1  1  6
  3  4  1  0
  4  5  2  0
  4  8  1  0
  5  6  1  0
  6  7  1  0
  8  7  2  0
  9 10  2  0
 11 12  1  0
 13 12  1  0
 14 13  1  0
 15 14  1  6
 15 17  1  0
 16 15  1  0
 16  9  1  0
 17 24  1  0
 17 18  2  0
 20 19  1  1
 20 21  1  0
 22 20  1  0
 23 22  1  6
 24 23  1  0
 25 27  1  0
 25 23  1  0
 26 25  2  0
M  END
$$$$
