HML.pdb
     RDKit          3D

 27 27  0  0  1  0  0  0  0  0999 V2000
   13.4415  -21.1838   -8.3384 N   0  0  0  0  0  0  0  0  0  0  0  0
   12.2324  -21.7366   -7.8144 C   0  0  1  0  0  0  0  0  0  0  0  0
   12.1002  -23.1815   -8.2590 C   0  0  0  0  0  0  0  0  0  0  0  0
   12.0415  -23.2834   -9.7349 C   0  0  0  0  0  0  0  0  0  0  0  0
   10.9255  -23.3781  -10.5088 C   0  0  0  0  0  0  0  0  0  0  0  0
   11.3561  -23.4439  -11.7800 N   0  0  0  0  0  0  0  0  0  0  0  0
   12.7051  -23.3924  -11.8099 C   0  0  0  0  0  0  0  0  0  0  0  0
   13.1187  -23.2930  -10.5341 N   0  0  0  0  0  0  0  0  0  0  0  0
   12.0979  -21.5953   -6.3493 C   0  0  0  0  0  0  0  0  0  0  0  0
   13.1251  -21.5295   -5.6523 O   0  0  0  0  0  0  0  0  0  0  0  0
    8.8246  -17.2379   -3.2439 C   0  0  0  0  0  0  0  0  0  0  0  0
    8.4080  -18.6435   -2.1485 S   0  0  0  0  0  0  0  0  0  0  0  0
    9.5755  -19.9646   -2.5075 C   0  0  0  0  0  0  0  0  0  0  0  0
    9.6362  -20.3028   -3.9603 C   0  0  0  0  0  0  0  0  0  0  0  0
   10.6432  -21.3387   -4.3150 C   0  0  2  0  0  0  0  0  0  0  0  0
   10.8218  -21.5343   -5.7223 N   0  0  0  0  0  0  0  0  0  0  0  0
   10.4048  -22.6141   -3.5790 C   0  0  0  0  0  0  0  0  0  0  0  0
   10.2890  -22.6961   -2.3309 O   0  0  0  0  0  0  0  0  0  0  0  0
   11.3351  -27.7588   -6.0399 C   0  0  0  0  0  0  0  0  0  0  0  0
   10.6156  -26.5050   -5.5711 C   0  0  1  0  0  0  0  0  0  0  0  0
    9.1331  -26.8505   -5.6425 C   0  0  0  0  0  0  0  0  0  0  0  0
   11.0194  -26.1286   -4.1743 C   0  0  0  0  0  0  0  0  0  0  0  0
   10.0892  -25.0779   -3.6399 C   0  0  2  0  0  0  0  0  0  0  0  0
   10.2998  -23.8081   -4.3253 N   0  0  0  0  0  0  0  0  0  0  0  0
   10.1886  -24.8346   -2.2114 C   0  0  0  0  0  0  0  0  0  0  0  0
   10.8819  -23.8384   -1.7971 O   0  0  0  0  0  0  0  0  0  0  0  0
    9.5982  -25.5834   -1.2194 O   0  0  0  0  0  0  0  0  0  0  0  0
  2  9  1  0
  2  3  1  0
  2  1  1  1
  3  4  1  0
  4  5  2  0
  4  8  1  0
  5  6  1  0
  6  7  1  0
  8  7  2  0
  9 10  2  0
 11 12  1  0
 13 12  1  0
 14 13  1  0
 15 14  1  6
 15 17  1  0
 16 15  1  0
 16  9  1  0
 17 24  1  0
 17 18  2  0
 20 19  1  1
 20 21  1  0
 22 20  1  0
 23 22  1  6
 24 23  1  0
 25 27  1  0
 25 23  1  0
 26 25  2  0
M  END
$$$$
