HML.pdb
     RDKit          3D

 27 27  0  0  1  0  0  0  0  0999 V2000
-538294.0000-540895.1250854557.3750 N   0  0  0  0  0  0  0  0  0  0  0  0
-538293.0625-540895.1250854556.1875 C   0  0  1  0  0  0  0  0  0  0  0  0
-538294.0000-540894.7500854554.9375 C   0  0  0  0  0  0  0  0  0  0  0  0
-538293.2500-540894.6250854554.1250 C   0  0  0  0  0  0  0  0  0  0  0  0
-538292.8125-540895.7500854553.0625 C   0  0  0  0  0  0  0  0  0  0  0  0
-538291.9375-540894.8750854552.2500 N   0  0  0  0  0  0  0  0  0  0  0  0
-538291.6875-540893.8125854552.1250 C   0  0  0  0  0  0  0  0  0  0  0  0
-538292.7500-540893.3750854553.3125 N   0  0  0  0  0  0  0  0  0  0  0  0
-538292.1875-540893.9375854556.6250 C   0  0  0  0  0  0  0  0  0  0  0  0
-538292.2500-540893.0000854557.5625 O   0  0  0  0  0  0  0  0  0  0  0  0
-538289.6875-540892.3750854551.3125 C   0  0  0  0  0  0  0  0  0  0  0  0
-538290.0625-540893.8125854551.8750 S   0  0  0  0  0  0  0  0  0  0  0  0
-538288.6250-540894.8125854552.8125 C   0  0  0  0  0  0  0  0  0  0  0  0
-538289.1875-540894.6250854554.2500 C   0  0  0  0  0  0  0  0  0  0  0  0
-538290.6875-540894.6250854554.6250 C   0  0  2  0  0  0  0  0  0  0  0  0
-538290.9375-540893.7500854555.5625 N   0  0  0  0  0  0  0  0  0  0  0  0
-538291.0000-540896.0000854554.8125 C   0  0  0  0  0  0  0  0  0  0  0  0
-538290.5000-540897.0000854555.3750 O   0  0  0  0  0  0  0  0  0  0  0  0
-538295.1875-540900.3750854554.1875 C   0  0  0  0  0  0  0  0  0  0  0  0
-538294.9375-540899.3750854554.8125 C   0  0  1  0  0  0  0  0  0  0  0  0
-538294.9375-540899.1875854556.5000 C   0  0  0  0  0  0  0  0  0  0  0  0
-538293.4375-540898.5000854554.8750 C   0  0  0  0  0  0  0  0  0  0  0  0
-538293.1250-540897.2500854555.0000 C   0  0  2  0  0  0  0  0  0  0  0  0
-538292.2500-540896.5000854554.3125 N   0  0  0  0  0  0  0  0  0  0  0  0
-538292.7500-540896.9375854556.6250 C   0  0  0  0  0  0  0  0  0  0  0  0
-538293.5000-540896.5625854557.4375 O   0  0  0  0  0  0  0  0  0  0  0  0
-538291.5625-540897.3125854557.0000 O   0  0  0  0  0  0  0  0  0  0  0  0
  2  9  1  0
  2  3  1  0
  2  1  1  1
  3  4  1  0
  4  5  2  0
  4  8  1  0
  5  6  1  0
  6  7  1  0
  8  7  2  0
  9 10  2  0
 11 12  1  0
 13 12  1  0
 14 13  1  0
 15 14  1  1
 15 17  1  0
 16 15  1  0
 16  9  1  0
 17 24  1  0
 17 18  2  0
 20 19  1  1
 20 21  1  0
 22 20  1  0
 23 22  1  6
 24 23  1  0
 25 27  1  0
 25 23  1  0
 26 25  2  0
M  END
$$$$
