HML.pdb
     RDKit          3D

 27 27  0  0  1  0  0  0  0  0999 V2000
   13.6207  -21.8036   -5.1803 N   0  0  0  0  0  0  0  0  0  0  0  0
   12.9288  -22.2406   -4.0088 C   0  0  1  0  0  0  0  0  0  0  0  0
   13.0689  -23.7450   -3.8677 C   0  0  0  0  0  0  0  0  0  0  0  0
   12.4502  -24.4493   -5.0137 C   0  0  0  0  0  0  0  0  0  0  0  0
   11.1312  -24.7389   -5.1859 C   0  0  0  0  0  0  0  0  0  0  0  0
   11.0389  -25.3776   -6.3645 N   0  0  0  0  0  0  0  0  0  0  0  0
   12.2637  -25.4890   -6.9222 C   0  0  0  0  0  0  0  0  0  0  0  0
   13.1313  -24.9090   -6.0739 N   0  0  0  0  0  0  0  0  0  0  0  0
   13.3336  -21.5305   -2.7774 C   0  0  0  0  0  0  0  0  0  0  0  0
   14.5412  -21.4577   -2.4917 O   0  0  0  0  0  0  0  0  0  0  0  0
   11.6864  -15.8387    2.3592 C   0  0  0  0  0  0  0  0  0  0  0  0
   10.9755  -16.8952    1.0449 S   0  0  0  0  0  0  0  0  0  0  0  0
   12.1660  -18.2016    0.7076 C   0  0  0  0  0  0  0  0  0  0  0  0
   11.7521  -19.0820   -0.4246 C   0  0  0  0  0  0  0  0  0  0  0  0
   12.7231  -20.1574   -0.7618 C   0  0  2  0  0  0  0  0  0  0  0  0
   12.3732  -20.9317   -1.9146 N   0  0  0  0  0  0  0  0  0  0  0  0
   13.0461  -21.0007    0.4256 C   0  0  0  0  0  0  0  0  0  0  0  0
   12.6169  -22.1685    0.5978 O   0  0  0  0  0  0  0  0  0  0  0  0
   16.2088  -22.1582    4.3881 C   0  0  0  0  0  0  0  0  0  0  0  0
   16.2856  -22.8529    3.0387 C   0  0  1  0  0  0  0  0  0  0  0  0
   15.5045  -24.1492    3.2170 C   0  0  0  0  0  0  0  0  0  0  0  0
   15.6921  -22.0062    1.9493 C   0  0  0  0  0  0  0  0  0  0  0  0
   14.4492  -21.3283    2.4498 C   0  0  2  0  0  0  0  0  0  0  0  0
   13.8878  -20.4596    1.4218 N   0  0  0  0  0  0  0  0  0  0  0  0
   14.6207  -20.5374    3.6560 C   0  0  0  0  0  0  0  0  0  0  0  0
   14.1506  -20.9821    4.7631 O   0  0  0  0  0  0  0  0  0  0  0  0
   15.2559  -19.3198    3.7424 O   0  0  0  0  0  0  0  0  0  0  0  0
  2  9  1  0
  2  3  1  0
  2  1  1  6
  3  4  1  0
  4  5  2  0
  4  8  1  0
  5  6  1  0
  6  7  1  0
  8  7  2  0
  9 10  2  0
 11 12  1  0
 13 12  1  0
 14 13  1  0
 15 14  1  1
 15 17  1  0
 16 15  1  0
 16  9  1  0
 17 24  1  0
 17 18  2  0
 20 19  1  1
 20 21  1  0
 22 20  1  0
 23 22  1  6
 24 23  1  0
 25 27  1  0
 25 23  1  0
 26 25  2  0
M  END
$$$$
