HML.pdb
     RDKit          3D

 27 27  0  0  1  0  0  0  0  0999 V2000
   23.6906  -16.1586  -20.8163 N   0  0  0  0  0  0  0  0  0  0  0  0
   23.6155  -14.7341  -20.9008 C   0  0  1  0  0  0  0  0  0  0  0  0
   22.2246  -14.3247  -21.3487 C   0  0  0  0  0  0  0  0  0  0  0  0
   21.9514  -14.7826  -22.7299 C   0  0  0  0  0  0  0  0  0  0  0  0
   21.2034  -15.8554  -23.1078 C   0  0  0  0  0  0  0  0  0  0  0  0
   21.2334  -15.8783  -24.4510 N   0  0  0  0  0  0  0  0  0  0  0  0
   21.9786  -14.8499  -24.9100 C   0  0  0  0  0  0  0  0  0  0  0  0
   22.4189  -14.1772  -23.8319 N   0  0  0  0  0  0  0  0  0  0  0  0
   24.0225  -14.0409  -19.6606 C   0  0  0  0  0  0  0  0  0  0  0  0
   23.7872  -14.5771  -18.5641 O   0  0  0  0  0  0  0  0  0  0  0  0
   28.0305  -11.6523  -14.4653 C   0  0  0  0  0  0  0  0  0  0  0  0
   27.6199  -12.5402  -16.0119 S   0  0  0  0  0  0  0  0  0  0  0  0
   27.1479  -11.3022  -17.2292 C   0  0  0  0  0  0  0  0  0  0  0  0
   26.6290  -11.9034  -18.4932 C   0  0  0  0  0  0  0  0  0  0  0  0
   25.1554  -12.1046  -18.5257 C   0  0  2  0  0  0  0  0  0  0  0  0
   24.6746  -12.7764  -19.6954 N   0  0  0  0  0  0  0  0  0  0  0  0
   24.4197  -10.8383  -18.2419 C   0  0  0  0  0  0  0  0  0  0  0  0
   24.2291   -9.9297  -19.0881 O   0  0  0  0  0  0  0  0  0  0  0  0
   20.1994   -8.2606  -16.6362 C   0  0  0  0  0  0  0  0  0  0  0  0
   21.1095   -8.6093  -15.4703 C   0  0  1  0  0  0  0  0  0  0  0  0
   20.1705   -8.8453  -14.2934 C   0  0  0  0  0  0  0  0  0  0  0  0
   21.9335   -9.8308  -15.7616 C   0  0  0  0  0  0  0  0  0  0  0  0
   23.0835   -9.4689  -16.6567 C   0  0  2  0  0  0  0  0  0  0  0  0
   23.9008  -10.6421  -16.9435 N   0  0  0  0  0  0  0  0  0  0  0  0
   23.9602   -8.4298  -16.1454 C   0  0  0  0  0  0  0  0  0  0  0  0
   23.4872   -7.2522  -15.9613 O   0  0  0  0  0  0  0  0  0  0  0  0
   25.2904   -8.5776  -15.8255 O   0  0  0  0  0  0  0  0  0  0  0  0
  2  9  1  0
  2  3  1  0
  2  1  1  1
  3  4  1  0
  4  5  2  0
  4  8  1  0
  5  6  1  0
  6  7  1  0
  8  7  2  0
  9 10  2  0
 11 12  1  0
 13 12  1  0
 14 13  1  0
 15 14  1  6
 15 17  1  0
 16 15  1  0
 16  9  1  0
 17 24  1  0
 17 18  2  0
 20 19  1  6
 20 21  1  0
 22 20  1  0
 23 22  1  1
 24 23  1  0
 25 27  1  0
 25 23  1  0
 26 25  2  0
M  END
$$$$
