WEP.pdb
     RDKit          3D

 31 33  0  0  1  0  0  0  0  0999 V2000
    6.4058  -17.7266   24.6457 N   0  0  0  0  0  0  0  0  0  0  0  0
    7.5278  -16.9292   24.2648 C   0  0  1  0  0  0  0  0  0  0  0  0
    8.0419  -16.0940   25.4448 C   0  0  0  0  0  0  0  0  0  0  0  0
    7.1442  -14.9775   25.7703 C   0  0  0  0  0  0  0  0  0  0  0  0
    5.8560  -15.0763   26.3005 C   0  0  0  0  0  0  0  0  0  0  0  0
    5.3773  -13.8408   26.4909 N   0  0  0  0  0  0  0  0  0  0  0  0
    6.2987  -12.9301   26.1062 C   0  0  0  0  0  0  0  0  0  0  0  0
    6.3233  -11.5529   26.0835 C   0  0  0  0  0  0  0  0  0  0  0  0
    7.3940  -10.8419   25.6313 C   0  0  0  0  0  0  0  0  0  0  0  0
    8.4788  -11.5531   25.1864 C   0  0  0  0  0  0  0  0  0  0  0  0
    8.5177  -12.9355   25.1835 C   0  0  0  0  0  0  0  0  0  0  0  0
    7.4118  -13.6425   25.6516 C   0  0  0  0  0  0  0  0  0  0  0  0
    8.6475  -17.7250   23.7008 C   0  0  0  0  0  0  0  0  0  0  0  0
    8.9205  -18.8483   24.2287 O   0  0  0  0  0  0  0  0  0  0  0  0
    9.4495  -17.3392   22.6070 N   0  0  0  0  0  0  0  0  0  0  0  0
   10.6813  -18.0170   22.2896 C   0  0  1  0  0  0  0  0  0  0  0  0
   11.1428  -17.4623   20.9666 C   0  0  0  0  0  0  0  0  0  0  0  0
   12.3496  -18.1067   20.3892 C   0  0  0  0  0  0  0  0  0  0  0  0
   12.8145  -17.5584   19.1102 C   0  0  0  0  0  0  0  0  0  0  0  0
   13.8344  -16.8211   19.1438 O   0  0  0  0  0  0  0  0  0  0  0  0
   11.6978  -18.0103   23.3441 C   0  0  0  0  0  0  0  0  0  0  0  0
   12.0512  -16.8495   23.7441 O   0  0  0  0  0  0  0  0  0  0  0  0
   12.2468  -17.7684   17.8697 O   0  0  0  0  0  0  0  0  0  0  0  0
   12.3051  -19.1508   23.9427 N   0  0  0  0  0  0  0  0  0  0  0  0
   12.0800  -20.5439   23.6906 C   0  0  0  0  0  0  0  0  0  0  0  0
   13.2837  -21.2159   24.3106 C   0  0  0  0  0  0  0  0  0  0  0  0
   13.4225  -20.4164   25.5933 C   0  0  0  0  0  0  0  0  0  0  0  0
   13.3170  -19.0093   24.9998 C   0  0  1  0  0  0  0  0  0  0  0  0
   14.6065  -18.6109   24.3830 C   0  0  0  0  0  0  0  0  0  0  0  0
   14.7975  -18.5548   23.1439 O   0  0  0  0  0  0  0  0  0  0  0  0
   15.6785  -18.2740   25.1931 O   0  0  0  0  0  0  0  0  0  0  0  0
  2  1  1  1
  2  3  1  0
  2 13  1  0
  3  4  1  0
  4  5  2  0
  5  6  1  0
  7  6  1  0
  8  7  2  0
  9  8  1  0
 10 11  1  0
 10  9  2  0
 11 12  2  0
 12  4  1  0
 12  7  1  0
 13 15  1  0
 13 14  2  0
 15 16  1  0
 16 17  1  6
 17 18  1  0
 18 19  1  0
 19 23  1  0
 20 19  2  0
 21 16  1  0
 21 22  2  0
 24 21  1  0
 25 24  1  0
 26 27  1  0
 26 25  1  0
 27 28  1  0
 28 24  1  0
 28 29  1  6
 29 31  1  0
 30 29  2  0
M  END
$$$$
