WEP.pdb
     RDKit          3D

 31 33  0  0  1  0  0  0  0  0999 V2000
    6.2557  -16.7035   21.1224 N   0  0  0  0  0  0  0  0  0  0  0  0
    7.0663  -15.8535   21.9350 C   0  0  1  0  0  0  0  0  0  0  0  0
    6.2165  -14.7986   22.6555 C   0  0  0  0  0  0  0  0  0  0  0  0
    7.0293  -13.9031   23.4896 C   0  0  0  0  0  0  0  0  0  0  0  0
    8.2207  -13.2768   23.1174 C   0  0  0  0  0  0  0  0  0  0  0  0
    8.6383  -12.5151   24.1358 N   0  0  0  0  0  0  0  0  0  0  0  0
    7.7698  -12.6146   25.1663 C   0  0  0  0  0  0  0  0  0  0  0  0
    7.7207  -12.0595   26.4261 C   0  0  0  0  0  0  0  0  0  0  0  0
    6.7192  -12.3258   27.3107 C   0  0  0  0  0  0  0  0  0  0  0  0
    5.7319  -13.1858   26.9030 C   0  0  0  0  0  0  0  0  0  0  0  0
    5.7224  -13.7756   25.6521 C   0  0  0  0  0  0  0  0  0  0  0  0
    6.7561  -13.4881   24.7628 C   0  0  0  0  0  0  0  0  0  0  0  0
    7.8775  -16.5967   22.9325 C   0  0  0  0  0  0  0  0  0  0  0  0
    7.3304  -17.5486   23.5724 O   0  0  0  0  0  0  0  0  0  0  0  0
    9.2296  -16.3371   23.2370 N   0  0  0  0  0  0  0  0  0  0  0  0
   10.0516  -17.2969   23.9305 C   0  0  1  0  0  0  0  0  0  0  0  0
   11.3908  -17.2871   23.2396 C   0  0  0  0  0  0  0  0  0  0  0  0
   12.3701  -18.2903   23.7293 C   0  0  0  0  0  0  0  0  0  0  0  0
   13.6595  -18.3165   23.0297 C   0  0  0  0  0  0  0  0  0  0  0  0
   14.5296  -19.1131   23.4692 O   0  0  0  0  0  0  0  0  0  0  0  0
   10.1126  -17.1441   25.3859 C   0  0  0  0  0  0  0  0  0  0  0  0
   10.6224  -16.0449   25.7911 O   0  0  0  0  0  0  0  0  0  0  0  0
   14.0178  -17.5550   21.9358 O   0  0  0  0  0  0  0  0  0  0  0  0
    9.6654  -18.0858   26.3561 N   0  0  0  0  0  0  0  0  0  0  0  0
    9.0550  -19.3693   26.1700 C   0  0  0  0  0  0  0  0  0  0  0  0
    9.2014  -20.0313   27.5211 C   0  0  0  0  0  0  0  0  0  0  0  0
    8.8795  -18.8675   28.4408 C   0  0  0  0  0  0  0  0  0  0  0  0
    9.7779  -17.8092   27.7956 C   0  0  1  0  0  0  0  0  0  0  0  0
   11.1880  -18.0032   28.2154 C   0  0  0  0  0  0  0  0  0  0  0  0
   12.0675  -18.5187   27.4834 O   0  0  0  0  0  0  0  0  0  0  0  0
   11.5881  -17.6016   29.4793 O   0  0  0  0  0  0  0  0  0  0  0  0
  2  1  1  1
  2  3  1  0
  2 13  1  0
  3  4  1  0
  4  5  2  0
  5  6  1  0
  7  6  1  0
  8  7  2  0
  9  8  1  0
 10 11  1  0
 10  9  2  0
 11 12  2  0
 12  4  1  0
 12  7  1  0
 13 15  1  0
 13 14  2  0
 15 16  1  0
 16 17  1  6
 17 18  1  0
 18 19  1  0
 19 23  1  0
 20 19  2  0
 21 16  1  0
 21 22  2  0
 24 21  1  0
 25 24  1  0
 26 27  1  0
 26 25  1  0
 27 28  1  0
 28 24  1  0
 28 29  1  1
 29 31  1  0
 30 29  2  0
M  END
$$$$
