WEP.pdb
     RDKit          3D

 31 33  0  0  1  0  0  0  0  0999 V2000
    6.3649  -17.4411   24.4958 N   0  0  0  0  0  0  0  0  0  0  0  0
    7.3904  -16.5214   24.1184 C   0  0  1  0  0  0  0  0  0  0  0  0
    7.9306  -15.7610   25.3366 C   0  0  0  0  0  0  0  0  0  0  0  0
    6.9723  -14.7701   25.8449 C   0  0  0  0  0  0  0  0  0  0  0  0
    5.7516  -15.0398   26.4671 C   0  0  0  0  0  0  0  0  0  0  0  0
    5.1863  -13.8785   26.8186 N   0  0  0  0  0  0  0  0  0  0  0  0
    5.9856  -12.8524   26.4519 C   0  0  0  0  0  0  0  0  0  0  0  0
    5.8878  -11.4830   26.5646 C   0  0  0  0  0  0  0  0  0  0  0  0
    6.8465  -10.6344   26.0987 C   0  0  0  0  0  0  0  0  0  0  0  0
    7.9441  -11.1947   25.4970 C   0  0  0  0  0  0  0  0  0  0  0  0
    8.1030  -12.5609   25.3531 C   0  0  0  0  0  0  0  0  0  0  0  0
    7.1105  -13.4104   25.8381 C   0  0  0  0  0  0  0  0  0  0  0  0
    8.5195  -17.1656   23.4004 C   0  0  0  0  0  0  0  0  0  0  0  0
    9.1177  -18.1384   23.9578 O   0  0  0  0  0  0  0  0  0  0  0  0
    8.9949  -16.7885   22.1275 N   0  0  0  0  0  0  0  0  0  0  0  0
   10.2845  -17.2101   21.6409 C   0  0  1  0  0  0  0  0  0  0  0  0
   10.4656  -16.5558   20.2955 C   0  0  0  0  0  0  0  0  0  0  0  0
   11.7689  -16.8106   19.6310 C   0  0  0  0  0  0  0  0  0  0  0  0
   11.6976  -17.4508   18.3128 C   0  0  0  0  0  0  0  0  0  0  0  0
   10.7936  -17.0503   17.5334 O   0  0  0  0  0  0  0  0  0  0  0  0
   11.4032  -17.0234   22.5678 C   0  0  0  0  0  0  0  0  0  0  0  0
   11.6415  -15.8094   22.8867 O   0  0  0  0  0  0  0  0  0  0  0  0
   12.5225  -18.4501   17.8375 O   0  0  0  0  0  0  0  0  0  0  0  0
   12.2204  -18.0472   23.1264 N   0  0  0  0  0  0  0  0  0  0  0  0
   12.1295  -19.4703   22.9806 C   0  0  0  0  0  0  0  0  0  0  0  0
   13.4802  -19.9621   23.4484 C   0  0  0  0  0  0  0  0  0  0  0  0
   13.7025  -19.0681   24.6548 C   0  0  0  0  0  0  0  0  0  0  0  0
   13.3473  -17.7241   24.0136 C   0  0  1  0  0  0  0  0  0  0  0  0
   14.4800  -17.2277   23.1935 C   0  0  0  0  0  0  0  0  0  0  0  0
   14.5082  -17.2820   21.9400 O   0  0  0  0  0  0  0  0  0  0  0  0
   15.5823  -16.6655   23.8163 O   0  0  0  0  0  0  0  0  0  0  0  0
  2  1  1  1
  2  3  1  0
  2 13  1  0
  3  4  1  0
  4  5  2  0
  5  6  1  0
  7  6  1  0
  8  7  2  0
  9  8  1  0
 10 11  1  0
 10  9  2  0
 11 12  2  0
 12  4  1  0
 12  7  1  0
 13 15  1  0
 13 14  2  0
 15 16  1  0
 16 17  1  6
 17 18  1  0
 18 19  1  0
 19 23  1  0
 20 19  2  0
 21 16  1  0
 21 22  2  0
 24 21  1  0
 25 24  1  0
 26 27  1  0
 26 25  1  0
 27 28  1  0
 28 24  1  0
 28 29  1  6
 29 31  1  0
 30 29  2  0
M  END
$$$$
