WEP.pdb
     RDKit          3D

 31 33  0  0  1  0  0  0  0  0999 V2000
    6.5766  -18.1155   24.8607 N   0  0  0  0  0  0  0  0  0  0  0  0
    7.0467  -16.9182   24.2398 C   0  0  1  0  0  0  0  0  0  0  0  0
    7.8214  -16.0439   25.2345 C   0  0  0  0  0  0  0  0  0  0  0  0
    6.9641  -15.0405   25.8799 C   0  0  0  0  0  0  0  0  0  0  0  0
    5.7317  -15.2738   26.4939 C   0  0  0  0  0  0  0  0  0  0  0  0
    5.2792  -14.1179   26.9948 N   0  0  0  0  0  0  0  0  0  0  0  0
    6.1642  -13.1302   26.7347 C   0  0  0  0  0  0  0  0  0  0  0  0
    6.1932  -11.7813   27.0127 C   0  0  0  0  0  0  0  0  0  0  0  0
    7.2196  -10.9713   26.6292 C   0  0  0  0  0  0  0  0  0  0  0  0
    8.2538  -11.5502   25.9394 C   0  0  0  0  0  0  0  0  0  0  0  0
    8.2855  -12.8976   25.6295 C   0  0  0  0  0  0  0  0  0  0  0  0
    7.2257  -13.7078   26.0325 C   0  0  0  0  0  0  0  0  0  0  0  0
    7.8918  -17.1710   23.0452 C   0  0  0  0  0  0  0  0  0  0  0  0
    8.7948  -18.0622   23.1176 O   0  0  0  0  0  0  0  0  0  0  0  0
    7.7773  -16.4987   21.8110 N   0  0  0  0  0  0  0  0  0  0  0  0
    8.7333  -16.6886   20.7490 C   0  0  1  0  0  0  0  0  0  0  0  0
    8.3736  -15.6985   19.6715 C   0  0  0  0  0  0  0  0  0  0  0  0
    9.2291  -15.7350   18.4583 C   0  0  0  0  0  0  0  0  0  0  0  0
    8.8114  -14.8598   17.3573 C   0  0  0  0  0  0  0  0  0  0  0  0
    8.5549  -13.6621   17.6480 O   0  0  0  0  0  0  0  0  0  0  0  0
   10.1410  -16.6688   21.1531 C   0  0  0  0  0  0  0  0  0  0  0  0
   10.5283  -15.5826   21.7030 O   0  0  0  0  0  0  0  0  0  0  0  0
    8.6701  -15.2158   16.0313 O   0  0  0  0  0  0  0  0  0  0  0  0
   11.0838  -17.7239   20.9914 N   0  0  0  0  0  0  0  0  0  0  0  0
   10.9097  -19.0242   20.4137 C   0  0  0  0  0  0  0  0  0  0  0  0
   12.3245  -19.4923   20.1601 C   0  0  0  0  0  0  0  0  0  0  0  0
   13.0091  -19.0186   21.4293 C   0  0  0  0  0  0  0  0  0  0  0  0
   12.4703  -17.5859   21.4601 C   0  0  1  0  0  0  0  0  0  0  0  0
   13.2196  -16.7317   20.5057 C   0  0  0  0  0  0  0  0  0  0  0  0
   12.7709  -16.3773   19.3886 O   0  0  0  0  0  0  0  0  0  0  0  0
   14.4871  -16.2821   20.8376 O   0  0  0  0  0  0  0  0  0  0  0  0
  2  1  1  1
  2  3  1  0
  2 13  1  0
  3  4  1  0
  4  5  2  0
  5  6  1  0
  7  6  1  0
  8  7  2  0
  9  8  1  0
 10 11  1  0
 10  9  2  0
 11 12  2  0
 12  4  1  0
 12  7  1  0
 13 15  1  0
 13 14  2  0
 15 16  1  0
 16 17  1  6
 17 18  1  0
 18 19  1  0
 19 23  1  0
 20 19  2  0
 21 16  1  0
 21 22  2  0
 24 21  1  0
 25 24  1  0
 26 27  1  0
 26 25  1  0
 27 28  1  0
 28 24  1  0
 28 29  1  6
 29 31  1  0
 30 29  2  0
M  END
$$$$
