WEP.pdb
     RDKit          3D

 31 33  0  0  1  0  0  0  0  0999 V2000
    6.2542  -17.9079   25.3128 N   0  0  0  0  0  0  0  0  0  0  0  0
    6.9174  -16.8833   24.5710 C   0  0  1  0  0  0  0  0  0  0  0  0
    7.6801  -15.9299   25.5002 C   0  0  0  0  0  0  0  0  0  0  0  0
    6.8271  -14.8481   26.0106 C   0  0  0  0  0  0  0  0  0  0  0  0
    5.6346  -14.9974   26.7219 C   0  0  0  0  0  0  0  0  0  0  0  0
    5.1740  -13.7820   27.0420 N   0  0  0  0  0  0  0  0  0  0  0  0
    6.0153  -12.8360   26.5692 C   0  0  0  0  0  0  0  0  0  0  0  0
    6.0184  -11.4591   26.6106 C   0  0  0  0  0  0  0  0  0  0  0  0
    6.9997  -10.7064   26.0390 C   0  0  0  0  0  0  0  0  0  0  0  0
    8.0145  -11.3740   25.4026 C   0  0  0  0  0  0  0  0  0  0  0  0
    8.0704  -12.7538   25.3261 C   0  0  0  0  0  0  0  0  0  0  0  0
    7.0566  -13.5040   25.9189 C   0  0  0  0  0  0  0  0  0  0  0  0
    7.8463  -17.4139   23.5410 C   0  0  0  0  0  0  0  0  0  0  0  0
    8.4786  -18.4880   23.7889 O   0  0  0  0  0  0  0  0  0  0  0  0
    8.0919  -16.8219   22.2850 N   0  0  0  0  0  0  0  0  0  0  0  0
    9.1915  -17.2361   21.4501 C   0  0  1  0  0  0  0  0  0  0  0  0
    8.9798  -16.5777   20.1112 C   0  0  0  0  0  0  0  0  0  0  0  0
    9.9523  -16.9529   19.0535 C   0  0  0  0  0  0  0  0  0  0  0  0
    9.7264  -16.3472   17.7364 C   0  0  0  0  0  0  0  0  0  0  0  0
   10.2913  -16.8947   16.7535 O   0  0  0  0  0  0  0  0  0  0  0  0
   10.5268  -17.0462   22.0212 C   0  0  0  0  0  0  0  0  0  0  0  0
   10.8158  -15.8395   22.3255 O   0  0  0  0  0  0  0  0  0  0  0  0
    8.9558  -15.2353   17.4631 O   0  0  0  0  0  0  0  0  0  0  0  0
   11.4984  -18.0598   22.2594 N   0  0  0  0  0  0  0  0  0  0  0  0
   11.4168  -19.4738   22.0382 C   0  0  0  0  0  0  0  0  0  0  0  0
   12.8590  -19.9241   22.0842 C   0  0  0  0  0  0  0  0  0  0  0  0
   13.3747  -19.0975   23.2482 C   0  0  0  0  0  0  0  0  0  0  0  0
   12.8143  -17.7358   22.8292 C   0  0  1  0  0  0  0  0  0  0  0  0
   13.6623  -17.1315   21.7720 C   0  0  0  0  0  0  0  0  0  0  0  0
   13.3374  -17.0857   20.5606 O   0  0  0  0  0  0  0  0  0  0  0  0
   14.8860  -16.5766   22.1088 O   0  0  0  0  0  0  0  0  0  0  0  0
  2  1  1  1
  2  3  1  0
  2 13  1  0
  3  4  1  0
  4  5  2  0
  5  6  1  0
  7  6  1  0
  8  7  2  0
  9  8  1  0
 10 11  1  0
 10  9  2  0
 11 12  2  0
 12  4  1  0
 12  7  1  0
 13 15  1  0
 13 14  2  0
 15 16  1  0
 16 17  1  6
 17 18  1  0
 18 19  1  0
 19 23  1  0
 20 19  2  0
 21 16  1  0
 21 22  2  0
 24 21  1  0
 25 24  1  0
 26 27  1  0
 26 25  1  0
 27 28  1  0
 28 24  1  0
 28 29  1  6
 29 31  1  0
 30 29  2  0
M  END
$$$$
