WEP.pdb
     RDKit          3D

 31 33  0  0  1  0  0  0  0  0999 V2000
    6.4258  -17.4189   24.5770 N   0  0  0  0  0  0  0  0  0  0  0  0
    7.4831  -16.5104   24.2661 C   0  0  1  0  0  0  0  0  0  0  0  0
    7.9049  -15.7050   25.5020 C   0  0  0  0  0  0  0  0  0  0  0  0
    6.9126  -14.6853   25.8680 C   0  0  0  0  0  0  0  0  0  0  0  0
    5.6521  -14.9160   26.4231 C   0  0  0  0  0  0  0  0  0  0  0  0
    5.0624  -13.7354   26.6475 N   0  0  0  0  0  0  0  0  0  0  0  0
    5.8838  -12.7342   26.2614 C   0  0  0  0  0  0  0  0  0  0  0  0
    5.7767  -11.3608   26.2650 C   0  0  0  0  0  0  0  0  0  0  0  0
    6.7643  -10.5430   25.8043 C   0  0  0  0  0  0  0  0  0  0  0  0
    7.9015  -11.1393   25.3229 C   0  0  0  0  0  0  0  0  0  0  0  0
    8.0717  -12.5114   25.2923 C   0  0  0  0  0  0  0  0  0  0  0  0
    7.0491  -13.3290   25.7697 C   0  0  0  0  0  0  0  0  0  0  0  0
    8.6753  -17.1767   23.6829 C   0  0  0  0  0  0  0  0  0  0  0  0
    9.0305  -18.3037   24.1502 O   0  0  0  0  0  0  0  0  0  0  0  0
    9.4627  -16.6612   22.6329 N   0  0  0  0  0  0  0  0  0  0  0  0
   10.7186  -17.2612   22.2578 C   0  0  1  0  0  0  0  0  0  0  0  0
   11.0180  -16.7817   20.8609 C   0  0  0  0  0  0  0  0  0  0  0  0
   10.3443  -17.5306   19.7698 C   0  0  0  0  0  0  0  0  0  0  0  0
   10.6856  -17.1132   18.4053 C   0  0  0  0  0  0  0  0  0  0  0  0
   10.8149  -18.0247   17.5466 O   0  0  0  0  0  0  0  0  0  0  0  0
   11.8147  -17.0856   23.2133 C   0  0  0  0  0  0  0  0  0  0  0  0
   12.0935  -15.8712   23.4959 O   0  0  0  0  0  0  0  0  0  0  0  0
   10.8801  -15.8198   17.9648 O   0  0  0  0  0  0  0  0  0  0  0  0
   12.5708  -18.1201   23.8347 N   0  0  0  0  0  0  0  0  0  0  0  0
   12.4334  -19.5429   23.7272 C   0  0  0  0  0  0  0  0  0  0  0  0
   13.7453  -20.0679   24.2642 C   0  0  0  0  0  0  0  0  0  0  0  0
   13.9521  -19.1456   25.4518 C   0  0  0  0  0  0  0  0  0  0  0  0
   13.6725  -17.8102   24.7574 C   0  0  1  0  0  0  0  0  0  0  0  0
   14.8546  -17.3800   23.9702 C   0  0  0  0  0  0  0  0  0  0  0  0
   14.9243  -17.4590   22.7196 O   0  0  0  0  0  0  0  0  0  0  0  0
   15.9585  -16.8557   24.6224 O   0  0  0  0  0  0  0  0  0  0  0  0
  2  1  1  1
  2  3  1  0
  2 13  1  0
  3  4  1  0
  4  5  2  0
  5  6  1  0
  7  6  1  0
  8  7  2  0
  9  8  1  0
 10 11  1  0
 10  9  2  0
 11 12  2  0
 12  4  1  0
 12  7  1  0
 13 15  1  0
 13 14  2  0
 15 16  1  0
 16 17  1  6
 17 18  1  0
 18 19  1  0
 19 23  1  0
 20 19  2  0
 21 16  1  0
 21 22  2  0
 24 21  1  0
 25 24  1  0
 26 27  1  0
 26 25  1  0
 27 28  1  0
 28 24  1  0
 28 29  1  6
 29 31  1  0
 30 29  2  0
M  END
$$$$
