WEP.pdb
     RDKit          3D

 31 33  0  0  1  0  0  0  0  0999 V2000
    8.1866  -17.4908   26.5467 N   0  0  0  0  0  0  0  0  0  0  0  0
    7.5557  -17.0406   25.3471 C   0  0  1  0  0  0  0  0  0  0  0  0
    6.6146  -15.8608   25.6235 C   0  0  0  0  0  0  0  0  0  0  0  0
    7.2684  -14.7954   26.3955 C   0  0  0  0  0  0  0  0  0  0  0  0
    8.4956  -14.8833   27.0561 C   0  0  0  0  0  0  0  0  0  0  0  0
    8.7665  -13.6962   27.6122 N   0  0  0  0  0  0  0  0  0  0  0  0
    7.7657  -12.8281   27.3453 C   0  0  0  0  0  0  0  0  0  0  0  0
    7.5380  -11.5093   27.6715 C   0  0  0  0  0  0  0  0  0  0  0  0
    6.4202  -10.8354   27.2807 C   0  0  0  0  0  0  0  0  0  0  0  0
    5.5003  -11.5236   26.5319 C   0  0  0  0  0  0  0  0  0  0  0  0
    5.6694  -12.8478   26.1703 C   0  0  0  0  0  0  0  0  0  0  0  0
    6.8208  -13.5173   26.5800 C   0  0  0  0  0  0  0  0  0  0  0  0
    8.5211  -16.6611   24.2845 C   0  0  0  0  0  0  0  0  0  0  0  0
    9.4625  -15.8593   24.5774 O   0  0  0  0  0  0  0  0  0  0  0  0
    8.4879  -17.1232   22.9527 N   0  0  0  0  0  0  0  0  0  0  0  0
    9.2765  -16.5093   21.9139 C   0  0  1  0  0  0  0  0  0  0  0  0
   10.4038  -17.4640   21.6160 C   0  0  0  0  0  0  0  0  0  0  0  0
   11.3328  -17.0398   20.5380 C   0  0  0  0  0  0  0  0  0  0  0  0
   12.7511  -16.9754   20.9078 C   0  0  0  0  0  0  0  0  0  0  0  0
   13.4997  -17.8797   20.4533 O   0  0  0  0  0  0  0  0  0  0  0  0
    8.5314  -16.0560   20.7373 C   0  0  0  0  0  0  0  0  0  0  0  0
    7.7644  -16.9338   20.2144 O   0  0  0  0  0  0  0  0  0  0  0  0
   13.3511  -16.0221   21.7054 O   0  0  0  0  0  0  0  0  0  0  0  0
    8.5865  -14.7613   20.1466 N   0  0  0  0  0  0  0  0  0  0  0  0
    9.3317  -13.6046   20.5485 C   0  0  0  0  0  0  0  0  0  0  0  0
    9.2992  -12.7184   19.3244 C   0  0  0  0  0  0  0  0  0  0  0  0
    7.8603  -12.9062   18.8793 C   0  0  0  0  0  0  0  0  0  0  0  0
    7.7947  -14.4340   18.9520 C   0  0  1  0  0  0  0  0  0  0  0  0
    8.4454  -15.0360   17.7619 C   0  0  0  0  0  0  0  0  0  0  0  0
    7.9174  -15.0728   16.6240 O   0  0  0  0  0  0  0  0  0  0  0  0
    9.7072  -15.5952   17.8802 O   0  0  0  0  0  0  0  0  0  0  0  0
  2  1  1  1
  2  3  1  0
  2 13  1  0
  3  4  1  0
  4  5  2  0
  5  6  1  0
  7  6  1  0
  8  7  2  0
  9  8  1  0
 10 11  1  0
 10  9  2  0
 11 12  2  0
 12  4  1  0
 12  7  1  0
 13 15  1  0
 13 14  2  0
 15 16  1  0
 16 17  1  6
 17 18  1  0
 18 19  1  0
 19 23  1  0
 20 19  2  0
 21 16  1  0
 21 22  2  0
 24 21  1  0
 25 24  1  0
 26 27  1  0
 26 25  1  0
 27 28  1  0
 28 24  1  0
 28 29  1  6
 29 31  1  0
 30 29  2  0
M  END
$$$$
