WEP.pdb
     RDKit          3D

 31 33  0  0  1  0  0  0  0  0999 V2000
    6.3124  -17.0299   24.2551 N   0  0  0  0  0  0  0  0  0  0  0  0
    7.6021  -16.4410   24.4278 C   0  0  1  0  0  0  0  0  0  0  0  0
    7.7569  -15.8451   25.8332 C   0  0  0  0  0  0  0  0  0  0  0  0
    6.8476  -14.7141   26.0622 C   0  0  0  0  0  0  0  0  0  0  0  0
    5.5169  -14.7907   26.4788 C   0  0  0  0  0  0  0  0  0  0  0  0
    5.0383  -13.5474   26.6082 N   0  0  0  0  0  0  0  0  0  0  0  0
    6.0007  -12.6527   26.2924 C   0  0  0  0  0  0  0  0  0  0  0  0
    6.0438  -11.2764   26.2517 C   0  0  0  0  0  0  0  0  0  0  0  0
    7.1585  -10.5841   25.8847 C   0  0  0  0  0  0  0  0  0  0  0  0
    8.2694  -11.3138   25.5472 C   0  0  0  0  0  0  0  0  0  0  0  0
    8.2918  -12.6964   25.5681 C   0  0  0  0  0  0  0  0  0  0  0  0
    7.1407  -13.3841   25.9477 C   0  0  0  0  0  0  0  0  0  0  0  0
    8.7172  -17.3870   24.1692 C   0  0  0  0  0  0  0  0  0  0  0  0
    8.6480  -18.5566   24.6614 O   0  0  0  0  0  0  0  0  0  0  0  0
    9.8684  -17.0985   23.4076 N   0  0  0  0  0  0  0  0  0  0  0  0
   11.0617  -17.9020   23.4975 C   0  0  1  0  0  0  0  0  0  0  0  0
   12.0331  -17.3335   22.4954 C   0  0  0  0  0  0  0  0  0  0  0  0
   11.6567  -17.5092   21.0696 C   0  0  0  0  0  0  0  0  0  0  0  0
   12.5259  -16.8416   20.0942 C   0  0  0  0  0  0  0  0  0  0  0  0
   13.5541  -16.2714   20.5442 O   0  0  0  0  0  0  0  0  0  0  0  0
   11.6064  -18.0784   24.8456 C   0  0  0  0  0  0  0  0  0  0  0  0
   11.9769  -17.0002   25.4222 O   0  0  0  0  0  0  0  0  0  0  0  0
   12.3317  -16.7741   18.7294 O   0  0  0  0  0  0  0  0  0  0  0  0
   11.7523  -19.3098   25.5460 N   0  0  0  0  0  0  0  0  0  0  0  0
   11.3472  -20.6311   25.1652 C   0  0  0  0  0  0  0  0  0  0  0  0
   12.1322  -21.5255   26.0972 C   0  0  0  0  0  0  0  0  0  0  0  0
   12.0113  -20.7519   27.3975 C   0  0  0  0  0  0  0  0  0  0  0  0
   12.3818  -19.3620   26.8734 C   0  0  1  0  0  0  0  0  0  0  0  0
   13.8526  -19.2451   26.7148 C   0  0  0  0  0  0  0  0  0  0  0  0
   14.6439  -19.0670   27.6725 O   0  0  0  0  0  0  0  0  0  0  0  0
   14.4151  -19.3352   25.4522 O   0  0  0  0  0  0  0  0  0  0  0  0
  2  1  1  1
  2  3  1  0
  2 13  1  0
  3  4  1  0
  4  5  2  0
  5  6  1  0
  7  6  1  0
  8  7  2  0
  9  8  1  0
 10 11  1  0
 10  9  2  0
 11 12  2  0
 12  4  1  0
 12  7  1  0
 13 15  1  0
 13 14  2  0
 15 16  1  0
 16 17  1  6
 17 18  1  0
 18 19  1  0
 19 23  1  0
 20 19  2  0
 21 16  1  0
 21 22  2  0
 24 21  1  0
 25 24  1  0
 26 27  1  0
 26 25  1  0
 27 28  1  0
 28 24  1  0
 28 29  1  6
 29 31  1  0
 30 29  2  0
M  END
$$$$
