WEP.pdb
     RDKit          3D

 31 33  0  0  1  0  0  0  0  0999 V2000
    6.4473  -17.7656   25.0522 N   0  0  0  0  0  0  0  0  0  0  0  0
    7.3057  -16.9495   24.2540 C   0  0  1  0  0  0  0  0  0  0  0  0
    8.0028  -15.8792   25.1040 C   0  0  0  0  0  0  0  0  0  0  0  0
    7.0706  -14.8441   25.5710 C   0  0  0  0  0  0  0  0  0  0  0  0
    5.8336  -15.0570   26.1833 C   0  0  0  0  0  0  0  0  0  0  0  0
    5.3017  -13.8687   26.4944 N   0  0  0  0  0  0  0  0  0  0  0  0
    6.1387  -12.8794   26.1107 C   0  0  0  0  0  0  0  0  0  0  0  0
    6.0838  -11.5049   26.1840 C   0  0  0  0  0  0  0  0  0  0  0  0
    7.0757  -10.7010   25.7083 C   0  0  0  0  0  0  0  0  0  0  0  0
    8.1623  -11.3129   25.1380 C   0  0  0  0  0  0  0  0  0  0  0  0
    8.2787  -12.6871   25.0342 C   0  0  0  0  0  0  0  0  0  0  0  0
    7.2528  -13.4903   25.5285 C   0  0  0  0  0  0  0  0  0  0  0  0
    8.3274  -17.7281   23.5089 C   0  0  0  0  0  0  0  0  0  0  0  0
    8.8176  -18.7657   24.0548 O   0  0  0  0  0  0  0  0  0  0  0  0
    8.8099  -17.4142   22.2216 N   0  0  0  0  0  0  0  0  0  0  0  0
   10.0424  -17.9642   21.7155 C   0  0  1  0  0  0  0  0  0  0  0  0
   10.0798  -17.6400   20.2443 C   0  0  0  0  0  0  0  0  0  0  0  0
   11.2231  -18.2158   19.4916 C   0  0  0  0  0  0  0  0  0  0  0  0
   11.2583  -17.9133   18.0564 C   0  0  0  0  0  0  0  0  0  0  0  0
   12.3604  -18.0697   17.4684 O   0  0  0  0  0  0  0  0  0  0  0  0
   11.2516  -17.5945   22.4546 C   0  0  0  0  0  0  0  0  0  0  0  0
   11.5233  -16.3461   22.4529 O   0  0  0  0  0  0  0  0  0  0  0  0
   10.2039  -17.4734   17.2820 O   0  0  0  0  0  0  0  0  0  0  0  0
   12.1213  -18.4796   23.1534 N   0  0  0  0  0  0  0  0  0  0  0  0
   12.1119  -19.9118   23.2131 C   0  0  0  0  0  0  0  0  0  0  0  0
   13.4848  -20.2540   23.7452 C   0  0  0  0  0  0  0  0  0  0  0  0
   13.6476  -19.1854   24.8108 C   0  0  0  0  0  0  0  0  0  0  0  0
   13.2218  -17.9694   23.9840 C   0  0  1  0  0  0  0  0  0  0  0  0
   14.3305  -17.5318   23.1001 C   0  0  0  0  0  0  0  0  0  0  0  0
   14.3560  -17.7363   21.8622 O   0  0  0  0  0  0  0  0  0  0  0  0
   15.4118  -16.8556   23.6408 O   0  0  0  0  0  0  0  0  0  0  0  0
  2  1  1  1
  2  3  1  0
  2 13  1  0
  3  4  1  0
  4  5  2  0
  5  6  1  0
  7  6  1  0
  8  7  2  0
  9  8  1  0
 10 11  1  0
 10  9  2  0
 11 12  2  0
 12  4  1  0
 12  7  1  0
 13 15  1  0
 13 14  2  0
 15 16  1  0
 16 17  1  6
 17 18  1  0
 18 19  1  0
 19 23  1  0
 20 19  2  0
 21 16  1  0
 21 22  2  0
 24 21  1  0
 25 24  1  0
 26 27  1  0
 26 25  1  0
 27 28  1  0
 28 24  1  0
 28 29  1  6
 29 31  1  0
 30 29  2  0
M  END
$$$$
