QKM.pdb
     RDKit          3D

 27 26  0  0  1  0  0  0  0  0999 V2000
   15.8066  -11.5705  -14.6274 N   0  0  0  0  0  0  0  0  0  0  0  0
   15.5972  -12.0150  -15.9478 C   0  0  0  0  0  0  0  0  0  0  0  0
   14.5833  -12.6837  -16.2274 O   0  0  0  0  0  0  0  0  0  0  0  0
   16.5838  -11.6840  -16.9934 C   0  0  0  0  0  0  0  0  0  0  0  0
   17.7187  -10.8292  -16.4382 C   0  0  0  0  0  0  0  0  0  0  0  0
   19.0478  -11.4915  -16.7141 C   0  0  2  0  0  0  0  0  0  0  0  0
   19.1679  -12.7659  -16.0652 N   0  0  0  0  0  0  0  0  0  0  0  0
   20.1519  -10.6287  -16.2312 C   0  0  0  0  0  0  0  0  0  0  0  0
   20.2642  -10.2991  -15.0070 O   0  0  0  0  0  0  0  0  0  0  0  0
   21.1401  -10.1258  -17.1068 N   0  0  0  0  0  0  0  0  0  0  0  0
   22.2166   -9.2886  -16.6316 C   0  0  1  0  0  0  0  0  0  0  0  0
   23.3847   -9.4947  -17.5847 C   0  0  0  0  0  0  0  0  0  0  0  0
   24.4643  -10.3299  -16.9363 C   0  0  0  0  0  0  0  0  0  0  0  0
   24.1873  -11.7779  -17.2513 C   0  0  0  0  0  0  0  0  0  0  0  0
   25.2079  -12.6525  -16.5465 C   0  0  0  0  0  0  0  0  0  0  0  0
   24.7960  -14.0413  -16.7141 N   0  0  0  0  0  0  0  0  0  0  0  0
   21.8270   -7.8643  -16.5554 C   0  0  0  0  0  0  0  0  0  0  0  0
   21.1768   -7.3901  -17.5191 O   0  0  0  0  0  0  0  0  0  0  0  0
   16.9812   -2.7507  -15.1045 C   0  0  0  0  0  0  0  0  0  0  0  0
   17.7680   -4.2813  -15.5931 S   0  0  0  0  0  0  0  0  0  0  0  0
   19.5379   -4.2835  -15.2716 C   0  0  0  0  0  0  0  0  0  0  0  0
   20.2120   -5.5527  -15.6097 C   0  0  0  0  0  0  0  0  0  0  0  0
   21.6498   -5.6363  -15.3342 C   0  0  2  0  0  0  0  0  0  0  0  0
   22.1356   -7.0163  -15.4826 N   0  0  0  0  0  0  0  0  0  0  0  0
   22.2180   -5.1231  -14.1143 C   0  0  0  0  0  0  0  0  0  0  0  0
   22.3730   -3.8129  -13.7033 O   0  0  0  0  0  0  0  0  0  0  0  0
   22.6666   -5.9710  -13.2497 O   0  0  0  0  0  0  0  0  0  0  0  0
  2  3  2  0
  2  1  1  0
  4  2  1  0
  5  4  1  0
  6  5  1  0
  6  7  1  1
  8  6  1  0
  8  9  2  0
 10  8  1  0
 11 10  1  0
 11 12  1  6
 13 14  1  0
 13 12  1  0
 15 14  1  0
 16 15  1  0
 17 11  1  0
 18 17  2  0
 19 20  1  0
 20 21  1  0
 22 21  1  0
 23 22  1  1
 23 24  1  0
 24 17  1  0
 25 26  1  0
 25 23  1  0
 27 25  2  0
M  END
$$$$
