QKM.pdb
     RDKit          3D

 27 26  0  0  1  0  0  0  0  0999 V2000
   16.3806  -13.8842  -17.5938 N   0  0  0  0  0  0  0  0  0  0  0  0
   15.7982  -13.3636  -16.4213 C   0  0  0  0  0  0  0  0  0  0  0  0
   14.9062  -14.0035  -15.8309 O   0  0  0  0  0  0  0  0  0  0  0  0
   16.2503  -12.0600  -15.8996 C   0  0  0  0  0  0  0  0  0  0  0  0
   17.2325  -11.3881  -16.8539 C   0  0  0  0  0  0  0  0  0  0  0  0
   18.6514  -11.6788  -16.4250 C   0  0  2  0  0  0  0  0  0  0  0  0
   18.7093  -12.4455  -15.2132 N   0  0  0  0  0  0  0  0  0  0  0  0
   19.3798  -10.4086  -16.1954 C   0  0  0  0  0  0  0  0  0  0  0  0
   19.1682   -9.6857  -15.1693 O   0  0  0  0  0  0  0  0  0  0  0  0
   20.3497   -9.9325  -17.1058 N   0  0  0  0  0  0  0  0  0  0  0  0
   21.0557   -8.6932  -16.8796 C   0  0  1  0  0  0  0  0  0  0  0  0
   22.3288   -8.7568  -17.7104 C   0  0  0  0  0  0  0  0  0  0  0  0
   23.1781   -7.5275  -17.4845 C   0  0  0  0  0  0  0  0  0  0  0  0
   24.4465   -7.6824  -18.2843 C   0  0  0  0  0  0  0  0  0  0  0  0
   25.3851   -6.5316  -17.9709 C   0  0  0  0  0  0  0  0  0  0  0  0
   26.6874   -6.8502  -18.5445 N   0  0  0  0  0  0  0  0  0  0  0  0
   20.2399   -7.5113  -17.2316 C   0  0  0  0  0  0  0  0  0  0  0  0
   19.6836   -7.5068  -18.3571 O   0  0  0  0  0  0  0  0  0  0  0  0
   14.3930   -2.8261  -15.9102 C   0  0  0  0  0  0  0  0  0  0  0  0
   15.3862   -4.3018  -15.7192 S   0  0  0  0  0  0  0  0  0  0  0  0
   17.0727   -4.0822  -16.3050 C   0  0  0  0  0  0  0  0  0  0  0  0
   17.8994   -5.3036  -16.2386 C   0  0  0  0  0  0  0  0  0  0  0  0
   19.2721   -5.2062  -16.7453 C   0  0  2  0  0  0  0  0  0  0  0  0
   20.0499   -6.4036  -16.3937 N   0  0  0  0  0  0  0  0  0  0  0  0
   20.1062   -4.0678  -16.4579 C   0  0  0  0  0  0  0  0  0  0  0  0
   21.2537   -3.9936  -15.6914 O   0  0  0  0  0  0  0  0  0  0  0  0
   19.7717   -2.9271  -16.9626 O   0  0  0  0  0  0  0  0  0  0  0  0
  2  3  2  0
  2  1  1  0
  4  2  1  0
  5  4  1  0
  6  5  1  0
  6  7  1  1
  8  6  1  0
  8  9  2  0
 10  8  1  0
 11 10  1  0
 11 12  1  6
 13 14  1  0
 13 12  1  0
 15 14  1  0
 16 15  1  0
 17 11  1  0
 18 17  2  0
 19 20  1  0
 20 21  1  0
 22 21  1  0
 23 22  1  1
 23 24  1  0
 24 17  1  0
 25 26  1  0
 25 23  1  0
 27 25  2  0
M  END
$$$$
