QKM.pdb
     RDKit          3D

 27 26  0  0  1  0  0  0  0  0999 V2000
   30.3487  -20.5689  -18.1294 N   0  0  0  0  0  0  0  0  0  0  0  0
   30.6121  -21.8916  -17.7220 C   0  0  0  0  0  0  0  0  0  0  0  0
   31.3141  -22.6355  -18.4343 O   0  0  0  0  0  0  0  0  0  0  0  0
   30.0526  -22.3878  -16.4504 C   0  0  0  0  0  0  0  0  0  0  0  0
   29.2347  -21.3115  -15.7438 C   0  0  0  0  0  0  0  0  0  0  0  0
   27.7629  -21.6399  -15.8305 C   0  0  2  0  0  0  0  0  0  0  0  0
   27.2091  -21.3290  -17.1174 N   0  0  0  0  0  0  0  0  0  0  0  0
   27.0122  -20.8668  -14.8129 C   0  0  0  0  0  0  0  0  0  0  0  0
   27.1401  -19.6060  -14.6940 O   0  0  0  0  0  0  0  0  0  0  0  0
   26.1129  -21.4905  -13.9194 N   0  0  0  0  0  0  0  0  0  0  0  0
   25.3088  -20.7235  -12.9971 C   0  0  1  0  0  0  0  0  0  0  0  0
   23.8620  -20.8831  -13.4405 C   0  0  0  0  0  0  0  0  0  0  0  0
   22.9252  -20.2094  -12.4647 C   0  0  0  0  0  0  0  0  0  0  0  0
   21.5111  -20.5228  -12.8825 C   0  0  0  0  0  0  0  0  0  0  0  0
   20.5434  -19.7221  -12.0304 C   0  0  0  0  0  0  0  0  0  0  0  0
   19.1898  -20.1117  -12.4082 N   0  0  0  0  0  0  0  0  0  0  0  0
   25.4951  -21.1580  -11.5961 C   0  0  0  0  0  0  0  0  0  0  0  0
   25.4071  -22.3870  -11.3550 O   0  0  0  0  0  0  0  0  0  0  0  0
   28.1957  -19.3190   -4.3444 C   0  0  0  0  0  0  0  0  0  0  0  0
   28.0027  -18.9336   -6.0807 S   0  0  0  0  0  0  0  0  0  0  0  0
   26.9111  -20.0849   -6.9285 C   0  0  0  0  0  0  0  0  0  0  0  0
   26.7647  -19.8256   -8.3745 C   0  0  0  0  0  0  0  0  0  0  0  0
   25.8451  -20.6941   -9.1164 C   0  0  2  0  0  0  0  0  0  0  0  0
   25.7619  -20.2903  -10.5279 N   0  0  0  0  0  0  0  0  0  0  0  0
   24.4960  -20.9262   -8.6687 C   0  0  0  0  0  0  0  0  0  0  0  0
   23.3095  -20.4180   -9.1624 O   0  0  0  0  0  0  0  0  0  0  0  0
   24.3178  -21.7116   -7.6593 O   0  0  0  0  0  0  0  0  0  0  0  0
  2  3  2  0
  2  1  1  0
  4  2  1  0
  5  4  1  0
  6  5  1  0
  6  7  1  6
  8  6  1  0
  8  9  2  0
 10  8  1  0
 11 10  1  0
 11 12  1  6
 13 14  1  0
 13 12  1  0
 15 14  1  0
 16 15  1  0
 17 11  1  0
 18 17  2  0
 19 20  1  0
 20 21  1  0
 22 21  1  0
 23 22  1  1
 23 24  1  0
 24 17  1  0
 25 26  1  0
 25 23  1  0
 27 25  2  0
M  END
$$$$
