QKM.pdb
     RDKit          3D

 27 26  0  0  1  0  0  0  0  0999 V2000
   19.5228  -19.5490  -10.3328 N   0  0  0  0  0  0  0  0  0  0  0  0
   19.5571  -20.6177  -11.2501 C   0  0  0  0  0  0  0  0  0  0  0  0
   18.6746  -21.4973  -11.2162 O   0  0  0  0  0  0  0  0  0  0  0  0
   20.6416  -20.6877  -12.2476 C   0  0  0  0  0  0  0  0  0  0  0  0
   21.9174  -21.2663  -11.6441 C   0  0  0  0  0  0  0  0  0  0  0  0
   22.9705  -20.1894  -11.5305 C   0  0  2  0  0  0  0  0  0  0  0  0
   22.7933  -19.1479  -12.5018 N   0  0  0  0  0  0  0  0  0  0  0  0
   24.3165  -20.7760  -11.7324 C   0  0  0  0  0  0  0  0  0  0  0  0
   24.7273  -21.7713  -11.0536 O   0  0  0  0  0  0  0  0  0  0  0  0
   25.2165  -20.2597  -12.6913 N   0  0  0  0  0  0  0  0  0  0  0  0
   26.5570  -20.7795  -12.8278 C   0  0  1  0  0  0  0  0  0  0  0  0
   27.1125  -20.2212  -14.1297 C   0  0  0  0  0  0  0  0  0  0  0  0
   28.4393  -20.8621  -14.4645 C   0  0  0  0  0  0  0  0  0  0  0  0
   28.2513  -21.7089  -15.6974 C   0  0  0  0  0  0  0  0  0  0  0  0
   29.5906  -22.2784  -16.1283 C   0  0  0  0  0  0  0  0  0  0  0  0
   29.3481  -23.2021  -17.2304 N   0  0  0  0  0  0  0  0  0  0  0  0
   27.4156  -20.4235  -11.6779 C   0  0  0  0  0  0  0  0  0  0  0  0
   27.1115  -19.3950  -11.0253 O   0  0  0  0  0  0  0  0  0  0  0  0
   27.9528  -21.0639   -5.1252 C   0  0  0  0  0  0  0  0  0  0  0  0
   28.0364  -19.7470   -6.3333 S   0  0  0  0  0  0  0  0  0  0  0  0
   29.1587  -20.1206   -7.6885 C   0  0  0  0  0  0  0  0  0  0  0  0
   28.4845  -20.5327   -8.9355 C   0  0  0  0  0  0  0  0  0  0  0  0
   29.3428  -20.8734  -10.0746 C   0  0  2  0  0  0  0  0  0  0  0  0
   28.5398  -21.1570  -11.2734 N   0  0  0  0  0  0  0  0  0  0  0  0
   30.3415  -21.9075   -9.9874 C   0  0  0  0  0  0  0  0  0  0  0  0
   31.5353  -21.9160   -9.2914 O   0  0  0  0  0  0  0  0  0  0  0  0
   30.1402  -23.0027  -10.6414 O   0  0  0  0  0  0  0  0  0  0  0  0
  2  3  2  0
  2  1  1  0
  4  2  1  0
  5  4  1  0
  6  5  1  0
  6  7  1  6
  8  6  1  0
  8  9  2  0
 10  8  1  0
 11 10  1  0
 11 12  1  6
 13 14  1  0
 13 12  1  0
 15 14  1  0
 16 15  1  0
 17 11  1  0
 18 17  2  0
 19 20  1  0
 20 21  1  0
 22 21  1  0
 23 22  1  1
 23 24  1  0
 24 17  1  0
 25 26  1  0
 25 23  1  0
 27 25  2  0
M  END
$$$$
