QKM.pdb
     RDKit          3D

 27 26  0  0  1  0  0  0  0  0999 V2000
   27.4872  -18.3112   -6.4805 N   0  0  0  0  0  0  0  0  0  0  0  0
   27.6584  -19.6939   -6.2715 C   0  0  0  0  0  0  0  0  0  0  0  0
   27.8776  -20.1287   -5.1241 O   0  0  0  0  0  0  0  0  0  0  0  0
   27.5766  -20.6200   -7.4168 C   0  0  0  0  0  0  0  0  0  0  0  0
   27.5337  -19.8652   -8.7417 C   0  0  0  0  0  0  0  0  0  0  0  0
   26.1098  -19.7694   -9.2366 C   0  0  2  0  0  0  0  0  0  0  0  0
   25.2113  -20.5908   -8.4767 N   0  0  0  0  0  0  0  0  0  0  0  0
   26.0368  -20.2033  -10.6519 C   0  0  0  0  0  0  0  0  0  0  0  0
   26.9537  -19.9269  -11.4903 O   0  0  0  0  0  0  0  0  0  0  0  0
   24.9427  -20.9485  -11.1457 N   0  0  0  0  0  0  0  0  0  0  0  0
   24.8089  -21.2555  -12.5505 C   0  0  1  0  0  0  0  0  0  0  0  0
   23.6247  -22.2020  -12.6808 C   0  0  0  0  0  0  0  0  0  0  0  0
   23.5146  -22.7313  -14.0919 C   0  0  0  0  0  0  0  0  0  0  0  0
   24.4440  -23.9110  -14.2222 C   0  0  0  0  0  0  0  0  0  0  0  0
   24.3807  -24.4500  -15.6396 C   0  0  0  0  0  0  0  0  0  0  0  0
   25.3896  -25.4955  -15.7641 N   0  0  0  0  0  0  0  0  0  0  0  0
   24.6229  -20.0416  -13.3740 C   0  0  0  0  0  0  0  0  0  0  0  0
   23.7577  -19.2136  -12.9967 O   0  0  0  0  0  0  0  0  0  0  0  0
   29.4685  -17.6892  -16.8034 C   0  0  0  0  0  0  0  0  0  0  0  0
   28.2830  -16.3692  -17.0334 S   0  0  0  0  0  0  0  0  0  0  0  0
   26.6833  -16.7393  -16.2988 C   0  0  0  0  0  0  0  0  0  0  0  0
   26.4909  -18.1620  -15.9544 C   0  0  0  0  0  0  0  0  0  0  0  0
   25.2127  -18.5301  -15.3372 C   0  0  2  0  0  0  0  0  0  0  0  0
   25.3465  -19.7591  -14.5409 N   0  0  0  0  0  0  0  0  0  0  0  0
   24.0078  -18.6659  -16.1146 C   0  0  0  0  0  0  0  0  0  0  0  0
   23.3964  -19.8103  -16.5901 O   0  0  0  0  0  0  0  0  0  0  0  0
   23.3738  -17.5904  -16.4447 O   0  0  0  0  0  0  0  0  0  0  0  0
  2  3  2  0
  2  1  1  0
  4  2  1  0
  5  4  1  0
  6  5  1  0
  6  7  1  1
  8  6  1  0
  8  9  2  0
 10  8  1  0
 11 10  1  0
 11 12  1  1
 13 14  1  0
 13 12  1  0
 15 14  1  0
 16 15  1  0
 17 11  1  0
 18 17  2  0
 19 20  1  0
 20 21  1  0
 22 21  1  0
 23 22  1  6
 23 24  1  0
 24 17  1  0
 25 26  1  0
 25 23  1  0
 27 25  2  0
M  END
$$$$
