QKM.pdb
     RDKit          3D

 27 26  0  0  1  0  0  0  0  0999 V2000
   25.4230  -17.1751  -17.5832 N   0  0  0  0  0  0  0  0  0  0  0  0
   24.4873  -16.1374  -17.4024 C   0  0  0  0  0  0  0  0  0  0  0  0
   24.7585  -14.9806  -17.7788 O   0  0  0  0  0  0  0  0  0  0  0  0
   23.1886  -16.4295  -16.7666 C   0  0  0  0  0  0  0  0  0  0  0  0
   23.0611  -17.9079  -16.4132 C   0  0  0  0  0  0  0  0  0  0  0  0
   23.3612  -18.1172  -14.9478 C   0  0  2  0  0  0  0  0  0  0  0  0
   23.9771  -16.9686  -14.3471 N   0  0  0  0  0  0  0  0  0  0  0  0
   24.2811  -19.2672  -14.7799 C   0  0  0  0  0  0  0  0  0  0  0  0
   23.9535  -20.4485  -15.1220 O   0  0  0  0  0  0  0  0  0  0  0  0
   25.5732  -19.1117  -14.2298 N   0  0  0  0  0  0  0  0  0  0  0  0
   26.4564  -20.2388  -14.0426 C   0  0  1  0  0  0  0  0  0  0  0  0
   27.8083  -19.8349  -14.6122 C   0  0  0  0  0  0  0  0  0  0  0  0
   27.7021  -19.5482  -16.0921 C   0  0  0  0  0  0  0  0  0  0  0  0
   29.0816  -19.2216  -16.6049 C   0  0  0  0  0  0  0  0  0  0  0  0
   28.9964  -18.8265  -18.0679 C   0  0  0  0  0  0  0  0  0  0  0  0
   30.3258  -18.4048  -18.4935 N   0  0  0  0  0  0  0  0  0  0  0  0
   26.5657  -20.6352  -12.6224 C   0  0  0  0  0  0  0  0  0  0  0  0
   27.7195  -20.7481  -12.1404 O   0  0  0  0  0  0  0  0  0  0  0  0
   28.1361  -18.1802   -8.2480 C   0  0  0  0  0  0  0  0  0  0  0  0
   27.7846  -19.6832   -7.3437 S   0  0  0  0  0  0  0  0  0  0  0  0
   26.5898  -20.7334   -8.1835 C   0  0  0  0  0  0  0  0  0  0  0  0
   26.5574  -20.5598   -9.6493 C   0  0  0  0  0  0  0  0  0  0  0  0
   25.5644  -21.3440  -10.3904 C   0  0  2  0  0  0  0  0  0  0  0  0
   25.4700  -20.8910  -11.7862 N   0  0  0  0  0  0  0  0  0  0  0  0
   24.2155  -21.5040   -9.9117 C   0  0  0  0  0  0  0  0  0  0  0  0
   23.0234  -21.1592  -10.5197 O   0  0  0  0  0  0  0  0  0  0  0  0
   24.0434  -22.0371   -8.7481 O   0  0  0  0  0  0  0  0  0  0  0  0
  2  3  2  0
  2  1  1  0
  4  2  1  0
  5  4  1  0
  6  5  1  0
  6  7  1  6
  8  6  1  0
  8  9  2  0
 10  8  1  0
 11 10  1  0
 11 12  1  1
 13 14  1  0
 13 12  1  0
 15 14  1  0
 16 15  1  0
 17 11  1  0
 18 17  2  0
 19 20  1  0
 20 21  1  0
 22 21  1  0
 23 22  1  1
 23 24  1  0
 24 17  1  0
 25 26  1  0
 25 23  1  0
 27 25  2  0
M  END
$$$$
