QKM.pdb
     RDKit          3D

 27 26  0  0  1  0  0  0  0  0999 V2000
   18.9930  -25.8357  -18.2723 N   0  0  0  0  0  0  0  0  0  0  0  0
   18.9942  -27.1760  -17.8380 C   0  0  0  0  0  0  0  0  0  0  0  0
   18.5573  -28.0737  -18.5842 O   0  0  0  0  0  0  0  0  0  0  0  0
   19.5147  -27.5077  -16.4982 C   0  0  0  0  0  0  0  0  0  0  0  0
   20.0579  -26.2710  -15.7894 C   0  0  0  0  0  0  0  0  0  0  0  0
   21.5272  -26.1024  -16.0965 C   0  0  2  0  0  0  0  0  0  0  0  0
   22.3470  -27.0273  -15.3670 N   0  0  0  0  0  0  0  0  0  0  0  0
   21.9629  -24.7307  -15.7427 C   0  0  0  0  0  0  0  0  0  0  0  0
   22.4890  -24.4596  -14.6159 O   0  0  0  0  0  0  0  0  0  0  0  0
   21.8165  -23.6493  -16.6401 N   0  0  0  0  0  0  0  0  0  0  0  0
   22.2302  -22.3116  -16.2867 C   0  0  1  0  0  0  0  0  0  0  0  0
   22.6484  -21.6268  -17.5795 C   0  0  0  0  0  0  0  0  0  0  0  0
   23.0646  -20.1978  -17.3186 C   0  0  0  0  0  0  0  0  0  0  0  0
   23.4003  -19.5597  -18.6425 C   0  0  0  0  0  0  0  0  0  0  0  0
   23.7222  -18.0920  -18.4288 C   0  0  0  0  0  0  0  0  0  0  0  0
   23.8839  -17.4758  -19.7406 N   0  0  0  0  0  0  0  0  0  0  0  0
   21.1605  -21.5579  -15.5982 C   0  0  0  0  0  0  0  0  0  0  0  0
   20.0130  -21.5871  -16.1068 O   0  0  0  0  0  0  0  0  0  0  0  0
   20.5786  -18.4366   -9.1410 C   0  0  0  0  0  0  0  0  0  0  0  0
   21.2203  -20.0014   -9.7240 S   0  0  0  0  0  0  0  0  0  0  0  0
   20.4744  -20.5207  -11.2764 C   0  0  0  0  0  0  0  0  0  0  0  0
   20.7448  -19.6143  -12.4099 C   0  0  0  0  0  0  0  0  0  0  0  0
   20.2946  -20.0532  -13.7347 C   0  0  2  0  0  0  0  0  0  0  0  0
   21.3457  -20.8181  -14.4219 N   0  0  0  0  0  0  0  0  0  0  0  0
   19.7565  -19.1263  -14.6969 C   0  0  0  0  0  0  0  0  0  0  0  0
   20.3988  -18.4521  -15.7181 O   0  0  0  0  0  0  0  0  0  0  0  0
   18.4970  -18.8485  -14.6338 O   0  0  0  0  0  0  0  0  0  0  0  0
  2  3  2  0
  2  1  1  0
  4  2  1  0
  5  4  1  0
  6  5  1  0
  6  7  1  1
  8  6  1  0
  8  9  2  0
 10  8  1  0
 11 10  1  0
 11 12  1  6
 13 14  1  0
 13 12  1  0
 15 14  1  0
 16 15  1  0
 17 11  1  0
 18 17  2  0
 19 20  1  0
 20 21  1  0
 22 21  1  0
 23 22  1  1
 23 24  1  0
 24 17  1  0
 25 26  1  0
 25 23  1  0
 27 25  2  0
M  END
$$$$
