QKM.pdb
     RDKit          3D

 27 26  0  0  1  0  0  0  0  0999 V2000
   20.0648  -21.1874  -13.5585 N   0  0  0  0  0  0  0  0  0  0  0  0
   19.1027  -20.3953  -14.2157 C   0  0  0  0  0  0  0  0  0  0  0  0
   17.8987  -20.7153  -14.1758 O   0  0  0  0  0  0  0  0  0  0  0  0
   19.5296  -19.1886  -14.9490 C   0  0  0  0  0  0  0  0  0  0  0  0
   21.0291  -18.9497  -14.8039 C   0  0  0  0  0  0  0  0  0  0  0  0
   21.7239  -19.2087  -16.1199 C   0  0  2  0  0  0  0  0  0  0  0  0
   21.1497  -20.3144  -16.8321 N   0  0  0  0  0  0  0  0  0  0  0  0
   23.1552  -19.5129  -15.8840 C   0  0  0  0  0  0  0  0  0  0  0  0
   23.5497  -20.6712  -15.5339 O   0  0  0  0  0  0  0  0  0  0  0  0
   24.1591  -18.5304  -16.0359 N   0  0  0  0  0  0  0  0  0  0  0  0
   25.5533  -18.8324  -15.8111 C   0  0  1  0  0  0  0  0  0  0  0  0
   26.3529  -17.6981  -16.4349 C   0  0  0  0  0  0  0  0  0  0  0  0
   26.9006  -18.1066  -17.7828 C   0  0  0  0  0  0  0  0  0  0  0  0
   28.2990  -17.5571  -17.9050 C   0  0  0  0  0  0  0  0  0  0  0  0
   28.8473  -17.8731  -19.2845 C   0  0  0  0  0  0  0  0  0  0  0  0
   30.2512  -17.4791  -19.3069 N   0  0  0  0  0  0  0  0  0  0  0  0
   25.8683  -18.9887  -14.3750 C   0  0  0  0  0  0  0  0  0  0  0  0
   25.2673  -18.2398  -13.5661 O   0  0  0  0  0  0  0  0  0  0  0  0
   22.8925  -20.0663  -10.4095 C   0  0  0  0  0  0  0  0  0  0  0  0
   24.3243  -20.4210   -9.3973 S   0  0  0  0  0  0  0  0  0  0  0  0
   25.7520  -20.9243  -10.3690 C   0  0  0  0  0  0  0  0  0  0  0  0
   25.7012  -20.5002  -11.7822 C   0  0  0  0  0  0  0  0  0  0  0  0
   26.9811  -20.2081  -12.4355 C   0  0  2  0  0  0  0  0  0  0  0  0
   26.7889  -19.9139  -13.8634 N   0  0  0  0  0  0  0  0  0  0  0  0
   28.1015  -21.1083  -12.3423 C   0  0  0  0  0  0  0  0  0  0  0  0
   29.0546  -21.4222  -13.2924 O   0  0  0  0  0  0  0  0  0  0  0  0
   28.2806  -21.7418  -11.2312 O   0  0  0  0  0  0  0  0  0  0  0  0
  2  3  2  0
  2  1  1  0
  4  2  1  0
  5  4  1  0
  6  5  1  0
  6  7  1  1
  8  6  1  0
  8  9  2  0
 10  8  1  0
 11 10  1  0
 11 12  1  1
 13 14  1  0
 13 12  1  0
 15 14  1  0
 16 15  1  0
 17 11  1  0
 18 17  2  0
 19 20  1  0
 20 21  1  0
 22 21  1  0
 23 22  1  6
 23 24  1  0
 24 17  1  0
 25 26  1  0
 25 23  1  0
 27 25  2  0
M  END
$$$$
