QKM.pdb
     RDKit          3D

 27 26  0  0  1  0  0  0  0  0999 V2000
   24.5015  -19.0880  -15.5337 N   0  0  0  0  0  0  0  0  0  0  0  0
   23.3786  -19.1340  -16.3834 C   0  0  0  0  0  0  0  0  0  0  0  0
   23.5089  -18.9068  -17.6020 O   0  0  0  0  0  0  0  0  0  0  0  0
   22.0521  -19.4520  -15.8218 C   0  0  0  0  0  0  0  0  0  0  0  0
   22.1017  -19.5580  -14.3010 C   0  0  0  0  0  0  0  0  0  0  0  0
   22.6093  -20.9211  -13.8937 C   0  0  2  0  0  0  0  0  0  0  0  0
   23.4028  -21.5369  -14.9188 N   0  0  0  0  0  0  0  0  0  0  0  0
   21.4669  -21.8189  -13.6013 C   0  0  0  0  0  0  0  0  0  0  0  0
   20.9790  -22.5982  -14.4814 O   0  0  0  0  0  0  0  0  0  0  0  0
   20.8581  -21.8566  -12.3268 N   0  0  0  0  0  0  0  0  0  0  0  0
   19.7647  -22.7544  -12.0371 C   0  0  1  0  0  0  0  0  0  0  0  0
   19.7280  -22.9260  -10.5257 C   0  0  0  0  0  0  0  0  0  0  0  0
   18.7618  -24.0199  -10.1339 C   0  0  0  0  0  0  0  0  0  0  0  0
   18.9044  -24.2608   -8.6527 C   0  0  0  0  0  0  0  0  0  0  0  0
   18.0710  -25.4650   -8.2541 C   0  0  0  0  0  0  0  0  0  0  0  0
   18.3923  -25.7905   -6.8694 N   0  0  0  0  0  0  0  0  0  0  0  0
   18.4743  -22.2511  -12.5547 C   0  0  0  0  0  0  0  0  0  0  0  0
   18.3144  -21.0066  -12.5985 O   0  0  0  0  0  0  0  0  0  0  0  0
   14.7783  -21.5117  -18.9353 C   0  0  0  0  0  0  0  0  0  0  0  0
   15.8770  -22.4263  -17.8598 S   0  0  0  0  0  0  0  0  0  0  0  0
   15.6365  -22.0270  -16.1224 C   0  0  0  0  0  0  0  0  0  0  0  0
   16.4415  -22.8481  -15.1965 C   0  0  0  0  0  0  0  0  0  0  0  0
   16.2597  -22.6048  -13.7619 C   0  0  2  0  0  0  0  0  0  0  0  0
   17.4258  -23.0702  -12.9964 N   0  0  0  0  0  0  0  0  0  0  0  0
   15.0893  -23.0629  -13.0586 C   0  0  0  0  0  0  0  0  0  0  0  0
   13.9580  -22.3603  -12.6894 O   0  0  0  0  0  0  0  0  0  0  0  0
   15.0459  -24.3010  -12.6940 O   0  0  0  0  0  0  0  0  0  0  0  0
  2  3  2  0
  2  1  1  0
  4  2  1  0
  5  4  1  0
  6  5  1  0
  6  7  1  6
  8  6  1  0
  8  9  2  0
 10  8  1  0
 11 10  1  0
 11 12  1  1
 13 14  1  0
 13 12  1  0
 15 14  1  0
 16 15  1  0
 17 11  1  0
 18 17  2  0
 19 20  1  0
 20 21  1  0
 22 21  1  0
 23 22  1  6
 23 24  1  0
 24 17  1  0
 25 26  1  0
 25 23  1  0
 27 25  2  0
M  END
$$$$
