QKM.pdb
     RDKit          3D

 27 26  0  0  1  0  0  0  0  0999 V2000
   22.1672  -17.8949  -18.1080 N   0  0  0  0  0  0  0  0  0  0  0  0
   22.9752  -16.7633  -18.3351 C   0  0  0  0  0  0  0  0  0  0  0  0
   24.2154  -16.8556  -18.2513 O   0  0  0  0  0  0  0  0  0  0  0  0
   22.3446  -15.4729  -18.6716 C   0  0  0  0  0  0  0  0  0  0  0  0
   21.2307  -15.1241  -17.6896 C   0  0  0  0  0  0  0  0  0  0  0  0
   20.0690  -14.4996  -18.4257 C   0  0  2  0  0  0  0  0  0  0  0  0
   20.1421  -14.7134  -19.8429 N   0  0  0  0  0  0  0  0  0  0  0  0
   20.0470  -13.0370  -18.1864 C   0  0  0  0  0  0  0  0  0  0  0  0
   20.8634  -12.2473  -18.7607 O   0  0  0  0  0  0  0  0  0  0  0  0
   19.1161  -12.4415  -17.3061 N   0  0  0  0  0  0  0  0  0  0  0  0
   19.0707  -11.0118  -17.1073 C   0  0  1  0  0  0  0  0  0  0  0  0
   17.7230  -10.7007  -16.4730 C   0  0  0  0  0  0  0  0  0  0  0  0
   17.5704   -9.2155  -16.2404 C   0  0  0  0  0  0  0  0  0  0  0  0
   16.2449   -8.9827  -15.5611 C   0  0  0  0  0  0  0  0  0  0  0  0
   16.0469   -7.4948  -15.3360 C   0  0  0  0  0  0  0  0  0  0  0  0
   16.9706   -7.0760  -14.2882 N   0  0  0  0  0  0  0  0  0  0  0  0
   20.1871  -10.5271  -16.2677 C   0  0  0  0  0  0  0  0  0  0  0  0
   20.4296  -11.1559  -15.2084 O   0  0  0  0  0  0  0  0  0  0  0  0
   27.4082  -10.1998  -14.7779 C   0  0  0  0  0  0  0  0  0  0  0  0
   25.9470  -10.5749  -15.7395 S   0  0  0  0  0  0  0  0  0  0  0  0
   24.5665   -9.4879  -15.3543 C   0  0  0  0  0  0  0  0  0  0  0  0
   23.3187   -9.8185  -16.0709 C   0  0  0  0  0  0  0  0  0  0  0  0
   22.1508   -8.9750  -15.7970 C   0  0  2  0  0  0  0  0  0  0  0  0
   20.9861   -9.4178  -16.5779 N   0  0  0  0  0  0  0  0  0  0  0  0
   22.2092   -7.5405  -15.9121 C   0  0  0  0  0  0  0  0  0  0  0  0
   22.6265   -6.6036  -14.9860 O   0  0  0  0  0  0  0  0  0  0  0  0
   21.8208   -7.0040  -17.0207 O   0  0  0  0  0  0  0  0  0  0  0  0
  2  3  2  0
  2  1  1  0
  4  2  1  0
  5  4  1  0
  6  5  1  0
  6  7  1  6
  8  6  1  0
  8  9  2  0
 10  8  1  0
 11 10  1  0
 11 12  1  1
 13 14  1  0
 13 12  1  0
 15 14  1  0
 16 15  1  0
 17 11  1  0
 18 17  2  0
 19 20  1  0
 20 21  1  0
 22 21  1  0
 23 22  1  6
 23 24  1  0
 24 17  1  0
 25 26  1  0
 25 23  1  0
 27 25  2  0
M  END
$$$$
