QKM.pdb
     RDKit          3D

 27 26  0  0  1  0  0  0  0  0999 V2000
   20.7438  -15.2313  -22.2668 N   0  0  0  0  0  0  0  0  0  0  0  0
   20.3849  -16.1624  -21.2722 C   0  0  0  0  0  0  0  0  0  0  0  0
   19.8647  -17.2487  -21.5933 O   0  0  0  0  0  0  0  0  0  0  0  0
   20.6285  -15.8431  -19.8527 C   0  0  0  0  0  0  0  0  0  0  0  0
   21.1260  -14.4114  -19.6811 C   0  0  0  0  0  0  0  0  0  0  0  0
   21.3463  -14.1124  -18.2170 C   0  0  2  0  0  0  0  0  0  0  0  0
   20.5365  -14.9347  -17.3639 N   0  0  0  0  0  0  0  0  0  0  0  0
   21.0123  -12.6962  -17.9349 C   0  0  0  0  0  0  0  0  0  0  0  0
   21.6317  -11.7334  -18.4911 O   0  0  0  0  0  0  0  0  0  0  0  0
   19.9860  -12.3399  -17.0316 N   0  0  0  0  0  0  0  0  0  0  0  0
   19.6665  -10.9588  -16.7560 C   0  0  1  0  0  0  0  0  0  0  0  0
   18.2964  -10.9501  -16.0944 C   0  0  0  0  0  0  0  0  0  0  0  0
   17.8306   -9.5343  -15.8454 C   0  0  0  0  0  0  0  0  0  0  0  0
   16.4638   -9.5965  -15.2126 C   0  0  0  0  0  0  0  0  0  0  0  0
   15.9414   -8.1876  -14.9987 C   0  0  0  0  0  0  0  0  0  0  0  0
   14.5397   -8.2867  -14.6090 N   0  0  0  0  0  0  0  0  0  0  0  0
   20.6828  -10.3084  -15.9015 C   0  0  0  0  0  0  0  0  0  0  0  0
   21.2374  -11.0137  -15.0233 O   0  0  0  0  0  0  0  0  0  0  0  0
   27.1752  -10.9376  -14.9865 C   0  0  0  0  0  0  0  0  0  0  0  0
   25.9586  -10.2677  -16.1142 S   0  0  0  0  0  0  0  0  0  0  0  0
   24.5896   -9.4703  -15.2624 C   0  0  0  0  0  0  0  0  0  0  0  0
   23.4774   -9.0709  -16.1473 C   0  0  0  0  0  0  0  0  0  0  0  0
   22.3321   -8.4059  -15.5178 C   0  0  2  0  0  0  0  0  0  0  0  0
   21.0633   -8.9634  -16.0093 N   0  0  0  0  0  0  0  0  0  0  0  0
   22.1895   -6.9727  -15.5276 C   0  0  0  0  0  0  0  0  0  0  0  0
   22.3655   -6.0677  -14.4982 O   0  0  0  0  0  0  0  0  0  0  0  0
   21.8432   -6.4046  -16.6344 O   0  0  0  0  0  0  0  0  0  0  0  0
  2  3  2  0
  2  1  1  0
  4  2  1  0
  5  4  1  0
  6  5  1  0
  6  7  1  1
  8  6  1  0
  8  9  2  0
 10  8  1  0
 11 10  1  0
 11 12  1  1
 13 14  1  0
 13 12  1  0
 15 14  1  0
 16 15  1  0
 17 11  1  0
 18 17  2  0
 19 20  1  0
 20 21  1  0
 22 21  1  0
 23 22  1  6
 23 24  1  0
 24 17  1  0
 25 26  1  0
 25 23  1  0
 27 25  2  0
M  END
$$$$
