QKM.pdb
     RDKit          3D

 27 26  0  0  1  0  0  0  0  0999 V2000
   28.2627  -21.4530  -14.7496 N   0  0  0  0  0  0  0  0  0  0  0  0
   27.7377  -20.1734  -15.0178 C   0  0  0  0  0  0  0  0  0  0  0  0
   28.0828  -19.5609  -16.0471 O   0  0  0  0  0  0  0  0  0  0  0  0
   26.7798  -19.5661  -14.0746 C   0  0  0  0  0  0  0  0  0  0  0  0
   26.6717  -20.3797  -12.7889 C   0  0  0  0  0  0  0  0  0  0  0  0
   25.6591  -21.4872  -12.9611 C   0  0  2  0  0  0  0  0  0  0  0  0
   25.8506  -22.2171  -14.1818 N   0  0  0  0  0  0  0  0  0  0  0  0
   24.2895  -20.9208  -12.9794 C   0  0  0  0  0  0  0  0  0  0  0  0
   23.8168  -20.2671  -11.9949 O   0  0  0  0  0  0  0  0  0  0  0  0
   23.4349  -21.0772  -14.0935 N   0  0  0  0  0  0  0  0  0  0  0  0
   22.0806  -20.5759  -14.0844 C   0  0  1  0  0  0  0  0  0  0  0  0
   21.7636  -20.1457  -15.5090 C   0  0  0  0  0  0  0  0  0  0  0  0
   20.3769  -19.5511  -15.5932 C   0  0  0  0  0  0  0  0  0  0  0  0
   20.0937  -19.2284  -17.0382 C   0  0  0  0  0  0  0  0  0  0  0  0
   18.7154  -18.6039  -17.1557 C   0  0  0  0  0  0  0  0  0  0  0  0
   18.5004  -18.2594  -18.5563 N   0  0  0  0  0  0  0  0  0  0  0  0
   21.1138  -21.5827  -13.5968 C   0  0  0  0  0  0  0  0  0  0  0  0
   21.2763  -22.7699  -13.9717 O   0  0  0  0  0  0  0  0  0  0  0  0
   20.1995  -23.0058   -7.8935 C   0  0  0  0  0  0  0  0  0  0  0  0
   18.8279  -23.9781   -8.5049 S   0  0  0  0  0  0  0  0  0  0  0  0
   18.4437  -23.6277  -10.2270 C   0  0  0  0  0  0  0  0  0  0  0  0
   19.3407  -22.6389  -10.8572 C   0  0  0  0  0  0  0  0  0  0  0  0
   19.0675  -22.2885  -12.2547 C   0  0  2  0  0  0  0  0  0  0  0  0
   20.0349  -21.2972  -12.7484 N   0  0  0  0  0  0  0  0  0  0  0  0
   17.7647  -21.8496  -12.6844 C   0  0  0  0  0  0  0  0  0  0  0  0
   16.5887  -22.5678  -12.7890 O   0  0  0  0  0  0  0  0  0  0  0  0
   17.6260  -20.6155  -13.0386 O   0  0  0  0  0  0  0  0  0  0  0  0
  2  3  2  0
  2  1  1  0
  4  2  1  0
  5  4  1  0
  6  5  1  0
  6  7  1  6
  8  6  1  0
  8  9  2  0
 10  8  1  0
 11 10  1  0
 11 12  1  6
 13 14  1  0
 13 12  1  0
 15 14  1  0
 16 15  1  0
 17 11  1  0
 18 17  2  0
 19 20  1  0
 20 21  1  0
 22 21  1  0
 23 22  1  1
 23 24  1  0
 24 17  1  0
 25 26  1  0
 25 23  1  0
 27 25  2  0
M  END
$$$$
