SVR.pdb
     RDKit          3D

 25 24  0  0  1  0  0  0  0  0999 V2000
   27.9738  -17.4742  -15.4288 O   0  0  0  0  0  0  0  0  0  0  0  0
   27.2154  -18.6414  -15.2003 C   0  0  0  0  0  0  0  0  0  0  0  0
   28.1030  -19.6992  -14.5657 C   0  0  2  0  0  0  0  0  0  0  0  0
   28.7716  -20.4002  -15.6409 N   0  0  0  0  0  0  0  0  0  0  0  0
   27.2311  -20.6013  -13.7689 C   0  0  0  0  0  0  0  0  0  0  0  0
   26.8792  -21.6712  -14.2915 O   0  0  0  0  0  0  0  0  0  0  0  0
   24.3925  -21.1963   -9.6630 C   0  0  0  0  0  0  0  0  0  0  0  0
   25.6156  -20.6025  -10.3071 C   0  0  1  0  0  0  0  0  0  0  0  0
   26.8754  -20.8899   -9.5417 C   0  0  0  0  0  0  0  0  0  0  0  0
   25.7153  -20.9681  -11.7748 C   0  0  2  0  0  0  0  0  0  0  0  0
   26.7826  -20.3101  -12.4558 N   0  0  0  0  0  0  0  0  0  0  0  0
   24.4257  -20.6747  -12.4524 C   0  0  0  0  0  0  0  0  0  0  0  0
   24.0745  -19.4728  -12.7100 O   0  0  0  0  0  0  0  0  0  0  0  0
   17.1063  -21.6463  -13.3283 N   0  0  0  0  0  0  0  0  0  0  0  0
   17.0301  -22.5070  -14.4503 C   0  0  0  0  0  0  0  0  0  0  0  0
   15.8864  -22.6894  -15.0038 N   0  0  0  0  0  0  0  0  0  0  0  0
   18.1771  -23.1671  -14.9746 N   0  0  0  0  0  0  0  0  0  0  0  0
   19.4171  -23.1980  -14.2347 C   0  0  0  0  0  0  0  0  0  0  0  0
   20.5893  -22.6752  -14.9931 C   0  0  0  0  0  0  0  0  0  0  0  0
   21.9099  -22.6203  -14.3404 C   0  0  0  0  0  0  0  0  0  0  0  0
   22.2430  -21.4572  -13.4792 C   0  0  2  0  0  0  0  0  0  0  0  0
   23.5498  -21.7275  -12.8312 N   0  0  0  0  0  0  0  0  0  0  0  0
   21.2625  -21.2139  -12.4247 C   0  0  0  0  0  0  0  0  0  0  0  0
   20.2420  -20.2948  -12.5472 O   0  0  0  0  0  0  0  0  0  0  0  0
   21.2988  -21.8461  -11.3129 O   0  0  0  0  0  0  0  0  0  0  0  0
  1  2  1  0
  2  3  1  0
  3  4  1  6
  3  5  1  0
  5 11  1  0
  5  6  2  0
  8  7  1  1
  9  8  1  0
 10  8  1  0
 10 12  1  0
 10 11  1  6
 12 13  2  0
 15 17  1  0
 15 14  1  0
 16 15  2  0
 18 17  1  0
 19 18  1  0
 19 20  1  0
 21 20  1  1
 21 23  1  0
 22 21  1  0
 22 12  1  0
 23 25  2  0
 23 24  1  0
M  END
$$$$
