SVR.pdb
     RDKit          3D

 25 24  0  0  1  0  0  0  0  0999 V2000
   20.9831  -22.1975  -12.9181 O   0  0  0  0  0  0  0  0  0  0  0  0
   20.8503  -20.8467  -12.5345 C   0  0  0  0  0  0  0  0  0  0  0  0
   20.4559  -20.0184  -13.7461 C   0  0  2  0  0  0  0  0  0  0  0  0
   19.2373  -20.5896  -14.2785 N   0  0  0  0  0  0  0  0  0  0  0  0
   21.5753  -20.0842  -14.7216 C   0  0  0  0  0  0  0  0  0  0  0  0
   21.4453  -20.8415  -15.6969 O   0  0  0  0  0  0  0  0  0  0  0  0
   25.9363  -18.1663  -16.2933 C   0  0  0  0  0  0  0  0  0  0  0  0
   24.6619  -18.0387  -15.5040 C   0  0  1  0  0  0  0  0  0  0  0  0
   23.8723  -16.8134  -15.8657 C   0  0  0  0  0  0  0  0  0  0  0  0
   23.8392  -19.3109  -15.5496 C   0  0  2  0  0  0  0  0  0  0  0  0
   22.7737  -19.3360  -14.6010 N   0  0  0  0  0  0  0  0  0  0  0  0
   24.7247  -20.4871  -15.3468 C   0  0  0  0  0  0  0  0  0  0  0  0
   25.1035  -20.8334  -14.1760 O   0  0  0  0  0  0  0  0  0  0  0  0
   23.9974  -28.7119  -17.8021 N   0  0  0  0  0  0  0  0  0  0  0  0
   24.8623  -28.5632  -16.6905 C   0  0  0  0  0  0  0  0  0  0  0  0
   25.1041  -29.5924  -15.9627 N   0  0  0  0  0  0  0  0  0  0  0  0
   25.4641  -27.3152  -16.3640 N   0  0  0  0  0  0  0  0  0  0  0  0
   25.2656  -26.1553  -17.2013 C   0  0  0  0  0  0  0  0  0  0  0  0
   26.0016  -24.9427  -16.7425 C   0  0  0  0  0  0  0  0  0  0  0  0
   25.3235  -23.6338  -16.7562 C   0  0  0  0  0  0  0  0  0  0  0  0
   26.0565  -22.4348  -16.2762 C   0  0  2  0  0  0  0  0  0  0  0  0
   25.1723  -21.2570  -16.4542 N   0  0  0  0  0  0  0  0  0  0  0  0
   27.2952  -22.1789  -17.0060 C   0  0  0  0  0  0  0  0  0  0  0  0
   28.4944  -22.7763  -16.6804 O   0  0  0  0  0  0  0  0  0  0  0  0
   27.3372  -21.3728  -17.9988 O   0  0  0  0  0  0  0  0  0  0  0  0
  1  2  1  0
  2  3  1  0
  3  4  1  6
  3  5  1  0
  5 11  1  0
  5  6  2  0
  8  7  1  6
  9  8  1  0
 10  8  1  0
 10 12  1  0
 10 11  1  1
 12 13  2  0
 15 17  1  0
 15 14  1  0
 16 15  2  0
 18 17  1  0
 19 18  1  0
 19 20  1  0
 21 20  1  6
 21 23  1  0
 22 21  1  0
 22 12  1  0
 23 25  2  0
 23 24  1  0
M  END
$$$$
