SVR.pdb
     RDKit          3D

 25 24  0  0  1  0  0  0  0  0999 V2000
   26.1720  -21.0464  -17.8599 O   0  0  0  0  0  0  0  0  0  0  0  0
   25.4168  -21.6099  -16.8103 C   0  0  0  0  0  0  0  0  0  0  0  0
   26.3600  -22.2108  -15.7813 C   0  0  2  0  0  0  0  0  0  0  0  0
   26.8719  -23.4452  -16.3370 N   0  0  0  0  0  0  0  0  0  0  0  0
   25.5822  -22.4401  -14.5357 C   0  0  0  0  0  0  0  0  0  0  0  0
   24.9795  -23.5198  -14.4239 O   0  0  0  0  0  0  0  0  0  0  0  0
   25.0383  -19.2940  -11.5451 C   0  0  0  0  0  0  0  0  0  0  0  0
   25.1574  -20.7429  -11.1579 C   0  0  1  0  0  0  0  0  0  0  0  0
   24.4851  -21.0544   -9.8515 C   0  0  0  0  0  0  0  0  0  0  0  0
   24.7289  -21.6653  -12.2818 C   0  0  2  0  0  0  0  0  0  0  0  0
   25.4913  -21.5017  -13.4767 N   0  0  0  0  0  0  0  0  0  0  0  0
   23.2852  -21.4641  -12.5714 C   0  0  0  0  0  0  0  0  0  0  0  0
   22.8989  -20.5982  -13.4289 O   0  0  0  0  0  0  0  0  0  0  0  0
   18.7171  -26.0715   -8.6938 N   0  0  0  0  0  0  0  0  0  0  0  0
   18.5130  -24.8235   -8.0564 C   0  0  0  0  0  0  0  0  0  0  0  0
   18.3262  -24.8093   -6.7865 N   0  0  0  0  0  0  0  0  0  0  0  0
   18.5105  -23.5977   -8.7801 N   0  0  0  0  0  0  0  0  0  0  0  0
   17.8691  -23.5005  -10.0706 C   0  0  0  0  0  0  0  0  0  0  0  0
   18.6299  -22.6935  -11.0668 C   0  0  0  0  0  0  0  0  0  0  0  0
   20.0995  -22.7990  -11.1157 C   0  0  0  0  0  0  0  0  0  0  0  0
   20.8484  -22.0020  -12.1205 C   0  0  2  0  0  0  0  0  0  0  0  0
   22.2970  -22.2328  -11.8992 N   0  0  0  0  0  0  0  0  0  0  0  0
   20.6041  -20.5656  -12.0236 C   0  0  0  0  0  0  0  0  0  0  0  0
   21.0595  -19.7967  -10.9736 O   0  0  0  0  0  0  0  0  0  0  0  0
   19.9423  -19.9335  -12.9178 O   0  0  0  0  0  0  0  0  0  0  0  0
  1  2  1  0
  2  3  1  0
  3  4  1  6
  3  5  1  0
  5 11  1  0
  5  6  2  0
  8  7  1  6
  9  8  1  0
 10  8  1  0
 10 12  1  0
 10 11  1  6
 12 13  2  0
 15 17  1  0
 15 14  1  0
 16 15  2  0
 18 17  1  0
 19 18  1  0
 19 20  1  0
 21 20  1  1
 21 23  1  0
 22 21  1  0
 22 12  1  0
 23 25  2  0
 23 24  1  0
M  END
$$$$
