SVR.pdb
     RDKit          3D

 25 24  0  0  1  0  0  0  0  0999 V2000
   17.1687  -12.5413  -18.7229 O   0  0  0  0  0  0  0  0  0  0  0  0
   17.3992  -11.9747  -17.4518 C   0  0  0  0  0  0  0  0  0  0  0  0
   18.7044  -12.5153  -16.8918 C   0  0  2  0  0  0  0  0  0  0  0  0
   18.4559  -13.8735  -16.4581 N   0  0  0  0  0  0  0  0  0  0  0  0
   19.1109  -11.6355  -15.7649 C   0  0  0  0  0  0  0  0  0  0  0  0
   18.5660  -11.8205  -14.6647 O   0  0  0  0  0  0  0  0  0  0  0  0
   22.3697   -8.3531  -13.8928 C   0  0  0  0  0  0  0  0  0  0  0  0
   21.9975   -9.4488  -14.8542 C   0  0  1  0  0  0  0  0  0  0  0  0
   22.8532  -10.6737  -14.7019 C   0  0  0  0  0  0  0  0  0  0  0  0
   20.5129   -9.7526  -14.8176 C   0  0  2  0  0  0  0  0  0  0  0  0
   20.0784  -10.6051  -15.8760 N   0  0  0  0  0  0  0  0  0  0  0  0
   19.7415   -8.4827  -14.8418 C   0  0  0  0  0  0  0  0  0  0  0  0
   19.6909   -7.7617  -15.8963 O   0  0  0  0  0  0  0  0  0  0  0  0
   14.7823   -5.5966   -8.1893 N   0  0  0  0  0  0  0  0  0  0  0  0
   15.1854   -6.7478   -8.9089 C   0  0  0  0  0  0  0  0  0  0  0  0
   14.9220   -7.9018   -8.4126 N   0  0  0  0  0  0  0  0  0  0  0  0
   15.8672   -6.6585  -10.1553 N   0  0  0  0  0  0  0  0  0  0  0  0
   15.8953   -5.4197  -10.8974 C   0  0  0  0  0  0  0  0  0  0  0  0
   16.7517   -5.4626  -12.1169 C   0  0  0  0  0  0  0  0  0  0  0  0
   17.4704   -6.7044  -12.4556 C   0  0  0  0  0  0  0  0  0  0  0  0
   18.3391   -6.7314  -13.6598 C   0  0  2  0  0  0  0  0  0  0  0  0
   19.0393   -8.0389  -13.6888 N   0  0  0  0  0  0  0  0  0  0  0  0
   19.3529   -5.6805  -13.6700 C   0  0  0  0  0  0  0  0  0  0  0  0
   19.1785   -4.4767  -14.3193 O   0  0  0  0  0  0  0  0  0  0  0  0
   20.4752   -5.8220  -13.0719 O   0  0  0  0  0  0  0  0  0  0  0  0
  1  2  1  0
  2  3  1  0
  3  4  1  1
  3  5  1  0
  5 11  1  0
  5  6  2  0
  8  7  1  1
  9  8  1  0
 10  8  1  0
 10 12  1  0
 10 11  1  6
 12 13  2  0
 15 17  1  0
 15 14  1  0
 16 15  2  0
 18 17  1  0
 19 18  1  0
 19 20  1  0
 21 20  1  1
 21 23  1  0
 22 21  1  0
 22 12  1  0
 23 25  2  0
 23 24  1  0
M  END
$$$$
