SVR.pdb
     RDKit          3D

 25 24  0  0  1  0  0  0  0  0999 V2000
   16.7736  -11.9192  -17.1471 O   0  0  0  0  0  0  0  0  0  0  0  0
   17.9243  -12.0121  -17.9575 C   0  0  0  0  0  0  0  0  0  0  0  0
   18.9801  -12.8333  -17.2360 C   0  0  2  0  0  0  0  0  0  0  0  0
   18.4040  -14.1337  -16.9683 N   0  0  0  0  0  0  0  0  0  0  0  0
   19.3358  -12.1127  -15.9857 C   0  0  0  0  0  0  0  0  0  0  0  0
   18.7092  -12.4054  -14.9545 O   0  0  0  0  0  0  0  0  0  0  0  0
   22.4481   -9.0952  -15.9750 C   0  0  0  0  0  0  0  0  0  0  0  0
   22.1777   -9.9409  -14.7605 C   0  0  1  0  0  0  0  0  0  0  0  0
   22.6096   -9.2810  -13.4824 C   0  0  0  0  0  0  0  0  0  0  0  0
   20.7439  -10.4313  -14.7213 C   0  0  2  0  0  0  0  0  0  0  0  0
   20.3427  -11.1177  -15.9061 N   0  0  0  0  0  0  0  0  0  0  0  0
   19.8306   -9.2872  -14.4655 C   0  0  0  0  0  0  0  0  0  0  0  0
   19.3944   -8.5641  -15.4253 O   0  0  0  0  0  0  0  0  0  0  0  0
   14.4996   -7.9545   -7.3223 N   0  0  0  0  0  0  0  0  0  0  0  0
   14.3334   -6.8204   -8.1542 C   0  0  0  0  0  0  0  0  0  0  0  0
   13.4962   -5.9164   -7.7945 N   0  0  0  0  0  0  0  0  0  0  0  0
   15.0638   -6.6591   -9.3653 N   0  0  0  0  0  0  0  0  0  0  0  0
   15.9802   -7.6789   -9.8193 C   0  0  0  0  0  0  0  0  0  0  0  0
   16.6987   -7.3317  -11.0786 C   0  0  0  0  0  0  0  0  0  0  0  0
   17.6837   -8.2763  -11.6360 C   0  0  0  0  0  0  0  0  0  0  0  0
   18.4181   -7.9086  -12.8733 C   0  0  2  0  0  0  0  0  0  0  0  0
   19.4192   -8.9697  -13.1429 N   0  0  0  0  0  0  0  0  0  0  0  0
   19.1297   -6.6374  -12.7719 C   0  0  0  0  0  0  0  0  0  0  0  0
   18.5696   -5.4331  -13.1418 O   0  0  0  0  0  0  0  0  0  0  0  0
   20.3292   -6.5707  -12.3315 O   0  0  0  0  0  0  0  0  0  0  0  0
  1  2  1  0
  2  3  1  0
  3  4  1  1
  3  5  1  0
  5 11  1  0
  5  6  2  0
  8  7  1  6
  9  8  1  0
 10  8  1  0
 10 12  1  0
 10 11  1  6
 12 13  2  0
 15 17  1  0
 15 14  1  0
 16 15  2  0
 18 17  1  0
 19 18  1  0
 19 20  1  0
 21 20  1  1
 21 23  1  0
 22 21  1  0
 22 12  1  0
 23 25  2  0
 23 24  1  0
M  END
$$$$
