SVR.pdb
     RDKit          3D

 25 24  0  0  1  0  0  0  0  0999 V2000
   28.1235  -24.5737  -18.3087 O   0  0  0  0  0  0  0  0  0  0  0  0
   27.6454  -23.7178  -17.2944 C   0  0  0  0  0  0  0  0  0  0  0  0
   28.7448  -22.7454  -16.9004 C   0  0  2  0  0  0  0  0  0  0  0  0
   29.7760  -23.5105  -16.2328 N   0  0  0  0  0  0  0  0  0  0  0  0
   28.1429  -21.7218  -16.0065 C   0  0  0  0  0  0  0  0  0  0  0  0
   28.2817  -21.8735  -14.7821 O   0  0  0  0  0  0  0  0  0  0  0  0
   26.3132  -17.1091  -15.5281 C   0  0  0  0  0  0  0  0  0  0  0  0
   27.0926  -18.1589  -16.2721 C   0  0  1  0  0  0  0  0  0  0  0  0
   28.5323  -17.7822  -16.4746 C   0  0  0  0  0  0  0  0  0  0  0  0
   26.9187  -19.5335  -15.6574 C   0  0  2  0  0  0  0  0  0  0  0  0
   27.4248  -20.5909  -16.4710 N   0  0  0  0  0  0  0  0  0  0  0  0
   25.4825  -19.7693  -15.3571 C   0  0  0  0  0  0  0  0  0  0  0  0
   24.6455  -20.0174  -16.2909 O   0  0  0  0  0  0  0  0  0  0  0  0
   21.3293  -22.3705   -8.2357 N   0  0  0  0  0  0  0  0  0  0  0  0
   20.3109  -21.5683   -8.8058 C   0  0  0  0  0  0  0  0  0  0  0  0
   19.0906  -21.8195   -8.4970 N   0  0  0  0  0  0  0  0  0  0  0  0
   20.6030  -20.5019   -9.7023 N   0  0  0  0  0  0  0  0  0  0  0  0
   21.9545  -20.2599  -10.1504 C   0  0  0  0  0  0  0  0  0  0  0  0
   22.1051  -20.2267  -11.6333 C   0  0  0  0  0  0  0  0  0  0  0  0
   23.4335  -19.9781  -12.2222 C   0  0  0  0  0  0  0  0  0  0  0  0
   23.5685  -19.9132  -13.6997 C   0  0  2  0  0  0  0  0  0  0  0  0
   25.0048  -19.7246  -14.0195 N   0  0  0  0  0  0  0  0  0  0  0  0
   22.8268  -18.8101  -14.3042 C   0  0  0  0  0  0  0  0  0  0  0  0
   21.5816  -18.9675  -14.8749 O   0  0  0  0  0  0  0  0  0  0  0  0
   23.2994  -17.6216  -14.3412 O   0  0  0  0  0  0  0  0  0  0  0  0
  1  2  1  0
  2  3  1  0
  3  4  1  1
  3  5  1  0
  5 11  1  0
  5  6  2  0
  8  7  1  1
  9  8  1  0
 10  8  1  0
 10 12  1  0
 10 11  1  6
 12 13  2  0
 15 17  1  0
 15 14  1  0
 16 15  2  0
 18 17  1  0
 19 18  1  0
 19 20  1  0
 21 20  1  1
 21 23  1  0
 22 21  1  0
 22 12  1  0
 23 25  2  0
 23 24  1  0
M  END
$$$$
