SVR.pdb
     RDKit          3D

 25 24  0  0  1  0  0  0  0  0999 V2000
   28.3775  -20.8764  -18.0264 O   0  0  0  0  0  0  0  0  0  0  0  0
   27.4759  -20.8850  -16.9416 C   0  0  0  0  0  0  0  0  0  0  0  0
   28.1048  -21.6265  -15.7736 C   0  0  2  0  0  0  0  0  0  0  0  0
   28.6980  -22.8362  -16.3021 N   0  0  0  0  0  0  0  0  0  0  0  0
   27.0283  -21.9165  -14.7907 C   0  0  0  0  0  0  0  0  0  0  0  0
   26.3869  -22.9700  -14.9334 O   0  0  0  0  0  0  0  0  0  0  0  0
   24.8206  -20.8234  -10.4309 C   0  0  0  0  0  0  0  0  0  0  0  0
   25.9320  -20.5848  -11.4164 C   0  0  1  0  0  0  0  0  0  0  0  0
   27.2927  -20.8382  -10.8333 C   0  0  0  0  0  0  0  0  0  0  0  0
   25.6980  -21.3202  -12.7210 C   0  0  2  0  0  0  0  0  0  0  0  0
   26.6960  -21.0635  -13.7080 N   0  0  0  0  0  0  0  0  0  0  0  0
   24.3558  -20.9740  -13.2568 C   0  0  0  0  0  0  0  0  0  0  0  0
   24.1279  -19.8276  -13.7746 O   0  0  0  0  0  0  0  0  0  0  0  0
   16.8462  -26.0815  -13.7357 N   0  0  0  0  0  0  0  0  0  0  0  0
   16.5165  -24.8065  -14.2567 C   0  0  0  0  0  0  0  0  0  0  0  0
   15.2962  -24.5761  -14.5812 N   0  0  0  0  0  0  0  0  0  0  0  0
   17.4932  -23.7851  -14.4271 N   0  0  0  0  0  0  0  0  0  0  0  0
   18.8483  -23.9709  -13.9632 C   0  0  0  0  0  0  0  0  0  0  0  0
   19.7127  -22.7660  -14.1169 C   0  0  0  0  0  0  0  0  0  0  0  0
   21.1193  -22.8215  -13.6792 C   0  0  0  0  0  0  0  0  0  0  0  0
   21.9367  -21.5821  -13.7139 C   0  0  2  0  0  0  0  0  0  0  0  0
   23.2906  -21.9132  -13.2060 N   0  0  0  0  0  0  0  0  0  0  0  0
   21.3986  -20.5066  -12.8855 C   0  0  0  0  0  0  0  0  0  0  0  0
   20.6819  -19.4485  -13.4030 O   0  0  0  0  0  0  0  0  0  0  0  0
   21.5679  -20.4847  -11.6174 O   0  0  0  0  0  0  0  0  0  0  0  0
  1  2  1  0
  2  3  1  0
  3  4  1  6
  3  5  1  0
  5 11  1  0
  5  6  2  0
  8  7  1  1
  9  8  1  0
 10  8  1  0
 10 12  1  0
 10 11  1  6
 12 13  2  0
 15 17  1  0
 15 14  1  0
 16 15  2  0
 18 17  1  0
 19 18  1  0
 19 20  1  0
 21 20  1  1
 21 23  1  0
 22 21  1  0
 22 12  1  0
 23 25  2  0
 23 24  1  0
M  END
$$$$
