SVR.pdb
     RDKit          3D

 25 24  0  0  1  0  0  0  0  0999 V2000
   23.2388  -14.5866  -20.3444 O   0  0  0  0  0  0  0  0  0  0  0  0
   23.0438  -13.7685  -19.2120 C   0  0  0  0  0  0  0  0  0  0  0  0
   24.1275  -14.0638  -18.1882 C   0  0  2  0  0  0  0  0  0  0  0  0
   23.8857  -15.3968  -17.6792 N   0  0  0  0  0  0  0  0  0  0  0  0
   24.0330  -13.0335  -17.1211 C   0  0  0  0  0  0  0  0  0  0  0  0
   23.1663  -13.1891  -16.2458 O   0  0  0  0  0  0  0  0  0  0  0  0
   27.1047  -11.3723  -15.1365 C   0  0  0  0  0  0  0  0  0  0  0  0
   26.1809  -10.3173  -15.6813 C   0  0  1  0  0  0  0  0  0  0  0  0
   26.7975   -9.5216  -16.7959 C   0  0  0  0  0  0  0  0  0  0  0  0
   24.8218  -10.8856  -16.0380 C   0  0  2  0  0  0  0  0  0  0  0  0
   24.8711  -11.8922  -17.0481 N   0  0  0  0  0  0  0  0  0  0  0  0
   23.9156   -9.7869  -16.4626 C   0  0  0  0  0  0  0  0  0  0  0  0
   23.8066   -9.4605  -17.6938 O   0  0  0  0  0  0  0  0  0  0  0  0
   17.7670  -12.9136  -15.7796 N   0  0  0  0  0  0  0  0  0  0  0  0
   17.0755  -11.6781  -15.8132 C   0  0  0  0  0  0  0  0  0  0  0  0
   15.7923  -11.6967  -15.8384 N   0  0  0  0  0  0  0  0  0  0  0  0
   17.7599  -10.4300  -15.8190 N   0  0  0  0  0  0  0  0  0  0  0  0
   19.1984  -10.3732  -15.7031 C   0  0  0  0  0  0  0  0  0  0  0  0
   19.7622   -8.9977  -15.8165 C   0  0  0  0  0  0  0  0  0  0  0  0
   21.0124   -8.7857  -16.5683 C   0  0  0  0  0  0  0  0  0  0  0  0
   22.1353   -8.0658  -15.9156 C   0  0  2  0  0  0  0  0  0  0  0  0
   23.1463   -9.0712  -15.5060 N   0  0  0  0  0  0  0  0  0  0  0  0
   21.7357   -7.3219  -14.7242 C   0  0  0  0  0  0  0  0  0  0  0  0
   22.1772   -7.6413  -13.4577 O   0  0  0  0  0  0  0  0  0  0  0  0
   20.9406   -6.3216  -14.7904 O   0  0  0  0  0  0  0  0  0  0  0  0
  1  2  1  0
  2  3  1  0
  3  4  1  1
  3  5  1  0
  5 11  1  0
  5  6  2  0
  8  7  1  6
  9  8  1  0
 10  8  1  0
 10 12  1  0
 10 11  1  6
 12 13  2  0
 15 17  1  0
 15 14  1  0
 16 15  2  0
 18 17  1  0
 19 18  1  0
 19 20  1  0
 21 20  1  1
 21 23  1  0
 22 21  1  0
 22 12  1  0
 23 25  2  0
 23 24  1  0
M  END
$$$$
