SVR.pdb
     RDKit          3D

 25 24  0  0  1  0  0  0  0  0999 V2000
   26.7745  -18.7429   -8.7036 O   0  0  0  0  0  0  0  0  0  0  0  0
   26.3188  -19.6580   -9.6756 C   0  0  0  0  0  0  0  0  0  0  0  0
   24.8500  -19.9604   -9.4289 C   0  0  2  0  0  0  0  0  0  0  0  0
   24.7609  -20.6513   -8.1604 N   0  0  0  0  0  0  0  0  0  0  0  0
   24.3665  -20.7997  -10.5563 C   0  0  0  0  0  0  0  0  0  0  0  0
   24.6299  -22.0126  -10.5252 O   0  0  0  0  0  0  0  0  0  0  0  0
   20.7737  -21.2811  -11.5990 C   0  0  0  0  0  0  0  0  0  0  0  0
   21.5300  -20.8449  -12.8241 C   0  0  1  0  0  0  0  0  0  0  0  0
   21.1932  -19.4444  -13.2494 C   0  0  0  0  0  0  0  0  0  0  0  0
   23.0206  -21.0806  -12.6819 C   0  0  2  0  0  0  0  0  0  0  0  0
   23.6274  -20.2958  -11.6564 N   0  0  0  0  0  0  0  0  0  0  0  0
   23.6942  -20.8231  -13.9813 C   0  0  0  0  0  0  0  0  0  0  0  0
   24.0001  -19.6353  -14.3417 O   0  0  0  0  0  0  0  0  0  0  0  0
   27.2285  -26.7569  -16.2969 N   0  0  0  0  0  0  0  0  0  0  0  0
   27.1220  -25.9930  -17.4846 C   0  0  0  0  0  0  0  0  0  0  0  0
   26.6379  -26.5559  -18.5317 N   0  0  0  0  0  0  0  0  0  0  0  0
   27.5331  -24.6315  -17.5459 N   0  0  0  0  0  0  0  0  0  0  0  0
   27.9159  -23.9186  -16.3495 C   0  0  0  0  0  0  0  0  0  0  0  0
   27.0115  -22.7852  -16.0032 C   0  0  0  0  0  0  0  0  0  0  0  0
   25.5927  -22.8420  -16.3991 C   0  0  0  0  0  0  0  0  0  0  0  0
   24.7223  -21.6669  -16.1405 C   0  0  2  0  0  0  0  0  0  0  0  0
   24.0154  -21.8956  -14.8565 N   0  0  0  0  0  0  0  0  0  0  0  0
   23.7138  -21.4506  -17.1742 C   0  0  0  0  0  0  0  0  0  0  0  0
   23.9518  -20.7056  -18.3097 O   0  0  0  0  0  0  0  0  0  0  0  0
   22.5370  -21.9442  -17.0803 O   0  0  0  0  0  0  0  0  0  0  0  0
  1  2  1  0
  2  3  1  0
  3  4  1  1
  3  5  1  0
  5 11  1  0
  5  6  2  0
  8  7  1  1
  9  8  1  0
 10  8  1  0
 10 12  1  0
 10 11  1  1
 12 13  2  0
 15 17  1  0
 15 14  1  0
 16 15  2  0
 18 17  1  0
 19 18  1  0
 19 20  1  0
 21 20  1  6
 21 23  1  0
 22 21  1  0
 22 12  1  0
 23 25  2  0
 23 24  1  0
M  END
$$$$
