SVR.pdb
     RDKit          3D

 25 24  0  0  1  0  0  0  0  0999 V2000
   21.9826  -21.9681   -9.9847 O   0  0  0  0  0  0  0  0  0  0  0  0
   22.9145  -20.9211  -10.1429 C   0  0  0  0  0  0  0  0  0  0  0  0
   24.3074  -21.4379   -9.8228 C   0  0  2  0  0  0  0  0  0  0  0  0
   24.4596  -21.3994   -8.3841 N   0  0  0  0  0  0  0  0  0  0  0  0
   25.2854  -20.5553  -10.5110 C   0  0  0  0  0  0  0  0  0  0  0  0
   25.5271  -19.4519   -9.9957 O   0  0  0  0  0  0  0  0  0  0  0  0
   28.9760  -21.2276  -11.7789 C   0  0  0  0  0  0  0  0  0  0  0  0
   28.0966  -20.7931  -12.9196 C   0  0  1  0  0  0  0  0  0  0  0  0
   27.7870  -21.9095  -13.8753 C   0  0  0  0  0  0  0  0  0  0  0  0
   26.8584  -20.0663  -12.4334 C   0  0  2  0  0  0  0  0  0  0  0  0
   25.9522  -20.9010  -11.7136 N   0  0  0  0  0  0  0  0  0  0  0  0
   26.1613  -19.4389  -13.5862 C   0  0  0  0  0  0  0  0  0  0  0  0
   25.2596  -20.0712  -14.2353 O   0  0  0  0  0  0  0  0  0  0  0  0
   22.1254  -14.2949  -16.5944 N   0  0  0  0  0  0  0  0  0  0  0  0
   22.2945  -13.7041  -15.3185 C   0  0  0  0  0  0  0  0  0  0  0  0
   21.2474  -13.4295  -14.6287 N   0  0  0  0  0  0  0  0  0  0  0  0
   23.5821  -13.4108  -14.7871 N   0  0  0  0  0  0  0  0  0  0  0  0
   24.7797  -13.7266  -15.5299 C   0  0  0  0  0  0  0  0  0  0  0  0
   24.9442  -15.1783  -15.8269 C   0  0  0  0  0  0  0  0  0  0  0  0
   25.5433  -16.0633  -14.8115 C   0  0  0  0  0  0  0  0  0  0  0  0
   25.8203  -17.4800  -15.1601 C   0  0  2  0  0  0  0  0  0  0  0  0
   26.4823  -18.1163  -13.9950 N   0  0  0  0  0  0  0  0  0  0  0  0
   26.7013  -17.6339  -16.3145 C   0  0  0  0  0  0  0  0  0  0  0  0
   26.2309  -17.7928  -17.6008 O   0  0  0  0  0  0  0  0  0  0  0  0
   27.9751  -17.6333  -16.1939 O   0  0  0  0  0  0  0  0  0  0  0  0
  1  2  1  0
  2  3  1  0
  3  4  1  1
  3  5  1  0
  5 11  1  0
  5  6  2  0
  8  7  1  1
  9  8  1  0
 10  8  1  0
 10 12  1  0
 10 11  1  6
 12 13  2  0
 15 17  1  0
 15 14  1  0
 16 15  2  0
 18 17  1  0
 19 18  1  0
 19 20  1  0
 21 20  1  1
 21 23  1  0
 22 21  1  0
 22 12  1  0
 23 25  2  0
 23 24  1  0
M  END
$$$$
