SVR.pdb
     RDKit          3D

 25 24  0  0  1  0  0  0  0  0999 V2000
   26.3789  -21.4083  -14.6307 O   0  0  0  0  0  0  0  0  0  0  0  0
   25.2369  -21.3242  -13.8069 C   0  0  0  0  0  0  0  0  0  0  0  0
   24.0201  -21.0253  -14.6668 C   0  0  2  0  0  0  0  0  0  0  0  0
   24.1927  -19.6940  -15.2074 N   0  0  0  0  0  0  0  0  0  0  0  0
   22.8183  -21.1231  -13.7978 C   0  0  0  0  0  0  0  0  0  0  0  0
   22.6277  -20.2134  -12.9746 O   0  0  0  0  0  0  0  0  0  0  0  0
   18.1573  -21.6424  -14.0654 C   0  0  0  0  0  0  0  0  0  0  0  0
   19.6073  -21.4328  -14.4074 C   0  0  1  0  0  0  0  0  0  0  0  0
   19.9548  -19.9862  -14.6126 C   0  0  0  0  0  0  0  0  0  0  0  0
   20.5263  -22.1314  -13.4250 C   0  0  2  0  0  0  0  0  0  0  0  0
   21.8851  -22.1890  -13.8564 N   0  0  0  0  0  0  0  0  0  0  0  0
   20.0221  -23.5033  -13.1567 C   0  0  0  0  0  0  0  0  0  0  0  0
   19.9710  -24.3806  -14.0853 O   0  0  0  0  0  0  0  0  0  0  0  0
   18.3922  -26.5396   -5.1210 N   0  0  0  0  0  0  0  0  0  0  0  0
   18.0684  -25.4320   -5.9419 C   0  0  0  0  0  0  0  0  0  0  0  0
   17.6529  -24.3556   -5.3797 N   0  0  0  0  0  0  0  0  0  0  0  0
   18.1914  -25.4815   -7.3592 N   0  0  0  0  0  0  0  0  0  0  0  0
   18.2190  -26.7458   -8.0569 C   0  0  0  0  0  0  0  0  0  0  0  0
   18.4014  -26.6212   -9.5313 C   0  0  0  0  0  0  0  0  0  0  0  0
   18.9388  -25.3684  -10.0925 C   0  0  0  0  0  0  0  0  0  0  0  0
   19.0765  -25.2365  -11.5653 C   0  0  2  0  0  0  0  0  0  0  0  0
   19.5837  -23.8732  -11.8566 N   0  0  0  0  0  0  0  0  0  0  0  0
   17.8179  -25.4091  -12.2854 C   0  0  0  0  0  0  0  0  0  0  0  0
   17.4026  -26.6235  -12.7890 O   0  0  0  0  0  0  0  0  0  0  0  0
   17.0222  -24.4291  -12.4945 O   0  0  0  0  0  0  0  0  0  0  0  0
  1  2  1  0
  2  3  1  0
  3  4  1  1
  3  5  1  0
  5 11  1  0
  5  6  2  0
  8  7  1  1
  9  8  1  0
 10  8  1  0
 10 12  1  0
 10 11  1  6
 12 13  2  0
 15 17  1  0
 15 14  1  0
 16 15  2  0
 18 17  1  0
 19 18  1  0
 19 20  1  0
 21 20  1  1
 21 23  1  0
 22 21  1  0
 22 12  1  0
 23 25  2  0
 23 24  1  0
M  END
$$$$
