SVR.pdb
     RDKit          3D

 25 24  0  0  1  0  0  0  0  0999 V2000
   48.2477   -9.6031   -3.6635 O   0  0  0  0  0  0  0  0  0  0  0  0
   46.9501   -9.2829   -4.1144 C   0  0  0  0  0  0  0  0  0  0  0  0
   46.4564   -8.0461   -3.3821 C   0  0  2  0  0  0  0  0  0  0  0  0
   46.2346   -8.4237   -2.0027 N   0  0  0  0  0  0  0  0  0  0  0  0
   45.2045   -7.5981   -4.0461 C   0  0  0  0  0  0  0  0  0  0  0  0
   44.1929   -8.3038   -3.9034 O   0  0  0  0  0  0  0  0  0  0  0  0
   43.3829   -4.0539   -3.9419 C   0  0  0  0  0  0  0  0  0  0  0  0
   43.7115   -4.4565   -5.3538 C   0  0  1  0  0  0  0  0  0  0  0  0
   44.8336   -3.6511   -5.9436 C   0  0  0  0  0  0  0  0  0  0  0  0
   43.9229   -5.9521   -5.4803 C   0  0  2  0  0  0  0  0  0  0  0  0
   45.1023   -6.4192   -4.8272 N   0  0  0  0  0  0  0  0  0  0  0  0
   43.9552   -6.3332   -6.9163 C   0  0  0  0  0  0  0  0  0  0  0  0
   45.0542   -6.3525   -7.5691 O   0  0  0  0  0  0  0  0  0  0  0  0
   42.9044  -13.4363  -11.2940 N   0  0  0  0  0  0  0  0  0  0  0  0
   42.8899  -12.4506  -12.3108 C   0  0  0  0  0  0  0  0  0  0  0  0
   42.9511  -12.8340  -13.5343 N   0  0  0  0  0  0  0  0  0  0  0  0
   42.8094  -11.0608  -12.0138 N   0  0  0  0  0  0  0  0  0  0  0  0
   42.8061  -10.5943  -10.6469 C   0  0  0  0  0  0  0  0  0  0  0  0
   42.8092   -9.1095  -10.5127 C   0  0  0  0  0  0  0  0  0  0  0  0
   42.8105   -8.5024   -9.1693 C   0  0  0  0  0  0  0  0  0  0  0  0
   42.7610   -7.0235   -9.0443 C   0  0  2  0  0  0  0  0  0  0  0  0
   42.7604   -6.6867   -7.5996 N   0  0  0  0  0  0  0  0  0  0  0  0
   41.5695   -6.4282   -9.6430 C   0  0  0  0  0  0  0  0  0  0  0  0
   41.3962   -6.3059  -11.0054 O   0  0  0  0  0  0  0  0  0  0  0  0
   40.6095   -5.9781   -8.9268 O   0  0  0  0  0  0  0  0  0  0  0  0
  1  2  1  0
  2  3  1  0
  3  4  1  1
  3  5  1  0
  5 11  1  0
  5  6  2  0
  8  7  1  1
  9  8  1  0
 10  8  1  0
 10 12  1  0
 10 11  1  6
 12 13  2  0
 15 17  1  0
 15 14  1  0
 16 15  2  0
 18 17  1  0
 19 18  1  0
 19 20  1  0
 21 20  1  1
 21 23  1  0
 22 21  1  0
 22 12  1  0
 23 25  2  0
 23 24  1  0
M  END
$$$$
