QGM.pdb
     RDKit          3D

 22 21  0  0  1  0  0  0  0  0999 V2000
   26.7726  -21.8585  -18.6661 N   0  0  0  0  0  0  0  0  0  0  0  0
   25.9490  -20.7734  -19.0959 C   0  0  0  0  0  0  0  0  0  0  0  0
   25.3599  -20.8803  -20.1996 O   0  0  0  0  0  0  0  0  0  0  0  0
   25.7772  -19.5644  -18.2932 C   0  0  0  0  0  0  0  0  0  0  0  0
   26.6160  -19.6340  -17.0507 C   0  0  0  0  0  0  0  0  0  0  0  0
   25.9323  -20.5213  -16.0451 C   0  0  2  0  0  0  0  0  0  0  0  0
   24.6009  -19.9676  -15.8371 N   0  0  0  0  0  0  0  0  0  0  0  0
   26.7292  -20.4493  -14.7753 C   0  0  0  0  0  0  0  0  0  0  0  0
   27.8599  -20.9895  -14.7110 O   0  0  0  0  0  0  0  0  0  0  0  0
   26.2312  -19.7815  -13.6413 N   0  0  0  0  0  0  0  0  0  0  0  0
   27.0380  -19.7005  -12.4395 C   0  0  0  0  0  0  0  0  0  0  0  0
   26.4893  -20.6494  -11.4477 C   0  0  0  0  0  0  0  0  0  0  0  0
   25.3630  -21.2138  -11.5644 O   0  0  0  0  0  0  0  0  0  0  0  0
   27.8694  -19.6926   -3.7794 C   0  0  0  0  0  0  0  0  0  0  0  0
   28.2871  -19.4881   -5.5210 S   0  0  0  0  0  0  0  0  0  0  0  0
   27.1089  -20.3404   -6.6091 C   0  0  0  0  0  0  0  0  0  0  0  0
   27.6526  -20.3344   -8.0222 C   0  0  0  0  0  0  0  0  0  0  0  0
   26.7415  -21.0654   -8.9698 C   0  0  2  0  0  0  0  0  0  0  0  0
   27.2739  -20.9403  -10.3014 N   0  0  0  0  0  0  0  0  0  0  0  0
   25.3733  -20.5315   -8.9780 C   0  0  0  0  0  0  0  0  0  0  0  0
   24.4230  -21.2786   -8.6399 O   0  0  0  0  0  0  0  0  0  0  0  0
   25.0693  -19.2305   -9.3435 O   0  0  0  0  0  0  0  0  0  0  0  0
  1  2  1  0
  2  3  2  0
  4  2  1  0
  4  5  1  0
  6  5  1  0
  6  8  1  0
  6  7  1  1
  8  9  2  0
 10  8  1  0
 10 11  1  0
 11 12  1  0
 12 19  1  0
 13 12  2  0
 15 14  1  0
 15 16  1  0
 17 16  1  0
 18 20  1  0
 18 17  1  1
 19 18  1  0
 20 22  1  0
 21 20  2  0
M  END
$$$$
