QGM.pdb
     RDKit          3D

 22 21  0  0  1  0  0  0  0  0999 V2000
   17.4767  -16.0042  -17.1061 N   0  0  0  0  0  0  0  0  0  0  0  0
   17.6997  -14.7672  -17.7848 C   0  0  0  0  0  0  0  0  0  0  0  0
   18.4380  -14.7756  -18.8003 O   0  0  0  0  0  0  0  0  0  0  0  0
   17.0963  -13.5150  -17.3337 C   0  0  0  0  0  0  0  0  0  0  0  0
   17.8924  -12.9227  -16.2078 C   0  0  0  0  0  0  0  0  0  0  0  0
   17.6561  -11.4366  -16.1674 C   0  0  2  0  0  0  0  0  0  0  0  0
   17.8424  -10.9473  -17.5269 N   0  0  0  0  0  0  0  0  0  0  0  0
   18.6929  -10.8470  -15.2562 C   0  0  0  0  0  0  0  0  0  0  0  0
   18.8036  -11.2624  -14.0774 O   0  0  0  0  0  0  0  0  0  0  0  0
   19.5544   -9.8264  -15.6993 N   0  0  0  0  0  0  0  0  0  0  0  0
   20.5625   -9.2940  -14.8037 C   0  0  0  0  0  0  0  0  0  0  0  0
   21.2405   -8.1704  -15.4841 C   0  0  0  0  0  0  0  0  0  0  0  0
   21.4793   -8.1430  -16.7263 O   0  0  0  0  0  0  0  0  0  0  0  0
   20.2704   -1.4984  -18.1186 C   0  0  0  0  0  0  0  0  0  0  0  0
   19.8906   -3.0937  -17.3698 S   0  0  0  0  0  0  0  0  0  0  0  0
   21.3289   -3.8082  -16.5217 C   0  0  0  0  0  0  0  0  0  0  0  0
   20.9510   -5.1686  -15.9750 C   0  0  0  0  0  0  0  0  0  0  0  0
   22.0957   -5.8073  -15.2375 C   0  0  2  0  0  0  0  0  0  0  0  0
   21.6448   -7.0622  -14.6951 N   0  0  0  0  0  0  0  0  0  0  0  0
   22.5921   -4.9863  -14.1254 C   0  0  0  0  0  0  0  0  0  0  0  0
   22.2403   -5.2666  -12.9536 O   0  0  0  0  0  0  0  0  0  0  0  0
   23.4389   -3.9042  -14.3008 O   0  0  0  0  0  0  0  0  0  0  0  0
  1  2  1  0
  2  3  2  0
  4  2  1  0
  4  5  1  0
  6  5  1  0
  6  8  1  0
  6  7  1  6
  8  9  2  0
 10  8  1  0
 10 11  1  0
 11 12  1  0
 12 19  1  0
 13 12  2  0
 15 14  1  0
 15 16  1  0
 17 16  1  0
 18 20  1  0
 18 17  1  1
 19 18  1  0
 20 22  1  0
 21 20  2  0
M  END
$$$$
