QGM.pdb
     RDKit          3D

 22 21  0  0  1  0  0  0  0  0999 V2000
   20.0007  -19.9552  -13.8233 N   0  0  0  0  0  0  0  0  0  0  0  0
   20.9833  -20.0646  -14.8543 C   0  0  0  0  0  0  0  0  0  0  0  0
   20.6628  -19.7107  -16.0156 O   0  0  0  0  0  0  0  0  0  0  0  0
   22.3302  -20.5674  -14.5922 C   0  0  0  0  0  0  0  0  0  0  0  0
   22.4943  -20.8995  -13.1379 C   0  0  0  0  0  0  0  0  0  0  0  0
   23.6109  -20.0672  -12.5666 C   0  0  2  0  0  0  0  0  0  0  0  0
   24.8361  -20.5074  -13.2204 N   0  0  0  0  0  0  0  0  0  0  0  0
   23.6734  -20.3583  -11.0955 C   0  0  0  0  0  0  0  0  0  0  0  0
   22.7530  -19.9676  -10.3374 O   0  0  0  0  0  0  0  0  0  0  0  0
   24.7540  -21.0681  -10.5401 N   0  0  0  0  0  0  0  0  0  0  0  0
   24.9232  -21.1145   -9.1010 C   0  0  0  0  0  0  0  0  0  0  0  0
   26.1007  -20.2945   -8.7457 C   0  0  0  0  0  0  0  0  0  0  0  0
   26.6302  -19.4512   -9.5261 O   0  0  0  0  0  0  0  0  0  0  0  0
   27.8787  -18.5475   -2.4296 C   0  0  0  0  0  0  0  0  0  0  0  0
   29.2309  -19.4898   -3.1599 S   0  0  0  0  0  0  0  0  0  0  0  0
   29.2450  -19.3691   -4.9719 C   0  0  0  0  0  0  0  0  0  0  0  0
   27.9723  -19.9836   -5.5151 C   0  0  0  0  0  0  0  0  0  0  0  0
   27.8649  -19.8099   -7.0053 C   0  0  2  0  0  0  0  0  0  0  0  0
   26.6656  -20.4668   -7.4553 N   0  0  0  0  0  0  0  0  0  0  0  0
   28.9996  -20.3909   -7.7347 C   0  0  0  0  0  0  0  0  0  0  0  0
   29.9863  -19.6655   -8.0093 O   0  0  0  0  0  0  0  0  0  0  0  0
   29.0414  -21.7141   -8.1421 O   0  0  0  0  0  0  0  0  0  0  0  0
  1  2  1  0
  2  3  2  0
  4  2  1  0
  4  5  1  0
  6  5  1  0
  6  8  1  0
  6  7  1  6
  8  9  2  0
 10  8  1  0
 10 11  1  0
 11 12  1  0
 12 19  1  0
 13 12  2  0
 15 14  1  0
 15 16  1  0
 17 16  1  0
 18 20  1  0
 18 17  1  1
 19 18  1  0
 20 22  1  0
 21 20  2  0
M  END
$$$$
