QGM.pdb
     RDKit          3D

 22 21  0  0  1  0  0  0  0  0999 V2000
   15.8855  -23.8495  -15.4079 N   0  0  0  0  0  0  0  0  0  0  0  0
   15.9898  -22.5858  -14.7501 C   0  0  0  0  0  0  0  0  0  0  0  0
   14.9471  -22.0883  -14.2583 O   0  0  0  0  0  0  0  0  0  0  0  0
   17.2603  -21.8730  -14.6360 C   0  0  0  0  0  0  0  0  0  0  0  0
   18.3527  -22.6292  -15.3339 C   0  0  0  0  0  0  0  0  0  0  0  0
   19.4835  -22.8626  -14.3681 C   0  0  2  0  0  0  0  0  0  0  0  0
   19.2369  -21.9998  -13.2205 N   0  0  0  0  0  0  0  0  0  0  0  0
   20.7507  -22.4553  -15.0617 C   0  0  0  0  0  0  0  0  0  0  0  0
   20.9524  -22.7939  -16.2530 O   0  0  0  0  0  0  0  0  0  0  0  0
   21.7298  -21.6929  -14.3983 N   0  0  0  0  0  0  0  0  0  0  0  0
   22.8433  -21.1416  -15.1453 C   0  0  0  0  0  0  0  0  0  0  0  0
   23.7147  -20.4068  -14.2041 C   0  0  0  0  0  0  0  0  0  0  0  0
   23.3195  -19.4397  -13.4906 O   0  0  0  0  0  0  0  0  0  0  0  0
   26.2651  -19.9257   -7.5976 C   0  0  0  0  0  0  0  0  0  0  0  0
   25.4141  -20.6411   -9.0166 S   0  0  0  0  0  0  0  0  0  0  0  0
   26.2069  -20.1878  -10.5865 C   0  0  0  0  0  0  0  0  0  0  0  0
   25.3701  -20.7193  -11.7308 C   0  0  0  0  0  0  0  0  0  0  0  0
   25.9681  -20.3671  -13.0653 C   0  0  2  0  0  0  0  0  0  0  0  0
   25.0705  -20.8127  -14.0987 N   0  0  0  0  0  0  0  0  0  0  0  0
   27.2729  -21.0009  -13.2954 C   0  0  0  0  0  0  0  0  0  0  0  0
   27.3136  -22.1950  -13.6801 O   0  0  0  0  0  0  0  0  0  0  0  0
   28.4782  -20.3444  -13.1085 O   0  0  0  0  0  0  0  0  0  0  0  0
  1  2  1  0
  2  3  2  0
  4  2  1  0
  4  5  1  0
  6  5  1  0
  6  8  1  0
  6  7  1  1
  8  9  2  0
 10  8  1  0
 10 11  1  0
 11 12  1  0
 12 19  1  0
 13 12  2  0
 15 14  1  0
 15 16  1  0
 17 16  1  0
 18 20  1  0
 18 17  1  1
 19 18  1  0
 20 22  1  0
 21 20  2  0
M  END
$$$$
