QGM.pdb
     RDKit          3D

 22 21  0  0  1  0  0  0  0  0999 V2000
   18.4384  -18.0082  -17.1715 N   0  0  0  0  0  0  0  0  0  0  0  0
   17.5557  -16.9432  -16.8147 C   0  0  0  0  0  0  0  0  0  0  0  0
   16.3221  -17.1239  -16.9634 O   0  0  0  0  0  0  0  0  0  0  0  0
   18.0469  -15.6721  -16.2870 C   0  0  0  0  0  0  0  0  0  0  0  0
   19.5468  -15.6668  -16.2385 C   0  0  0  0  0  0  0  0  0  0  0  0
   20.0759  -14.9740  -17.4657 C   0  0  2  0  0  0  0  0  0  0  0  0
   20.8904  -15.9501  -18.1773 N   0  0  0  0  0  0  0  0  0  0  0  0
   20.9269  -13.8298  -16.9973 C   0  0  0  0  0  0  0  0  0  0  0  0
   20.9863  -13.5492  -15.7757 O   0  0  0  0  0  0  0  0  0  0  0  0
   21.6688  -13.0551  -17.9079 N   0  0  0  0  0  0  0  0  0  0  0  0
   22.5168  -11.9847  -17.4211 C   0  0  0  0  0  0  0  0  0  0  0  0
   21.6739  -10.7914  -17.1957 C   0  0  0  0  0  0  0  0  0  0  0  0
   20.5021  -10.6627  -17.6548 O   0  0  0  0  0  0  0  0  0  0  0  0
   22.2222   -3.7558  -13.4657 C   0  0  0  0  0  0  0  0  0  0  0  0
   22.7576   -5.4599  -13.7084 S   0  0  0  0  0  0  0  0  0  0  0  0
   21.8060   -6.2943  -15.0110 C   0  0  0  0  0  0  0  0  0  0  0  0
   22.2796   -7.7281  -15.1233 C   0  0  0  0  0  0  0  0  0  0  0  0
   21.5649   -8.4634  -16.2237 C   0  0  2  0  0  0  0  0  0  0  0  0
   22.2144   -9.7330  -16.4200 N   0  0  0  0  0  0  0  0  0  0  0  0
   21.5847   -7.7427  -17.5033 C   0  0  0  0  0  0  0  0  0  0  0  0
   20.6613   -6.9336  -17.7641 O   0  0  0  0  0  0  0  0  0  0  0  0
   22.5803   -7.9092  -18.4519 O   0  0  0  0  0  0  0  0  0  0  0  0
  1  2  1  0
  2  3  2  0
  4  2  1  0
  4  5  1  0
  6  5  1  0
  6  8  1  0
  6  7  1  1
  8  9  2  0
 10  8  1  0
 10 11  1  0
 11 12  1  0
 12 19  1  0
 13 12  2  0
 15 14  1  0
 15 16  1  0
 17 16  1  0
 18 20  1  0
 18 17  1  1
 19 18  1  0
 20 22  1  0
 21 20  2  0
M  END
$$$$
