QGM.pdb
     RDKit          3D

 22 21  0  0  1  0  0  0  0  0999 V2000
   12.0790  -22.1417    0.1465 N   0  0  0  0  0  0  0  0  0  0  0  0
   13.1041  -23.0844    0.4643 C   0  0  0  0  0  0  0  0  0  0  0  0
   12.8415  -24.3061    0.3416 O   0  0  0  0  0  0  0  0  0  0  0  0
   14.4289  -22.6665    0.9181 C   0  0  0  0  0  0  0  0  0  0  0  0
   14.4884  -21.1742    1.0652 C   0  0  0  0  0  0  0  0  0  0  0  0
   13.9996  -20.7957    2.4377 C   0  0  2  0  0  0  0  0  0  0  0  0
   13.9186  -19.3414    2.4654 N   0  0  0  0  0  0  0  0  0  0  0  0
   15.0245  -21.2779    3.4224 C   0  0  0  0  0  0  0  0  0  0  0  0
   16.0920  -20.6382    3.5832 O   0  0  0  0  0  0  0  0  0  0  0  0
   14.8131  -22.4454    4.1789 N   0  0  0  0  0  0  0  0  0  0  0  0
   15.7989  -22.8589    5.1581 C   0  0  0  0  0  0  0  0  0  0  0  0
   16.5697  -23.9865    4.5927 C   0  0  0  0  0  0  0  0  0  0  0  0
   16.2035  -24.6488    3.5788 O   0  0  0  0  0  0  0  0  0  0  0  0
   22.9423  -25.5096    1.1484 C   0  0  0  0  0  0  0  0  0  0  0  0
   21.7380  -24.4795    2.0075 S   0  0  0  0  0  0  0  0  0  0  0  0
   20.6396  -25.4587    3.0719 C   0  0  0  0  0  0  0  0  0  0  0  0
   19.6733  -24.5259    3.7710 C   0  0  0  0  0  0  0  0  0  0  0  0
   18.7392  -25.2756    4.6809 C   0  0  2  0  0  0  0  0  0  0  0  0
   17.7885  -24.3426    5.2267 N   0  0  0  0  0  0  0  0  0  0  0  0
   19.4290  -25.9263    5.8025 C   0  0  0  0  0  0  0  0  0  0  0  0
   19.6741  -25.2616    6.8386 O   0  0  0  0  0  0  0  0  0  0  0  0
   19.8299  -27.2520    5.7795 O   0  0  0  0  0  0  0  0  0  0  0  0
  1  2  1  0
  2  3  2  0
  4  2  1  0
  4  5  1  0
  6  5  1  0
  6  8  1  0
  6  7  1  6
  8  9  2  0
 10  8  1  0
 10 11  1  0
 11 12  1  0
 12 19  1  0
 13 12  2  0
 15 14  1  0
 15 16  1  0
 17 16  1  0
 18 20  1  0
 18 17  1  6
 19 18  1  0
 20 22  1  0
 21 20  2  0
M  END
$$$$
