QGM.pdb
     RDKit          3D

 22 21  0  0  1  0  0  0  0  0999 V2000
   27.9027  -15.2966  -15.5619 N   0  0  0  0  0  0  0  0  0  0  0  0
   27.9714  -16.3349  -16.5406 C   0  0  0  0  0  0  0  0  0  0  0  0
   28.6855  -16.1434  -17.5555 O   0  0  0  0  0  0  0  0  0  0  0  0
   27.2448  -17.5936  -16.3887 C   0  0  0  0  0  0  0  0  0  0  0  0
   26.5458  -17.6410  -15.0615 C   0  0  0  0  0  0  0  0  0  0  0  0
   27.0848  -18.7978  -14.2632 C   0  0  2  0  0  0  0  0  0  0  0  0
   26.7165  -20.0094  -14.9834 N   0  0  0  0  0  0  0  0  0  0  0  0
   26.4102  -18.7646  -12.9228 C   0  0  0  0  0  0  0  0  0  0  0  0
   26.6205  -17.8097  -12.1364 O   0  0  0  0  0  0  0  0  0  0  0  0
   25.5364  -19.7925  -12.5231 N   0  0  0  0  0  0  0  0  0  0  0  0
   24.8410  -19.6956  -11.2546 C   0  0  0  0  0  0  0  0  0  0  0  0
   25.5017  -20.6032  -10.2930 C   0  0  0  0  0  0  0  0  0  0  0  0
   25.5511  -21.8596  -10.4335 O   0  0  0  0  0  0  0  0  0  0  0  0
   29.6590  -18.5101   -5.6534 C   0  0  0  0  0  0  0  0  0  0  0  0
   28.4478  -19.4022   -4.6601 S   0  0  0  0  0  0  0  0  0  0  0  0
   27.4151  -20.5026   -5.6706 C   0  0  0  0  0  0  0  0  0  0  0  0
   27.1811  -19.8552   -7.0191 C   0  0  0  0  0  0  0  0  0  0  0  0
   26.3841  -20.7468   -7.9314 C   0  0  2  0  0  0  0  0  0  0  0  0
   26.1136  -20.0280   -9.1489 N   0  0  0  0  0  0  0  0  0  0  0  0
   25.0978  -21.1574   -7.3534 C   0  0  0  0  0  0  0  0  0  0  0  0
   24.0533  -20.5487   -7.6909 O   0  0  0  0  0  0  0  0  0  0  0  0
   24.9720  -22.1940   -6.4433 O   0  0  0  0  0  0  0  0  0  0  0  0
  1  2  1  0
  2  3  2  0
  4  2  1  0
  4  5  1  0
  6  5  1  0
  6  8  1  0
  6  7  1  6
  8  9  2  0
 10  8  1  0
 10 11  1  0
 11 12  1  0
 12 19  1  0
 13 12  2  0
 15 14  1  0
 15 16  1  0
 17 16  1  0
 18 20  1  0
 18 17  1  1
 19 18  1  0
 20 22  1  0
 21 20  2  0
M  END
$$$$
