QGM.pdb
     RDKit          3D

 22 21  0  0  1  0  0  0  0  0999 V2000
   14.9939   -6.1364   -7.3928 N   0  0  0  0  0  0  0  0  0  0  0  0
   14.3350   -7.2546   -7.9893 C   0  0  0  0  0  0  0  0  0  0  0  0
   13.2002   -7.5718   -7.5554 O   0  0  0  0  0  0  0  0  0  0  0  0
   14.9396   -8.0224   -9.0759 C   0  0  0  0  0  0  0  0  0  0  0  0
   16.3098   -7.4980   -9.3918 C   0  0  0  0  0  0  0  0  0  0  0  0
   16.5483   -7.6076  -10.8741 C   0  0  2  0  0  0  0  0  0  0  0  0
   15.5213   -8.4987  -11.3972 N   0  0  0  0  0  0  0  0  0  0  0  0
   17.9079   -8.2153  -11.0611 C   0  0  0  0  0  0  0  0  0  0  0  0
   18.0318   -9.3021  -11.6759 O   0  0  0  0  0  0  0  0  0  0  0  0
   19.0610   -7.5864  -10.5564 N   0  0  0  0  0  0  0  0  0  0  0  0
   20.3533   -8.2280  -10.6983 C   0  0  0  0  0  0  0  0  0  0  0  0
   21.1109   -7.5174  -11.7500 C   0  0  0  0  0  0  0  0  0  0  0  0
   22.3313   -7.7337  -12.0038 O   0  0  0  0  0  0  0  0  0  0  0  0
   20.1249   -4.9662  -18.9966 C   0  0  0  0  0  0  0  0  0  0  0  0
   19.6250   -5.8412  -17.5019 S   0  0  0  0  0  0  0  0  0  0  0  0
   20.6116   -5.3458  -16.0599 C   0  0  0  0  0  0  0  0  0  0  0  0
   20.1349   -6.1200  -14.8492 C   0  0  0  0  0  0  0  0  0  0  0  0
   20.9970   -5.8532  -13.6458 C   0  0  2  0  0  0  0  0  0  0  0  0
   20.4262   -6.5379  -12.5155 N   0  0  0  0  0  0  0  0  0  0  0  0
   21.0897   -4.4263  -13.3105 C   0  0  0  0  0  0  0  0  0  0  0  0
   20.1955   -3.9055  -12.6001 O   0  0  0  0  0  0  0  0  0  0  0  0
   22.1241   -3.6119  -13.7411 O   0  0  0  0  0  0  0  0  0  0  0  0
  1  2  1  0
  2  3  2  0
  4  2  1  0
  4  5  1  0
  6  5  1  0
  6  8  1  0
  6  7  1  1
  8  9  2  0
 10  8  1  0
 10 11  1  0
 11 12  1  0
 12 19  1  0
 13 12  2  0
 15 14  1  0
 15 16  1  0
 17 16  1  0
 18 20  1  0
 18 17  1  6
 19 18  1  0
 20 22  1  0
 21 20  2  0
M  END
$$$$
