QGM.pdb
     RDKit          3D

 22 21  0  0  1  0  0  0  0  0999 V2000
   18.4721  -22.5661   -9.5483 N   0  0  0  0  0  0  0  0  0  0  0  0
   17.5191  -22.9291  -10.5485 C   0  0  0  0  0  0  0  0  0  0  0  0
   16.4650  -22.2521  -10.6333 O   0  0  0  0  0  0  0  0  0  0  0  0
   17.7404  -24.0488  -11.4611 C   0  0  0  0  0  0  0  0  0  0  0  0
   19.1065  -24.6345  -11.2541 C   0  0  0  0  0  0  0  0  0  0  0  0
   18.9835  -25.8915  -10.4351 C   0  0  2  0  0  0  0  0  0  0  0  0
   17.6261  -26.3841  -10.6282 N   0  0  0  0  0  0  0  0  0  0  0  0
   19.1982  -25.5089   -8.9998 C   0  0  0  0  0  0  0  0  0  0  0  0
   20.2521  -24.9205   -8.6567 O   0  0  0  0  0  0  0  0  0  0  0  0
   18.2328  -25.7984   -8.0179 N   0  0  0  0  0  0  0  0  0  0  0  0
   18.3910  -25.2764   -6.6747 C   0  0  0  0  0  0  0  0  0  0  0  0
   17.2073  -25.6704   -5.8816 C   0  0  0  0  0  0  0  0  0  0  0  0
   16.1176  -26.0598   -6.3929 O   0  0  0  0  0  0  0  0  0  0  0  0
   19.4997  -28.9926   -0.3570 C   0  0  0  0  0  0  0  0  0  0  0  0
   18.4988  -27.5033   -0.5304 S   0  0  0  0  0  0  0  0  0  0  0  0
   17.7144  -27.3959   -2.1649 C   0  0  0  0  0  0  0  0  0  0  0  0
   16.8164  -26.1773   -2.1996 C   0  0  0  0  0  0  0  0  0  0  0  0
   16.2346  -25.9562   -3.5689 C   0  0  2  0  0  0  0  0  0  0  0  0
   17.3038  -25.6064   -4.4671 N   0  0  0  0  0  0  0  0  0  0  0  0
   15.2426  -24.8737   -3.6036 C   0  0  0  0  0  0  0  0  0  0  0  0
   14.1212  -25.0541   -3.0694 O   0  0  0  0  0  0  0  0  0  0  0  0
   15.4796  -23.6471   -4.2020 O   0  0  0  0  0  0  0  0  0  0  0  0
  1  2  1  0
  2  3  2  0
  4  2  1  0
  4  5  1  0
  6  5  1  0
  6  8  1  0
  6  7  1  1
  8  9  2  0
 10  8  1  0
 10 11  1  0
 11 12  1  0
 12 19  1  0
 13 12  2  0
 15 14  1  0
 15 16  1  0
 17 16  1  0
 18 20  1  0
 18 17  1  1
 19 18  1  0
 20 22  1  0
 21 20  2  0
M  END
$$$$
