QGM.pdb
     RDKit          3D

 22 21  0  0  1  0  0  0  0  0999 V2000
   24.6128  -37.1281  -15.3756 N   0  0  0  0  0  0  0  0  0  0  0  0
   25.5283  -36.1869  -14.8131 C   0  0  0  0  0  0  0  0  0  0  0  0
   26.5315  -36.6315  -14.2025 O   0  0  0  0  0  0  0  0  0  0  0  0
   25.3291  -34.7442  -14.9324 C   0  0  0  0  0  0  0  0  0  0  0  0
   26.0010  -34.0246  -13.7998 C   0  0  0  0  0  0  0  0  0  0  0  0
   25.1648  -34.1747  -12.5571 C   0  0  2  0  0  0  0  0  0  0  0  0
   24.0424  -33.2564  -12.6961 N   0  0  0  0  0  0  0  0  0  0  0  0
   26.0235  -33.7735  -11.3933 C   0  0  0  0  0  0  0  0  0  0  0  0
   27.0871  -34.3943  -11.1529 O   0  0  0  0  0  0  0  0  0  0  0  0
   25.6584  -32.7038  -10.5551 N   0  0  0  0  0  0  0  0  0  0  0  0
   26.5110  -32.3365   -9.4415 C   0  0  0  0  0  0  0  0  0  0  0  0
   26.2043  -33.2334   -8.3072 C   0  0  0  0  0  0  0  0  0  0  0  0
   25.2327  -34.0435   -8.2955 O   0  0  0  0  0  0  0  0  0  0  0  0
   31.1981  -35.0487   -4.7772 C   0  0  0  0  0  0  0  0  0  0  0  0
   29.9397  -35.2169   -3.4973 S   0  0  0  0  0  0  0  0  0  0  0  0
   28.2593  -35.0689   -4.1701 C   0  0  0  0  0  0  0  0  0  0  0  0
   28.2940  -34.1645   -5.3838 C   0  0  0  0  0  0  0  0  0  0  0  0
   26.9448  -34.0674   -6.0417 C   0  0  2  0  0  0  0  0  0  0  0  0
   27.0506  -33.1787   -7.1692 N   0  0  0  0  0  0  0  0  0  0  0  0
   25.9059  -33.5410   -5.1469 C   0  0  0  0  0  0  0  0  0  0  0  0
   25.5016  -32.3633   -5.3051 O   0  0  0  0  0  0  0  0  0  0  0  0
   25.3398  -34.2829   -4.1232 O   0  0  0  0  0  0  0  0  0  0  0  0
  1  2  1  0
  2  3  2  0
  4  2  1  0
  4  5  1  0
  6  5  1  0
  6  8  1  0
  6  7  1  6
  8  9  2  0
 10  8  1  0
 10 11  1  0
 11 12  1  0
 12 19  1  0
 13 12  2  0
 15 14  1  0
 15 16  1  0
 17 16  1  0
 18 20  1  0
 18 17  1  1
 19 18  1  0
 20 22  1  0
 21 20  2  0
M  END
$$$$
