QGM.pdb
     RDKit          3D

 22 21  0  0  1  0  0  0  0  0999 V2000
   30.0235  -16.1288  -19.3688 N   0  0  0  0  0  0  0  0  0  0  0  0
   30.3001  -17.5281  -19.4457 C   0  0  0  0  0  0  0  0  0  0  0  0
   31.2901  -17.8981  -20.1236 O   0  0  0  0  0  0  0  0  0  0  0  0
   29.4733  -18.5210  -18.7629 C   0  0  0  0  0  0  0  0  0  0  0  0
   28.2840  -17.8659  -18.1237 C   0  0  0  0  0  0  0  0  0  0  0  0
   28.2489  -18.2287  -16.6632 C   0  0  2  0  0  0  0  0  0  0  0  0
   28.2765  -19.6837  -16.5939 N   0  0  0  0  0  0  0  0  0  0  0  0
   26.9563  -17.7065  -16.1071 C   0  0  0  0  0  0  0  0  0  0  0  0
   26.6282  -16.5101  -16.2958 O   0  0  0  0  0  0  0  0  0  0  0  0
   26.0932  -18.5382  -15.3700 N   0  0  0  0  0  0  0  0  0  0  0  0
   24.8476  -18.0070  -14.8522 C   0  0  0  0  0  0  0  0  0  0  0  0
   24.2349  -19.0298  -13.9782 C   0  0  0  0  0  0  0  0  0  0  0  0
   23.2067  -18.8238  -13.2705 O   0  0  0  0  0  0  0  0  0  0  0  0
   25.0305  -25.0261  -15.8741 C   0  0  0  0  0  0  0  0  0  0  0  0
   24.6602  -25.4015  -14.1502 S   0  0  0  0  0  0  0  0  0  0  0  0
   24.1439  -23.9253  -13.2269 C   0  0  0  0  0  0  0  0  0  0  0  0
   24.6244  -22.6926  -13.9631 C   0  0  0  0  0  0  0  0  0  0  0  0
   24.2995  -21.4335  -13.2071 C   0  0  2  0  0  0  0  0  0  0  0  0
   24.8381  -20.3137  -13.9339 N   0  0  0  0  0  0  0  0  0  0  0  0
   24.8715  -21.4118  -11.8544 C   0  0  0  0  0  0  0  0  0  0  0  0
   26.0324  -20.9645  -11.6883 O   0  0  0  0  0  0  0  0  0  0  0  0
   24.1908  -21.8642  -10.7361 O   0  0  0  0  0  0  0  0  0  0  0  0
  1  2  1  0
  2  3  2  0
  4  2  1  0
  4  5  1  0
  6  5  1  0
  6  8  1  0
  6  7  1  6
  8  9  2  0
 10  8  1  0
 10 11  1  0
 11 12  1  0
 12 19  1  0
 13 12  2  0
 15 14  1  0
 15 16  1  0
 17 16  1  0
 18 20  1  0
 18 17  1  6
 19 18  1  0
 20 22  1  0
 21 20  2  0
M  END
$$$$
