GHH.pdb
     RDKit          3D

 25 26  0  0  1  0  0  0  0  0999 V2000
    6.7283  -16.3221   -1.3603 N   0  0  0  0  0  0  0  0  0  0  0  0
    7.9977  -15.6445   -1.3970 C   0  0  0  0  0  0  0  0  0  0  0  0
    9.0816  -16.6543   -1.4610 C   0  0  0  0  0  0  0  0  0  0  0  0
    8.8379  -17.8961   -1.4002 O   0  0  0  0  0  0  0  0  0  0  0  0
   10.4088  -16.2263   -1.5921 N   0  0  0  0  0  0  0  0  0  0  0  0
   11.4524  -17.2994   -1.7950 C   0  0  1  0  0  0  0  0  0  0  0  0
   12.0683  -16.9621   -3.1232 C   0  0  0  0  0  0  0  0  0  0  0  0
   11.5892  -17.6587   -4.3071 C   0  0  0  0  0  0  0  0  0  0  0  0
   10.6880  -18.7465   -4.3132 C   0  0  0  0  0  0  0  0  0  0  0  0
   10.5095  -19.0904   -5.5885 N   0  0  0  0  0  0  0  0  0  0  0  0
   11.2309  -18.2998   -6.3799 C   0  0  0  0  0  0  0  0  0  0  0  0
   11.8639  -17.4561   -5.5859 N   0  0  0  0  0  0  0  0  0  0  0  0
   12.3272  -17.1077   -0.6263 C   0  0  0  0  0  0  0  0  0  0  0  0
   12.9031  -15.9747   -0.4621 O   0  0  0  0  0  0  0  0  0  0  0  0
   12.5676  -18.0926    0.3298 N   0  0  0  0  0  0  0  0  0  0  0  0
   13.4283  -17.8791    1.5015 C   0  0  1  0  0  0  0  0  0  0  0  0
   12.7664  -16.8178    2.3148 C   0  0  0  0  0  0  0  0  0  0  0  0
   13.5616  -16.5784    3.5410 C   0  0  0  0  0  0  0  0  0  0  0  0
   14.9442  -16.6955    3.6596 C   0  0  0  0  0  0  0  0  0  0  0  0
   15.2526  -16.3890    4.9308 N   0  0  0  0  0  0  0  0  0  0  0  0
   14.1260  -16.0910    5.5927 C   0  0  0  0  0  0  0  0  0  0  0  0
   13.0985  -16.2088    4.7383 N   0  0  0  0  0  0  0  0  0  0  0  0
   13.6886  -19.1384    2.2051 C   0  0  0  0  0  0  0  0  0  0  0  0
   14.2634  -19.1611    3.3311 O   0  0  0  0  0  0  0  0  0  0  0  0
   13.3141  -20.3521    1.6637 O   0  0  0  0  0  0  0  0  0  0  0  0
  2  1  1  0
  3  2  1  0
  4  3  2  0
  5  3  1  0
  6 13  1  0
  6  5  1  0
  6  7  1  6
  8 12  1  0
  8  7  1  0
  9  8  2  0
 10  9  1  0
 10 11  1  0
 11 12  2  0
 13 15  1  0
 14 13  2  0
 15 16  1  0
 16 17  1  1
 16 23  1  0
 18 17  1  0
 19 18  2  0
 20 19  1  0
 21 20  1  0
 21 22  2  0
 22 18  1  0
 23 24  2  0
 23 25  1  0
M  END
$$$$
