GHH.pdb
     RDKit          3D

 25 26  0  0  1  0  0  0  0  0999 V2000
   27.9818  -17.9425  -15.9408 N   0  0  0  0  0  0  0  0  0  0  0  0
   27.3519  -18.5253  -14.7852 C   0  0  0  0  0  0  0  0  0  0  0  0
   26.3934  -19.5649  -15.2315 C   0  0  0  0  0  0  0  0  0  0  0  0
   26.0398  -19.6670  -16.4439 O   0  0  0  0  0  0  0  0  0  0  0  0
   25.8647  -20.4574  -14.2904 N   0  0  0  0  0  0  0  0  0  0  0  0
   24.8995  -21.4980  -14.8076 C   0  0  1  0  0  0  0  0  0  0  0  0
   25.4303  -22.7919  -14.2589 C   0  0  0  0  0  0  0  0  0  0  0  0
   26.0908  -23.7132  -15.1707 C   0  0  0  0  0  0  0  0  0  0  0  0
   26.1496  -23.5795  -16.5758 C   0  0  0  0  0  0  0  0  0  0  0  0
   26.8400  -24.6241  -17.0326 N   0  0  0  0  0  0  0  0  0  0  0  0
   27.2172  -25.4005  -16.0194 C   0  0  0  0  0  0  0  0  0  0  0  0
   26.7552  -24.8306  -14.9218 N   0  0  0  0  0  0  0  0  0  0  0  0
   23.6199  -21.0472  -14.2355 C   0  0  0  0  0  0  0  0  0  0  0  0
   23.6041  -20.5823  -13.0414 O   0  0  0  0  0  0  0  0  0  0  0  0
   22.4081  -21.0889  -14.9223 N   0  0  0  0  0  0  0  0  0  0  0  0
   21.1342  -20.6625  -14.3267 C   0  0  1  0  0  0  0  0  0  0  0  0
   20.3404  -20.0562  -15.4349 C   0  0  0  0  0  0  0  0  0  0  0  0
   20.8761  -18.7086  -15.7355 C   0  0  0  0  0  0  0  0  0  0  0  0
   21.8997  -18.0596  -15.0497 C   0  0  0  0  0  0  0  0  0  0  0  0
   22.0725  -16.8681  -15.6460 N   0  0  0  0  0  0  0  0  0  0  0  0
   21.2045  -16.7591  -16.6613 C   0  0  0  0  0  0  0  0  0  0  0  0
   20.4780  -17.8857  -16.7096 N   0  0  0  0  0  0  0  0  0  0  0  0
   20.4822  -21.7690  -13.6201 C   0  0  0  0  0  0  0  0  0  0  0  0
   19.5789  -21.5641  -12.7592 O   0  0  0  0  0  0  0  0  0  0  0  0
   20.8300  -23.0818  -13.8688 O   0  0  0  0  0  0  0  0  0  0  0  0
  2  1  1  0
  3  2  1  0
  4  3  2  0
  5  3  1  0
  6 13  1  0
  6  5  1  0
  6  7  1  1
  8 12  1  0
  8  7  1  0
  9  8  2  0
 10  9  1  0
 10 11  1  0
 11 12  2  0
 13 15  1  0
 14 13  2  0
 15 16  1  0
 16 17  1  6
 16 23  1  0
 18 17  1  0
 19 18  2  0
 20 19  1  0
 21 20  1  0
 21 22  2  0
 22 18  1  0
 23 24  2  0
 23 25  1  0
M  END
$$$$
