GHH.pdb
     RDKit          3D

 25 26  0  0  1  0  0  0  0  0999 V2000
   20.0090  -11.3864  -18.1479 N   0  0  0  0  0  0  0  0  0  0  0  0
   20.5708  -11.6815  -16.8560 C   0  0  0  0  0  0  0  0  0  0  0  0
   21.0485  -10.4208  -16.2386 C   0  0  0  0  0  0  0  0  0  0  0  0
   20.8551  -10.1656  -15.0128 O   0  0  0  0  0  0  0  0  0  0  0  0
   21.7309   -9.4874  -17.0292 N   0  0  0  0  0  0  0  0  0  0  0  0
   22.2594   -8.2588  -16.3270 C   0  0  1  0  0  0  0  0  0  0  0  0
   23.6475   -8.0934  -16.8774 C   0  0  0  0  0  0  0  0  0  0  0  0
   24.7121   -8.9239  -16.3359 C   0  0  0  0  0  0  0  0  0  0  0  0
   25.4539   -9.8850  -17.0583 C   0  0  0  0  0  0  0  0  0  0  0  0
   26.3243  -10.4209  -16.2028 N   0  0  0  0  0  0  0  0  0  0  0  0
   26.1826   -9.8675  -15.0005 C   0  0  0  0  0  0  0  0  0  0  0  0
   25.2132   -8.9782  -15.1121 N   0  0  0  0  0  0  0  0  0  0  0  0
   21.2914   -7.2269  -16.7344 C   0  0  0  0  0  0  0  0  0  0  0  0
   20.7852   -7.2815  -17.9104 O   0  0  0  0  0  0  0  0  0  0  0  0
   20.8802   -6.1828  -15.9082 N   0  0  0  0  0  0  0  0  0  0  0  0
   19.8771   -5.1880  -16.3128 C   0  0  1  0  0  0  0  0  0  0  0  0
   18.6105   -5.9435  -16.5375 C   0  0  0  0  0  0  0  0  0  0  0  0
   17.5310   -4.9905  -16.8837 C   0  0  0  0  0  0  0  0  0  0  0  0
   17.5581   -4.0591  -17.9186 C   0  0  0  0  0  0  0  0  0  0  0  0
   16.3854   -3.4046  -17.8831 N   0  0  0  0  0  0  0  0  0  0  0  0
   15.6450   -3.8912  -16.8775 C   0  0  0  0  0  0  0  0  0  0  0  0
   16.3506   -4.8585  -16.2724 N   0  0  0  0  0  0  0  0  0  0  0  0
   19.7918   -4.0948  -15.3400 C   0  0  0  0  0  0  0  0  0  0  0  0
   20.3563   -4.1679  -14.2108 O   0  0  0  0  0  0  0  0  0  0  0  0
   19.0903   -2.9393  -15.6206 O   0  0  0  0  0  0  0  0  0  0  0  0
  2  1  1  0
  3  2  1  0
  4  3  2  0
  5  3  1  0
  6 13  1  0
  6  5  1  0
  6  7  1  6
  8 12  1  0
  8  7  1  0
  9  8  2  0
 10  9  1  0
 10 11  1  0
 11 12  2  0
 13 15  1  0
 14 13  2  0
 15 16  1  0
 16 17  1  1
 16 23  1  0
 18 17  1  0
 19 18  2  0
 20 19  1  0
 21 20  1  0
 21 22  2  0
 22 18  1  0
 23 24  2  0
 23 25  1  0
M  END
$$$$
