GHH.pdb
     RDKit          3D

 25 26  0  0  1  0  0  0  0  0999 V2000
   24.5870  -12.6639  -18.1410 N   0  0  0  0  0  0  0  0  0  0  0  0
   24.2275  -11.6176  -19.0618 C   0  0  0  0  0  0  0  0  0  0  0  0
   22.9540  -11.0013  -18.6182 C   0  0  0  0  0  0  0  0  0  0  0  0
   22.3555  -10.1328  -19.3200 O   0  0  0  0  0  0  0  0  0  0  0  0
   22.3972  -11.3881  -17.3925 N   0  0  0  0  0  0  0  0  0  0  0  0
   21.0597  -10.7850  -17.0328 C   0  0  1  0  0  0  0  0  0  0  0  0
   20.3849  -11.8536  -16.2205 C   0  0  0  0  0  0  0  0  0  0  0  0
   19.4945  -12.7827  -16.8992 C   0  0  0  0  0  0  0  0  0  0  0  0
   19.1490  -12.7396  -18.2682 C   0  0  0  0  0  0  0  0  0  0  0  0
   18.3175  -13.7582  -18.4869 N   0  0  0  0  0  0  0  0  0  0  0  0
   18.1173  -14.4346  -17.3581 C   0  0  0  0  0  0  0  0  0  0  0  0
   18.8329  -13.8282  -16.4290 N   0  0  0  0  0  0  0  0  0  0  0  0
   21.4530   -9.5783  -16.2865 C   0  0  0  0  0  0  0  0  0  0  0  0
   22.4052   -9.6601  -15.4328 O   0  0  0  0  0  0  0  0  0  0  0  0
   20.8507   -8.3332  -16.4563 N   0  0  0  0  0  0  0  0  0  0  0  0
   21.2699   -7.1329  -15.7195 C   0  0  1  0  0  0  0  0  0  0  0  0
   20.8875   -5.9688  -16.5707 C   0  0  0  0  0  0  0  0  0  0  0  0
   21.2597   -4.7153  -15.8754 C   0  0  0  0  0  0  0  0  0  0  0  0
   22.4603   -4.0237  -16.0148 C   0  0  0  0  0  0  0  0  0  0  0  0
   22.3843   -2.9478  -15.2138 N   0  0  0  0  0  0  0  0  0  0  0  0
   21.1966   -2.9497  -14.5930 C   0  0  0  0  0  0  0  0  0  0  0  0
   20.5160   -4.0311  -15.0017 N   0  0  0  0  0  0  0  0  0  0  0  0
   20.7193   -7.1250  -14.3610 C   0  0  0  0  0  0  0  0  0  0  0  0
   19.5626   -7.5717  -14.1130 O   0  0  0  0  0  0  0  0  0  0  0  0
   21.4451   -6.6285  -13.2967 O   0  0  0  0  0  0  0  0  0  0  0  0
  2  1  1  0
  3  2  1  0
  4  3  2  0
  5  3  1  0
  6 13  1  0
  6  5  1  0
  6  7  1  1
  8 12  1  0
  8  7  1  0
  9  8  2  0
 10  9  1  0
 10 11  1  0
 11 12  2  0
 13 15  1  0
 14 13  2  0
 15 16  1  0
 16 17  1  6
 16 23  1  0
 18 17  1  0
 19 18  2  0
 20 19  1  0
 21 20  1  0
 21 22  2  0
 22 18  1  0
 23 24  2  0
 23 25  1  0
M  END
$$$$
