GHH.pdb
     RDKit          3D

 25 26  0  0  1  0  0  0  0  0999 V2000
   47.6448  -13.8082   -7.4389 N   0  0  0  0  0  0  0  0  0  0  0  0
   46.5373  -12.9557   -7.0946 C   0  0  0  0  0  0  0  0  0  0  0  0
   45.5894  -12.9130   -8.2340 C   0  0  0  0  0  0  0  0  0  0  0  0
   45.9889  -12.7556   -9.4260 O   0  0  0  0  0  0  0  0  0  0  0  0
   44.2173  -13.0499   -7.9881 N   0  0  0  0  0  0  0  0  0  0  0  0
   43.2982  -12.9399   -9.1819 C   0  0  1  0  0  0  0  0  0  0  0  0
   42.3624  -14.1053   -9.0299 C   0  0  0  0  0  0  0  0  0  0  0  0
   42.7868  -15.4053   -9.5262 C   0  0  0  0  0  0  0  0  0  0  0  0
   44.0505  -15.7001  -10.0845 C   0  0  0  0  0  0  0  0  0  0  0  0
   44.0342  -16.9923  -10.4110 N   0  0  0  0  0  0  0  0  0  0  0  0
   42.8561  -17.5274  -10.0989 C   0  0  0  0  0  0  0  0  0  0  0  0
   42.1337  -16.5555   -9.5729 N   0  0  0  0  0  0  0  0  0  0  0  0
   42.6912  -11.6128   -8.9861 C   0  0  0  0  0  0  0  0  0  0  0  0
   42.3623  -11.2502   -7.8019 O   0  0  0  0  0  0  0  0  0  0  0  0
   42.4538  -10.7105  -10.0211 N   0  0  0  0  0  0  0  0  0  0  0  0
   41.8540   -9.3860   -9.8080 C   0  0  1  0  0  0  0  0  0  0  0  0
   42.0463   -8.6336  -11.0819 C   0  0  0  0  0  0  0  0  0  0  0  0
   41.4522   -7.2841  -10.9436 C   0  0  0  0  0  0  0  0  0  0  0  0
   42.1464   -6.1018  -10.6993 C   0  0  0  0  0  0  0  0  0  0  0  0
   41.2330   -5.1179  -10.6499 N   0  0  0  0  0  0  0  0  0  0  0  0
   40.0163   -5.6423  -10.8519 C   0  0  0  0  0  0  0  0  0  0  0  0
   40.1581   -6.9643  -11.0303 N   0  0  0  0  0  0  0  0  0  0  0  0
   40.4664   -9.4996   -9.3493 C   0  0  0  0  0  0  0  0  0  0  0  0
   39.7001  -10.4098   -9.7773 O   0  0  0  0  0  0  0  0  0  0  0  0
   39.9415   -8.6145   -8.4289 O   0  0  0  0  0  0  0  0  0  0  0  0
  2  1  1  0
  3  2  1  0
  4  3  2  0
  5  3  1  0
  6 13  1  0
  6  5  1  0
  6  7  1  1
  8 12  1  0
  8  7  1  0
  9  8  2  0
 10  9  1  0
 10 11  1  0
 11 12  2  0
 13 15  1  0
 14 13  2  0
 15 16  1  0
 16 17  1  6
 16 23  1  0
 18 17  1  0
 19 18  2  0
 20 19  1  0
 21 20  1  0
 21 22  2  0
 22 18  1  0
 23 24  2  0
 23 25  1  0
M  END
$$$$
