GHH.pdb
     RDKit          3D

 25 26  0  0  1  0  0  0  0  0999 V2000
   18.9725  -32.8274   -7.6000 N   0  0  0  0  0  0  0  0  0  0  0  0
   19.9164  -32.3738   -6.6125 C   0  0  0  0  0  0  0  0  0  0  0  0
   21.0829  -33.2892   -6.6043 C   0  0  0  0  0  0  0  0  0  0  0  0
   21.1525  -34.2847   -7.3849 O   0  0  0  0  0  0  0  0  0  0  0  0
   22.1352  -33.0487   -5.7117 N   0  0  0  0  0  0  0  0  0  0  0  0
   23.2824  -34.0312   -5.7325 C   0  0  1  0  0  0  0  0  0  0  0  0
   24.4871  -33.1788   -6.0139 C   0  0  0  0  0  0  0  0  0  0  0  0
   24.9365  -33.0459   -7.3912 C   0  0  0  0  0  0  0  0  0  0  0  0
   24.4205  -33.7573   -8.4972 C   0  0  0  0  0  0  0  0  0  0  0  0
   25.0994  -33.3472   -9.5684 N   0  0  0  0  0  0  0  0  0  0  0  0
   26.0005  -32.4332   -9.2156 C   0  0  0  0  0  0  0  0  0  0  0  0
   25.8788  -32.2750   -7.9106 N   0  0  0  0  0  0  0  0  0  0  0  0
   23.2206  -34.6104   -4.3802 C   0  0  0  0  0  0  0  0  0  0  0  0
   22.8572  -33.8655   -3.4028 O   0  0  0  0  0  0  0  0  0  0  0  0
   23.5309  -35.9380   -4.0924 N   0  0  0  0  0  0  0  0  0  0  0  0
   23.4328  -36.5095   -2.7421 C   0  0  1  0  0  0  0  0  0  0  0  0
   22.6619  -37.7789   -2.8838 C   0  0  0  0  0  0  0  0  0  0  0  0
   21.2133  -37.4769   -2.8243 C   0  0  0  0  0  0  0  0  0  0  0  0
   20.3912  -37.1779   -3.9079 C   0  0  0  0  0  0  0  0  0  0  0  0
   19.1579  -36.9740   -3.4154 N   0  0  0  0  0  0  0  0  0  0  0  0
   19.1880  -37.1340   -2.0851 C   0  0  0  0  0  0  0  0  0  0  0  0
   20.4454  -37.4407   -1.7319 N   0  0  0  0  0  0  0  0  0  0  0  0
   24.7560  -36.6441   -2.1257 C   0  0  0  0  0  0  0  0  0  0  0  0
   25.8134  -36.3639   -2.7599 O   0  0  0  0  0  0  0  0  0  0  0  0
   24.8987  -37.0828   -0.8244 O   0  0  0  0  0  0  0  0  0  0  0  0
  2  1  1  0
  3  2  1  0
  4  3  2  0
  5  3  1  0
  6 13  1  0
  6  5  1  0
  6  7  1  1
  8 12  1  0
  8  7  1  0
  9  8  2  0
 10  9  1  0
 10 11  1  0
 11 12  2  0
 13 15  1  0
 14 13  2  0
 15 16  1  0
 16 17  1  6
 16 23  1  0
 18 17  1  0
 19 18  2  0
 20 19  1  0
 21 20  1  0
 21 22  2  0
 22 18  1  0
 23 24  2  0
 23 25  1  0
M  END
$$$$
