GHH.pdb
     RDKit          3D

 25 26  0  0  1  0  0  0  0  0999 V2000
   28.4741  -14.7001  -18.5004 N   0  0  0  0  0  0  0  0  0  0  0  0
   29.5842  -14.5290  -19.4005 C   0  0  0  0  0  0  0  0  0  0  0  0
   29.8913  -13.0831  -19.5178 C   0  0  0  0  0  0  0  0  0  0  0  0
   30.8002  -12.6569  -20.2906 O   0  0  0  0  0  0  0  0  0  0  0  0
   29.1590  -12.1640  -18.7556 N   0  0  0  0  0  0  0  0  0  0  0  0
   29.4101  -10.7000  -19.0302 C   0  0  1  0  0  0  0  0  0  0  0  0
   28.0493  -10.0716  -18.9288 C   0  0  0  0  0  0  0  0  0  0  0  0
   27.9098   -8.6617  -19.2589 C   0  0  0  0  0  0  0  0  0  0  0  0
   28.9512   -7.8113  -19.6923 C   0  0  0  0  0  0  0  0  0  0  0  0
   28.4100   -6.6086  -19.8855 N   0  0  0  0  0  0  0  0  0  0  0  0
   27.1091   -6.6431  -19.6057 C   0  0  0  0  0  0  0  0  0  0  0  0
   26.8409   -7.8814  -19.2347 N   0  0  0  0  0  0  0  0  0  0  0  0
   30.3535  -10.3397  -17.9586 C   0  0  0  0  0  0  0  0  0  0  0  0
   30.1728  -10.8226  -16.7854 O   0  0  0  0  0  0  0  0  0  0  0  0
   31.4497   -9.4996  -18.1433 N   0  0  0  0  0  0  0  0  0  0  0  0
   32.3036   -9.0414  -17.0386 C   0  0  1  0  0  0  0  0  0  0  0  0
   33.6063   -9.7505  -17.1995 C   0  0  0  0  0  0  0  0  0  0  0  0
   34.5534   -9.2668  -16.1688 C   0  0  0  0  0  0  0  0  0  0  0  0
   34.8753   -9.9158  -14.9794 C   0  0  0  0  0  0  0  0  0  0  0  0
   35.7685   -9.1400  -14.3428 N   0  0  0  0  0  0  0  0  0  0  0  0
   36.0068   -8.0502  -15.0857 C   0  0  0  0  0  0  0  0  0  0  0  0
   35.2618   -8.1347  -16.1981 N   0  0  0  0  0  0  0  0  0  0  0  0
   32.3855   -7.5783  -17.0030 C   0  0  0  0  0  0  0  0  0  0  0  0
   32.5036   -6.9482  -15.9131 O   0  0  0  0  0  0  0  0  0  0  0  0
   32.3373   -6.8297  -18.1621 O   0  0  0  0  0  0  0  0  0  0  0  0
  2  1  1  0
  3  2  1  0
  4  3  2  0
  5  3  1  0
  6 13  1  0
  6  5  1  0
  6  7  1  1
  8 12  1  0
  8  7  1  0
  9  8  2  0
 10  9  1  0
 10 11  1  0
 11 12  2  0
 13 15  1  0
 14 13  2  0
 15 16  1  0
 16 17  1  6
 16 23  1  0
 18 17  1  0
 19 18  2  0
 20 19  1  0
 21 20  1  0
 21 22  2  0
 22 18  1  0
 23 24  2  0
 23 25  1  0
M  END
$$$$
