GHH.pdb
     RDKit          3D

 25 26  0  0  1  0  0  0  0  0999 V2000
   25.3945  -34.1205  -14.8889 N   0  0  0  0  0  0  0  0  0  0  0  0
   24.3182  -34.5070  -14.0149 C   0  0  0  0  0  0  0  0  0  0  0  0
   23.9147  -33.3358  -13.1999 C   0  0  0  0  0  0  0  0  0  0  0  0
   24.7715  -32.5694  -12.6672 O   0  0  0  0  0  0  0  0  0  0  0  0
   22.5525  -33.0686  -13.0132 N   0  0  0  0  0  0  0  0  0  0  0  0
   22.2051  -31.8789  -12.1497 C   0  0  1  0  0  0  0  0  0  0  0  0
   21.0573  -31.2293  -12.8692 C   0  0  0  0  0  0  0  0  0  0  0  0
   21.3439  -30.4173  -14.0418 C   0  0  0  0  0  0  0  0  0  0  0  0
   22.6255  -30.1863  -14.5892 C   0  0  0  0  0  0  0  0  0  0  0  0
   22.4539  -29.3964  -15.6491 N   0  0  0  0  0  0  0  0  0  0  0  0
   21.1620  -29.1164  -15.8055 C   0  0  0  0  0  0  0  0  0  0  0  0
   20.5255  -29.7398  -14.8313 N   0  0  0  0  0  0  0  0  0  0  0  0
   21.8667  -32.5147  -10.8654 C   0  0  0  0  0  0  0  0  0  0  0  0
   21.2529  -33.6396  -10.8733 O   0  0  0  0  0  0  0  0  0  0  0  0
   22.1814  -31.9658   -9.6239 N   0  0  0  0  0  0  0  0  0  0  0  0
   21.8574  -32.6245   -8.3509 C   0  0  1  0  0  0  0  0  0  0  0  0
   22.9177  -32.2090   -7.3871 C   0  0  0  0  0  0  0  0  0  0  0  0
   24.2099  -32.8032   -7.8002 C   0  0  0  0  0  0  0  0  0  0  0  0
   24.4143  -33.6526   -8.8846 C   0  0  0  0  0  0  0  0  0  0  0  0
   25.7236  -33.9533   -8.9013 N   0  0  0  0  0  0  0  0  0  0  0  0
   26.3271  -33.3290   -7.8805 C   0  0  0  0  0  0  0  0  0  0  0  0
   25.3972  -32.6293   -7.2132 N   0  0  0  0  0  0  0  0  0  0  0  0
   20.4824  -32.3308   -7.9365 C   0  0  0  0  0  0  0  0  0  0  0  0
   19.7502  -31.5333   -8.5898 O   0  0  0  0  0  0  0  0  0  0  0  0
   19.9320  -32.9162   -6.8138 O   0  0  0  0  0  0  0  0  0  0  0  0
  2  1  1  0
  3  2  1  0
  4  3  2  0
  5  3  1  0
  6 13  1  0
  6  5  1  0
  6  7  1  6
  8 12  1  0
  8  7  1  0
  9  8  2  0
 10  9  1  0
 10 11  1  0
 11 12  2  0
 13 15  1  0
 14 13  2  0
 15 16  1  0
 16 17  1  1
 16 23  1  0
 18 17  1  0
 19 18  2  0
 20 19  1  0
 21 20  1  0
 21 22  2  0
 22 18  1  0
 23 24  2  0
 23 25  1  0
M  END
$$$$
