GHH.pdb
     RDKit          3D

 25 26  0  0  1  0  0  0  0  0999 V2000
   16.1024  -13.7902  -14.5130 N   0  0  0  0  0  0  0  0  0  0  0  0
   15.5797  -13.2627  -15.7461 C   0  0  0  0  0  0  0  0  0  0  0  0
   16.1989  -11.9407  -16.0058 C   0  0  0  0  0  0  0  0  0  0  0  0
   16.7026  -11.6519  -17.1319 O   0  0  0  0  0  0  0  0  0  0  0  0
   16.2287  -10.9859  -14.9814 N   0  0  0  0  0  0  0  0  0  0  0  0
   16.6239   -9.5813  -15.3724 C   0  0  1  0  0  0  0  0  0  0  0  0
   15.7357   -8.7063  -14.5343 C   0  0  0  0  0  0  0  0  0  0  0  0
   14.4923   -8.2220  -15.1139 C   0  0  0  0  0  0  0  0  0  0  0  0
   14.3706   -7.5299  -16.3393 C   0  0  0  0  0  0  0  0  0  0  0  0
   13.0744   -7.2666  -16.5048 N   0  0  0  0  0  0  0  0  0  0  0  0
   12.3769   -7.7419  -15.4755 C   0  0  0  0  0  0  0  0  0  0  0  0
   13.2508   -8.3062  -14.6627 N   0  0  0  0  0  0  0  0  0  0  0  0
   18.0534   -9.5510  -15.0210 C   0  0  0  0  0  0  0  0  0  0  0  0
   18.4098   -9.9067  -13.8426 O   0  0  0  0  0  0  0  0  0  0  0  0
   19.0587   -9.1601  -15.9033 N   0  0  0  0  0  0  0  0  0  0  0  0
   20.4765   -9.0910  -15.5231 C   0  0  1  0  0  0  0  0  0  0  0  0
   21.2534   -9.3717  -16.7654 C   0  0  0  0  0  0  0  0  0  0  0  0
   22.7005   -9.3298  -16.4535 C   0  0  0  0  0  0  0  0  0  0  0  0
   23.2749   -9.4927  -15.1954 C   0  0  0  0  0  0  0  0  0  0  0  0
   24.6042   -9.3858  -15.3583 N   0  0  0  0  0  0  0  0  0  0  0  0
   24.8682   -9.1657  -16.6537 C   0  0  0  0  0  0  0  0  0  0  0  0
   23.7018   -9.1328  -17.3156 N   0  0  0  0  0  0  0  0  0  0  0  0
   20.7871   -7.8199  -14.8622 C   0  0  0  0  0  0  0  0  0  0  0  0
   20.2304   -6.7393  -15.2105 O   0  0  0  0  0  0  0  0  0  0  0  0
   21.7019   -7.7539  -13.8302 O   0  0  0  0  0  0  0  0  0  0  0  0
  2  1  1  0
  3  2  1  0
  4  3  2  0
  5  3  1  0
  6 13  1  0
  6  5  1  0
  6  7  1  1
  8 12  1  0
  8  7  1  0
  9  8  2  0
 10  9  1  0
 10 11  1  0
 11 12  2  0
 13 15  1  0
 14 13  2  0
 15 16  1  0
 16 17  1  6
 16 23  1  0
 18 17  1  0
 19 18  2  0
 20 19  1  0
 21 20  1  0
 21 22  2  0
 22 18  1  0
 23 24  2  0
 23 25  1  0
M  END
$$$$
