GHH.pdb
     RDKit          3D

 25 26  0  0  1  0  0  0  0  0999 V2000
   25.7431  -11.3944  -20.2778 N   0  0  0  0  0  0  0  0  0  0  0  0
   24.6000  -12.2633  -20.3790 C   0  0  0  0  0  0  0  0  0  0  0  0
   23.3718  -11.4775  -20.1098 C   0  0  0  0  0  0  0  0  0  0  0  0
   22.8959  -10.6733  -20.9653 O   0  0  0  0  0  0  0  0  0  0  0  0
   22.7199  -11.6268  -18.8790 N   0  0  0  0  0  0  0  0  0  0  0  0
   21.4707  -10.8043  -18.6671 C   0  0  1  0  0  0  0  0  0  0  0  0
   20.4952  -11.7730  -18.0612 C   0  0  0  0  0  0  0  0  0  0  0  0
   19.2237  -11.2627  -17.5719 C   0  0  0  0  0  0  0  0  0  0  0  0
   18.2443  -10.6094  -18.3526 C   0  0  0  0  0  0  0  0  0  0  0  0
   17.2398  -10.3035  -17.5317 N   0  0  0  0  0  0  0  0  0  0  0  0
   17.5173  -10.7162  -16.2970 C   0  0  0  0  0  0  0  0  0  0  0  0
   18.7076  -11.2845  -16.3533 N   0  0  0  0  0  0  0  0  0  0  0  0
   21.9470   -9.7413  -17.7665 C   0  0  0  0  0  0  0  0  0  0  0  0
   22.8465  -10.0215  -16.8979 O   0  0  0  0  0  0  0  0  0  0  0  0
   21.4792   -8.4292  -17.8033 N   0  0  0  0  0  0  0  0  0  0  0  0
   21.8899   -7.4043  -16.8336 C   0  0  1  0  0  0  0  0  0  0  0  0
   22.4754   -6.2884  -17.6321 C   0  0  0  0  0  0  0  0  0  0  0  0
   22.7978   -5.1607  -16.7278 C   0  0  0  0  0  0  0  0  0  0  0  0
   24.0527   -4.8605  -16.2040 C   0  0  0  0  0  0  0  0  0  0  0  0
   23.9033   -3.7650  -15.4408 N   0  0  0  0  0  0  0  0  0  0  0  0
   22.6192   -3.3829  -15.4736 C   0  0  0  0  0  0  0  0  0  0  0  0
   21.9509   -4.2393  -16.2608 N   0  0  0  0  0  0  0  0  0  0  0  0
   20.7785   -7.0308  -15.9537 C   0  0  0  0  0  0  0  0  0  0  0  0
   19.5803   -7.0472  -16.3574 O   0  0  0  0  0  0  0  0  0  0  0  0
   20.9982   -6.6463  -14.6460 O   0  0  0  0  0  0  0  0  0  0  0  0
  2  1  1  0
  3  2  1  0
  4  3  2  0
  5  3  1  0
  6 13  1  0
  6  5  1  0
  6  7  1  1
  8 12  1  0
  8  7  1  0
  9  8  2  0
 10  9  1  0
 10 11  1  0
 11 12  2  0
 13 15  1  0
 14 13  2  0
 15 16  1  0
 16 17  1  6
 16 23  1  0
 18 17  1  0
 19 18  2  0
 20 19  1  0
 21 20  1  0
 21 22  2  0
 22 18  1  0
 23 24  2  0
 23 25  1  0
M  END
$$$$
