GHH.pdb
     RDKit          3D

 25 26  0  0  1  0  0  0  0  0999 V2000
   24.8409  -14.3142  -19.7302 N   0  0  0  0  0  0  0  0  0  0  0  0
   23.4471  -14.5192  -19.4352 C   0  0  0  0  0  0  0  0  0  0  0  0
   23.2641  -15.8899  -18.9001 C   0  0  0  0  0  0  0  0  0  0  0  0
   22.9694  -16.8644  -19.6542 O   0  0  0  0  0  0  0  0  0  0  0  0
   23.4206  -16.1147  -17.5265 N   0  0  0  0  0  0  0  0  0  0  0  0
   23.1493  -17.5160  -17.0316 C   0  0  1  0  0  0  0  0  0  0  0  0
   24.2228  -17.7550  -16.0081 C   0  0  0  0  0  0  0  0  0  0  0  0
   25.5953  -17.9094  -16.4652 C   0  0  0  0  0  0  0  0  0  0  0  0
   26.0305  -17.8213  -17.8062 C   0  0  0  0  0  0  0  0  0  0  0  0
   27.3483  -18.0213  -17.7964 N   0  0  0  0  0  0  0  0  0  0  0  0
   27.7695  -18.2277  -16.5507 C   0  0  0  0  0  0  0  0  0  0  0  0
   26.7004  -18.1548  -15.7795 N   0  0  0  0  0  0  0  0  0  0  0  0
   21.7823  -17.3981  -16.4974 C   0  0  0  0  0  0  0  0  0  0  0  0
   21.3622  -16.2487  -16.1172 O   0  0  0  0  0  0  0  0  0  0  0  0
   20.9015  -18.4717  -16.3827 N   0  0  0  0  0  0  0  0  0  0  0  0
   19.4946  -18.3156  -15.9878 C   0  0  1  0  0  0  0  0  0  0  0  0
   18.8662  -17.4474  -17.0256 C   0  0  0  0  0  0  0  0  0  0  0  0
   17.4320  -17.2660  -16.7039 C   0  0  0  0  0  0  0  0  0  0  0  0
   16.8358  -16.0966  -16.2388 C   0  0  0  0  0  0  0  0  0  0  0  0
   15.5288  -16.3636  -16.0795 N   0  0  0  0  0  0  0  0  0  0  0  0
   15.2991  -17.6381  -16.4245 C   0  0  0  0  0  0  0  0  0  0  0  0
   16.4650  -18.1822  -16.8044 N   0  0  0  0  0  0  0  0  0  0  0  0
   18.8526  -19.6179  -15.7862 C   0  0  0  0  0  0  0  0  0  0  0  0
   19.1578  -20.6226  -16.4908 O   0  0  0  0  0  0  0  0  0  0  0  0
   17.8875  -19.7982  -14.8156 O   0  0  0  0  0  0  0  0  0  0  0  0
  2  1  1  0
  3  2  1  0
  4  3  2  0
  5  3  1  0
  6 13  1  0
  6  5  1  0
  6  7  1  1
  8 12  1  0
  8  7  1  0
  9  8  2  0
 10  9  1  0
 10 11  1  0
 11 12  2  0
 13 15  1  0
 14 13  2  0
 15 16  1  0
 16 17  1  6
 16 23  1  0
 18 17  1  0
 19 18  2  0
 20 19  1  0
 21 20  1  0
 21 22  2  0
 22 18  1  0
 23 24  2  0
 23 25  1  0
M  END
$$$$
