GHH.pdb
     RDKit          3D

 25 26  0  0  1  0  0  0  0  0999 V2000
   27.1953  -16.1418  -16.7932 N   0  0  0  0  0  0  0  0  0  0  0  0
   26.2415  -15.8544  -15.7543 C   0  0  0  0  0  0  0  0  0  0  0  0
   24.9925  -15.3487  -16.3729 C   0  0  0  0  0  0  0  0  0  0  0  0
   24.8774  -15.2182  -17.6279 O   0  0  0  0  0  0  0  0  0  0  0  0
   23.9115  -15.0061  -15.5506 N   0  0  0  0  0  0  0  0  0  0  0  0
   22.6505  -14.5443  -16.2424 C   0  0  1  0  0  0  0  0  0  0  0  0
   21.6217  -15.5635  -15.8428 C   0  0  0  0  0  0  0  0  0  0  0  0
   21.5807  -16.8271  -16.5626 C   0  0  0  0  0  0  0  0  0  0  0  0
   21.8965  -17.0068  -17.9277 C   0  0  0  0  0  0  0  0  0  0  0  0
   21.7334  -18.3029  -18.1924 N   0  0  0  0  0  0  0  0  0  0  0  0
   21.3395  -18.9468  -17.0961 C   0  0  0  0  0  0  0  0  0  0  0  0
   21.2576  -18.0393  -16.1407 N   0  0  0  0  0  0  0  0  0  0  0  0
   22.4597  -13.1987  -15.6759 C   0  0  0  0  0  0  0  0  0  0  0  0
   22.6339  -13.0251  -14.4183 O   0  0  0  0  0  0  0  0  0  0  0  0
   22.1023  -12.0845  -16.4326 N   0  0  0  0  0  0  0  0  0  0  0  0
   21.8263  -10.7683  -15.8402 C   0  0  1  0  0  0  0  0  0  0  0  0
   21.8839   -9.7876  -16.9629 C   0  0  0  0  0  0  0  0  0  0  0  0
   21.6768   -8.4226  -16.4270 C   0  0  0  0  0  0  0  0  0  0  0  0
   22.3858   -7.8334  -15.3833 C   0  0  0  0  0  0  0  0  0  0  0  0
   21.8842   -6.5975  -15.2217 N   0  0  0  0  0  0  0  0  0  0  0  0
   20.9043   -6.4047  -16.1155 C   0  0  0  0  0  0  0  0  0  0  0  0
   20.7836   -7.5225  -16.8473 N   0  0  0  0  0  0  0  0  0  0  0  0
   20.5722  -10.7806  -15.0812 C   0  0  0  0  0  0  0  0  0  0  0  0
   19.6018  -11.5180  -15.4180 O   0  0  0  0  0  0  0  0  0  0  0  0
   20.4024   -9.9855  -13.9654 O   0  0  0  0  0  0  0  0  0  0  0  0
  2  1  1  0
  3  2  1  0
  4  3  2  0
  5  3  1  0
  6 13  1  0
  6  5  1  0
  6  7  1  1
  8 12  1  0
  8  7  1  0
  9  8  2  0
 10  9  1  0
 10 11  1  0
 11 12  2  0
 13 15  1  0
 14 13  2  0
 15 16  1  0
 16 17  1  6
 16 23  1  0
 18 17  1  0
 19 18  2  0
 20 19  1  0
 21 20  1  0
 21 22  2  0
 22 18  1  0
 23 24  2  0
 23 25  1  0
M  END
$$$$
