GHH.pdb
     RDKit          3D

 25 26  0  0  1  0  0  0  0  0999 V2000
   21.2033  -32.1914  -10.9987 N   0  0  0  0  0  0  0  0  0  0  0  0
   22.3024  -31.4818  -10.3985 C   0  0  0  0  0  0  0  0  0  0  0  0
   23.3128  -32.4623   -9.9335 C   0  0  0  0  0  0  0  0  0  0  0  0
   23.1078  -33.7108   -9.9999 O   0  0  0  0  0  0  0  0  0  0  0  0
   24.5251  -31.9982   -9.4071 N   0  0  0  0  0  0  0  0  0  0  0  0
   25.5294  -33.0456   -8.9873 C   0  0  1  0  0  0  0  0  0  0  0  0
   26.7945  -32.6387   -9.6878 C   0  0  0  0  0  0  0  0  0  0  0  0
   26.9645  -33.0094  -11.0842 C   0  0  0  0  0  0  0  0  0  0  0  0
   26.0534  -33.7704  -11.8500 C   0  0  0  0  0  0  0  0  0  0  0  0
   26.5788  -33.8853  -13.0696 N   0  0  0  0  0  0  0  0  0  0  0  0
   27.7492  -33.2536  -13.1240 C   0  0  0  0  0  0  0  0  0  0  0  0
   27.9517  -32.7413  -11.9242 N   0  0  0  0  0  0  0  0  0  0  0  0
   25.5420  -32.8952   -7.5226 C   0  0  0  0  0  0  0  0  0  0  0  0
   25.1448  -31.7902   -7.0094 O   0  0  0  0  0  0  0  0  0  0  0  0
   25.9590  -33.8949   -6.6460 N   0  0  0  0  0  0  0  0  0  0  0  0
   25.7399  -33.8306   -5.1943 C   0  0  1  0  0  0  0  0  0  0  0  0
   24.2649  -33.7172   -5.0018 C   0  0  0  0  0  0  0  0  0  0  0  0
   23.9600  -33.7483   -3.5529 C   0  0  0  0  0  0  0  0  0  0  0  0
   24.8814  -33.6206   -2.5166 C   0  0  0  0  0  0  0  0  0  0  0  0
   24.1885  -33.7020   -1.3684 N   0  0  0  0  0  0  0  0  0  0  0  0
   22.8903  -33.8729   -1.6540 C   0  0  0  0  0  0  0  0  0  0  0  0
   22.7587  -33.9002   -2.9888 N   0  0  0  0  0  0  0  0  0  0  0  0
   26.3772  -34.9601   -4.5111 C   0  0  0  0  0  0  0  0  0  0  0  0
   26.4359  -36.1067   -5.0411 O   0  0  0  0  0  0  0  0  0  0  0  0
   26.9402  -34.8148   -3.2589 O   0  0  0  0  0  0  0  0  0  0  0  0
  2  1  1  0
  3  2  1  0
  4  3  2  0
  5  3  1  0
  6 13  1  0
  6  5  1  0
  6  7  1  6
  8 12  1  0
  8  7  1  0
  9  8  2  0
 10  9  1  0
 10 11  1  0
 11 12  2  0
 13 15  1  0
 14 13  2  0
 15 16  1  0
 16 17  1  6
 16 23  1  0
 18 17  1  0
 19 18  2  0
 20 19  1  0
 21 20  1  0
 21 22  2  0
 22 18  1  0
 23 24  2  0
 23 25  1  0
M  END
$$$$
