GHH.pdb
     RDKit          3D

 25 26  0  0  1  0  0  0  0  0999 V2000
   24.5601  -25.0248  -17.0486 N   0  0  0  0  0  0  0  0  0  0  0  0
   25.1645  -25.0699  -15.7430 C   0  0  0  0  0  0  0  0  0  0  0  0
   25.4928  -23.6885  -15.3157 C   0  0  0  0  0  0  0  0  0  0  0  0
   26.6542  -23.2047  -15.4644 O   0  0  0  0  0  0  0  0  0  0  0  0
   24.4948  -22.8972  -14.7328 N   0  0  0  0  0  0  0  0  0  0  0  0
   24.8640  -21.4695  -14.4052 C   0  0  1  0  0  0  0  0  0  0  0  0
   23.7423  -20.6596  -14.9909 C   0  0  0  0  0  0  0  0  0  0  0  0
   23.8595  -20.2061  -16.3682 C   0  0  0  0  0  0  0  0  0  0  0  0
   23.2004  -20.7753  -17.4805 C   0  0  0  0  0  0  0  0  0  0  0  0
   23.5745  -20.0726  -18.5496 N   0  0  0  0  0  0  0  0  0  0  0  0
   24.4174  -19.1074  -18.1896 C   0  0  0  0  0  0  0  0  0  0  0  0
   24.5676  -19.2130  -16.8822 N   0  0  0  0  0  0  0  0  0  0  0  0
   24.9246  -21.4934  -12.9343 C   0  0  0  0  0  0  0  0  0  0  0  0
   24.1184  -22.2554  -12.2929 O   0  0  0  0  0  0  0  0  0  0  0  0
   25.8201  -20.7333  -12.1846 N   0  0  0  0  0  0  0  0  0  0  0  0
   25.8611  -20.7608  -10.7159 C   0  0  1  0  0  0  0  0  0  0  0  0
   27.0722  -19.9847  -10.3200 C   0  0  0  0  0  0  0  0  0  0  0  0
   27.0948  -19.8374   -8.8465 C   0  0  0  0  0  0  0  0  0  0  0  0
   26.1391  -20.3229   -7.9576 C   0  0  0  0  0  0  0  0  0  0  0  0
   26.5430  -19.9747   -6.7244 N   0  0  0  0  0  0  0  0  0  0  0  0
   27.6978  -19.3009   -6.8182 C   0  0  0  0  0  0  0  0  0  0  0  0
   28.0281  -19.2211   -8.1159 N   0  0  0  0  0  0  0  0  0  0  0  0
   24.5978  -20.2894  -10.1410 C   0  0  0  0  0  0  0  0  0  0  0  0
   23.8914  -19.4159  -10.7215 O   0  0  0  0  0  0  0  0  0  0  0  0
   24.1289  -20.7832   -8.9400 O   0  0  0  0  0  0  0  0  0  0  0  0
  2  1  1  0
  3  2  1  0
  4  3  2  0
  5  3  1  0
  6 13  1  0
  6  5  1  0
  6  7  1  1
  8 12  1  0
  8  7  1  0
  9  8  2  0
 10  9  1  0
 10 11  1  0
 11 12  2  0
 13 15  1  0
 14 13  2  0
 15 16  1  0
 16 17  1  1
 16 23  1  0
 18 17  1  0
 19 18  2  0
 20 19  1  0
 21 20  1  0
 21 22  2  0
 22 18  1  0
 23 24  2  0
 23 25  1  0
M  END
$$$$
