QGW.pdb
     RDKit          3D

 28 29  0  0  1  0  0  0  0  0999 V2000
   30.2276  -23.1193  -18.5869 N   0  0  0  0  0  0  0  0  0  0  0  0
   29.2037  -22.6434  -19.4588 C   0  0  0  0  0  0  0  0  0  0  0  0
   29.3156  -22.7974  -20.7008 O   0  0  0  0  0  0  0  0  0  0  0  0
   28.0124  -21.9729  -18.8955 C   0  0  0  0  0  0  0  0  0  0  0  0
   27.9899  -21.7931  -17.4298 C   0  0  0  0  0  0  0  0  0  0  0  0
   27.0236  -22.6096  -16.6464 C   0  0  2  0  0  0  0  0  0  0  0  0
   25.6548  -22.4907  -16.9737 N   0  0  0  0  0  0  0  0  0  0  0  0
   27.3203  -22.5271  -15.1786 C   0  0  0  0  0  0  0  0  0  0  0  0
   28.5294  -22.5826  -14.8500 O   0  0  0  0  0  0  0  0  0  0  0  0
   26.3552  -22.3948  -14.1653 N   0  0  0  0  0  0  0  0  0  0  0  0
   26.6760  -22.1679  -12.7730 C   0  0  0  0  0  0  0  0  0  0  0  0
   25.4599  -21.8833  -11.9625 C   0  0  0  0  0  0  0  0  0  0  0  0
   25.5202  -21.8694  -10.7067 O   0  0  0  0  0  0  0  0  0  0  0  0
   24.2226  -21.6257  -12.6062 N   0  0  0  0  0  0  0  0  0  0  0  0
   23.1863  -20.7821  -12.0122 C   0  0  1  0  0  0  0  0  0  0  0  0
   23.6533  -19.3676  -12.1846 C   0  0  0  0  0  0  0  0  0  0  0  0
   24.0980  -18.9611  -13.5088 C   0  0  0  0  0  0  0  0  0  0  0  0
   23.2086  -18.7466  -14.5732 C   0  0  0  0  0  0  0  0  0  0  0  0
   23.9145  -18.4200  -15.6640 N   0  0  0  0  0  0  0  0  0  0  0  0
   25.2242  -18.4035  -15.3878 C   0  0  0  0  0  0  0  0  0  0  0  0
   26.3491  -18.1160  -16.1530 C   0  0  0  0  0  0  0  0  0  0  0  0
   27.6098  -18.1559  -15.5988 C   0  0  0  0  0  0  0  0  0  0  0  0
   27.7076  -18.4910  -14.2618 C   0  0  0  0  0  0  0  0  0  0  0  0
   26.6038  -18.7787  -13.4922 C   0  0  0  0  0  0  0  0  0  0  0  0
   25.3356  -18.7378  -14.0560 C   0  0  0  0  0  0  0  0  0  0  0  0
   21.8770  -20.9979  -12.5934 C   0  0  0  0  0  0  0  0  0  0  0  0
   21.7821  -21.8565  -13.7089 O   0  0  0  0  0  0  0  0  0  0  0  0
   20.8285  -20.4851  -12.1859 O   0  0  0  0  0  0  0  0  0  0  0  0
  2  1  1  0
  3  2  2  0
  4  2  1  0
  5  4  1  0
  6  5  1  0
  6  7  1  1
  8  6  1  0
  8  9  2  0
 10  8  1  0
 11 10  1  0
 11 12  1  0
 12 14  1  0
 13 12  2  0
 14 15  1  0
 15 26  1  0
 16 17  1  0
 15 16  1  6
 17 18  2  0
 19 18  1  0
 20 19  1  0
 21 20  2  0
 22 21  1  0
 23 22  2  0
 23 24  1  0
 24 25  2  0
 25 20  1  0
 25 17  1  0
 26 28  2  0
 26 27  1  0
M  END
$$$$
