QGW.pdb
     RDKit          3D

 28 29  0  0  1  0  0  0  0  0999 V2000
   25.9761  -17.3747  -19.0092 N   0  0  0  0  0  0  0  0  0  0  0  0
   25.7618  -16.1013  -18.4030 C   0  0  0  0  0  0  0  0  0  0  0  0
   24.9912  -15.2700  -18.9452 O   0  0  0  0  0  0  0  0  0  0  0  0
   26.4462  -15.7665  -17.1359 C   0  0  0  0  0  0  0  0  0  0  0  0
   27.3094  -16.8158  -16.5570 C   0  0  0  0  0  0  0  0  0  0  0  0
   26.6943  -17.7617  -15.5871 C   0  0  2  0  0  0  0  0  0  0  0  0
   25.6947  -17.2549  -14.7276 N   0  0  0  0  0  0  0  0  0  0  0  0
   27.7452  -18.5826  -14.9007 C   0  0  0  0  0  0  0  0  0  0  0  0
   28.9056  -18.5091  -15.3709 O   0  0  0  0  0  0  0  0  0  0  0  0
   27.5235  -19.4128  -13.7884 N   0  0  0  0  0  0  0  0  0  0  0  0
   28.5529  -20.2164  -13.1661 C   0  0  0  0  0  0  0  0  0  0  0  0
   28.0227  -21.0096  -12.0230 C   0  0  0  0  0  0  0  0  0  0  0  0
   28.7684  -21.8089  -11.4020 O   0  0  0  0  0  0  0  0  0  0  0  0
   26.6680  -20.8663  -11.6280 N   0  0  0  0  0  0  0  0  0  0  0  0
   26.2044  -21.1784  -10.2766 C   0  0  1  0  0  0  0  0  0  0  0  0
   27.0734  -20.3860   -9.3464 C   0  0  0  0  0  0  0  0  0  0  0  0
   26.7446  -20.4132   -7.9294 C   0  0  0  0  0  0  0  0  0  0  0  0
   25.4776  -20.7848   -7.4533 C   0  0  0  0  0  0  0  0  0  0  0  0
   25.4714  -20.6761   -6.1181 N   0  0  0  0  0  0  0  0  0  0  0  0
   26.6623  -20.2541   -5.6760 C   0  0  0  0  0  0  0  0  0  0  0  0
   27.1647  -20.0029   -4.4040 C   0  0  0  0  0  0  0  0  0  0  0  0
   28.4659  -19.5856   -4.2278 C   0  0  0  0  0  0  0  0  0  0  0  0
   29.2433  -19.4289   -5.3594 C   0  0  0  0  0  0  0  0  0  0  0  0
   28.7599  -19.6729   -6.6244 C   0  0  0  0  0  0  0  0  0  0  0  0
   27.4476  -20.0924   -6.7963 C   0  0  0  0  0  0  0  0  0  0  0  0
   24.7972  -20.8960  -10.0804 C   0  0  0  0  0  0  0  0  0  0  0  0
   24.2765  -19.7100  -10.6398 O   0  0  0  0  0  0  0  0  0  0  0  0
   24.0107  -21.6176   -9.4567 O   0  0  0  0  0  0  0  0  0  0  0  0
  2  1  1  0
  3  2  2  0
  4  2  1  0
  5  4  1  0
  6  5  1  0
  6  7  1  1
  8  6  1  0
  8  9  2  0
 10  8  1  0
 11 10  1  0
 11 12  1  0
 12 14  1  0
 13 12  2  0
 14 15  1  0
 15 26  1  0
 16 17  1  0
 15 16  1  1
 17 18  2  0
 19 18  1  0
 20 19  1  0
 21 20  2  0
 22 21  1  0
 23 22  2  0
 23 24  1  0
 24 25  2  0
 25 20  1  0
 25 17  1  0
 26 28  2  0
 26 27  1  0
M  END
$$$$
