QGW.pdb
     RDKit          3D

 28 29  0  0  1  0  0  0  0  0999 V2000
   12.7393  -23.4003    2.6854 N   0  0  0  0  0  0  0  0  0  0  0  0
   12.8566  -22.9976    1.3219 C   0  0  0  0  0  0  0  0  0  0  0  0
   12.6236  -23.8213    0.4021 O   0  0  0  0  0  0  0  0  0  0  0  0
   13.2493  -21.6096    0.9973 C   0  0  0  0  0  0  0  0  0  0  0  0
   13.5706  -20.7320    2.1408 C   0  0  0  0  0  0  0  0  0  0  0  0
   15.0063  -20.4747    2.4348 C   0  0  2  0  0  0  0  0  0  0  0  0
   15.8544  -21.5959    2.5705 N   0  0  0  0  0  0  0  0  0  0  0  0
   15.1549  -19.4492    3.5190 C   0  0  0  0  0  0  0  0  0  0  0  0
   14.7641  -18.2890    3.2467 O   0  0  0  0  0  0  0  0  0  0  0  0
   15.6919  -19.6940    4.7947 N   0  0  0  0  0  0  0  0  0  0  0  0
   15.7204  -18.7131    5.8576 C   0  0  0  0  0  0  0  0  0  0  0  0
   17.1128  -18.3573    6.2473 C   0  0  0  0  0  0  0  0  0  0  0  0
   18.0905  -18.9676    5.7451 O   0  0  0  0  0  0  0  0  0  0  0  0
   17.3431  -17.3239    7.1911 N   0  0  0  0  0  0  0  0  0  0  0  0
   18.6814  -16.9756    7.6668 C   0  0  1  0  0  0  0  0  0  0  0  0
   19.4141  -16.4266    6.4793 C   0  0  0  0  0  0  0  0  0  0  0  0
   19.1180  -15.0601    6.0770 C   0  0  0  0  0  0  0  0  0  0  0  0
   18.0148  -14.7295    5.2748 C   0  0  0  0  0  0  0  0  0  0  0  0
   18.0297  -13.4094    5.0464 N   0  0  0  0  0  0  0  0  0  0  0  0
   19.0795  -12.8404    5.6514 C   0  0  0  0  0  0  0  0  0  0  0  0
   19.5258  -11.5260    5.7343 C   0  0  0  0  0  0  0  0  0  0  0  0
   20.6537  -11.2072    6.4584 C   0  0  0  0  0  0  0  0  0  0  0  0
   21.3165  -12.2403    7.0930 C   0  0  0  0  0  0  0  0  0  0  0  0
   20.8873  -13.5456    7.0195 C   0  0  0  0  0  0  0  0  0  0  0  0
   19.7505  -13.8616    6.2877 C   0  0  0  0  0  0  0  0  0  0  0  0
   18.6645  -16.0430    8.7751 C   0  0  0  0  0  0  0  0  0  0  0  0
   19.8866  -15.7619    9.4216 O   0  0  0  0  0  0  0  0  0  0  0  0
   17.6559  -15.4698    9.2024 O   0  0  0  0  0  0  0  0  0  0  0  0
  2  1  1  0
  3  2  2  0
  4  2  1  0
  5  4  1  0
  6  5  1  0
  6  7  1  1
  8  6  1  0
  8  9  2  0
 10  8  1  0
 11 10  1  0
 11 12  1  0
 12 14  1  0
 13 12  2  0
 14 15  1  0
 15 26  1  0
 16 17  1  0
 15 16  1  6
 17 18  2  0
 19 18  1  0
 20 19  1  0
 21 20  2  0
 22 21  1  0
 23 22  2  0
 23 24  1  0
 24 25  2  0
 25 20  1  0
 25 17  1  0
 26 28  2  0
 26 27  1  0
M  END
$$$$
