QGW.pdb
     RDKit          3D

 28 29  0  0  1  0  0  0  0  0999 V2000
    9.6761  -14.0468    1.0775 N   0  0  0  0  0  0  0  0  0  0  0  0
   10.2286  -13.7147    2.3500 C   0  0  0  0  0  0  0  0  0  0  0  0
   10.9229  -12.6755    2.4808 O   0  0  0  0  0  0  0  0  0  0  0  0
    9.9786  -14.5947    3.5116 C   0  0  0  0  0  0  0  0  0  0  0  0
   11.1521  -14.9433    4.3378 C   0  0  0  0  0  0  0  0  0  0  0  0
   12.1001  -15.9572    3.8019 C   0  0  2  0  0  0  0  0  0  0  0  0
   11.5646  -17.2001    3.3979 N   0  0  0  0  0  0  0  0  0  0  0  0
   13.3201  -16.0591    4.6681 C   0  0  0  0  0  0  0  0  0  0  0  0
   13.6730  -15.0112    5.2601 O   0  0  0  0  0  0  0  0  0  0  0  0
   14.0810  -17.2256    4.8583 N   0  0  0  0  0  0  0  0  0  0  0  0
   15.3092  -17.2697    5.6213 C   0  0  0  0  0  0  0  0  0  0  0  0
   15.8530  -18.6525    5.7183 C   0  0  0  0  0  0  0  0  0  0  0  0
   15.3158  -19.5943    5.0820 O   0  0  0  0  0  0  0  0  0  0  0  0
   16.9843  -18.9142    6.5328 N   0  0  0  0  0  0  0  0  0  0  0  0
   17.6585  -20.2118    6.5508 C   0  0  1  0  0  0  0  0  0  0  0  0
   18.0855  -20.4772    5.1381 C   0  0  0  0  0  0  0  0  0  0  0  0
   17.5898  -21.6871    4.4999 C   0  0  0  0  0  0  0  0  0  0  0  0
   16.7185  -21.6601    3.3998 C   0  0  0  0  0  0  0  0  0  0  0  0
   16.4136  -22.9202    3.0621 N   0  0  0  0  0  0  0  0  0  0  0  0
   17.0325  -23.7864    3.8736 C   0  0  0  0  0  0  0  0  0  0  0  0
   17.0586  -25.1754    3.9319 C   0  0  0  0  0  0  0  0  0  0  0  0
   17.8148  -25.8288    4.8803 C   0  0  0  0  0  0  0  0  0  0  0  0
   18.5397  -25.0515    5.7632 C   0  0  0  0  0  0  0  0  0  0  0  0
   18.5232  -23.6763    5.7183 C   0  0  0  0  0  0  0  0  0  0  0  0
   17.7588  -23.0228    4.7609 C   0  0  0  0  0  0  0  0  0  0  0  0
   18.7733  -20.2590    7.4746 C   0  0  0  0  0  0  0  0  0  0  0  0
   19.3312  -19.0351    7.9007 O   0  0  0  0  0  0  0  0  0  0  0  0
   19.2782  -21.2948    7.9222 O   0  0  0  0  0  0  0  0  0  0  0  0
  2  1  1  0
  3  2  2  0
  4  2  1  0
  5  4  1  0
  6  5  1  0
  6  7  1  1
  8  6  1  0
  8  9  2  0
 10  8  1  0
 11 10  1  0
 11 12  1  0
 12 14  1  0
 13 12  2  0
 14 15  1  0
 15 26  1  0
 16 17  1  0
 15 16  1  6
 17 18  2  0
 19 18  1  0
 20 19  1  0
 21 20  2  0
 22 21  1  0
 23 22  2  0
 23 24  1  0
 24 25  2  0
 25 20  1  0
 25 17  1  0
 26 28  2  0
 26 27  1  0
M  END
$$$$
