QGW.pdb
     RDKit          3D

 28 29  0  0  1  0  0  0  0  0999 V2000
   25.2150  -20.9901  -17.9671 N   0  0  0  0  0  0  0  0  0  0  0  0
   24.6843  -22.3131  -18.0230 C   0  0  0  0  0  0  0  0  0  0  0  0
   24.7533  -22.9722  -19.0905 O   0  0  0  0  0  0  0  0  0  0  0  0
   24.0573  -22.9043  -16.8216 C   0  0  0  0  0  0  0  0  0  0  0  0
   24.1701  -22.1275  -15.5706 C   0  0  0  0  0  0  0  0  0  0  0  0
   25.4921  -22.1015  -14.8881 C   0  0  2  0  0  0  0  0  0  0  0  0
   26.1300  -23.3402  -14.6566 N   0  0  0  0  0  0  0  0  0  0  0  0
   25.4627  -21.1869  -13.6999 C   0  0  0  0  0  0  0  0  0  0  0  0
   25.0450  -20.0219  -13.9030 O   0  0  0  0  0  0  0  0  0  0  0  0
   25.8636  -21.5385  -12.3994 N   0  0  0  0  0  0  0  0  0  0  0  0
   24.9530  -21.9958  -11.3725 C   0  0  0  0  0  0  0  0  0  0  0  0
   23.7229  -21.1592  -11.3088 C   0  0  0  0  0  0  0  0  0  0  0  0
   23.5185  -20.4007  -10.3272 O   0  0  0  0  0  0  0  0  0  0  0  0
   22.7722  -21.2146  -12.3598 N   0  0  0  0  0  0  0  0  0  0  0  0
   21.4921  -20.5099  -12.3020 C   0  0  1  0  0  0  0  0  0  0  0  0
   21.6151  -19.3482  -13.2421 C   0  0  0  0  0  0  0  0  0  0  0  0
   21.6251  -19.6336  -14.6687 C   0  0  0  0  0  0  0  0  0  0  0  0
   20.6854  -20.4797  -15.2779 C   0  0  0  0  0  0  0  0  0  0  0  0
   20.9741  -20.5737  -16.5828 N   0  0  0  0  0  0  0  0  0  0  0  0
   22.0523  -19.8378  -16.8791 C   0  0  0  0  0  0  0  0  0  0  0  0
   22.7323  -19.5910  -18.0666 C   0  0  0  0  0  0  0  0  0  0  0  0
   23.8278  -18.7558  -18.0931 C   0  0  0  0  0  0  0  0  0  0  0  0
   24.2182  -18.1791  -16.8996 C   0  0  0  0  0  0  0  0  0  0  0  0
   23.5558  -18.4144  -15.7167 C   0  0  0  0  0  0  0  0  0  0  0  0
   22.4529  -19.2576  -15.6955 C   0  0  0  0  0  0  0  0  0  0  0  0
   20.3631  -21.3569  -12.6278 C   0  0  0  0  0  0  0  0  0  0  0  0
   20.6285  -22.6469  -13.1340 O   0  0  0  0  0  0  0  0  0  0  0  0
   19.1764  -21.0361  -12.4964 O   0  0  0  0  0  0  0  0  0  0  0  0
  2  1  1  0
  3  2  2  0
  4  2  1  0
  5  4  1  0
  6  5  1  0
  6  7  1  1
  8  6  1  0
  8  9  2  0
 10  8  1  0
 11 10  1  0
 11 12  1  0
 12 14  1  0
 13 12  2  0
 14 15  1  0
 15 26  1  0
 16 17  1  0
 15 16  1  6
 17 18  2  0
 19 18  1  0
 20 19  1  0
 21 20  2  0
 22 21  1  0
 23 22  2  0
 23 24  1  0
 24 25  2  0
 25 20  1  0
 25 17  1  0
 26 28  2  0
 26 27  1  0
M  END
$$$$
