QGW.pdb
     RDKit          3D

 28 29  0  0  1  0  0  0  0  0999 V2000
   24.2813  -17.6693  -16.2565 N   0  0  0  0  0  0  0  0  0  0  0  0
   23.3923  -18.7847  -16.2271 C   0  0  0  0  0  0  0  0  0  0  0  0
   22.3751  -18.7570  -15.4900 O   0  0  0  0  0  0  0  0  0  0  0  0
   23.6713  -19.9685  -17.0678 C   0  0  0  0  0  0  0  0  0  0  0  0
   24.9347  -19.9497  -17.8324 C   0  0  0  0  0  0  0  0  0  0  0  0
   25.8860  -21.0751  -17.6264 C   0  0  2  0  0  0  0  0  0  0  0  0
   25.3609  -22.3859  -17.6583 N   0  0  0  0  0  0  0  0  0  0  0  0
   26.7974  -20.7997  -16.4677 C   0  0  0  0  0  0  0  0  0  0  0  0
   27.3467  -19.6724  -16.4459 O   0  0  0  0  0  0  0  0  0  0  0  0
   27.0735  -21.7006  -15.4248 N   0  0  0  0  0  0  0  0  0  0  0  0
   27.8091  -21.3478  -14.2301 C   0  0  0  0  0  0  0  0  0  0  0  0
   26.9655  -21.4527  -13.0076 C   0  0  0  0  0  0  0  0  0  0  0  0
   25.7577  -21.7907  -13.0942 O   0  0  0  0  0  0  0  0  0  0  0  0
   27.5233  -21.1704  -11.7345 N   0  0  0  0  0  0  0  0  0  0  0  0
   26.7328  -21.1979  -10.5045 C   0  0  1  0  0  0  0  0  0  0  0  0
   27.7102  -21.0345   -9.3792 C   0  0  0  0  0  0  0  0  0  0  0  0
   27.1831  -20.6501   -8.0788 C   0  0  0  0  0  0  0  0  0  0  0  0
   25.8232  -20.7629   -7.7499 C   0  0  0  0  0  0  0  0  0  0  0  0
   25.6421  -20.2997   -6.5059 N   0  0  0  0  0  0  0  0  0  0  0  0
   26.8038  -19.8851   -5.9858 C   0  0  0  0  0  0  0  0  0  0  0  0
   27.1495  -19.3487   -4.7504 C   0  0  0  0  0  0  0  0  0  0  0  0
   28.4564  -19.0201   -4.4635 C   0  0  0  0  0  0  0  0  0  0  0  0
   29.4004  -19.2446   -5.4473 C   0  0  0  0  0  0  0  0  0  0  0  0
   29.0733  -19.7740   -6.6745 C   0  0  0  0  0  0  0  0  0  0  0  0
   27.7545  -20.1026   -6.9587 C   0  0  0  0  0  0  0  0  0  0  0  0
   25.6945  -20.1882  -10.4749 C   0  0  0  0  0  0  0  0  0  0  0  0
   24.4230  -20.5611   -9.9903 O   0  0  0  0  0  0  0  0  0  0  0  0
   25.8359  -19.0167  -10.8437 O   0  0  0  0  0  0  0  0  0  0  0  0
  2  1  1  0
  3  2  2  0
  4  2  1  0
  5  4  1  0
  6  5  1  0
  6  7  1  1
  8  6  1  0
  8  9  2  0
 10  8  1  0
 11 10  1  0
 11 12  1  0
 12 14  1  0
 13 12  2  0
 14 15  1  0
 15 26  1  0
 16 17  1  0
 15 16  1  1
 17 18  2  0
 19 18  1  0
 20 19  1  0
 21 20  2  0
 22 21  1  0
 23 22  2  0
 23 24  1  0
 24 25  2  0
 25 20  1  0
 25 17  1  0
 26 28  2  0
 26 27  1  0
M  END
$$$$
