QGW.pdb
     RDKit          3D

 28 29  0  0  1  0  0  0  0  0999 V2000
   31.0131  -23.5885  -18.3343 N   0  0  0  0  0  0  0  0  0  0  0  0
   30.7672  -24.7531  -19.1205 C   0  0  0  0  0  0  0  0  0  0  0  0
   31.7313  -25.4210  -19.5712 O   0  0  0  0  0  0  0  0  0  0  0  0
   29.3765  -25.1709  -19.3991 C   0  0  0  0  0  0  0  0  0  0  0  0
   28.3141  -24.4504  -18.6689 C   0  0  0  0  0  0  0  0  0  0  0  0
   28.1971  -24.6868  -17.2045 C   0  0  2  0  0  0  0  0  0  0  0  0
   28.1315  -26.0273  -16.7645 N   0  0  0  0  0  0  0  0  0  0  0  0
   27.1655  -23.7831  -16.5975 C   0  0  0  0  0  0  0  0  0  0  0  0
   27.4429  -22.5603  -16.5688 O   0  0  0  0  0  0  0  0  0  0  0  0
   25.9332  -24.2041  -16.0685 N   0  0  0  0  0  0  0  0  0  0  0  0
   24.9646  -23.3088  -15.4742 C   0  0  0  0  0  0  0  0  0  0  0  0
   25.2601  -23.0449  -14.0389 C   0  0  0  0  0  0  0  0  0  0  0  0
   26.2761  -23.5475  -13.4949 O   0  0  0  0  0  0  0  0  0  0  0  0
   24.3929  -22.2219  -13.2758 N   0  0  0  0  0  0  0  0  0  0  0  0
   24.7547  -21.7075  -11.9556 C   0  0  1  0  0  0  0  0  0  0  0  0
   25.9748  -20.8603  -12.1604 C   0  0  0  0  0  0  0  0  0  0  0  0
   25.9010  -19.8012  -13.1552 C   0  0  0  0  0  0  0  0  0  0  0  0
   24.7748  -18.9762  -13.3003 C   0  0  0  0  0  0  0  0  0  0  0  0
   24.9908  -18.1287  -14.3151 N   0  0  0  0  0  0  0  0  0  0  0  0
   26.1973  -18.3406  -14.8548 C   0  0  0  0  0  0  0  0  0  0  0  0
   26.8882  -17.7313  -15.8964 C   0  0  0  0  0  0  0  0  0  0  0  0
   28.1571  -18.1442  -16.2395 C   0  0  0  0  0  0  0  0  0  0  0  0
   28.7087  -19.1804  -15.5107 C   0  0  0  0  0  0  0  0  0  0  0  0
   28.0371  -19.7934  -14.4779 C   0  0  0  0  0  0  0  0  0  0  0  0
   26.7582  -19.3740  -14.1368 C   0  0  0  0  0  0  0  0  0  0  0  0
   23.6811  -20.9715  -11.3199 C   0  0  0  0  0  0  0  0  0  0  0  0
   23.9116  -20.4473  -10.0305 O   0  0  0  0  0  0  0  0  0  0  0  0
   22.5704  -20.7649  -11.8221 O   0  0  0  0  0  0  0  0  0  0  0  0
  2  1  1  0
  3  2  2  0
  4  2  1  0
  5  4  1  0
  6  5  1  0
  6  7  1  6
  8  6  1  0
  8  9  2  0
 10  8  1  0
 11 10  1  0
 11 12  1  0
 12 14  1  0
 13 12  2  0
 14 15  1  0
 15 26  1  0
 16 17  1  0
 15 16  1  6
 17 18  2  0
 19 18  1  0
 20 19  1  0
 21 20  2  0
 22 21  1  0
 23 22  2  0
 23 24  1  0
 24 25  2  0
 25 20  1  0
 25 17  1  0
 26 28  2  0
 26 27  1  0
M  END
$$$$
