QGW.pdb
     RDKit          3D

 28 29  0  0  1  0  0  0  0  0999 V2000
   24.9102  -29.5100  -16.6515 N   0  0  0  0  0  0  0  0  0  0  0  0
   26.1163  -30.2591  -16.5135 C   0  0  0  0  0  0  0  0  0  0  0  0
   26.1140  -31.3396  -15.8720 O   0  0  0  0  0  0  0  0  0  0  0  0
   27.3647  -29.7612  -17.1297 C   0  0  0  0  0  0  0  0  0  0  0  0
   27.2672  -28.4945  -17.8828 C   0  0  0  0  0  0  0  0  0  0  0  0
   28.2452  -27.4203  -17.5612 C   0  0  2  0  0  0  0  0  0  0  0  0
   29.1198  -27.6398  -16.4741 N   0  0  0  0  0  0  0  0  0  0  0  0
   27.5818  -26.0752  -17.5622 C   0  0  0  0  0  0  0  0  0  0  0  0
   26.6063  -25.9350  -18.3379 O   0  0  0  0  0  0  0  0  0  0  0  0
   27.9708  -24.9818  -16.7692 N   0  0  0  0  0  0  0  0  0  0  0  0
   27.3085  -23.6958  -16.7912 C   0  0  0  0  0  0  0  0  0  0  0  0
   26.3444  -23.5487  -15.6661 C   0  0  0  0  0  0  0  0  0  0  0  0
   26.0614  -24.5329  -14.9369 O   0  0  0  0  0  0  0  0  0  0  0  0
   25.7383  -22.2920  -15.4111 N   0  0  0  0  0  0  0  0  0  0  0  0
   24.8764  -22.0535  -14.2540 C   0  0  1  0  0  0  0  0  0  0  0  0
   25.4356  -20.8467  -13.5617 C   0  0  0  0  0  0  0  0  0  0  0  0
   25.5835  -19.6288  -14.3438 C   0  0  0  0  0  0  0  0  0  0  0  0
   24.5401  -18.7049  -14.5104 C   0  0  0  0  0  0  0  0  0  0  0  0
   24.9662  -17.7141  -15.3051 N   0  0  0  0  0  0  0  0  0  0  0  0
   26.2347  -17.9239  -15.6776 C   0  0  0  0  0  0  0  0  0  0  0  0
   27.1210  -17.1999  -16.4674 C   0  0  0  0  0  0  0  0  0  0  0  0
   28.4078  -17.6459  -16.6762 C   0  0  0  0  0  0  0  0  0  0  0  0
   28.7764  -18.8330  -16.0726 C   0  0  0  0  0  0  0  0  0  0  0  0
   27.9103  -19.5606  -15.2892 C   0  0  0  0  0  0  0  0  0  0  0  0
   26.6144  -19.1070  -15.0826 C   0  0  0  0  0  0  0  0  0  0  0  0
   23.4832  -21.8799  -14.6107 C   0  0  0  0  0  0  0  0  0  0  0  0
   22.5250  -21.9264  -13.5762 O   0  0  0  0  0  0  0  0  0  0  0  0
   23.0646  -21.6929  -15.7588 O   0  0  0  0  0  0  0  0  0  0  0  0
  2  1  1  0
  3  2  2  0
  4  2  1  0
  5  4  1  0
  6  5  1  0
  6  7  1  1
  8  6  1  0
  8  9  2  0
 10  8  1  0
 11 10  1  0
 11 12  1  0
 12 14  1  0
 13 12  2  0
 14 15  1  0
 15 26  1  0
 16 17  1  0
 15 16  1  6
 17 18  2  0
 19 18  1  0
 20 19  1  0
 21 20  2  0
 22 21  1  0
 23 22  2  0
 23 24  1  0
 24 25  2  0
 25 20  1  0
 25 17  1  0
 26 28  2  0
 26 27  1  0
M  END
$$$$
