QGW.pdb
     RDKit          3D

 28 29  0  0  1  0  0  0  0  0999 V2000
   26.3204  -18.5624  -19.5763 N   0  0  0  0  0  0  0  0  0  0  0  0
   25.0791  -19.1825  -19.2448 C   0  0  0  0  0  0  0  0  0  0  0  0
   24.2480  -19.4460  -20.1496 O   0  0  0  0  0  0  0  0  0  0  0  0
   24.7775  -19.5156  -17.8362 C   0  0  0  0  0  0  0  0  0  0  0  0
   25.8050  -19.1521  -16.8395 C   0  0  0  0  0  0  0  0  0  0  0  0
   26.7347  -20.2200  -16.3819 C   0  0  2  0  0  0  0  0  0  0  0  0
   26.3421  -21.5600  -16.5940 N   0  0  0  0  0  0  0  0  0  0  0  0
   27.2402  -19.9327  -14.9995 C   0  0  0  0  0  0  0  0  0  0  0  0
   27.2237  -18.7318  -14.6379 O   0  0  0  0  0  0  0  0  0  0  0  0
   27.7224  -20.8978  -14.0986 N   0  0  0  0  0  0  0  0  0  0  0  0
   28.0200  -20.6245  -12.7095 C   0  0  0  0  0  0  0  0  0  0  0  0
   26.9022  -21.0282  -11.8125 C   0  0  0  0  0  0  0  0  0  0  0  0
   25.7733  -21.3099  -12.2887 O   0  0  0  0  0  0  0  0  0  0  0  0
   27.1070  -21.0969  -10.4107 N   0  0  0  0  0  0  0  0  0  0  0  0
   26.0777  -21.5715   -9.4867 C   0  0  1  0  0  0  0  0  0  0  0  0
   26.7718  -21.8091   -8.1789 C   0  0  0  0  0  0  0  0  0  0  0  0
   27.2747  -20.6475   -7.4617 C   0  0  0  0  0  0  0  0  0  0  0  0
   27.0184  -19.3317   -7.8778 C   0  0  0  0  0  0  0  0  0  0  0  0
   27.6397  -18.4882   -7.0427 N   0  0  0  0  0  0  0  0  0  0  0  0
   28.2953  -19.1662   -6.0927 C   0  0  0  0  0  0  0  0  0  0  0  0
   29.0634  -18.7669   -5.0046 C   0  0  0  0  0  0  0  0  0  0  0  0
   29.6194  -19.6965   -4.1531 C   0  0  0  0  0  0  0  0  0  0  0  0
   29.3830  -21.0306   -4.4244 C   0  0  0  0  0  0  0  0  0  0  0  0
   28.6257  -21.4408   -5.4976 C   0  0  0  0  0  0  0  0  0  0  0  0
   28.0684  -20.4998   -6.3530 C   0  0  0  0  0  0  0  0  0  0  0  0
   24.9666  -20.6515   -9.3542 C   0  0  0  0  0  0  0  0  0  0  0  0
   25.0745  -19.3903   -9.9773 O   0  0  0  0  0  0  0  0  0  0  0  0
   23.9236  -20.8862   -8.7335 O   0  0  0  0  0  0  0  0  0  0  0  0
  2  1  1  0
  3  2  2  0
  4  2  1  0
  5  4  1  0
  6  5  1  0
  6  7  1  1
  8  6  1  0
  8  9  2  0
 10  8  1  0
 11 10  1  0
 11 12  1  0
 12 14  1  0
 13 12  2  0
 14 15  1  0
 15 26  1  0
 16 17  1  0
 15 16  1  1
 17 18  2  0
 19 18  1  0
 20 19  1  0
 21 20  2  0
 22 21  1  0
 23 22  2  0
 23 24  1  0
 24 25  2  0
 25 20  1  0
 25 17  1  0
 26 28  2  0
 26 27  1  0
M  END
$$$$
