QGW.pdb
     RDKit          3D

 28 29  0  0  1  0  0  0  0  0999 V2000
   26.1755  -21.3552  -19.8724 N   0  0  0  0  0  0  0  0  0  0  0  0
   25.6808  -22.1345  -18.7847 C   0  0  0  0  0  0  0  0  0  0  0  0
   25.1564  -23.2552  -19.0031 O   0  0  0  0  0  0  0  0  0  0  0  0
   25.7907  -21.6199  -17.4029 C   0  0  0  0  0  0  0  0  0  0  0  0
   26.4758  -20.3222  -17.2365 C   0  0  0  0  0  0  0  0  0  0  0  0
   27.7910  -20.3172  -16.5406 C   0  0  2  0  0  0  0  0  0  0  0  0
   28.6782  -21.3807  -16.8174 N   0  0  0  0  0  0  0  0  0  0  0  0
   27.6231  -20.0128  -15.0817 C   0  0  0  0  0  0  0  0  0  0  0  0
   26.6468  -19.2890  -14.7718 O   0  0  0  0  0  0  0  0  0  0  0  0
   28.4684  -20.4734  -14.0576 N   0  0  0  0  0  0  0  0  0  0  0  0
   28.3454  -20.0750  -12.6724 C   0  0  0  0  0  0  0  0  0  0  0  0
   27.3165  -20.8762  -11.9537 C   0  0  0  0  0  0  0  0  0  0  0  0
   26.7127  -21.8103  -12.5398 O   0  0  0  0  0  0  0  0  0  0  0  0
   27.0117  -20.5878  -10.5988 N   0  0  0  0  0  0  0  0  0  0  0  0
   26.1140  -21.4203   -9.7990 C   0  0  1  0  0  0  0  0  0  0  0  0
   26.8160  -21.6531   -8.4947 C   0  0  0  0  0  0  0  0  0  0  0  0
   27.2073  -20.4844   -7.7216 C   0  0  0  0  0  0  0  0  0  0  0  0
   26.8619  -19.1772   -8.0985 C   0  0  0  0  0  0  0  0  0  0  0  0
   27.3925  -18.3209   -7.2153 N   0  0  0  0  0  0  0  0  0  0  0  0
   28.0716  -18.9822   -6.2702 C   0  0  0  0  0  0  0  0  0  0  0  0
   28.7758  -18.5670   -5.1454 C   0  0  0  0  0  0  0  0  0  0  0  0
   29.3778  -19.4829   -4.3106 C   0  0  0  0  0  0  0  0  0  0  0  0
   29.2529  -20.8199   -4.6362 C   0  0  0  0  0  0  0  0  0  0  0  0
   28.5600  -21.2459   -5.7461 C   0  0  0  0  0  0  0  0  0  0  0  0
   27.9558  -20.3186   -6.5844 C   0  0  0  0  0  0  0  0  0  0  0  0
   24.8049  -20.8278   -9.6148 C   0  0  0  0  0  0  0  0  0  0  0  0
   23.8343  -21.5738   -8.9135 O   0  0  0  0  0  0  0  0  0  0  0  0
   24.4688  -19.7117  -10.0267 O   0  0  0  0  0  0  0  0  0  0  0  0
  2  1  1  0
  3  2  2  0
  4  2  1  0
  5  4  1  0
  6  5  1  0
  6  7  1  1
  8  6  1  0
  8  9  2  0
 10  8  1  0
 11 10  1  0
 11 12  1  0
 12 14  1  0
 13 12  2  0
 14 15  1  0
 15 26  1  0
 16 17  1  0
 15 16  1  1
 17 18  2  0
 19 18  1  0
 20 19  1  0
 21 20  2  0
 22 21  1  0
 23 22  2  0
 23 24  1  0
 24 25  2  0
 25 20  1  0
 25 17  1  0
 26 28  2  0
 26 27  1  0
M  END
$$$$
