KDT.pdb
     RDKit          3D

 25 24  0  0  1  0  0  0  0  0999 V2000
   18.5932  -26.6886   -9.7638 N   0  0  0  0  0  0  0  0  0  0  0  0
   18.6231  -25.6242   -8.7897 C   0  0  1  0  0  0  0  0  0  0  0  0
   18.2093  -24.3067   -9.3756 C   0  0  0  0  0  0  0  0  0  0  0  0
   19.1648  -23.8291  -10.4436 C   0  0  0  0  0  0  0  0  0  0  0  0
   18.4647  -23.0729  -11.5357 C   0  0  0  0  0  0  0  0  0  0  0  0
   19.3987  -22.6388  -12.6399 C   0  0  0  0  0  0  0  0  0  0  0  0
   18.7092  -21.7739  -13.5774 N   0  0  0  0  0  0  0  0  0  0  0  0
   17.8057  -25.9935   -7.6061 C   0  0  0  0  0  0  0  0  0  0  0  0
   16.7171  -26.6053   -7.7414 O   0  0  0  0  0  0  0  0  0  0  0  0
   18.2508  -25.6577   -6.3277 N   0  0  0  0  0  0  0  0  0  0  0  0
   17.4611  -26.0321   -5.0896 C   0  0  1  0  0  0  0  0  0  0  0  0
   18.5538  -26.1839   -4.0789 C   0  0  0  0  0  0  0  0  0  0  0  0
   18.1944  -26.4993   -2.7125 C   0  0  0  0  0  0  0  0  0  0  0  0
   17.0558  -26.6904   -2.2725 O   0  0  0  0  0  0  0  0  0  0  0  0
   16.5677  -24.8927   -4.9072 C   0  0  0  0  0  0  0  0  0  0  0  0
   17.0100  -23.7196   -5.1248 O   0  0  0  0  0  0  0  0  0  0  0  0
   19.2322  -26.6076   -1.7522 O   0  0  0  0  0  0  0  0  0  0  0  0
   12.1143  -22.9593   -4.7875 C   0  0  0  0  0  0  0  0  0  0  0  0
   13.0969  -24.0674   -5.0291 C   0  0  1  0  0  0  0  0  0  0  0  0
   13.3025  -24.2089   -6.3988 O   0  0  0  0  0  0  0  0  0  0  0  0
   14.4158  -23.7747   -4.3342 C   0  0  2  0  0  0  0  0  0  0  0  0
   15.2366  -24.9874   -4.5093 N   0  0  0  0  0  0  0  0  0  0  0  0
   14.2336  -23.5377   -2.8884 C   0  0  0  0  0  0  0  0  0  0  0  0
   14.2191  -22.3964   -2.3885 O   0  0  0  0  0  0  0  0  0  0  0  0
   14.0681  -24.6047   -2.0130 O   0  0  0  0  0  0  0  0  0  0  0  0
  2  1  1  6
  3  2  1  0
  4  3  1  0
  5  6  1  0
  5  4  1  0
  6  7  1  0
  8  9  2  0
  8  2  1  0
 10  8  1  0
 11 10  1  0
 12 13  1  0
 11 12  1  1
 13 17  1  0
 14 13  2  0
 15 16  2  0
 15 11  1  0
 19 21  1  0
 19 18  1  6
 20 19  1  0
 21 22  1  1
 22 15  1  0
 23 21  1  0
 24 23  2  0
 25 23  1  0
M  END
$$$$
