KDT.pdb
     RDKit          3D

 25 24  0  0  1  0  0  0  0  0999 V2000
   17.5971  -13.6072  -15.4858 N   0  0  0  0  0  0  0  0  0  0  0  0
   17.4215  -12.3515  -16.1752 C   0  0  1  0  0  0  0  0  0  0  0  0
   16.0226  -12.1759  -16.6874 C   0  0  0  0  0  0  0  0  0  0  0  0
   15.3942  -13.4866  -17.0987 C   0  0  0  0  0  0  0  0  0  0  0  0
   13.9595  -13.3244  -17.5109 C   0  0  0  0  0  0  0  0  0  0  0  0
   13.3251  -14.6229  -17.9487 C   0  0  0  0  0  0  0  0  0  0  0  0
   11.9825  -14.3901  -18.4446 N   0  0  0  0  0  0  0  0  0  0  0  0
   17.8445  -11.2273  -15.3018 C   0  0  0  0  0  0  0  0  0  0  0  0
   17.4770  -11.1709  -14.1021 O   0  0  0  0  0  0  0  0  0  0  0  0
   18.6601  -10.2208  -15.8185 N   0  0  0  0  0  0  0  0  0  0  0  0
   19.1587   -9.0816  -14.9522 C   0  0  1  0  0  0  0  0  0  0  0  0
   20.6330   -9.3358  -14.9525 C   0  0  0  0  0  0  0  0  0  0  0  0
   21.4834   -8.4811  -14.1512 C   0  0  0  0  0  0  0  0  0  0  0  0
   21.1275   -7.5155  -13.4673 O   0  0  0  0  0  0  0  0  0  0  0  0
   18.7087   -7.8944  -15.6716 C   0  0  0  0  0  0  0  0  0  0  0  0
   18.9866   -7.7788  -16.9080 O   0  0  0  0  0  0  0  0  0  0  0  0
   22.8753   -8.7510  -14.1256 O   0  0  0  0  0  0  0  0  0  0  0  0
   15.2861   -6.3608  -16.2142 C   0  0  0  0  0  0  0  0  0  0  0  0
   16.1890   -5.3474  -15.5741 C   0  0  1  0  0  0  0  0  0  0  0  0
   15.9879   -5.3579  -14.1965 O   0  0  0  0  0  0  0  0  0  0  0  0
   17.6438   -5.6521  -15.8883 C   0  0  2  0  0  0  0  0  0  0  0  0
   17.9781   -6.8545  -15.1024 N   0  0  0  0  0  0  0  0  0  0  0  0
   18.5376   -4.5548  -15.4677 C   0  0  0  0  0  0  0  0  0  0  0  0
   19.3060   -4.6476  -14.4911 O   0  0  0  0  0  0  0  0  0  0  0  0
   18.5538   -3.3511  -16.1625 O   0  0  0  0  0  0  0  0  0  0  0  0
  2  1  1  1
  3  2  1  0
  4  3  1  0
  5  6  1  0
  5  4  1  0
  6  7  1  0
  8  9  2  0
  8  2  1  0
 10  8  1  0
 11 10  1  0
 12 13  1  0
 11 12  1  6
 13 17  1  0
 14 13  2  0
 15 16  2  0
 15 11  1  0
 19 21  1  0
 19 18  1  6
 20 19  1  0
 21 22  1  1
 22 15  1  0
 23 21  1  0
 24 23  2  0
 25 23  1  0
M  END
$$$$
