KDT.pdb
     RDKit          3D

 25 24  0  0  1  0  0  0  0  0999 V2000
   25.0578  -21.3545  -10.9008 N   0  0  0  0  0  0  0  0  0  0  0  0
   23.8429  -21.0972  -11.6360 C   0  0  1  0  0  0  0  0  0  0  0  0
   22.7554  -20.5477  -10.7610 C   0  0  0  0  0  0  0  0  0  0  0  0
   22.0606  -21.6269   -9.9643 C   0  0  0  0  0  0  0  0  0  0  0  0
   20.9075  -21.0908   -9.1660 C   0  0  0  0  0  0  0  0  0  0  0  0
   20.3083  -22.1201   -8.2378 C   0  0  0  0  0  0  0  0  0  0  0  0
   21.2634  -22.4979   -7.2143 N   0  0  0  0  0  0  0  0  0  0  0  0
   24.1269  -20.2167  -12.7977 C   0  0  0  0  0  0  0  0  0  0  0  0
   25.0702  -19.3881  -12.7617 O   0  0  0  0  0  0  0  0  0  0  0  0
   23.3377  -20.3097  -13.9439 N   0  0  0  0  0  0  0  0  0  0  0  0
   23.6562  -19.5121  -15.1925 C   0  0  1  0  0  0  0  0  0  0  0  0
   23.9007  -20.6049  -16.1847 C   0  0  0  0  0  0  0  0  0  0  0  0
   24.0622  -20.2510  -17.5791 C   0  0  0  0  0  0  0  0  0  0  0  0
   24.9351  -19.5211  -18.0606 O   0  0  0  0  0  0  0  0  0  0  0  0
   22.4507  -18.7150  -15.3951 C   0  0  0  0  0  0  0  0  0  0  0  0
   21.3226  -19.2079  -15.0730 O   0  0  0  0  0  0  0  0  0  0  0  0
   23.1398  -20.7789  -18.5180 O   0  0  0  0  0  0  0  0  0  0  0  0
   22.6076  -14.7687  -16.6862 C   0  0  0  0  0  0  0  0  0  0  0  0
   21.4826  -15.2400  -15.8119 C   0  0  1  0  0  0  0  0  0  0  0  0
   20.3580  -14.4534  -16.0461 O   0  0  0  0  0  0  0  0  0  0  0  0
   21.1626  -16.6987  -16.0909 C   0  0  2  0  0  0  0  0  0  0  0  0
   22.4345  -17.4256  -15.9206 N   0  0  0  0  0  0  0  0  0  0  0  0
   20.6890  -16.9019  -17.4744 C   0  0  0  0  0  0  0  0  0  0  0  0
   21.4366  -17.2890  -18.3931 O   0  0  0  0  0  0  0  0  0  0  0  0
   19.3612  -16.6627  -17.8089 O   0  0  0  0  0  0  0  0  0  0  0  0
  2  1  1  1
  3  2  1  0
  4  3  1  0
  5  6  1  0
  5  4  1  0
  6  7  1  0
  8  9  2  0
  8  2  1  0
 10  8  1  0
 11 10  1  0
 12 13  1  0
 11 12  1  6
 13 17  1  0
 14 13  2  0
 15 16  2  0
 15 11  1  0
 19 21  1  0
 19 18  1  6
 20 19  1  0
 21 22  1  6
 22 15  1  0
 23 21  1  0
 24 23  2  0
 25 23  1  0
M  END
$$$$
