KDT.pdb
     RDKit          3D

 25 24  0  0  1  0  0  0  0  0999 V2000
   24.5575  -34.2731   -9.4982 N   0  0  0  0  0  0  0  0  0  0  0  0
   26.0002  -34.2413   -9.4781 C   0  0  1  0  0  0  0  0  0  0  0  0
   26.5585  -33.2152  -10.4192 C   0  0  0  0  0  0  0  0  0  0  0  0
   26.2298  -33.5215  -11.8615 C   0  0  0  0  0  0  0  0  0  0  0  0
   27.0309  -34.6741  -12.3946 C   0  0  0  0  0  0  0  0  0  0  0  0
   26.7328  -34.9743  -13.8442 C   0  0  0  0  0  0  0  0  0  0  0  0
   27.5463  -36.0800  -14.3113 N   0  0  0  0  0  0  0  0  0  0  0  0
   26.4864  -34.0510   -8.0879 C   0  0  0  0  0  0  0  0  0  0  0  0
   27.7146  -33.9538   -7.8433 O   0  0  0  0  0  0  0  0  0  0  0  0
   25.5694  -33.9789   -7.0395 N   0  0  0  0  0  0  0  0  0  0  0  0
   26.0153  -33.7358   -5.6116 C   0  0  1  0  0  0  0  0  0  0  0  0
   24.7490  -33.2383   -4.9891 C   0  0  0  0  0  0  0  0  0  0  0  0
   24.8110  -32.6524   -3.6668 C   0  0  0  0  0  0  0  0  0  0  0  0
   25.8150  -32.5348   -2.9562 O   0  0  0  0  0  0  0  0  0  0  0  0
   26.4738  -35.0514   -5.1774 C   0  0  0  0  0  0  0  0  0  0  0  0
   25.6552  -36.0256   -5.1875 O   0  0  0  0  0  0  0  0  0  0  0  0
   23.6132  -32.1514   -3.0965 O   0  0  0  0  0  0  0  0  0  0  0  0
   30.4483  -35.7632   -4.3161 C   0  0  0  0  0  0  0  0  0  0  0  0
   29.5905  -36.8714   -4.8528 C   0  0  1  0  0  0  0  0  0  0  0  0
   30.0975  -38.0946   -4.4226 O   0  0  0  0  0  0  0  0  0  0  0  0
   28.1541  -36.7117   -4.3843 C   0  0  2  0  0  0  0  0  0  0  0  0
   27.7673  -35.3354   -4.7467 N   0  0  0  0  0  0  0  0  0  0  0  0
   28.0344  -36.8614   -2.9204 C   0  0  0  0  0  0  0  0  0  0  0  0
   27.7643  -35.9080   -2.1649 O   0  0  0  0  0  0  0  0  0  0  0  0
   28.2233  -38.1003   -2.3192 O   0  0  0  0  0  0  0  0  0  0  0  0
  2  1  1  1
  3  2  1  0
  4  3  1  0
  5  6  1  0
  5  4  1  0
  6  7  1  0
  8  9  2  0
  8  2  1  0
 10  8  1  0
 11 10  1  0
 12 13  1  0
 11 12  1  1
 13 17  1  0
 14 13  2  0
 15 16  2  0
 15 11  1  0
 19 21  1  0
 19 18  1  1
 20 19  1  0
 21 22  1  1
 22 15  1  0
 23 21  1  0
 24 23  2  0
 25 23  1  0
M  END
$$$$
