KDT.pdb
     RDKit          3D

 25 24  0  0  1  0  0  0  0  0999 V2000
   17.0885  -11.8771  -16.1344 N   0  0  0  0  0  0  0  0  0  0  0  0
   18.4876  -11.5257  -16.0917 C   0  0  1  0  0  0  0  0  0  0  0  0
   19.3605  -12.5995  -16.6706 C   0  0  0  0  0  0  0  0  0  0  0  0
   19.0134  -13.9697  -16.1375 C   0  0  0  0  0  0  0  0  0  0  0  0
   19.7631  -15.0615  -16.8449 C   0  0  0  0  0  0  0  0  0  0  0  0
   19.4195  -16.4382  -16.3284 C   0  0  0  0  0  0  0  0  0  0  0  0
   20.0853  -17.4569  -17.1168 N   0  0  0  0  0  0  0  0  0  0  0  0
   18.7034  -10.2119  -16.7494 C   0  0  0  0  0  0  0  0  0  0  0  0
   19.1869  -10.1432  -17.9066 O   0  0  0  0  0  0  0  0  0  0  0  0
   18.3653   -9.0385  -16.0754 N   0  0  0  0  0  0  0  0  0  0  0  0
   18.6297   -7.6736  -16.6786 C   0  0  1  0  0  0  0  0  0  0  0  0
   17.2573   -7.2790  -17.1250 C   0  0  0  0  0  0  0  0  0  0  0  0
   17.0218   -5.9020  -17.5048 C   0  0  0  0  0  0  0  0  0  0  0  0
   16.0375   -5.2132  -17.2160 O   0  0  0  0  0  0  0  0  0  0  0  0
   19.1866   -6.9179  -15.5613 C   0  0  0  0  0  0  0  0  0  0  0  0
   18.6758   -7.0587  -14.4043 O   0  0  0  0  0  0  0  0  0  0  0  0
   18.0019   -5.2440  -18.2905 O   0  0  0  0  0  0  0  0  0  0  0  0
   22.7645   -5.0337  -13.0767 C   0  0  0  0  0  0  0  0  0  0  0  0
   22.1268   -5.8135  -14.1890 C   0  0  1  0  0  0  0  0  0  0  0  0
   22.0649   -7.1576  -13.8313 O   0  0  0  0  0  0  0  0  0  0  0  0
   20.7307   -5.2891  -14.4787 C   0  0  2  0  0  0  0  0  0  0  0  0
   20.2609   -6.0373  -15.6597 N   0  0  0  0  0  0  0  0  0  0  0  0
   20.7426   -3.8505  -14.8104 C   0  0  0  0  0  0  0  0  0  0  0  0
   21.0350   -3.4221  -15.9435 O   0  0  0  0  0  0  0  0  0  0  0  0
   20.4207   -2.9009  -13.8478 O   0  0  0  0  0  0  0  0  0  0  0  0
  2  1  1  6
  3  2  1  0
  4  3  1  0
  5  6  1  0
  5  4  1  0
  6  7  1  0
  8  9  2  0
  8  2  1  0
 10  8  1  0
 11 10  1  0
 12 13  1  0
 11 12  1  1
 13 17  1  0
 14 13  2  0
 15 16  2  0
 15 11  1  0
 19 21  1  0
 19 18  1  1
 20 19  1  0
 21 22  1  6
 22 15  1  0
 23 21  1  0
 24 23  2  0
 25 23  1  0
M  END
$$$$
