KDT.pdb
     RDKit          3D

 25 24  0  0  1  0  0  0  0  0999 V2000
   17.7499  -13.9085  -15.8317 N   0  0  0  0  0  0  0  0  0  0  0  0
   17.5842  -12.6175  -16.4552 C   0  0  1  0  0  0  0  0  0  0  0  0
   16.2512  -12.4794  -17.1291 C   0  0  0  0  0  0  0  0  0  0  0  0
   15.2731  -13.5427  -16.6878 C   0  0  0  0  0  0  0  0  0  0  0  0
   14.0094  -13.5241  -17.4985 C   0  0  0  0  0  0  0  0  0  0  0  0
   12.9912  -14.5314  -17.0201 C   0  0  0  0  0  0  0  0  0  0  0  0
   12.7340  -14.3596  -15.6034 N   0  0  0  0  0  0  0  0  0  0  0  0
   17.8264  -11.5382  -15.4643 C   0  0  0  0  0  0  0  0  0  0  0  0
   17.5599  -11.7089  -14.2488 O   0  0  0  0  0  0  0  0  0  0  0  0
   18.3567  -10.3193  -15.8868 N   0  0  0  0  0  0  0  0  0  0  0  0
   18.6569   -9.2032  -14.9067 C   0  0  1  0  0  0  0  0  0  0  0  0
   20.1530   -9.2121  -14.9006 C   0  0  0  0  0  0  0  0  0  0  0  0
   20.8477   -8.2732  -14.0453 C   0  0  0  0  0  0  0  0  0  0  0  0
   20.3395   -7.5178  -13.2099 O   0  0  0  0  0  0  0  0  0  0  0  0
   18.0214   -8.0414  -15.5200 C   0  0  0  0  0  0  0  0  0  0  0  0
   18.2078   -7.8172  -16.7587 O   0  0  0  0  0  0  0  0  0  0  0  0
   22.2591   -8.1846  -14.1508 O   0  0  0  0  0  0  0  0  0  0  0  0
   14.4159   -7.0393  -15.8565 C   0  0  0  0  0  0  0  0  0  0  0  0
   15.1651   -5.9400  -15.1622 C   0  0  1  0  0  0  0  0  0  0  0  0
   15.0275   -6.0887  -13.7848 O   0  0  0  0  0  0  0  0  0  0  0  0
   16.6356   -5.9707  -15.5429 C   0  0  2  0  0  0  0  0  0  0  0  0
   17.2038   -7.1388  -14.8446 N   0  0  0  0  0  0  0  0  0  0  0  0
   17.3464   -4.7604  -15.0851 C   0  0  0  0  0  0  0  0  0  0  0  0
   18.1348   -4.7658  -14.1201 O   0  0  0  0  0  0  0  0  0  0  0  0
   17.1566   -3.5434  -15.7294 O   0  0  0  0  0  0  0  0  0  0  0  0
  2  1  1  1
  3  2  1  0
  4  3  1  0
  5  6  1  0
  5  4  1  0
  6  7  1  0
  8  9  2  0
  8  2  1  0
 10  8  1  0
 11 10  1  0
 12 13  1  0
 11 12  1  6
 13 17  1  0
 14 13  2  0
 15 16  2  0
 15 11  1  0
 19 21  1  0
 19 18  1  6
 20 19  1  0
 21 22  1  1
 22 15  1  0
 23 21  1  0
 24 23  2  0
 25 23  1  0
M  END
$$$$
