KDT.pdb
     RDKit          3D

 25 24  0  0  1  0  0  0  0  0999 V2000
   26.9235  -21.6667  -11.1022 N   0  0  0  0  0  0  0  0  0  0  0  0
   25.6507  -20.9866  -11.1186 C   0  0  1  0  0  0  0  0  0  0  0  0
   25.5493  -19.9457  -10.0433 C   0  0  0  0  0  0  0  0  0  0  0  0
   25.2833  -20.5495   -8.6844 C   0  0  0  0  0  0  0  0  0  0  0  0
   23.8304  -20.8673   -8.4783 C   0  0  0  0  0  0  0  0  0  0  0  0
   23.5231  -21.3187   -7.0705 C   0  0  0  0  0  0  0  0  0  0  0  0
   22.1215  -21.6683   -6.9440 N   0  0  0  0  0  0  0  0  0  0  0  0
   25.3900  -20.4258  -12.4688 C   0  0  0  0  0  0  0  0  0  0  0  0
   25.6940  -19.2382  -12.7420 O   0  0  0  0  0  0  0  0  0  0  0  0
   24.8005  -21.2265  -13.4470 N   0  0  0  0  0  0  0  0  0  0  0  0
   24.6067  -20.7310  -14.8660 C   0  0  1  0  0  0  0  0  0  0  0  0
   25.1710  -21.8704  -15.6545 C   0  0  0  0  0  0  0  0  0  0  0  0
   26.6090  -21.9804  -15.7808 C   0  0  0  0  0  0  0  0  0  0  0  0
   27.2671  -23.0233  -15.8568 O   0  0  0  0  0  0  0  0  0  0  0  0
   23.1633  -20.5363  -14.9567 C   0  0  0  0  0  0  0  0  0  0  0  0
   22.3968  -21.2512  -14.2351 O   0  0  0  0  0  0  0  0  0  0  0  0
   27.3734  -20.7868  -15.8244 O   0  0  0  0  0  0  0  0  0  0  0  0
   19.3025  -17.9556  -16.6498 C   0  0  0  0  0  0  0  0  0  0  0  0
   20.7820  -18.1774  -16.5326 C   0  0  1  0  0  0  0  0  0  0  0  0
   21.3537  -17.1100  -15.8455 O   0  0  0  0  0  0  0  0  0  0  0  0
   21.0723  -19.4785  -15.8039 C   0  0  2  0  0  0  0  0  0  0  0  0
   22.5415  -19.6057  -15.7853 N   0  0  0  0  0  0  0  0  0  0  0  0
   20.5108  -20.6435  -16.5161 C   0  0  0  0  0  0  0  0  0  0  0  0
   21.0411  -21.1329  -17.5319 O   0  0  0  0  0  0  0  0  0  0  0  0
   19.3429  -21.2498  -16.0679 O   0  0  0  0  0  0  0  0  0  0  0  0
  2  1  1  6
  3  2  1  0
  4  3  1  0
  5  6  1  0
  5  4  1  0
  6  7  1  0
  8  9  2  0
  8  2  1  0
 10  8  1  0
 11 10  1  0
 12 13  1  0
 11 12  1  6
 13 17  1  0
 14 13  2  0
 15 16  2  0
 15 11  1  0
 19 21  1  0
 19 18  1  1
 20 19  1  0
 21 22  1  6
 22 15  1  0
 23 21  1  0
 24 23  2  0
 25 23  1  0
M  END
$$$$
