KDT.pdb
     RDKit          3D

 25 24  0  0  1  0  0  0  0  0999 V2000
   28.0897  -19.7052  -17.1619 N   0  0  0  0  0  0  0  0  0  0  0  0
   26.7378  -19.9822  -17.5843 C   0  0  1  0  0  0  0  0  0  0  0  0
   26.4259  -21.4493  -17.5634 C   0  0  0  0  0  0  0  0  0  0  0  0
   27.5784  -22.2874  -18.0648 C   0  0  0  0  0  0  0  0  0  0  0  0
   28.1806  -23.1328  -16.9798 C   0  0  0  0  0  0  0  0  0  0  0  0
   29.2719  -24.0456  -17.4856 C   0  0  0  0  0  0  0  0  0  0  0  0
   29.8834  -24.7643  -16.3847 N   0  0  0  0  0  0  0  0  0  0  0  0
   25.7780  -19.1929  -16.7710 C   0  0  0  0  0  0  0  0  0  0  0  0
   26.1296  -18.6779  -15.6808 O   0  0  0  0  0  0  0  0  0  0  0  0
   24.4696  -19.0202  -17.2222 N   0  0  0  0  0  0  0  0  0  0  0  0
   23.4841  -18.1415  -16.4783 C   0  0  1  0  0  0  0  0  0  0  0  0
   23.1637  -17.1142  -17.5178 C   0  0  0  0  0  0  0  0  0  0  0  0
   22.1752  -16.1024  -17.2100 C   0  0  0  0  0  0  0  0  0  0  0  0
   21.5407  -15.9846  -16.1563 O   0  0  0  0  0  0  0  0  0  0  0  0
   22.4092  -19.0656  -16.1320 C   0  0  0  0  0  0  0  0  0  0  0  0
   22.0560  -19.9478  -16.9784 O   0  0  0  0  0  0  0  0  0  0  0  0
   21.8789  -15.1292  -18.1980 O   0  0  0  0  0  0  0  0  0  0  0  0
   22.1898  -21.6557  -13.6867 C   0  0  0  0  0  0  0  0  0  0  0  0
   21.0005  -20.7785  -13.4260 C   0  0  1  0  0  0  0  0  0  0  0  0
   21.3005  -19.8915  -12.3957 O   0  0  0  0  0  0  0  0  0  0  0  0
   20.6181  -20.0084  -14.6785 C   0  0  2  0  0  0  0  0  0  0  0  0
   21.7248  -19.0637  -14.9191 N   0  0  0  0  0  0  0  0  0  0  0  0
   19.3752  -19.2345  -14.4890 C   0  0  0  0  0  0  0  0  0  0  0  0
   19.3593  -17.9905  -14.4193 O   0  0  0  0  0  0  0  0  0  0  0  0
   18.1499  -19.8817  -14.3790 O   0  0  0  0  0  0  0  0  0  0  0  0
  2  1  1  1
  3  2  1  0
  4  3  1  0
  5  6  1  0
  5  4  1  0
  6  7  1  0
  8  9  2  0
  8  2  1  0
 10  8  1  0
 11 10  1  0
 12 13  1  0
 11 12  1  6
 13 17  1  0
 14 13  2  0
 15 16  2  0
 15 11  1  0
 19 21  1  0
 19 18  1  6
 20 19  1  0
 21 22  1  1
 22 15  1  0
 23 21  1  0
 24 23  2  0
 25 23  1  0
M  END
$$$$
