KDT.pdb
     RDKit          3D

 25 24  0  0  1  0  0  0  0  0999 V2000
   15.3012   -6.4849   -8.7458 N   0  0  0  0  0  0  0  0  0  0  0  0
   15.5181   -7.6207   -9.6093 C   0  0  1  0  0  0  0  0  0  0  0  0
   14.3160   -8.5149   -9.6838 C   0  0  0  0  0  0  0  0  0  0  0  0
   13.3759   -8.3096   -8.5193 C   0  0  0  0  0  0  0  0  0  0  0  0
   12.2371   -9.2881   -8.5288 C   0  0  0  0  0  0  0  0  0  0  0  0
   11.3825   -9.2050   -7.2867 C   0  0  0  0  0  0  0  0  0  0  0  0
   10.3268  -10.1980   -7.3295 N   0  0  0  0  0  0  0  0  0  0  0  0
   15.9614   -7.1635  -10.9509 C   0  0  0  0  0  0  0  0  0  0  0  0
   15.1412   -7.0491  -11.8952 O   0  0  0  0  0  0  0  0  0  0  0  0
   17.3048   -6.8568  -11.1668 N   0  0  0  0  0  0  0  0  0  0  0  0
   17.7880   -6.3011  -12.4913 C   0  0  1  0  0  0  0  0  0  0  0  0
   17.1053   -4.9701  -12.5180 C   0  0  0  0  0  0  0  0  0  0  0  0
   17.4205   -4.0515  -13.5916 C   0  0  0  0  0  0  0  0  0  0  0  0
   17.6020   -2.8332  -13.4933 O   0  0  0  0  0  0  0  0  0  0  0  0
   19.2386   -6.2788  -12.3339 C   0  0  0  0  0  0  0  0  0  0  0  0
   19.7353   -5.8509  -11.2432 O   0  0  0  0  0  0  0  0  0  0  0  0
   17.5406   -4.5693  -14.9063 O   0  0  0  0  0  0  0  0  0  0  0  0
   21.8325   -9.0968  -12.8589 C   0  0  0  0  0  0  0  0  0  0  0  0
   22.1821   -7.8885  -13.6772 C   0  0  1  0  0  0  0  0  0  0  0  0
   21.6906   -8.0508  -14.9697 O   0  0  0  0  0  0  0  0  0  0  0  0
   21.5978   -6.6323  -13.0540 C   0  0  2  0  0  0  0  0  0  0  0  0
   20.1456   -6.7026  -13.3019 N   0  0  0  0  0  0  0  0  0  0  0  0
   22.1225   -5.4083  -13.6913 C   0  0  0  0  0  0  0  0  0  0  0  0
   23.2777   -4.9860  -13.4915 O   0  0  0  0  0  0  0  0  0  0  0  0
   21.3276   -4.6661  -14.5571 O   0  0  0  0  0  0  0  0  0  0  0  0
  2  1  1  1
  3  2  1  0
  4  3  1  0
  5  6  1  0
  5  4  1  0
  6  7  1  0
  8  9  2  0
  8  2  1  0
 10  8  1  0
 11 10  1  0
 12 13  1  0
 11 12  1  1
 13 17  1  0
 14 13  2  0
 15 16  2  0
 15 11  1  0
 19 21  1  0
 19 18  1  1
 20 19  1  0
 21 22  1  6
 22 15  1  0
 23 21  1  0
 24 23  2  0
 25 23  1  0
M  END
$$$$
