KDT.pdb
     RDKit          3D

 25 24  0  0  1  0  0  0  0  0999 V2000
   19.2248  -24.5859   -8.0523 N   0  0  0  0  0  0  0  0  0  0  0  0
   18.4878  -24.8574   -9.2631 C   0  0  1  0  0  0  0  0  0  0  0  0
   17.1113  -25.3842   -8.9838 C   0  0  0  0  0  0  0  0  0  0  0  0
   17.1091  -26.4345   -7.8980 C   0  0  0  0  0  0  0  0  0  0  0  0
   15.7469  -27.0291   -7.6853 C   0  0  0  0  0  0  0  0  0  0  0  0
   15.7308  -28.0867   -6.6077 C   0  0  0  0  0  0  0  0  0  0  0  0
   16.2760  -27.5603   -5.3715 N   0  0  0  0  0  0  0  0  0  0  0  0
   18.4616  -23.6486  -10.1255 C   0  0  0  0  0  0  0  0  0  0  0  0
   18.2329  -22.5144   -9.6370 O   0  0  0  0  0  0  0  0  0  0  0  0
   18.6940  -23.7726  -11.4952 N   0  0  0  0  0  0  0  0  0  0  0  0
   18.7024  -22.5646  -12.4103 C   0  0  1  0  0  0  0  0  0  0  0  0
   19.4991  -23.0785  -13.5677 C   0  0  0  0  0  0  0  0  0  0  0  0
   20.8340  -22.5582  -13.7751 C   0  0  0  0  0  0  0  0  0  0  0  0
   21.3742  -21.6379  -13.1522 O   0  0  0  0  0  0  0  0  0  0  0  0
   17.2845  -22.3252  -12.6589 C   0  0  0  0  0  0  0  0  0  0  0  0
   16.4908  -23.3183  -12.7158 O   0  0  0  0  0  0  0  0  0  0  0  0
   21.6329  -23.1416  -14.7911 O   0  0  0  0  0  0  0  0  0  0  0  0
   13.4760  -19.2059  -12.9291 C   0  0  0  0  0  0  0  0  0  0  0  0
   14.9322  -19.4868  -12.6997 C   0  0  1  0  0  0  0  0  0  0  0  0
   15.2407  -19.2515  -11.3626 O   0  0  0  0  0  0  0  0  0  0  0  0
   15.2641  -20.9241  -13.0635 C   0  0  2  0  0  0  0  0  0  0  0  0
   16.7146  -21.0674  -12.8388 N   0  0  0  0  0  0  0  0  0  0  0  0
   14.9800  -21.2104  -14.4837 C   0  0  0  0  0  0  0  0  0  0  0  0
   15.7781  -20.9345  -15.4000 O   0  0  0  0  0  0  0  0  0  0  0  0
   13.7839  -21.8119  -14.8576 O   0  0  0  0  0  0  0  0  0  0  0  0
  2  1  1  1
  3  2  1  0
  4  3  1  0
  5  6  1  0
  5  4  1  0
  6  7  1  0
  8  9  2  0
  8  2  1  0
 10  8  1  0
 11 10  1  0
 12 13  1  0
 11 12  1  6
 13 17  1  0
 14 13  2  0
 15 16  2  0
 15 11  1  0
 19 21  1  0
 19 18  1  1
 20 19  1  0
 21 22  1  6
 22 15  1  0
 23 21  1  0
 24 23  2  0
 25 23  1  0
M  END
$$$$
