KDT.pdb
     RDKit          3D

 25 24  0  0  1  0  0  0  0  0999 V2000
   19.9693  -15.7209  -18.4754 N   0  0  0  0  0  0  0  0  0  0  0  0
   20.1214  -15.7372  -17.0404 C   0  0  1  0  0  0  0  0  0  0  0  0
   21.0208  -16.8449  -16.5774 C   0  0  0  0  0  0  0  0  0  0  0  0
   20.3842  -18.2053  -16.7387 C   0  0  0  0  0  0  0  0  0  0  0  0
   19.3745  -18.4912  -15.6648 C   0  0  0  0  0  0  0  0  0  0  0  0
   18.7138  -19.8394  -15.8254 C   0  0  0  0  0  0  0  0  0  0  0  0
   17.7231  -20.0462  -14.7870 N   0  0  0  0  0  0  0  0  0  0  0  0
   20.5768  -14.4073  -16.5611 C   0  0  0  0  0  0  0  0  0  0  0  0
   21.2080  -14.2940  -15.4812 O   0  0  0  0  0  0  0  0  0  0  0  0
   20.3013  -13.2690  -17.3185 N   0  0  0  0  0  0  0  0  0  0  0  0
   20.7277  -11.8892  -16.8595 C   0  0  1  0  0  0  0  0  0  0  0  0
   21.7050  -11.5131  -17.9280 C   0  0  0  0  0  0  0  0  0  0  0  0
   22.2320  -10.1648  -17.9413 C   0  0  0  0  0  0  0  0  0  0  0  0
   22.1852   -9.3617  -18.8791 O   0  0  0  0  0  0  0  0  0  0  0  0
   19.4742  -11.1423  -16.8402 C   0  0  0  0  0  0  0  0  0  0  0  0
   18.7691  -11.0910  -17.8982 O   0  0  0  0  0  0  0  0  0  0  0  0
   22.8758   -9.6829  -16.7734 O   0  0  0  0  0  0  0  0  0  0  0  0
   16.2842  -11.5617  -15.2404 C   0  0  0  0  0  0  0  0  0  0  0  0
   16.7852  -10.2146  -14.8091 C   0  0  1  0  0  0  0  0  0  0  0  0
   17.4190  -10.3333  -13.5752 O   0  0  0  0  0  0  0  0  0  0  0  0
   17.7511   -9.6484  -15.8360 C   0  0  2  0  0  0  0  0  0  0  0  0
   18.9721  -10.4687  -15.7296 N   0  0  0  0  0  0  0  0  0  0  0  0
   18.1032   -8.2449  -15.5431 C   0  0  0  0  0  0  0  0  0  0  0  0
   19.2442   -7.8969  -15.1827 O   0  0  0  0  0  0  0  0  0  0  0  0
   17.1519   -7.2384  -15.6615 O   0  0  0  0  0  0  0  0  0  0  0  0
  2  1  1  6
  3  2  1  0
  4  3  1  0
  5  6  1  0
  5  4  1  0
  6  7  1  0
  8  9  2  0
  8  2  1  0
 10  8  1  0
 11 10  1  0
 12 13  1  0
 11 12  1  6
 13 17  1  0
 14 13  2  0
 15 16  2  0
 15 11  1  0
 19 21  1  0
 19 18  1  6
 20 19  1  0
 21 22  1  1
 22 15  1  0
 23 21  1  0
 24 23  2  0
 25 23  1  0
M  END
$$$$
