KDT.pdb
     RDKit          3D

 25 24  0  0  1  0  0  0  0  0999 V2000
   17.4526  -12.1795  -15.2285 N   0  0  0  0  0  0  0  0  0  0  0  0
   18.5853  -12.0602  -16.1148 C   0  0  1  0  0  0  0  0  0  0  0  0
   18.3961  -12.8350  -17.3853 C   0  0  0  0  0  0  0  0  0  0  0  0
   16.9593  -12.8284  -17.8519 C   0  0  0  0  0  0  0  0  0  0  0  0
   16.2741  -14.1406  -17.6004 C   0  0  0  0  0  0  0  0  0  0  0  0
   16.4330  -15.1135  -18.7442 C   0  0  0  0  0  0  0  0  0  0  0  0
   15.7233  -16.3466  -18.4641 N   0  0  0  0  0  0  0  0  0  0  0  0
   18.8838  -10.6280  -16.3702 C   0  0  0  0  0  0  0  0  0  0  0  0
   19.7742  -10.2925  -17.1900 O   0  0  0  0  0  0  0  0  0  0  0  0
   18.1673   -9.6419  -15.6923 N   0  0  0  0  0  0  0  0  0  0  0  0
   18.3900   -8.1686  -15.9692 C   0  0  1  0  0  0  0  0  0  0  0  0
   17.0152   -7.6185  -15.7558 C   0  0  0  0  0  0  0  0  0  0  0  0
   16.8246   -6.1850  -15.8231 C   0  0  0  0  0  0  0  0  0  0  0  0
   15.8469   -5.5490  -15.4153 O   0  0  0  0  0  0  0  0  0  0  0  0
   19.3957   -7.7923  -14.9810 C   0  0  0  0  0  0  0  0  0  0  0  0
   19.1664   -8.0167  -13.7496 O   0  0  0  0  0  0  0  0  0  0  0  0
   17.8463   -5.3977  -16.4123 O   0  0  0  0  0  0  0  0  0  0  0  0
   22.3862   -9.1095  -14.0295 C   0  0  0  0  0  0  0  0  0  0  0  0
   22.7526   -7.6869  -14.3360 C   0  0  1  0  0  0  0  0  0  0  0  0
   23.2677   -7.6130  -15.6274 O   0  0  0  0  0  0  0  0  0  0  0  0
   21.5388   -6.7821  -14.2092 C   0  0  2  0  0  0  0  0  0  0  0  0
   20.6179   -7.1973  -15.2837 N   0  0  0  0  0  0  0  0  0  0  0  0
   21.8885   -5.3626  -14.4153 C   0  0  0  0  0  0  0  0  0  0  0  0
   21.5429   -4.7229  -15.4273 O   0  0  0  0  0  0  0  0  0  0  0  0
   22.6335   -4.6734  -13.4654 O   0  0  0  0  0  0  0  0  0  0  0  0
  2  1  1  1
  3  2  1  0
  4  3  1  0
  5  6  1  0
  5  4  1  0
  6  7  1  0
  8  9  2  0
  8  2  1  0
 10  8  1  0
 11 10  1  0
 12 13  1  0
 11 12  1  1
 13 17  1  0
 14 13  2  0
 15 16  2  0
 15 11  1  0
 19 21  1  0
 19 18  1  6
 20 19  1  0
 21 22  1  6
 22 15  1  0
 23 21  1  0
 24 23  2  0
 25 23  1  0
M  END
$$$$
