KDT.pdb
     RDKit          3D

 25 24  0  0  1  0  0  0  0  0999 V2000
   17.6758  -13.8657  -16.2875 N   0  0  0  0  0  0  0  0  0  0  0  0
   17.7665  -12.5904  -16.9569 C   0  0  1  0  0  0  0  0  0  0  0  0
   16.4956  -12.2309  -17.6681 C   0  0  0  0  0  0  0  0  0  0  0  0
   15.4968  -13.3642  -17.6648 C   0  0  0  0  0  0  0  0  0  0  0  0
   14.3050  -13.0739  -18.5308 C   0  0  0  0  0  0  0  0  0  0  0  0
   13.3527  -14.2417  -18.6279 C   0  0  0  0  0  0  0  0  0  0  0  0
   12.2213  -13.9054  -19.4702 N   0  0  0  0  0  0  0  0  0  0  0  0
   18.1885  -11.5394  -15.9963 C   0  0  0  0  0  0  0  0  0  0  0  0
   17.7684  -11.5434  -14.8126 O   0  0  0  0  0  0  0  0  0  0  0  0
   19.0623  -10.5349  -16.4118 N   0  0  0  0  0  0  0  0  0  0  0  0
   19.5100   -9.4345  -15.4708 C   0  0  1  0  0  0  0  0  0  0  0  0
   20.9583   -9.7675  -15.2975 C   0  0  0  0  0  0  0  0  0  0  0  0
   21.7796   -8.8881  -14.4926 C   0  0  0  0  0  0  0  0  0  0  0  0
   21.4283   -7.8301  -13.9598 O   0  0  0  0  0  0  0  0  0  0  0  0
   19.2131   -8.2164  -16.2175 C   0  0  0  0  0  0  0  0  0  0  0  0
   19.5649   -8.1385  -17.4380 O   0  0  0  0  0  0  0  0  0  0  0  0
   23.1337   -9.2472  -14.2726 O   0  0  0  0  0  0  0  0  0  0  0  0
   16.1602   -6.5129  -17.3243 C   0  0  0  0  0  0  0  0  0  0  0  0
   16.9251   -5.5471  -16.4675 C   0  0  1  0  0  0  0  0  0  0  0  0
   16.4419   -5.6073  -15.1632 O   0  0  0  0  0  0  0  0  0  0  0  0
   18.4088   -5.8734  -16.4865 C   0  0  2  0  0  0  0  0  0  0  0  0
   18.5560   -7.1069  -15.6917 N   0  0  0  0  0  0  0  0  0  0  0  0
   19.2129   -4.8096  -15.8527 C   0  0  0  0  0  0  0  0  0  0  0  0
   19.7714   -4.9538  -14.7481 O   0  0  0  0  0  0  0  0  0  0  0  0
   19.3790   -3.5806  -16.4805 O   0  0  0  0  0  0  0  0  0  0  0  0
  2  1  1  1
  3  2  1  0
  4  3  1  0
  5  6  1  0
  5  4  1  0
  6  7  1  0
  8  9  2  0
  8  2  1  0
 10  8  1  0
 11 10  1  0
 12 13  1  0
 11 12  1  6
 13 17  1  0
 14 13  2  0
 15 16  2  0
 15 11  1  0
 19 21  1  0
 19 18  1  6
 20 19  1  0
 21 22  1  1
 22 15  1  0
 23 21  1  0
 24 23  2  0
 25 23  1  0
M  END
$$$$
