KDT.pdb
     RDKit          3D

 25 24  0  0  1  0  0  0  0  0999 V2000
   23.0557  -19.3478  -18.1825 N   0  0  0  0  0  0  0  0  0  0  0  0
   23.8886  -18.4770  -17.3882 C   0  0  1  0  0  0  0  0  0  0  0  0
   23.7946  -17.0457  -17.8274 C   0  0  0  0  0  0  0  0  0  0  0  0
   22.4987  -16.7505  -18.5454 C   0  0  0  0  0  0  0  0  0  0  0  0
   22.3773  -15.3035  -18.9272 C   0  0  0  0  0  0  0  0  0  0  0  0
   21.0206  -14.9584  -19.4932 C   0  0  0  0  0  0  0  0  0  0  0  0
   20.9841  -13.5714  -19.9145 N   0  0  0  0  0  0  0  0  0  0  0  0
   23.5714  -18.6436  -15.9470 C   0  0  0  0  0  0  0  0  0  0  0  0
   24.1510  -17.9487  -15.0760 O   0  0  0  0  0  0  0  0  0  0  0  0
   22.6182  -19.5829  -15.5540 N   0  0  0  0  0  0  0  0  0  0  0  0
   22.2613  -19.7874  -14.0954 C   0  0  1  0  0  0  0  0  0  0  0  0
   20.8741  -20.3367  -14.2066 C   0  0  0  0  0  0  0  0  0  0  0  0
   20.1157  -20.5536  -12.9927 C   0  0  0  0  0  0  0  0  0  0  0  0
   20.4681  -20.2773  -11.8411 O   0  0  0  0  0  0  0  0  0  0  0  0
   23.2867  -20.7148  -13.6285 C   0  0  0  0  0  0  0  0  0  0  0  0
   23.2952  -21.9048  -14.0794 O   0  0  0  0  0  0  0  0  0  0  0  0
   18.8303  -21.1430  -13.0992 O   0  0  0  0  0  0  0  0  0  0  0  0
   26.9783  -19.6094  -12.5824 C   0  0  0  0  0  0  0  0  0  0  0  0
   26.5762  -20.9974  -12.9868 C   0  0  1  0  0  0  0  0  0  0  0  0
   27.5913  -21.8875  -12.6466 O   0  0  0  0  0  0  0  0  0  0  0  0
   25.2815  -21.4009  -12.3021 C   0  0  2  0  0  0  0  0  0  0  0  0
   24.2839  -20.3944  -12.7107 N   0  0  0  0  0  0  0  0  0  0  0  0
   25.4048  -21.3671  -10.8312 C   0  0  0  0  0  0  0  0  0  0  0  0
   26.1833  -22.1097  -10.2024 O   0  0  0  0  0  0  0  0  0  0  0  0
   24.6387  -20.4849  -10.0781 O   0  0  0  0  0  0  0  0  0  0  0  0
  2  1  1  6
  3  2  1  0
  4  3  1  0
  5  6  1  0
  5  4  1  0
  6  7  1  0
  8  9  2  0
  8  2  1  0
 10  8  1  0
 11 10  1  0
 12 13  1  0
 11 12  1  6
 13 17  1  0
 14 13  2  0
 15 16  2  0
 15 11  1  0
 19 21  1  0
 19 18  1  1
 20 19  1  0
 21 22  1  1
 22 15  1  0
 23 21  1  0
 24 23  2  0
 25 23  1  0
M  END
$$$$
