KDT.pdb
     RDKit          3D

 25 24  0  0  1  0  0  0  0  0999 V2000
   27.6286  -20.8745  -15.7936 N   0  0  0  0  0  0  0  0  0  0  0  0
   26.3513  -20.7330  -16.4502 C   0  0  1  0  0  0  0  0  0  0  0  0
   25.9446  -21.9814  -17.1758 C   0  0  0  0  0  0  0  0  0  0  0  0
   26.4786  -23.2293  -16.5127 C   0  0  0  0  0  0  0  0  0  0  0  0
   26.0813  -24.4774  -17.2468 C   0  0  0  0  0  0  0  0  0  0  0  0
   26.5498  -25.7368  -16.5580 C   0  0  0  0  0  0  0  0  0  0  0  0
   26.0402  -26.9093  -17.2423 N   0  0  0  0  0  0  0  0  0  0  0  0
   25.3228  -20.2911  -15.4743 C   0  0  0  0  0  0  0  0  0  0  0  0
   25.5069  -20.4272  -14.2394 O   0  0  0  0  0  0  0  0  0  0  0  0
   24.1372  -19.7172  -15.9331 N   0  0  0  0  0  0  0  0  0  0  0  0
   23.0622  -19.2456  -14.9747 C   0  0  1  0  0  0  0  0  0  0  0  0
   22.6623  -17.9458  -15.5984 C   0  0  0  0  0  0  0  0  0  0  0  0
   21.9637  -17.9718  -16.8661 C   0  0  0  0  0  0  0  0  0  0  0  0
   20.8338  -17.5282  -17.0971 O   0  0  0  0  0  0  0  0  0  0  0  0
   22.0739  -20.3179  -15.0289 C   0  0  0  0  0  0  0  0  0  0  0  0
   22.0334  -21.0698  -16.0548 O   0  0  0  0  0  0  0  0  0  0  0  0
   22.6138  -18.5606  -17.9803 O   0  0  0  0  0  0  0  0  0  0  0  0
   19.1702  -23.5055  -12.8366 C   0  0  0  0  0  0  0  0  0  0  0  0
   20.3552  -22.6000  -13.0026 C   0  0  1  0  0  0  0  0  0  0  0  0
   21.5001  -23.3704  -13.1868 O   0  0  0  0  0  0  0  0  0  0  0  0
   20.1580  -21.6719  -14.1891 C   0  0  2  0  0  0  0  0  0  0  0  0
   21.1520  -20.5952  -14.0226 N   0  0  0  0  0  0  0  0  0  0  0  0
   18.8108  -21.0681  -14.1956 C   0  0  0  0  0  0  0  0  0  0  0  0
   18.5874  -19.9131  -13.7847 O   0  0  0  0  0  0  0  0  0  0  0  0
   17.7182  -21.7836  -14.6714 O   0  0  0  0  0  0  0  0  0  0  0  0
  2  1  1  1
  3  2  1  0
  4  3  1  0
  5  6  1  0
  5  4  1  0
  6  7  1  0
  8  9  2  0
  8  2  1  0
 10  8  1  0
 11 10  1  0
 12 13  1  0
 11 12  1  6
 13 17  1  0
 14 13  2  0
 15 16  2  0
 15 11  1  0
 19 21  1  0
 19 18  1  6
 20 19  1  0
 21 22  1  1
 22 15  1  0
 23 21  1  0
 24 23  2  0
 25 23  1  0
M  END
$$$$
