KDT.pdb
     RDKit          3D

 25 24  0  0  1  0  0  0  0  0999 V2000
   17.5629  -13.6088  -15.9401 N   0  0  0  0  0  0  0  0  0  0  0  0
   17.2597  -12.2888  -16.4385 C   0  0  1  0  0  0  0  0  0  0  0  0
   15.8043  -12.1248  -16.7626 C   0  0  0  0  0  0  0  0  0  0  0  0
   15.1170  -13.4492  -16.9988 C   0  0  0  0  0  0  0  0  0  0  0  0
   13.7935  -13.5361  -16.2952 C   0  0  0  0  0  0  0  0  0  0  0  0
   13.0688  -14.8325  -16.5678 C   0  0  0  0  0  0  0  0  0  0  0  0
   13.5754  -15.8872  -15.7114 N   0  0  0  0  0  0  0  0  0  0  0  0
   17.7409  -11.2598  -15.4819 C   0  0  0  0  0  0  0  0  0  0  0  0
   17.4664  -11.3398  -14.2588 O   0  0  0  0  0  0  0  0  0  0  0  0
   18.5075  -10.1909  -15.9455 N   0  0  0  0  0  0  0  0  0  0  0  0
   18.9438   -9.0698  -15.0237 C   0  0  1  0  0  0  0  0  0  0  0  0
   20.4329   -9.2001  -15.0871 C   0  0  0  0  0  0  0  0  0  0  0  0
   21.2448   -8.1835  -14.4522 C   0  0  0  0  0  0  0  0  0  0  0  0
   21.0519   -7.6668  -13.3465 O   0  0  0  0  0  0  0  0  0  0  0  0
   18.3731   -7.8820  -15.6507 C   0  0  0  0  0  0  0  0  0  0  0  0
   18.4323   -7.7623  -16.9162 O   0  0  0  0  0  0  0  0  0  0  0  0
   22.3881   -7.7076  -15.1430 O   0  0  0  0  0  0  0  0  0  0  0  0
   15.5871   -3.8542  -15.5229 C   0  0  0  0  0  0  0  0  0  0  0  0
   16.0424   -5.1786  -14.9839 C   0  0  1  0  0  0  0  0  0  0  0  0
   15.0444   -6.1269  -15.1910 O   0  0  0  0  0  0  0  0  0  0  0  0
   17.3270   -5.6205  -15.6640 C   0  0  2  0  0  0  0  0  0  0  0  0
   17.7497   -6.8457  -14.9603 N   0  0  0  0  0  0  0  0  0  0  0  0
   18.3955   -4.6107  -15.5281 C   0  0  0  0  0  0  0  0  0  0  0  0
   19.1914   -4.5958  -14.5694 O   0  0  0  0  0  0  0  0  0  0  0  0
   18.5549   -3.6174  -16.4874 O   0  0  0  0  0  0  0  0  0  0  0  0
  2  1  1  1
  3  2  1  0
  4  3  1  0
  5  6  1  0
  5  4  1  0
  6  7  1  0
  8  9  2  0
  8  2  1  0
 10  8  1  0
 11 10  1  0
 12 13  1  0
 11 12  1  6
 13 17  1  0
 14 13  2  0
 15 16  2  0
 15 11  1  0
 19 21  1  0
 19 18  1  6
 20 19  1  0
 21 22  1  1
 22 15  1  0
 23 21  1  0
 24 23  2  0
 25 23  1  0
M  END
$$$$
