EYN.pdb
     RDKit          3D

 30 30  0  0  1  0  0  0  0  0999 V2000
    7.7171  -17.5679   18.5819 N   0  0  0  0  0  0  0  0  0  0  0  0
    9.1201  -17.3925   18.8488 C   0  0  1  0  0  0  0  0  0  0  0  0
    9.7304  -16.7554   17.6304 C   0  0  0  0  0  0  0  0  0  0  0  0
    8.7563  -16.3907   16.5618 C   0  0  0  0  0  0  0  0  0  0  0  0
    9.0349  -17.2361   15.3716 C   0  0  0  0  0  0  0  0  0  0  0  0
    8.5384  -18.3897   15.2347 O   0  0  0  0  0  0  0  0  0  0  0  0
    9.2828  -16.5684   20.0795 C   0  0  0  0  0  0  0  0  0  0  0  0
   10.4339  -16.3225   20.5535 O   0  0  0  0  0  0  0  0  0  0  0  0
    9.8591  -16.7995   14.3443 O   0  0  0  0  0  0  0  0  0  0  0  0
    7.3428  -11.9488   27.3460 O   0  0  0  0  0  0  0  0  0  0  0  0
    7.2244  -12.6853   26.1541 C   0  0  0  0  0  0  0  0  0  0  0  0
    6.6334  -13.9347   26.1206 C   0  0  0  0  0  0  0  0  0  0  0  0
    6.5098  -14.6684   24.9613 C   0  0  0  0  0  0  0  0  0  0  0  0
    6.9925  -14.1372   23.7961 C   0  0  0  0  0  0  0  0  0  0  0  0
    6.8800  -14.8854   22.5380 C   0  0  0  0  0  0  0  0  0  0  0  0
    8.2077  -15.4408   22.0742 C   0  0  2  0  0  0  0  0  0  0  0  0
    8.1587  -16.0291   20.7655 N   0  0  0  0  0  0  0  0  0  0  0  0
    8.6860  -16.3954   23.1093 C   0  0  0  0  0  0  0  0  0  0  0  0
    8.2056  -17.5520   23.2233 O   0  0  0  0  0  0  0  0  0  0  0  0
    7.5838  -12.9020   23.7934 C   0  0  0  0  0  0  0  0  0  0  0  0
    7.6923  -12.1988   24.9550 C   0  0  0  0  0  0  0  0  0  0  0  0
   12.9440  -19.3005   25.0729 N   0  0  0  0  0  0  0  0  0  0  0  0
   12.5884  -17.9809   25.4582 C   0  0  0  0  0  0  0  0  0  0  0  0
   12.9140  -17.6767   26.6563 O   0  0  0  0  0  0  0  0  0  0  0  0
   11.9048  -17.0189   24.5734 C   0  0  0  0  0  0  0  0  0  0  0  0
   10.4337  -17.0839   24.8140 C   0  0  2  0  0  0  0  0  0  0  0  0
    9.7131  -16.0702   24.0374 N   0  0  0  0  0  0  0  0  0  0  0  0
   10.1659  -16.7487   26.2265 C   0  0  0  0  0  0  0  0  0  0  0  0
   10.0945  -17.7245   27.1842 O   0  0  0  0  0  0  0  0  0  0  0  0
    9.9999  -15.5620   26.5676 O   0  0  0  0  0  0  0  0  0  0  0  0
  2  1  1  6
  2  3  1  0
  3  4  1  0
  4  5  1  0
  5  9  1  0
  6  5  2  0
  7  8  2  0
  7  2  1  0
 10 11  1  0
 11 21  2  0
 12 11  1  0
 12 13  2  0
 13 14  1  0
 14 20  2  0
 14 15  1  0
 16 15  1  1
 16 18  1  0
 16 17  1  0
 17  7  1  0
 18 27  1  0
 19 18  2  0
 21 20  1  0
 23 22  1  0
 23 24  2  0
 25 23  1  0
 26 27  1  0
 26 25  1  1
 28 26  1  0
 29 28  1  0
 30 28  2  0
M  END
$$$$
