EYN.pdb
     RDKit          3D

 30 30  0  0  1  0  0  0  0  0999 V2000
    8.9434  -17.0334   19.1131 N   0  0  0  0  0  0  0  0  0  0  0  0
    9.2335  -17.6667   20.3722 C   0  0  1  0  0  0  0  0  0  0  0  0
   10.5373  -18.4001   20.2134 C   0  0  0  0  0  0  0  0  0  0  0  0
   11.4253  -17.8704   19.1389 C   0  0  0  0  0  0  0  0  0  0  0  0
   12.6314  -18.7355   19.0652 C   0  0  0  0  0  0  0  0  0  0  0  0
   13.7546  -18.2935   18.6922 O   0  0  0  0  0  0  0  0  0  0  0  0
    9.2759  -16.6294   21.4411 C   0  0  0  0  0  0  0  0  0  0  0  0
   10.3000  -15.8975   21.6008 O   0  0  0  0  0  0  0  0  0  0  0  0
   12.5857  -20.0803   19.4039 O   0  0  0  0  0  0  0  0  0  0  0  0
    6.7587  -11.0559   27.7894 O   0  0  0  0  0  0  0  0  0  0  0  0
    6.7525  -12.0333   26.7786 C   0  0  0  0  0  0  0  0  0  0  0  0
    6.1897  -13.2815   26.9698 C   0  0  0  0  0  0  0  0  0  0  0  0
    6.1756  -14.2495   25.9898 C   0  0  0  0  0  0  0  0  0  0  0  0
    6.7425  -13.9618   24.7779 C   0  0  0  0  0  0  0  0  0  0  0  0
    6.7479  -14.9646   23.7056 C   0  0  0  0  0  0  0  0  0  0  0  0
    8.1417  -15.4440   23.3684 C   0  0  2  0  0  0  0  0  0  0  0  0
    8.1745  -16.4221   22.3182 N   0  0  0  0  0  0  0  0  0  0  0  0
    8.7676  -15.9367   24.6242 C   0  0  0  0  0  0  0  0  0  0  0  0
    8.9118  -15.1984   25.6321 O   0  0  0  0  0  0  0  0  0  0  0  0
    7.3089  -12.7352   24.5544 C   0  0  0  0  0  0  0  0  0  0  0  0
    7.3083  -11.7972   25.5422 C   0  0  0  0  0  0  0  0  0  0  0  0
    8.9029  -18.8444   28.7820 N   0  0  0  0  0  0  0  0  0  0  0  0
    8.5506  -19.1445   27.4396 C   0  0  0  0  0  0  0  0  0  0  0  0
    7.3129  -19.4142   27.2680 O   0  0  0  0  0  0  0  0  0  0  0  0
    9.5073  -19.1492   26.3169 C   0  0  0  0  0  0  0  0  0  0  0  0
    9.8996  -17.7462   25.9949 C   0  0  2  0  0  0  0  0  0  0  0  0
    9.2445  -17.2680   24.7733 N   0  0  0  0  0  0  0  0  0  0  0  0
   11.3447  -17.7115   25.6952 C   0  0  0  0  0  0  0  0  0  0  0  0
   11.8015  -17.7647   24.4056 O   0  0  0  0  0  0  0  0  0  0  0  0
   12.1743  -17.6326   26.6213 O   0  0  0  0  0  0  0  0  0  0  0  0
  2  1  1  6
  2  3  1  0
  3  4  1  0
  4  5  1  0
  5  9  1  0
  6  5  2  0
  7  8  2  0
  7  2  1  0
 10 11  1  0
 11 21  2  0
 12 11  1  0
 12 13  2  0
 13 14  1  0
 14 20  2  0
 14 15  1  0
 16 15  1  1
 16 18  1  0
 16 17  1  0
 17  7  1  0
 18 27  1  0
 19 18  2  0
 21 20  1  0
 23 22  1  0
 23 24  2  0
 25 23  1  0
 26 27  1  0
 26 25  1  6
 28 26  1  0
 29 28  1  0
 30 28  2  0
M  END
$$$$
