EYN.pdb
     RDKit          3D

 30 30  0  0  1  0  0  0  0  0999 V2000
    8.5868  -16.1348   21.5208 N   0  0  0  0  0  0  0  0  0  0  0  0
    8.9381  -17.4510   21.9842 C   0  0  1  0  0  0  0  0  0  0  0  0
    9.2503  -18.2832   20.7706 C   0  0  0  0  0  0  0  0  0  0  0  0
    9.2438  -17.5345   19.4810 C   0  0  0  0  0  0  0  0  0  0  0  0
    9.6335  -18.4736   18.3971 C   0  0  0  0  0  0  0  0  0  0  0  0
   10.7197  -18.3557   17.7629 O   0  0  0  0  0  0  0  0  0  0  0  0
   10.0861  -17.3451   22.9281 C   0  0  0  0  0  0  0  0  0  0  0  0
   10.9142  -18.2977   23.0589 O   0  0  0  0  0  0  0  0  0  0  0  0
    8.8199  -19.5338   18.0238 O   0  0  0  0  0  0  0  0  0  0  0  0
    6.0952  -10.6650   26.8252 O   0  0  0  0  0  0  0  0  0  0  0  0
    6.5891  -11.8201   26.1937 C   0  0  0  0  0  0  0  0  0  0  0  0
    7.8101  -12.3740   26.5306 C   0  0  0  0  0  0  0  0  0  0  0  0
    8.3076  -13.5051   25.9215 C   0  0  0  0  0  0  0  0  0  0  0  0
    7.5610  -14.1034   24.9430 C   0  0  0  0  0  0  0  0  0  0  0  0
    8.0536  -15.3111   24.2692 C   0  0  0  0  0  0  0  0  0  0  0  0
    9.4202  -15.7317   24.7610 C   0  0  2  0  0  0  0  0  0  0  0  0
   10.2955  -16.1774   23.7140 N   0  0  0  0  0  0  0  0  0  0  0  0
    9.2250  -16.7615   25.8159 C   0  0  0  0  0  0  0  0  0  0  0  0
    8.3618  -16.6336   26.7216 O   0  0  0  0  0  0  0  0  0  0  0  0
    6.3469  -13.5811   24.5845 C   0  0  0  0  0  0  0  0  0  0  0  0
    5.8799  -12.4615   25.2041 C   0  0  0  0  0  0  0  0  0  0  0  0
    7.5257  -20.4705   26.2180 N   0  0  0  0  0  0  0  0  0  0  0  0
    8.8489  -20.7399   25.7790 C   0  0  0  0  0  0  0  0  0  0  0  0
    8.9168  -21.3868   24.6786 O   0  0  0  0  0  0  0  0  0  0  0  0
   10.0613  -20.3192   26.5063 C   0  0  0  0  0  0  0  0  0  0  0  0
    9.8922  -18.9144   26.9796 C   0  0  2  0  0  0  0  0  0  0  0  0
    9.9953  -17.9553   25.8754 N   0  0  0  0  0  0  0  0  0  0  0  0
   11.0078  -18.5787   27.8863 C   0  0  0  0  0  0  0  0  0  0  0  0
   11.2074  -19.2721   29.0498 O   0  0  0  0  0  0  0  0  0  0  0  0
   11.7890  -17.6512   27.6008 O   0  0  0  0  0  0  0  0  0  0  0  0
  2  1  1  6
  2  3  1  0
  3  4  1  0
  4  5  1  0
  5  9  1  0
  6  5  2  0
  7  8  2  0
  7  2  1  0
 10 11  1  0
 11 21  2  0
 12 11  1  0
 12 13  2  0
 13 14  1  0
 14 20  2  0
 14 15  1  0
 16 15  1  6
 16 18  1  0
 16 17  1  0
 17  7  1  0
 18 27  1  0
 19 18  2  0
 21 20  1  0
 23 22  1  0
 23 24  2  0
 25 23  1  0
 26 27  1  0
 26 25  1  6
 28 26  1  0
 29 28  1  0
 30 28  2  0
M  END
$$$$
