EYN.pdb
     RDKit          3D

 30 30  0  0  1  0  0  0  0  0999 V2000
    8.8021  -18.1654   19.7575 N   0  0  0  0  0  0  0  0  0  0  0  0
    9.9231  -17.2672   19.6736 C   0  0  1  0  0  0  0  0  0  0  0  0
    9.9350  -16.6965   18.2818 C   0  0  0  0  0  0  0  0  0  0  0  0
    8.7012  -16.9616   17.4872 C   0  0  0  0  0  0  0  0  0  0  0  0
    8.8071  -16.2190   16.2042 C   0  0  0  0  0  0  0  0  0  0  0  0
    8.4124  -15.0250   16.0834 O   0  0  0  0  0  0  0  0  0  0  0  0
    9.7915  -16.2237   20.7291 C   0  0  0  0  0  0  0  0  0  0  0  0
   10.6964  -15.3510   20.9012 O   0  0  0  0  0  0  0  0  0  0  0  0
    9.3475  -16.8021   15.0670 O   0  0  0  0  0  0  0  0  0  0  0  0
    7.0173  -11.2541   27.3935 O   0  0  0  0  0  0  0  0  0  0  0  0
    7.0475  -12.1665   26.3241 C   0  0  0  0  0  0  0  0  0  0  0  0
    6.4082  -13.3906   26.3872 C   0  0  0  0  0  0  0  0  0  0  0  0
    6.4284  -14.2950   25.3483 C   0  0  0  0  0  0  0  0  0  0  0  0
    7.1098  -13.9665   24.2079 C   0  0  0  0  0  0  0  0  0  0  0  0
    7.1555  -14.9010   23.0767 C   0  0  0  0  0  0  0  0  0  0  0  0
    8.5601  -15.3684   22.7682 C   0  0  2  0  0  0  0  0  0  0  0  0
    8.6516  -16.1676   21.5792 N   0  0  0  0  0  0  0  0  0  0  0  0
    9.0764  -16.0757   23.9701 C   0  0  0  0  0  0  0  0  0  0  0  0
    9.0299  -15.5629   25.1175 O   0  0  0  0  0  0  0  0  0  0  0  0
    7.7544  -12.7619   24.1117 C   0  0  0  0  0  0  0  0  0  0  0  0
    7.7174  -11.8870   25.1550 C   0  0  0  0  0  0  0  0  0  0  0  0
   10.1289  -20.7851   26.9666 N   0  0  0  0  0  0  0  0  0  0  0  0
   10.9643  -20.1838   25.9884 C   0  0  0  0  0  0  0  0  0  0  0  0
   12.2146  -20.2677   26.2408 O   0  0  0  0  0  0  0  0  0  0  0  0
   10.4625  -19.5156   24.7730 C   0  0  0  0  0  0  0  0  0  0  0  0
   10.0907  -18.1080   25.0995 C   0  0  2  0  0  0  0  0  0  0  0  0
    9.6557  -17.3729   23.9077 N   0  0  0  0  0  0  0  0  0  0  0  0
   11.2929  -17.3946   25.5739 C   0  0  0  0  0  0  0  0  0  0  0  0
   12.1994  -16.8710   24.6915 O   0  0  0  0  0  0  0  0  0  0  0  0
   11.4993  -17.2591   26.7950 O   0  0  0  0  0  0  0  0  0  0  0  0
  2  1  1  6
  2  3  1  0
  3  4  1  0
  4  5  1  0
  5  9  1  0
  6  5  2  0
  7  8  2  0
  7  2  1  0
 10 11  1  0
 11 21  2  0
 12 11  1  0
 12 13  2  0
 13 14  1  0
 14 20  2  0
 14 15  1  0
 16 15  1  1
 16 18  1  0
 16 17  1  0
 17  7  1  0
 18 27  1  0
 19 18  2  0
 21 20  1  0
 23 22  1  0
 23 24  2  0
 25 23  1  0
 26 27  1  0
 26 25  1  6
 28 26  1  0
 29 28  1  0
 30 28  2  0
M  END
$$$$
