EYN.pdb
     RDKit          3D

 30 30  0  0  1  0  0  0  0  0999 V2000
   10.1410  -16.9594   18.6555 N   0  0  0  0  0  0  0  0  0  0  0  0
    8.9767  -17.0425   19.4969 C   0  0  1  0  0  0  0  0  0  0  0  0
    8.7619  -18.4959   19.8199 C   0  0  0  0  0  0  0  0  0  0  0  0
    9.4591  -19.4482   18.9085 C   0  0  0  0  0  0  0  0  0  0  0  0
    9.0701  -20.8295   19.2949 C   0  0  0  0  0  0  0  0  0  0  0  0
    9.9092  -21.6679   19.7299 O   0  0  0  0  0  0  0  0  0  0  0  0
    9.1903  -16.2025   20.7089 C   0  0  0  0  0  0  0  0  0  0  0  0
   10.3462  -16.0678   21.2149 O   0  0  0  0  0  0  0  0  0  0  0  0
    7.7586  -21.2718   19.1973 O   0  0  0  0  0  0  0  0  0  0  0  0
    7.2490  -11.8902   28.1871 O   0  0  0  0  0  0  0  0  0  0  0  0
    7.1586  -12.4858   26.9166 C   0  0  0  0  0  0  0  0  0  0  0  0
    7.7688  -11.9361   25.8046 C   0  0  0  0  0  0  0  0  0  0  0  0
    7.6897  -12.5075   24.5537 C   0  0  0  0  0  0  0  0  0  0  0  0
    6.9772  -13.6667   24.4077 C   0  0  0  0  0  0  0  0  0  0  0  0
    6.8686  -14.3092   23.0922 C   0  0  0  0  0  0  0  0  0  0  0  0
    8.1506  -14.9938   22.6747 C   0  0  2  0  0  0  0  0  0  0  0  0
    8.1111  -15.5234   21.3410 N   0  0  0  0  0  0  0  0  0  0  0  0
    8.4603  -16.0345   23.6909 C   0  0  0  0  0  0  0  0  0  0  0  0
    7.7591  -17.0705   23.8200 O   0  0  0  0  0  0  0  0  0  0  0  0
    6.3601  -14.2384   25.4884 C   0  0  0  0  0  0  0  0  0  0  0  0
    6.4555  -13.6511   26.7137 C   0  0  0  0  0  0  0  0  0  0  0  0
   12.6388  -17.2903   23.1351 N   0  0  0  0  0  0  0  0  0  0  0  0
   11.6792  -17.8527   24.0178 C   0  0  0  0  0  0  0  0  0  0  0  0
   11.0572  -18.8639   23.5437 O   0  0  0  0  0  0  0  0  0  0  0  0
   11.4036  -17.3392   25.3728 C   0  0  0  0  0  0  0  0  0  0  0  0
    9.9525  -17.0138   25.4933 C   0  0  2  0  0  0  0  0  0  0  0  0
    9.5631  -15.9325   24.5828 N   0  0  0  0  0  0  0  0  0  0  0  0
    9.6921  -16.4885   26.8481 C   0  0  0  0  0  0  0  0  0  0  0  0
    9.4079  -17.3294   27.8906 O   0  0  0  0  0  0  0  0  0  0  0  0
    9.7281  -15.2616   27.0615 O   0  0  0  0  0  0  0  0  0  0  0  0
  2  1  1  6
  2  3  1  0
  3  4  1  0
  4  5  1  0
  5  9  1  0
  6  5  2  0
  7  8  2  0
  7  2  1  0
 10 11  1  0
 11 21  2  0
 12 11  1  0
 12 13  2  0
 13 14  1  0
 14 20  2  0
 14 15  1  0
 16 15  1  1
 16 18  1  0
 16 17  1  0
 17  7  1  0
 18 27  1  0
 19 18  2  0
 21 20  1  0
 23 22  1  0
 23 24  2  0
 25 23  1  0
 26 27  1  0
 26 25  1  1
 28 26  1  0
 29 28  1  0
 30 28  2  0
M  END
$$$$
