EYN.pdb
     RDKit          3D

 30 30  0  0  1  0  0  0  0  0999 V2000
    7.6676  -12.6355   19.1749 N   0  0  0  0  0  0  0  0  0  0  0  0
    7.2802  -13.8289   19.8794 C   0  0  1  0  0  0  0  0  0  0  0  0
    7.3465  -14.9678   18.8990 C   0  0  0  0  0  0  0  0  0  0  0  0
    8.6321  -15.0742   18.1508 C   0  0  0  0  0  0  0  0  0  0  0  0
    8.5223  -16.2099   17.1986 C   0  0  0  0  0  0  0  0  0  0  0  0
    7.4187  -16.5593   16.6926 O   0  0  0  0  0  0  0  0  0  0  0  0
    8.1808  -14.0169   21.0515 C   0  0  0  0  0  0  0  0  0  0  0  0
    9.3621  -13.5537   21.0486 O   0  0  0  0  0  0  0  0  0  0  0  0
    9.6321  -16.9489   16.8144 O   0  0  0  0  0  0  0  0  0  0  0  0
    5.8504  -10.7320   27.3163 O   0  0  0  0  0  0  0  0  0  0  0  0
    6.3343  -11.8703   26.6477 C   0  0  0  0  0  0  0  0  0  0  0  0
    7.4643  -12.5442   27.0721 C   0  0  0  0  0  0  0  0  0  0  0  0
    7.9507  -13.6606   26.4281 C   0  0  0  0  0  0  0  0  0  0  0  0
    7.2868  -14.1198   25.3231 C   0  0  0  0  0  0  0  0  0  0  0  0
    7.7708  -15.3070   24.6079 C   0  0  0  0  0  0  0  0  0  0  0  0
    8.5657  -14.9537   23.3711 C   0  0  2  0  0  0  0  0  0  0  0  0
    7.7514  -14.7196   22.2122 N   0  0  0  0  0  0  0  0  0  0  0  0
    9.5681  -16.0304   23.1538 C   0  0  0  0  0  0  0  0  0  0  0  0
    9.2910  -17.0827   22.5233 O   0  0  0  0  0  0  0  0  0  0  0  0
    6.1639  -13.4762   24.8753 C   0  0  0  0  0  0  0  0  0  0  0  0
    5.7057  -12.3744   25.5322 C   0  0  0  0  0  0  0  0  0  0  0  0
   13.8409  -18.9717   23.2039 N   0  0  0  0  0  0  0  0  0  0  0  0
   14.2158  -17.6024   23.1736 C   0  0  0  0  0  0  0  0  0  0  0  0
   15.4736  -17.4035   23.0628 O   0  0  0  0  0  0  0  0  0  0  0  0
   13.2589  -16.4830   23.2570 C   0  0  0  0  0  0  0  0  0  0  0  0
   11.8826  -17.0222   23.4602 C   0  0  2  0  0  0  0  0  0  0  0  0
   10.9016  -15.9475   23.6406 N   0  0  0  0  0  0  0  0  0  0  0  0
   11.8514  -17.7875   24.7222 C   0  0  0  0  0  0  0  0  0  0  0  0
   12.4477  -19.0161   24.8198 O   0  0  0  0  0  0  0  0  0  0  0  0
   11.2763  -17.3201   25.7236 O   0  0  0  0  0  0  0  0  0  0  0  0
  2  1  1  6
  2  3  1  0
  3  4  1  0
  4  5  1  0
  5  9  1  0
  6  5  2  0
  7  8  2  0
  7  2  1  0
 10 11  1  0
 11 21  2  0
 12 11  1  0
 12 13  2  0
 13 14  1  0
 14 20  2  0
 14 15  1  0
 16 15  1  1
 16 18  1  0
 16 17  1  0
 17  7  1  0
 18 27  1  0
 19 18  2  0
 21 20  1  0
 23 22  1  0
 23 24  2  0
 25 23  1  0
 26 27  1  0
 26 25  1  1
 28 26  1  0
 29 28  1  0
 30 28  2  0
M  END
$$$$
