EYN.pdb
     RDKit          3D

 30 30  0  0  1  0  0  0  0  0999 V2000
   10.4116  -16.7779   19.5161 N   0  0  0  0  0  0  0  0  0  0  0  0
    9.1938  -16.3858   20.1748 C   0  0  1  0  0  0  0  0  0  0  0  0
    8.2115  -17.5123   20.0048 C   0  0  0  0  0  0  0  0  0  0  0  0
    8.7372  -18.8599   20.3676 C   0  0  0  0  0  0  0  0  0  0  0  0
    7.6244  -19.8383   20.2533 C   0  0  0  0  0  0  0  0  0  0  0  0
    6.6150  -19.8008   21.0120 O   0  0  0  0  0  0  0  0  0  0  0  0
    9.4885  -16.0814   21.6032 C   0  0  0  0  0  0  0  0  0  0  0  0
   10.5156  -16.5596   22.1746 O   0  0  0  0  0  0  0  0  0  0  0  0
    7.6370  -20.8487   19.3024 O   0  0  0  0  0  0  0  0  0  0  0  0
    8.9703  -12.5121   29.6511 O   0  0  0  0  0  0  0  0  0  0  0  0
    8.6633  -12.8908   28.3323 C   0  0  0  0  0  0  0  0  0  0  0  0
    7.3603  -13.0658   27.9048 C   0  0  0  0  0  0  0  0  0  0  0  0
    7.0432  -13.4364   26.6165 C   0  0  0  0  0  0  0  0  0  0  0  0
    8.0612  -13.6392   25.7247 C   0  0  0  0  0  0  0  0  0  0  0  0
    7.7672  -14.0337   24.3416 C   0  0  0  0  0  0  0  0  0  0  0  0
    8.8053  -14.9762   23.7753 C   0  0  2  0  0  0  0  0  0  0  0  0
    8.6331  -15.2469   22.3760 N   0  0  0  0  0  0  0  0  0  0  0  0
    8.7917  -16.2136   24.5999 C   0  0  0  0  0  0  0  0  0  0  0  0
    7.7484  -16.8975   24.7598 O   0  0  0  0  0  0  0  0  0  0  0  0
    9.3637  -13.4745   26.1147 C   0  0  0  0  0  0  0  0  0  0  0  0
    9.6475  -13.1075   27.3954 C   0  0  0  0  0  0  0  0  0  0  0  0
   11.6001  -18.8420   23.0897 N   0  0  0  0  0  0  0  0  0  0  0  0
   10.7422  -19.2266   24.1537 C   0  0  0  0  0  0  0  0  0  0  0  0
    9.7158  -19.8945   23.7870 O   0  0  0  0  0  0  0  0  0  0  0  0
   10.9891  -18.9018   25.5712 C   0  0  0  0  0  0  0  0  0  0  0  0
    9.9482  -17.9453   26.0485 C   0  0  2  0  0  0  0  0  0  0  0  0
    9.9491  -16.7078   25.2619 N   0  0  0  0  0  0  0  0  0  0  0  0
   10.2799  -17.5265   27.4247 C   0  0  0  0  0  0  0  0  0  0  0  0
   10.2892  -18.4274   28.4557 O   0  0  0  0  0  0  0  0  0  0  0  0
   10.5581  -16.3366   27.6672 O   0  0  0  0  0  0  0  0  0  0  0  0
  2  1  1  6
  2  3  1  0
  3  4  1  0
  4  5  1  0
  5  9  1  0
  6  5  2  0
  7  8  2  0
  7  2  1  0
 10 11  1  0
 11 21  2  0
 12 11  1  0
 12 13  2  0
 13 14  1  0
 14 20  2  0
 14 15  1  0
 16 15  1  1
 16 18  1  0
 16 17  1  0
 17  7  1  0
 18 27  1  0
 19 18  2  0
 21 20  1  0
 23 22  1  0
 23 24  2  0
 25 23  1  0
 26 27  1  0
 26 25  1  6
 28 26  1  0
 29 28  1  0
 30 28  2  0
M  END
$$$$
