EYN.pdb
     RDKit          3D

 30 30  0  0  1  0  0  0  0  0999 V2000
    9.5953  -16.6666   18.3924 N   0  0  0  0  0  0  0  0  0  0  0  0
    8.7781  -16.9271   19.5477 C   0  0  1  0  0  0  0  0  0  0  0  0
    8.9159  -18.3896   19.8717 C   0  0  0  0  0  0  0  0  0  0  0  0
    9.6116  -19.1977   18.8293 C   0  0  0  0  0  0  0  0  0  0  0  0
   10.4955  -20.1766   19.5141 C   0  0  0  0  0  0  0  0  0  0  0  0
   10.1368  -21.3678   19.7342 O   0  0  0  0  0  0  0  0  0  0  0  0
    9.2140  -16.0405   20.6630 C   0  0  0  0  0  0  0  0  0  0  0  0
   10.4012  -16.0871   21.1087 O   0  0  0  0  0  0  0  0  0  0  0  0
   11.7668  -19.8308   19.9493 O   0  0  0  0  0  0  0  0  0  0  0  0
    7.4780  -12.1883   28.4525 O   0  0  0  0  0  0  0  0  0  0  0  0
    7.3977  -12.6271   27.1190 C   0  0  0  0  0  0  0  0  0  0  0  0
    8.3674  -12.3134   26.1849 C   0  0  0  0  0  0  0  0  0  0  0  0
    8.3031  -12.7357   24.8752 C   0  0  0  0  0  0  0  0  0  0  0  0
    7.2348  -13.4966   24.4848 C   0  0  0  0  0  0  0  0  0  0  0  0
    7.1282  -13.9683   23.0986 C   0  0  0  0  0  0  0  0  0  0  0  0
    8.3576  -14.7248   22.6484 C   0  0  2  0  0  0  0  0  0  0  0  0
    8.3195  -15.1128   21.2667 N   0  0  0  0  0  0  0  0  0  0  0  0
    8.5345  -15.8859   23.5605 C   0  0  0  0  0  0  0  0  0  0  0  0
    7.8419  -16.9302   23.4534 O   0  0  0  0  0  0  0  0  0  0  0  0
    6.2561  -13.8258   25.3844 C   0  0  0  0  0  0  0  0  0  0  0  0
    6.3459  -13.3942   26.6732 C   0  0  0  0  0  0  0  0  0  0  0  0
   11.2476  -20.1914   25.2276 N   0  0  0  0  0  0  0  0  0  0  0  0
   11.6017  -18.8445   25.5044 C   0  0  0  0  0  0  0  0  0  0  0  0
   12.3576  -18.6981   26.5248 O   0  0  0  0  0  0  0  0  0  0  0  0
   11.1546  -17.6918   24.6998 C   0  0  0  0  0  0  0  0  0  0  0  0
    9.9087  -17.1263   25.2947 C   0  0  2  0  0  0  0  0  0  0  0  0
    9.4923  -15.8976   24.6115 N   0  0  0  0  0  0  0  0  0  0  0  0
   10.1868  -16.7176   26.6858 C   0  0  0  0  0  0  0  0  0  0  0  0
   10.0620  -17.6036   27.7221 O   0  0  0  0  0  0  0  0  0  0  0  0
   10.5420  -15.5500   26.9361 O   0  0  0  0  0  0  0  0  0  0  0  0
  2  1  1  6
  2  3  1  0
  3  4  1  0
  4  5  1  0
  5  9  1  0
  6  5  2  0
  7  8  2  0
  7  2  1  0
 10 11  1  0
 11 21  2  0
 12 11  1  0
 12 13  2  0
 13 14  1  0
 14 20  2  0
 14 15  1  0
 16 15  1  1
 16 18  1  0
 16 17  1  0
 17  7  1  0
 18 27  1  0
 19 18  2  0
 21 20  1  0
 23 22  1  0
 23 24  2  0
 25 23  1  0
 26 27  1  0
 26 25  1  6
 28 26  1  0
 29 28  1  0
 30 28  2  0
M  END
$$$$
