EYN.pdb
     RDKit          3D

 30 30  0  0  1  0  0  0  0  0999 V2000
    9.3232  -18.2898   20.7406 N   0  0  0  0  0  0  0  0  0  0  0  0
   10.5379  -17.6120   21.1092 C   0  0  1  0  0  0  0  0  0  0  0  0
   11.1704  -17.1077   19.8409 C   0  0  0  0  0  0  0  0  0  0  0  0
   10.5632  -17.6376   18.5862 C   0  0  0  0  0  0  0  0  0  0  0  0
   11.3344  -17.1008   17.4348 C   0  0  0  0  0  0  0  0  0  0  0  0
   12.3672  -16.3899   17.5896 O   0  0  0  0  0  0  0  0  0  0  0  0
   10.2147  -16.5216   22.0718 C   0  0  0  0  0  0  0  0  0  0  0  0
   11.1194  -15.7466   22.5088 O   0  0  0  0  0  0  0  0  0  0  0  0
   10.9576  -17.3540   16.1236 O   0  0  0  0  0  0  0  0  0  0  0  0
    7.7685  -12.8533   17.6183 O   0  0  0  0  0  0  0  0  0  0  0  0
    7.6635  -13.2470   18.9640 C   0  0  0  0  0  0  0  0  0  0  0  0
    8.2611  -12.5320   19.9853 C   0  0  0  0  0  0  0  0  0  0  0  0
    8.1673  -12.9045   21.3082 C   0  0  0  0  0  0  0  0  0  0  0  0
    7.4531  -14.0288   21.6223 C   0  0  0  0  0  0  0  0  0  0  0  0
    7.3272  -14.4604   23.0199 C   0  0  0  0  0  0  0  0  0  0  0  0
    8.5020  -15.2960   23.4757 C   0  0  2  0  0  0  0  0  0  0  0  0
    8.8856  -16.3098   22.5344 N   0  0  0  0  0  0  0  0  0  0  0  0
    8.1675  -15.8575   24.8115 C   0  0  0  0  0  0  0  0  0  0  0  0
    7.6616  -15.1542   25.7232 O   0  0  0  0  0  0  0  0  0  0  0  0
    6.8482  -14.7606   20.6354 C   0  0  0  0  0  0  0  0  0  0  0  0
    6.9578  -14.3684   19.3355 C   0  0  0  0  0  0  0  0  0  0  0  0
    6.0570  -18.2641   24.7059 N   0  0  0  0  0  0  0  0  0  0  0  0
    6.6129  -19.3417   25.4449 C   0  0  0  0  0  0  0  0  0  0  0  0
    6.0870  -20.4792   25.1930 O   0  0  0  0  0  0  0  0  0  0  0  0
    7.7065  -19.1935   26.4236 C   0  0  0  0  0  0  0  0  0  0  0  0
    8.1250  -17.7628   26.4856 C   0  0  2  0  0  0  0  0  0  0  0  0
    8.3948  -17.2196   25.1506 N   0  0  0  0  0  0  0  0  0  0  0  0
    9.4110  -17.6724   27.2048 C   0  0  0  0  0  0  0  0  0  0  0  0
    9.4853  -17.8995   28.5530 O   0  0  0  0  0  0  0  0  0  0  0  0
   10.4546  -17.3855   26.5878 O   0  0  0  0  0  0  0  0  0  0  0  0
  2  1  1  6
  2  3  1  0
  3  4  1  0
  4  5  1  0
  5  9  1  0
  6  5  2  0
  7  8  2  0
  7  2  1  0
 10 11  1  0
 11 21  2  0
 12 11  1  0
 12 13  2  0
 13 14  1  0
 14 20  2  0
 14 15  1  0
 16 15  1  6
 16 18  1  0
 16 17  1  0
 17  7  1  0
 18 27  1  0
 19 18  2  0
 21 20  1  0
 23 22  1  0
 23 24  2  0
 25 23  1  0
 26 27  1  0
 26 25  1  6
 28 26  1  0
 29 28  1  0
 30 28  2  0
M  END
$$$$
