EYN.pdb
     RDKit          3D

 30 30  0  0  1  0  0  0  0  0999 V2000
   10.1572  -18.1300   19.2814 N   0  0  0  0  0  0  0  0  0  0  0  0
    9.0864  -18.2891   20.2293 C   0  0  1  0  0  0  0  0  0  0  0  0
    9.0902  -19.7273   20.6702 C   0  0  0  0  0  0  0  0  0  0  0  0
    8.7134  -20.7067   19.6107 C   0  0  0  0  0  0  0  0  0  0  0  0
    8.6744  -22.0604   20.2227 C   0  0  0  0  0  0  0  0  0  0  0  0
    9.4367  -22.9931   19.8418 O   0  0  0  0  0  0  0  0  0  0  0  0
    9.2869  -17.3347   21.3558 C   0  0  0  0  0  0  0  0  0  0  0  0
   10.4525  -16.9906   21.7208 O   0  0  0  0  0  0  0  0  0  0  0  0
    7.7941  -22.3712   21.2492 O   0  0  0  0  0  0  0  0  0  0  0  0
    7.9067  -11.9909   18.1168 O   0  0  0  0  0  0  0  0  0  0  0  0
    7.7864  -12.6529   19.3514 C   0  0  0  0  0  0  0  0  0  0  0  0
    8.6540  -12.4109   20.4002 C   0  0  0  0  0  0  0  0  0  0  0  0
    8.5492  -13.0510   21.6154 C   0  0  0  0  0  0  0  0  0  0  0  0
    7.5445  -13.9637   21.7897 C   0  0  0  0  0  0  0  0  0  0  0  0
    7.3964  -14.6675   23.0696 C   0  0  0  0  0  0  0  0  0  0  0  0
    8.2989  -15.8762   23.1733 C   0  0  2  0  0  0  0  0  0  0  0  0
    8.1839  -16.7762   22.0607 N   0  0  0  0  0  0  0  0  0  0  0  0
    8.0186  -16.5408   24.4737 C   0  0  0  0  0  0  0  0  0  0  0  0
    6.8908  -16.4764   25.0265 O   0  0  0  0  0  0  0  0  0  0  0  0
    6.6673  -14.2276   20.7717 C   0  0  0  0  0  0  0  0  0  0  0  0
    6.7951  -13.5793   19.5805 C   0  0  0  0  0  0  0  0  0  0  0  0
    6.2251  -19.6596   26.4888 N   0  0  0  0  0  0  0  0  0  0  0  0
    7.4670  -19.9136   25.8489 C   0  0  0  0  0  0  0  0  0  0  0  0
    7.3756  -20.6079   24.7795 O   0  0  0  0  0  0  0  0  0  0  0  0
    8.7672  -19.4284   26.3488 C   0  0  0  0  0  0  0  0  0  0  0  0
    8.7290  -17.9415   26.4657 C   0  0  2  0  0  0  0  0  0  0  0  0
    8.9991  -17.2905   25.1799 N   0  0  0  0  0  0  0  0  0  0  0  0
    9.8230  -17.5045   27.3554 C   0  0  0  0  0  0  0  0  0  0  0  0
    9.8262  -17.8296   28.6853 O   0  0  0  0  0  0  0  0  0  0  0  0
   10.7659  -16.8279   26.9023 O   0  0  0  0  0  0  0  0  0  0  0  0
  2  1  1  6
  2  3  1  0
  3  4  1  0
  4  5  1  0
  5  9  1  0
  6  5  2  0
  7  8  2  0
  7  2  1  0
 10 11  1  0
 11 21  2  0
 12 11  1  0
 12 13  2  0
 13 14  1  0
 14 20  2  0
 14 15  1  0
 16 15  1  6
 16 18  1  0
 16 17  1  0
 17  7  1  0
 18 27  1  0
 19 18  2  0
 21 20  1  0
 23 22  1  0
 23 24  2  0
 25 23  1  0
 26 27  1  0
 26 25  1  6
 28 26  1  0
 29 28  1  0
 30 28  2  0
M  END
$$$$
