EYN.pdb
     RDKit          3D

 30 30  0  0  1  0  0  0  0  0999 V2000
    7.6888  -12.8564   18.4466 N   0  0  0  0  0  0  0  0  0  0  0  0
    7.5292  -14.1171   19.1219 C   0  0  1  0  0  0  0  0  0  0  0  0
    8.1106  -15.1788   18.2288 C   0  0  0  0  0  0  0  0  0  0  0  0
    7.7283  -15.0648   16.7919 C   0  0  0  0  0  0  0  0  0  0  0  0
    8.1755  -16.2980   16.0934 C   0  0  0  0  0  0  0  0  0  0  0  0
    9.3213  -16.7974   16.2773 O   0  0  0  0  0  0  0  0  0  0  0  0
    8.1973  -14.0456   20.4518 C   0  0  0  0  0  0  0  0  0  0  0  0
    9.4524  -13.8831   20.5444 O   0  0  0  0  0  0  0  0  0  0  0  0
    7.3532  -16.9678   15.1987 O   0  0  0  0  0  0  0  0  0  0  0  0
    9.4887  -13.9321   29.1837 O   0  0  0  0  0  0  0  0  0  0  0  0
    8.8785  -13.9692   27.9175 C   0  0  0  0  0  0  0  0  0  0  0  0
    8.3848  -15.1415   27.3762 C   0  0  0  0  0  0  0  0  0  0  0  0
    7.7844  -15.1942   26.1374 C   0  0  0  0  0  0  0  0  0  0  0  0
    7.6733  -14.0375   25.4145 C   0  0  0  0  0  0  0  0  0  0  0  0
    7.0392  -14.0492   24.0905 C   0  0  0  0  0  0  0  0  0  0  0  0
    8.0397  -14.2299   22.9712 C   0  0  2  0  0  0  0  0  0  0  0  0
    7.4561  -14.1563   21.6616 N   0  0  0  0  0  0  0  0  0  0  0  0
    8.7536  -15.5134   23.2044 C   0  0  0  0  0  0  0  0  0  0  0  0
    8.2637  -16.6208   22.8646 O   0  0  0  0  0  0  0  0  0  0  0  0
    8.1517  -12.8584   25.9207 C   0  0  0  0  0  0  0  0  0  0  0  0
    8.7407  -12.8362   27.1488 C   0  0  0  0  0  0  0  0  0  0  0  0
   12.9941  -18.9897   22.8524 N   0  0  0  0  0  0  0  0  0  0  0  0
   12.9870  -17.8542   23.7050 C   0  0  0  0  0  0  0  0  0  0  0  0
   13.7239  -17.9709   24.7430 O   0  0  0  0  0  0  0  0  0  0  0  0
   12.2093  -16.6289   23.4409 C   0  0  0  0  0  0  0  0  0  0  0  0
   10.8081  -16.8198   23.9165 C   0  0  2  0  0  0  0  0  0  0  0  0
   10.0317  -15.5794   23.8243 N   0  0  0  0  0  0  0  0  0  0  0  0
   10.8332  -17.1518   25.3547 C   0  0  0  0  0  0  0  0  0  0  0  0
   11.0103  -18.4410   25.7804 O   0  0  0  0  0  0  0  0  0  0  0  0
   10.6923  -16.2541   26.2070 O   0  0  0  0  0  0  0  0  0  0  0  0
  2  1  1  6
  2  3  1  0
  3  4  1  0
  4  5  1  0
  5  9  1  0
  6  5  2  0
  7  8  2  0
  7  2  1  0
 10 11  1  0
 11 21  2  0
 12 11  1  0
 12 13  2  0
 13 14  1  0
 14 20  2  0
 14 15  1  0
 16 15  1  1
 16 18  1  0
 16 17  1  0
 17  7  1  0
 18 27  1  0
 19 18  2  0
 21 20  1  0
 23 22  1  0
 23 24  2  0
 25 23  1  0
 26 27  1  0
 26 25  1  1
 28 26  1  0
 29 28  1  0
 30 28  2  0
M  END
$$$$
