EYN.pdb
     RDKit          3D

 30 30  0  0  1  0  0  0  0  0999 V2000
    7.7867  -17.6778   19.1317 N   0  0  0  0  0  0  0  0  0  0  0  0
    9.1520  -17.2429   19.2645 C   0  0  1  0  0  0  0  0  0  0  0  0
    9.5020  -16.4826   18.0146 C   0  0  0  0  0  0  0  0  0  0  0  0
    8.5032  -16.5969   16.9133 C   0  0  0  0  0  0  0  0  0  0  0  0
    9.2130  -17.0476   15.6878 C   0  0  0  0  0  0  0  0  0  0  0  0
    9.7461  -18.1896   15.6008 O   0  0  0  0  0  0  0  0  0  0  0  0
    9.2840  -16.4222   20.5010 C   0  0  0  0  0  0  0  0  0  0  0  0
   10.4172  -16.0039   20.8895 O   0  0  0  0  0  0  0  0  0  0  0  0
    9.3274  -16.2329   14.5705 O   0  0  0  0  0  0  0  0  0  0  0  0
    7.3259  -11.8631   27.7981 O   0  0  0  0  0  0  0  0  0  0  0  0
    7.2368  -12.5420   26.5700 C   0  0  0  0  0  0  0  0  0  0  0  0
    7.7624  -12.0183   25.4036 C   0  0  0  0  0  0  0  0  0  0  0  0
    7.6834  -12.6710   24.1930 C   0  0  0  0  0  0  0  0  0  0  0  0
    7.0587  -13.8876   24.1452 C   0  0  0  0  0  0  0  0  0  0  0  0
    6.9536  -14.6173   22.8757 C   0  0  0  0  0  0  0  0  0  0  0  0
    8.2091  -15.3941   22.5489 C   0  0  2  0  0  0  0  0  0  0  0  0
    8.1494  -16.0785   21.2883 N   0  0  0  0  0  0  0  0  0  0  0  0
    8.4802  -16.3156   23.6841 C   0  0  0  0  0  0  0  0  0  0  0  0
    7.8289  -17.3784   23.8510 O   0  0  0  0  0  0  0  0  0  0  0  0
    6.5268  -14.4357   25.2820 C   0  0  0  0  0  0  0  0  0  0  0  0
    6.6198  -13.7675   26.4654 C   0  0  0  0  0  0  0  0  0  0  0  0
   13.2900  -17.9430   26.5961 N   0  0  0  0  0  0  0  0  0  0  0  0
   12.4579  -18.1743   25.4689 C   0  0  0  0  0  0  0  0  0  0  0  0
   12.4165  -19.3935   25.0867 O   0  0  0  0  0  0  0  0  0  0  0  0
   11.6915  -17.1198   24.7788 C   0  0  0  0  0  0  0  0  0  0  0  0
   10.2836  -17.1275   25.2725 C   0  0  2  0  0  0  0  0  0  0  0  0
    9.4878  -16.0620   24.6550 N   0  0  0  0  0  0  0  0  0  0  0  0
   10.2825  -16.8206   26.7166 C   0  0  0  0  0  0  0  0  0  0  0  0
   10.1428  -15.5352   27.1668 O   0  0  0  0  0  0  0  0  0  0  0  0
   10.4099  -17.7366   27.5513 O   0  0  0  0  0  0  0  0  0  0  0  0
  2  1  1  6
  2  3  1  0
  3  4  1  0
  4  5  1  0
  5  9  1  0
  6  5  2  0
  7  8  2  0
  7  2  1  0
 10 11  1  0
 11 21  2  0
 12 11  1  0
 12 13  2  0
 13 14  1  0
 14 20  2  0
 14 15  1  0
 16 15  1  1
 16 18  1  0
 16 17  1  0
 17  7  1  0
 18 27  1  0
 19 18  2  0
 21 20  1  0
 23 22  1  0
 23 24  2  0
 25 23  1  0
 26 27  1  0
 26 25  1  6
 28 26  1  0
 29 28  1  0
 30 28  2  0
M  END
$$$$
