EYN.pdb
     RDKit          3D

 30 30  0  0  1  0  0  0  0  0999 V2000
    7.8845  -13.3836   20.0378 N   0  0  0  0  0  0  0  0  0  0  0  0
    7.8100  -14.6997   20.6148 C   0  0  1  0  0  0  0  0  0  0  0  0
    8.4850  -15.6452   19.6592 C   0  0  0  0  0  0  0  0  0  0  0  0
    7.8229  -15.7670   18.3285 C   0  0  0  0  0  0  0  0  0  0  0  0
    8.4540  -16.8967   17.5978 C   0  0  0  0  0  0  0  0  0  0  0  0
    9.3658  -17.6046   18.1114 O   0  0  0  0  0  0  0  0  0  0  0  0
    8.4488  -14.6785   21.9608 C   0  0  0  0  0  0  0  0  0  0  0  0
    9.4822  -13.9763   22.1824 O   0  0  0  0  0  0  0  0  0  0  0  0
    8.0724  -17.2340   16.3071 O   0  0  0  0  0  0  0  0  0  0  0  0
    6.2441  -10.1111   27.0359 O   0  0  0  0  0  0  0  0  0  0  0  0
    6.5320  -11.4293   26.6405 C   0  0  0  0  0  0  0  0  0  0  0  0
    5.6324  -12.1903   25.9173 C   0  0  0  0  0  0  0  0  0  0  0  0
    5.8996  -13.4827   25.5224 C   0  0  0  0  0  0  0  0  0  0  0  0
    7.1055  -14.0342   25.8609 C   0  0  0  0  0  0  0  0  0  0  0  0
    7.4310  -15.4081   25.4589 C   0  0  0  0  0  0  0  0  0  0  0  0
    8.4769  -15.4598   24.3681 C   0  0  2  0  0  0  0  0  0  0  0  0
    7.9260  -15.4413   23.0425 N   0  0  0  0  0  0  0  0  0  0  0  0
    9.3288  -16.6537   24.6134 C   0  0  0  0  0  0  0  0  0  0  0  0
    8.9912  -17.8039   24.2327 O   0  0  0  0  0  0  0  0  0  0  0  0
    8.0200  -13.3084   26.5768 C   0  0  0  0  0  0  0  0  0  0  0  0
    7.7285  -12.0323   26.9538 C   0  0  0  0  0  0  0  0  0  0  0  0
   13.7926  -15.7803   23.6854 N   0  0  0  0  0  0  0  0  0  0  0  0
   13.1999  -17.0196   24.0447 C   0  0  0  0  0  0  0  0  0  0  0  0
   12.9641  -17.7961   23.0571 O   0  0  0  0  0  0  0  0  0  0  0  0
   12.8758  -17.4082   25.4302 C   0  0  0  0  0  0  0  0  0  0  0  0
   11.4269  -17.7525   25.5217 C   0  0  2  0  0  0  0  0  0  0  0  0
   10.5766  -16.5804   25.2913 N   0  0  0  0  0  0  0  0  0  0  0  0
   11.1246  -18.1818   26.9015 C   0  0  0  0  0  0  0  0  0  0  0  0
   11.7318  -19.2794   27.4502 O   0  0  0  0  0  0  0  0  0  0  0  0
   10.3052  -17.5442   27.5901 O   0  0  0  0  0  0  0  0  0  0  0  0
  2  1  1  6
  2  3  1  0
  3  4  1  0
  4  5  1  0
  5  9  1  0
  6  5  2  0
  7  8  2  0
  7  2  1  0
 10 11  1  0
 11 21  2  0
 12 11  1  0
 12 13  2  0
 13 14  1  0
 14 20  2  0
 14 15  1  0
 16 15  1  1
 16 18  1  0
 16 17  1  0
 17  7  1  0
 18 27  1  0
 19 18  2  0
 21 20  1  0
 23 22  1  0
 23 24  2  0
 25 23  1  0
 26 27  1  0
 26 25  1  1
 28 26  1  0
 29 28  1  0
 30 28  2  0
M  END
$$$$
