EYN.pdb
     RDKit          3D

 30 30  0  0  1  0  0  0  0  0999 V2000
    9.3088  -15.5937   20.7424 N   0  0  0  0  0  0  0  0  0  0  0  0
    8.9198  -16.7693   21.4755 C   0  0  1  0  0  0  0  0  0  0  0  0
    9.8751  -17.8680   21.0972 C   0  0  0  0  0  0  0  0  0  0  0  0
   10.2935  -17.8669   19.6658 C   0  0  0  0  0  0  0  0  0  0  0  0
   11.1324  -19.0701   19.4266 C   0  0  0  0  0  0  0  0  0  0  0  0
   11.6617  -19.3089   18.3046 O   0  0  0  0  0  0  0  0  0  0  0  0
    8.9347  -16.4617   22.9333 C   0  0  0  0  0  0  0  0  0  0  0  0
   10.0031  -16.0981   23.5133 O   0  0  0  0  0  0  0  0  0  0  0  0
   11.3786  -19.9980   20.4285 O   0  0  0  0  0  0  0  0  0  0  0  0
    6.8968  -10.0395   26.0638 O   0  0  0  0  0  0  0  0  0  0  0  0
    6.7807  -11.4350   25.9375 C   0  0  0  0  0  0  0  0  0  0  0  0
    7.1728  -12.1022   24.7919 C   0  0  0  0  0  0  0  0  0  0  0  0
    7.0656  -13.4685   24.6529 C   0  0  0  0  0  0  0  0  0  0  0  0
    6.5494  -14.1934   25.6926 C   0  0  0  0  0  0  0  0  0  0  0  0
    6.4188  -15.6518   25.5863 C   0  0  0  0  0  0  0  0  0  0  0  0
    7.7009  -16.3166   25.1385 C   0  0  2  0  0  0  0  0  0  0  0  0
    7.7569  -16.5637   23.7255 N   0  0  0  0  0  0  0  0  0  0  0  0
    7.8718  -17.5575   25.9401 C   0  0  0  0  0  0  0  0  0  0  0  0
    7.1763  -18.5852   25.7353 O   0  0  0  0  0  0  0  0  0  0  0  0
    6.1511  -13.5644   26.8420 C   0  0  0  0  0  0  0  0  0  0  0  0
    6.2689  -12.2118   26.9515 C   0  0  0  0  0  0  0  0  0  0  0  0
   12.4277  -20.8356   26.1719 N   0  0  0  0  0  0  0  0  0  0  0  0
   11.0634  -20.6188   26.5006 C   0  0  0  0  0  0  0  0  0  0  0  0
   10.5280  -21.5637   27.1748 O   0  0  0  0  0  0  0  0  0  0  0  0
   10.3030  -19.4152   26.1147 C   0  0  0  0  0  0  0  0  0  0  0  0
    9.5320  -18.9183   27.2915 C   0  0  2  0  0  0  0  0  0  0  0  0
    8.8266  -17.6693   26.9879 N   0  0  0  0  0  0  0  0  0  0  0  0
   10.4782  -18.5732   28.3708 C   0  0  0  0  0  0  0  0  0  0  0  0
   10.6825  -17.2717   28.7434 O   0  0  0  0  0  0  0  0  0  0  0  0
   11.1086  -19.4708   28.9615 O   0  0  0  0  0  0  0  0  0  0  0  0
  2  1  1  6
  2  3  1  0
  3  4  1  0
  4  5  1  0
  5  9  1  0
  6  5  2  0
  7  8  2  0
  7  2  1  0
 10 11  1  0
 11 21  2  0
 12 11  1  0
 12 13  2  0
 13 14  1  0
 14 20  2  0
 14 15  1  0
 16 15  1  6
 16 18  1  0
 16 17  1  0
 17  7  1  0
 18 27  1  0
 19 18  2  0
 21 20  1  0
 23 22  1  0
 23 24  2  0
 25 23  1  0
 26 27  1  0
 26 25  1  6
 28 26  1  0
 29 28  1  0
 30 28  2  0
M  END
$$$$
