EYN.pdb
     RDKit          3D

 30 30  0  0  1  0  0  0  0  0999 V2000
    7.6855  -16.9208   19.1139 N   0  0  0  0  0  0  0  0  0  0  0  0
    8.9370  -16.2109   19.1375 C   0  0  1  0  0  0  0  0  0  0  0  0
    8.9233  -15.2432   17.9858 C   0  0  0  0  0  0  0  0  0  0  0  0
    7.9586  -15.5786   16.8993 C   0  0  0  0  0  0  0  0  0  0  0  0
    8.5621  -16.6424   16.0550 C   0  0  0  0  0  0  0  0  0  0  0  0
    8.3673  -17.8704   16.2789 O   0  0  0  0  0  0  0  0  0  0  0  0
    9.0920  -15.5403   20.4590 C   0  0  0  0  0  0  0  0  0  0  0  0
   10.0929  -14.7992   20.7020 O   0  0  0  0  0  0  0  0  0  0  0  0
    9.3747  -16.3400   14.9717 O   0  0  0  0  0  0  0  0  0  0  0  0
    7.4543  -11.6858   28.1348 O   0  0  0  0  0  0  0  0  0  0  0  0
    7.3195  -12.4167   26.9412 C   0  0  0  0  0  0  0  0  0  0  0  0
    7.7548  -11.9219   25.7260 C   0  0  0  0  0  0  0  0  0  0  0  0
    7.6300  -12.6255   24.5483 C   0  0  0  0  0  0  0  0  0  0  0  0
    7.0510  -13.8650   24.5848 C   0  0  0  0  0  0  0  0  0  0  0  0
    6.8997  -14.6488   23.3528 C   0  0  0  0  0  0  0  0  0  0  0  0
    8.2259  -15.1198   22.7998 C   0  0  2  0  0  0  0  0  0  0  0  0
    8.1279  -15.7054   21.4927 N   0  0  0  0  0  0  0  0  0  0  0  0
    8.8281  -16.0467   23.7946 C   0  0  0  0  0  0  0  0  0  0  0  0
    8.3621  -17.1960   24.0034 O   0  0  0  0  0  0  0  0  0  0  0  0
    6.6086  -14.3855   25.7717 C   0  0  0  0  0  0  0  0  0  0  0  0
    6.7452  -13.6670   26.9209 C   0  0  0  0  0  0  0  0  0  0  0  0
   13.9251  -16.1564   23.5155 N   0  0  0  0  0  0  0  0  0  0  0  0
   12.6638  -16.6180   23.9762 C   0  0  0  0  0  0  0  0  0  0  0  0
   11.9709  -17.2268   23.0912 O   0  0  0  0  0  0  0  0  0  0  0  0
   12.1689  -16.4299   25.3530 C   0  0  0  0  0  0  0  0  0  0  0  0
   10.6980  -16.6773   25.3885 C   0  0  2  0  0  0  0  0  0  0  0  0
    9.9655  -15.7016   24.5753 N   0  0  0  0  0  0  0  0  0  0  0  0
   10.2124  -16.4707   26.7673 C   0  0  0  0  0  0  0  0  0  0  0  0
   10.3656  -17.4382   27.7239 O   0  0  0  0  0  0  0  0  0  0  0  0
    9.6518  -15.4031   27.0802 O   0  0  0  0  0  0  0  0  0  0  0  0
  2  1  1  1
  2  3  1  0
  3  4  1  0
  4  5  1  0
  5  9  1  0
  6  5  2  0
  7  8  2  0
  7  2  1  0
 10 11  1  0
 11 21  2  0
 12 11  1  0
 12 13  2  0
 13 14  1  0
 14 20  2  0
 14 15  1  0
 16 15  1  1
 16 18  1  0
 16 17  1  0
 17  7  1  0
 18 27  1  0
 19 18  2  0
 21 20  1  0
 23 22  1  0
 23 24  2  0
 25 23  1  0
 26 27  1  0
 26 25  1  1
 28 26  1  0
 29 28  1  0
 30 28  2  0
M  END
$$$$
