HAD.pdb
     RDKit          3D

 24 24  0  0  1  0  0  0  0  0999 V2000
   12.7606  -13.8578   18.9736 N   0  0  0  0  0  0  0  0  0  0  0  0
   11.3145  -13.9260   19.0504 C   0  0  1  0  0  0  0  0  0  0  0  0
   10.8839  -15.2918   18.5179 C   0  0  0  0  0  0  0  0  0  0  0  0
    9.8897  -15.1426   17.4128 C   0  0  0  0  0  0  0  0  0  0  0  0
    9.3936  -13.9416   16.9572 C   0  0  0  0  0  0  0  0  0  0  0  0
    8.5325  -14.2186   15.9653 N   0  0  0  0  0  0  0  0  0  0  0  0
    8.4722  -15.5475   15.7844 C   0  0  0  0  0  0  0  0  0  0  0  0
    9.3092  -16.1026   16.6783 N   0  0  0  0  0  0  0  0  0  0  0  0
   10.8269  -13.8465   20.4468 C   0  0  0  0  0  0  0  0  0  0  0  0
   11.6445  -13.9926   21.3684 O   0  0  0  0  0  0  0  0  0  0  0  0
    7.5480  -13.2258   22.2606 C   0  0  0  0  0  0  0  0  0  0  0  0
    8.9882  -13.5942   22.1362 C   0  0  2  0  0  0  0  0  0  0  0  0
    9.4698  -13.6114   20.7883 N   0  0  0  0  0  0  0  0  0  0  0  0
    9.2122  -14.8831   22.8425 C   0  0  0  0  0  0  0  0  0  0  0  0
    8.9091  -15.0258   24.0534 O   0  0  0  0  0  0  0  0  0  0  0  0
    9.7819  -16.0106   22.1695 N   0  0  0  0  0  0  0  0  0  0  0  0
    9.9386  -17.2984   22.7588 C   0  0  1  0  0  0  0  0  0  0  0  0
    9.9934  -18.4315   21.7543 C   0  0  0  0  0  0  0  0  0  0  0  0
   10.2224  -19.7409   22.3838 C   0  0  0  0  0  0  0  0  0  0  0  0
    9.4582  -20.1554   23.2725 O   0  0  0  0  0  0  0  0  0  0  0  0
   11.1739  -17.3183   23.5710 C   0  0  0  0  0  0  0  0  0  0  0  0
   12.0148  -16.2231   23.5636 O   0  0  0  0  0  0  0  0  0  0  0  0
   11.2904  -20.5120   21.9858 O   0  0  0  0  0  0  0  0  0  0  0  0
   11.4761  -18.3138   24.2703 O   0  0  0  0  0  0  0  0  0  0  0  0
  2  1  1  1
  3  2  1  0
  3  4  1  0
  4  8  1  0
  5  4  2  0
  5  6  1  0
  6  7  1  0
  8  7  2  0
  9 10  2  0
  9  2  1  0
 12 11  1  6
 12 13  1  0
 12 14  1  0
 13  9  1  0
 14 16  1  0
 15 14  2  0
 16 17  1  0
 17 21  1  0
 17 18  1  6
 19 18  1  0
 20 19  2  0
 21 24  2  0
 21 22  1  0
 23 19  1  0
M  END
$$$$
