HAD.pdb
     RDKit          3D

 24 24  0  0  1  0  0  0  0  0999 V2000
    7.3178  -16.4535   20.3043 N   0  0  0  0  0  0  0  0  0  0  0  0
    8.4080  -15.5867   20.7068 C   0  0  1  0  0  0  0  0  0  0  0  0
    7.9470  -14.1419   20.5209 C   0  0  0  0  0  0  0  0  0  0  0  0
    7.7342  -13.8334   19.0748 C   0  0  0  0  0  0  0  0  0  0  0  0
    6.7757  -12.9740   18.5860 C   0  0  0  0  0  0  0  0  0  0  0  0
    6.8988  -12.9611   17.2493 N   0  0  0  0  0  0  0  0  0  0  0  0
    7.8982  -13.7801   16.8850 C   0  0  0  0  0  0  0  0  0  0  0  0
    8.4023  -14.3089   18.0137 N   0  0  0  0  0  0  0  0  0  0  0  0
    8.7406  -15.7404   22.1420 C   0  0  0  0  0  0  0  0  0  0  0  0
    7.9978  -15.2092   22.9818 O   0  0  0  0  0  0  0  0  0  0  0  0
    9.3255  -17.7672   24.6149 C   0  0  0  0  0  0  0  0  0  0  0  0
   10.1433  -16.6832   23.9973 C   0  0  2  0  0  0  0  0  0  0  0  0
    9.8673  -16.4652   22.6097 N   0  0  0  0  0  0  0  0  0  0  0  0
   11.5797  -16.9626   24.2599 C   0  0  0  0  0  0  0  0  0  0  0  0
   11.9895  -17.2481   25.4127 O   0  0  0  0  0  0  0  0  0  0  0  0
   12.5505  -16.9168   23.2091 N   0  0  0  0  0  0  0  0  0  0  0  0
   13.9509  -17.0905   23.4059 C   0  0  1  0  0  0  0  0  0  0  0  0
   14.7048  -17.4787   22.1502 C   0  0  0  0  0  0  0  0  0  0  0  0
   14.1197  -18.6450   21.4716 C   0  0  0  0  0  0  0  0  0  0  0  0
   14.1323  -18.7243   20.2309 O   0  0  0  0  0  0  0  0  0  0  0  0
   14.5287  -15.8403   23.9440 C   0  0  0  0  0  0  0  0  0  0  0  0
   13.7215  -14.7337   24.1184 O   0  0  0  0  0  0  0  0  0  0  0  0
   13.5547  -19.6552   22.2158 O   0  0  0  0  0  0  0  0  0  0  0  0
   15.7426  -15.7629   24.2471 O   0  0  0  0  0  0  0  0  0  0  0  0
  2  1  1  1
  3  2  1  0
  3  4  1  0
  4  8  1  0
  5  4  2  0
  5  6  1  0
  6  7  1  0
  8  7  2  0
  9 10  2  0
  9  2  1  0
 12 11  1  6
 12 13  1  0
 12 14  1  0
 13  9  1  0
 14 16  1  0
 15 14  2  0
 16 17  1  0
 17 21  1  0
 17 18  1  6
 19 18  1  0
 20 19  2  0
 21 24  2  0
 21 22  1  0
 23 19  1  0
M  END
$$$$
