HAD.pdb
     RDKit          3D

 24 24  0  0  1  0  0  0  0  0999 V2000
    6.5552  -15.7417   19.5435 N   0  0  0  0  0  0  0  0  0  0  0  0
    7.8021  -16.4735   19.6504 C   0  0  1  0  0  0  0  0  0  0  0  0
    8.7093  -16.0167   18.5089 C   0  0  0  0  0  0  0  0  0  0  0  0
    8.3593  -16.7191   17.2377 C   0  0  0  0  0  0  0  0  0  0  0  0
    7.3608  -17.6581   17.1064 C   0  0  0  0  0  0  0  0  0  0  0  0
    7.3547  -18.0542   15.8237 N   0  0  0  0  0  0  0  0  0  0  0  0
    8.3120  -17.3979   15.1491 C   0  0  0  0  0  0  0  0  0  0  0  0
    8.9208  -16.5821   16.0276 N   0  0  0  0  0  0  0  0  0  0  0  0
    8.5219  -16.1662   20.9079 C   0  0  0  0  0  0  0  0  0  0  0  0
    8.4748  -15.0074   21.3488 O   0  0  0  0  0  0  0  0  0  0  0  0
    9.3638  -17.4607   24.0651 C   0  0  0  0  0  0  0  0  0  0  0  0
    9.9626  -16.8314   22.8523 C   0  0  2  0  0  0  0  0  0  0  0  0
    9.2653  -17.1294   21.6382 N   0  0  0  0  0  0  0  0  0  0  0  0
   11.4032  -17.1934   22.7906 C   0  0  0  0  0  0  0  0  0  0  0  0
   11.7866  -18.2572   22.2431 O   0  0  0  0  0  0  0  0  0  0  0  0
   12.4083  -16.3433   23.3527 N   0  0  0  0  0  0  0  0  0  0  0  0
   13.8038  -16.6299   23.3272 C   0  0  1  0  0  0  0  0  0  0  0  0
   14.6854  -15.4007   23.4155 C   0  0  0  0  0  0  0  0  0  0  0  0
   16.1085  -15.7031   23.1996 C   0  0  0  0  0  0  0  0  0  0  0  0
   16.4783  -16.8686   22.9749 O   0  0  0  0  0  0  0  0  0  0  0  0
   14.1375  -17.5397   24.4439 C   0  0  0  0  0  0  0  0  0  0  0  0
   14.9945  -18.6007   24.2286 O   0  0  0  0  0  0  0  0  0  0  0  0
   17.0366  -14.6882   23.2469 O   0  0  0  0  0  0  0  0  0  0  0  0
   13.6565  -17.3676   25.5886 O   0  0  0  0  0  0  0  0  0  0  0  0
  2  1  1  1
  3  2  1  0
  3  4  1  0
  4  8  1  0
  5  4  2  0
  5  6  1  0
  6  7  1  0
  8  7  2  0
  9 10  2  0
  9  2  1  0
 12 11  1  1
 12 13  1  0
 12 14  1  0
 13  9  1  0
 14 16  1  0
 15 14  2  0
 16 17  1  0
 17 21  1  0
 17 18  1  1
 19 18  1  0
 20 19  2  0
 21 24  2  0
 21 22  1  0
 23 19  1  0
M  END
$$$$
