HAD.pdb
     RDKit          3D

 24 24  0  0  1  0  0  0  0  0999 V2000
    7.4324  -16.2976   16.7649 N   0  0  0  0  0  0  0  0  0  0  0  0
    7.8415  -15.1022   17.4758 C   0  0  1  0  0  0  0  0  0  0  0  0
    7.0470  -13.9274   16.9071 C   0  0  0  0  0  0  0  0  0  0  0  0
    7.3174  -13.7595   15.4474 C   0  0  0  0  0  0  0  0  0  0  0  0
    8.1358  -14.5760   14.6994 C   0  0  0  0  0  0  0  0  0  0  0  0
    8.1234  -14.1058   13.4421 N   0  0  0  0  0  0  0  0  0  0  0  0
    7.3281  -13.0262   13.3769 C   0  0  0  0  0  0  0  0  0  0  0  0
    6.8399  -12.8243   14.6132 N   0  0  0  0  0  0  0  0  0  0  0  0
    7.5130  -15.1725   18.9184 C   0  0  0  0  0  0  0  0  0  0  0  0
    6.3297  -15.0303   19.2636 O   0  0  0  0  0  0  0  0  0  0  0  0
    7.4867  -17.1492   21.3233 C   0  0  0  0  0  0  0  0  0  0  0  0
    8.1526  -15.8159   21.2584 C   0  0  2  0  0  0  0  0  0  0  0  0
    8.4823  -15.3946   19.9307 N   0  0  0  0  0  0  0  0  0  0  0  0
    9.3300  -15.8276   22.1660 C   0  0  0  0  0  0  0  0  0  0  0  0
    9.4884  -14.9411   23.0421 O   0  0  0  0  0  0  0  0  0  0  0  0
   10.3282  -16.8496   22.0761 N   0  0  0  0  0  0  0  0  0  0  0  0
   11.4219  -16.9809   22.9799 C   0  0  1  0  0  0  0  0  0  0  0  0
   11.0064  -17.2268   24.4161 C   0  0  0  0  0  0  0  0  0  0  0  0
   12.1515  -17.4615   25.3088 C   0  0  0  0  0  0  0  0  0  0  0  0
   13.1707  -16.7543   25.2259 O   0  0  0  0  0  0  0  0  0  0  0  0
   12.2929  -18.0905   22.5368 C   0  0  0  0  0  0  0  0  0  0  0  0
   13.5464  -18.2408   23.0960 O   0  0  0  0  0  0  0  0  0  0  0  0
   12.0936  -18.4710   26.2421 O   0  0  0  0  0  0  0  0  0  0  0  0
   11.9158  -18.9024   21.6593 O   0  0  0  0  0  0  0  0  0  0  0  0
  2  1  1  6
  3  2  1  0
  3  4  1  0
  4  8  1  0
  5  4  2  0
  5  6  1  0
  6  7  1  0
  8  7  2  0
  9 10  2  0
  9  2  1  0
 12 11  1  6
 12 13  1  0
 12 14  1  0
 13  9  1  0
 14 16  1  0
 15 14  2  0
 16 17  1  0
 17 21  1  0
 17 18  1  1
 19 18  1  0
 20 19  2  0
 21 24  2  0
 21 22  1  0
 23 19  1  0
M  END
$$$$
