HAD.pdb
     RDKit          3D

 24 24  0  0  1  0  0  0  0  0999 V2000
    7.2511  -18.4826   15.6806 N   0  0  0  0  0  0  0  0  0  0  0  0
    8.5898  -17.9563   15.4997 C   0  0  1  0  0  0  0  0  0  0  0  0
    8.4611  -16.5050   15.0392 C   0  0  0  0  0  0  0  0  0  0  0  0
    7.9308  -16.4346   13.6444 C   0  0  0  0  0  0  0  0  0  0  0  0
    7.7255  -17.5217   12.8245 C   0  0  0  0  0  0  0  0  0  0  0  0
    7.2446  -17.0559   11.6609 N   0  0  0  0  0  0  0  0  0  0  0  0
    7.1419  -15.7188   11.7233 C   0  0  0  0  0  0  0  0  0  0  0  0
    7.5659  -15.3502   12.9449 N   0  0  0  0  0  0  0  0  0  0  0  0
    9.3532  -17.9284   16.7687 C   0  0  0  0  0  0  0  0  0  0  0  0
    8.8297  -17.4021   17.7629 O   0  0  0  0  0  0  0  0  0  0  0  0
   10.5775  -19.1221   19.2717 C   0  0  0  0  0  0  0  0  0  0  0  0
   11.3606  -18.5195   18.1541 C   0  0  2  0  0  0  0  0  0  0  0  0
   10.6559  -18.4732   16.9090 N   0  0  0  0  0  0  0  0  0  0  0  0
   12.6636  -19.2279   18.0504 C   0  0  0  0  0  0  0  0  0  0  0  0
   12.7451  -20.3748   17.5440 O   0  0  0  0  0  0  0  0  0  0  0  0
   13.8749  -18.6299   18.5235 N   0  0  0  0  0  0  0  0  0  0  0  0
   15.1676  -19.2072   18.3629 C   0  0  1  0  0  0  0  0  0  0  0  0
   16.2643  -18.1954   18.0999 C   0  0  0  0  0  0  0  0  0  0  0  0
   16.1029  -17.5010   16.8134 C   0  0  0  0  0  0  0  0  0  0  0  0
   15.7127  -18.1194   15.8079 O   0  0  0  0  0  0  0  0  0  0  0  0
   15.5118  -19.9824   19.5741 C   0  0  0  0  0  0  0  0  0  0  0  0
   16.6612  -20.7472   19.5926 O   0  0  0  0  0  0  0  0  0  0  0  0
   16.3861  -16.1574   16.7228 O   0  0  0  0  0  0  0  0  0  0  0  0
   14.7783  -19.9601   20.5904 O   0  0  0  0  0  0  0  0  0  0  0  0
  2  1  1  1
  3  2  1  0
  3  4  1  0
  4  8  1  0
  5  4  2  0
  5  6  1  0
  6  7  1  0
  8  7  2  0
  9 10  2  0
  9  2  1  0
 12 11  1  1
 12 13  1  0
 12 14  1  0
 13  9  1  0
 14 16  1  0
 15 14  2  0
 16 17  1  0
 17 21  1  0
 17 18  1  1
 19 18  1  0
 20 19  2  0
 21 24  2  0
 21 22  1  0
 23 19  1  0
M  END
$$$$
