HAD.pdb
     RDKit          3D

 24 24  0  0  1  0  0  0  0  0999 V2000
    8.5935  -16.2344   14.9761 N   0  0  0  0  0  0  0  0  0  0  0  0
    8.2230  -16.1270   16.3736 C   0  0  1  0  0  0  0  0  0  0  0  0
    8.8240  -17.3247   17.1079 C   0  0  0  0  0  0  0  0  0  0  0  0
    7.9466  -18.5263   16.9729 C   0  0  0  0  0  0  0  0  0  0  0  0
    6.6405  -18.5023   16.5376 C   0  0  0  0  0  0  0  0  0  0  0  0
    6.1937  -19.7682   16.5533 N   0  0  0  0  0  0  0  0  0  0  0  0
    7.1718  -20.5817   16.9821 C   0  0  0  0  0  0  0  0  0  0  0  0
    8.2415  -19.8078   17.2360 N   0  0  0  0  0  0  0  0  0  0  0  0
    8.7919  -14.9160   17.0089 C   0  0  0  0  0  0  0  0  0  0  0  0
    9.9328  -14.5557   16.6803 O   0  0  0  0  0  0  0  0  0  0  0  0
    7.6864  -12.2145   19.4328 C   0  0  0  0  0  0  0  0  0  0  0  0
    8.6619  -12.9907   18.6136 C   0  0  2  0  0  0  0  0  0  0  0  0
    8.0997  -14.1427   17.9767 N   0  0  0  0  0  0  0  0  0  0  0  0
    9.8386  -13.3198   19.4605 C   0  0  0  0  0  0  0  0  0  0  0  0
   10.5399  -12.4180   19.9833 O   0  0  0  0  0  0  0  0  0  0  0  0
   10.2173  -14.6770   19.7125 N   0  0  0  0  0  0  0  0  0  0  0  0
   11.2164  -15.0676   20.6502 C   0  0  1  0  0  0  0  0  0  0  0  0
   10.9567  -16.4108   21.3015 C   0  0  0  0  0  0  0  0  0  0  0  0
   12.0173  -16.8031   22.2419 C   0  0  0  0  0  0  0  0  0  0  0  0
   12.9781  -16.0449   22.4604 O   0  0  0  0  0  0  0  0  0  0  0  0
   12.5317  -15.1087   19.9759 C   0  0  0  0  0  0  0  0  0  0  0  0
   12.6037  -15.4404   18.6375 O   0  0  0  0  0  0  0  0  0  0  0  0
   11.9449  -18.0180   22.8841 O   0  0  0  0  0  0  0  0  0  0  0  0
   13.5888  -14.8474   20.5967 O   0  0  0  0  0  0  0  0  0  0  0  0
  2  1  1  6
  3  2  1  0
  3  4  1  0
  4  8  1  0
  5  4  2  0
  5  6  1  0
  6  7  1  0
  8  7  2  0
  9 10  2  0
  9  2  1  0
 12 11  1  1
 12 13  1  0
 12 14  1  0
 13  9  1  0
 14 16  1  0
 15 14  2  0
 16 17  1  0
 17 21  1  0
 17 18  1  6
 19 18  1  0
 20 19  2  0
 21 24  2  0
 21 22  1  0
 23 19  1  0
M  END
$$$$
