HAD.pdb
     RDKit          3D

 24 24  0  0  1  0  0  0  0  0999 V2000
    7.2483  -16.2619   18.1340 N   0  0  0  0  0  0  0  0  0  0  0  0
    8.4068  -15.3978   18.2486 C   0  0  1  0  0  0  0  0  0  0  0  0
    8.1252  -14.1321   17.4404 C   0  0  0  0  0  0  0  0  0  0  0  0
    8.0013  -14.4467   15.9852 C   0  0  0  0  0  0  0  0  0  0  0  0
    8.1718  -15.6964   15.4328 C   0  0  0  0  0  0  0  0  0  0  0  0
    7.9807  -15.5748   14.1096 N   0  0  0  0  0  0  0  0  0  0  0  0
    7.6973  -14.2961   13.8150 C   0  0  0  0  0  0  0  0  0  0  0  0
    7.7131  -13.6146   14.9738 N   0  0  0  0  0  0  0  0  0  0  0  0
    8.6400  -14.9617   19.6448 C   0  0  0  0  0  0  0  0  0  0  0  0
    8.2452  -13.8364   19.9871 O   0  0  0  0  0  0  0  0  0  0  0  0
    8.1613  -15.0627   22.6734 C   0  0  0  0  0  0  0  0  0  0  0  0
    9.4468  -15.3768   21.9847 C   0  0  2  0  0  0  0  0  0  0  0  0
    9.2933  -15.7647   20.6154 N   0  0  0  0  0  0  0  0  0  0  0  0
   10.1825  -16.3880   22.7888 C   0  0  0  0  0  0  0  0  0  0  0  0
    9.8113  -17.5877   22.8276 O   0  0  0  0  0  0  0  0  0  0  0  0
   11.3419  -16.0331   23.5494 N   0  0  0  0  0  0  0  0  0  0  0  0
   12.3789  -16.9453   23.8993 C   0  0  1  0  0  0  0  0  0  0  0  0
   13.7667  -16.3377   23.8739 C   0  0  0  0  0  0  0  0  0  0  0  0
   14.2300  -16.0309   22.5122 C   0  0  0  0  0  0  0  0  0  0  0  0
   14.0234  -16.8288   21.5813 O   0  0  0  0  0  0  0  0  0  0  0  0
   12.1186  -17.4883   25.2498 C   0  0  0  0  0  0  0  0  0  0  0  0
   11.0808  -16.9773   26.0037 O   0  0  0  0  0  0  0  0  0  0  0  0
   14.8968  -14.8523   22.2674 O   0  0  0  0  0  0  0  0  0  0  0  0
   12.8238  -18.4078   25.7278 O   0  0  0  0  0  0  0  0  0  0  0  0
  2  1  1  1
  3  2  1  0
  3  4  1  0
  4  8  1  0
  5  4  2  0
  5  6  1  0
  6  7  1  0
  8  7  2  0
  9 10  2  0
  9  2  1  0
 12 11  1  1
 12 13  1  0
 12 14  1  0
 13  9  1  0
 14 16  1  0
 15 14  2  0
 16 17  1  0
 17 21  1  0
 17 18  1  1
 19 18  1  0
 20 19  2  0
 21 24  2  0
 21 22  1  0
 23 19  1  0
M  END
$$$$
