HAD.pdb
     RDKit          3D

 24 24  0  0  1  0  0  0  0  0999 V2000
    8.5525  -12.5971   17.7562 N   0  0  0  0  0  0  0  0  0  0  0  0
    8.6220  -13.8951   18.3980 C   0  0  1  0  0  0  0  0  0  0  0  0
    9.9322  -14.5557   17.9717 C   0  0  0  0  0  0  0  0  0  0  0  0
    9.8620  -15.0074   16.5494 C   0  0  0  0  0  0  0  0  0  0  0  0
    8.8043  -14.7714   15.6999 C   0  0  0  0  0  0  0  0  0  0  0  0
    9.1123  -15.3291   14.5183 N   0  0  0  0  0  0  0  0  0  0  0  0
   10.3226  -15.9046   14.5980 C   0  0  0  0  0  0  0  0  0  0  0  0
   10.7716  -15.7002   15.8488 N   0  0  0  0  0  0  0  0  0  0  0  0
    8.6681  -13.7844   19.8744 C   0  0  0  0  0  0  0  0  0  0  0  0
    9.3620  -12.8883   20.3793 O   0  0  0  0  0  0  0  0  0  0  0  0
    6.7342  -14.9744   22.8444 C   0  0  0  0  0  0  0  0  0  0  0  0
    7.9906  -14.5337   22.1718 C   0  0  2  0  0  0  0  0  0  0  0  0
    7.9588  -14.6513   20.7455 N   0  0  0  0  0  0  0  0  0  0  0  0
    9.1363  -15.2584   22.7821 C   0  0  0  0  0  0  0  0  0  0  0  0
    9.2764  -15.3272   24.0288 O   0  0  0  0  0  0  0  0  0  0  0  0
   10.1235  -15.9053   21.9724 N   0  0  0  0  0  0  0  0  0  0  0  0
   11.1797  -16.7099   22.4893 C   0  0  1  0  0  0  0  0  0  0  0  0
   12.5481  -16.3506   21.9468 C   0  0  0  0  0  0  0  0  0  0  0  0
   12.5916  -16.3307   20.4768 C   0  0  0  0  0  0  0  0  0  0  0  0
   11.7702  -16.9867   19.8130 O   0  0  0  0  0  0  0  0  0  0  0  0
   11.2045  -16.5979   23.9634 C   0  0  0  0  0  0  0  0  0  0  0  0
   12.1594  -17.2859   24.6854 O   0  0  0  0  0  0  0  0  0  0  0  0
   13.5484  -15.5804   19.8325 O   0  0  0  0  0  0  0  0  0  0  0  0
   10.3724  -15.8876   24.5754 O   0  0  0  0  0  0  0  0  0  0  0  0
  2  1  1  6
  3  2  1  0
  3  4  1  0
  4  8  1  0
  5  4  2  0
  5  6  1  0
  6  7  1  0
  8  7  2  0
  9 10  2  0
  9  2  1  0
 12 11  1  1
 12 13  1  0
 12 14  1  0
 13  9  1  0
 14 16  1  0
 15 14  2  0
 16 17  1  0
 17 21  1  0
 17 18  1  6
 19 18  1  0
 20 19  2  0
 21 24  2  0
 21 22  1  0
 23 19  1  0
M  END
$$$$
