HAD.pdb
     RDKit          3D

 24 24  0  0  1  0  0  0  0  0999 V2000
    6.8655  -17.5546   16.2314 N   0  0  0  0  0  0  0  0  0  0  0  0
    8.2957  -17.4704   16.4531 C   0  0  1  0  0  0  0  0  0  0  0  0
    8.5175  -16.8377   17.8261 C   0  0  0  0  0  0  0  0  0  0  0  0
    7.9877  -15.4413   17.8601 C   0  0  0  0  0  0  0  0  0  0  0  0
    7.3330  -14.8222   16.8189 C   0  0  0  0  0  0  0  0  0  0  0  0
    7.0148  -13.5845   17.2300 N   0  0  0  0  0  0  0  0  0  0  0  0
    7.4463  -13.4074   18.4889 C   0  0  0  0  0  0  0  0  0  0  0  0
    8.0411  -14.5535   18.8637 N   0  0  0  0  0  0  0  0  0  0  0  0
    8.9316  -18.8074   16.4988 C   0  0  0  0  0  0  0  0  0  0  0  0
    8.3138  -19.7385   17.0381 O   0  0  0  0  0  0  0  0  0  0  0  0
   11.7271  -20.6535   14.8392 C   0  0  0  0  0  0  0  0  0  0  0  0
   10.8248  -20.3757   15.9943 C   0  0  2  0  0  0  0  0  0  0  0  0
   10.2141  -19.0816   15.9571 N   0  0  0  0  0  0  0  0  0  0  0  0
   11.5756  -20.6203   17.2539 C   0  0  0  0  0  0  0  0  0  0  0  0
   12.0737  -21.7450   17.5097 O   0  0  0  0  0  0  0  0  0  0  0  0
   11.7595  -19.5833   18.2233 N   0  0  0  0  0  0  0  0  0  0  0  0
   12.4188  -19.7649   19.4734 C   0  0  1  0  0  0  0  0  0  0  0  0
   13.6359  -18.8821   19.6604 C   0  0  0  0  0  0  0  0  0  0  0  0
   14.8530  -19.4555   19.0663 C   0  0  0  0  0  0  0  0  0  0  0  0
   14.8567  -20.6236   18.6407 O   0  0  0  0  0  0  0  0  0  0  0  0
   11.4648  -19.5045   20.5726 C   0  0  0  0  0  0  0  0  0  0  0  0
   11.7307  -19.9896   21.8378 O   0  0  0  0  0  0  0  0  0  0  0  0
   15.9954  -18.6930   18.9813 O   0  0  0  0  0  0  0  0  0  0  0  0
   10.4138  -18.8492   20.3797 O   0  0  0  0  0  0  0  0  0  0  0  0
  2  1  1  1
  3  2  1  0
  3  4  1  0
  4  8  1  0
  5  4  2  0
  5  6  1  0
  6  7  1  0
  8  7  2  0
  9 10  2  0
  9  2  1  0
 12 11  1  6
 12 13  1  0
 12 14  1  0
 13  9  1  0
 14 16  1  0
 15 14  2  0
 16 17  1  0
 17 21  1  0
 17 18  1  1
 19 18  1  0
 20 19  2  0
 21 24  2  0
 21 22  1  0
 23 19  1  0
M  END
$$$$
