HAD.pdb
     RDKit          3D

 24 24  0  0  1  0  0  0  0  0999 V2000
    6.5779  -17.3973   19.1097 N   0  0  0  0  0  0  0  0  0  0  0  0
    7.8820  -16.7887   19.2851 C   0  0  1  0  0  0  0  0  0  0  0  0
    7.7113  -15.5782   20.2018 C   0  0  0  0  0  0  0  0  0  0  0  0
    7.3393  -14.3637   19.4154 C   0  0  0  0  0  0  0  0  0  0  0  0
    7.2036  -14.3240   18.0457 C   0  0  0  0  0  0  0  0  0  0  0  0
    6.8632  -13.0677   17.7169 N   0  0  0  0  0  0  0  0  0  0  0  0
    6.7813  -12.3215   18.8299 C   0  0  0  0  0  0  0  0  0  0  0  0
    7.0755  -13.1280   19.8646 N   0  0  0  0  0  0  0  0  0  0  0  0
    8.8342  -17.6984   19.9632 C   0  0  0  0  0  0  0  0  0  0  0  0
    8.3798  -18.6042   20.6789 O   0  0  0  0  0  0  0  0  0  0  0  0
   12.1607  -18.9689   19.1823 C   0  0  0  0  0  0  0  0  0  0  0  0
   11.1517  -18.6251   20.2259 C   0  0  2  0  0  0  0  0  0  0  0  0
   10.2434  -17.5890   19.8377 N   0  0  0  0  0  0  0  0  0  0  0  0
   11.8645  -18.3183   21.4940 C   0  0  0  0  0  0  0  0  0  0  0  0
   12.6132  -19.1644   22.0437 O   0  0  0  0  0  0  0  0  0  0  0  0
   11.7248  -17.0471   22.1369 N   0  0  0  0  0  0  0  0  0  0  0  0
   12.3800  -16.6883   23.3502 C   0  0  1  0  0  0  0  0  0  0  0  0
   11.8667  -17.4289   24.5683 C   0  0  0  0  0  0  0  0  0  0  0  0
   12.5393  -17.0189   25.8103 C   0  0  0  0  0  0  0  0  0  0  0  0
   12.5342  -15.8277   26.1662 O   0  0  0  0  0  0  0  0  0  0  0  0
   13.8313  -16.9366   23.2152 C   0  0  0  0  0  0  0  0  0  0  0  0
   14.7308  -15.9715   23.6227 O   0  0  0  0  0  0  0  0  0  0  0  0
   13.1784  -17.9610   26.5833 O   0  0  0  0  0  0  0  0  0  0  0  0
   14.2652  -18.0105   22.7359 O   0  0  0  0  0  0  0  0  0  0  0  0
  2  1  1  1
  3  2  1  0
  3  4  1  0
  4  8  1  0
  5  4  2  0
  5  6  1  0
  6  7  1  0
  8  7  2  0
  9 10  2  0
  9  2  1  0
 12 11  1  6
 12 13  1  0
 12 14  1  0
 13  9  1  0
 14 16  1  0
 15 14  2  0
 16 17  1  0
 17 21  1  0
 17 18  1  1
 19 18  1  0
 20 19  2  0
 21 24  2  0
 21 22  1  0
 23 19  1  0
M  END
$$$$
