AFY.pdb
     RDKit          3D

 29 30  0  0  1  0  0  0  0  0999 V2000
   26.9598  -21.1196  -18.8530 C   0  0  0  0  0  0  0  0  0  0  0  0
   27.9970  -21.4466  -17.7914 C   0  0  2  0  0  0  0  0  0  0  0  0
   28.7079  -22.6584  -18.1403 N   0  0  0  0  0  0  0  0  0  0  0  0
   27.3688  -21.6015  -16.4722 C   0  0  0  0  0  0  0  0  0  0  0  0
   26.9104  -22.7514  -16.1622 O   0  0  0  0  0  0  0  0  0  0  0  0
   27.2465  -20.5349  -15.5251 N   0  0  0  0  0  0  0  0  0  0  0  0
   26.7178  -20.7563  -14.1941 C   0  0  1  0  0  0  0  0  0  0  0  0
   27.3173  -19.8386  -13.1759 C   0  0  0  0  0  0  0  0  0  0  0  0
   26.7559  -20.1213  -11.8484 C   0  0  0  0  0  0  0  0  0  0  0  0
   25.6986  -19.3974  -11.3737 C   0  0  0  0  0  0  0  0  0  0  0  0
   25.2070  -19.7027  -10.1181 C   0  0  0  0  0  0  0  0  0  0  0  0
   25.7685  -20.7094   -9.3669 C   0  0  0  0  0  0  0  0  0  0  0  0
   26.8395  -21.4352   -9.8599 C   0  0  0  0  0  0  0  0  0  0  0  0
   27.3407  -21.1419  -11.1110 C   0  0  0  0  0  0  0  0  0  0  0  0
   25.2307  -20.5835  -14.2343 C   0  0  0  0  0  0  0  0  0  0  0  0
   24.7224  -19.5460  -14.7291 O   0  0  0  0  0  0  0  0  0  0  0  0
   16.5787  -22.4809  -13.3412 O   0  0  0  0  0  0  0  0  0  0  0  0
   17.9797  -22.5494  -13.3452 C   0  0  0  0  0  0  0  0  0  0  0  0
   18.6976  -22.5490  -12.1623 C   0  0  0  0  0  0  0  0  0  0  0  0
   20.0725  -22.6170  -12.1880 C   0  0  0  0  0  0  0  0  0  0  0  0
   20.7973  -22.6882  -13.3836 C   0  0  0  0  0  0  0  0  0  0  0  0
   22.2604  -22.7502  -13.4052 C   0  0  0  0  0  0  0  0  0  0  0  0
   22.8938  -21.4137  -13.7162 C   0  0  2  0  0  0  0  0  0  0  0  0
   24.3429  -21.5612  -13.7269 N   0  0  0  0  0  0  0  0  0  0  0  0
   22.5565  -20.3592  -12.7435 C   0  0  0  0  0  0  0  0  0  0  0  0
   21.6323  -19.3750  -13.0417 O   0  0  0  0  0  0  0  0  0  0  0  0
   20.0682  -22.6878  -14.5668 C   0  0  0  0  0  0  0  0  0  0  0  0
   18.6916  -22.6193  -14.5229 C   0  0  0  0  0  0  0  0  0  0  0  0
   23.1057  -20.3340  -11.6202 O   0  0  0  0  0  0  0  0  0  0  0  0
  2  1  1  6
  2  3  1  0
  4  2  1  0
  5  4  2  0
  6  4  1  0
  7  6  1  0
  7  8  1  1
  9 14  1  0
  9  8  1  0
 10  9  2  0
 11 12  2  0
 11 10  1  0
 12 13  1  0
 13 14  2  0
 15 24  1  0
 15  7  1  0
 16 15  2  0
 18 17  1  0
 19 18  2  0
 20 19  1  0
 21 20  2  0
 21 27  1  0
 23 22  1  1
 22 21  1  0
 23 25  1  0
 23 24  1  0
 25 26  1  0
 27 28  2  0
 28 18  1  0
 29 25  2  0
M  END
$$$$
