AFY.pdb
     RDKit          3D

 29 30  0  0  1  0  0  0  0  0999 V2000
   20.3172   -8.3981  -19.8368 C   0  0  0  0  0  0  0  0  0  0  0  0
   21.4276   -8.6099  -18.8210 C   0  0  2  0  0  0  0  0  0  0  0  0
   21.5218  -10.0098  -18.4644 N   0  0  0  0  0  0  0  0  0  0  0  0
   21.1971   -7.8043  -17.6140 C   0  0  0  0  0  0  0  0  0  0  0  0
   20.1287   -8.0188  -16.9498 O   0  0  0  0  0  0  0  0  0  0  0  0
   22.1044   -6.7988  -17.1499 N   0  0  0  0  0  0  0  0  0  0  0  0
   21.8570   -6.0549  -15.9311 C   0  0  1  0  0  0  0  0  0  0  0  0
   23.0187   -6.0894  -14.9891 C   0  0  0  0  0  0  0  0  0  0  0  0
   23.2445   -7.4614  -14.5154 C   0  0  0  0  0  0  0  0  0  0  0  0
   24.2094   -8.2424  -15.0865 C   0  0  0  0  0  0  0  0  0  0  0  0
   24.3822   -9.5267  -14.6045 C   0  0  0  0  0  0  0  0  0  0  0  0
   23.6025  -10.0047  -13.5767 C   0  0  0  0  0  0  0  0  0  0  0  0
   22.6284   -9.2027  -13.0070 C   0  0  0  0  0  0  0  0  0  0  0  0
   22.4444   -7.9192  -13.4774 C   0  0  0  0  0  0  0  0  0  0  0  0
   21.5257   -4.6397  -16.2922 C   0  0  0  0  0  0  0  0  0  0  0  0
   22.2511   -3.9999  -17.0948 O   0  0  0  0  0  0  0  0  0  0  0  0
   17.5502    2.4522  -19.2110 O   0  0  0  0  0  0  0  0  0  0  0  0
   17.9995    1.1896  -18.7966 C   0  0  0  0  0  0  0  0  0  0  0  0
   17.1253    0.2625  -18.2575 C   0  0  0  0  0  0  0  0  0  0  0  0
   17.5866   -0.9714  -17.8570 C   0  0  0  0  0  0  0  0  0  0  0  0
   18.9316   -1.3423  -17.9720 C   0  0  0  0  0  0  0  0  0  0  0  0
   19.4184   -2.6527  -17.5350 C   0  0  0  0  0  0  0  0  0  0  0  0
   20.0039   -2.6198  -16.1421 C   0  0  2  0  0  0  0  0  0  0  0  0
   20.4016   -3.9672  -15.7577 N   0  0  0  0  0  0  0  0  0  0  0  0
   19.0686   -2.1182  -15.1196 C   0  0  0  0  0  0  0  0  0  0  0  0
   19.1823   -0.8392  -14.6067 O   0  0  0  0  0  0  0  0  0  0  0  0
   19.8026   -0.4049  -18.5143 C   0  0  0  0  0  0  0  0  0  0  0  0
   19.3237    0.8262  -18.9104 C   0  0  0  0  0  0  0  0  0  0  0  0
   18.1467   -2.8471  -14.6919 O   0  0  0  0  0  0  0  0  0  0  0  0
  2  1  1  6
  2  3  1  0
  4  2  1  0
  5  4  2  0
  6  4  1  0
  7  6  1  0
  7  8  1  1
  9 14  1  0
  9  8  1  0
 10  9  2  0
 11 12  2  0
 11 10  1  0
 12 13  1  0
 13 14  2  0
 15 24  1  0
 15  7  1  0
 16 15  2  0
 18 17  1  0
 19 18  2  0
 20 19  1  0
 21 20  2  0
 21 27  1  0
 23 22  1  6
 22 21  1  0
 23 25  1  0
 23 24  1  0
 25 26  1  0
 27 28  2  0
 28 18  1  0
 29 25  2  0
M  END
$$$$
