AFY.pdb
     RDKit          3D

 29 30  0  0  1  0  0  0  0  0999 V2000
   27.2050  -21.0003  -18.4390 C   0  0  0  0  0  0  0  0  0  0  0  0
   28.0012  -21.6116  -17.2979 C   0  0  2  0  0  0  0  0  0  0  0  0
   28.5092  -22.9121  -17.6801 N   0  0  0  0  0  0  0  0  0  0  0  0
   27.1762  -21.7363  -16.0885 C   0  0  0  0  0  0  0  0  0  0  0  0
   26.4731  -22.7927  -15.9535 O   0  0  0  0  0  0  0  0  0  0  0  0
   27.1226  -20.7395  -15.0623 N   0  0  0  0  0  0  0  0  0  0  0  0
   26.2806  -20.8958  -13.8932 C   0  0  1  0  0  0  0  0  0  0  0  0
   26.7494  -20.0775  -12.7318 C   0  0  0  0  0  0  0  0  0  0  0  0
   25.8571  -20.2747  -11.5819 C   0  0  0  0  0  0  0  0  0  0  0  0
   24.6477  -19.6411  -11.5255 C   0  0  0  0  0  0  0  0  0  0  0  0
   23.8447  -19.8601  -10.4215 C   0  0  0  0  0  0  0  0  0  0  0  0
   24.2536  -20.6944   -9.4068 C   0  0  0  0  0  0  0  0  0  0  0  0
   25.4815  -21.3302   -9.4766 C   0  0  0  0  0  0  0  0  0  0  0  0
   26.2934  -21.1214  -10.5718 C   0  0  0  0  0  0  0  0  0  0  0  0
   24.8780  -20.5188  -14.2589 C   0  0  0  0  0  0  0  0  0  0  0  0
   24.6397  -19.4236  -14.8273 O   0  0  0  0  0  0  0  0  0  0  0  0
   16.5797  -20.2338  -16.8876 O   0  0  0  0  0  0  0  0  0  0  0  0
   17.9124  -20.5341  -16.5695 C   0  0  0  0  0  0  0  0  0  0  0  0
   18.9013  -19.5700  -16.6551 C   0  0  0  0  0  0  0  0  0  0  0  0
   20.2035  -19.8853  -16.3382 C   0  0  0  0  0  0  0  0  0  0  0  0
   20.5848  -21.1668  -15.9233 C   0  0  0  0  0  0  0  0  0  0  0  0
   21.9735  -21.4990  -15.5972 C   0  0  0  0  0  0  0  0  0  0  0  0
   22.3886  -20.9887  -14.2365 C   0  0  2  0  0  0  0  0  0  0  0  0
   23.7744  -21.3615  -13.9874 N   0  0  0  0  0  0  0  0  0  0  0  0
   21.5736  -21.5232  -13.1310 C   0  0  0  0  0  0  0  0  0  0  0  0
   20.4751  -20.8352  -12.6497 O   0  0  0  0  0  0  0  0  0  0  0  0
   19.5853  -22.1289  -15.8404 C   0  0  0  0  0  0  0  0  0  0  0  0
   18.2861  -21.7960  -16.1614 C   0  0  0  0  0  0  0  0  0  0  0  0
   21.8638  -22.6187  -12.6020 O   0  0  0  0  0  0  0  0  0  0  0  0
  2  1  1  6
  2  3  1  0
  4  2  1  0
  5  4  2  0
  6  4  1  0
  7  6  1  0
  7  8  1  1
  9 14  1  0
  9  8  1  0
 10  9  2  0
 11 12  2  0
 11 10  1  0
 12 13  1  0
 13 14  2  0
 15 24  1  0
 15  7  1  0
 16 15  2  0
 18 17  1  0
 19 18  2  0
 20 19  1  0
 21 20  2  0
 21 27  1  0
 23 22  1  6
 22 21  1  0
 23 25  1  0
 23 24  1  0
 25 26  1  0
 27 28  2  0
 28 18  1  0
 29 25  2  0
M  END
$$$$
