AFY.pdb
     RDKit          3D

 29 30  0  0  1  0  0  0  0  0999 V2000
   22.6885   -6.9844  -19.7867 C   0  0  0  0  0  0  0  0  0  0  0  0
   23.0093   -8.0756  -18.7788 C   0  0  2  0  0  0  0  0  0  0  0  0
   22.7084   -9.3776  -19.3354 N   0  0  0  0  0  0  0  0  0  0  0  0
   22.2534   -7.8808  -17.5340 C   0  0  0  0  0  0  0  0  0  0  0  0
   20.9851   -7.7678  -17.6188 O   0  0  0  0  0  0  0  0  0  0  0  0
   22.8643   -7.8122  -16.2410 N   0  0  0  0  0  0  0  0  0  0  0  0
   22.0756   -7.6711  -15.0335 C   0  0  1  0  0  0  0  0  0  0  0  0
   22.6046   -8.4924  -13.9004 C   0  0  0  0  0  0  0  0  0  0  0  0
   22.8021   -9.8821  -14.3329 C   0  0  0  0  0  0  0  0  0  0  0  0
   24.0418  -10.4546  -14.2833 C   0  0  0  0  0  0  0  0  0  0  0  0
   24.1748  -11.7656  -14.7018 C   0  0  0  0  0  0  0  0  0  0  0  0
   23.0866  -12.4744  -15.1561 C   0  0  0  0  0  0  0  0  0  0  0  0
   21.8360  -11.8821  -15.2012 C   0  0  0  0  0  0  0  0  0  0  0  0
   21.6879  -10.5749  -14.7869 C   0  0  0  0  0  0  0  0  0  0  0  0
   22.0401   -6.2236  -14.6507 C   0  0  0  0  0  0  0  0  0  0  0  0
   23.1055   -5.6004  -14.4137 O   0  0  0  0  0  0  0  0  0  0  0  0
   20.8639    2.0631  -16.5798 O   0  0  0  0  0  0  0  0  0  0  0  0
   21.0083    0.6809  -16.3890 C   0  0  0  0  0  0  0  0  0  0  0  0
   22.0004    0.1735  -15.5687 C   0  0  0  0  0  0  0  0  0  0  0  0
   22.1252   -1.1865  -15.3946 C   0  0  0  0  0  0  0  0  0  0  0  0
   21.2750   -2.1038  -16.0235 C   0  0  0  0  0  0  0  0  0  0  0  0
   21.4187   -3.5501  -15.8425 C   0  0  0  0  0  0  0  0  0  0  0  0
   20.7435   -4.0480  -14.5855 C   0  0  2  0  0  0  0  0  0  0  0  0
   20.8287   -5.5014  -14.5395 N   0  0  0  0  0  0  0  0  0  0  0  0
   19.3200   -3.6779  -14.4931 C   0  0  0  0  0  0  0  0  0  0  0  0
   18.3257   -4.5267  -14.9432 O   0  0  0  0  0  0  0  0  0  0  0  0
   20.2815   -1.5854  -16.8457 C   0  0  0  0  0  0  0  0  0  0  0  0
   20.1707   -0.2206  -17.0088 C   0  0  0  0  0  0  0  0  0  0  0  0
   18.9816   -2.5786  -14.0020 O   0  0  0  0  0  0  0  0  0  0  0  0
  2  1  1  6
  2  3  1  0
  4  2  1  0
  5  4  2  0
  6  4  1  0
  7  6  1  0
  7  8  1  1
  9 14  1  0
  9  8  1  0
 10  9  2  0
 11 12  2  0
 11 10  1  0
 12 13  1  0
 13 14  2  0
 15 24  1  0
 15  7  1  0
 16 15  2  0
 18 17  1  0
 19 18  2  0
 20 19  1  0
 21 20  2  0
 21 27  1  0
 23 22  1  6
 22 21  1  0
 23 25  1  0
 23 24  1  0
 25 26  1  0
 27 28  2  0
 28 18  1  0
 29 25  2  0
M  END
$$$$
