AFY.pdb
     RDKit          3D

 29 30  0  0  1  0  0  0  0  0999 V2000
   27.1861  -17.2053  -14.4951 C   0  0  0  0  0  0  0  0  0  0  0  0
   28.0306  -18.4684  -14.4624 C   0  0  2  0  0  0  0  0  0  0  0  0
   28.3613  -18.8864  -15.8084 N   0  0  0  0  0  0  0  0  0  0  0  0
   27.3278  -19.5533  -13.7639 C   0  0  0  0  0  0  0  0  0  0  0  0
   26.6809  -20.3962  -14.4709 O   0  0  0  0  0  0  0  0  0  0  0  0
   27.3326  -19.7104  -12.3409 N   0  0  0  0  0  0  0  0  0  0  0  0
   26.6741  -20.8291  -11.6968 C   0  0  1  0  0  0  0  0  0  0  0  0
   27.2778  -21.1673  -10.3704 C   0  0  0  0  0  0  0  0  0  0  0  0
   28.7093  -21.4575  -10.5261 C   0  0  0  0  0  0  0  0  0  0  0  0
   29.6467  -20.5152  -10.2090 C   0  0  0  0  0  0  0  0  0  0  0  0
   30.9810  -20.8378  -10.3735 C   0  0  0  0  0  0  0  0  0  0  0  0
   31.3541  -22.0756  -10.8441 C   0  0  0  0  0  0  0  0  0  0  0  0
   30.3940  -23.0212  -11.1616 C   0  0  0  0  0  0  0  0  0  0  0  0
   29.0588  -22.7137  -11.0028 C   0  0  0  0  0  0  0  0  0  0  0  0
   25.2214  -20.5022  -11.5357 C   0  0  0  0  0  0  0  0  0  0  0  0
   24.8582  -19.5703  -10.7747 O   0  0  0  0  0  0  0  0  0  0  0  0
   17.5483  -17.3855  -13.7797 O   0  0  0  0  0  0  0  0  0  0  0  0
   18.8440  -17.8747  -13.5572 C   0  0  0  0  0  0  0  0  0  0  0  0
   19.3673  -17.9535  -12.2787 C   0  0  0  0  0  0  0  0  0  0  0  0
   20.6414  -18.4367  -12.0818 C   0  0  0  0  0  0  0  0  0  0  0  0
   21.4533  -18.8630  -13.1396 C   0  0  0  0  0  0  0  0  0  0  0  0
   22.8116  -19.3668  -12.9250 C   0  0  0  0  0  0  0  0  0  0  0  0
   22.8286  -20.7554  -12.3287 C   0  0  2  0  0  0  0  0  0  0  0  0
   24.2071  -21.2130  -12.2193 N   0  0  0  0  0  0  0  0  0  0  0  0
   22.0866  -21.7494  -13.1245 C   0  0  0  0  0  0  0  0  0  0  0  0
   20.7464  -21.9993  -12.8944 O   0  0  0  0  0  0  0  0  0  0  0  0
   20.9197  -18.7801  -14.4202 C   0  0  0  0  0  0  0  0  0  0  0  0
   19.6418  -18.2937  -14.5995 C   0  0  0  0  0  0  0  0  0  0  0  0
   22.6611  -22.3922  -14.0306 O   0  0  0  0  0  0  0  0  0  0  0  0
  2  1  1  6
  2  3  1  0
  4  2  1  0
  5  4  2  0
  6  4  1  0
  7  6  1  0
  7  8  1  1
  9 14  1  0
  9  8  1  0
 10  9  2  0
 11 12  2  0
 11 10  1  0
 12 13  1  0
 13 14  2  0
 15 24  1  0
 15  7  1  0
 16 15  2  0
 18 17  1  0
 19 18  2  0
 20 19  1  0
 21 20  2  0
 21 27  1  0
 23 22  1  6
 22 21  1  0
 23 25  1  0
 23 24  1  0
 25 26  1  0
 27 28  2  0
 28 18  1  0
 29 25  2  0
M  END
$$$$
