AFY.pdb
     RDKit          3D

 29 30  0  0  1  0  0  0  0  0999 V2000
   33.8736  -29.9026  -19.5734 C   0  0  0  0  0  0  0  0  0  0  0  0
   34.4670  -29.1852  -18.3722 C   0  0  2  0  0  0  0  0  0  0  0  0
   35.2088  -30.1155  -17.5477 N   0  0  0  0  0  0  0  0  0  0  0  0
   33.4162  -28.5411  -17.5722 C   0  0  0  0  0  0  0  0  0  0  0  0
   32.9188  -29.2014  -16.5999 O   0  0  0  0  0  0  0  0  0  0  0  0
   32.9268  -27.2202  -17.8273 N   0  0  0  0  0  0  0  0  0  0  0  0
   31.9361  -26.5976  -16.9722 C   0  0  1  0  0  0  0  0  0  0  0  0
   32.2819  -25.1843  -16.6240 C   0  0  0  0  0  0  0  0  0  0  0  0
   33.3885  -25.1581  -15.6585 C   0  0  0  0  0  0  0  0  0  0  0  0
   33.1533  -25.3621  -14.3280 C   0  0  0  0  0  0  0  0  0  0  0  0
   34.2290  -25.3275  -13.4601 C   0  0  0  0  0  0  0  0  0  0  0  0
   35.5026  -25.0937  -13.9251 C   0  0  0  0  0  0  0  0  0  0  0  0
   35.7269  -24.8886  -15.2758 C   0  0  0  0  0  0  0  0  0  0  0  0
   34.6635  -24.9203  -16.1536 C   0  0  0  0  0  0  0  0  0  0  0  0
   30.6073  -26.6503  -17.6610 C   0  0  0  0  0  0  0  0  0  0  0  0
   30.4887  -26.2570  -18.8488 O   0  0  0  0  0  0  0  0  0  0  0  0
   23.6417  -29.4403  -21.7439 O   0  0  0  0  0  0  0  0  0  0  0  0
   24.8145  -29.1895  -21.0163 C   0  0  0  0  0  0  0  0  0  0  0  0
   25.1781  -29.9925  -19.9497 C   0  0  0  0  0  0  0  0  0  0  0  0
   26.3334  -29.7293  -19.2485 C   0  0  0  0  0  0  0  0  0  0  0  0
   27.1791  -28.6613  -19.5709 C   0  0  0  0  0  0  0  0  0  0  0  0
   28.4017  -28.3801  -18.8151 C   0  0  0  0  0  0  0  0  0  0  0  0
   28.1810  -27.3780  -17.7056 C   0  0  2  0  0  0  0  0  0  0  0  0
   29.4433  -27.1363  -17.0203 N   0  0  0  0  0  0  0  0  0  0  0  0
   27.1996  -27.8184  -16.6981 C   0  0  0  0  0  0  0  0  0  0  0  0
   25.8650  -27.4703  -16.7941 O   0  0  0  0  0  0  0  0  0  0  0  0
   26.8060  -27.8599  -20.6434 C   0  0  0  0  0  0  0  0  0  0  0  0
   25.6457  -28.1379  -21.3349 C   0  0  0  0  0  0  0  0  0  0  0  0
   27.5593  -28.5210  -15.7279 O   0  0  0  0  0  0  0  0  0  0  0  0
  2  1  1  6
  2  3  1  0
  4  2  1  0
  5  4  2  0
  6  4  1  0
  7  6  1  0
  7  8  1  6
  9 14  1  0
  9  8  1  0
 10  9  2  0
 11 12  2  0
 11 10  1  0
 12 13  1  0
 13 14  2  0
 15 24  1  0
 15  7  1  0
 16 15  2  0
 18 17  1  0
 19 18  2  0
 20 19  1  0
 21 20  2  0
 21 27  1  0
 23 22  1  6
 22 21  1  0
 23 25  1  0
 23 24  1  0
 25 26  1  0
 27 28  2  0
 28 18  1  0
 29 25  2  0
M  END
$$$$
