AFY.pdb
     RDKit          3D

 29 30  0  0  1  0  0  0  0  0999 V2000
   28.0297   -9.3447  -19.3280 C   0  0  0  0  0  0  0  0  0  0  0  0
   27.7043   -8.7272  -17.9779 C   0  0  2  0  0  0  0  0  0  0  0  0
   28.6786   -9.1389  -16.9895 N   0  0  0  0  0  0  0  0  0  0  0  0
   26.3562   -9.1093  -17.5358 C   0  0  0  0  0  0  0  0  0  0  0  0
   25.3996   -8.9925  -18.3723 O   0  0  0  0  0  0  0  0  0  0  0  0
   26.0651   -9.6022  -16.2236 N   0  0  0  0  0  0  0  0  0  0  0  0
   24.7211   -9.9778  -15.8328 C   0  0  1  0  0  0  0  0  0  0  0  0
   24.6982  -11.1401  -14.8913 C   0  0  0  0  0  0  0  0  0  0  0  0
   25.2845  -12.3232  -15.5349 C   0  0  0  0  0  0  0  0  0  0  0  0
   26.5670  -12.7018  -15.2539 C   0  0  0  0  0  0  0  0  0  0  0  0
   27.0722  -13.8228  -15.8861 C   0  0  0  0  0  0  0  0  0  0  0  0
   26.3027  -14.5377  -16.7749 C   0  0  0  0  0  0  0  0  0  0  0  0
   25.0047  -14.1430  -17.0506 C   0  0  0  0  0  0  0  0  0  0  0  0
   24.4871  -13.0266  -16.4274 C   0  0  0  0  0  0  0  0  0  0  0  0
   24.0550   -8.7916  -15.2065 C   0  0  0  0  0  0  0  0  0  0  0  0
   24.5496   -8.2467  -14.1877 O   0  0  0  0  0  0  0  0  0  0  0  0
   20.0271   -1.0553  -14.4884 O   0  0  0  0  0  0  0  0  0  0  0  0
   20.7148   -2.2298  -14.8282 C   0  0  0  0  0  0  0  0  0  0  0  0
   20.4405   -2.9020  -16.0062 C   0  0  0  0  0  0  0  0  0  0  0  0
   21.1269   -4.0531  -16.3213 C   0  0  0  0  0  0  0  0  0  0  0  0
   22.1139   -4.5898  -15.4859 C   0  0  0  0  0  0  0  0  0  0  0  0
   22.8338   -5.8203  -15.8215 C   0  0  0  0  0  0  0  0  0  0  0  0
   22.2201   -7.0448  -15.1828 C   0  0  2  0  0  0  0  0  0  0  0  0
   22.8595   -8.2375  -15.7215 N   0  0  0  0  0  0  0  0  0  0  0  0
   20.7700   -7.1683  -15.4146 C   0  0  0  0  0  0  0  0  0  0  0  0
   20.2730   -7.7752  -16.5531 O   0  0  0  0  0  0  0  0  0  0  0  0
   22.3827   -3.9083  -14.3049 C   0  0  0  0  0  0  0  0  0  0  0  0
   21.6858   -2.7567  -14.0049 C   0  0  0  0  0  0  0  0  0  0  0  0
   19.9543   -6.7214  -14.5785 O   0  0  0  0  0  0  0  0  0  0  0  0
  2  1  1  6
  2  3  1  0
  4  2  1  0
  5  4  2  0
  6  4  1  0
  7  6  1  0
  7  8  1  1
  9 14  1  0
  9  8  1  0
 10  9  2  0
 11 12  2  0
 11 10  1  0
 12 13  1  0
 13 14  2  0
 15 24  1  0
 15  7  1  0
 16 15  2  0
 18 17  1  0
 19 18  2  0
 20 19  1  0
 21 20  2  0
 21 27  1  0
 23 22  1  6
 22 21  1  0
 23 25  1  0
 23 24  1  0
 25 26  1  0
 27 28  2  0
 28 18  1  0
 29 25  2  0
M  END
$$$$
