AFY.pdb
     RDKit          3D

 29 30  0  0  1  0  0  0  0  0999 V2000
   21.1222  -10.4870  -20.0363 C   0  0  0  0  0  0  0  0  0  0  0  0
   22.3327  -10.4111  -19.1206 C   0  0  2  0  0  0  0  0  0  0  0  0
   22.6397  -11.7202  -18.5844 N   0  0  0  0  0  0  0  0  0  0  0  0
   22.1014   -9.4653  -18.0201 C   0  0  0  0  0  0  0  0  0  0  0  0
   21.2847   -9.8085  -17.1016 O   0  0  0  0  0  0  0  0  0  0  0  0
   22.7418   -8.1882  -17.9281 N   0  0  0  0  0  0  0  0  0  0  0  0
   22.5461   -7.3196  -16.7847 C   0  0  1  0  0  0  0  0  0  0  0  0
   23.8357   -6.8888  -16.1607 C   0  0  0  0  0  0  0  0  0  0  0  0
   24.5871   -8.0612  -15.6932 C   0  0  0  0  0  0  0  0  0  0  0  0
   25.7609   -8.4180  -16.2950 C   0  0  0  0  0  0  0  0  0  0  0  0
   26.4300   -9.5297  -15.8176 C   0  0  0  0  0  0  0  0  0  0  0  0
   25.9262  -10.2570  -14.7639 C   0  0  0  0  0  0  0  0  0  0  0  0
   24.7358   -9.8844  -14.1632 C   0  0  0  0  0  0  0  0  0  0  0  0
   24.0570   -8.7775  -14.6287 C   0  0  0  0  0  0  0  0  0  0  0  0
   21.7575   -6.1234  -17.2211 C   0  0  0  0  0  0  0  0  0  0  0  0
   22.1113   -5.4591  -18.2276 O   0  0  0  0  0  0  0  0  0  0  0  0
   17.0685   -7.6009  -21.9643 O   0  0  0  0  0  0  0  0  0  0  0  0
   17.3808   -6.9797  -20.7459 C   0  0  0  0  0  0  0  0  0  0  0  0
   17.5465   -7.7204  -19.5890 C   0  0  0  0  0  0  0  0  0  0  0  0
   17.8530   -7.0914  -18.4033 C   0  0  0  0  0  0  0  0  0  0  0  0
   18.0089   -5.7033  -18.3095 C   0  0  0  0  0  0  0  0  0  0  0  0
   18.3250   -5.0386  -17.0433 C   0  0  0  0  0  0  0  0  0  0  0  0
   19.7635   -4.5808  -16.9710 C   0  0  2  0  0  0  0  0  0  0  0  0
   20.5984   -5.6915  -16.5344 N   0  0  0  0  0  0  0  0  0  0  0  0
   19.9810   -3.4609  -16.0380 C   0  0  0  0  0  0  0  0  0  0  0  0
   19.3260   -2.2539  -16.1982 O   0  0  0  0  0  0  0  0  0  0  0  0
   17.8404   -4.9672  -19.4763 C   0  0  0  0  0  0  0  0  0  0  0  0
   17.5338   -5.6133  -20.6554 C   0  0  0  0  0  0  0  0  0  0  0  0
   20.7703   -3.5823  -15.0755 O   0  0  0  0  0  0  0  0  0  0  0  0
  2  1  1  6
  2  3  1  0
  4  2  1  0
  5  4  2  0
  6  4  1  0
  7  6  1  0
  7  8  1  6
  9 14  1  0
  9  8  1  0
 10  9  2  0
 11 12  2  0
 11 10  1  0
 12 13  1  0
 13 14  2  0
 15 24  1  0
 15  7  1  0
 16 15  2  0
 18 17  1  0
 19 18  2  0
 20 19  1  0
 21 20  2  0
 21 27  1  0
 23 22  1  1
 22 21  1  0
 23 25  1  0
 23 24  1  0
 25 26  1  0
 27 28  2  0
 28 18  1  0
 29 25  2  0
M  END
$$$$
