AFY.pdb
     RDKit          3D

 29 30  0  0  1  0  0  0  0  0999 V2000
   26.2263  -23.5818  -19.6705 C   0  0  0  0  0  0  0  0  0  0  0  0
   27.5553  -23.1146  -19.1003 C   0  0  2  0  0  0  0  0  0  0  0  0
   28.5792  -24.1114  -19.3317 N   0  0  0  0  0  0  0  0  0  0  0  0
   27.4435  -22.8423  -17.6607 C   0  0  0  0  0  0  0  0  0  0  0  0
   27.2232  -23.8298  -16.8830 O   0  0  0  0  0  0  0  0  0  0  0  0
   27.5684  -21.5344  -17.0920 N   0  0  0  0  0  0  0  0  0  0  0  0
   27.4234  -21.3070  -15.6681 C   0  0  1  0  0  0  0  0  0  0  0  0
   28.2355  -20.1476  -15.1840 C   0  0  0  0  0  0  0  0  0  0  0  0
   28.1074  -20.0145  -13.7268 C   0  0  0  0  0  0  0  0  0  0  0  0
   28.7774  -20.8630  -12.8912 C   0  0  0  0  0  0  0  0  0  0  0  0
   28.6233  -20.6960  -11.5274 C   0  0  0  0  0  0  0  0  0  0  0  0
   27.8162  -19.7009  -11.0259 C   0  0  0  0  0  0  0  0  0  0  0  0
   27.1431  -18.8480  -11.8838 C   0  0  0  0  0  0  0  0  0  0  0  0
   27.2871  -19.0025  -13.2469 C   0  0  0  0  0  0  0  0  0  0  0  0
   25.9737  -21.0864  -15.3632 C   0  0  0  0  0  0  0  0  0  0  0  0
   25.2448  -20.4449  -16.1611 O   0  0  0  0  0  0  0  0  0  0  0  0
   18.5766  -20.4799  -10.4273 O   0  0  0  0  0  0  0  0  0  0  0  0
   19.8548  -20.7941  -10.9122 C   0  0  0  0  0  0  0  0  0  0  0  0
   20.0632  -21.9084  -11.7056 C   0  0  0  0  0  0  0  0  0  0  0  0
   21.3257  -22.1991  -12.1715 C   0  0  0  0  0  0  0  0  0  0  0  0
   22.4368  -21.4013  -11.8737 C   0  0  0  0  0  0  0  0  0  0  0  0
   23.7794  -21.7210  -12.3639 C   0  0  0  0  0  0  0  0  0  0  0  0
   23.9937  -21.2865  -13.7954 C   0  0  2  0  0  0  0  0  0  0  0  0
   25.3663  -21.5800  -14.1847 N   0  0  0  0  0  0  0  0  0  0  0  0
   23.7612  -19.8483  -14.0176 C   0  0  0  0  0  0  0  0  0  0  0  0
   22.5733  -19.3864  -14.5536 O   0  0  0  0  0  0  0  0  0  0  0  0
   22.2184  -20.2842  -11.0761 C   0  0  0  0  0  0  0  0  0  0  0  0
   20.9474  -20.0078  -10.6180 C   0  0  0  0  0  0  0  0  0  0  0  0
   24.6425  -19.0110  -13.7237 O   0  0  0  0  0  0  0  0  0  0  0  0
  2  1  1  1
  2  3  1  0
  4  2  1  0
  5  4  2  0
  6  4  1  0
  7  6  1  0
  7  8  1  6
  9 14  1  0
  9  8  1  0
 10  9  2  0
 11 12  2  0
 11 10  1  0
 12 13  1  0
 13 14  2  0
 15 24  1  0
 15  7  1  0
 16 15  2  0
 18 17  1  0
 19 18  2  0
 20 19  1  0
 21 20  2  0
 21 27  1  0
 23 22  1  1
 22 21  1  0
 23 25  1  0
 23 24  1  0
 25 26  1  0
 27 28  2  0
 28 18  1  0
 29 25  2  0
M  END
$$$$
