AFY.pdb
     RDKit          3D

 29 30  0  0  1  0  0  0  0  0999 V2000
   16.8918  -17.9274    1.2524 C   0  0  0  0  0  0  0  0  0  0  0  0
   18.3525  -17.5345    1.4002 C   0  0  2  0  0  0  0  0  0  0  0  0
   19.1384  -18.1113    0.3300 N   0  0  0  0  0  0  0  0  0  0  0  0
   18.8856  -17.9699    2.6983 C   0  0  0  0  0  0  0  0  0  0  0  0
   19.3912  -19.1393    2.7726 O   0  0  0  0  0  0  0  0  0  0  0  0
   18.8662  -17.1537    3.8743 N   0  0  0  0  0  0  0  0  0  0  0  0
   19.4344  -17.6105    5.1268 C   0  0  1  0  0  0  0  0  0  0  0  0
   19.7355  -16.4864    6.0670 C   0  0  0  0  0  0  0  0  0  0  0  0
   20.3236  -17.0091    7.3073 C   0  0  0  0  0  0  0  0  0  0  0  0
   21.5207  -17.6676    7.2838 C   0  0  0  0  0  0  0  0  0  0  0  0
   22.0315  -18.1403    8.4785 C   0  0  0  0  0  0  0  0  0  0  0  0
   21.3514  -17.9519    9.6596 C   0  0  0  0  0  0  0  0  0  0  0  0
   20.1393  -17.2829    9.6692 C   0  0  0  0  0  0  0  0  0  0  0  0
   19.6172  -16.8057    8.4851 C   0  0  0  0  0  0  0  0  0  0  0  0
   18.4808  -18.5749    5.7622 C   0  0  0  0  0  0  0  0  0  0  0  0
   17.2558  -18.5371    5.4839 O   0  0  0  0  0  0  0  0  0  0  0  0
   13.8913  -25.3954    8.1753 O   0  0  0  0  0  0  0  0  0  0  0  0
   14.7847  -24.4266    7.6947 C   0  0  0  0  0  0  0  0  0  0  0  0
   14.3793  -23.1188    7.4944 C   0  0  0  0  0  0  0  0  0  0  0  0
   15.2720  -22.1830    7.0221 C   0  0  0  0  0  0  0  0  0  0  0  0
   16.6036  -22.4990    6.7274 C   0  0  0  0  0  0  0  0  0  0  0  0
   17.5460  -21.5015    6.2156 C   0  0  0  0  0  0  0  0  0  0  0  0
   18.0173  -20.5448    7.2863 C   0  0  2  0  0  0  0  0  0  0  0  0
   18.9047  -19.5563    6.6887 N   0  0  0  0  0  0  0  0  0  0  0  0
   18.7496  -21.2008    8.3843 C   0  0  0  0  0  0  0  0  0  0  0  0
   18.1513  -21.4347    9.6086 O   0  0  0  0  0  0  0  0  0  0  0  0
   17.0019  -23.8148    6.9313 C   0  0  0  0  0  0  0  0  0  0  0  0
   16.0950  -24.7393    7.4050 C   0  0  0  0  0  0  0  0  0  0  0  0
   19.9371  -21.5605    8.2280 O   0  0  0  0  0  0  0  0  0  0  0  0
  2  1  1  6
  2  3  1  0
  4  2  1  0
  5  4  2  0
  6  4  1  0
  7  6  1  0
  7  8  1  1
  9 14  1  0
  9  8  1  0
 10  9  2  0
 11 12  2  0
 11 10  1  0
 12 13  1  0
 13 14  2  0
 15 24  1  0
 15  7  1  0
 16 15  2  0
 18 17  1  0
 19 18  2  0
 20 19  1  0
 21 20  2  0
 21 27  1  0
 23 22  1  6
 22 21  1  0
 23 25  1  0
 23 24  1  0
 25 26  1  0
 27 28  2  0
 28 18  1  0
 29 25  2  0
M  END
$$$$
