QHM.pdb
     RDKit          3D

 28 28  0  0  1  0  0  0  0  0999 V2000
    8.5024  -12.4823   18.0886 N   0  0  0  0  0  0  0  0  0  0  0  0
    8.0282  -13.4470   17.1450 C   0  0  0  0  0  0  0  0  0  0  0  0
    8.2109  -13.1832   15.9322 O   0  0  0  0  0  0  0  0  0  0  0  0
    7.3741  -14.6577   17.6617 C   0  0  0  0  0  0  0  0  0  0  0  0
    7.2244  -14.6665   19.1531 C   0  0  0  0  0  0  0  0  0  0  0  0
    8.5337  -14.8318   19.8448 C   0  0  2  0  0  0  0  0  0  0  0  0
    9.3968  -15.5976   18.9399 N   0  0  0  0  0  0  0  0  0  0  0  0
    8.4119  -15.5663   21.1323 C   0  0  0  0  0  0  0  0  0  0  0  0
    7.5169  -15.2989   21.9868 O   0  0  0  0  0  0  0  0  0  0  0  0
    9.3131  -16.5964   21.4272 N   0  0  0  0  0  0  0  0  0  0  0  0
    9.3335  -17.3256   22.6776 C   0  0  1  0  0  0  0  0  0  0  0  0
   10.1920  -18.5510   22.6259 C   0  0  0  0  0  0  0  0  0  0  0  0
   10.1586  -19.3485   23.8766 C   0  0  0  0  0  0  0  0  0  0  0  0
    9.5011  -19.1320   25.0654 C   0  0  0  0  0  0  0  0  0  0  0  0
    9.8190  -20.1590   25.8698 N   0  0  0  0  0  0  0  0  0  0  0  0
   10.6367  -21.0107   25.2621 C   0  0  0  0  0  0  0  0  0  0  0  0
   10.8368  -20.4986   24.0361 N   0  0  0  0  0  0  0  0  0  0  0  0
    9.6660  -16.4161   23.8204 C   0  0  0  0  0  0  0  0  0  0  0  0
   10.7322  -15.7501   23.8451 O   0  0  0  0  0  0  0  0  0  0  0  0
    6.3546  -11.1209   26.5912 C   0  0  0  0  0  0  0  0  0  0  0  0
    6.0008  -12.6567   25.6770 S   0  0  0  0  0  0  0  0  0  0  0  0
    7.4528  -13.5989   25.3552 C   0  0  0  0  0  0  0  0  0  0  0  0
    8.0245  -14.5047   26.3376 C   0  0  0  0  0  0  0  0  0  0  0  0
    9.2021  -15.3352   26.0561 C   0  0  2  0  0  0  0  0  0  0  0  0
    8.8082  -16.2580   24.9229 N   0  0  0  0  0  0  0  0  0  0  0  0
    9.5230  -16.3299   27.1432 C   0  0  0  0  0  0  0  0  0  0  0  0
   10.0939  -15.8697   28.2084 O   0  0  0  0  0  0  0  0  0  0  0  0
    9.2855  -17.6574   27.1346 O   0  0  0  0  0  0  0  0  0  0  0  0
  1  2  1  0
  2  3  2  0
  4  5  1  0
  4  2  1  0
  5  6  1  0
  6  7  1  6
  8  6  1  0
  8  9  2  0
 10  8  1  0
 11 10  1  0
 11 12  1  6
 13 14  2  0
 13 12  1  0
 15 14  1  0
 16 17  2  0
 16 15  1  0
 17 13  1  0
 18 11  1  0
 19 18  2  0
 21 20  1  0
 22 21  1  0
 24 23  1  1
 23 22  1  0
 24 25  1  0
 25 18  1  0
 26 24  1  0
 27 26  2  0
 28 26  1  0
M  END
$$$$
