QHM.pdb
     RDKit          3D

 28 28  0  0  1  0  0  0  0  0999 V2000
   16.2839  -14.4501   19.5180 N   0  0  0  0  0  0  0  0  0  0  0  0
   15.9076  -14.5764   18.1439 C   0  0  0  0  0  0  0  0  0  0  0  0
   16.8054  -14.9405   17.3469 O   0  0  0  0  0  0  0  0  0  0  0  0
   14.5164  -14.2758   17.7764 C   0  0  0  0  0  0  0  0  0  0  0  0
   13.6619  -13.8802   18.9426 C   0  0  0  0  0  0  0  0  0  0  0  0
   13.3369  -15.0424   19.8164 C   0  0  2  0  0  0  0  0  0  0  0  0
   13.0111  -16.1624   18.9276 N   0  0  0  0  0  0  0  0  0  0  0  0
   12.1759  -14.7806   20.7085 C   0  0  0  0  0  0  0  0  0  0  0  0
   12.1219  -13.7777   21.4791 O   0  0  0  0  0  0  0  0  0  0  0  0
   11.0921  -15.6670   20.7088 N   0  0  0  0  0  0  0  0  0  0  0  0
    9.9193  -15.5168   21.5440 C   0  0  1  0  0  0  0  0  0  0  0  0
    8.6508  -15.8938   20.8441 C   0  0  0  0  0  0  0  0  0  0  0  0
    8.2882  -14.9703   19.7409 C   0  0  0  0  0  0  0  0  0  0  0  0
    8.2586  -15.1621   18.3789 C   0  0  0  0  0  0  0  0  0  0  0  0
    7.8652  -13.9977   17.8382 N   0  0  0  0  0  0  0  0  0  0  0  0
    7.6447  -13.0826   18.7747 C   0  0  0  0  0  0  0  0  0  0  0  0
    7.9091  -13.6957   19.9407 N   0  0  0  0  0  0  0  0  0  0  0  0
   10.1044  -16.2177   22.8548 C   0  0  0  0  0  0  0  0  0  0  0  0
   10.8326  -17.2372   22.9610 O   0  0  0  0  0  0  0  0  0  0  0  0
    9.2749  -12.7628   29.0027 C   0  0  0  0  0  0  0  0  0  0  0  0
   10.3025  -14.2607   28.8628 S   0  0  0  0  0  0  0  0  0  0  0  0
    9.5923  -15.4678   27.7959 C   0  0  0  0  0  0  0  0  0  0  0  0
    9.4715  -15.2623   26.3622 C   0  0  0  0  0  0  0  0  0  0  0  0
   10.0170  -16.2070   25.3795 C   0  0  2  0  0  0  0  0  0  0  0  0
    9.4770  -15.7760   24.0329 N   0  0  0  0  0  0  0  0  0  0  0  0
    9.4483  -17.5995   25.4888 C   0  0  0  0  0  0  0  0  0  0  0  0
    9.9163  -18.3510   26.4314 O   0  0  0  0  0  0  0  0  0  0  0  0
    8.5018  -18.1610   24.7095 O   0  0  0  0  0  0  0  0  0  0  0  0
  1  2  1  0
  2  3  2  0
  4  5  1  0
  4  2  1  0
  5  6  1  0
  6  7  1  6
  8  6  1  0
  8  9  2  0
 10  8  1  0
 11 10  1  0
 11 12  1  6
 13 14  2  0
 13 12  1  0
 15 14  1  0
 16 17  2  0
 16 15  1  0
 17 13  1  0
 18 11  1  0
 19 18  2  0
 21 20  1  0
 22 21  1  0
 24 23  1  1
 23 22  1  0
 24 25  1  0
 25 18  1  0
 26 24  1  0
 27 26  2  0
 28 26  1  0
M  END
$$$$
