QHM.pdb
     RDKit          3D

 28 28  0  0  1  0  0  0  0  0999 V2000
   10.3888  -12.7715   19.0227 N   0  0  0  0  0  0  0  0  0  0  0  0
    9.2229  -12.2689   18.3639 C   0  0  0  0  0  0  0  0  0  0  0  0
    9.4133  -11.4528   17.4302 O   0  0  0  0  0  0  0  0  0  0  0  0
    7.9095  -12.7421   18.8238 C   0  0  0  0  0  0  0  0  0  0  0  0
    7.9891  -13.7186   19.9582 C   0  0  0  0  0  0  0  0  0  0  0  0
    8.6887  -14.9743   19.5660 C   0  0  2  0  0  0  0  0  0  0  0  0
    7.8904  -15.5886   18.5003 N   0  0  0  0  0  0  0  0  0  0  0  0
    8.8114  -15.9369   20.6931 C   0  0  0  0  0  0  0  0  0  0  0  0
    7.8147  -16.5490   21.1774 O   0  0  0  0  0  0  0  0  0  0  0  0
   10.0701  -16.1881   21.2522 N   0  0  0  0  0  0  0  0  0  0  0  0
   10.2949  -17.0461   22.3963 C   0  0  1  0  0  0  0  0  0  0  0  0
   11.4798  -17.9457   22.2287 C   0  0  0  0  0  0  0  0  0  0  0  0
   11.3226  -18.9308   21.1306 C   0  0  0  0  0  0  0  0  0  0  0  0
   10.2529  -19.7190   20.7741 C   0  0  0  0  0  0  0  0  0  0  0  0
   10.6450  -20.4350   19.7081 N   0  0  0  0  0  0  0  0  0  0  0  0
   11.8963  -20.1475   19.3694 C   0  0  0  0  0  0  0  0  0  0  0  0
   12.3003  -19.2201   20.2538 N   0  0  0  0  0  0  0  0  0  0  0  0
   10.3308  -16.2478   23.6632 C   0  0  0  0  0  0  0  0  0  0  0  0
   10.7254  -15.0541   23.6801 O   0  0  0  0  0  0  0  0  0  0  0  0
    6.6306  -11.6230   27.4973 C   0  0  0  0  0  0  0  0  0  0  0  0
    7.2020  -12.5996   26.0693 S   0  0  0  0  0  0  0  0  0  0  0  0
    7.6392  -14.2468   26.5111 C   0  0  0  0  0  0  0  0  0  0  0  0
    8.3784  -15.1209   25.6157 C   0  0  0  0  0  0  0  0  0  0  0  0
    9.5719  -15.8623   26.0418 C   0  0  2  0  0  0  0  0  0  0  0  0
    9.9269  -16.7869   24.8972 N   0  0  0  0  0  0  0  0  0  0  0  0
    9.3131  -16.8544   27.1476 C   0  0  0  0  0  0  0  0  0  0  0  0
    9.0924  -16.3724   28.3272 O   0  0  0  0  0  0  0  0  0  0  0  0
    9.2876  -18.1993   27.0518 O   0  0  0  0  0  0  0  0  0  0  0  0
  1  2  1  0
  2  3  2  0
  4  5  1  0
  4  2  1  0
  5  6  1  0
  6  7  1  6
  8  6  1  0
  8  9  2  0
 10  8  1  0
 11 10  1  0
 11 12  1  6
 13 14  2  0
 13 12  1  0
 15 14  1  0
 16 17  2  0
 16 15  1  0
 17 13  1  0
 18 11  1  0
 19 18  2  0
 21 20  1  0
 22 21  1  0
 24 23  1  6
 23 22  1  0
 24 25  1  0
 25 18  1  0
 26 24  1  0
 27 26  2  0
 28 26  1  0
M  END
$$$$
