QHM.pdb
     RDKit          3D

 28 28  0  0  1  0  0  0  0  0999 V2000
   12.1166  -21.4305   20.7870 N   0  0  0  0  0  0  0  0  0  0  0  0
   12.8879  -20.2904   21.1756 C   0  0  0  0  0  0  0  0  0  0  0  0
   13.7791  -20.4825   22.0374 O   0  0  0  0  0  0  0  0  0  0  0  0
   12.5825  -18.9993   20.5427 C   0  0  0  0  0  0  0  0  0  0  0  0
   11.4026  -19.0499   19.6197 C   0  0  0  0  0  0  0  0  0  0  0  0
   11.1416  -17.7325   18.9745 C   0  0  2  0  0  0  0  0  0  0  0  0
   12.3793  -17.3430   18.2913 N   0  0  0  0  0  0  0  0  0  0  0  0
   10.7794  -16.6760   19.9567 C   0  0  0  0  0  0  0  0  0  0  0  0
   11.6008  -15.7921   20.3399 O   0  0  0  0  0  0  0  0  0  0  0  0
    9.4847  -16.6425   20.4884 N   0  0  0  0  0  0  0  0  0  0  0  0
    9.0145  -15.6401   21.4211 C   0  0  1  0  0  0  0  0  0  0  0  0
    7.6590  -15.1081   21.0736 C   0  0  0  0  0  0  0  0  0  0  0  0
    7.6177  -14.4046   19.7679 C   0  0  0  0  0  0  0  0  0  0  0  0
    8.0519  -13.1502   19.4068 C   0  0  0  0  0  0  0  0  0  0  0  0
    7.7665  -13.0086   18.1024 N   0  0  0  0  0  0  0  0  0  0  0  0
    7.1789  -14.0962   17.6177 C   0  0  0  0  0  0  0  0  0  0  0  0
    7.0940  -14.9468   18.6543 N   0  0  0  0  0  0  0  0  0  0  0  0
    9.1138  -16.1351   22.8313 C   0  0  0  0  0  0  0  0  0  0  0  0
    9.3312  -17.3457   23.0920 O   0  0  0  0  0  0  0  0  0  0  0  0
   10.2124  -12.9866   29.9004 C   0  0  0  0  0  0  0  0  0  0  0  0
   10.6958  -14.1118   28.5515 S   0  0  0  0  0  0  0  0  0  0  0  0
    9.3088  -14.7342   27.6635 C   0  0  0  0  0  0  0  0  0  0  0  0
    9.1987  -14.6240   26.2184 C   0  0  0  0  0  0  0  0  0  0  0  0
    9.2566  -15.7915   25.3300 C   0  0  2  0  0  0  0  0  0  0  0  0
    8.9701  -15.2771   23.9357 N   0  0  0  0  0  0  0  0  0  0  0  0
    8.1188  -16.7626   25.5213 C   0  0  0  0  0  0  0  0  0  0  0  0
    8.2715  -17.6727   26.4273 O   0  0  0  0  0  0  0  0  0  0  0  0
    6.9497  -16.7967   24.8500 O   0  0  0  0  0  0  0  0  0  0  0  0
  1  2  1  0
  2  3  2  0
  4  5  1  0
  4  2  1  0
  5  6  1  0
  6  7  1  1
  8  6  1  0
  8  9  2  0
 10  8  1  0
 11 10  1  0
 11 12  1  6
 13 14  2  0
 13 12  1  0
 15 14  1  0
 16 17  2  0
 16 15  1  0
 17 13  1  0
 18 11  1  0
 19 18  2  0
 21 20  1  0
 22 21  1  0
 24 23  1  1
 23 22  1  0
 24 25  1  0
 25 18  1  0
 26 24  1  0
 27 26  2  0
 28 26  1  0
M  END
$$$$
