QHM.pdb
     RDKit          3D

 28 28  0  0  1  0  0  0  0  0999 V2000
    8.2555  -12.7453   17.3971 N   0  0  0  0  0  0  0  0  0  0  0  0
    8.0110  -13.9834   16.7239 C   0  0  0  0  0  0  0  0  0  0  0  0
    8.0267  -13.9533   15.4697 O   0  0  0  0  0  0  0  0  0  0  0  0
    7.7652  -15.1797   17.5418 C   0  0  0  0  0  0  0  0  0  0  0  0
    7.7065  -14.8969   19.0126 C   0  0  0  0  0  0  0  0  0  0  0  0
    8.6768  -15.7274   19.7800 C   0  0  2  0  0  0  0  0  0  0  0  0
    8.7239  -17.0381   19.1241 N   0  0  0  0  0  0  0  0  0  0  0  0
    8.2741  -15.9124   21.1998 C   0  0  0  0  0  0  0  0  0  0  0  0
    7.9715  -14.9415   21.9538 O   0  0  0  0  0  0  0  0  0  0  0  0
    8.2222  -17.2030   21.7399 N   0  0  0  0  0  0  0  0  0  0  0  0
    7.7536  -17.5072   23.0754 C   0  0  1  0  0  0  0  0  0  0  0  0
    7.7129  -18.9763   23.3603 C   0  0  0  0  0  0  0  0  0  0  0  0
    7.2092  -19.3008   24.7177 C   0  0  0  0  0  0  0  0  0  0  0  0
    6.6866  -18.4933   25.7012 C   0  0  0  0  0  0  0  0  0  0  0  0
    6.3938  -19.2952   26.7376 N   0  0  0  0  0  0  0  0  0  0  0  0
    6.6993  -20.5592   26.4691 C   0  0  0  0  0  0  0  0  0  0  0  0
    7.2002  -20.5472   25.2224 N   0  0  0  0  0  0  0  0  0  0  0  0
    8.5170  -16.7253   24.0998 C   0  0  0  0  0  0  0  0  0  0  0  0
    9.7739  -16.6908   24.1019 O   0  0  0  0  0  0  0  0  0  0  0  0
    5.8075  -11.2094   26.0974 C   0  0  0  0  0  0  0  0  0  0  0  0
    7.0249  -11.4431   27.4326 S   0  0  0  0  0  0  0  0  0  0  0  0
    8.1025  -12.8025   27.1315 C   0  0  0  0  0  0  0  0  0  0  0  0
    7.7489  -13.8900   26.2344 C   0  0  0  0  0  0  0  0  0  0  0  0
    8.6627  -15.0009   25.9403 C   0  0  2  0  0  0  0  0  0  0  0  0
    7.8731  -15.9903   25.1106 N   0  0  0  0  0  0  0  0  0  0  0  0
    9.0101  -15.8418   27.1430 C   0  0  0  0  0  0  0  0  0  0  0  0
    8.1287  -16.7064   27.5276 O   0  0  0  0  0  0  0  0  0  0  0  0
   10.1419  -15.7961   27.8749 O   0  0  0  0  0  0  0  0  0  0  0  0
  1  2  1  0
  2  3  2  0
  4  5  1  0
  4  2  1  0
  5  6  1  0
  6  7  1  6
  8  6  1  0
  8  9  2  0
 10  8  1  0
 11 10  1  0
 11 12  1  1
 13 14  2  0
 13 12  1  0
 15 14  1  0
 16 17  2  0
 16 15  1  0
 17 13  1  0
 18 11  1  0
 19 18  2  0
 21 20  1  0
 22 21  1  0
 24 23  1  1
 23 22  1  0
 24 25  1  0
 25 18  1  0
 26 24  1  0
 27 26  2  0
 28 26  1  0
M  END
$$$$
