QHM.pdb
     RDKit          3D

 28 28  0  0  1  0  0  0  0  0999 V2000
   13.9480  -18.3650   16.8393 N   0  0  0  0  0  0  0  0  0  0  0  0
   13.0894  -19.4877   17.0585 C   0  0  0  0  0  0  0  0  0  0  0  0
   13.3154  -20.5107   16.3682 O   0  0  0  0  0  0  0  0  0  0  0  0
   12.0241  -19.3592   18.0630 C   0  0  0  0  0  0  0  0  0  0  0  0
   11.9414  -17.9938   18.6758 C   0  0  0  0  0  0  0  0  0  0  0  0
   11.3343  -18.0281   20.0360 C   0  0  2  0  0  0  0  0  0  0  0  0
   10.0781  -18.7756   19.9204 N   0  0  0  0  0  0  0  0  0  0  0  0
   11.0406  -16.6697   20.5660 C   0  0  0  0  0  0  0  0  0  0  0  0
   11.9453  -15.8079   20.7696 O   0  0  0  0  0  0  0  0  0  0  0  0
    9.7182  -16.3132   20.8562 N   0  0  0  0  0  0  0  0  0  0  0  0
    9.3030  -14.9848   21.2545 C   0  0  1  0  0  0  0  0  0  0  0  0
    7.9205  -14.6416   20.7940 C   0  0  0  0  0  0  0  0  0  0  0  0
    7.8621  -14.2001   19.3787 C   0  0  0  0  0  0  0  0  0  0  0  0
    8.8598  -14.0263   18.4477 C   0  0  0  0  0  0  0  0  0  0  0  0
    8.2618  -13.6053   17.3216 N   0  0  0  0  0  0  0  0  0  0  0  0
    6.9480  -13.5026   17.4842 C   0  0  0  0  0  0  0  0  0  0  0  0
    6.7167  -13.8720   18.7553 N   0  0  0  0  0  0  0  0  0  0  0  0
    9.5065  -14.7804   22.7243 C   0  0  0  0  0  0  0  0  0  0  0  0
   10.1035  -13.7692   23.1736 O   0  0  0  0  0  0  0  0  0  0  0  0
    6.1488  -12.0752   28.5498 C   0  0  0  0  0  0  0  0  0  0  0  0
    6.3442  -12.6020   26.8166 S   0  0  0  0  0  0  0  0  0  0  0  0
    7.5956  -13.8249   26.6211 C   0  0  0  0  0  0  0  0  0  0  0  0
    8.0078  -14.3125   25.3155 C   0  0  0  0  0  0  0  0  0  0  0  0
    9.0475  -15.3352   25.1458 C   0  0  2  0  0  0  0  0  0  0  0  0
    9.0431  -15.7038   23.6778 N   0  0  0  0  0  0  0  0  0  0  0  0
    8.7103  -16.6613   25.7797 C   0  0  0  0  0  0  0  0  0  0  0  0
    8.6740  -16.7005   27.0719 O   0  0  0  0  0  0  0  0  0  0  0  0
    8.4424  -17.8245   25.1521 O   0  0  0  0  0  0  0  0  0  0  0  0
  1  2  1  0
  2  3  2  0
  4  5  1  0
  4  2  1  0
  5  6  1  0
  6  7  1  6
  8  6  1  0
  8  9  2  0
 10  8  1  0
 11 10  1  0
 11 12  1  1
 13 14  2  0
 13 12  1  0
 15 14  1  0
 16 17  2  0
 16 15  1  0
 17 13  1  0
 18 11  1  0
 19 18  2  0
 21 20  1  0
 22 21  1  0
 24 23  1  6
 23 22  1  0
 24 25  1  0
 25 18  1  0
 26 24  1  0
 27 26  2  0
 28 26  1  0
M  END
$$$$
