QHM.pdb
     RDKit          3D

 28 28  0  0  1  0  0  0  0  0999 V2000
    8.5869  -12.7860   16.5114 N   0  0  0  0  0  0  0  0  0  0  0  0
    8.1464  -13.9397   15.7898 C   0  0  0  0  0  0  0  0  0  0  0  0
    8.2529  -13.8952   14.5405 O   0  0  0  0  0  0  0  0  0  0  0  0
    7.6120  -15.0740   16.5568 C   0  0  0  0  0  0  0  0  0  0  0  0
    7.4389  -14.7805   18.0165 C   0  0  0  0  0  0  0  0  0  0  0  0
    8.7316  -14.8393   18.7550 C   0  0  2  0  0  0  0  0  0  0  0  0
    9.6226  -15.7090   17.9803 N   0  0  0  0  0  0  0  0  0  0  0  0
    8.5829  -15.3985   20.1252 C   0  0  0  0  0  0  0  0  0  0  0  0
    7.7005  -14.9892   20.9355 O   0  0  0  0  0  0  0  0  0  0  0  0
    9.4431  -16.4173   20.5519 N   0  0  0  0  0  0  0  0  0  0  0  0
    9.3071  -17.1229   21.8087 C   0  0  1  0  0  0  0  0  0  0  0  0
   10.2047  -18.3168   21.9090 C   0  0  0  0  0  0  0  0  0  0  0  0
   10.0092  -19.0995   23.1542 C   0  0  0  0  0  0  0  0  0  0  0  0
    8.8939  -19.2791   23.9393 C   0  0  0  0  0  0  0  0  0  0  0  0
    9.2658  -20.0759   24.9540 N   0  0  0  0  0  0  0  0  0  0  0  0
   10.5472  -20.4105   24.8580 C   0  0  0  0  0  0  0  0  0  0  0  0
   10.9916  -19.8022   23.7454 N   0  0  0  0  0  0  0  0  0  0  0  0
    9.4404  -16.1816   22.9662 C   0  0  0  0  0  0  0  0  0  0  0  0
   10.4770  -15.4915   23.1397 O   0  0  0  0  0  0  0  0  0  0  0  0
    6.6255  -11.0219   27.8944 C   0  0  0  0  0  0  0  0  0  0  0  0
    6.8425  -11.8370   26.2795 S   0  0  0  0  0  0  0  0  0  0  0  0
    6.9709  -13.5873   26.4201 C   0  0  0  0  0  0  0  0  0  0  0  0
    7.2599  -14.4391   25.2785 C   0  0  0  0  0  0  0  0  0  0  0  0
    8.5881  -15.0174   25.0399 C   0  0  2  0  0  0  0  0  0  0  0  0
    8.4185  -16.0190   23.9179 N   0  0  0  0  0  0  0  0  0  0  0  0
    9.0761  -15.9088   26.1542 C   0  0  0  0  0  0  0  0  0  0  0  0
    9.4666  -15.3272   27.2413 O   0  0  0  0  0  0  0  0  0  0  0  0
    9.1576  -17.2549   26.1500 O   0  0  0  0  0  0  0  0  0  0  0  0
  1  2  1  0
  2  3  2  0
  4  5  1  0
  4  2  1  0
  5  6  1  0
  6  7  1  6
  8  6  1  0
  8  9  2  0
 10  8  1  0
 11 10  1  0
 11 12  1  1
 13 14  2  0
 13 12  1  0
 15 14  1  0
 16 17  2  0
 16 15  1  0
 17 13  1  0
 18 11  1  0
 19 18  2  0
 21 20  1  0
 22 21  1  0
 24 23  1  1
 23 22  1  0
 24 25  1  0
 25 18  1  0
 26 24  1  0
 27 26  2  0
 28 26  1  0
M  END
$$$$
