QHM.pdb
     RDKit          3D

 28 28  0  0  1  0  0  0  0  0999 V2000
    6.1477  -21.6130   26.3912 N   0  0  0  0  0  0  0  0  0  0  0  0
    6.8126  -20.3695   26.6314 C   0  0  0  0  0  0  0  0  0  0  0  0
    7.6404  -20.3482   27.5738 O   0  0  0  0  0  0  0  0  0  0  0  0
    6.4808  -19.2284   25.7662 C   0  0  0  0  0  0  0  0  0  0  0  0
    5.2896  -19.4695   24.8889 C   0  0  0  0  0  0  0  0  0  0  0  0
    5.6819  -19.7461   23.4784 C   0  0  2  0  0  0  0  0  0  0  0  0
    6.3490  -21.0520   23.4727 N   0  0  0  0  0  0  0  0  0  0  0  0
    6.6157  -18.7247   22.9334 C   0  0  0  0  0  0  0  0  0  0  0  0
    7.8677  -18.9053   22.8818 O   0  0  0  0  0  0  0  0  0  0  0  0
    6.1080  -17.5111   22.4544 N   0  0  0  0  0  0  0  0  0  0  0  0
    6.9295  -16.4053   22.0093 C   0  0  1  0  0  0  0  0  0  0  0  0
    6.2019  -15.4658   21.0987 C   0  0  0  0  0  0  0  0  0  0  0  0
    7.0912  -14.4846   20.4297 C   0  0  0  0  0  0  0  0  0  0  0  0
    6.9952  -13.8736   19.2009 C   0  0  0  0  0  0  0  0  0  0  0  0
    8.0709  -13.0784   19.0851 N   0  0  0  0  0  0  0  0  0  0  0  0
    8.8403  -13.1497   20.1650 C   0  0  0  0  0  0  0  0  0  0  0  0
    8.2246  -14.0190   20.9839 N   0  0  0  0  0  0  0  0  0  0  0  0
    7.5782  -15.7204   23.1728 C   0  0  0  0  0  0  0  0  0  0  0  0
    6.9026  -15.1091   24.0392 O   0  0  0  0  0  0  0  0  0  0  0  0
    9.8915  -14.1520   29.1785 C   0  0  0  0  0  0  0  0  0  0  0  0
    8.3218  -14.1043   28.2548 S   0  0  0  0  0  0  0  0  0  0  0  0
    8.5596  -13.7968   26.5377 C   0  0  0  0  0  0  0  0  0  0  0  0
    8.6184  -14.8684   25.5576 C   0  0  0  0  0  0  0  0  0  0  0  0
    9.5861  -14.8775   24.4534 C   0  0  2  0  0  0  0  0  0  0  0  0
    8.9717  -15.7235   23.3590 N   0  0  0  0  0  0  0  0  0  0  0  0
   10.8446  -15.6539   24.7494 C   0  0  0  0  0  0  0  0  0  0  0  0
   10.7937  -16.9359   24.5875 O   0  0  0  0  0  0  0  0  0  0  0  0
   12.0286  -15.1647   25.1707 O   0  0  0  0  0  0  0  0  0  0  0  0
  1  2  1  0
  2  3  2  0
  4  5  1  0
  4  2  1  0
  5  6  1  0
  6  7  1  1
  8  6  1  0
  8  9  2  0
 10  8  1  0
 11 10  1  0
 11 12  1  1
 13 14  2  0
 13 12  1  0
 15 14  1  0
 16 17  2  0
 16 15  1  0
 17 13  1  0
 18 11  1  0
 19 18  2  0
 21 20  1  0
 22 21  1  0
 24 23  1  1
 23 22  1  0
 24 25  1  0
 25 18  1  0
 26 24  1  0
 27 26  2  0
 28 26  1  0
M  END
$$$$
