QHM.pdb
     RDKit          3D

 28 28  0  0  1  0  0  0  0  0999 V2000
    7.2142  -14.9005   15.6687 N   0  0  0  0  0  0  0  0  0  0  0  0
    8.0616  -13.7502   15.6024 C   0  0  0  0  0  0  0  0  0  0  0  0
    8.2662  -13.2684   14.4622 O   0  0  0  0  0  0  0  0  0  0  0  0
    8.6186  -13.2270   16.8580 C   0  0  0  0  0  0  0  0  0  0  0  0
    8.1649  -13.9789   18.0727 C   0  0  0  0  0  0  0  0  0  0  0  0
    9.2220  -14.8918   18.5914 C   0  0  2  0  0  0  0  0  0  0  0  0
    9.5398  -15.8295   17.5096 N   0  0  0  0  0  0  0  0  0  0  0  0
    8.7780  -15.6626   19.7834 C   0  0  0  0  0  0  0  0  0  0  0  0
    7.5940  -16.0909   19.9151 O   0  0  0  0  0  0  0  0  0  0  0  0
    9.6915  -15.9345   20.8090 N   0  0  0  0  0  0  0  0  0  0  0  0
    9.4090  -16.7870   21.9444 C   0  0  1  0  0  0  0  0  0  0  0  0
   10.1262  -18.0997   21.8826 C   0  0  0  0  0  0  0  0  0  0  0  0
    9.6053  -19.0083   20.8317 C   0  0  0  0  0  0  0  0  0  0  0  0
    8.4619  -19.7719   20.7873 C   0  0  0  0  0  0  0  0  0  0  0  0
    8.4770  -20.4133   19.6078 N   0  0  0  0  0  0  0  0  0  0  0  0
    9.5595  -20.1018   18.9048 C   0  0  0  0  0  0  0  0  0  0  0  0
   10.2445  -19.2361   19.6708 N   0  0  0  0  0  0  0  0  0  0  0  0
    9.6272  -16.0518   23.2311 C   0  0  0  0  0  0  0  0  0  0  0  0
   10.6490  -15.3445   23.4219 O   0  0  0  0  0  0  0  0  0  0  0  0
    5.9549  -10.8173   26.5208 C   0  0  0  0  0  0  0  0  0  0  0  0
    5.8939  -12.6051   26.1752 S   0  0  0  0  0  0  0  0  0  0  0  0
    7.4882  -13.3515   26.2031 C   0  0  0  0  0  0  0  0  0  0  0  0
    7.6835  -14.7745   25.9810 C   0  0  0  0  0  0  0  0  0  0  0  0
    8.9731  -15.3399   25.5650 C   0  0  2  0  0  0  0  0  0  0  0  0
    8.7056  -16.1121   24.2910 N   0  0  0  0  0  0  0  0  0  0  0  0
    9.4802  -16.4358   26.4683 C   0  0  0  0  0  0  0  0  0  0  0  0
    9.1768  -17.6502   26.1434 O   0  0  0  0  0  0  0  0  0  0  0  0
   10.2179  -16.2978   27.5888 O   0  0  0  0  0  0  0  0  0  0  0  0
  1  2  1  0
  2  3  2  0
  4  5  1  0
  4  2  1  0
  5  6  1  0
  6  7  1  6
  8  6  1  0
  8  9  2  0
 10  8  1  0
 11 10  1  0
 11 12  1  1
 13 14  2  0
 13 12  1  0
 15 14  1  0
 16 17  2  0
 16 15  1  0
 17 13  1  0
 18 11  1  0
 19 18  2  0
 21 20  1  0
 22 21  1  0
 24 23  1  1
 23 22  1  0
 24 25  1  0
 25 18  1  0
 26 24  1  0
 27 26  2  0
 28 26  1  0
M  END
$$$$
