QHM.pdb
     RDKit          3D

 28 28  0  0  1  0  0  0  0  0999 V2000
    7.4923  -12.7960   17.3808 N   0  0  0  0  0  0  0  0  0  0  0  0
    7.9850  -14.0461   16.8905 C   0  0  0  0  0  0  0  0  0  0  0  0
    7.8811  -14.2455   15.6562 O   0  0  0  0  0  0  0  0  0  0  0  0
    8.5689  -14.9873   17.8568 C   0  0  0  0  0  0  0  0  0  0  0  0
    8.5140  -14.5010   19.2736 C   0  0  0  0  0  0  0  0  0  0  0  0
    9.3823  -15.3090   20.1753 C   0  0  2  0  0  0  0  0  0  0  0  0
    9.6578  -16.5702   19.4796 N   0  0  0  0  0  0  0  0  0  0  0  0
    8.7315  -15.6089   21.4787 C   0  0  0  0  0  0  0  0  0  0  0  0
    8.2762  -14.7031   22.2368 O   0  0  0  0  0  0  0  0  0  0  0  0
    8.6089  -16.9387   21.8990 N   0  0  0  0  0  0  0  0  0  0  0  0
    8.1587  -17.3368   23.2161 C   0  0  1  0  0  0  0  0  0  0  0  0
    7.8828  -18.8045   23.3208 C   0  0  0  0  0  0  0  0  0  0  0  0
    7.4338  -19.2260   24.6707 C   0  0  0  0  0  0  0  0  0  0  0  0
    6.3517  -18.8326   25.4235 C   0  0  0  0  0  0  0  0  0  0  0  0
    6.4172  -19.5208   26.5745 N   0  0  0  0  0  0  0  0  0  0  0  0
    7.4739  -20.3245   26.5950 C   0  0  0  0  0  0  0  0  0  0  0  0
    8.0901  -20.1323   25.4165 N   0  0  0  0  0  0  0  0  0  0  0  0
    9.0909  -16.8315   24.2740 C   0  0  0  0  0  0  0  0  0  0  0  0
   10.3294  -16.7446   24.0756 O   0  0  0  0  0  0  0  0  0  0  0  0
    7.4338  -11.8176   28.0902 C   0  0  0  0  0  0  0  0  0  0  0  0
    8.4835  -12.7886   29.2192 S   0  0  0  0  0  0  0  0  0  0  0  0
    9.3865  -14.0480   28.3836 C   0  0  0  0  0  0  0  0  0  0  0  0
    8.8226  -14.8047   27.2783 C   0  0  0  0  0  0  0  0  0  0  0  0
    9.5980  -15.7957   26.5217 C   0  0  2  0  0  0  0  0  0  0  0  0
    8.6342  -16.4284   25.5411 N   0  0  0  0  0  0  0  0  0  0  0  0
   10.0158  -16.9954   27.3343 C   0  0  0  0  0  0  0  0  0  0  0  0
    9.1640  -17.9638   27.4296 O   0  0  0  0  0  0  0  0  0  0  0  0
   11.1837  -17.1785   27.9832 O   0  0  0  0  0  0  0  0  0  0  0  0
  1  2  1  0
  2  3  2  0
  4  5  1  0
  4  2  1  0
  5  6  1  0
  6  7  1  6
  8  6  1  0
  8  9  2  0
 10  8  1  0
 11 10  1  0
 11 12  1  6
 13 14  2  0
 13 12  1  0
 15 14  1  0
 16 17  2  0
 16 15  1  0
 17 13  1  0
 18 11  1  0
 19 18  2  0
 21 20  1  0
 22 21  1  0
 24 23  1  1
 23 22  1  0
 24 25  1  0
 25 18  1  0
 26 24  1  0
 27 26  2  0
 28 26  1  0
M  END
$$$$
