QHM.pdb
     RDKit          3D

 28 28  0  0  1  0  0  0  0  0999 V2000
    8.1771  -11.9145   19.4783 N   0  0  0  0  0  0  0  0  0  0  0  0
    8.0135  -13.1470   18.7712 C   0  0  0  0  0  0  0  0  0  0  0  0
    7.0459  -13.2138   17.9754 O   0  0  0  0  0  0  0  0  0  0  0  0
    8.9795  -14.2253   19.0263 C   0  0  0  0  0  0  0  0  0  0  0  0
    8.8500  -14.8340   20.3899 C   0  0  0  0  0  0  0  0  0  0  0  0
    9.8580  -15.9067   20.6205 C   0  0  2  0  0  0  0  0  0  0  0  0
    9.6523  -16.9131   19.5739 N   0  0  0  0  0  0  0  0  0  0  0  0
    9.7089  -16.5559   21.9503 C   0  0  0  0  0  0  0  0  0  0  0  0
    8.6475  -17.1487   22.3034 O   0  0  0  0  0  0  0  0  0  0  0  0
   10.7732  -16.5198   22.8592 N   0  0  0  0  0  0  0  0  0  0  0  0
   10.7257  -17.0885   24.1896 C   0  0  1  0  0  0  0  0  0  0  0  0
   11.7633  -18.1447   24.4113 C   0  0  0  0  0  0  0  0  0  0  0  0
   11.5023  -19.3961   23.6582 C   0  0  0  0  0  0  0  0  0  0  0  0
   10.4721  -19.7412   22.8144 C   0  0  0  0  0  0  0  0  0  0  0  0
   10.7179  -20.9962   22.4055 N   0  0  0  0  0  0  0  0  0  0  0  0
   11.8398  -21.4649   22.9391 C   0  0  0  0  0  0  0  0  0  0  0  0
   12.3115  -20.4690   23.7078 N   0  0  0  0  0  0  0  0  0  0  0  0
   10.7431  -16.0121   25.2310 C   0  0  0  0  0  0  0  0  0  0  0  0
   11.6781  -15.1742   25.2985 O   0  0  0  0  0  0  0  0  0  0  0  0
    6.3463  -10.9436   25.9065 C   0  0  0  0  0  0  0  0  0  0  0  0
    6.5671  -12.6859   26.3912 S   0  0  0  0  0  0  0  0  0  0  0  0
    8.1829  -13.0139   27.0088 C   0  0  0  0  0  0  0  0  0  0  0  0
    8.5583  -14.3081   27.5532 C   0  0  0  0  0  0  0  0  0  0  0  0
    9.8814  -14.9050   27.3320 C   0  0  2  0  0  0  0  0  0  0  0  0
    9.7196  -15.8801   26.1857 N   0  0  0  0  0  0  0  0  0  0  0  0
   10.3288  -15.8277   28.4378 C   0  0  0  0  0  0  0  0  0  0  0  0
   10.1108  -17.0914   28.2705 O   0  0  0  0  0  0  0  0  0  0  0  0
   10.9327  -15.4870   29.5945 O   0  0  0  0  0  0  0  0  0  0  0  0
  1  2  1  0
  2  3  2  0
  4  5  1  0
  4  2  1  0
  5  6  1  0
  6  7  1  6
  8  6  1  0
  8  9  2  0
 10  8  1  0
 11 10  1  0
 11 12  1  1
 13 14  2  0
 13 12  1  0
 15 14  1  0
 16 17  2  0
 16 15  1  0
 17 13  1  0
 18 11  1  0
 19 18  2  0
 21 20  1  0
 22 21  1  0
 24 23  1  1
 23 22  1  0
 24 25  1  0
 25 18  1  0
 26 24  1  0
 27 26  2  0
 28 26  1  0
M  END
$$$$
