QHM.pdb
     RDKit          3D

 28 28  0  0  1  0  0  0  0  0999 V2000
    4.9559  -20.9535   23.6942 N   0  0  0  0  0  0  0  0  0  0  0  0
    5.9531  -20.3251   24.5046 C   0  0  0  0  0  0  0  0  0  0  0  0
    6.2569  -20.9075   25.5735 O   0  0  0  0  0  0  0  0  0  0  0  0
    6.5384  -19.0637   24.0285 C   0  0  0  0  0  0  0  0  0  0  0  0
    5.8125  -18.4715   22.8584 C   0  0  0  0  0  0  0  0  0  0  0  0
    6.6617  -18.4351   21.6347 C   0  0  2  0  0  0  0  0  0  0  0  0
    7.2340  -19.7760   21.4763 N   0  0  0  0  0  0  0  0  0  0  0  0
    7.7686  -17.4468   21.7355 C   0  0  0  0  0  0  0  0  0  0  0  0
    8.9687  -17.7880   21.9504 O   0  0  0  0  0  0  0  0  0  0  0  0
    7.4910  -16.0823   21.5896 N   0  0  0  0  0  0  0  0  0  0  0  0
    8.4999  -15.0442   21.5770 C   0  0  1  0  0  0  0  0  0  0  0  0
    8.0755  -13.8256   20.8180 C   0  0  0  0  0  0  0  0  0  0  0  0
    8.0503  -14.0246   19.3479 C   0  0  0  0  0  0  0  0  0  0  0  0
    7.6557  -13.1850   18.3322 C   0  0  0  0  0  0  0  0  0  0  0  0
    7.8303  -13.8635   17.1868 N   0  0  0  0  0  0  0  0  0  0  0  0
    8.3109  -15.0798   17.4167 C   0  0  0  0  0  0  0  0  0  0  0  0
    8.4412  -15.1645   18.7513 N   0  0  0  0  0  0  0  0  0  0  0  0
    8.9731  -14.7431   22.9659 C   0  0  0  0  0  0  0  0  0  0  0  0
    9.8863  -13.9071   23.1853 O   0  0  0  0  0  0  0  0  0  0  0  0
    5.9405  -11.5310   26.4964 C   0  0  0  0  0  0  0  0  0  0  0  0
    6.8201  -12.3048   27.8917 S   0  0  0  0  0  0  0  0  0  0  0  0
    7.5954  -13.8203   27.4423 C   0  0  0  0  0  0  0  0  0  0  0  0
    7.6332  -14.2961   26.0695 C   0  0  0  0  0  0  0  0  0  0  0  0
    8.8255  -14.9196   25.4816 C   0  0  2  0  0  0  0  0  0  0  0  0
    8.4246  -15.3757   24.0952 N   0  0  0  0  0  0  0  0  0  0  0  0
    9.2076  -16.2312   26.1203 C   0  0  0  0  0  0  0  0  0  0  0  0
    9.6158  -16.1887   27.3466 O   0  0  0  0  0  0  0  0  0  0  0  0
    9.1768  -17.4561   25.5569 O   0  0  0  0  0  0  0  0  0  0  0  0
  1  2  1  0
  2  3  2  0
  4  5  1  0
  4  2  1  0
  5  6  1  0
  6  7  1  1
  8  6  1  0
  8  9  2  0
 10  8  1  0
 11 10  1  0
 11 12  1  1
 13 14  2  0
 13 12  1  0
 15 14  1  0
 16 17  2  0
 16 15  1  0
 17 13  1  0
 18 11  1  0
 19 18  2  0
 21 20  1  0
 22 21  1  0
 24 23  1  1
 23 22  1  0
 24 25  1  0
 25 18  1  0
 26 24  1  0
 27 26  2  0
 28 26  1  0
M  END
$$$$
