PID.pdb
     RDKit          3D

 24 24  0  0  1  0  0  0  0  0999 V2000
   28.2557  -21.6955  -16.8454 N   0  0  0  0  0  0  0  0  0  0  0  0
   29.0184  -20.8959  -17.8161 C   0  0  0  0  0  0  0  0  0  0  0  0
   28.3461  -19.5395  -17.8720 C   0  0  0  0  0  0  0  0  0  0  0  0
   27.1860  -19.6879  -16.8776 C   0  0  0  0  0  0  0  0  0  0  0  0
   27.8206  -20.6941  -15.9186 C   0  0  1  0  0  0  0  0  0  0  0  0
   26.8988  -21.1593  -14.8948 C   0  0  0  0  0  0  0  0  0  0  0  0
   26.2480  -22.2293  -15.1515 O   0  0  0  0  0  0  0  0  0  0  0  0
   25.2489  -21.0624   -8.9569 C   0  0  0  0  0  0  0  0  0  0  0  0
   24.8953  -21.3596  -10.4050 C   0  0  0  0  0  0  0  0  0  0  0  0
   25.9403  -20.8373  -11.3351 C   0  0  2  0  0  0  0  0  0  0  0  0
   26.3963  -19.4547  -11.0030 C   0  0  0  0  0  0  0  0  0  0  0  0
   25.5558  -21.0388  -12.7775 C   0  0  2  0  0  0  0  0  0  0  0  0
   26.6424  -20.5600  -13.6475 N   0  0  0  0  0  0  0  0  0  0  0  0
   24.2740  -20.4377  -13.1508 C   0  0  0  0  0  0  0  0  0  0  0  0
   24.1254  -19.2121  -13.3682 O   0  0  0  0  0  0  0  0  0  0  0  0
   23.1333  -21.2653  -13.2778 N   0  0  0  0  0  0  0  0  0  0  0  0
   21.8200  -20.7462  -13.7268 C   0  0  1  0  0  0  0  0  0  0  0  0
   21.3470  -21.6749  -14.7991 C   0  0  0  0  0  0  0  0  0  0  0  0
   20.4693  -21.0956  -15.8102 C   0  0  0  0  0  0  0  0  0  0  0  0
   20.1511  -19.9056  -15.8754 O   0  0  0  0  0  0  0  0  0  0  0  0
   20.9155  -20.6513  -12.5757 C   0  0  0  0  0  0  0  0  0  0  0  0
   21.0383  -21.4747  -11.6327 O   0  0  0  0  0  0  0  0  0  0  0  0
   19.9441  -21.9619  -16.7884 O   0  0  0  0  0  0  0  0  0  0  0  0
   19.9344  -19.7000  -12.4759 O   0  0  0  0  0  0  0  0  0  0  0  0
  1  2  1  0
  1  5  1  0
  2  3  1  0
  4  3  1  0
  5  4  1  0
  5  6  1  1
  6 13  1  0
  7  6  2  0
  8  9  1  0
  9 10  1  0
 10 11  1  6
 10 12  1  0
 12 13  1  6
 14 12  1  0
 14 16  1  0
 15 14  2  0
 17 16  1  0
 17 21  1  0
 17 18  1  6
 19 18  1  0
 20 19  2  0
 21 22  2  0
 21 24  1  0
 23 19  1  0
M  END
$$$$
