PID.pdb
     RDKit          3D

 24 24  0  0  1  0  0  0  0  0999 V2000
   20.9645  -11.4437  -19.0890 N   0  0  0  0  0  0  0  0  0  0  0  0
   20.5493  -12.5020  -20.0222 C   0  0  0  0  0  0  0  0  0  0  0  0
   19.2824  -13.1026  -19.4483 C   0  0  0  0  0  0  0  0  0  0  0  0
   19.0714  -12.2964  -18.1591 C   0  0  0  0  0  0  0  0  0  0  0  0
   19.7035  -10.9759  -18.5968 C   0  0  1  0  0  0  0  0  0  0  0  0
   19.7840  -10.0025  -17.5197 C   0  0  0  0  0  0  0  0  0  0  0  0
   18.6799   -9.4992  -17.1170 O   0  0  0  0  0  0  0  0  0  0  0  0
   23.4797  -10.7219  -13.9057 C   0  0  0  0  0  0  0  0  0  0  0  0
   22.1099  -10.3756  -14.4659 C   0  0  0  0  0  0  0  0  0  0  0  0
   22.0029   -8.9177  -14.7706 C   0  0  2  0  0  0  0  0  0  0  0  0
   22.0242   -8.0517  -13.5543 C   0  0  0  0  0  0  0  0  0  0  0  0
   20.8737   -8.6275  -15.7245 C   0  0  2  0  0  0  0  0  0  0  0  0
   20.9470   -9.5508  -16.8686 N   0  0  0  0  0  0  0  0  0  0  0  0
   20.8028   -7.2349  -16.1709 C   0  0  0  0  0  0  0  0  0  0  0  0
   21.5994   -6.7362  -17.0004 O   0  0  0  0  0  0  0  0  0  0  0  0
   19.7910   -6.3932  -15.6514 N   0  0  0  0  0  0  0  0  0  0  0  0
   19.5873   -5.0056  -16.1300 C   0  0  1  0  0  0  0  0  0  0  0  0
   19.0268   -5.1172  -17.5118 C   0  0  0  0  0  0  0  0  0  0  0  0
   19.1621   -3.9364  -18.3578 C   0  0  0  0  0  0  0  0  0  0  0  0
   19.6526   -2.8618  -18.0024 O   0  0  0  0  0  0  0  0  0  0  0  0
   18.7197   -4.2892  -15.1886 C   0  0  0  0  0  0  0  0  0  0  0  0
   18.5298   -3.0561  -15.3498 O   0  0  0  0  0  0  0  0  0  0  0  0
   18.6968   -4.0300  -19.6837 O   0  0  0  0  0  0  0  0  0  0  0  0
   18.0993   -4.9033  -14.1325 O   0  0  0  0  0  0  0  0  0  0  0  0
  1  2  1  0
  1  5  1  0
  2  3  1  0
  4  3  1  0
  5  4  1  0
  5  6  1  1
  6 13  1  0
  7  6  2  0
  8  9  1  0
  9 10  1  0
 10 11  1  1
 10 12  1  0
 12 13  1  6
 14 12  1  0
 14 16  1  0
 15 14  2  0
 17 16  1  0
 17 21  1  0
 17 18  1  6
 19 18  1  0
 20 19  2  0
 21 22  2  0
 21 24  1  0
 23 19  1  0
M  END
$$$$
