PID.pdb
     RDKit          3D

 24 24  0  0  1  0  0  0  0  0999 V2000
   21.9890  -11.6541  -19.5929 N   0  0  0  0  0  0  0  0  0  0  0  0
   21.7142  -12.6462  -20.6435 C   0  0  0  0  0  0  0  0  0  0  0  0
   20.5044  -13.4319  -20.1810 C   0  0  0  0  0  0  0  0  0  0  0  0
   20.1745  -12.7916  -18.8253 C   0  0  0  0  0  0  0  0  0  0  0  0
   20.6728  -11.3740  -19.1030 C   0  0  1  0  0  0  0  0  0  0  0  0
   20.6201  -10.5157  -17.9306 C   0  0  0  0  0  0  0  0  0  0  0  0
   19.4581  -10.1828  -17.5145 O   0  0  0  0  0  0  0  0  0  0  0  0
   23.8433  -11.3237  -13.9408 C   0  0  0  0  0  0  0  0  0  0  0  0
   22.5986  -10.9570  -14.7323 C   0  0  0  0  0  0  0  0  0  0  0  0
   22.5212   -9.4844  -14.9669 C   0  0  2  0  0  0  0  0  0  0  0  0
   22.3967   -8.6866  -13.7108 C   0  0  0  0  0  0  0  0  0  0  0  0
   21.5095   -9.1400  -16.0286 C   0  0  2  0  0  0  0  0  0  0  0  0
   21.7108  -10.0087  -17.1998 N   0  0  0  0  0  0  0  0  0  0  0  0
   21.4941   -7.7273  -16.4129 C   0  0  0  0  0  0  0  0  0  0  0  0
   22.2553   -7.2418  -17.2825 O   0  0  0  0  0  0  0  0  0  0  0  0
   20.5810   -6.8494  -15.7824 N   0  0  0  0  0  0  0  0  0  0  0  0
   20.3285   -5.4752  -16.2764 C   0  0  1  0  0  0  0  0  0  0  0  0
   19.8950   -5.6152  -17.7006 C   0  0  0  0  0  0  0  0  0  0  0  0
   19.4446   -4.3936  -18.3586 C   0  0  0  0  0  0  0  0  0  0  0  0
   19.9020   -3.2668  -18.1519 O   0  0  0  0  0  0  0  0  0  0  0  0
   19.3399   -4.8218  -15.4116 C   0  0  0  0  0  0  0  0  0  0  0  0
   18.4131   -5.5114  -14.9136 O   0  0  0  0  0  0  0  0  0  0  0  0
   18.4069   -4.5090  -19.3036 O   0  0  0  0  0  0  0  0  0  0  0  0
   19.3772   -3.4844  -15.1161 O   0  0  0  0  0  0  0  0  0  0  0  0
  1  2  1  0
  1  5  1  0
  2  3  1  0
  4  3  1  0
  5  4  1  0
  5  6  1  1
  6 13  1  0
  7  6  2  0
  8  9  1  0
  9 10  1  0
 10 11  1  1
 10 12  1  0
 12 13  1  6
 14 12  1  0
 14 16  1  0
 15 14  2  0
 17 16  1  0
 17 21  1  0
 17 18  1  6
 19 18  1  0
 20 19  2  0
 21 22  2  0
 21 24  1  0
 23 19  1  0
M  END
$$$$
