PID.pdb
     RDKit          3D

 24 24  0  0  1  0  0  0  0  0999 V2000
   30.6643  -30.4389  -17.9169 N   0  0  0  0  0  0  0  0  0  0  0  0
   31.3957  -30.2372  -19.1769 C   0  0  0  0  0  0  0  0  0  0  0  0
   32.0403  -31.5665  -19.5123 C   0  0  0  0  0  0  0  0  0  0  0  0
   31.6043  -32.4654  -18.3468 C   0  0  0  0  0  0  0  0  0  0  0  0
   30.2620  -31.8089  -18.0277 C   0  0  1  0  0  0  0  0  0  0  0  0
   29.6278  -32.3639  -16.8428 C   0  0  0  0  0  0  0  0  0  0  0  0
   30.2301  -32.1809  -15.7302 O   0  0  0  0  0  0  0  0  0  0  0  0
   25.5588  -30.6296  -15.1042 C   0  0  0  0  0  0  0  0  0  0  0  0
   26.8623  -31.4045  -14.9992 C   0  0  0  0  0  0  0  0  0  0  0  0
   26.6324  -32.8724  -15.1477 C   0  0  2  0  0  0  0  0  0  0  0  0
   25.8730  -33.4746  -14.0117 C   0  0  0  0  0  0  0  0  0  0  0  0
   27.8992  -33.6027  -15.5093 C   0  0  2  0  0  0  0  0  0  0  0  0
   28.4194  -33.0830  -16.7845 N   0  0  0  0  0  0  0  0  0  0  0  0
   27.7669  -35.0604  -15.5455 C   0  0  0  0  0  0  0  0  0  0  0  0
   27.1243  -35.6718  -16.4312 O   0  0  0  0  0  0  0  0  0  0  0  0
   28.3887  -35.8361  -14.5386 N   0  0  0  0  0  0  0  0  0  0  0  0
   28.2383  -37.3083  -14.4621 C   0  0  1  0  0  0  0  0  0  0  0  0
   29.2937  -37.7887  -13.5180 C   0  0  0  0  0  0  0  0  0  0  0  0
   29.3500  -39.2293  -13.2956 C   0  0  0  0  0  0  0  0  0  0  0  0
   28.5878  -40.0556  -13.8036 O   0  0  0  0  0  0  0  0  0  0  0  0
   26.8700  -37.6361  -14.0466 C   0  0  0  0  0  0  0  0  0  0  0  0
   26.2718  -38.5883  -14.6105 O   0  0  0  0  0  0  0  0  0  0  0  0
   30.3524  -39.7154  -12.4341 O   0  0  0  0  0  0  0  0  0  0  0  0
   26.2054  -36.9500  -13.0643 O   0  0  0  0  0  0  0  0  0  0  0  0
  1  2  1  0
  1  5  1  0
  2  3  1  0
  4  3  1  0
  5  4  1  0
  5  6  1  1
  6 13  1  0
  7  6  2  0
  8  9  1  0
  9 10  1  0
 10 11  1  1
 10 12  1  0
 12 13  1  6
 14 12  1  0
 14 16  1  0
 15 14  2  0
 17 16  1  0
 17 21  1  0
 17 18  1  1
 19 18  1  0
 20 19  2  0
 21 22  2  0
 21 24  1  0
 23 19  1  0
M  END
$$$$
