PID.pdb
     RDKit          3D

 24 24  0  0  1  0  0  0  0  0999 V2000
   28.1826  -19.8954  -16.0334 N   0  0  0  0  0  0  0  0  0  0  0  0
   28.9023  -18.7850  -16.6756 C   0  0  0  0  0  0  0  0  0  0  0  0
   28.1181  -17.5286  -16.3568 C   0  0  0  0  0  0  0  0  0  0  0  0
   26.9462  -18.0567  -15.5176 C   0  0  0  0  0  0  0  0  0  0  0  0
   27.6360  -19.2582  -14.8731 C   0  0  1  0  0  0  0  0  0  0  0  0
   26.7276  -20.0787  -14.0885 C   0  0  0  0  0  0  0  0  0  0  0  0
   26.2938  -21.1459  -14.6426 O   0  0  0  0  0  0  0  0  0  0  0  0
   26.6490  -20.5055   -8.6966 C   0  0  0  0  0  0  0  0  0  0  0  0
   26.4816  -20.9425  -10.1427 C   0  0  0  0  0  0  0  0  0  0  0  0
   25.1809  -20.4700  -10.7036 C   0  0  2  0  0  0  0  0  0  0  0  0
   23.9894  -21.0455  -10.0116 C   0  0  0  0  0  0  0  0  0  0  0  0
   25.1460  -20.5823  -12.2053 C   0  0  2  0  0  0  0  0  0  0  0  0
   26.2711  -19.8275  -12.7811 N   0  0  0  0  0  0  0  0  0  0  0  0
   23.8745  -20.1833  -12.8116 C   0  0  0  0  0  0  0  0  0  0  0  0
   23.4620  -18.9997  -12.8307 O   0  0  0  0  0  0  0  0  0  0  0  0
   23.0555  -21.1689  -13.4117 N   0  0  0  0  0  0  0  0  0  0  0  0
   21.7550  -20.8451  -14.0440 C   0  0  1  0  0  0  0  0  0  0  0  0
   21.5973  -21.7953  -15.1878 C   0  0  0  0  0  0  0  0  0  0  0  0
   20.3527  -21.6929  -15.9419 C   0  0  0  0  0  0  0  0  0  0  0  0
   19.4765  -20.8455  -15.7525 O   0  0  0  0  0  0  0  0  0  0  0  0
   20.6899  -20.9365  -13.0393 C   0  0  0  0  0  0  0  0  0  0  0  0
   20.7434  -21.8473  -12.1732 O   0  0  0  0  0  0  0  0  0  0  0  0
   20.1338  -22.6345  -16.9660 O   0  0  0  0  0  0  0  0  0  0  0  0
   19.6298  -20.0694  -12.9968 O   0  0  0  0  0  0  0  0  0  0  0  0
  1  2  1  0
  1  5  1  0
  2  3  1  0
  4  3  1  0
  5  4  1  0
  5  6  1  6
  6 13  1  0
  7  6  2  0
  8  9  1  0
  9 10  1  0
 10 11  1  1
 10 12  1  0
 12 13  1  6
 14 12  1  0
 14 16  1  0
 15 14  2  0
 17 16  1  0
 17 21  1  0
 17 18  1  6
 19 18  1  0
 20 19  2  0
 21 22  2  0
 21 24  1  0
 23 19  1  0
M  END
$$$$
