PID.pdb
     RDKit          3D

 24 24  0  0  1  0  0  0  0  0999 V2000
   25.6742  -12.0560  -16.6227 N   0  0  0  0  0  0  0  0  0  0  0  0
   27.0145  -12.4967  -16.2070 C   0  0  0  0  0  0  0  0  0  0  0  0
   27.7549  -11.2505  -15.7666 C   0  0  0  0  0  0  0  0  0  0  0  0
   26.7198  -10.1383  -15.9862 C   0  0  0  0  0  0  0  0  0  0  0  0
   25.4456  -10.9468  -15.7459 C   0  0  1  0  0  0  0  0  0  0  0  0
   24.2347  -10.1878  -16.0135 C   0  0  0  0  0  0  0  0  0  0  0  0
   23.9455   -9.9824  -17.2417 O   0  0  0  0  0  0  0  0  0  0  0  0
   19.3295   -9.5311  -17.2163 C   0  0  0  0  0  0  0  0  0  0  0  0
   19.6658   -9.2052  -15.7702 C   0  0  0  0  0  0  0  0  0  0  0  0
   20.9353   -9.8679  -15.3476 C   0  0  2  0  0  0  0  0  0  0  0  0
   20.8359  -10.5593  -14.0278 C   0  0  0  0  0  0  0  0  0  0  0  0
   22.1189   -8.9459  -15.4823 C   0  0  2  0  0  0  0  0  0  0  0  0
   23.3419   -9.6519  -15.0667 N   0  0  0  0  0  0  0  0  0  0  0  0
   21.9759   -7.6720  -14.7749 C   0  0  0  0  0  0  0  0  0  0  0  0
   22.1379   -7.5492  -13.5380 O   0  0  0  0  0  0  0  0  0  0  0  0
   21.6384   -6.5091  -15.5069 N   0  0  0  0  0  0  0  0  0  0  0  0
   21.4589   -5.1872  -14.8615 C   0  0  1  0  0  0  0  0  0  0  0  0
   22.1849   -4.2005  -15.7190 C   0  0  0  0  0  0  0  0  0  0  0  0
   22.1070   -2.8052  -15.3005 C   0  0  0  0  0  0  0  0  0  0  0  0
   21.5379   -2.4005  -14.2836 O   0  0  0  0  0  0  0  0  0  0  0  0
   20.0261   -4.9098  -14.7122 C   0  0  0  0  0  0  0  0  0  0  0  0
   19.2507   -5.1692  -15.6681 O   0  0  0  0  0  0  0  0  0  0  0  0
   22.7299   -1.8447  -16.1208 O   0  0  0  0  0  0  0  0  0  0  0  0
   19.4856   -4.3776  -13.5711 O   0  0  0  0  0  0  0  0  0  0  0  0
  1  2  1  0
  1  5  1  0
  2  3  1  0
  4  3  1  0
  5  4  1  0
  5  6  1  6
  6 13  1  0
  7  6  2  0
  8  9  1  0
  9 10  1  0
 10 11  1  1
 10 12  1  0
 12 13  1  1
 14 12  1  0
 14 16  1  0
 15 14  2  0
 17 16  1  0
 17 21  1  0
 17 18  1  6
 19 18  1  0
 20 19  2  0
 21 22  2  0
 21 24  1  0
 23 19  1  0
M  END
$$$$
