PID.pdb
     RDKit          3D

 24 24  0  0  1  0  0  0  0  0999 V2000
   15.8304  -12.1905  -12.6251 N   0  0  0  0  0  0  0  0  0  0  0  0
   15.6526  -13.4466  -13.3694 C   0  0  0  0  0  0  0  0  0  0  0  0
   14.1790  -13.5350  -13.7094 C   0  0  0  0  0  0  0  0  0  0  0  0
   13.6043  -12.2532  -13.0903 C   0  0  0  0  0  0  0  0  0  0  0  0
   14.8325  -11.3534  -13.2206 C   0  0  1  0  0  0  0  0  0  0  0  0
   14.6547  -10.0575  -12.5858 C   0  0  0  0  0  0  0  0  0  0  0  0
   13.8296   -9.2544  -13.1413 O   0  0  0  0  0  0  0  0  0  0  0  0
   13.2619   -9.0676   -7.6475 C   0  0  0  0  0  0  0  0  0  0  0  0
   13.4938   -8.9580   -9.1457 C   0  0  0  0  0  0  0  0  0  0  0  0
   14.7832   -8.2668   -9.4444 C   0  0  2  0  0  0  0  0  0  0  0  0
   14.9325   -6.9558   -8.7452 C   0  0  0  0  0  0  0  0  0  0  0  0
   15.0634   -8.2213  -10.9237 C   0  0  2  0  0  0  0  0  0  0  0  0
   15.2926   -9.5870  -11.4229 N   0  0  0  0  0  0  0  0  0  0  0  0
   16.1587   -7.3272  -11.3040 C   0  0  0  0  0  0  0  0  0  0  0  0
   17.3595   -7.5507  -11.0223 O   0  0  0  0  0  0  0  0  0  0  0  0
   15.8675   -6.1460  -12.0265 N   0  0  0  0  0  0  0  0  0  0  0  0
   16.9198   -5.1914  -12.4477 C   0  0  1  0  0  0  0  0  0  0  0  0
   17.3559   -5.6235  -13.8111 C   0  0  0  0  0  0  0  0  0  0  0  0
   18.3582   -4.7862  -14.4611 C   0  0  0  0  0  0  0  0  0  0  0  0
   18.1192   -3.7509  -15.0877 O   0  0  0  0  0  0  0  0  0  0  0  0
   16.3865   -3.8257  -12.3951 C   0  0  0  0  0  0  0  0  0  0  0  0
   15.1643   -3.6378  -12.6262 O   0  0  0  0  0  0  0  0  0  0  0  0
   19.7038   -5.1907  -14.3660 O   0  0  0  0  0  0  0  0  0  0  0  0
   17.1616   -2.7343  -12.1029 O   0  0  0  0  0  0  0  0  0  0  0  0
  1  2  1  0
  1  5  1  0
  2  3  1  0
  4  3  1  0
  5  4  1  0
  5  6  1  1
  6 13  1  0
  7  6  2  0
  8  9  1  0
  9 10  1  0
 10 11  1  6
 10 12  1  0
 12 13  1  1
 14 12  1  0
 14 16  1  0
 15 14  2  0
 17 16  1  0
 17 21  1  0
 17 18  1  6
 19 18  1  0
 20 19  2  0
 21 22  2  0
 21 24  1  0
 23 19  1  0
M  END
$$$$
