PID.pdb
     RDKit          3D

 24 24  0  0  1  0  0  0  0  0999 V2000
   24.3025  -13.5200  -15.4059 N   0  0  0  0  0  0  0  0  0  0  0  0
   25.4225  -14.4454  -15.6351 C   0  0  0  0  0  0  0  0  0  0  0  0
   25.6412  -14.4861  -17.1336 C   0  0  0  0  0  0  0  0  0  0  0  0
   24.5628  -13.5320  -17.6659 C   0  0  0  0  0  0  0  0  0  0  0  0
   24.4754  -12.5809  -16.4733 C   0  0  1  0  0  0  0  0  0  0  0  0
   23.4121  -11.5985  -16.6095 C   0  0  0  0  0  0  0  0  0  0  0  0
   23.5890  -10.6778  -17.4785 O   0  0  0  0  0  0  0  0  0  0  0  0
   19.2740  -13.4577  -17.2901 C   0  0  0  0  0  0  0  0  0  0  0  0
   19.7759  -12.0541  -17.5873 C   0  0  0  0  0  0  0  0  0  0  0  0
   19.8374  -11.2274  -16.3454 C   0  0  2  0  0  0  0  0  0  0  0  0
   18.6585  -10.3280  -16.1693 C   0  0  0  0  0  0  0  0  0  0  0  0
   21.1719  -10.5453  -16.1935 C   0  0  2  0  0  0  0  0  0  0  0  0
   22.2048  -11.5485  -15.8879 N   0  0  0  0  0  0  0  0  0  0  0  0
   21.1856   -9.4556  -15.2158 C   0  0  0  0  0  0  0  0  0  0  0  0
   21.0534   -9.6354  -13.9823 O   0  0  0  0  0  0  0  0  0  0  0  0
   21.3556   -8.1250  -15.6661 N   0  0  0  0  0  0  0  0  0  0  0  0
   21.4108   -6.9718  -14.7371 C   0  0  1  0  0  0  0  0  0  0  0  0
   22.2775   -5.9457  -15.3944 C   0  0  0  0  0  0  0  0  0  0  0  0
   22.3828   -4.6606  -14.7120 C   0  0  0  0  0  0  0  0  0  0  0  0
   21.8244   -4.3737  -13.6501 O   0  0  0  0  0  0  0  0  0  0  0  0
   20.0474   -6.5104  -14.4535 C   0  0  0  0  0  0  0  0  0  0  0  0
   19.6167   -6.5660  -13.2729 O   0  0  0  0  0  0  0  0  0  0  0  0
   23.1842   -3.6700  -15.3117 O   0  0  0  0  0  0  0  0  0  0  0  0
   19.2123   -6.0160  -15.4207 O   0  0  0  0  0  0  0  0  0  0  0  0
  1  2  1  0
  1  5  1  0
  2  3  1  0
  4  3  1  0
  5  4  1  0
  5  6  1  6
  6 13  1  0
  7  6  2  0
  8  9  1  0
  9 10  1  0
 10 11  1  6
 10 12  1  0
 12 13  1  1
 14 12  1  0
 14 16  1  0
 15 14  2  0
 17 16  1  0
 17 21  1  0
 17 18  1  6
 19 18  1  0
 20 19  2  0
 21 22  2  0
 21 24  1  0
 23 19  1  0
M  END
$$$$
