PID.pdb
     RDKit          3D

 24 24  0  0  1  0  0  0  0  0999 V2000
   18.7482  -10.8445  -18.1553 N   0  0  0  0  0  0  0  0  0  0  0  0
   17.7195  -11.7248  -18.7300 C   0  0  0  0  0  0  0  0  0  0  0  0
   17.2974  -12.6667  -17.6211 C   0  0  0  0  0  0  0  0  0  0  0  0
   18.1743  -12.2255  -16.4409 C   0  0  0  0  0  0  0  0  0  0  0  0
   18.3207  -10.7456  -16.7920 C   0  0  1  0  0  0  0  0  0  0  0  0
   19.2355  -10.0418  -15.9077 C   0  0  0  0  0  0  0  0  0  0  0  0
   18.8408   -9.8517  -14.7067 O   0  0  0  0  0  0  0  0  0  0  0  0
   23.9534  -11.6146  -14.8877 C   0  0  0  0  0  0  0  0  0  0  0  0
   22.5813  -10.9609  -14.9110 C   0  0  0  0  0  0  0  0  0  0  0  0
   22.6872   -9.4891  -15.1399 C   0  0  2  0  0  0  0  0  0  0  0  0
   23.6404   -8.8091  -14.2132 C   0  0  0  0  0  0  0  0  0  0  0  0
   21.3315   -8.8385  -15.2297 C   0  0  2  0  0  0  0  0  0  0  0  0
   20.5125   -9.5447  -16.2284 N   0  0  0  0  0  0  0  0  0  0  0  0
   21.3686   -7.3994  -15.4963 C   0  0  0  0  0  0  0  0  0  0  0  0
   21.8820   -6.9028  -16.5264 O   0  0  0  0  0  0  0  0  0  0  0  0
   20.8012   -6.5074  -14.5558 N   0  0  0  0  0  0  0  0  0  0  0  0
   20.8183   -5.0374  -14.7430 C   0  0  1  0  0  0  0  0  0  0  0  0
   19.4416   -4.5571  -14.4116 C   0  0  0  0  0  0  0  0  0  0  0  0
   19.2484   -3.1111  -14.4093 C   0  0  0  0  0  0  0  0  0  0  0  0
   20.0863   -2.2831  -14.7754 O   0  0  0  0  0  0  0  0  0  0  0  0
   21.8730   -4.4532  -13.9072 C   0  0  0  0  0  0  0  0  0  0  0  0
   22.1504   -3.2332  -14.0376 O   0  0  0  0  0  0  0  0  0  0  0  0
   18.0089   -2.6216  -13.9538 O   0  0  0  0  0  0  0  0  0  0  0  0
   22.5771   -5.1781  -12.9819 O   0  0  0  0  0  0  0  0  0  0  0  0
  1  2  1  0
  1  5  1  0
  2  3  1  0
  4  3  1  0
  5  4  1  0
  5  6  1  1
  6 13  1  0
  7  6  2  0
  8  9  1  0
  9 10  1  0
 10 11  1  1
 10 12  1  0
 12 13  1  6
 14 12  1  0
 14 16  1  0
 15 14  2  0
 17 16  1  0
 17 21  1  0
 17 18  1  1
 19 18  1  0
 20 19  2  0
 21 22  2  0
 21 24  1  0
 23 19  1  0
M  END
$$$$
