PID.pdb
     RDKit          3D

 24 24  0  0  1  0  0  0  0  0999 V2000
   27.8651  -20.1105  -16.1441 N   0  0  0  0  0  0  0  0  0  0  0  0
   28.9305  -20.2617  -17.1469 C   0  0  0  0  0  0  0  0  0  0  0  0
   29.5355  -21.6322  -16.9217 C   0  0  0  0  0  0  0  0  0  0  0  0
   28.7241  -22.1776  -15.7382 C   0  0  0  0  0  0  0  0  0  0  0  0
   27.4022  -21.4584  -16.0030 C   0  0  1  0  0  0  0  0  0  0  0  0
   26.4229  -21.6677  -14.9489 C   0  0  0  0  0  0  0  0  0  0  0  0
   25.8418  -22.8060  -14.9227 O   0  0  0  0  0  0  0  0  0  0  0  0
   25.4109  -20.9148   -9.0747 C   0  0  0  0  0  0  0  0  0  0  0  0
   24.7757  -21.1928  -10.4273 C   0  0  0  0  0  0  0  0  0  0  0  0
   25.7169  -20.8756  -11.5423 C   0  0  2  0  0  0  0  0  0  0  0  0
   26.3756  -19.5425  -11.4051 C   0  0  0  0  0  0  0  0  0  0  0  0
   25.0925  -21.1282  -12.8897 C   0  0  2  0  0  0  0  0  0  0  0  0
   26.0421  -20.7524  -13.9499 N   0  0  0  0  0  0  0  0  0  0  0  0
   23.7950  -20.4787  -13.0857 C   0  0  0  0  0  0  0  0  0  0  0  0
   23.6332  -19.2364  -13.0419 O   0  0  0  0  0  0  0  0  0  0  0  0
   22.6540  -21.2763  -13.3385 N   0  0  0  0  0  0  0  0  0  0  0  0
   21.3044  -20.6954  -13.5314 C   0  0  1  0  0  0  0  0  0  0  0  0
   20.5466  -21.6683  -14.3771 C   0  0  0  0  0  0  0  0  0  0  0  0
   20.9914  -21.8006  -15.7602 C   0  0  0  0  0  0  0  0  0  0  0  0
   21.7097  -20.9928  -16.3544 O   0  0  0  0  0  0  0  0  0  0  0  0
   20.6941  -20.4387  -12.2222 C   0  0  0  0  0  0  0  0  0  0  0  0
   19.9868  -19.4097  -12.0691 O   0  0  0  0  0  0  0  0  0  0  0  0
   20.5682  -22.9390  -16.4730 O   0  0  0  0  0  0  0  0  0  0  0  0
   20.8574  -21.2733  -11.1479 O   0  0  0  0  0  0  0  0  0  0  0  0
  1  2  1  0
  1  5  1  0
  2  3  1  0
  4  3  1  0
  5  4  1  0
  5  6  1  1
  6 13  1  0
  7  6  2  0
  8  9  1  0
  9 10  1  0
 10 11  1  6
 10 12  1  0
 12 13  1  6
 14 12  1  0
 14 16  1  0
 15 14  2  0
 17 16  1  0
 17 21  1  0
 17 18  1  6
 19 18  1  0
 20 19  2  0
 21 22  2  0
 21 24  1  0
 23 19  1  0
M  END
$$$$
