PID.pdb
     RDKit          3D

 24 24  0  0  1  0  0  0  0  0999 V2000
   19.2398   -9.7364  -18.6674 N   0  0  0  0  0  0  0  0  0  0  0  0
   18.3540  -10.1121  -19.7799 C   0  0  0  0  0  0  0  0  0  0  0  0
   17.4676  -11.2256  -19.2609 C   0  0  0  0  0  0  0  0  0  0  0  0
   17.9529  -11.4080  -17.8159 C   0  0  0  0  0  0  0  0  0  0  0  0
   18.4009   -9.9751  -17.5316 C   0  0  1  0  0  0  0  0  0  0  0  0
   19.0543   -9.8320  -16.2405 C   0  0  0  0  0  0  0  0  0  0  0  0
   18.3292  -10.0252  -15.2055 O   0  0  0  0  0  0  0  0  0  0  0  0
   23.6194  -12.0561  -15.5722 C   0  0  0  0  0  0  0  0  0  0  0  0
   22.2313  -11.5294  -15.2464 C   0  0  0  0  0  0  0  0  0  0  0  0
   22.2989  -10.1694  -14.6336 C   0  0  2  0  0  0  0  0  0  0  0  0
   23.0013  -10.1437  -13.3161 C   0  0  0  0  0  0  0  0  0  0  0  0
   20.9562   -9.4865  -14.6392 C   0  0  2  0  0  0  0  0  0  0  0  0
   20.4019   -9.5032  -16.0028 N   0  0  0  0  0  0  0  0  0  0  0  0
   20.9659   -8.1303  -14.0875 C   0  0  0  0  0  0  0  0  0  0  0  0
   21.1846   -7.8801  -12.8788 O   0  0  0  0  0  0  0  0  0  0  0  0
   20.7182   -7.0331  -14.9459 N   0  0  0  0  0  0  0  0  0  0  0  0
   20.7291   -5.6306  -14.4676 C   0  0  1  0  0  0  0  0  0  0  0  0
   22.0060   -5.0295  -14.9620 C   0  0  0  0  0  0  0  0  0  0  0  0
   22.2081   -3.6155  -14.6653 C   0  0  0  0  0  0  0  0  0  0  0  0
   22.2066   -2.7083  -15.5012 O   0  0  0  0  0  0  0  0  0  0  0  0
   19.5220   -4.9455  -14.9427 C   0  0  0  0  0  0  0  0  0  0  0  0
   19.3383   -3.7418  -14.6268 O   0  0  0  0  0  0  0  0  0  0  0  0
   22.4215   -3.2576  -13.3201 O   0  0  0  0  0  0  0  0  0  0  0  0
   18.5762   -5.5581  -15.7222 O   0  0  0  0  0  0  0  0  0  0  0  0
  1  2  1  0
  1  5  1  0
  2  3  1  0
  4  3  1  0
  5  4  1  0
  5  6  1  1
  6 13  1  0
  7  6  2  0
  8  9  1  0
  9 10  1  0
 10 11  1  1
 10 12  1  0
 12 13  1  6
 14 12  1  0
 14 16  1  0
 15 14  2  0
 17 16  1  0
 17 21  1  0
 17 18  1  6
 19 18  1  0
 20 19  2  0
 21 22  2  0
 21 24  1  0
 23 19  1  0
M  END
$$$$
