PID.pdb
     RDKit          3D

 24 24  0  0  1  0  0  0  0  0999 V2000
   19.7226  -11.5555  -19.0632 N   0  0  0  0  0  0  0  0  0  0  0  0
   18.7445  -12.3578  -19.8135 C   0  0  0  0  0  0  0  0  0  0  0  0
   17.8684  -13.0361  -18.7804 C   0  0  0  0  0  0  0  0  0  0  0  0
   18.4565  -12.5423  -17.4512 C   0  0  0  0  0  0  0  0  0  0  0  0
   18.9658  -11.1761  -17.9081 C   0  0  1  0  0  0  0  0  0  0  0  0
   19.7192  -10.4794  -16.8779 C   0  0  0  0  0  0  0  0  0  0  0  0
   19.0599  -10.0708  -15.8617 O   0  0  0  0  0  0  0  0  0  0  0  0
   24.1328  -12.3841  -15.0830 C   0  0  0  0  0  0  0  0  0  0  0  0
   22.8080  -11.6670  -15.2857 C   0  0  0  0  0  0  0  0  0  0  0  0
   22.9988  -10.1877  -15.3558 C   0  0  2  0  0  0  0  0  0  0  0  0
   23.6698   -9.6156  -14.1507 C   0  0  0  0  0  0  0  0  0  0  0  0
   21.7327   -9.4795  -15.7612 C   0  0  2  0  0  0  0  0  0  0  0  0
   21.0993  -10.2038  -16.8753 N   0  0  0  0  0  0  0  0  0  0  0  0
   21.9097   -8.0622  -16.0830 C   0  0  0  0  0  0  0  0  0  0  0  0
   22.1301   -7.6416  -17.2431 O   0  0  0  0  0  0  0  0  0  0  0  0
   21.8316   -7.1029  -15.0457 N   0  0  0  0  0  0  0  0  0  0  0  0
   21.8555   -5.6446  -15.3075 C   0  0  1  0  0  0  0  0  0  0  0  0
   20.7133   -5.3662  -16.2316 C   0  0  0  0  0  0  0  0  0  0  0  0
   20.4481   -3.9612  -16.5210 C   0  0  0  0  0  0  0  0  0  0  0  0
   21.2956   -3.1380  -16.8757 O   0  0  0  0  0  0  0  0  0  0  0  0
   21.7843   -4.9208  -14.0335 C   0  0  0  0  0  0  0  0  0  0  0  0
   21.8110   -3.6631  -14.0429 O   0  0  0  0  0  0  0  0  0  0  0  0
   19.1215   -3.5086  -16.3850 O   0  0  0  0  0  0  0  0  0  0  0  0
   21.6883   -5.5534  -12.8219 O   0  0  0  0  0  0  0  0  0  0  0  0
  1  2  1  0
  1  5  1  0
  2  3  1  0
  4  3  1  0
  5  4  1  0
  5  6  1  1
  6 13  1  0
  7  6  2  0
  8  9  1  0
  9 10  1  0
 10 11  1  1
 10 12  1  0
 12 13  1  6
 14 12  1  0
 14 16  1  0
 15 14  2  0
 17 16  1  0
 17 21  1  0
 17 18  1  6
 19 18  1  0
 20 19  2  0
 21 22  2  0
 21 24  1  0
 23 19  1  0
M  END
$$$$
