PID.pdb
     RDKit          3D

 24 24  0  0  1  0  0  0  0  0999 V2000
   27.5938  -19.4194  -15.2541 N   0  0  0  0  0  0  0  0  0  0  0  0
   28.8218  -19.4275  -16.0635 C   0  0  0  0  0  0  0  0  0  0  0  0
   29.4715  -20.7773  -15.8379 C   0  0  0  0  0  0  0  0  0  0  0  0
   28.5097  -21.4638  -14.8580 C   0  0  0  0  0  0  0  0  0  0  0  0
   27.2063  -20.7975  -15.2960 C   0  0  1  0  0  0  0  0  0  0  0  0
   26.0786  -21.1477  -14.4476 C   0  0  0  0  0  0  0  0  0  0  0  0
   25.5569  -22.3000  -14.6328 O   0  0  0  0  0  0  0  0  0  0  0  0
   26.3234  -20.6790   -9.3778 C   0  0  0  0  0  0  0  0  0  0  0  0
   25.9169  -21.1921  -10.7496 C   0  0  0  0  0  0  0  0  0  0  0  0
   24.6174  -20.5997  -11.1855 C   0  0  2  0  0  0  0  0  0  0  0  0
   23.4754  -20.9408  -10.2858 C   0  0  0  0  0  0  0  0  0  0  0  0
   24.3547  -20.8437  -12.6485 C   0  0  2  0  0  0  0  0  0  0  0  0
   25.4953  -20.3559  -13.4409 N   0  0  0  0  0  0  0  0  0  0  0  0
   23.0925  -20.2854  -13.1370 C   0  0  0  0  0  0  0  0  0  0  0  0
   22.8457  -19.0565  -13.1591 O   0  0  0  0  0  0  0  0  0  0  0  0
   22.0876  -21.1607  -13.6127 N   0  0  0  0  0  0  0  0  0  0  0  0
   20.8078  -20.6707  -14.1768 C   0  0  1  0  0  0  0  0  0  0  0  0
   20.7565  -21.1628  -15.5879 C   0  0  0  0  0  0  0  0  0  0  0  0
   19.5480  -20.8390  -16.3381 C   0  0  0  0  0  0  0  0  0  0  0  0
   18.5882  -20.2025  -15.8962 O   0  0  0  0  0  0  0  0  0  0  0  0
   19.6973  -21.1377  -13.3396 C   0  0  0  0  0  0  0  0  0  0  0  0
   19.7283  -22.3086  -12.8809 O   0  0  0  0  0  0  0  0  0  0  0  0
   19.4704  -21.2877  -17.6708 O   0  0  0  0  0  0  0  0  0  0  0  0
   18.6177  -20.3531  -13.0291 O   0  0  0  0  0  0  0  0  0  0  0  0
  1  2  1  0
  1  5  1  0
  2  3  1  0
  4  3  1  0
  5  4  1  0
  5  6  1  1
  6 13  1  0
  7  6  2  0
  8  9  1  0
  9 10  1  0
 10 11  1  1
 10 12  1  0
 12 13  1  6
 14 12  1  0
 14 16  1  0
 15 14  2  0
 17 16  1  0
 17 21  1  0
 17 18  1  6
 19 18  1  0
 20 19  2  0
 21 22  2  0
 21 24  1  0
 23 19  1  0
M  END
$$$$
