PID.pdb
     RDKit          3D

 24 24  0  0  1  0  0  0  0  0999 V2000
   27.3740  -18.8283  -15.4382 N   0  0  0  0  0  0  0  0  0  0  0  0
   28.4595  -18.5231  -16.3827 C   0  0  0  0  0  0  0  0  0  0  0  0
   29.4243  -19.6890  -16.3135 C   0  0  0  0  0  0  0  0  0  0  0  0
   28.7765  -20.6118  -15.2716 C   0  0  0  0  0  0  0  0  0  0  0  0
   27.3106  -20.2569  -15.5165 C   0  0  1  0  0  0  0  0  0  0  0  0
   26.4091  -20.8879  -14.5661 C   0  0  0  0  0  0  0  0  0  0  0  0
   25.9763  -22.0515  -14.8708 O   0  0  0  0  0  0  0  0  0  0  0  0
   25.5499  -20.1158   -8.8876 C   0  0  0  0  0  0  0  0  0  0  0  0
   25.1255  -19.9378  -10.3362 C   0  0  0  0  0  0  0  0  0  0  0  0
   25.3738  -21.1787  -11.1289 C   0  0  2  0  0  0  0  0  0  0  0  0
   26.7591  -21.7153  -10.9775 C   0  0  0  0  0  0  0  0  0  0  0  0
   24.9131  -21.0321  -12.5556 C   0  0  2  0  0  0  0  0  0  0  0  0
   25.9582  -20.3577  -13.3429 N   0  0  0  0  0  0  0  0  0  0  0  0
   23.6201  -20.3622  -12.7071 C   0  0  0  0  0  0  0  0  0  0  0  0
   23.4968  -19.1193  -12.8145 O   0  0  0  0  0  0  0  0  0  0  0  0
   22.4381  -21.1394  -12.7361 N   0  0  0  0  0  0  0  0  0  0  0  0
   21.1671  -20.6334  -13.3058 C   0  0  1  0  0  0  0  0  0  0  0  0
   21.4580  -20.2786  -14.7290 C   0  0  0  0  0  0  0  0  0  0  0  0
   20.3333  -19.7726  -15.5082 C   0  0  0  0  0  0  0  0  0  0  0  0
   19.4565  -19.0178  -15.0802 O   0  0  0  0  0  0  0  0  0  0  0  0
   20.1229  -21.6511  -13.1444 C   0  0  0  0  0  0  0  0  0  0  0  0
   20.4022  -22.8553  -13.3770 O   0  0  0  0  0  0  0  0  0  0  0  0
   20.2408  -20.1768  -16.8541 O   0  0  0  0  0  0  0  0  0  0  0  0
   18.8460  -21.3515  -12.7480 O   0  0  0  0  0  0  0  0  0  0  0  0
  1  2  1  0
  1  5  1  0
  2  3  1  0
  4  3  1  0
  5  4  1  0
  5  6  1  1
  6 13  1  0
  7  6  2  0
  8  9  1  0
  9 10  1  0
 10 11  1  6
 10 12  1  0
 12 13  1  6
 14 12  1  0
 14 16  1  0
 15 14  2  0
 17 16  1  0
 17 21  1  0
 17 18  1  6
 19 18  1  0
 20 19  2  0
 21 22  2  0
 21 24  1  0
 23 19  1  0
M  END
$$$$
