WIV.pdb
     RDKit          3D

 30 31  0  0  1  0  0  0  0  0999 V2000
    6.0646  -19.0612   24.9559 N   0  0  0  0  0  0  0  0  0  0  0  0
    6.3301  -17.6281   24.8476 C   0  0  1  0  0  0  0  0  0  0  0  0
    6.9022  -17.0885   26.1550 C   0  0  0  0  0  0  0  0  0  0  0  0
    6.5221  -15.6636   26.3333 C   0  0  0  0  0  0  0  0  0  0  0  0
    5.2394  -15.1307   26.1700 C   0  0  0  0  0  0  0  0  0  0  0  0
    5.2945  -13.8147   26.4169 N   0  0  0  0  0  0  0  0  0  0  0  0
    6.5388  -13.4228   26.7381 C   0  0  0  0  0  0  0  0  0  0  0  0
    7.0815  -12.1949   27.0674 C   0  0  0  0  0  0  0  0  0  0  0  0
    8.4267  -12.1179   27.3524 C   0  0  0  0  0  0  0  0  0  0  0  0
    9.1923  -13.2570   27.3027 C   0  0  0  0  0  0  0  0  0  0  0  0
    8.6414  -14.4742   26.9737 C   0  0  0  0  0  0  0  0  0  0  0  0
    7.3053  -14.5843   26.6847 C   0  0  0  0  0  0  0  0  0  0  0  0
    7.2813  -17.3452   23.7446 C   0  0  0  0  0  0  0  0  0  0  0  0
    8.0772  -18.2184   23.3920 O   0  0  0  0  0  0  0  0  0  0  0  0
    8.3964  -12.7931   19.5691 C   0  0  0  0  0  0  0  0  0  0  0  0
    8.7262  -14.0979   20.2206 C   0  0  0  0  0  0  0  0  0  0  0  0
    7.8332  -14.3958   21.4053 C   0  0  2  0  0  0  0  0  0  0  0  0
    7.7918  -13.2390   22.3770 C   0  0  0  0  0  0  0  0  0  0  0  0
    8.1978  -15.6973   22.0725 C   0  0  2  0  0  0  0  0  0  0  0  0
    7.2767  -16.0821   23.1005 N   0  0  0  0  0  0  0  0  0  0  0  0
    9.6039  -15.6514   22.5268 C   0  0  0  0  0  0  0  0  0  0  0  0
   10.4975  -15.4470   21.6764 O   0  0  0  0  0  0  0  0  0  0  0  0
   10.7430  -13.9805   25.8266 C   0  0  0  0  0  0  0  0  0  0  0  0
   11.4616  -15.3124   25.7297 C   0  0  1  0  0  0  0  0  0  0  0  0
   10.7080  -16.3051   26.6025 C   0  0  0  0  0  0  0  0  0  0  0  0
   11.3882  -15.7936   24.2999 C   0  0  2  0  0  0  0  0  0  0  0  0
   10.0025  -15.8253   23.8703 N   0  0  0  0  0  0  0  0  0  0  0  0
   11.9985  -17.1233   24.1325 C   0  0  0  0  0  0  0  0  0  0  0  0
   13.3474  -17.3105   24.3287 O   0  0  0  0  0  0  0  0  0  0  0  0
   11.2898  -18.0940   23.8095 O   0  0  0  0  0  0  0  0  0  0  0  0
  2 13  1  0
  2  1  1  1
  3  2  1  0
  4  5  2  0
  4  3  1  0
  6  5  1  0
  7 12  2  0
  7  6  1  0
  8  7  1  0
  9 10  1  0
  9  8  2  0
 10 11  2  0
 11 12  1  0
 12  4  1  0
 13 14  2  0
 16 15  1  0
 16 17  1  0
 17 18  1  1
 19 17  1  0
 19 20  1  1
 20 13  1  0
 21 19  1  0
 22 21  2  0
 24 23  1  6
 24 26  1  0
 24 25  1  0
 26 27  1  1
 27 21  1  0
 28 26  1  0
 28 29  1  0
 30 28  2  0
M  END
$$$$
