WIV.pdb
     RDKit          3D

 30 31  0  0  1  0  0  0  0  0999 V2000
    5.6281  -18.4774   24.8744 N   0  0  0  0  0  0  0  0  0  0  0  0
    6.1837  -17.1388   24.6863 C   0  0  1  0  0  0  0  0  0  0  0  0
    6.5767  -16.5280   26.0280 C   0  0  0  0  0  0  0  0  0  0  0  0
    5.8628  -15.2420   26.2364 C   0  0  0  0  0  0  0  0  0  0  0  0
    4.4752  -15.0676   26.2498 C   0  0  0  0  0  0  0  0  0  0  0  0
    4.2149  -13.7708   26.4656 N   0  0  0  0  0  0  0  0  0  0  0  0
    5.3437  -13.0548   26.5995 C   0  0  0  0  0  0  0  0  0  0  0  0
    5.5836  -11.7128   26.8284 C   0  0  0  0  0  0  0  0  0  0  0  0
    6.8868  -11.2764   26.9169 C   0  0  0  0  0  0  0  0  0  0  0  0
    7.9112  -12.1803   26.7762 C   0  0  0  0  0  0  0  0  0  0  0  0
    7.6608  -13.5140   26.5485 C   0  0  0  0  0  0  0  0  0  0  0  0
    6.3744  -13.9802   26.4552 C   0  0  0  0  0  0  0  0  0  0  0  0
    7.3728  -17.1762   23.7996 C   0  0  0  0  0  0  0  0  0  0  0  0
    8.0844  -18.1829   23.7825 O   0  0  0  0  0  0  0  0  0  0  0  0
    8.8394  -12.3166   20.9526 C   0  0  0  0  0  0  0  0  0  0  0  0
    8.9564  -13.4538   21.9164 C   0  0  0  0  0  0  0  0  0  0  0  0
    8.8696  -14.8020   21.2347 C   0  0  2  0  0  0  0  0  0  0  0  0
    7.6818  -14.8804   20.3036 C   0  0  0  0  0  0  0  0  0  0  0  0
    8.9023  -15.9374   22.2255 C   0  0  2  0  0  0  0  0  0  0  0  0
    7.6897  -16.0646   22.9785 N   0  0  0  0  0  0  0  0  0  0  0  0
   10.1123  -15.8329   23.0684 C   0  0  0  0  0  0  0  0  0  0  0  0
   11.2206  -15.7012   22.5046 O   0  0  0  0  0  0  0  0  0  0  0  0
   12.1628  -15.5230   27.5749 C   0  0  0  0  0  0  0  0  0  0  0  0
   10.9149  -15.4547   26.7159 C   0  0  1  0  0  0  0  0  0  0  0  0
   10.4193  -14.0162   26.7399 C   0  0  0  0  0  0  0  0  0  0  0  0
   11.2922  -15.7980   25.2943 C   0  0  2  0  0  0  0  0  0  0  0  0
   10.0935  -15.8731   24.4799 N   0  0  0  0  0  0  0  0  0  0  0  0
   12.0382  -17.0650   25.2114 C   0  0  0  0  0  0  0  0  0  0  0  0
   13.4078  -17.0703   25.0799 O   0  0  0  0  0  0  0  0  0  0  0  0
   11.4271  -18.1481   25.2604 O   0  0  0  0  0  0  0  0  0  0  0  0
  2 13  1  0
  2  1  1  1
  3  2  1  0
  4  5  2  0
  4  3  1  0
  6  5  1  0
  7 12  2  0
  7  6  1  0
  8  7  1  0
  9 10  1  0
  9  8  2  0
 10 11  2  0
 11 12  1  0
 12  4  1  0
 13 14  2  0
 16 15  1  0
 16 17  1  0
 17 18  1  1
 19 17  1  0
 19 20  1  1
 20 13  1  0
 21 19  1  0
 22 21  2  0
 24 23  1  1
 24 26  1  0
 24 25  1  0
 26 27  1  6
 27 21  1  0
 28 26  1  0
 28 29  1  0
 30 28  2  0
M  END
$$$$
