WIV.pdb
     RDKit          3D

 30 31  0  0  1  0  0  0  0  0999 V2000
    6.3370  -17.0069   25.5974 N   0  0  0  0  0  0  0  0  0  0  0  0
    7.0669  -15.9772   24.8607 C   0  0  1  0  0  0  0  0  0  0  0  0
    8.3382  -15.5836   25.6068 C   0  0  0  0  0  0  0  0  0  0  0  0
    8.0202  -14.6200   26.6918 C   0  0  0  0  0  0  0  0  0  0  0  0
    8.1735  -14.8495   28.0629 C   0  0  0  0  0  0  0  0  0  0  0  0
    7.7831  -13.7495   28.7212 N   0  0  0  0  0  0  0  0  0  0  0  0
    7.3739  -12.7869   27.8781 C   0  0  0  0  0  0  0  0  0  0  0  0
    6.8922  -11.5065   28.0764 C   0  0  0  0  0  0  0  0  0  0  0  0
    6.5490  -10.7483   26.9792 C   0  0  0  0  0  0  0  0  0  0  0  0
    6.6929  -11.2799   25.7210 C   0  0  0  0  0  0  0  0  0  0  0  0
    7.1734  -12.5557   25.5353 C   0  0  0  0  0  0  0  0  0  0  0  0
    7.5239  -13.3362   26.6071 C   0  0  0  0  0  0  0  0  0  0  0  0
    7.4254  -16.4495   23.5005 C   0  0  0  0  0  0  0  0  0  0  0  0
    7.6150  -17.6524   23.3072 O   0  0  0  0  0  0  0  0  0  0  0  0
    8.3618  -12.4691   19.3305 C   0  0  0  0  0  0  0  0  0  0  0  0
    8.5806  -13.4908   20.4002 C   0  0  0  0  0  0  0  0  0  0  0  0
    7.8699  -14.7947   20.1097 C   0  0  2  0  0  0  0  0  0  0  0  0
    6.3912  -14.5842   19.8785 C   0  0  0  0  0  0  0  0  0  0  0  0
    8.1467  -15.8345   21.1653 C   0  0  2  0  0  0  0  0  0  0  0  0
    7.5494  -15.5269   22.4311 N   0  0  0  0  0  0  0  0  0  0  0  0
    9.6000  -16.0932   21.2456 C   0  0  0  0  0  0  0  0  0  0  0  0
   10.3418  -15.1886   21.6872 O   0  0  0  0  0  0  0  0  0  0  0  0
   11.4253  -18.6986   23.1125 C   0  0  0  0  0  0  0  0  0  0  0  0
   11.8711  -18.8572   21.6717 C   0  0  1  0  0  0  0  0  0  0  0  0
   10.9890  -19.9196   21.0326 C   0  0  0  0  0  0  0  0  0  0  0  0
   11.6328  -17.5521   20.9498 C   0  0  2  0  0  0  0  0  0  0  0  0
   10.2059  -17.3065   20.8520 N   0  0  0  0  0  0  0  0  0  0  0  0
   12.2387  -17.5445   19.6077 C   0  0  0  0  0  0  0  0  0  0  0  0
   11.4591  -17.6682   18.4807 O   0  0  0  0  0  0  0  0  0  0  0  0
   13.4714  -17.4249   19.4851 O   0  0  0  0  0  0  0  0  0  0  0  0
  2 13  1  0
  2  1  1  1
  3  2  1  0
  4  5  2  0
  4  3  1  0
  6  5  1  0
  7 12  2  0
  7  6  1  0
  8  7  1  0
  9 10  1  0
  9  8  2  0
 10 11  2  0
 11 12  1  0
 12  4  1  0
 13 14  2  0
 16 15  1  0
 16 17  1  0
 17 18  1  1
 19 17  1  0
 19 20  1  1
 20 13  1  0
 21 19  1  0
 22 21  2  0
 24 23  1  1
 24 26  1  0
 24 25  1  0
 26 27  1  6
 27 21  1  0
 28 26  1  0
 28 29  1  0
 30 28  2  0
M  END
$$$$
