WIV.pdb
     RDKit          3D

 30 31  0  0  1  0  0  0  0  0999 V2000
    5.6517  -18.5494   24.7430 N   0  0  0  0  0  0  0  0  0  0  0  0
    6.1602  -17.1845   24.6236 C   0  0  1  0  0  0  0  0  0  0  0  0
    6.4747  -16.6071   26.0004 C   0  0  0  0  0  0  0  0  0  0  0  0
    5.8368  -15.2747   26.1572 C   0  0  0  0  0  0  0  0  0  0  0  0
    4.4633  -15.0139   26.1192 C   0  0  0  0  0  0  0  0  0  0  0  0
    4.2783  -13.6988   26.2987 N   0  0  0  0  0  0  0  0  0  0  0  0
    5.4449  -13.0516   26.4563 C   0  0  0  0  0  0  0  0  0  0  0  0
    5.7612  -11.7223   26.6653 C   0  0  0  0  0  0  0  0  0  0  0  0
    7.0857  -11.3660   26.7893 C   0  0  0  0  0  0  0  0  0  0  0  0
    8.0552  -12.3350   26.7029 C   0  0  0  0  0  0  0  0  0  0  0  0
    7.7289  -13.6553   26.4947 C   0  0  0  0  0  0  0  0  0  0  0  0
    6.4194  -14.0425   26.3670 C   0  0  0  0  0  0  0  0  0  0  0  0
    7.3843  -17.1442   23.7859 C   0  0  0  0  0  0  0  0  0  0  0  0
    8.0787  -18.1574   23.6789 O   0  0  0  0  0  0  0  0  0  0  0  0
    7.6709  -13.0026   20.0885 C   0  0  0  0  0  0  0  0  0  0  0  0
    7.7593  -14.3528   20.7249 C   0  0  0  0  0  0  0  0  0  0  0  0
    9.0068  -14.5164   21.5656 C   0  0  2  0  0  0  0  0  0  0  0  0
   10.2611  -14.3980   20.7308 C   0  0  0  0  0  0  0  0  0  0  0  0
    8.9741  -15.7832   22.3817 C   0  0  2  0  0  0  0  0  0  0  0  0
    7.7537  -15.9518   23.1138 N   0  0  0  0  0  0  0  0  0  0  0  0
   10.1850  -15.8678   23.2254 C   0  0  0  0  0  0  0  0  0  0  0  0
   11.2992  -15.9362   22.6620 O   0  0  0  0  0  0  0  0  0  0  0  0
    9.9768  -15.4432   27.4826 C   0  0  0  0  0  0  0  0  0  0  0  0
   11.0104  -14.7604   26.6079 C   0  0  1  0  0  0  0  0  0  0  0  0
   12.2684  -14.5747   27.4436 C   0  0  0  0  0  0  0  0  0  0  0  0
   11.3433  -15.6773   25.4548 C   0  0  2  0  0  0  0  0  0  0  0  0
   10.1609  -15.8761   24.6374 N   0  0  0  0  0  0  0  0  0  0  0  0
   11.8628  -16.9764   25.9143 C   0  0  0  0  0  0  0  0  0  0  0  0
   13.0495  -17.0572   26.6059 O   0  0  0  0  0  0  0  0  0  0  0  0
   11.2244  -18.0180   25.6768 O   0  0  0  0  0  0  0  0  0  0  0  0
  2 13  1  0
  2  1  1  1
  3  2  1  0
  4  5  2  0
  4  3  1  0
  6  5  1  0
  7 12  2  0
  7  6  1  0
  8  7  1  0
  9 10  1  0
  9  8  2  0
 10 11  2  0
 11 12  1  0
 12  4  1  0
 13 14  2  0
 16 15  1  0
 16 17  1  0
 17 18  1  6
 19 17  1  0
 19 20  1  1
 20 13  1  0
 21 19  1  0
 22 21  2  0
 24 23  1  1
 24 26  1  0
 24 25  1  0
 26 27  1  1
 27 21  1  0
 28 26  1  0
 28 29  1  0
 30 28  2  0
M  END
$$$$
