WIV.pdb
     RDKit          3D

 30 31  0  0  1  0  0  0  0  0999 V2000
    6.0751  -17.9810   24.8625 N   0  0  0  0  0  0  0  0  0  0  0  0
    6.6598  -16.7017   24.4659 C   0  0  1  0  0  0  0  0  0  0  0  0
    7.4832  -16.1118   25.6068 C   0  0  0  0  0  0  0  0  0  0  0  0
    6.7863  -14.9366   26.1898 C   0  0  0  0  0  0  0  0  0  0  0  0
    5.4878  -14.9281   26.7092 C   0  0  0  0  0  0  0  0  0  0  0  0
    5.2139  -13.6893   27.1406 N   0  0  0  0  0  0  0  0  0  0  0  0
    6.2496  -12.8564   26.9448 C   0  0  0  0  0  0  0  0  0  0  0  0
    6.4410  -11.5148   27.2174 C   0  0  0  0  0  0  0  0  0  0  0  0
    7.6461  -10.9353   26.8880 C   0  0  0  0  0  0  0  0  0  0  0  0
    8.6234  -11.7002   26.2997 C   0  0  0  0  0  0  0  0  0  0  0  0
    8.4219  -13.0349   26.0330 C   0  0  0  0  0  0  0  0  0  0  0  0
    7.2332  -13.6417   26.3487 C   0  0  0  0  0  0  0  0  0  0  0  0
    7.5245  -16.8598   23.2705 C   0  0  0  0  0  0  0  0  0  0  0  0
    8.2383  -17.8598   23.1671 O   0  0  0  0  0  0  0  0  0  0  0  0
    8.1947  -12.2965   19.8131 C   0  0  0  0  0  0  0  0  0  0  0  0
    8.5895  -13.4461   20.6839 C   0  0  0  0  0  0  0  0  0  0  0  0
    8.1173  -14.7757   20.1371 C   0  0  2  0  0  0  0  0  0  0  0  0
    6.6737  -14.7152   19.6939 C   0  0  0  0  0  0  0  0  0  0  0  0
    8.3786  -15.9056   21.0998 C   0  0  2  0  0  0  0  0  0  0  0  0
    7.5312  -15.8705   22.2549 N   0  0  0  0  0  0  0  0  0  0  0  0
    9.8193  -15.9635   21.4263 C   0  0  0  0  0  0  0  0  0  0  0  0
   10.3101  -15.0444   22.1176 O   0  0  0  0  0  0  0  0  0  0  0  0
   11.7877  -18.3784   23.2985 C   0  0  0  0  0  0  0  0  0  0  0  0
   12.4750  -18.3170   21.9481 C   0  0  1  0  0  0  0  0  0  0  0  0
   11.9251  -19.4552   21.1011 C   0  0  0  0  0  0  0  0  0  0  0  0
   12.1049  -17.0135   21.2809 C   0  0  2  0  0  0  0  0  0  0  0  0
   10.6807  -16.9992   21.0028 N   0  0  0  0  0  0  0  0  0  0  0  0
   12.8635  -16.7944   20.0378 C   0  0  0  0  0  0  0  0  0  0  0  0
   14.2024  -16.4798   20.0743 O   0  0  0  0  0  0  0  0  0  0  0  0
   12.2912  -16.8938   18.9372 O   0  0  0  0  0  0  0  0  0  0  0  0
  2 13  1  0
  2  1  1  1
  3  2  1  0
  4  5  2  0
  4  3  1  0
  6  5  1  0
  7 12  2  0
  7  6  1  0
  8  7  1  0
  9 10  1  0
  9  8  2  0
 10 11  2  0
 11 12  1  0
 12  4  1  0
 13 14  2  0
 16 15  1  0
 16 17  1  0
 17 18  1  1
 19 17  1  0
 19 20  1  1
 20 13  1  0
 21 19  1  0
 22 21  2  0
 24 23  1  1
 24 26  1  0
 24 25  1  0
 26 27  1  6
 27 21  1  0
 28 26  1  0
 28 29  1  0
 30 28  2  0
M  END
$$$$
