WIV.pdb
     RDKit          3D

 30 31  0  0  1  0  0  0  0  0999 V2000
    5.8013  -18.7754   24.7073 N   0  0  0  0  0  0  0  0  0  0  0  0
    6.1524  -17.3576   24.6574 C   0  0  1  0  0  0  0  0  0  0  0  0
    6.5578  -16.8566   26.0403 C   0  0  0  0  0  0  0  0  0  0  0  0
    5.9352  -15.5354   26.3116 C   0  0  0  0  0  0  0  0  0  0  0  0
    4.5739  -15.2999   26.5290 C   0  0  0  0  0  0  0  0  0  0  0  0
    4.4008  -13.9876   26.7385 N   0  0  0  0  0  0  0  0  0  0  0  0
    5.5641  -13.3185   26.6762 C   0  0  0  0  0  0  0  0  0  0  0  0
    5.8888  -11.9828   26.8217 C   0  0  0  0  0  0  0  0  0  0  0  0
    7.2064  -11.6019   26.6974 C   0  0  0  0  0  0  0  0  0  0  0  0
    8.1609  -12.5534   26.4334 C   0  0  0  0  0  0  0  0  0  0  0  0
    7.8264  -13.8804   26.2906 C   0  0  0  0  0  0  0  0  0  0  0  0
    6.5235  -14.2920   26.4085 C   0  0  0  0  0  0  0  0  0  0  0  0
    7.2652  -17.1182   23.7056 C   0  0  0  0  0  0  0  0  0  0  0  0
    7.9952  -18.0566   23.3787 O   0  0  0  0  0  0  0  0  0  0  0  0
    9.0228  -12.8813   19.4944 C   0  0  0  0  0  0  0  0  0  0  0  0
    9.2749  -14.1097   20.3087 C   0  0  0  0  0  0  0  0  0  0  0  0
    8.1969  -14.3503   21.3429 C   0  0  2  0  0  0  0  0  0  0  0  0
    7.8569  -13.0862   22.0983 C   0  0  0  0  0  0  0  0  0  0  0  0
    8.5417  -15.4957   22.2601 C   0  0  2  0  0  0  0  0  0  0  0  0
    7.4888  -15.8224   23.1757 N   0  0  0  0  0  0  0  0  0  0  0  0
    9.8388  -15.2368   22.9203 C   0  0  0  0  0  0  0  0  0  0  0  0
   10.8687  -15.1942   22.2123 O   0  0  0  0  0  0  0  0  0  0  0  0
   10.3789  -16.6655   26.7399 C   0  0  0  0  0  0  0  0  0  0  0  0
   11.0073  -15.3089   26.4854 C   0  0  1  0  0  0  0  0  0  0  0  0
   12.3530  -15.2860   27.1952 C   0  0  0  0  0  0  0  0  0  0  0  0
   11.2557  -15.1665   25.0025 C   0  0  2  0  0  0  0  0  0  0  0  0
    9.9875  -15.0333   24.3097 N   0  0  0  0  0  0  0  0  0  0  0  0
   12.0108  -16.3070   24.4568 C   0  0  0  0  0  0  0  0  0  0  0  0
   11.4207  -17.5420   24.3170 O   0  0  0  0  0  0  0  0  0  0  0  0
   13.1984  -16.1576   24.1160 O   0  0  0  0  0  0  0  0  0  0  0  0
  2 13  1  0
  2  1  1  1
  3  2  1  0
  4  5  2  0
  4  3  1  0
  6  5  1  0
  7 12  2  0
  7  6  1  0
  8  7  1  0
  9 10  1  0
  9  8  2  0
 10 11  2  0
 11 12  1  0
 12  4  1  0
 13 14  2  0
 16 15  1  0
 16 17  1  0
 17 18  1  1
 19 17  1  0
 19 20  1  1
 20 13  1  0
 21 19  1  0
 22 21  2  0
 24 23  1  6
 24 26  1  0
 24 25  1  0
 26 27  1  6
 27 21  1  0
 28 26  1  0
 28 29  1  0
 30 28  2  0
M  END
$$$$
