WIV.pdb
     RDKit          3D

 30 31  0  0  1  0  0  0  0  0999 V2000
    5.7147  -18.6444   24.6971 N   0  0  0  0  0  0  0  0  0  0  0  0
    6.1806  -17.2607   24.6329 C   0  0  1  0  0  0  0  0  0  0  0  0
    6.4729  -16.7280   26.0324 C   0  0  0  0  0  0  0  0  0  0  0  0
    5.8828  -15.3752   26.2013 C   0  0  0  0  0  0  0  0  0  0  0  0
    4.5245  -15.0558   26.1068 C   0  0  0  0  0  0  0  0  0  0  0  0
    4.3846  -13.7401   26.3193 N   0  0  0  0  0  0  0  0  0  0  0  0
    5.5675  -13.1475   26.5525 C   0  0  0  0  0  0  0  0  0  0  0  0
    5.9270  -11.8396   26.8185 C   0  0  0  0  0  0  0  0  0  0  0  0
    7.2573  -11.5433   27.0164 C   0  0  0  0  0  0  0  0  0  0  0  0
    8.1896  -12.5492   26.9450 C   0  0  0  0  0  0  0  0  0  0  0  0
    7.8205  -13.8478   26.6795 C   0  0  0  0  0  0  0  0  0  0  0  0
    6.5041  -14.1755   26.4777 C   0  0  0  0  0  0  0  0  0  0  0  0
    7.4051  -17.1496   23.8024 C   0  0  0  0  0  0  0  0  0  0  0  0
    8.1198  -18.1413   23.6411 O   0  0  0  0  0  0  0  0  0  0  0  0
    7.5571  -12.9624   20.1931 C   0  0  0  0  0  0  0  0  0  0  0  0
    7.6738  -14.2857   20.8794 C   0  0  0  0  0  0  0  0  0  0  0  0
    8.9563  -14.4160   21.6719 C   0  0  2  0  0  0  0  0  0  0  0  0
   10.1743  -14.2823   20.7872 C   0  0  0  0  0  0  0  0  0  0  0  0
    8.9806  -15.6743   22.5013 C   0  0  2  0  0  0  0  0  0  0  0  0
    7.7520  -15.9146   23.1988 N   0  0  0  0  0  0  0  0  0  0  0  0
   10.1684  -15.6721   23.3814 C   0  0  0  0  0  0  0  0  0  0  0  0
   11.3000  -15.6080   22.8533 O   0  0  0  0  0  0  0  0  0  0  0  0
   12.0536  -15.1560   27.9291 C   0  0  0  0  0  0  0  0  0  0  0  0
   10.8355  -15.1761   27.0260 C   0  0  1  0  0  0  0  0  0  0  0  0
   10.3151  -13.7498   26.9254 C   0  0  0  0  0  0  0  0  0  0  0  0
   11.2680  -15.6168   25.6476 C   0  0  2  0  0  0  0  0  0  0  0  0
   10.1034  -15.7384   24.7905 N   0  0  0  0  0  0  0  0  0  0  0  0
   12.0046  -16.8915   25.6810 C   0  0  0  0  0  0  0  0  0  0  0  0
   13.2453  -16.9744   26.2699 O   0  0  0  0  0  0  0  0  0  0  0  0
   11.5032  -17.9103   25.1716 O   0  0  0  0  0  0  0  0  0  0  0  0
  2 13  1  0
  2  1  1  1
  3  2  1  0
  4  5  2  0
  4  3  1  0
  6  5  1  0
  7 12  2  0
  7  6  1  0
  8  7  1  0
  9 10  1  0
  9  8  2  0
 10 11  2  0
 11 12  1  0
 12  4  1  0
 13 14  2  0
 16 15  1  0
 16 17  1  0
 17 18  1  6
 19 17  1  0
 19 20  1  1
 20 13  1  0
 21 19  1  0
 22 21  2  0
 24 23  1  1
 24 26  1  0
 24 25  1  0
 26 27  1  6
 27 21  1  0
 28 26  1  0
 28 29  1  0
 30 28  2  0
M  END
$$$$
