WIV.pdb
     RDKit          3D

 30 31  0  0  1  0  0  0  0  0999 V2000
    6.0682  -18.5849   24.2050 N   0  0  0  0  0  0  0  0  0  0  0  0
    6.6034  -17.2297   24.0928 C   0  0  1  0  0  0  0  0  0  0  0  0
    7.3043  -16.8213   25.3850 C   0  0  0  0  0  0  0  0  0  0  0  0
    6.6890  -15.5864   25.9356 C   0  0  0  0  0  0  0  0  0  0  0  0
    5.3743  -15.4605   26.3957 C   0  0  0  0  0  0  0  0  0  0  0  0
    5.1924  -14.2004   26.8140 N   0  0  0  0  0  0  0  0  0  0  0  0
    6.3059  -13.4636   26.6651 C   0  0  0  0  0  0  0  0  0  0  0  0
    6.6033  -12.1431   26.9457 C   0  0  0  0  0  0  0  0  0  0  0  0
    7.8688  -11.6743   26.6711 C   0  0  0  0  0  0  0  0  0  0  0  0
    8.7996  -12.5254   26.1278 C   0  0  0  0  0  0  0  0  0  0  0  0
    8.4926  -13.8381   25.8525 C   0  0  0  0  0  0  0  0  0  0  0  0
    7.2416  -14.3356   26.1143 C   0  0  0  0  0  0  0  0  0  0  0  0
    7.5615  -17.1278   22.9643 C   0  0  0  0  0  0  0  0  0  0  0  0
    8.2268  -18.1151   22.6435 O   0  0  0  0  0  0  0  0  0  0  0  0
    8.3971  -11.9731   20.3424 C   0  0  0  0  0  0  0  0  0  0  0  0
    8.7143  -13.2244   21.0969 C   0  0  0  0  0  0  0  0  0  0  0  0
    8.2904  -14.4723   20.3533 C   0  0  2  0  0  0  0  0  0  0  0  0
    6.8475  -14.3942   19.9104 C   0  0  0  0  0  0  0  0  0  0  0  0
    8.5860  -15.7241   21.1391 C   0  0  2  0  0  0  0  0  0  0  0  0
    7.7120  -15.9067   22.2600 N   0  0  0  0  0  0  0  0  0  0  0  0
   10.0200  -15.7655   21.4959 C   0  0  0  0  0  0  0  0  0  0  0  0
   10.8642  -15.7050   20.5754 O   0  0  0  0  0  0  0  0  0  0  0  0
   11.5546  -14.3100   24.8337 C   0  0  0  0  0  0  0  0  0  0  0  0
   12.1345  -15.6903   24.5925 C   0  0  1  0  0  0  0  0  0  0  0  0
   11.3655  -16.6703   25.4663 C   0  0  0  0  0  0  0  0  0  0  0  0
   11.8987  -16.0635   23.1481 C   0  0  2  0  0  0  0  0  0  0  0  0
   10.4983  -15.8699   22.8205 N   0  0  0  0  0  0  0  0  0  0  0  0
   12.2952  -17.4531   22.8648 C   0  0  0  0  0  0  0  0  0  0  0  0
   13.5982  -17.8630   23.0303 O   0  0  0  0  0  0  0  0  0  0  0  0
   11.4450  -18.2718   22.4703 O   0  0  0  0  0  0  0  0  0  0  0  0
  2 13  1  0
  2  1  1  1
  3  2  1  0
  4  5  2  0
  4  3  1  0
  6  5  1  0
  7 12  2  0
  7  6  1  0
  8  7  1  0
  9 10  1  0
  9  8  2  0
 10 11  2  0
 11 12  1  0
 12  4  1  0
 13 14  2  0
 16 15  1  0
 16 17  1  0
 17 18  1  1
 19 17  1  0
 19 20  1  1
 20 13  1  0
 21 19  1  0
 22 21  2  0
 24 23  1  6
 24 26  1  0
 24 25  1  0
 26 27  1  1
 27 21  1  0
 28 26  1  0
 28 29  1  0
 30 28  2  0
M  END
$$$$
