CAI.pdb
     RDKit          3D

 20 19  0  0  1  0  0  0  0  0999 V2000
    9.0357  -16.9241   19.5141 N   0  0  0  0  0  0  0  0  0  0  0  0
    8.5667  -15.6071   19.8077 C   0  0  1  0  0  0  0  0  0  0  0  0
    7.5143  -15.2468   18.7690 C   0  0  0  0  0  0  0  0  0  0  0  0
    6.2023  -16.4760   18.6873 S   0  0  0  0  0  0  0  0  0  0  0  0
    7.8919  -15.6074   21.1398 C   0  0  0  0  0  0  0  0  0  0  0  0
    7.3321  -14.5824   21.6142 O   0  0  0  0  0  0  0  0  0  0  0  0
    6.8251  -18.2625   23.6220 C   0  0  0  0  0  0  0  0  0  0  0  0
    7.1760  -16.8465   23.2256 C   0  0  2  0  0  0  0  0  0  0  0  0
    7.8464  -16.7803   21.9508 N   0  0  0  0  0  0  0  0  0  0  0  0
    8.0066  -16.1711   24.2502 C   0  0  0  0  0  0  0  0  0  0  0  0
    9.2795  -16.2122   24.2064 O   0  0  0  0  0  0  0  0  0  0  0  0
    5.9837  -11.6891   26.3884 C   0  0  0  0  0  0  0  0  0  0  0  0
    6.8350  -12.7936   25.8145 C   0  0  0  0  0  0  0  0  0  0  0  0
    7.5508  -13.5475   26.8937 C   0  0  2  0  0  0  0  0  0  0  0  0
    8.4447  -12.6162   27.6758 C   0  0  0  0  0  0  0  0  0  0  0  0
    8.2742  -14.7091   26.3099 C   0  0  2  0  0  0  0  0  0  0  0  0
    7.4567  -15.4412   25.3373 N   0  0  0  0  0  0  0  0  0  0  0  0
    8.8982  -15.6230   27.2722 C   0  0  0  0  0  0  0  0  0  0  0  0
    8.2372  -16.6518   27.6475 O   0  0  0  0  0  0  0  0  0  0  0  0
   10.1498  -15.4836   27.8245 O   0  0  0  0  0  0  0  0  0  0  0  0
  2  1  1  6
  3  4  1  0
  3  2  1  0
  5  2  1  0
  6  5  2  0
  8  9  1  0
  8  7  1  1
  9  5  1  0
 10  8  1  0
 11 10  2  0
 12 13  1  0
 13 14  1  0
 14 15  1  6
 14 16  1  0
 16 18  1  0
 16 17  1  1
 17 10  1  0
 18 20  1  0
 19 18  2  0
M  END
$$$$
