CAI.pdb
     RDKit          3D

 20 19  0  0  1  0  0  0  0  0999 V2000
    6.5158  -17.5801   18.7979 N   0  0  0  0  0  0  0  0  0  0  0  0
    7.4247  -16.7946   19.5709 C   0  0  1  0  0  0  0  0  0  0  0  0
    7.5367  -15.4288   18.9089 C   0  0  0  0  0  0  0  0  0  0  0  0
    8.5265  -14.2872   19.8867 S   0  0  0  0  0  0  0  0  0  0  0  0
    6.8569  -16.5799   20.9353 C   0  0  0  0  0  0  0  0  0  0  0  0
    5.6793  -16.1700   21.1205 O   0  0  0  0  0  0  0  0  0  0  0  0
    6.9447  -18.1178   24.0874 C   0  0  0  0  0  0  0  0  0  0  0  0
    7.0939  -16.7564   23.4475 C   0  0  2  0  0  0  0  0  0  0  0  0
    7.6270  -16.8308   22.1098 N   0  0  0  0  0  0  0  0  0  0  0  0
    7.9377  -15.8487   24.2600 C   0  0  0  0  0  0  0  0  0  0  0  0
    9.1990  -15.7846   24.0903 O   0  0  0  0  0  0  0  0  0  0  0  0
    5.7126  -11.5819   27.4332 C   0  0  0  0  0  0  0  0  0  0  0  0
    6.3607  -12.9058   27.1150 C   0  0  0  0  0  0  0  0  0  0  0  0
    7.5355  -12.7325   26.2012 C   0  0  2  0  0  0  0  0  0  0  0  0
    7.0990  -12.0932   24.9056 C   0  0  0  0  0  0  0  0  0  0  0  0
    8.2310  -14.0342   26.0128 C   0  0  2  0  0  0  0  0  0  0  0  0
    7.4137  -14.9984   25.2696 N   0  0  0  0  0  0  0  0  0  0  0  0
    8.7943  -14.6393   27.2241 C   0  0  0  0  0  0  0  0  0  0  0  0
    8.3497  -15.7799   27.5948 O   0  0  0  0  0  0  0  0  0  0  0  0
    9.7740  -14.0933   28.0197 O   0  0  0  0  0  0  0  0  0  0  0  0
  2  1  1  6
  3  4  1  0
  3  2  1  0
  5  2  1  0
  6  5  2  0
  8  9  1  0
  8  7  1  1
  9  5  1  0
 10  8  1  0
 11 10  2  0
 12 13  1  0
 13 14  1  0
 14 15  1  6
 14 16  1  0
 16 18  1  0
 16 17  1  1
 17 10  1  0
 18 20  1  0
 19 18  2  0
M  END
$$$$
