CAI.pdb
     RDKit          3D

 20 19  0  0  1  0  0  0  0  0999 V2000
    6.3529  -18.4972   19.1834 N   0  0  0  0  0  0  0  0  0  0  0  0
    7.3954  -17.8766   19.9374 C   0  0  1  0  0  0  0  0  0  0  0  0
    7.8765  -16.6640   19.1535 C   0  0  0  0  0  0  0  0  0  0  0  0
    9.1058  -15.7181   20.0663 S   0  0  0  0  0  0  0  0  0  0  0  0
    6.8407  -17.3762   21.2304 C   0  0  0  0  0  0  0  0  0  0  0  0
    5.8080  -16.6558   21.2891 O   0  0  0  0  0  0  0  0  0  0  0  0
    6.6653  -18.4531   24.6735 C   0  0  0  0  0  0  0  0  0  0  0  0
    6.9346  -17.2819   23.7564 C   0  0  2  0  0  0  0  0  0  0  0  0
    7.4585  -17.6918   22.4770 N   0  0  0  0  0  0  0  0  0  0  0  0
    7.8560  -16.2959   24.3685 C   0  0  0  0  0  0  0  0  0  0  0  0
    9.1106  -16.3330   24.1484 O   0  0  0  0  0  0  0  0  0  0  0  0
    6.0247  -11.6657   27.3541 C   0  0  0  0  0  0  0  0  0  0  0  0
    6.6185  -13.0191   27.0548 C   0  0  0  0  0  0  0  0  0  0  0  0
    7.6599  -12.9326   25.9808 C   0  0  2  0  0  0  0  0  0  0  0  0
    7.0538  -12.3916   24.7088 C   0  0  0  0  0  0  0  0  0  0  0  0
    8.3215  -14.2535   25.8049 C   0  0  2  0  0  0  0  0  0  0  0  0
    7.4181  -15.2553   25.2302 N   0  0  0  0  0  0  0  0  0  0  0  0
    9.0182  -14.7816   26.9823 C   0  0  0  0  0  0  0  0  0  0  0  0
    8.5811  -15.8606   27.5120 O   0  0  0  0  0  0  0  0  0  0  0  0
   10.1186  -14.2223   27.5885 O   0  0  0  0  0  0  0  0  0  0  0  0
  2  1  1  6
  3  4  1  0
  3  2  1  0
  5  2  1  0
  6  5  2  0
  8  9  1  0
  8  7  1  1
  9  5  1  0
 10  8  1  0
 11 10  2  0
 12 13  1  0
 13 14  1  0
 14 15  1  6
 14 16  1  0
 16 18  1  0
 16 17  1  1
 17 10  1  0
 18 20  1  0
 19 18  2  0
M  END
$$$$
