CAI.pdb
     RDKit          3D

 20 19  0  0  1  0  0  0  0  0999 V2000
    7.0439  -14.2419   18.1754 N   0  0  0  0  0  0  0  0  0  0  0  0
    8.1829  -14.1540   19.0331 C   0  0  1  0  0  0  0  0  0  0  0  0
    8.3673  -12.6915   19.4115 C   0  0  0  0  0  0  0  0  0  0  0  0
    9.7665  -12.4549   20.5184 S   0  0  0  0  0  0  0  0  0  0  0  0
    7.9125  -14.9068   20.2940 C   0  0  0  0  0  0  0  0  0  0  0  0
    6.7623  -14.9787   20.8049 O   0  0  0  0  0  0  0  0  0  0  0  0
    9.5364  -17.7028   22.0991 C   0  0  0  0  0  0  0  0  0  0  0  0
    8.7299  -16.4250   22.1448 C   0  0  2  0  0  0  0  0  0  0  0  0
    8.9533  -15.5897   20.9909 N   0  0  0  0  0  0  0  0  0  0  0  0
    8.9969  -15.6418   23.3741 C   0  0  0  0  0  0  0  0  0  0  0  0
   10.1725  -15.5410   23.8555 O   0  0  0  0  0  0  0  0  0  0  0  0
    6.4562  -11.3906   27.1054 C   0  0  0  0  0  0  0  0  0  0  0  0
    7.5011  -12.4465   26.8463 C   0  0  0  0  0  0  0  0  0  0  0  0
    7.0962  -13.3506   25.7222 C   0  0  2  0  0  0  0  0  0  0  0  0
    5.8417  -14.1067   26.0867 C   0  0  0  0  0  0  0  0  0  0  0  0
    8.2313  -14.2358   25.3460 C   0  0  2  0  0  0  0  0  0  0  0  0
    7.9818  -14.9577   24.0943 N   0  0  0  0  0  0  0  0  0  0  0  0
    8.7096  -15.1427   26.3945 C   0  0  0  0  0  0  0  0  0  0  0  0
    8.2507  -16.3364   26.4191 O   0  0  0  0  0  0  0  0  0  0  0  0
    9.6220  -14.8337   27.3759 O   0  0  0  0  0  0  0  0  0  0  0  0
  2  1  1  6
  3  4  1  0
  3  2  1  0
  5  2  1  0
  6  5  2  0
  8  9  1  0
  8  7  1  6
  9  5  1  0
 10  8  1  0
 11 10  2  0
 12 13  1  0
 13 14  1  0
 14 15  1  1
 14 16  1  0
 16 18  1  0
 16 17  1  6
 17 10  1  0
 18 20  1  0
 19 18  2  0
M  END
$$$$
