CAI.pdb
     RDKit          3D

 20 19  0  0  1  0  0  0  0  0999 V2000
    7.1323  -15.7992   18.1995 N   0  0  0  0  0  0  0  0  0  0  0  0
    7.8782  -15.0746   19.1790 C   0  0  1  0  0  0  0  0  0  0  0  0
    7.6933  -13.5902   18.8985 C   0  0  0  0  0  0  0  0  0  0  0  0
    8.7411  -13.0256   17.5487 S   0  0  0  0  0  0  0  0  0  0  0  0
    7.3092  -15.3435   20.5331 C   0  0  0  0  0  0  0  0  0  0  0  0
    6.1628  -14.9465   20.8756 O   0  0  0  0  0  0  0  0  0  0  0  0
    7.5295  -17.8975   23.0772 C   0  0  0  0  0  0  0  0  0  0  0  0
    7.5192  -16.4082   22.8180 C   0  0  2  0  0  0  0  0  0  0  0  0
    8.0424  -16.0708   21.5174 N   0  0  0  0  0  0  0  0  0  0  0  0
    8.2657  -15.6575   23.8549 C   0  0  0  0  0  0  0  0  0  0  0  0
    9.5264  -15.4895   23.7752 O   0  0  0  0  0  0  0  0  0  0  0  0
    5.9582  -11.9995   27.6965 C   0  0  0  0  0  0  0  0  0  0  0  0
    6.4545  -13.2731   27.0596 C   0  0  0  0  0  0  0  0  0  0  0  0
    7.7797  -13.0685   26.3909 C   0  0  2  0  0  0  0  0  0  0  0  0
    7.6280  -12.1507   25.2023 C   0  0  0  0  0  0  0  0  0  0  0  0
    8.3863  -14.3831   26.0486 C   0  0  2  0  0  0  0  0  0  0  0  0
    7.6438  -15.0800   24.9936 N   0  0  0  0  0  0  0  0  0  0  0  0
    8.6613  -15.2745   27.1803 C   0  0  0  0  0  0  0  0  0  0  0  0
    8.0545  -16.3995   27.2271 O   0  0  0  0  0  0  0  0  0  0  0  0
    9.5246  -15.0183   28.2196 O   0  0  0  0  0  0  0  0  0  0  0  0
  2  1  1  6
  3  4  1  0
  3  2  1  0
  5  2  1  0
  6  5  2  0
  8  9  1  0
  8  7  1  1
  9  5  1  0
 10  8  1  0
 11 10  2  0
 12 13  1  0
 13 14  1  0
 14 15  1  6
 14 16  1  0
 16 18  1  0
 16 17  1  6
 17 10  1  0
 18 20  1  0
 19 18  2  0
M  END
$$$$
