CAI.pdb
     RDKit          3D

 20 19  0  0  1  0  0  0  0  0999 V2000
    4.9817  -19.1011   20.4612 N   0  0  0  0  0  0  0  0  0  0  0  0
    5.1349  -17.9455   21.2869 C   0  0  1  0  0  0  0  0  0  0  0  0
    4.2532  -18.1313   22.5134 C   0  0  0  0  0  0  0  0  0  0  0  0
    2.5036  -18.0247   22.1057 S   0  0  0  0  0  0  0  0  0  0  0  0
    6.5470  -17.8626   21.7653 C   0  0  0  0  0  0  0  0  0  0  0  0
    7.0877  -18.7812   22.4383 O   0  0  0  0  0  0  0  0  0  0  0  0
    9.6748  -16.3179   20.7584 C   0  0  0  0  0  0  0  0  0  0  0  0
    8.7351  -16.6016   21.9080 C   0  0  2  0  0  0  0  0  0  0  0  0
    7.3635  -16.7277   21.4816 N   0  0  0  0  0  0  0  0  0  0  0  0
    8.8245  -15.5697   22.9678 C   0  0  0  0  0  0  0  0  0  0  0  0
    9.1875  -14.3768   22.7048 O   0  0  0  0  0  0  0  0  0  0  0  0
    6.6994  -11.9397   26.7577 C   0  0  0  0  0  0  0  0  0  0  0  0
    7.8718  -12.8667   26.5578 C   0  0  0  0  0  0  0  0  0  0  0  0
    7.5449  -13.9579   25.5844 C   0  0  2  0  0  0  0  0  0  0  0  0
    6.3019  -14.6933   26.0230 C   0  0  0  0  0  0  0  0  0  0  0  0
    8.7235  -14.8471   25.4007 C   0  0  2  0  0  0  0  0  0  0  0  0
    8.5181  -15.8280   24.3303 N   0  0  0  0  0  0  0  0  0  0  0  0
    9.2363  -15.4882   26.6158 C   0  0  0  0  0  0  0  0  0  0  0  0
    9.0520  -16.7455   26.7617 O   0  0  0  0  0  0  0  0  0  0  0  0
    9.9106  -14.8613   27.6373 O   0  0  0  0  0  0  0  0  0  0  0  0
  2  1  1  6
  3  4  1  0
  3  2  1  0
  5  2  1  0
  6  5  2  0
  8  9  1  0
  8  7  1  6
  9  5  1  0
 10  8  1  0
 11 10  2  0
 12 13  1  0
 13 14  1  0
 14 15  1  1
 14 16  1  0
 16 18  1  0
 16 17  1  6
 17 10  1  0
 18 20  1  0
 19 18  2  0
M  END
$$$$
