CAI.pdb
     RDKit          3D

 20 19  0  0  1  0  0  0  0  0999 V2000
    7.8076  -15.3348   17.9077 N   0  0  0  0  0  0  0  0  0  0  0  0
    8.4997  -14.7857   19.0302 C   0  0  1  0  0  0  0  0  0  0  0  0
    8.3195  -13.2750   18.9929 C   0  0  0  0  0  0  0  0  0  0  0  0
    8.5636  -12.6096   17.3386 S   0  0  0  0  0  0  0  0  0  0  0  0
    7.8666  -15.2760   20.2905 C   0  0  0  0  0  0  0  0  0  0  0  0
    6.6290  -15.1763   20.5084 O   0  0  0  0  0  0  0  0  0  0  0  0
    8.2586  -17.9430   22.6132 C   0  0  0  0  0  0  0  0  0  0  0  0
    8.0701  -16.4457   22.5241 C   0  0  2  0  0  0  0  0  0  0  0  0
    8.6388  -15.8884   21.3220 N   0  0  0  0  0  0  0  0  0  0  0  0
    8.6315  -15.7428   23.7017 C   0  0  0  0  0  0  0  0  0  0  0  0
    9.8816  -15.5202   23.8090 O   0  0  0  0  0  0  0  0  0  0  0  0
    5.8500  -11.8294   26.0406 C   0  0  0  0  0  0  0  0  0  0  0  0
    6.8570  -12.8035   25.4832 C   0  0  0  0  0  0  0  0  0  0  0  0
    7.4695  -13.6358   26.5683 C   0  0  2  0  0  0  0  0  0  0  0  0
    8.1281  -12.7493   27.5971 C   0  0  0  0  0  0  0  0  0  0  0  0
    8.3924  -14.6429   25.9786 C   0  0  2  0  0  0  0  0  0  0  0  0
    7.8334  -15.2735   24.7787 N   0  0  0  0  0  0  0  0  0  0  0  0
    8.9210  -15.6470   26.9076 C   0  0  0  0  0  0  0  0  0  0  0  0
    9.8566  -15.2996   27.7076 O   0  0  0  0  0  0  0  0  0  0  0  0
    8.5038  -16.9534   27.0086 O   0  0  0  0  0  0  0  0  0  0  0  0
  2  1  1  6
  3  4  1  0
  3  2  1  0
  5  2  1  0
  6  5  2  0
  8  9  1  0
  8  7  1  1
  9  5  1  0
 10  8  1  0
 11 10  2  0
 12 13  1  0
 13 14  1  0
 14 15  1  1
 14 16  1  0
 16 18  1  0
 16 17  1  6
 17 10  1  0
 18 20  1  0
 19 18  2  0
M  END
$$$$
