CAI.pdb
     RDKit          3D

 20 19  0  0  1  0  0  0  0  0999 V2000
    7.3967  -17.8960   18.9347 N   0  0  0  0  0  0  0  0  0  0  0  0
    8.3069  -17.8111   20.0323 C   0  0  1  0  0  0  0  0  0  0  0  0
    9.3521  -16.7597   19.6883 C   0  0  0  0  0  0  0  0  0  0  0  0
   10.6857  -16.7174   20.8960 S   0  0  0  0  0  0  0  0  0  0  0  0
    7.5780  -17.3307   21.2439 C   0  0  0  0  0  0  0  0  0  0  0  0
    6.7774  -16.3576   21.2094 O   0  0  0  0  0  0  0  0  0  0  0  0
    6.6130  -18.7068   24.5561 C   0  0  0  0  0  0  0  0  0  0  0  0
    7.0692  -17.5379   23.7130 C   0  0  2  0  0  0  0  0  0  0  0  0
    7.7532  -17.9557   22.5143 N   0  0  0  0  0  0  0  0  0  0  0  0
    7.9383  -16.6089   24.4730 C   0  0  0  0  0  0  0  0  0  0  0  0
    9.2086  -16.6926   24.4181 O   0  0  0  0  0  0  0  0  0  0  0  0
    5.7506  -11.8452   26.0755 C   0  0  0  0  0  0  0  0  0  0  0  0
    6.6896  -12.8856   25.5190 C   0  0  0  0  0  0  0  0  0  0  0  0
    7.5312  -13.4945   26.5989 C   0  0  2  0  0  0  0  0  0  0  0  0
    8.4147  -12.4440   27.2266 C   0  0  0  0  0  0  0  0  0  0  0  0
    8.2871  -14.6576   26.0611 C   0  0  2  0  0  0  0  0  0  0  0  0
    7.4300  -15.5752   25.3038 N   0  0  0  0  0  0  0  0  0  0  0  0
    9.1164  -15.3838   27.0283 C   0  0  0  0  0  0  0  0  0  0  0  0
   10.2760  -14.9187   27.3023 O   0  0  0  0  0  0  0  0  0  0  0  0
    8.7664  -16.5398   27.6857 O   0  0  0  0  0  0  0  0  0  0  0  0
  2  1  1  6
  3  4  1  0
  3  2  1  0
  5  2  1  0
  6  5  2  0
  8  9  1  0
  8  7  1  1
  9  5  1  0
 10  8  1  0
 11 10  2  0
 12 13  1  0
 13 14  1  0
 14 15  1  6
 14 16  1  0
 16 18  1  0
 16 17  1  1
 17 10  1  0
 18 20  1  0
 19 18  2  0
M  END
$$$$
