CAI.pdb
     RDKit          3D

 20 19  0  0  1  0  0  0  0  0999 V2000
    7.6322  -15.4516   17.9345 N   0  0  0  0  0  0  0  0  0  0  0  0
    8.2668  -14.7922   19.0314 C   0  0  1  0  0  0  0  0  0  0  0  0
    7.8546  -13.3276   18.9940 C   0  0  0  0  0  0  0  0  0  0  0  0
    8.5283  -12.4041   20.3841 S   0  0  0  0  0  0  0  0  0  0  0  0
    7.7573  -15.3627   20.3139 C   0  0  0  0  0  0  0  0  0  0  0  0
    6.5265  -15.4864   20.5569 O   0  0  0  0  0  0  0  0  0  0  0  0
    8.5552  -17.8715   22.6573 C   0  0  0  0  0  0  0  0  0  0  0  0
    8.2109  -16.4019   22.5751 C   0  0  2  0  0  0  0  0  0  0  0  0
    8.6473  -15.8011   21.3390 N   0  0  0  0  0  0  0  0  0  0  0  0
    8.7675  -15.6350   23.7144 C   0  0  0  0  0  0  0  0  0  0  0  0
    9.9479  -15.1561   23.6797 O   0  0  0  0  0  0  0  0  0  0  0  0
    5.9228  -11.9250   25.9822 C   0  0  0  0  0  0  0  0  0  0  0  0
    6.9783  -12.8707   25.4669 C   0  0  0  0  0  0  0  0  0  0  0  0
    7.6120  -13.6422   26.5841 C   0  0  2  0  0  0  0  0  0  0  0  0
    8.2143  -12.6970   27.5951 C   0  0  0  0  0  0  0  0  0  0  0  0
    8.5884  -14.6224   26.0369 C   0  0  2  0  0  0  0  0  0  0  0  0
    8.0407  -15.3811   24.9079 N   0  0  0  0  0  0  0  0  0  0  0  0
    9.2189  -15.5124   27.0173 C   0  0  0  0  0  0  0  0  0  0  0  0
    8.7017  -16.6664   27.2090 O   0  0  0  0  0  0  0  0  0  0  0  0
   10.3347  -15.2261   27.7684 O   0  0  0  0  0  0  0  0  0  0  0  0
  2  1  1  6
  3  4  1  0
  3  2  1  0
  5  2  1  0
  6  5  2  0
  8  9  1  0
  8  7  1  1
  9  5  1  0
 10  8  1  0
 11 10  2  0
 12 13  1  0
 13 14  1  0
 14 15  1  1
 14 16  1  0
 16 18  1  0
 16 17  1  6
 17 10  1  0
 18 20  1  0
 19 18  2  0
M  END
$$$$
