CAI.pdb
     RDKit          3D

 20 19  0  0  1  0  0  0  0  0999 V2000
    7.7961  -15.4844   17.8889 N   0  0  0  0  0  0  0  0  0  0  0  0
    8.3221  -14.7211   18.9758 C   0  0  1  0  0  0  0  0  0  0  0  0
    7.7555  -13.3125   18.8709 C   0  0  0  0  0  0  0  0  0  0  0  0
    8.7058  -12.2888   17.7360 S   0  0  0  0  0  0  0  0  0  0  0  0
    7.8383  -15.2978   20.2655 C   0  0  0  0  0  0  0  0  0  0  0  0
    6.6127  -15.4298   20.5293 O   0  0  0  0  0  0  0  0  0  0  0  0
    8.7977  -17.7111   22.7293 C   0  0  0  0  0  0  0  0  0  0  0  0
    8.3359  -16.2840   22.5411 C   0  0  2  0  0  0  0  0  0  0  0  0
    8.7486  -15.7329   21.2741 N   0  0  0  0  0  0  0  0  0  0  0  0
    8.8026  -15.3990   23.6342 C   0  0  0  0  0  0  0  0  0  0  0  0
    9.9768  -14.9039   23.6328 O   0  0  0  0  0  0  0  0  0  0  0  0
    5.6883  -12.0214   27.1240 C   0  0  0  0  0  0  0  0  0  0  0  0
    6.2654  -13.1912   26.3673 C   0  0  0  0  0  0  0  0  0  0  0  0
    7.6545  -12.8991   25.8878 C   0  0  2  0  0  0  0  0  0  0  0  0
    7.6078  -12.1504   24.5781 C   0  0  0  0  0  0  0  0  0  0  0  0
    8.4458  -14.1574   25.8210 C   0  0  2  0  0  0  0  0  0  0  0  0
    7.9915  -15.0430   24.7443 N   0  0  0  0  0  0  0  0  0  0  0  0
    8.5907  -14.8892   27.0835 C   0  0  0  0  0  0  0  0  0  0  0  0
    9.1500  -14.2944   28.0682 O   0  0  0  0  0  0  0  0  0  0  0  0
    8.1772  -16.1789   27.3221 O   0  0  0  0  0  0  0  0  0  0  0  0
  2  1  1  6
  3  4  1  0
  3  2  1  0
  5  2  1  0
  6  5  2  0
  8  9  1  0
  8  7  1  1
  9  5  1  0
 10  8  1  0
 11 10  2  0
 12 13  1  0
 13 14  1  0
 14 15  1  6
 14 16  1  0
 16 18  1  0
 16 17  1  6
 17 10  1  0
 18 20  1  0
 19 18  2  0
M  END
$$$$
