CAI.pdb
     RDKit          3D

 20 19  0  0  1  0  0  0  0  0999 V2000
    8.0629  -17.0876   19.6069 N   0  0  0  0  0  0  0  0  0  0  0  0
    9.2304  -17.0272   20.4279 C   0  0  1  0  0  0  0  0  0  0  0  0
    9.8792  -15.6674   20.2130 C   0  0  0  0  0  0  0  0  0  0  0  0
   11.4527  -15.5297   21.0754 S   0  0  0  0  0  0  0  0  0  0  0  0
    8.8300  -17.1046   21.8644 C   0  0  0  0  0  0  0  0  0  0  0  0
    7.8730  -16.4335   22.3363 O   0  0  0  0  0  0  0  0  0  0  0  0
    8.8908  -19.5463   24.5432 C   0  0  0  0  0  0  0  0  0  0  0  0
    9.1405  -18.1035   24.1674 C   0  0  2  0  0  0  0  0  0  0  0  0
    9.5179  -17.9508   22.7842 N   0  0  0  0  0  0  0  0  0  0  0  0
   10.1706  -17.4745   25.0273 C   0  0  0  0  0  0  0  0  0  0  0  0
   11.4000  -17.4646   24.6922 O   0  0  0  0  0  0  0  0  0  0  0  0
    9.2527  -13.2662   28.8641 C   0  0  0  0  0  0  0  0  0  0  0  0
    9.5962  -14.6986   28.5413 C   0  0  0  0  0  0  0  0  0  0  0  0
   10.5609  -14.7840   27.3980 C   0  0  2  0  0  0  0  0  0  0  0  0
   10.0206  -14.0379   26.2025 C   0  0  0  0  0  0  0  0  0  0  0  0
   10.8844  -16.2073   27.1095 C   0  0  2  0  0  0  0  0  0  0  0  0
    9.8704  -16.8476   26.2657 N   0  0  0  0  0  0  0  0  0  0  0  0
   11.2067  -17.0385   28.2739 C   0  0  0  0  0  0  0  0  0  0  0  0
   10.4107  -17.9929   28.5763 O   0  0  0  0  0  0  0  0  0  0  0  0
   12.3023  -16.8932   29.0921 O   0  0  0  0  0  0  0  0  0  0  0  0
  2  1  1  6
  3  4  1  0
  3  2  1  0
  5  2  1  0
  6  5  2  0
  8  9  1  0
  8  7  1  1
  9  5  1  0
 10  8  1  0
 11 10  2  0
 12 13  1  0
 13 14  1  0
 14 15  1  6
 14 16  1  0
 16 18  1  0
 16 17  1  1
 17 10  1  0
 18 20  1  0
 19 18  2  0
M  END
$$$$
