CAI.pdb
     RDKit          3D

 20 19  0  0  1  0  0  0  0  0999 V2000
    7.5521  -15.0985   18.0383 N   0  0  0  0  0  0  0  0  0  0  0  0
    8.2982  -14.5301   19.1157 C   0  0  1  0  0  0  0  0  0  0  0  0
    8.0105  -13.0359   19.1420 C   0  0  0  0  0  0  0  0  0  0  0  0
    8.8073  -12.1739   17.7777 S   0  0  0  0  0  0  0  0  0  0  0  0
    7.8115  -15.0974   20.4084 C   0  0  0  0  0  0  0  0  0  0  0  0
    6.6440  -14.8946   20.8386 O   0  0  0  0  0  0  0  0  0  0  0  0
    8.6089  -17.9740   22.5541 C   0  0  0  0  0  0  0  0  0  0  0  0
    8.2194  -16.5162   22.4624 C   0  0  2  0  0  0  0  0  0  0  0  0
    8.6523  -15.9057   21.2300 N   0  0  0  0  0  0  0  0  0  0  0  0
    8.7368  -15.7287   23.6061 C   0  0  0  0  0  0  0  0  0  0  0  0
    9.9197  -15.2546   23.6054 O   0  0  0  0  0  0  0  0  0  0  0  0
    5.8137  -11.9765   25.7824 C   0  0  0  0  0  0  0  0  0  0  0  0
    6.9174  -12.8853   25.3031 C   0  0  0  0  0  0  0  0  0  0  0  0
    7.4706  -13.7105   26.4248 C   0  0  2  0  0  0  0  0  0  0  0  0
    8.0066  -12.8157   27.5157 C   0  0  0  0  0  0  0  0  0  0  0  0
    8.4778  -14.6723   25.9013 C   0  0  2  0  0  0  0  0  0  0  0  0
    7.9677  -15.4485   24.7667 N   0  0  0  0  0  0  0  0  0  0  0  0
    9.1087  -15.5433   26.8983 C   0  0  0  0  0  0  0  0  0  0  0  0
   10.0965  -15.0822   27.5675 O   0  0  0  0  0  0  0  0  0  0  0  0
    8.7382  -16.8342   27.1938 O   0  0  0  0  0  0  0  0  0  0  0  0
  2  1  1  6
  3  4  1  0
  3  2  1  0
  5  2  1  0
  6  5  2  0
  8  9  1  0
  8  7  1  1
  9  5  1  0
 10  8  1  0
 11 10  2  0
 12 13  1  0
 13 14  1  0
 14 15  1  1
 14 16  1  0
 16 18  1  0
 16 17  1  6
 17 10  1  0
 18 20  1  0
 19 18  2  0
M  END
$$$$
