WRL.pdb
     RDKit          3D

 34 35  0  0  1  0  0  0  0  0999 V2000
   23.4134  -17.9735  -16.9019 N   0  0  0  0  0  0  0  0  0  0  0  0
   22.5408  -18.1425  -15.7681 C   0  0  1  0  0  0  0  0  0  0  0  0
   21.1399  -17.7993  -16.1089 C   0  0  0  0  0  0  0  0  0  0  0  0
   20.8647  -16.3563  -16.1883 C   0  0  0  0  0  0  0  0  0  0  0  0
   21.0325  -15.5197  -17.2970 C   0  0  0  0  0  0  0  0  0  0  0  0
   20.6304  -14.3022  -16.9726 N   0  0  0  0  0  0  0  0  0  0  0  0
   20.1950  -14.2568  -15.6923 C   0  0  0  0  0  0  0  0  0  0  0  0
   19.7029  -13.2602  -14.8905 C   0  0  0  0  0  0  0  0  0  0  0  0
   19.3458  -13.5152  -13.5770 C   0  0  0  0  0  0  0  0  0  0  0  0
   19.4923  -14.7798  -13.0985 C   0  0  0  0  0  0  0  0  0  0  0  0
   19.9778  -15.7772  -13.8852 C   0  0  0  0  0  0  0  0  0  0  0  0
   20.3476  -15.5558  -15.2105 C   0  0  0  0  0  0  0  0  0  0  0  0
   22.6993  -19.5346  -15.2695 C   0  0  0  0  0  0  0  0  0  0  0  0
   22.2758  -20.5177  -15.9467 O   0  0  0  0  0  0  0  0  0  0  0  0
   26.7954  -22.3554  -15.2877 N   0  0  0  0  0  0  0  0  0  0  0  0
   27.9425  -22.1074  -14.4688 C   0  0  0  0  0  0  0  0  0  0  0  0
   29.1047  -22.5267  -14.8073 N   0  0  0  0  0  0  0  0  0  0  0  0
   27.8404  -21.3933  -13.2488 N   0  0  0  0  0  0  0  0  0  0  0  0
   26.5770  -20.9758  -12.7327 C   0  0  0  0  0  0  0  0  0  0  0  0
   25.4813  -21.9960  -12.8679 C   0  0  0  0  0  0  0  0  0  0  0  0
   24.2078  -21.3692  -12.3086 C   0  0  0  0  0  0  0  0  0  0  0  0
   23.2071  -21.0833  -13.3662 C   0  0  2  0  0  0  0  0  0  0  0  0
   23.3271  -19.8047  -14.0113 N   0  0  0  0  0  0  0  0  0  0  0  0
   21.8370  -21.3558  -12.8514 C   0  0  0  0  0  0  0  0  0  0  0  0
   21.3001  -20.5747  -12.0575 O   0  0  0  0  0  0  0  0  0  0  0  0
   29.9222  -22.3185  -14.1960 C   0  0  0  0  0  0  0  0  0  0  0  0
   16.9453  -21.0925  -12.2270 C   0  0  2  0  0  0  0  0  0  0  0  0
   17.4844  -21.7642  -13.4503 C   0  0  0  0  0  0  0  0  0  0  0  0
   16.8426  -21.0955  -14.6719 C   0  0  0  0  0  0  0  0  0  0  0  0
   18.9651  -21.6715  -13.5921 C   0  0  1  0  0  0  0  0  0  0  0  0
   19.7544  -22.7586  -12.9498 N   0  0  0  0  0  0  0  0  0  0  0  0
   21.1514  -22.5148  -13.2780 C   0  0  0  0  0  0  0  0  0  0  0  0
   19.3744  -24.0861  -13.4564 O   0  0  0  0  0  0  0  0  0  0  0  0
   18.2989  -24.6116  -13.0371 O   0  0  0  0  0  0  0  0  0  0  0  0
  2  1  1  6
  2  3  1  0
  4  5  2  0
  4  3  1  0
  6  5  1  0
  7 12  2  0
  7  6  1  0
  8  7  1  0
  9 10  1  0
  9  8  2  0
 10 11  2  0
 11 12  1  0
 12  4  1  0
 13 23  1  0
 13  2  1  0
 14 13  2  0
 16 15  1  0
 17 16  2  0
 18 16  1  0
 19 20  1  0
 19 18  1  0
 20 21  1  0
 22 21  1  1
 22 24  1  0
 22 23  1  0
 24 31  1  0
 25 24  2  0
 27 26  1  1
 27 28  1  0
 29 27  1  0
 30 32  1  0
 30 29  1  1
 31 30  1  0
 32 34  1  0
 33 32  2  0
M  END
$$$$
