WRL.pdb
     RDKit          3D

 34 35  0  0  1  0  0  0  0  0999 V2000
   22.4325  -18.7231  -17.5800 N   0  0  0  0  0  0  0  0  0  0  0  0
   23.7081  -18.5984  -16.9221 C   0  0  1  0  0  0  0  0  0  0  0  0
   23.5711  -17.9489  -15.5970 C   0  0  0  0  0  0  0  0  0  0  0  0
   23.5891  -16.4783  -15.6309 C   0  0  0  0  0  0  0  0  0  0  0  0
   22.4898  -15.6143  -15.5824 C   0  0  0  0  0  0  0  0  0  0  0  0
   22.9313  -14.3676  -15.5909 N   0  0  0  0  0  0  0  0  0  0  0  0
   24.2826  -14.3286  -15.6455 C   0  0  0  0  0  0  0  0  0  0  0  0
   25.2032  -13.3141  -15.6889 C   0  0  0  0  0  0  0  0  0  0  0  0
   26.5591  -13.5867  -15.7612 C   0  0  0  0  0  0  0  0  0  0  0  0
   26.9592  -14.8863  -15.7863 C   0  0  0  0  0  0  0  0  0  0  0  0
   26.0551  -15.9013  -15.7419 C   0  0  0  0  0  0  0  0  0  0  0  0
   24.6839  -15.6631  -15.6698 C   0  0  0  0  0  0  0  0  0  0  0  0
   24.3235  -19.9504  -16.8522 C   0  0  0  0  0  0  0  0  0  0  0  0
   23.6137  -20.9746  -16.6253 O   0  0  0  0  0  0  0  0  0  0  0  0
   30.0554  -24.6994  -15.2291 N   0  0  0  0  0  0  0  0  0  0  0  0
   30.0378  -25.2603  -16.5456 C   0  0  0  0  0  0  0  0  0  0  0  0
   29.9599  -26.5258  -16.7286 N   0  0  0  0  0  0  0  0  0  0  0  0
   30.1107  -24.4411  -17.7000 N   0  0  0  0  0  0  0  0  0  0  0  0
   29.5484  -23.1296  -17.7202 C   0  0  0  0  0  0  0  0  0  0  0  0
   28.2055  -23.0175  -17.0541 C   0  0  0  0  0  0  0  0  0  0  0  0
   27.7321  -21.5778  -17.2295 C   0  0  0  0  0  0  0  0  0  0  0  0
   26.3926  -21.3471  -16.6344 C   0  0  2  0  0  0  0  0  0  0  0  0
   25.7320  -20.1343  -17.0323 N   0  0  0  0  0  0  0  0  0  0  0  0
   26.4594  -21.5227  -15.1575 C   0  0  0  0  0  0  0  0  0  0  0  0
   27.1021  -20.7283  -14.4614 O   0  0  0  0  0  0  0  0  0  0  0  0
   29.9234  -26.9015  -17.6996 C   0  0  0  0  0  0  0  0  0  0  0  0
   22.9541  -20.3317  -12.2047 C   0  0  2  0  0  0  0  0  0  0  0  0
   24.2954  -20.8061  -12.6675 C   0  0  0  0  0  0  0  0  0  0  0  0
   25.3552  -20.1653  -11.7634 C   0  0  0  0  0  0  0  0  0  0  0  0
   24.4691  -22.2853  -12.6135 C   0  0  2  0  0  0  0  0  0  0  0  0
   25.7694  -22.8113  -13.1135 N   0  0  0  0  0  0  0  0  0  0  0  0
   25.7808  -22.6048  -14.5543 C   0  0  0  0  0  0  0  0  0  0  0  0
   25.9218  -24.2485  -12.8405 O   0  0  0  0  0  0  0  0  0  0  0  0
   25.7894  -25.0668  -13.8005 O   0  0  0  0  0  0  0  0  0  0  0  0
  2  1  1  1
  2  3  1  0
  4  5  2  0
  4  3  1  0
  6  5  1  0
  7 12  2  0
  7  6  1  0
  8  7  1  0
  9 10  1  0
  9  8  2  0
 10 11  2  0
 11 12  1  0
 12  4  1  0
 13 23  1  0
 13  2  1  0
 14 13  2  0
 16 15  1  0
 17 16  2  0
 18 16  1  0
 19 20  1  0
 19 18  1  0
 20 21  1  0
 22 21  1  1
 22 24  1  0
 22 23  1  0
 24 31  1  0
 25 24  2  0
 27 26  1  6
 27 28  1  0
 29 27  1  0
 30 32  1  0
 30 29  1  1
 31 30  1  0
 32 34  1  0
 33 32  2  0
M  END
$$$$
