WRL.pdb
     RDKit          3D

 34 35  0  0  1  0  0  0  0  0999 V2000
   19.3085  -18.0420  -16.2933 N   0  0  0  0  0  0  0  0  0  0  0  0
   20.5461  -17.3855  -15.9572 C   0  0  1  0  0  0  0  0  0  0  0  0
   20.3592  -16.4123  -14.8553 C   0  0  0  0  0  0  0  0  0  0  0  0
   19.6684  -15.1728  -15.2434 C   0  0  0  0  0  0  0  0  0  0  0  0
   18.4272  -14.7145  -14.7889 C   0  0  0  0  0  0  0  0  0  0  0  0
   18.1817  -13.5390  -15.3434 N   0  0  0  0  0  0  0  0  0  0  0  0
   19.1925  -13.1643  -16.1609 C   0  0  0  0  0  0  0  0  0  0  0  0
   19.4146  -12.0722  -16.9588 C   0  0  0  0  0  0  0  0  0  0  0  0
   20.5679  -11.9691  -17.7185 C   0  0  0  0  0  0  0  0  0  0  0  0
   21.4792  -12.9765  -17.6546 C   0  0  0  0  0  0  0  0  0  0  0  0
   21.2707  -14.0642  -16.8652 C   0  0  0  0  0  0  0  0  0  0  0  0
   20.1216  -14.2008  -16.0887 C   0  0  0  0  0  0  0  0  0  0  0  0
   21.5541  -18.4347  -15.6490 C   0  0  0  0  0  0  0  0  0  0  0  0
   21.2143  -19.5108  -15.0739 O   0  0  0  0  0  0  0  0  0  0  0  0
   28.7555  -21.0673  -14.6117 N   0  0  0  0  0  0  0  0  0  0  0  0
   28.8552  -21.7429  -15.8694 C   0  0  0  0  0  0  0  0  0  0  0  0
   29.4959  -22.8464  -15.9828 N   0  0  0  0  0  0  0  0  0  0  0  0
   28.2545  -21.2181  -17.0410 N   0  0  0  0  0  0  0  0  0  0  0  0
   27.3686  -20.1005  -16.9882 C   0  0  0  0  0  0  0  0  0  0  0  0
   26.1250  -20.3296  -16.1754 C   0  0  0  0  0  0  0  0  0  0  0  0
   25.2218  -19.1169  -16.3784 C   0  0  0  0  0  0  0  0  0  0  0  0
   23.9204  -19.2585  -15.6800 C   0  0  2  0  0  0  0  0  0  0  0  0
   22.9345  -18.2585  -15.9858 N   0  0  0  0  0  0  0  0  0  0  0  0
   24.1481  -19.4320  -14.2189 C   0  0  0  0  0  0  0  0  0  0  0  0
   24.5470  -18.4851  -13.5311 O   0  0  0  0  0  0  0  0  0  0  0  0
   29.5780  -23.2970  -16.9185 C   0  0  0  0  0  0  0  0  0  0  0  0
   20.3882  -20.9345  -11.1327 C   0  0  2  0  0  0  0  0  0  0  0  0
   21.6960  -20.3919  -11.6160 C   0  0  0  0  0  0  0  0  0  0  0  0
   22.1151  -19.2654  -10.6637 C   0  0  0  0  0  0  0  0  0  0  0  0
   22.7937  -21.3992  -11.6584 C   0  0  2  0  0  0  0  0  0  0  0  0
   24.0979  -20.9249  -12.1982 N   0  0  0  0  0  0  0  0  0  0  0  0
   23.9033  -20.6882  -13.6212 C   0  0  0  0  0  0  0  0  0  0  0  0
   25.1605  -21.9274  -12.0266 O   0  0  0  0  0  0  0  0  0  0  0  0
   25.6103  -22.5182  -13.0548 O   0  0  0  0  0  0  0  0  0  0  0  0
  2  1  1  1
  2  3  1  0
  4  5  2  0
  4  3  1  0
  6  5  1  0
  7 12  2  0
  7  6  1  0
  8  7  1  0
  9 10  1  0
  9  8  2  0
 10 11  2  0
 11 12  1  0
 12  4  1  0
 13 23  1  0
 13  2  1  0
 14 13  2  0
 16 15  1  0
 17 16  2  0
 18 16  1  0
 19 20  1  0
 19 18  1  0
 20 21  1  0
 22 21  1  6
 22 24  1  0
 22 23  1  0
 24 31  1  0
 25 24  2  0
 27 26  1  6
 27 28  1  0
 29 27  1  0
 30 32  1  0
 30 29  1  1
 31 30  1  0
 32 34  1  0
 33 32  2  0
M  END
$$$$
