WRL.pdb
     RDKit          3D

 34 35  0  0  1  0  0  0  0  0999 V2000
   24.7391  -19.0798  -16.6668 N   0  0  0  0  0  0  0  0  0  0  0  0
   24.6641  -19.2921  -15.2439 C   0  0  1  0  0  0  0  0  0  0  0  0
   23.3082  -19.7279  -14.8337 C   0  0  0  0  0  0  0  0  0  0  0  0
   22.2742  -18.6861  -14.9319 C   0  0  0  0  0  0  0  0  0  0  0  0
   21.8761  -17.9903  -16.0784 C   0  0  0  0  0  0  0  0  0  0  0  0
   20.8884  -17.1723  -15.7549 N   0  0  0  0  0  0  0  0  0  0  0  0
   20.5864  -17.2679  -14.4395 C   0  0  0  0  0  0  0  0  0  0  0  0
   19.6780  -16.6435  -13.6250 C   0  0  0  0  0  0  0  0  0  0  0  0
   19.6097  -16.9430  -12.2746 C   0  0  0  0  0  0  0  0  0  0  0  0
   20.4644  -17.8741  -11.7725 C   0  0  0  0  0  0  0  0  0  0  0  0
   21.3688  -18.5016  -12.5713 C   0  0  0  0  0  0  0  0  0  0  0  0
   21.4654  -18.2240  -13.9335 C   0  0  0  0  0  0  0  0  0  0  0  0
   25.7302  -20.2577  -14.8662 C   0  0  0  0  0  0  0  0  0  0  0  0
   25.6697  -21.4674  -15.2366 O   0  0  0  0  0  0  0  0  0  0  0  0
   31.2709  -23.1008   -9.6085 N   0  0  0  0  0  0  0  0  0  0  0  0
   32.1085  -22.7825  -10.7245 C   0  0  0  0  0  0  0  0  0  0  0  0
   33.0671  -23.5551  -11.0785 N   0  0  0  0  0  0  0  0  0  0  0  0
   31.9160  -21.5992  -11.4805 N   0  0  0  0  0  0  0  0  0  0  0  0
   30.7833  -20.7568  -11.2713 C   0  0  0  0  0  0  0  0  0  0  0  0
   29.4793  -21.3385  -11.7412 C   0  0  0  0  0  0  0  0  0  0  0  0
   28.8036  -20.2870  -12.6159 C   0  0  0  0  0  0  0  0  0  0  0  0
   27.5262  -20.7704  -13.1957 C   0  0  2  0  0  0  0  0  0  0  0  0
   26.8496  -19.8527  -14.0706 N   0  0  0  0  0  0  0  0  0  0  0  0
   26.6523  -21.3056  -12.1157 C   0  0  0  0  0  0  0  0  0  0  0  0
   26.3805  -22.5109  -12.0704 O   0  0  0  0  0  0  0  0  0  0  0  0
   33.6908  -23.2707  -11.8630 C   0  0  0  0  0  0  0  0  0  0  0  0
   27.4349  -19.0418   -7.3356 C   0  0  1  0  0  0  0  0  0  0  0  0
   27.1182  -20.0279   -8.4153 C   0  0  0  0  0  0  0  0  0  0  0  0
   27.4405  -21.4277   -7.8788 C   0  0  0  0  0  0  0  0  0  0  0  0
   25.6938  -20.0129   -8.8535 C   0  0  2  0  0  0  0  0  0  0  0  0
   25.3529  -20.8939  -10.0046 N   0  0  0  0  0  0  0  0  0  0  0  0
   26.1353  -20.4256  -11.1392 C   0  0  0  0  0  0  0  0  0  0  0  0
   23.9254  -20.8175  -10.3508 O   0  0  0  0  0  0  0  0  0  0  0  0
   23.0712  -21.1977   -9.4939 O   0  0  0  0  0  0  0  0  0  0  0  0
  2  1  1  6
  2  3  1  0
  4  5  2  0
  4  3  1  0
  6  5  1  0
  7 12  2  0
  7  6  1  0
  8  7  1  0
  9 10  1  0
  9  8  2  0
 10 11  2  0
 11 12  1  0
 12  4  1  0
 13 23  1  0
 13  2  1  0
 14 13  2  0
 16 15  1  0
 17 16  2  0
 18 16  1  0
 19 20  1  0
 19 18  1  0
 20 21  1  0
 22 21  1  1
 22 24  1  0
 22 23  1  0
 24 31  1  0
 25 24  2  0
 27 26  1  6
 27 28  1  0
 29 27  1  0
 30 32  1  0
 30 29  1  1
 31 30  1  0
 32 34  1  0
 33 32  2  0
M  END
$$$$
