WRL.pdb
     RDKit          3D

 34 35  0  0  1  0  0  0  0  0999 V2000
   26.3717  -20.3154  -12.0613 N   0  0  0  0  0  0  0  0  0  0  0  0
   25.4039  -21.1494  -11.3955 C   0  0  1  0  0  0  0  0  0  0  0  0
   25.6319  -21.1781   -9.9314 C   0  0  0  0  0  0  0  0  0  0  0  0
   27.0476  -21.2027   -9.5323 C   0  0  0  0  0  0  0  0  0  0  0  0
   28.1142  -21.7889  -10.2223 C   0  0  0  0  0  0  0  0  0  0  0  0
   29.2310  -21.5519   -9.5544 N   0  0  0  0  0  0  0  0  0  0  0  0
   28.9869  -20.8323   -8.4349 C   0  0  0  0  0  0  0  0  0  0  0  0
   29.7764  -20.3519   -7.4229 C   0  0  0  0  0  0  0  0  0  0  0  0
   29.2272  -19.6429   -6.3676 C   0  0  0  0  0  0  0  0  0  0  0  0
   27.8838  -19.4311   -6.3577 C   0  0  0  0  0  0  0  0  0  0  0  0
   27.0905  -19.9014   -7.3573 C   0  0  0  0  0  0  0  0  0  0  0  0
   27.6095  -20.6190   -8.4332 C   0  0  0  0  0  0  0  0  0  0  0  0
   24.0474  -20.6674  -11.7689 C   0  0  0  0  0  0  0  0  0  0  0  0
   23.4178  -19.8612  -11.0220 O   0  0  0  0  0  0  0  0  0  0  0  0
   23.5369  -15.6478  -16.0533 N   0  0  0  0  0  0  0  0  0  0  0  0
   23.7803  -16.8473  -16.7950 C   0  0  0  0  0  0  0  0  0  0  0  0
   24.8226  -16.9760  -17.5285 N   0  0  0  0  0  0  0  0  0  0  0  0
   22.8777  -17.9394  -16.7529 N   0  0  0  0  0  0  0  0  0  0  0  0
   21.7485  -17.9401  -15.8803 C   0  0  0  0  0  0  0  0  0  0  0  0
   22.0175  -18.5065  -14.5141 C   0  0  0  0  0  0  0  0  0  0  0  0
   21.9156  -20.0247  -14.6255 C   0  0  0  0  0  0  0  0  0  0  0  0
   22.0745  -20.6993  -13.3135 C   0  0  2  0  0  0  0  0  0  0  0  0
   23.4118  -21.1029  -12.9758 N   0  0  0  0  0  0  0  0  0  0  0  0
   21.0790  -21.7992  -13.1878 C   0  0  0  0  0  0  0  0  0  0  0  0
   21.3678  -22.9479  -13.5424 O   0  0  0  0  0  0  0  0  0  0  0  0
   24.9600  -17.8530  -18.0736 C   0  0  0  0  0  0  0  0  0  0  0  0
   18.5252  -24.0144   -8.9881 C   0  0  1  0  0  0  0  0  0  0  0  0
   19.0971  -23.7642  -10.3477 C   0  0  0  0  0  0  0  0  0  0  0  0
   18.9331  -25.0496  -11.1675 C   0  0  0  0  0  0  0  0  0  0  0  0
   18.4386  -22.6513  -11.0888 C   0  0  2  0  0  0  0  0  0  0  0  0
   18.7686  -22.5426  -12.5368 N   0  0  0  0  0  0  0  0  0  0  0  0
   19.7993  -21.5219  -12.6581 C   0  0  0  0  0  0  0  0  0  0  0  0
   17.6033  -22.1352  -13.3365 O   0  0  0  0  0  0  0  0  0  0  0  0
   17.3878  -20.8974  -13.5096 O   0  0  0  0  0  0  0  0  0  0  0  0
  2  1  1  6
  2  3  1  0
  4  5  2  0
  4  3  1  0
  6  5  1  0
  7 12  2  0
  7  6  1  0
  8  7  1  0
  9 10  1  0
  9  8  2  0
 10 11  2  0
 11 12  1  0
 12  4  1  0
 13 23  1  0
 13  2  1  0
 14 13  2  0
 16 15  1  0
 17 16  2  0
 18 16  1  0
 19 20  1  0
 19 18  1  0
 20 21  1  0
 22 21  1  6
 22 24  1  0
 22 23  1  0
 24 31  1  0
 25 24  2  0
 27 26  1  1
 27 28  1  0
 29 27  1  0
 30 32  1  0
 30 29  1  1
 31 30  1  0
 32 34  1  0
 33 32  2  0
M  END
$$$$
