WRL.pdb
     RDKit          3D

 34 35  0  0  1  0  0  0  0  0999 V2000
   17.8448  -22.1580  -13.1222 N   0  0  0  0  0  0  0  0  0  0  0  0
   19.0778  -22.6966  -12.6073 C   0  0  1  0  0  0  0  0  0  0  0  0
   19.7584  -21.7292  -11.7144 C   0  0  0  0  0  0  0  0  0  0  0  0
   20.3179  -20.5531  -12.3983 C   0  0  0  0  0  0  0  0  0  0  0  0
   19.8263  -19.2435  -12.3745 C   0  0  0  0  0  0  0  0  0  0  0  0
   20.6392  -18.4740  -13.0791 N   0  0  0  0  0  0  0  0  0  0  0  0
   21.6675  -19.1894  -13.5905 C   0  0  0  0  0  0  0  0  0  0  0  0
   22.7428  -18.8766  -14.3806 C   0  0  0  0  0  0  0  0  0  0  0  0
   23.6462  -19.8511  -14.7706 C   0  0  0  0  0  0  0  0  0  0  0  0
   23.4443  -21.1286  -14.3503 C   0  0  0  0  0  0  0  0  0  0  0  0
   22.3819  -21.4506  -13.5646 C   0  0  0  0  0  0  0  0  0  0  0  0
   21.4534  -20.4958  -13.1544 C   0  0  0  0  0  0  0  0  0  0  0  0
   18.7721  -23.9924  -11.9446 C   0  0  0  0  0  0  0  0  0  0  0  0
   17.7846  -24.1015  -11.1591 O   0  0  0  0  0  0  0  0  0  0  0  0
   22.4771  -31.8331  -10.9292 N   0  0  0  0  0  0  0  0  0  0  0  0
   21.0868  -32.1693  -10.9759 C   0  0  0  0  0  0  0  0  0  0  0  0
   20.6550  -33.2807  -10.5076 N   0  0  0  0  0  0  0  0  0  0  0  0
   20.1317  -31.2905  -11.5456 N   0  0  0  0  0  0  0  0  0  0  0  0
   20.4881  -29.9751  -11.9690 C   0  0  0  0  0  0  0  0  0  0  0  0
   19.6461  -28.8803  -11.3755 C   0  0  0  0  0  0  0  0  0  0  0  0
   20.0420  -27.5794  -12.0672 C   0  0  0  0  0  0  0  0  0  0  0  0
   19.2926  -26.4106  -11.5440 C   0  0  2  0  0  0  0  0  0  0  0  0
   19.5849  -25.1497  -12.1686 N   0  0  0  0  0  0  0  0  0  0  0  0
   19.3950  -26.3689  -10.0593 C   0  0  0  0  0  0  0  0  0  0  0  0
   20.4469  -26.0151   -9.5144 O   0  0  0  0  0  0  0  0  0  0  0  0
   19.6548  -33.5391  -10.6423 C   0  0  0  0  0  0  0  0  0  0  0  0
   16.1338  -23.6001   -7.1348 C   0  0  2  0  0  0  0  0  0  0  0  0
   17.3493  -24.3977   -7.4885 C   0  0  0  0  0  0  0  0  0  0  0  0
   18.4743  -23.9839   -6.5323 C   0  0  0  0  0  0  0  0  0  0  0  0
   17.1621  -25.8722   -7.3782 C   0  0  2  0  0  0  0  0  0  0  0  0
   18.3090  -26.7132   -7.8194 N   0  0  0  0  0  0  0  0  0  0  0  0
   18.2792  -26.7357   -9.2745 C   0  0  0  0  0  0  0  0  0  0  0  0
   18.2010  -28.0934   -7.3228 O   0  0  0  0  0  0  0  0  0  0  0  0
   17.7513  -28.9865   -8.1031 O   0  0  0  0  0  0  0  0  0  0  0  0
  2  1  1  1
  2  3  1  0
  4  5  2  0
  4  3  1  0
  6  5  1  0
  7 12  2  0
  7  6  1  0
  8  7  1  0
  9 10  1  0
  9  8  2  0
 10 11  2  0
 11 12  1  0
 12  4  1  0
 13 23  1  0
 13  2  1  0
 14 13  2  0
 16 15  1  0
 17 16  2  0
 18 16  1  0
 19 20  1  0
 19 18  1  0
 20 21  1  0
 22 21  1  6
 22 24  1  0
 22 23  1  0
 24 31  1  0
 25 24  2  0
 27 26  1  6
 27 28  1  0
 29 27  1  0
 30 32  1  0
 30 29  1  6
 31 30  1  0
 32 34  1  0
 33 32  2  0
M  END
$$$$
