WRL.pdb
     RDKit          3D

 34 35  0  0  1  0  0  0  0  0999 V2000
   27.5952  -22.6341  -12.8323 N   0  0  0  0  0  0  0  0  0  0  0  0
   26.6554  -21.6444  -12.3712 C   0  0  1  0  0  0  0  0  0  0  0  0
   27.3412  -20.3915  -11.9754 C   0  0  0  0  0  0  0  0  0  0  0  0
   28.1594  -20.4996  -10.7576 C   0  0  0  0  0  0  0  0  0  0  0  0
   29.5203  -20.8128  -10.6741 C   0  0  0  0  0  0  0  0  0  0  0  0
   29.8882  -20.7640   -9.4046 N   0  0  0  0  0  0  0  0  0  0  0  0
   28.8464  -20.4345   -8.6067 C   0  0  0  0  0  0  0  0  0  0  0  0
   28.7000  -20.2702   -7.2540 C   0  0  0  0  0  0  0  0  0  0  0  0
   27.4717  -19.9392   -6.7064 C   0  0  0  0  0  0  0  0  0  0  0  0
   26.4110  -19.7783   -7.5421 C   0  0  0  0  0  0  0  0  0  0  0  0
   26.5445  -19.9369   -8.8863 C   0  0  0  0  0  0  0  0  0  0  0  0
   27.7649  -20.2705   -9.4706 C   0  0  0  0  0  0  0  0  0  0  0  0
   25.6378  -21.4448  -13.4372 C   0  0  0  0  0  0  0  0  0  0  0  0
   25.9576  -20.9328  -14.5507 O   0  0  0  0  0  0  0  0  0  0  0  0
   21.3964  -27.4231  -13.3529 N   0  0  0  0  0  0  0  0  0  0  0  0
   20.5037  -26.4691  -13.9371 C   0  0  0  0  0  0  0  0  0  0  0  0
   19.2565  -26.4593  -13.6450 N   0  0  0  0  0  0  0  0  0  0  0  0
   20.9604  -25.5000  -14.8652 N   0  0  0  0  0  0  0  0  0  0  0  0
   22.3448  -25.1740  -14.9822 C   0  0  0  0  0  0  0  0  0  0  0  0
   22.7915  -24.0327  -14.1118 C   0  0  0  0  0  0  0  0  0  0  0  0
   22.8003  -22.7780  -14.9798 C   0  0  0  0  0  0  0  0  0  0  0  0
   23.2673  -21.5810  -14.2378 C   0  0  2  0  0  0  0  0  0  0  0  0
   24.2702  -21.8180  -13.2361 N   0  0  0  0  0  0  0  0  0  0  0  0
   22.0969  -20.8149  -13.7280 C   0  0  0  0  0  0  0  0  0  0  0  0
   21.7350  -20.9345  -12.5519 O   0  0  0  0  0  0  0  0  0  0  0  0
   18.6313  -25.7566  -14.0928 C   0  0  0  0  0  0  0  0  0  0  0  0
   20.8013  -15.8970  -16.0519 C   0  0  2  0  0  0  0  0  0  0  0  0
   20.9993  -16.9792  -15.0380 C   0  0  0  0  0  0  0  0  0  0  0  0
   20.8460  -16.3508  -13.6477 C   0  0  0  0  0  0  0  0  0  0  0  0
   20.0276  -18.1036  -15.1514 C   0  0  2  0  0  0  0  0  0  0  0  0
   20.2065  -19.2241  -14.1871 N   0  0  0  0  0  0  0  0  0  0  0  0
   21.4012  -19.9467  -14.5985 C   0  0  0  0  0  0  0  0  0  0  0  0
   19.0643  -20.1507  -14.2038 O   0  0  0  0  0  0  0  0  0  0  0  0
   19.1048  -21.1513  -14.9821 O   0  0  0  0  0  0  0  0  0  0  0  0
  2  1  1  6
  2  3  1  0
  4  5  2  0
  4  3  1  0
  6  5  1  0
  7 12  2  0
  7  6  1  0
  8  7  1  0
  9 10  1  0
  9  8  2  0
 10 11  2  0
 11 12  1  0
 12  4  1  0
 13 23  1  0
 13  2  1  0
 14 13  2  0
 16 15  1  0
 17 16  2  0
 18 16  1  0
 19 20  1  0
 19 18  1  0
 20 21  1  0
 22 21  1  1
 22 24  1  0
 22 23  1  0
 24 31  1  0
 25 24  2  0
 27 26  1  1
 27 28  1  0
 29 27  1  0
 30 32  1  0
 30 29  1  1
 31 30  1  0
 32 34  1  0
 33 32  2  0
M  END
$$$$
