WRL.pdb
     RDKit          3D

 34 35  0  0  1  0  0  0  0  0999 V2000
   27.0131  -18.5300  -11.9198 N   0  0  0  0  0  0  0  0  0  0  0  0
   27.4078  -19.8924  -12.1716 C   0  0  1  0  0  0  0  0  0  0  0  0
   26.5316  -20.8496  -11.4559 C   0  0  0  0  0  0  0  0  0  0  0  0
   26.3883  -20.5894  -10.0150 C   0  0  0  0  0  0  0  0  0  0  0  0
   25.2006  -20.3988   -9.3007 C   0  0  0  0  0  0  0  0  0  0  0  0
   25.4976  -20.2383   -8.0218 N   0  0  0  0  0  0  0  0  0  0  0  0
   26.8335  -20.3065   -7.8187 C   0  0  0  0  0  0  0  0  0  0  0  0
   27.6335  -20.1933   -6.7116 C   0  0  0  0  0  0  0  0  0  0  0  0
   29.0109  -20.2929   -6.8162 C   0  0  0  0  0  0  0  0  0  0  0  0
   29.5545  -20.5081   -8.0441 C   0  0  0  0  0  0  0  0  0  0  0  0
   28.7706  -20.6240   -9.1495 C   0  0  0  0  0  0  0  0  0  0  0  0
   27.3821  -20.5281   -9.0807 C   0  0  0  0  0  0  0  0  0  0  0  0
   27.4258  -20.1012  -13.6440 C   0  0  0  0  0  0  0  0  0  0  0  0
   26.5445  -19.5724  -14.3843 O   0  0  0  0  0  0  0  0  0  0  0  0
   29.8873  -27.4570  -16.5754 N   0  0  0  0  0  0  0  0  0  0  0  0
   29.0044  -26.9269  -17.5693 C   0  0  0  0  0  0  0  0  0  0  0  0
   28.0934  -27.6514  -18.1044 N   0  0  0  0  0  0  0  0  0  0  0  0
   29.1038  -25.5822  -18.0060 N   0  0  0  0  0  0  0  0  0  0  0  0
   29.5077  -24.5386  -17.1204 C   0  0  0  0  0  0  0  0  0  0  0  0
   28.5859  -24.3209  -15.9531 C   0  0  0  0  0  0  0  0  0  0  0  0
   29.1004  -23.1035  -15.1909 C   0  0  0  0  0  0  0  0  0  0  0  0
   28.0926  -22.0172  -15.1148 C   0  0  2  0  0  0  0  0  0  0  0  0
   28.4318  -20.9079  -14.2664 N   0  0  0  0  0  0  0  0  0  0  0  0
   26.7513  -22.5929  -14.8217 C   0  0  0  0  0  0  0  0  0  0  0  0
   26.4189  -22.8436  -13.6575 O   0  0  0  0  0  0  0  0  0  0  0  0
   27.5027  -27.2528  -18.8643 C   0  0  0  0  0  0  0  0  0  0  0  0
   22.0574  -22.8358  -13.6258 C   0  0  2  0  0  0  0  0  0  0  0  0
   22.4157  -21.9052  -14.7411 C   0  0  0  0  0  0  0  0  0  0  0  0
   21.9788  -20.4938  -14.3307 C   0  0  0  0  0  0  0  0  0  0  0  0
   23.8714  -21.8689  -15.0586 C   0  0  1  0  0  0  0  0  0  0  0  0
   24.4405  -23.1031  -15.6671 N   0  0  0  0  0  0  0  0  0  0  0  0
   25.8574  -22.8503  -15.8847 C   0  0  0  0  0  0  0  0  0  0  0  0
   23.8125  -23.4181  -16.9593 O   0  0  0  0  0  0  0  0  0  0  0  0
   22.9310  -24.3290  -17.0005 O   0  0  0  0  0  0  0  0  0  0  0  0
  2  1  1  6
  2  3  1  0
  4  5  2  0
  4  3  1  0
  6  5  1  0
  7 12  2  0
  7  6  1  0
  8  7  1  0
  9 10  1  0
  9  8  2  0
 10 11  2  0
 11 12  1  0
 12  4  1  0
 13 23  1  0
 13  2  1  0
 14 13  2  0
 16 15  1  0
 17 16  2  0
 18 16  1  0
 19 20  1  0
 19 18  1  0
 20 21  1  0
 22 21  1  1
 22 24  1  0
 22 23  1  0
 24 31  1  0
 25 24  2  0
 27 26  1  6
 27 28  1  0
 29 27  1  0
 30 32  1  0
 30 29  1  1
 31 30  1  0
 32 34  1  0
 33 32  2  0
M  END
$$$$
