WRL.pdb
     RDKit          3D

 34 35  0  0  1  0  0  0  0  0999 V2000
   27.1894  -22.6511  -12.9629 N   0  0  0  0  0  0  0  0  0  0  0  0
   26.2425  -21.7382  -12.3752 C   0  0  1  0  0  0  0  0  0  0  0  0
   26.8792  -20.4433  -12.0371 C   0  0  0  0  0  0  0  0  0  0  0  0
   27.7959  -20.4932  -10.8876 C   0  0  0  0  0  0  0  0  0  0  0  0
   29.1427  -20.8719  -10.8915 C   0  0  0  0  0  0  0  0  0  0  0  0
   29.6233  -20.7369   -9.6667 N   0  0  0  0  0  0  0  0  0  0  0  0
   28.6727  -20.2855   -8.8163 C   0  0  0  0  0  0  0  0  0  0  0  0
   28.6544  -20.0006   -7.4758 C   0  0  0  0  0  0  0  0  0  0  0  0
   27.4963  -19.5587   -6.8583 C   0  0  0  0  0  0  0  0  0  0  0  0
   26.3745  -19.4109   -7.6128 C   0  0  0  0  0  0  0  0  0  0  0  0
   26.3810  -19.6887   -8.9441 C   0  0  0  0  0  0  0  0  0  0  0  0
   27.5280  -20.1359   -9.5972 C   0  0  0  0  0  0  0  0  0  0  0  0
   25.0946  -21.6011  -13.3108 C   0  0  0  0  0  0  0  0  0  0  0  0
   25.2077  -20.9349  -14.3821 O   0  0  0  0  0  0  0  0  0  0  0  0
   25.6518  -25.7925  -15.6039 N   0  0  0  0  0  0  0  0  0  0  0  0
   25.2676  -25.2042  -16.8507 C   0  0  0  0  0  0  0  0  0  0  0  0
   25.7050  -25.6612  -17.9647 N   0  0  0  0  0  0  0  0  0  0  0  0
   24.3927  -24.0905  -16.9050 N   0  0  0  0  0  0  0  0  0  0  0  0
   23.8086  -23.5429  -15.7236 C   0  0  0  0  0  0  0  0  0  0  0  0
   22.4305  -24.0575  -15.4141 C   0  0  0  0  0  0  0  0  0  0  0  0
   21.9371  -23.3139  -14.1767 C   0  0  0  0  0  0  0  0  0  0  0  0
   22.7097  -22.0741  -13.9171 C   0  0  2  0  0  0  0  0  0  0  0  0
   23.8302  -22.2102  -13.0274 N   0  0  0  0  0  0  0  0  0  0  0  0
   21.7836  -20.9738  -13.5319 C   0  0  0  0  0  0  0  0  0  0  0  0
   21.5369  -20.7518  -12.3409 O   0  0  0  0  0  0  0  0  0  0  0  0
   25.4148  -25.2043  -18.8548 C   0  0  0  0  0  0  0  0  0  0  0  0
   21.3940  -16.4395  -16.7835 C   0  0  1  0  0  0  0  0  0  0  0  0
   21.4418  -17.3191  -15.5741 C   0  0  0  0  0  0  0  0  0  0  0  0
   21.5415  -16.4131  -14.3410 C   0  0  0  0  0  0  0  0  0  0  0  0
   20.2479  -18.1965  -15.4129 C   0  0  2  0  0  0  0  0  0  0  0  0
   20.2568  -19.1052  -14.2333 N   0  0  0  0  0  0  0  0  0  0  0  0
   21.1880  -20.1816  -14.5384 C   0  0  0  0  0  0  0  0  0  0  0  0
   18.9300  -19.6862  -13.9776 O   0  0  0  0  0  0  0  0  0  0  0  0
   18.6239  -20.7768  -14.5480 O   0  0  0  0  0  0  0  0  0  0  0  0
  2  1  1  6
  2  3  1  0
  4  5  2  0
  4  3  1  0
  6  5  1  0
  7 12  2  0
  7  6  1  0
  8  7  1  0
  9 10  1  0
  9  8  2  0
 10 11  2  0
 11 12  1  0
 12  4  1  0
 13 23  1  0
 13  2  1  0
 14 13  2  0
 16 15  1  0
 17 16  2  0
 18 16  1  0
 19 20  1  0
 19 18  1  0
 20 21  1  0
 22 21  1  1
 22 24  1  0
 22 23  1  0
 24 31  1  0
 25 24  2  0
 27 26  1  6
 27 28  1  0
 29 27  1  0
 30 32  1  0
 30 29  1  1
 31 30  1  0
 32 34  1  0
 33 32  2  0
M  END
$$$$
