WRL.pdb
     RDKit          3D

 34 35  0  0  1  0  0  0  0  0999 V2000
   28.0955  -20.9282  -10.0596 N   0  0  0  0  0  0  0  0  0  0  0  0
   26.7799  -20.4157   -9.7734 C   0  0  1  0  0  0  0  0  0  0  0  0
   26.8490  -19.1284   -9.0423 C   0  0  0  0  0  0  0  0  0  0  0  0
   27.6650  -19.1619   -7.8186 C   0  0  0  0  0  0  0  0  0  0  0  0
   28.7860  -18.3786   -7.5239 C   0  0  0  0  0  0  0  0  0  0  0  0
   29.2050  -18.6813   -6.3064 N   0  0  0  0  0  0  0  0  0  0  0  0
   28.4287  -19.6378   -5.7468 C   0  0  0  0  0  0  0  0  0  0  0  0
   28.4460  -20.2917   -4.5424 C   0  0  0  0  0  0  0  0  0  0  0  0
   27.5060  -21.2650   -4.2479 C   0  0  0  0  0  0  0  0  0  0  0  0
   26.5611  -21.5580   -5.1811 C   0  0  0  0  0  0  0  0  0  0  0  0
   26.5328  -20.9146   -6.3790 C   0  0  0  0  0  0  0  0  0  0  0  0
   27.4634  -19.9311   -6.7085 C   0  0  0  0  0  0  0  0  0  0  0  0
   26.0336  -20.3225  -11.0564 C   0  0  0  0  0  0  0  0  0  0  0  0
   26.1957  -19.3329  -11.8301 O   0  0  0  0  0  0  0  0  0  0  0  0
   26.8493  -25.8569  -16.9154 N   0  0  0  0  0  0  0  0  0  0  0  0
   26.1489  -25.3833  -15.7607 C   0  0  0  0  0  0  0  0  0  0  0  0
   25.4183  -26.1665  -15.0581 N   0  0  0  0  0  0  0  0  0  0  0  0
   26.2303  -24.0293  -15.3496 N   0  0  0  0  0  0  0  0  0  0  0  0
   26.4596  -23.6767  -13.9858 C   0  0  0  0  0  0  0  0  0  0  0  0
   25.2092  -23.4670  -13.1782 C   0  0  0  0  0  0  0  0  0  0  0  0
   24.5394  -22.2001  -13.7015 C   0  0  0  0  0  0  0  0  0  0  0  0
   24.2931  -21.2064  -12.6276 C   0  0  2  0  0  0  0  0  0  0  0  0
   25.1084  -21.3413  -11.4518 N   0  0  0  0  0  0  0  0  0  0  0  0
   22.8363  -21.1377  -12.3281 C   0  0  0  0  0  0  0  0  0  0  0  0
   22.3858  -21.6430  -11.2934 O   0  0  0  0  0  0  0  0  0  0  0  0
   25.0212  -25.8256  -14.1573 C   0  0  0  0  0  0  0  0  0  0  0  0
   19.9499  -16.7027  -14.2232 C   0  0  2  0  0  0  0  0  0  0  0  0
   20.4727  -17.8042  -13.3561 C   0  0  0  0  0  0  0  0  0  0  0  0
   19.9066  -17.5976  -11.9461 C   0  0  0  0  0  0  0  0  0  0  0  0
   20.0943  -19.1707  -13.8150 C   0  0  2  0  0  0  0  0  0  0  0  0
   20.5528  -20.2998  -12.9593 N   0  0  0  0  0  0  0  0  0  0  0  0
   21.9696  -20.4885  -13.2351 C   0  0  0  0  0  0  0  0  0  0  0  0
   19.8403  -21.5486  -13.2696 O   0  0  0  0  0  0  0  0  0  0  0  0
   18.7127  -21.7557  -12.7273 O   0  0  0  0  0  0  0  0  0  0  0  0
  2  1  1  6
  2  3  1  0
  4  5  2  0
  4  3  1  0
  6  5  1  0
  7 12  2  0
  7  6  1  0
  8  7  1  0
  9 10  1  0
  9  8  2  0
 10 11  2  0
 11 12  1  0
 12  4  1  0
 13 23  1  0
 13  2  1  0
 14 13  2  0
 16 15  1  0
 17 16  2  0
 18 16  1  0
 19 20  1  0
 19 18  1  0
 20 21  1  0
 22 21  1  6
 22 24  1  0
 22 23  1  0
 24 31  1  0
 25 24  2  0
 27 26  1  1
 27 28  1  0
 29 27  1  0
 30 32  1  0
 30 29  1  1
 31 30  1  0
 32 34  1  0
 33 32  2  0
M  END
$$$$
