WRL.pdb
     RDKit          3D

 34 35  0  0  1  0  0  0  0  0999 V2000
   28.8239  -20.0283  -11.1117 N   0  0  0  0  0  0  0  0  0  0  0  0
   27.8674  -21.0755  -11.3645 C   0  0  1  0  0  0  0  0  0  0  0  0
   27.0330  -21.3447  -10.1696 C   0  0  0  0  0  0  0  0  0  0  0  0
   27.6138  -20.8814   -8.8999 C   0  0  0  0  0  0  0  0  0  0  0  0
   27.0738  -19.9464   -8.0103 C   0  0  0  0  0  0  0  0  0  0  0  0
   27.8799  -19.8408   -6.9671 N   0  0  0  0  0  0  0  0  0  0  0  0
   28.9521  -20.6562   -7.0942 C   0  0  0  0  0  0  0  0  0  0  0  0
   30.0547  -20.9044   -6.3189 C   0  0  0  0  0  0  0  0  0  0  0  0
   31.0234  -21.8058   -6.7277 C   0  0  0  0  0  0  0  0  0  0  0  0
   30.8561  -22.4429   -7.9174 C   0  0  0  0  0  0  0  0  0  0  0  0
   29.7653  -22.2062   -8.6944 C   0  0  0  0  0  0  0  0  0  0  0  0
   28.7722  -21.3055   -8.3144 C   0  0  0  0  0  0  0  0  0  0  0  0
   27.0722  -20.6927  -12.5615 C   0  0  0  0  0  0  0  0  0  0  0  0
   26.7861  -19.4799  -12.7887 O   0  0  0  0  0  0  0  0  0  0  0  0
   28.5365  -25.9708  -16.4889 N   0  0  0  0  0  0  0  0  0  0  0  0
   27.3534  -25.6791  -17.2395 C   0  0  0  0  0  0  0  0  0  0  0  0
   26.4892  -26.5884  -17.4990 N   0  0  0  0  0  0  0  0  0  0  0  0
   27.0910  -24.3756  -17.7304 N   0  0  0  0  0  0  0  0  0  0  0  0
   27.7528  -23.2302  -17.1951 C   0  0  0  0  0  0  0  0  0  0  0  0
   27.3336  -22.8648  -15.7985 C   0  0  0  0  0  0  0  0  0  0  0  0
   26.1806  -21.8728  -15.9169 C   0  0  0  0  0  0  0  0  0  0  0  0
   25.7626  -21.3325  -14.5997 C   0  0  2  0  0  0  0  0  0  0  0  0
   26.6024  -21.6796  -13.4864 N   0  0  0  0  0  0  0  0  0  0  0  0
   24.3229  -21.6312  -14.3656 C   0  0  0  0  0  0  0  0  0  0  0  0
   23.9782  -22.7239  -13.9009 O   0  0  0  0  0  0  0  0  0  0  0  0
   25.6315  -26.3413  -18.0361 C   0  0  0  0  0  0  0  0  0  0  0  0
   20.6642  -17.3655  -12.3105 C   0  0  2  0  0  0  0  0  0  0  0  0
   20.7004  -18.7758  -12.8086 C   0  0  0  0  0  0  0  0  0  0  0  0
   19.4889  -18.9784  -13.7265 C   0  0  0  0  0  0  0  0  0  0  0  0
   21.9305  -19.1176  -13.5777 C   0  0  1  0  0  0  0  0  0  0  0  0
   22.0927  -20.5497  -13.9520 N   0  0  0  0  0  0  0  0  0  0  0  0
   23.3504  -20.6553  -14.6771 C   0  0  0  0  0  0  0  0  0  0  0  0
   21.0037  -21.0162  -14.8237 O   0  0  0  0  0  0  0  0  0  0  0  0
   20.0198  -21.6190  -14.2973 O   0  0  0  0  0  0  0  0  0  0  0  0
  2  1  1  1
  2  3  1  0
  4  5  2  0
  4  3  1  0
  6  5  1  0
  7 12  2  0
  7  6  1  0
  8  7  1  0
  9 10  1  0
  9  8  2  0
 10 11  2  0
 11 12  1  0
 12  4  1  0
 13 23  1  0
 13  2  1  0
 14 13  2  0
 16 15  1  0
 17 16  2  0
 18 16  1  0
 19 20  1  0
 19 18  1  0
 20 21  1  0
 22 21  1  6
 22 24  1  0
 22 23  1  0
 24 31  1  0
 25 24  2  0
 27 26  1  1
 27 28  1  0
 29 27  1  0
 30 32  1  0
 30 29  1  1
 31 30  1  0
 32 34  1  0
 33 32  2  0
M  END
$$$$
