WRL.pdb
     RDKit          3D

 34 35  0  0  1  0  0  0  0  0999 V2000
   25.5416  -17.7400  -17.0623 N   0  0  0  0  0  0  0  0  0  0  0  0
   26.3865  -18.0277  -15.9314 C   0  0  1  0  0  0  0  0  0  0  0  0
   27.1909  -16.8450  -15.5435 C   0  0  0  0  0  0  0  0  0  0  0  0
   28.0912  -16.3452  -16.5941 C   0  0  0  0  0  0  0  0  0  0  0  0
   28.2057  -15.0309  -17.0597 C   0  0  0  0  0  0  0  0  0  0  0  0
   29.1589  -14.9884  -17.9756 N   0  0  0  0  0  0  0  0  0  0  0  0
   29.7068  -16.2106  -18.1670 C   0  0  0  0  0  0  0  0  0  0  0  0
   30.6908  -16.6927  -18.9903 C   0  0  0  0  0  0  0  0  0  0  0  0
   31.0348  -18.0342  -18.9776 C   0  0  0  0  0  0  0  0  0  0  0  0
   30.3751  -18.8652  -18.1270 C   0  0  0  0  0  0  0  0  0  0  0  0
   29.3983  -18.3979  -17.3041 C   0  0  0  0  0  0  0  0  0  0  0  0
   29.0263  -17.0550  -17.2915 C   0  0  0  0  0  0  0  0  0  0  0  0
   25.5248  -18.5377  -14.8317 C   0  0  0  0  0  0  0  0  0  0  0  0
   24.5811  -17.8319  -14.3674 O   0  0  0  0  0  0  0  0  0  0  0  0
   19.6832  -21.8363  -11.5851 N   0  0  0  0  0  0  0  0  0  0  0  0
   19.6532  -21.7978  -13.0154 C   0  0  0  0  0  0  0  0  0  0  0  0
   18.6250  -21.3694  -13.6480 N   0  0  0  0  0  0  0  0  0  0  0  0
   20.7560  -22.2356  -13.7907 N   0  0  0  0  0  0  0  0  0  0  0  0
   21.9384  -22.7515  -13.1805 C   0  0  0  0  0  0  0  0  0  0  0  0
   22.8565  -21.7032  -12.6166 C   0  0  0  0  0  0  0  0  0  0  0  0
   23.8654  -21.3519  -13.7057 C   0  0  0  0  0  0  0  0  0  0  0  0
   24.8729  -20.3647  -13.2454 C   0  0  2  0  0  0  0  0  0  0  0  0
   25.7386  -19.8340  -14.2625 N   0  0  0  0  0  0  0  0  0  0  0  0
   25.6095  -20.9059  -12.0702 C   0  0  0  0  0  0  0  0  0  0  0  0
   26.4778  -21.7730  -12.2212 O   0  0  0  0  0  0  0  0  0  0  0  0
   18.6045  -21.4233  -14.6881 C   0  0  0  0  0  0  0  0  0  0  0  0
   28.4114  -18.5159   -8.5000 C   0  0  1  0  0  0  0  0  0  0  0  0
   27.7577  -19.5816   -9.3217 C   0  0  0  0  0  0  0  0  0  0  0  0
   28.7382  -20.7556   -9.4300 C   0  0  0  0  0  0  0  0  0  0  0  0
   26.4799  -20.0925   -8.7495 C   0  0  2  0  0  0  0  0  0  0  0  0
   25.7514  -21.1002   -9.5688 N   0  0  0  0  0  0  0  0  0  0  0  0
   25.3104  -20.4202  -10.7779 C   0  0  0  0  0  0  0  0  0  0  0  0
   24.5721  -21.6296   -8.8672 O   0  0  0  0  0  0  0  0  0  0  0  0
   24.7447  -22.2676   -7.7847 O   0  0  0  0  0  0  0  0  0  0  0  0
  2  1  1  6
  2  3  1  0
  4  5  2  0
  4  3  1  0
  6  5  1  0
  7 12  2  0
  7  6  1  0
  8  7  1  0
  9 10  1  0
  9  8  2  0
 10 11  2  0
 11 12  1  0
 12  4  1  0
 13 23  1  0
 13  2  1  0
 14 13  2  0
 16 15  1  0
 17 16  2  0
 18 16  1  0
 19 20  1  0
 19 18  1  0
 20 21  1  0
 22 21  1  6
 22 24  1  0
 22 23  1  0
 24 31  1  0
 25 24  2  0
 27 26  1  6
 27 28  1  0
 29 27  1  0
 30 32  1  0
 30 29  1  6
 31 30  1  0
 32 34  1  0
 33 32  2  0
M  END
$$$$
