WRL.pdb
     RDKit          3D

 34 35  0  0  1  0  0  0  0  0999 V2000
   26.4422  -23.0003  -12.0780 N   0  0  0  0  0  0  0  0  0  0  0  0
   25.7592  -21.8211  -11.6104 C   0  0  1  0  0  0  0  0  0  0  0  0
   26.6598  -20.6442  -11.5989 C   0  0  0  0  0  0  0  0  0  0  0  0
   27.6937  -20.6742  -10.5528 C   0  0  0  0  0  0  0  0  0  0  0  0
   29.0331  -21.0531  -10.6934 C   0  0  0  0  0  0  0  0  0  0  0  0
   29.6410  -20.8970   -9.5292 N   0  0  0  0  0  0  0  0  0  0  0  0
   28.7855  -20.4306   -8.5904 C   0  0  0  0  0  0  0  0  0  0  0  0
   28.9094  -20.1225   -7.2607 C   0  0  0  0  0  0  0  0  0  0  0  0
   27.8227  -19.6697   -6.5313 C   0  0  0  0  0  0  0  0  0  0  0  0
   26.6268  -19.5349   -7.1646 C   0  0  0  0  0  0  0  0  0  0  0  0
   26.4922  -19.8358   -8.4841 C   0  0  0  0  0  0  0  0  0  0  0  0
   27.5639  -20.2945   -9.2477 C   0  0  0  0  0  0  0  0  0  0  0  0
   24.5493  -21.6261  -12.4529 C   0  0  0  0  0  0  0  0  0  0  0  0
   24.6177  -21.7114  -13.7148 O   0  0  0  0  0  0  0  0  0  0  0  0
   16.9786  -24.0422  -13.5749 N   0  0  0  0  0  0  0  0  0  0  0  0
   17.9241  -24.2534  -12.5215 C   0  0  0  0  0  0  0  0  0  0  0  0
   18.4523  -25.4033  -12.3224 N   0  0  0  0  0  0  0  0  0  0  0  0
   18.3113  -23.2024  -11.6530 N   0  0  0  0  0  0  0  0  0  0  0  0
   18.3973  -21.8526  -12.1081 C   0  0  0  0  0  0  0  0  0  0  0  0
   19.6205  -21.5482  -12.9272 C   0  0  0  0  0  0  0  0  0  0  0  0
   20.8195  -21.5953  -11.9850 C   0  0  0  0  0  0  0  0  0  0  0  0
   22.0854  -21.2208  -12.6623 C   0  0  2  0  0  0  0  0  0  0  0  0
   23.2769  -21.3311  -11.8664 N   0  0  0  0  0  0  0  0  0  0  0  0
   21.9347  -19.8906  -13.3138 C   0  0  0  0  0  0  0  0  0  0  0  0
   21.9200  -18.8586  -12.6330 O   0  0  0  0  0  0  0  0  0  0  0  0
   19.1064  -25.5347  -11.5223 C   0  0  0  0  0  0  0  0  0  0  0  0
   23.1063  -17.7012  -18.9050 C   0  0  2  0  0  0  0  0  0  0  0  0
   22.2731  -17.5566  -17.6708 C   0  0  0  0  0  0  0  0  0  0  0  0
   20.8071  -17.4465  -18.1068 C   0  0  0  0  0  0  0  0  0  0  0  0
   22.3923  -18.6978  -16.7197 C   0  0  1  0  0  0  0  0  0  0  0  0
   21.6788  -18.5464  -15.4215 N   0  0  0  0  0  0  0  0  0  0  0  0
   21.8098  -19.8144  -14.7188 C   0  0  0  0  0  0  0  0  0  0  0  0
   20.2493  -18.2564  -15.6111 O   0  0  0  0  0  0  0  0  0  0  0  0
   19.4722  -19.2089  -15.9232 O   0  0  0  0  0  0  0  0  0  0  0  0
  2  1  1  6
  2  3  1  0
  4  5  2  0
  4  3  1  0
  6  5  1  0
  7 12  2  0
  7  6  1  0
  8  7  1  0
  9 10  1  0
  9  8  2  0
 10 11  2  0
 11 12  1  0
 12  4  1  0
 13 23  1  0
 13  2  1  0
 14 13  2  0
 16 15  1  0
 17 16  2  0
 18 16  1  0
 19 20  1  0
 19 18  1  0
 20 21  1  0
 22 21  1  1
 22 24  1  0
 22 23  1  0
 24 31  1  0
 25 24  2  0
 27 26  1  6
 27 28  1  0
 29 27  1  0
 30 32  1  0
 30 29  1  1
 31 30  1  0
 32 34  1  0
 33 32  2  0
M  END
$$$$
