LGH.pdb
     RDKit          3D

 23 23  0  0  1  0  0  0  0  0999 V2000
    5.4298  -12.3212   25.7942 C   0  0  0  0  0  0  0  0  0  0  0  0
    6.8789  -12.8033   26.0721 C   0  0  2  0  0  0  0  0  0  0  0  0
    7.5452  -11.7789   26.9676 C   0  0  0  0  0  0  0  0  0  0  0  0
    7.5950  -12.9242   24.7861 C   0  0  0  0  0  0  0  0  0  0  0  0
    7.1446  -14.0179   23.8758 C   0  0  2  0  0  0  0  0  0  0  0  0
    6.3559  -15.0232   24.5091 N   0  0  0  0  0  0  0  0  0  0  0  0
    8.3619  -14.6326   23.2340 C   0  0  0  0  0  0  0  0  0  0  0  0
    9.2784  -13.8096   22.9084 O   0  0  0  0  0  0  0  0  0  0  0  0
    8.4918  -16.0035   23.0069 N   0  0  0  0  0  0  0  0  0  0  0  0
    9.7558  -16.5479   22.4795 C   0  0  0  0  0  0  0  0  0  0  0  0
   10.6690  -16.8162   23.6337 C   0  0  0  0  0  0  0  0  0  0  0  0
   11.8893  -17.0836   23.4868 O   0  0  0  0  0  0  0  0  0  0  0  0
   10.1161  -16.7617   24.9379 N   0  0  0  0  0  0  0  0  0  0  0  0
   11.0556  -16.6984   26.0797 C   0  0  1  0  0  0  0  0  0  0  0  0
   10.4955  -15.6401   26.9773 C   0  0  0  0  0  0  0  0  0  0  0  0
   10.9872  -15.6096   28.3518 C   0  0  0  0  0  0  0  0  0  0  0  0
   11.8915  -16.3192   29.0740 C   0  0  0  0  0  0  0  0  0  0  0  0
   11.9778  -15.7912   30.3213 N   0  0  0  0  0  0  0  0  0  0  0  0
   11.1278  -14.7550   30.3689 C   0  0  0  0  0  0  0  0  0  0  0  0
   10.5253  -14.6273   29.2040 N   0  0  0  0  0  0  0  0  0  0  0  0
   10.9482  -18.0082   26.7957 C   0  0  0  0  0  0  0  0  0  0  0  0
   11.9151  -18.4189   27.7097 O   0  0  0  0  0  0  0  0  0  0  0  0
   10.0025  -18.7726   26.6051 O   0  0  0  0  0  0  0  0  0  0  0  0
  2  1  1  6
  2  3  1  0
  4  2  1  0
  5  7  1  0
  5  4  1  0
  5  6  1  1
  7  8  2  0
  9 10  1  0
  9  7  1  0
 10 11  1  0
 11 13  1  0
 11 12  2  0
 13 14  1  0
 14 15  1  1
 14 21  1  0
 16 17  2  0
 16 15  1  0
 18 17  1  0
 19 20  2  0
 19 18  1  0
 20 16  1  0
 21 22  1  0
 23 21  2  0
M  END
$$$$
