LGH.pdb
     RDKit          3D

 23 23  0  0  1  0  0  0  0  0999 V2000
    7.6934  -11.6143   25.6509 C   0  0  0  0  0  0  0  0  0  0  0  0
    6.2665  -12.1915   25.8514 C   0  0  2  0  0  0  0  0  0  0  0  0
    5.6205  -11.4440   27.0000 C   0  0  0  0  0  0  0  0  0  0  0  0
    6.3745  -13.6328   26.1550 C   0  0  0  0  0  0  0  0  0  0  0  0
    7.2557  -14.4361   25.2573 C   0  0  2  0  0  0  0  0  0  0  0  0
    6.9581  -14.3042   23.8688 N   0  0  0  0  0  0  0  0  0  0  0  0
    7.1704  -15.8810   25.6776 C   0  0  0  0  0  0  0  0  0  0  0  0
    7.2944  -16.0912   26.9281 O   0  0  0  0  0  0  0  0  0  0  0  0
    6.9691  -16.9254   24.7741 N   0  0  0  0  0  0  0  0  0  0  0  0
    6.8899  -18.3153   25.2580 C   0  0  0  0  0  0  0  0  0  0  0  0
    8.2654  -18.9026   25.2253 C   0  0  0  0  0  0  0  0  0  0  0  0
    8.4751  -20.1342   25.0791 O   0  0  0  0  0  0  0  0  0  0  0  0
    9.3635  -18.0172   25.3667 N   0  0  0  0  0  0  0  0  0  0  0  0
   10.7243  -18.5953   25.3009 C   0  0  1  0  0  0  0  0  0  0  0  0
   11.5190  -17.6118   24.5005 C   0  0  0  0  0  0  0  0  0  0  0  0
   11.1070  -17.3982   23.1161 C   0  0  0  0  0  0  0  0  0  0  0  0
   10.1554  -17.9144   22.2971 C   0  0  0  0  0  0  0  0  0  0  0  0
   10.2038  -17.2756   21.1006 N   0  0  0  0  0  0  0  0  0  0  0  0
   11.1843  -16.3643   21.1813 C   0  0  0  0  0  0  0  0  0  0  0  0
   11.7376  -16.4190   22.3758 N   0  0  0  0  0  0  0  0  0  0  0  0
   11.2611  -18.5870   26.6979 C   0  0  0  0  0  0  0  0  0  0  0  0
   10.5377  -18.0349   27.7518 O   0  0  0  0  0  0  0  0  0  0  0  0
   12.3613  -19.0672   26.9696 O   0  0  0  0  0  0  0  0  0  0  0  0
  2  1  1  1
  2  3  1  0
  4  2  1  0
  5  7  1  0
  5  4  1  0
  5  6  1  6
  7  8  2  0
  9 10  1  0
  9  7  1  0
 10 11  1  0
 11 13  1  0
 11 12  2  0
 13 14  1  0
 14 15  1  6
 14 21  1  0
 16 17  2  0
 16 15  1  0
 18 17  1  0
 19 20  2  0
 19 18  1  0
 20 16  1  0
 21 22  1  0
 23 21  2  0
M  END
$$$$
