LGH.pdb
     RDKit          3D

 23 23  0  0  1  0  0  0  0  0999 V2000
    7.1266  -13.4260   19.2449 C   0  0  0  0  0  0  0  0  0  0  0  0
    7.5701  -13.2881   20.7260 C   0  0  2  0  0  0  0  0  0  0  0  0
    7.8638  -11.8251   20.9883 C   0  0  0  0  0  0  0  0  0  0  0  0
    8.7753  -14.1143   20.9407 C   0  0  0  0  0  0  0  0  0  0  0  0
    8.5893  -15.5930   20.8607 C   0  0  2  0  0  0  0  0  0  0  0  0
    7.3346  -16.0559   21.3557 N   0  0  0  0  0  0  0  0  0  0  0  0
    9.7226  -16.2546   21.6020 C   0  0  0  0  0  0  0  0  0  0  0  0
   10.8861  -15.8235   21.3126 O   0  0  0  0  0  0  0  0  0  0  0  0
    9.5280  -17.2675   22.5421 N   0  0  0  0  0  0  0  0  0  0  0  0
   10.6847  -17.8691   23.2294 C   0  0  0  0  0  0  0  0  0  0  0  0
   10.6365  -17.4662   24.6693 C   0  0  0  0  0  0  0  0  0  0  0  0
   11.6593  -17.4356   25.4009 O   0  0  0  0  0  0  0  0  0  0  0  0
    9.3767  -17.1081   25.2117 N   0  0  0  0  0  0  0  0  0  0  0  0
    9.3366  -16.6730   26.6257 C   0  0  1  0  0  0  0  0  0  0  0  0
    7.9668  -16.0995   26.8104 C   0  0  0  0  0  0  0  0  0  0  0  0
    7.7048  -14.8004   26.1973 C   0  0  0  0  0  0  0  0  0  0  0  0
    8.4550  -13.8462   25.5896 C   0  0  0  0  0  0  0  0  0  0  0  0
    7.6414  -12.8515   25.1529 N   0  0  0  0  0  0  0  0  0  0  0  0
    6.3889  -13.1922   25.4899 C   0  0  0  0  0  0  0  0  0  0  0  0
    6.4022  -14.3524   26.1143 N   0  0  0  0  0  0  0  0  0  0  0  0
    9.4284  -17.9134   27.4581 C   0  0  0  0  0  0  0  0  0  0  0  0
    9.7058  -17.8556   28.8213 O   0  0  0  0  0  0  0  0  0  0  0  0
    9.2626  -19.0315   26.9710 O   0  0  0  0  0  0  0  0  0  0  0  0
  2  1  1  6
  2  3  1  0
  4  2  1  0
  5  7  1  0
  5  4  1  0
  5  6  1  1
  7  8  2  0
  9 10  1  0
  9  7  1  0
 10 11  1  0
 11 13  1  0
 11 12  2  0
 13 14  1  0
 14 15  1  6
 14 21  1  0
 16 17  2  0
 16 15  1  0
 18 17  1  0
 19 20  2  0
 19 18  1  0
 20 16  1  0
 21 22  1  0
 23 21  2  0
M  END
$$$$
