LGH.pdb
     RDKit          3D

 23 23  0  0  1  0  0  0  0  0999 V2000
    6.9394  -13.0637   19.2768 C   0  0  0  0  0  0  0  0  0  0  0  0
    8.0563  -13.2107   20.3448 C   0  0  2  0  0  0  0  0  0  0  0  0
    8.7369  -11.8653   20.4928 C   0  0  0  0  0  0  0  0  0  0  0  0
    9.0147  -14.2393   19.8925 C   0  0  0  0  0  0  0  0  0  0  0  0
    8.4995  -15.6378   19.8136 C   0  0  2  0  0  0  0  0  0  0  0  0
    7.8055  -16.0759   20.9799 N   0  0  0  0  0  0  0  0  0  0  0  0
    9.6585  -16.5545   19.5170 C   0  0  0  0  0  0  0  0  0  0  0  0
   10.2964  -16.2944   18.4453 O   0  0  0  0  0  0  0  0  0  0  0  0
   10.0208  -17.6160   20.3476 N   0  0  0  0  0  0  0  0  0  0  0  0
   11.0932  -18.5407   19.9387 C   0  0  0  0  0  0  0  0  0  0  0  0
   12.3661  -18.1001   20.5894 C   0  0  0  0  0  0  0  0  0  0  0  0
   13.4595  -18.6974   20.4169 O   0  0  0  0  0  0  0  0  0  0  0  0
   12.3158  -16.9606   21.4311 N   0  0  0  0  0  0  0  0  0  0  0  0
   13.5834  -16.5020   22.0422 C   0  0  1  0  0  0  0  0  0  0  0  0
   13.7082  -15.0680   21.6329 C   0  0  0  0  0  0  0  0  0  0  0  0
   13.9908  -14.8037   20.2249 C   0  0  0  0  0  0  0  0  0  0  0  0
   13.2787  -14.3514   19.1614 C   0  0  0  0  0  0  0  0  0  0  0  0
   14.1007  -14.2495   18.0862 N   0  0  0  0  0  0  0  0  0  0  0  0
   15.3204  -14.6376   18.4862 C   0  0  0  0  0  0  0  0  0  0  0  0
   15.2791  -14.9728   19.7598 N   0  0  0  0  0  0  0  0  0  0  0  0
   13.3816  -16.5378   23.5247 C   0  0  0  0  0  0  0  0  0  0  0  0
   12.2079  -17.0324   24.0873 O   0  0  0  0  0  0  0  0  0  0  0  0
   14.2440  -16.1320   24.3036 O   0  0  0  0  0  0  0  0  0  0  0  0
  2  1  1  6
  2  3  1  0
  4  2  1  0
  5  7  1  0
  5  4  1  0
  5  6  1  1
  7  8  2  0
  9 10  1  0
  9  7  1  0
 10 11  1  0
 11 13  1  0
 11 12  2  0
 13 14  1  0
 14 15  1  6
 14 21  1  0
 16 17  2  0
 16 15  1  0
 18 17  1  0
 19 20  2  0
 19 18  1  0
 20 16  1  0
 21 22  1  0
 23 21  2  0
M  END
$$$$
