LGH.pdb
     RDKit          3D

 23 23  0  0  1  0  0  0  0  0999 V2000
    9.7212  -13.1780   19.7439 C   0  0  0  0  0  0  0  0  0  0  0  0
    8.2271  -13.5933   19.6766 C   0  0  2  0  0  0  0  0  0  0  0  0
    7.4698  -12.4889   18.9679 C   0  0  0  0  0  0  0  0  0  0  0  0
    7.7225  -13.7795   21.0520 C   0  0  0  0  0  0  0  0  0  0  0  0
    8.3896  -14.8377   21.8662 C   0  0  2  0  0  0  0  0  0  0  0  0
    8.4071  -16.1264   21.2557 N   0  0  0  0  0  0  0  0  0  0  0  0
    7.7092  -14.9023   23.2095 C   0  0  0  0  0  0  0  0  0  0  0  0
    7.8076  -13.8491   23.9196 O   0  0  0  0  0  0  0  0  0  0  0  0
    7.0158  -16.0276   23.6577 N   0  0  0  0  0  0  0  0  0  0  0  0
    6.3113  -15.9937   24.9519 C   0  0  0  0  0  0  0  0  0  0  0  0
    6.9474  -16.9991   25.8588 C   0  0  0  0  0  0  0  0  0  0  0  0
    6.4367  -17.3440   26.9553 O   0  0  0  0  0  0  0  0  0  0  0  0
    8.1757  -17.5745   25.4465 N   0  0  0  0  0  0  0  0  0  0  0  0
    8.7875  -18.5925   26.3295 C   0  0  1  0  0  0  0  0  0  0  0  0
    8.9952  -19.7857   25.4505 C   0  0  0  0  0  0  0  0  0  0  0  0
    7.7997  -20.4955   25.0044 C   0  0  0  0  0  0  0  0  0  0  0  0
    6.9534  -21.4067   25.5488 C   0  0  0  0  0  0  0  0  0  0  0  0
    5.9574  -21.6722   24.6659 N   0  0  0  0  0  0  0  0  0  0  0  0
    6.1879  -20.9240   23.5771 C   0  0  0  0  0  0  0  0  0  0  0  0
    7.2826  -20.2129   23.7565 N   0  0  0  0  0  0  0  0  0  0  0  0
   10.1355  -18.0698   26.7159 C   0  0  0  0  0  0  0  0  0  0  0  0
   10.9081  -18.6987   27.6887 O   0  0  0  0  0  0  0  0  0  0  0  0
   10.6135  -17.0650   26.1897 O   0  0  0  0  0  0  0  0  0  0  0  0
  2  1  1  1
  2  3  1  0
  4  2  1  0
  5  7  1  0
  5  4  1  0
  5  6  1  6
  7  8  2  0
  9 10  1  0
  9  7  1  0
 10 11  1  0
 11 13  1  0
 11 12  2  0
 13 14  1  0
 14 15  1  6
 14 21  1  0
 16 17  2  0
 16 15  1  0
 18 17  1  0
 19 20  2  0
 19 18  1  0
 20 16  1  0
 21 22  1  0
 23 21  2  0
M  END
$$$$
