LGH.pdb
     RDKit          3D

 23 23  0  0  1  0  0  0  0  0999 V2000
    8.0836  -13.2999   18.6356 C   0  0  0  0  0  0  0  0  0  0  0  0
    7.3337  -13.8357   19.8847 C   0  0  2  0  0  0  0  0  0  0  0  0
    6.8006  -12.6435   20.6528 C   0  0  0  0  0  0  0  0  0  0  0  0
    8.2793  -14.6142   20.7098 C   0  0  0  0  0  0  0  0  0  0  0  0
    8.8225  -15.8623   20.0977 C   0  0  2  0  0  0  0  0  0  0  0  0
    7.8269  -16.7880   19.6670 N   0  0  0  0  0  0  0  0  0  0  0  0
    9.7500  -16.5134   21.0915 C   0  0  0  0  0  0  0  0  0  0  0  0
    9.3782  -17.6566   21.5134 O   0  0  0  0  0  0  0  0  0  0  0  0
   10.9357  -15.9201   21.5274 N   0  0  0  0  0  0  0  0  0  0  0  0
   11.9432  -16.7230   22.2434 C   0  0  0  0  0  0  0  0  0  0  0  0
   11.6319  -16.6708   23.7057 C   0  0  0  0  0  0  0  0  0  0  0  0
   12.5211  -16.7406   24.5926 O   0  0  0  0  0  0  0  0  0  0  0  0
   10.2728  -16.5370   24.0858 N   0  0  0  0  0  0  0  0  0  0  0  0
    9.9528  -16.6124   25.5288 C   0  0  1  0  0  0  0  0  0  0  0  0
    8.4808  -16.3554   25.6079 C   0  0  0  0  0  0  0  0  0  0  0  0
    8.0408  -14.9723   25.4486 C   0  0  0  0  0  0  0  0  0  0  0  0
    8.6532  -13.7758   25.2585 C   0  0  0  0  0  0  0  0  0  0  0  0
    7.7099  -12.8101   25.1187 N   0  0  0  0  0  0  0  0  0  0  0  0
    6.5151  -13.4105   25.2211 C   0  0  0  0  0  0  0  0  0  0  0  0
    6.6878  -14.7018   25.4181 N   0  0  0  0  0  0  0  0  0  0  0  0
   10.1921  -18.0294   25.9469 C   0  0  0  0  0  0  0  0  0  0  0  0
   10.2737  -18.3875   27.2900 O   0  0  0  0  0  0  0  0  0  0  0  0
   10.3258  -18.9324   25.1213 O   0  0  0  0  0  0  0  0  0  0  0  0
  2  1  1  6
  2  3  1  0
  4  2  1  0
  5  7  1  0
  5  4  1  0
  5  6  1  1
  7  8  2  0
  9 10  1  0
  9  7  1  0
 10 11  1  0
 11 13  1  0
 11 12  2  0
 13 14  1  0
 14 15  1  6
 14 21  1  0
 16 17  2  0
 16 15  1  0
 18 17  1  0
 19 20  2  0
 19 18  1  0
 20 16  1  0
 21 22  1  0
 23 21  2  0
M  END
$$$$
