LGH.pdb
     RDKit          3D

 23 23  0  0  1  0  0  0  0  0999 V2000
    7.3874  -12.5965   20.9059 C   0  0  0  0  0  0  0  0  0  0  0  0
    8.3158  -12.7390   19.6700 C   0  0  2  0  0  0  0  0  0  0  0  0
    7.4946  -12.4315   18.4346 C   0  0  0  0  0  0  0  0  0  0  0  0
    8.8393  -14.1192   19.6248 C   0  0  0  0  0  0  0  0  0  0  0  0
    9.5997  -14.5804   20.8234 C   0  0  2  0  0  0  0  0  0  0  0  0
   10.5653  -13.6469   21.3027 N   0  0  0  0  0  0  0  0  0  0  0  0
   10.2595  -15.8939   20.4903 C   0  0  0  0  0  0  0  0  0  0  0  0
    9.4757  -16.8025   20.0620 O   0  0  0  0  0  0  0  0  0  0  0  0
   11.6301  -16.1147   20.6338 N   0  0  0  0  0  0  0  0  0  0  0  0
   12.2216  -17.3929   20.1994 C   0  0  0  0  0  0  0  0  0  0  0  0
   13.6961  -17.3352   20.4452 C   0  0  0  0  0  0  0  0  0  0  0  0
   14.4684  -18.2895   20.1713 O   0  0  0  0  0  0  0  0  0  0  0  0
   14.2240  -16.1472   21.0105 N   0  0  0  0  0  0  0  0  0  0  0  0
   15.6964  -16.0078   21.0643 C   0  0  1  0  0  0  0  0  0  0  0  0
   15.9750  -14.6633   20.4693 C   0  0  0  0  0  0  0  0  0  0  0  0
   15.9000  -14.5545   19.0151 C   0  0  0  0  0  0  0  0  0  0  0  0
   15.5532  -15.3833   17.9975 C   0  0  0  0  0  0  0  0  0  0  0  0
   15.6211  -14.7019   16.8257 N   0  0  0  0  0  0  0  0  0  0  0  0
   16.0085  -13.4522   17.1200 C   0  0  0  0  0  0  0  0  0  0  0  0
   16.1808  -13.3407   18.4215 N   0  0  0  0  0  0  0  0  0  0  0  0
   16.0686  -15.9522   22.5128 C   0  0  0  0  0  0  0  0  0  0  0  0
   17.3970  -15.8570   22.9193 O   0  0  0  0  0  0  0  0  0  0  0  0
   15.2165  -15.9883   23.4002 O   0  0  0  0  0  0  0  0  0  0  0  0
  2  1  1  1
  2  3  1  0
  4  2  1  0
  5  7  1  0
  5  4  1  0
  5  6  1  6
  7  8  2  0
  9 10  1  0
  9  7  1  0
 10 11  1  0
 11 13  1  0
 11 12  2  0
 13 14  1  0
 14 15  1  6
 14 21  1  0
 16 17  2  0
 16 15  1  0
 18 17  1  0
 19 20  2  0
 19 18  1  0
 20 16  1  0
 21 22  1  0
 23 21  2  0
M  END
$$$$
