LGH.pdb
     RDKit          3D

 23 23  0  0  1  0  0  0  0  0999 V2000
    9.2960  -12.4044   19.0908 C   0  0  0  0  0  0  0  0  0  0  0  0
    8.2001  -13.4492   18.7490 C   0  0  2  0  0  0  0  0  0  0  0  0
    7.0031  -12.7027   18.1964 C   0  0  0  0  0  0  0  0  0  0  0  0
    7.8416  -14.1827   19.9796 C   0  0  0  0  0  0  0  0  0  0  0  0
    8.9503  -14.9076   20.6673 C   0  0  2  0  0  0  0  0  0  0  0  0
    9.5898  -15.8999   19.8672 N   0  0  0  0  0  0  0  0  0  0  0  0
    8.4036  -15.5233   21.9297 C   0  0  0  0  0  0  0  0  0  0  0  0
    7.8017  -14.7167   22.7110 O   0  0  0  0  0  0  0  0  0  0  0  0
    8.5377  -16.8785   22.2350 N   0  0  0  0  0  0  0  0  0  0  0  0
    8.0403  -17.3982   23.5214 C   0  0  0  0  0  0  0  0  0  0  0  0
    8.9094  -16.8588   24.6130 C   0  0  0  0  0  0  0  0  0  0  0  0
   10.1347  -16.6240   24.4525 O   0  0  0  0  0  0  0  0  0  0  0  0
    8.3076  -16.6092   25.8720 N   0  0  0  0  0  0  0  0  0  0  0  0
    9.1736  -16.0972   26.9574 C   0  0  1  0  0  0  0  0  0  0  0  0
    8.2573  -15.3050   27.8360 C   0  0  0  0  0  0  0  0  0  0  0  0
    7.7466  -14.0477   27.2971 C   0  0  0  0  0  0  0  0  0  0  0  0
    8.2557  -12.8083   27.0792 C   0  0  0  0  0  0  0  0  0  0  0  0
    7.3100  -12.0366   26.4858 N   0  0  0  0  0  0  0  0  0  0  0  0
    6.2176  -12.7998   26.3361 C   0  0  0  0  0  0  0  0  0  0  0  0
    6.4549  -14.0049   26.8131 N   0  0  0  0  0  0  0  0  0  0  0  0
    9.6347  -17.2895   27.7358 C   0  0  0  0  0  0  0  0  0  0  0  0
   10.5364  -17.1659   28.7896 O   0  0  0  0  0  0  0  0  0  0  0  0
    9.2357  -18.4243   27.4752 O   0  0  0  0  0  0  0  0  0  0  0  0
  2  1  1  1
  2  3  1  0
  4  2  1  0
  5  7  1  0
  5  4  1  0
  5  6  1  6
  7  8  2  0
  9 10  1  0
  9  7  1  0
 10 11  1  0
 11 13  1  0
 11 12  2  0
 13 14  1  0
 14 15  1  1
 14 21  1  0
 16 17  2  0
 16 15  1  0
 18 17  1  0
 19 20  2  0
 19 18  1  0
 20 16  1  0
 21 22  1  0
 23 21  2  0
M  END
$$$$
