LGH.pdb
     RDKit          3D

 23 23  0  0  1  0  0  0  0  0999 V2000
    7.9948  -14.5189   18.0000 C   0  0  0  0  0  0  0  0  0  0  0  0
    7.5259  -13.6554   19.2017 C   0  0  2  0  0  0  0  0  0  0  0  0
    7.7683  -12.2016   18.8512 C   0  0  0  0  0  0  0  0  0  0  0  0
    8.2991  -14.0451   20.3981 C   0  0  0  0  0  0  0  0  0  0  0  0
    8.0665  -15.4245   20.9186 C   0  0  2  0  0  0  0  0  0  0  0  0
    6.6943  -15.7491   21.1323 N   0  0  0  0  0  0  0  0  0  0  0  0
    8.8497  -15.5880   22.1959 C   0  0  0  0  0  0  0  0  0  0  0  0
    8.3993  -14.9399   23.1961 O   0  0  0  0  0  0  0  0  0  0  0  0
    9.9881  -16.3895   22.2928 N   0  0  0  0  0  0  0  0  0  0  0  0
   11.1856  -15.8896   22.9917 C   0  0  0  0  0  0  0  0  0  0  0  0
   10.9661  -16.0384   24.4640 C   0  0  0  0  0  0  0  0  0  0  0  0
   11.8403  -15.7339   25.3155 O   0  0  0  0  0  0  0  0  0  0  0  0
    9.7145  -16.5451   24.8957 N   0  0  0  0  0  0  0  0  0  0  0  0
    9.4976  -16.6886   26.3526 C   0  0  1  0  0  0  0  0  0  0  0  0
    8.0535  -16.3549   26.5588 C   0  0  0  0  0  0  0  0  0  0  0  0
    7.6798  -14.9463   26.4667 C   0  0  0  0  0  0  0  0  0  0  0  0
    8.3502  -13.7692   26.3792 C   0  0  0  0  0  0  0  0  0  0  0  0
    7.4558  -12.7555   26.2580 N   0  0  0  0  0  0  0  0  0  0  0  0
    6.2335  -13.3070   26.2694 C   0  0  0  0  0  0  0  0  0  0  0  0
    6.3424  -14.6143   26.3929 N   0  0  0  0  0  0  0  0  0  0  0  0
    9.6812  -18.1392   26.6720 C   0  0  0  0  0  0  0  0  0  0  0  0
    9.9482  -19.0751   25.6762 O   0  0  0  0  0  0  0  0  0  0  0  0
    9.6035  -18.5611   27.8257 O   0  0  0  0  0  0  0  0  0  0  0  0
  2  1  1  6
  2  3  1  0
  4  2  1  0
  5  7  1  0
  5  4  1  0
  5  6  1  1
  7  8  2  0
  9 10  1  0
  9  7  1  0
 10 11  1  0
 11 13  1  0
 11 12  2  0
 13 14  1  0
 14 15  1  6
 14 21  1  0
 16 17  2  0
 16 15  1  0
 18 17  1  0
 19 20  2  0
 19 18  1  0
 20 16  1  0
 21 22  1  0
 23 21  2  0
M  END
$$$$
