LGH.pdb
     RDKit          3D

 23 23  0  0  1  0  0  0  0  0999 V2000
    6.5762  -13.5991   20.6883 C   0  0  0  0  0  0  0  0  0  0  0  0
    8.0102  -13.5840   20.0941 C   0  0  2  0  0  0  0  0  0  0  0  0
    8.1437  -12.3433   19.2349 C   0  0  0  0  0  0  0  0  0  0  0  0
    8.2043  -14.8064   19.2884 C   0  0  0  0  0  0  0  0  0  0  0  0
    8.0999  -16.1050   20.0167 C   0  0  2  0  0  0  0  0  0  0  0  0
    7.0893  -16.1361   21.0224 N   0  0  0  0  0  0  0  0  0  0  0  0
    9.4462  -16.4229   20.6153 C   0  0  0  0  0  0  0  0  0  0  0  0
   10.3565  -16.7237   19.7762 O   0  0  0  0  0  0  0  0  0  0  0  0
    9.6944  -16.3929   21.9884 N   0  0  0  0  0  0  0  0  0  0  0  0
   11.0176  -16.7820   22.5081 C   0  0  0  0  0  0  0  0  0  0  0  0
   10.9861  -16.6735   23.9998 C   0  0  0  0  0  0  0  0  0  0  0  0
   11.9492  -16.2177   24.6684 O   0  0  0  0  0  0  0  0  0  0  0  0
    9.8135  -17.1079   24.6676 N   0  0  0  0  0  0  0  0  0  0  0  0
    9.7518  -16.9258   26.1350 C   0  0  1  0  0  0  0  0  0  0  0  0
    8.3447  -16.4958   26.4080 C   0  0  0  0  0  0  0  0  0  0  0  0
    7.9263  -15.2105   25.8557 C   0  0  0  0  0  0  0  0  0  0  0  0
    8.5297  -14.2090   25.1660 C   0  0  0  0  0  0  0  0  0  0  0  0
    7.6077  -13.2616   24.8589 N   0  0  0  0  0  0  0  0  0  0  0  0
    6.4349  -13.6788   25.3578 C   0  0  0  0  0  0  0  0  0  0  0  0
    6.6007  -14.8404   25.9572 N   0  0  0  0  0  0  0  0  0  0  0  0
    9.9414  -18.2802   26.7429 C   0  0  0  0  0  0  0  0  0  0  0  0
   10.0776  -18.4475   28.1185 O   0  0  0  0  0  0  0  0  0  0  0  0
    9.9844  -19.2978   26.0518 O   0  0  0  0  0  0  0  0  0  0  0  0
  2  1  1  6
  2  3  1  0
  4  2  1  0
  5  7  1  0
  5  4  1  0
  5  6  1  1
  7  8  2  0
  9 10  1  0
  9  7  1  0
 10 11  1  0
 11 13  1  0
 11 12  2  0
 13 14  1  0
 14 15  1  6
 14 21  1  0
 16 17  2  0
 16 15  1  0
 18 17  1  0
 19 20  2  0
 19 18  1  0
 20 16  1  0
 21 22  1  0
 23 21  2  0
M  END
$$$$
