LGH.pdb
     RDKit          3D

 23 23  0  0  1  0  0  0  0  0999 V2000
    9.0771  -12.0107   19.4641 C   0  0  0  0  0  0  0  0  0  0  0  0
    8.4381  -13.1333   18.6031 C   0  0  2  0  0  0  0  0  0  0  0  0
    7.0104  -12.7285   18.2980 C   0  0  0  0  0  0  0  0  0  0  0  0
    8.4760  -14.3976   19.3654 C   0  0  0  0  0  0  0  0  0  0  0  0
    9.8269  -14.8946   19.7599 C   0  0  2  0  0  0  0  0  0  0  0  0
   10.7313  -15.0677   18.6710 N   0  0  0  0  0  0  0  0  0  0  0  0
    9.6552  -16.1901   20.5108 C   0  0  0  0  0  0  0  0  0  0  0  0
   10.4239  -17.1373   20.1429 O   0  0  0  0  0  0  0  0  0  0  0  0
    8.7262  -16.3561   21.5390 N   0  0  0  0  0  0  0  0  0  0  0  0
    8.8008  -17.5368   22.4180 C   0  0  0  0  0  0  0  0  0  0  0  0
    9.4754  -17.1324   23.6905 C   0  0  0  0  0  0  0  0  0  0  0  0
   10.6598  -16.7104   23.7273 O   0  0  0  0  0  0  0  0  0  0  0  0
    8.7317  -17.2370   24.8928 N   0  0  0  0  0  0  0  0  0  0  0  0
    9.3968  -16.8263   26.1495 C   0  0  1  0  0  0  0  0  0  0  0  0
    8.3438  -16.0897   26.9162 C   0  0  0  0  0  0  0  0  0  0  0  0
    7.8867  -14.8193   26.3600 C   0  0  0  0  0  0  0  0  0  0  0  0
    8.4122  -13.8761   25.5373 C   0  0  0  0  0  0  0  0  0  0  0  0
    7.4829  -12.9125   25.3140 N   0  0  0  0  0  0  0  0  0  0  0  0
    6.3833  -13.2614   25.9978 C   0  0  0  0  0  0  0  0  0  0  0  0
    6.6009  -14.3969   26.6299 N   0  0  0  0  0  0  0  0  0  0  0  0
    9.7115  -18.0834   26.8981 C   0  0  0  0  0  0  0  0  0  0  0  0
   10.4500  -18.0616   28.0783 O   0  0  0  0  0  0  0  0  0  0  0  0
    9.3303  -19.1841   26.5006 O   0  0  0  0  0  0  0  0  0  0  0  0
  2  1  1  1
  2  3  1  0
  4  2  1  0
  5  7  1  0
  5  4  1  0
  5  6  1  6
  7  8  2  0
  9 10  1  0
  9  7  1  0
 10 11  1  0
 11 13  1  0
 11 12  2  0
 13 14  1  0
 14 15  1  1
 14 21  1  0
 16 17  2  0
 16 15  1  0
 18 17  1  0
 19 20  2  0
 19 18  1  0
 20 16  1  0
 21 22  1  0
 23 21  2  0
M  END
$$$$
