LGH.pdb
     RDKit          3D

 23 23  0  0  1  0  0  0  0  0999 V2000
    9.4155  -12.6693   18.9630 C   0  0  0  0  0  0  0  0  0  0  0  0
    8.1072  -13.4358   18.6311 C   0  0  2  0  0  0  0  0  0  0  0  0
    7.0540  -12.4144   18.2528 C   0  0  0  0  0  0  0  0  0  0  0  0
    7.6916  -14.2053   19.8212 C   0  0  0  0  0  0  0  0  0  0  0  0
    8.6996  -15.1499   20.3862 C   0  0  2  0  0  0  0  0  0  0  0  0
    9.0311  -16.2393   19.5278 N   0  0  0  0  0  0  0  0  0  0  0  0
    8.1834  -15.6605   21.7070 C   0  0  0  0  0  0  0  0  0  0  0  0
    7.8968  -14.7610   22.5626 O   0  0  0  0  0  0  0  0  0  0  0  0
    8.0236  -17.0182   21.9878 N   0  0  0  0  0  0  0  0  0  0  0  0
    7.4828  -17.4440   23.2911 C   0  0  0  0  0  0  0  0  0  0  0  0
    8.4461  -17.0279   24.3574 C   0  0  0  0  0  0  0  0  0  0  0  0
    9.6772  -16.8846   24.1425 O   0  0  0  0  0  0  0  0  0  0  0  0
    7.9296  -16.7905   25.6560 N   0  0  0  0  0  0  0  0  0  0  0  0
    8.8757  -16.3336   26.6982 C   0  0  1  0  0  0  0  0  0  0  0  0
    8.0515  -15.4904   27.6196 C   0  0  0  0  0  0  0  0  0  0  0  0
    7.5313  -14.2365   27.0818 C   0  0  0  0  0  0  0  0  0  0  0  0
    7.6625  -13.5529   25.9164 C   0  0  0  0  0  0  0  0  0  0  0  0
    6.8789  -12.4455   25.9593 N   0  0  0  0  0  0  0  0  0  0  0  0
    6.2631  -12.4461   27.1506 C   0  0  0  0  0  0  0  0  0  0  0  0
    6.6370  -13.5063   27.8378 N   0  0  0  0  0  0  0  0  0  0  0  0
    9.3020  -17.5531   27.4539 C   0  0  0  0  0  0  0  0  0  0  0  0
   10.3521  -17.5126   28.3674 O   0  0  0  0  0  0  0  0  0  0  0  0
    8.7419  -18.6379   27.2978 O   0  0  0  0  0  0  0  0  0  0  0  0
  2  1  1  1
  2  3  1  0
  4  2  1  0
  5  7  1  0
  5  4  1  0
  5  6  1  6
  7  8  2  0
  9 10  1  0
  9  7  1  0
 10 11  1  0
 11 13  1  0
 11 12  2  0
 13 14  1  0
 14 15  1  1
 14 21  1  0
 16 17  2  0
 16 15  1  0
 18 17  1  0
 19 20  2  0
 19 18  1  0
 20 16  1  0
 21 22  1  0
 23 21  2  0
M  END
$$$$
