TYS.pdb
     RDKit          3D

 26 26  0  0  1  0  0  0  0  0999 V2000
   26.9869   -6.8593  -20.0161 C   0  0  0  0  0  0  0  0  0  0  0  0
   25.7007   -6.5406  -19.2880 C   0  0  1  0  0  0  0  0  0  0  0  0
   24.8809   -5.8619  -20.2112 O   0  0  0  0  0  0  0  0  0  0  0  0
   24.9993   -7.8476  -18.9866 C   0  0  2  0  0  0  0  0  0  0  0  0
   24.7465   -8.6403  -20.1484 N   0  0  0  0  0  0  0  0  0  0  0  0
   23.7354   -7.6449  -18.2375 C   0  0  0  0  0  0  0  0  0  0  0  0
   22.6129   -7.8883  -18.7572 O   0  0  0  0  0  0  0  0  0  0  0  0
   21.9904  -13.4230  -16.2256 O   0  0  0  0  0  0  0  0  0  0  0  0
   22.1766  -12.0866  -15.8983 C   0  0  0  0  0  0  0  0  0  0  0  0
   23.3879  -11.6549  -15.4018 C   0  0  0  0  0  0  0  0  0  0  0  0
   23.5949  -10.3327  -15.0702 C   0  0  0  0  0  0  0  0  0  0  0  0
   22.5988   -9.3746  -15.2190 C   0  0  0  0  0  0  0  0  0  0  0  0
   22.8390   -7.9530  -14.8565 C   0  0  0  0  0  0  0  0  0  0  0  0
   22.6112   -7.0398  -16.0587 C   0  0  2  0  0  0  0  0  0  0  0  0
   23.7678   -7.1730  -16.9213 N   0  0  0  0  0  0  0  0  0  0  0  0
   22.5927   -5.6427  -15.5553 C   0  0  0  0  0  0  0  0  0  0  0  0
   23.5791   -5.1341  -14.9602 O   0  0  0  0  0  0  0  0  0  0  0  0
   21.3946   -9.8268  -15.7171 C   0  0  0  0  0  0  0  0  0  0  0  0
   21.1803  -11.1472  -16.0508 C   0  0  0  0  0  0  0  0  0  0  0  0
   20.2101   -1.4335  -15.4558 O   0  0  0  0  0  0  0  0  0  0  0  0
   20.1425   -2.7932  -15.7853 C   0  0  0  0  0  0  0  0  0  0  0  0
   21.4503   -3.4131  -15.3045 C   0  0  2  0  0  0  0  0  0  0  0  0
   21.4476   -4.7971  -15.7208 N   0  0  0  0  0  0  0  0  0  0  0  0
   21.6143   -3.2755  -13.8367 C   0  0  0  0  0  0  0  0  0  0  0  0
   22.4670   -2.3046  -13.3324 O   0  0  0  0  0  0  0  0  0  0  0  0
   21.0123   -4.0033  -13.0065 O   0  0  0  0  0  0  0  0  0  0  0  0
  2  4  1  0
  2  1  1  6
  3  2  1  0
  4  5  1  6
  6  7  2  0
  6  4  1  0
  8  9  1  0
  9 19  2  0
  9 10  1  0
 10 11  2  0
 11 12  1  0
 12 13  1  0
 14 13  1  1
 14 16  1  0
 14 15  1  0
 15  6  1  0
 16 23  1  0
 17 16  2  0
 18 12  2  0
 19 18  1  0
 21 20  1  0
 22 21  1  1
 23 22  1  0
 24 25  1  0
 24 22  1  0
 26 24  2  0
M  END
$$$$
