TYS.pdb
     RDKit          3D

 26 26  0  0  1  0  0  0  0  0999 V2000
   22.9815  -26.4070  -14.8882 C   0  0  0  0  0  0  0  0  0  0  0  0
   22.7607  -24.9647  -15.2846 C   0  0  1  0  0  0  0  0  0  0  0  0
   22.6498  -24.9527  -16.6891 O   0  0  0  0  0  0  0  0  0  0  0  0
   21.4093  -24.5369  -14.7539 C   0  0  2  0  0  0  0  0  0  0  0  0
   20.3160  -25.2476  -15.3385 N   0  0  0  0  0  0  0  0  0  0  0  0
   21.1880  -23.0774  -14.8972 C   0  0  0  0  0  0  0  0  0  0  0  0
   20.3326  -22.6144  -15.6992 O   0  0  0  0  0  0  0  0  0  0  0  0
   15.9475  -21.7577  -11.7169 O   0  0  0  0  0  0  0  0  0  0  0  0
   17.2725  -21.4217  -11.9602 C   0  0  0  0  0  0  0  0  0  0  0  0
   17.5830  -20.2524  -12.6208 C   0  0  0  0  0  0  0  0  0  0  0  0
   18.8916  -19.8990  -12.8730 C   0  0  0  0  0  0  0  0  0  0  0  0
   19.9569  -20.6990  -12.4762 C   0  0  0  0  0  0  0  0  0  0  0  0
   21.3621  -20.3027  -12.7563 C   0  0  0  0  0  0  0  0  0  0  0  0
   21.7794  -20.7357  -14.1597 C   0  0  2  0  0  0  0  0  0  0  0  0
   21.9362  -22.1759  -14.1332 N   0  0  0  0  0  0  0  0  0  0  0  0
   23.1179  -20.1491  -14.4236 C   0  0  0  0  0  0  0  0  0  0  0  0
   24.1771  -20.6870  -14.0054 O   0  0  0  0  0  0  0  0  0  0  0  0
   19.6251  -21.8642  -11.8169 C   0  0  0  0  0  0  0  0  0  0  0  0
   18.3191  -22.2242  -11.5612 C   0  0  0  0  0  0  0  0  0  0  0  0
   25.3744  -20.0673  -17.8569 O   0  0  0  0  0  0  0  0  0  0  0  0
   24.3288  -20.1677  -16.9303 C   0  0  0  0  0  0  0  0  0  0  0  0
   24.2441  -18.8126  -16.2359 C   0  0  2  0  0  0  0  0  0  0  0  0
   23.2754  -18.9363  -15.1705 N   0  0  0  0  0  0  0  0  0  0  0  0
   23.8879  -17.7314  -17.1869 C   0  0  0  0  0  0  0  0  0  0  0  0
   24.8876  -16.9241  -17.7094 O   0  0  0  0  0  0  0  0  0  0  0  0
   22.7076  -17.5001  -17.5541 O   0  0  0  0  0  0  0  0  0  0  0  0
  2  4  1  0
  2  1  1  1
  3  2  1  0
  4  5  1  6
  6  7  2  0
  6  4  1  0
  8  9  1  0
  9 19  2  0
  9 10  1  0
 10 11  2  0
 11 12  1  0
 12 13  1  0
 14 13  1  1
 14 16  1  0
 14 15  1  0
 15  6  1  0
 16 23  1  0
 17 16  2  0
 18 12  2  0
 19 18  1  0
 21 20  1  0
 22 21  1  6
 23 22  1  0
 24 25  1  0
 24 22  1  0
 26 24  2  0
M  END
$$$$
