TYS.pdb
     RDKit          3D

 26 26  0  0  1  0  0  0  0  0999 V2000
   26.5074  -23.0695  -18.5644 C   0  0  0  0  0  0  0  0  0  0  0  0
   27.0739  -24.4446  -18.2920 C   0  0  1  0  0  0  0  0  0  0  0  0
   28.2940  -24.5162  -18.9930 O   0  0  0  0  0  0  0  0  0  0  0  0
   27.4299  -24.5195  -16.8228 C   0  0  2  0  0  0  0  0  0  0  0  0
   27.9837  -25.7780  -16.4336 N   0  0  0  0  0  0  0  0  0  0  0  0
   26.2766  -24.1917  -15.9498 C   0  0  0  0  0  0  0  0  0  0  0  0
   25.3555  -25.0243  -15.7313 O   0  0  0  0  0  0  0  0  0  0  0  0
   21.9788  -19.8170   -9.5651 O   0  0  0  0  0  0  0  0  0  0  0  0
   22.9118  -20.2293  -10.5070 C   0  0  0  0  0  0  0  0  0  0  0  0
   22.7413  -19.9145  -11.8381 C   0  0  0  0  0  0  0  0  0  0  0  0
   23.6551  -20.3134  -12.7904 C   0  0  0  0  0  0  0  0  0  0  0  0
   24.7870  -21.0486  -12.4581 C   0  0  0  0  0  0  0  0  0  0  0  0
   25.7623  -21.4707  -13.4978 C   0  0  0  0  0  0  0  0  0  0  0  0
   25.1549  -22.5298  -14.4145 C   0  0  2  0  0  0  0  0  0  0  0  0
   26.1898  -22.9337  -15.3447 N   0  0  0  0  0  0  0  0  0  0  0  0
   24.0834  -21.8699  -15.2031 C   0  0  0  0  0  0  0  0  0  0  0  0
   24.3310  -20.9520  -16.0291 O   0  0  0  0  0  0  0  0  0  0  0  0
   24.9392  -21.3532  -11.1215 C   0  0  0  0  0  0  0  0  0  0  0  0
   24.0298  -20.9578  -10.1637 C   0  0  0  0  0  0  0  0  0  0  0  0
   22.0638  -22.5699  -17.8274 O   0  0  0  0  0  0  0  0  0  0  0  0
   21.0972  -22.5018  -16.8160 C   0  0  0  0  0  0  0  0  0  0  0  0
   21.6499  -21.5475  -15.7628 C   0  0  2  0  0  0  0  0  0  0  0  0
   22.7070  -22.2439  -15.0653 N   0  0  0  0  0  0  0  0  0  0  0  0
   20.5892  -21.0793  -14.8376 C   0  0  0  0  0  0  0  0  0  0  0  0
   19.6582  -20.1506  -15.2792 O   0  0  0  0  0  0  0  0  0  0  0  0
   20.4834  -21.4844  -13.6518 O   0  0  0  0  0  0  0  0  0  0  0  0
  2  4  1  0
  2  1  1  1
  3  2  1  0
  4  5  1  1
  6  7  2  0
  6  4  1  0
  8  9  1  0
  9 19  2  0
  9 10  1  0
 10 11  2  0
 11 12  1  0
 12 13  1  0
 14 13  1  1
 14 16  1  0
 14 15  1  0
 15  6  1  0
 16 23  1  0
 17 16  2  0
 18 12  2  0
 19 18  1  0
 21 20  1  0
 22 21  1  6
 23 22  1  0
 24 25  1  0
 24 22  1  0
 26 24  2  0
M  END
$$$$
