TYS.pdb
     RDKit          3D

 26 26  0  0  1  0  0  0  0  0999 V2000
   21.6292   -3.2388  -19.9895 C   0  0  0  0  0  0  0  0  0  0  0  0
   21.1891   -4.6793  -20.1206 C   0  0  1  0  0  0  0  0  0  0  0  0
   21.8074   -5.1779  -21.2842 O   0  0  0  0  0  0  0  0  0  0  0  0
   21.7835   -5.4554  -18.9650 C   0  0  2  0  0  0  0  0  0  0  0  0
   21.6091   -6.8692  -19.0777 N   0  0  0  0  0  0  0  0  0  0  0  0
   21.2656   -4.9928  -17.6546 C   0  0  0  0  0  0  0  0  0  0  0  0
   20.1792   -5.4254  -17.1834 O   0  0  0  0  0  0  0  0  0  0  0  0
   21.8654   -9.3346  -12.9074 O   0  0  0  0  0  0  0  0  0  0  0  0
   22.0392   -8.0169  -13.3086 C   0  0  0  0  0  0  0  0  0  0  0  0
   23.0168   -7.6923  -14.2245 C   0  0  0  0  0  0  0  0  0  0  0  0
   23.2070   -6.3905  -14.6369 C   0  0  0  0  0  0  0  0  0  0  0  0
   22.4273   -5.3465  -14.1529 C   0  0  0  0  0  0  0  0  0  0  0  0
   22.6460   -3.9483  -14.6085 C   0  0  0  0  0  0  0  0  0  0  0  0
   21.5787   -3.5326  -15.6181 C   0  0  2  0  0  0  0  0  0  0  0  0
   21.9847   -4.0541  -16.9076 N   0  0  0  0  0  0  0  0  0  0  0  0
   21.6102   -2.0507  -15.7097 C   0  0  0  0  0  0  0  0  0  0  0  0
   22.6761   -1.4178  -15.9314 O   0  0  0  0  0  0  0  0  0  0  0  0
   21.4550   -5.6920  -13.2377 C   0  0  0  0  0  0  0  0  0  0  0  0
   21.2589   -6.9913  -12.8206 C   0  0  0  0  0  0  0  0  0  0  0  0
   19.0313    2.0372  -15.8619 O   0  0  0  0  0  0  0  0  0  0  0  0
   18.9937    0.6536  -15.6472 C   0  0  0  0  0  0  0  0  0  0  0  0
   20.4430    0.1798  -15.6701 C   0  0  2  0  0  0  0  0  0  0  0  0
   20.4255   -1.2604  -15.5502 N   0  0  0  0  0  0  0  0  0  0  0  0
   21.2441    0.8164  -14.5962 C   0  0  0  0  0  0  0  0  0  0  0  0
   22.0168    1.9305  -14.8890 O   0  0  0  0  0  0  0  0  0  0  0  0
   21.2632    0.3953  -13.4114 O   0  0  0  0  0  0  0  0  0  0  0  0
  2  4  1  0
  2  1  1  1
  3  2  1  0
  4  5  1  6
  6  7  2  0
  6  4  1  0
  8  9  1  0
  9 19  2  0
  9 10  1  0
 10 11  2  0
 11 12  1  0
 12 13  1  0
 14 13  1  1
 14 16  1  0
 14 15  1  0
 15  6  1  0
 16 23  1  0
 17 16  2  0
 18 12  2  0
 19 18  1  0
 21 20  1  0
 22 21  1  1
 23 22  1  0
 24 25  1  0
 24 22  1  0
 26 24  2  0
M  END
$$$$
