TYS.pdb
     RDKit          3D

 26 26  0  0  1  0  0  0  0  0999 V2000
   29.3972  -20.3417  -18.5025 C   0  0  0  0  0  0  0  0  0  0  0  0
   28.1748  -20.5406  -17.6352 C   0  0  1  0  0  0  0  0  0  0  0  0
   27.1198  -20.8728  -18.5080 O   0  0  0  0  0  0  0  0  0  0  0  0
   28.4076  -21.7638  -16.7747 C   0  0  2  0  0  0  0  0  0  0  0  0
   28.6094  -22.9611  -17.5281 N   0  0  0  0  0  0  0  0  0  0  0  0
   27.3172  -21.9723  -15.7913 C   0  0  0  0  0  0  0  0  0  0  0  0
   26.4571  -22.8818  -15.9411 O   0  0  0  0  0  0  0  0  0  0  0  0
   22.8607  -20.7894   -8.2078 O   0  0  0  0  0  0  0  0  0  0  0  0
   23.8072  -20.7280   -9.2217 C   0  0  0  0  0  0  0  0  0  0  0  0
   23.5042  -20.1166  -10.4194 C   0  0  0  0  0  0  0  0  0  0  0  0
   24.4286  -20.0442  -11.4397 C   0  0  0  0  0  0  0  0  0  0  0  0
   25.7047  -20.5806  -11.3128 C   0  0  0  0  0  0  0  0  0  0  0  0
   26.6894  -20.4937  -12.4232 C   0  0  0  0  0  0  0  0  0  0  0  0
   26.1848  -21.2391  -13.6564 C   0  0  2  0  0  0  0  0  0  0  0  0
   27.2231  -21.1507  -14.6633 N   0  0  0  0  0  0  0  0  0  0  0  0
   25.0054  -20.4969  -14.1698 C   0  0  0  0  0  0  0  0  0  0  0  0
   25.0978  -19.3232  -14.6170 O   0  0  0  0  0  0  0  0  0  0  0  0
   25.9880  -21.1878  -10.1071 C   0  0  0  0  0  0  0  0  0  0  0  0
   25.0689  -21.2641   -9.0824 C   0  0  0  0  0  0  0  0  0  0  0  0
   22.1689  -21.8435  -16.2710 O   0  0  0  0  0  0  0  0  0  0  0  0
   22.3113  -20.4699  -16.0367 C   0  0  0  0  0  0  0  0  0  0  0  0
   22.5209  -20.3141  -14.5342 C   0  0  2  0  0  0  0  0  0  0  0  0
   23.6960  -21.0789  -14.1834 N   0  0  0  0  0  0  0  0  0  0  0  0
   21.3275  -20.7472  -13.7671 C   0  0  0  0  0  0  0  0  0  0  0  0
   21.4482  -21.7652  -12.8326 O   0  0  0  0  0  0  0  0  0  0  0  0
   20.1895  -20.2339  -13.9185 O   0  0  0  0  0  0  0  0  0  0  0  0
  2  4  1  0
  2  1  1  6
  3  2  1  0
  4  5  1  6
  6  7  2  0
  6  4  1  0
  8  9  1  0
  9 19  2  0
  9 10  1  0
 10 11  2  0
 11 12  1  0
 12 13  1  0
 14 13  1  1
 14 16  1  0
 14 15  1  0
 15  6  1  0
 16 23  1  0
 17 16  2  0
 18 12  2  0
 19 18  1  0
 21 20  1  0
 22 21  1  6
 23 22  1  0
 24 25  1  0
 24 22  1  0
 26 24  2  0
M  END
$$$$
