TYS.pdb
     RDKit          3D

 26 26  0  0  1  0  0  0  0  0999 V2000
   29.5971  -23.2119  -17.8155 C   0  0  0  0  0  0  0  0  0  0  0  0
   28.2419  -22.5975  -17.5470 C   0  0  1  0  0  0  0  0  0  0  0  0
   27.3783  -23.0924  -18.5442 O   0  0  0  0  0  0  0  0  0  0  0  0
   27.7295  -23.1532  -16.2357 C   0  0  2  0  0  0  0  0  0  0  0  0
   27.5761  -24.5739  -16.2393 N   0  0  0  0  0  0  0  0  0  0  0  0
   26.4574  -22.5162  -15.8165 C   0  0  0  0  0  0  0  0  0  0  0  0
   25.3928  -23.1810  -15.6990 O   0  0  0  0  0  0  0  0  0  0  0  0
   24.2590  -21.2437   -8.7769 O   0  0  0  0  0  0  0  0  0  0  0  0
   24.5962  -20.8077  -10.0512 C   0  0  0  0  0  0  0  0  0  0  0  0
   25.9182  -20.6260  -10.3965 C   0  0  0  0  0  0  0  0  0  0  0  0
   26.2758  -20.1940  -11.6560 C   0  0  0  0  0  0  0  0  0  0  0  0
   25.3271  -19.9215  -12.6348 C   0  0  0  0  0  0  0  0  0  0  0  0
   25.7302  -19.4563  -13.9881 C   0  0  0  0  0  0  0  0  0  0  0  0
   25.2512  -20.4297  -15.0623 C   0  0  2  0  0  0  0  0  0  0  0  0
   26.4167  -21.1457  -15.5402 N   0  0  0  0  0  0  0  0  0  0  0  0
   24.7342  -19.6193  -16.1943 C   0  0  0  0  0  0  0  0  0  0  0  0
   25.4888  -18.8979  -16.8987 O   0  0  0  0  0  0  0  0  0  0  0  0
   24.0104  -20.1095  -12.2694 C   0  0  0  0  0  0  0  0  0  0  0  0
   23.6453  -20.5413  -11.0121 C   0  0  0  0  0  0  0  0  0  0  0  0
   22.2308  -20.8197  -18.7493 O   0  0  0  0  0  0  0  0  0  0  0  0
   23.0257  -19.6785  -18.9160 C   0  0  0  0  0  0  0  0  0  0  0  0
   22.8373  -18.8409  -17.6555 C   0  0  2  0  0  0  0  0  0  0  0  0
   23.3449  -19.6155  -16.5459 N   0  0  0  0  0  0  0  0  0  0  0  0
   21.4179  -18.4566  -17.4606 C   0  0  0  0  0  0  0  0  0  0  0  0
   20.7822  -17.6808  -18.4189 O   0  0  0  0  0  0  0  0  0  0  0  0
   20.7442  -18.8009  -16.4561 O   0  0  0  0  0  0  0  0  0  0  0  0
  2  4  1  0
  2  1  1  6
  3  2  1  0
  4  5  1  6
  6  7  2  0
  6  4  1  0
  8  9  1  0
  9 19  2  0
  9 10  1  0
 10 11  2  0
 11 12  1  0
 12 13  1  0
 14 13  1  1
 14 16  1  0
 14 15  1  0
 15  6  1  0
 16 23  1  0
 17 16  2  0
 18 12  2  0
 19 18  1  0
 21 20  1  0
 22 21  1  6
 23 22  1  0
 24 25  1  0
 24 22  1  0
 26 24  2  0
M  END
$$$$
