TYS.pdb
     RDKit          3D

 26 26  0  0  1  0  0  0  0  0999 V2000
   20.2278   -6.3644  -21.1180 C   0  0  0  0  0  0  0  0  0  0  0  0
   19.5518   -7.6647  -20.7460 C   0  0  1  0  0  0  0  0  0  0  0  0
   19.9441   -8.6069  -21.7173 O   0  0  0  0  0  0  0  0  0  0  0  0
   20.1447   -8.1406  -19.4372 C   0  0  2  0  0  0  0  0  0  0  0  0
   19.7470   -9.4656  -19.0793 N   0  0  0  0  0  0  0  0  0  0  0  0
   19.8492   -7.2128  -18.3185 C   0  0  0  0  0  0  0  0  0  0  0  0
   18.6688   -7.0023  -17.9288 O   0  0  0  0  0  0  0  0  0  0  0  0
   19.2836   -9.7265  -11.8654 O   0  0  0  0  0  0  0  0  0  0  0  0
   19.8648   -8.8107  -12.7320 C   0  0  0  0  0  0  0  0  0  0  0  0
   20.5997   -9.2468  -13.8136 C   0  0  0  0  0  0  0  0  0  0  0  0
   21.1856   -8.3551  -14.6869 C   0  0  0  0  0  0  0  0  0  0  0  0
   21.0653   -6.9802  -14.5217 C   0  0  0  0  0  0  0  0  0  0  0  0
   21.7036   -6.0327  -15.4730 C   0  0  0  0  0  0  0  0  0  0  0  0
   20.7225   -5.6173  -16.5666 C   0  0  2  0  0  0  0  0  0  0  0  0
   20.8911   -6.5453  -17.6666 N   0  0  0  0  0  0  0  0  0  0  0  0
   21.1409   -4.2768  -17.0499 C   0  0  0  0  0  0  0  0  0  0  0  0
   22.2516   -4.0862  -17.6120 O   0  0  0  0  0  0  0  0  0  0  0  0
   20.3262   -6.5644  -13.4338 C   0  0  0  0  0  0  0  0  0  0  0  0
   19.7375   -7.4499  -12.5564 C   0  0  0  0  0  0  0  0  0  0  0  0
   21.1219   -0.8988  -19.6014 O   0  0  0  0  0  0  0  0  0  0  0  0
   20.8469   -2.1389  -19.0110 C   0  0  0  0  0  0  0  0  0  0  0  0
   20.6126   -1.8623  -17.5297 C   0  0  2  0  0  0  0  0  0  0  0  0
   20.3000   -3.1259  -16.9016 N   0  0  0  0  0  0  0  0  0  0  0  0
   19.5393   -0.8594  -17.3232 C   0  0  0  0  0  0  0  0  0  0  0  0
   19.8209    0.4880  -17.4944 O   0  0  0  0  0  0  0  0  0  0  0  0
   18.3650   -1.1671  -16.9950 O   0  0  0  0  0  0  0  0  0  0  0  0
  2  4  1  0
  2  1  1  6
  3  2  1  0
  4  5  1  1
  6  7  2  0
  6  4  1  0
  8  9  1  0
  9 19  2  0
  9 10  1  0
 10 11  2  0
 11 12  1  0
 12 13  1  0
 14 13  1  1
 14 16  1  0
 14 15  1  0
 15  6  1  0
 16 23  1  0
 17 16  2  0
 18 12  2  0
 19 18  1  0
 21 20  1  0
 22 21  1  6
 23 22  1  0
 24 25  1  0
 24 22  1  0
 26 24  2  0
M  END
$$$$
