TYS.pdb
     RDKit          3D

 26 26  0  0  1  0  0  0  0  0999 V2000
   46.4287   -9.8530   -5.3279 C   0  0  0  0  0  0  0  0  0  0  0  0
   46.3437  -10.0300   -3.8287 C   0  0  1  0  0  0  0  0  0  0  0  0
   47.4607   -9.3637   -3.2873 O   0  0  0  0  0  0  0  0  0  0  0  0
   45.1271   -9.2748   -3.3383 C   0  0  2  0  0  0  0  0  0  0  0  0
   45.0191   -9.2306   -1.9141 N   0  0  0  0  0  0  0  0  0  0  0  0
   43.8684   -9.8045   -3.9168 C   0  0  0  0  0  0  0  0  0  0  0  0
   43.2595  -10.7773   -3.3952 O   0  0  0  0  0  0  0  0  0  0  0  0
   36.6357  -10.0374   -8.9902 O   0  0  0  0  0  0  0  0  0  0  0  0
   37.7604   -9.6514   -8.2735 C   0  0  0  0  0  0  0  0  0  0  0  0
   38.0300  -10.2167   -7.0456 C   0  0  0  0  0  0  0  0  0  0  0  0
   39.1409   -9.8483   -6.3168 C   0  0  0  0  0  0  0  0  0  0  0  0
   40.0393   -8.8944   -6.7807 C   0  0  0  0  0  0  0  0  0  0  0  0
   41.2324   -8.5089   -5.9818 C   0  0  0  0  0  0  0  0  0  0  0  0
   42.1535   -9.7076   -5.7680 C   0  0  2  0  0  0  0  0  0  0  0  0
   43.3272   -9.2248   -5.0689 N   0  0  0  0  0  0  0  0  0  0  0  0
   42.5952  -10.1702   -7.1083 C   0  0  0  0  0  0  0  0  0  0  0  0
   43.3125   -9.4567   -7.8582 O   0  0  0  0  0  0  0  0  0  0  0  0
   39.7516   -8.3410   -8.0110 C   0  0  0  0  0  0  0  0  0  0  0  0
   38.6429   -8.7042   -8.7454 C   0  0  0  0  0  0  0  0  0  0  0  0
   43.6834  -13.7834   -8.1304 O   0  0  0  0  0  0  0  0  0  0  0  0
   42.6108  -13.4088   -8.9496 C   0  0  0  0  0  0  0  0  0  0  0  0
   42.5901  -11.8840   -8.9529 C   0  0  2  0  0  0  0  0  0  0  0  0
   42.2273  -11.4570   -7.6206 N   0  0  0  0  0  0  0  0  0  0  0  0
   41.6606  -11.3512   -9.9787 C   0  0  0  0  0  0  0  0  0  0  0  0
   41.9351  -11.5574  -11.3227 O   0  0  0  0  0  0  0  0  0  0  0  0
   40.6168  -10.7103   -9.6939 O   0  0  0  0  0  0  0  0  0  0  0  0
  2  4  1  0
  2  1  1  6
  3  2  1  0
  4  5  1  1
  6  7  2  0
  6  4  1  0
  8  9  1  0
  9 19  2  0
  9 10  1  0
 10 11  2  0
 11 12  1  0
 12 13  1  0
 14 13  1  6
 14 16  1  0
 14 15  1  0
 15  6  1  0
 16 23  1  0
 17 16  2  0
 18 12  2  0
 19 18  1  0
 21 20  1  0
 22 21  1  1
 23 22  1  0
 24 25  1  0
 24 22  1  0
 26 24  2  0
M  END
$$$$
