TYS.pdb
     RDKit          3D

 26 26  0  0  1  0  0  0  0  0999 V2000
   17.7958  -11.4906  -17.4515 C   0  0  0  0  0  0  0  0  0  0  0  0
   18.6146  -10.3499  -16.8909 C   0  0  1  0  0  0  0  0  0  0  0  0
   18.2613  -10.2396  -15.5315 O   0  0  0  0  0  0  0  0  0  0  0  0
   20.0698  -10.7655  -16.9132 C   0  0  2  0  0  0  0  0  0  0  0  0
   20.3349  -11.9544  -16.1661 N   0  0  0  0  0  0  0  0  0  0  0  0
   20.9695   -9.6789  -16.4555 C   0  0  0  0  0  0  0  0  0  0  0  0
   21.4409   -9.6597  -15.2865 O   0  0  0  0  0  0  0  0  0  0  0  0
   25.9403   -2.3625  -17.0359 O   0  0  0  0  0  0  0  0  0  0  0  0
   25.2495   -3.5411  -17.2837 C   0  0  0  0  0  0  0  0  0  0  0  0
   23.9791   -3.5030  -17.8173 C   0  0  0  0  0  0  0  0  0  0  0  0
   23.2749   -4.6608  -18.0715 C   0  0  0  0  0  0  0  0  0  0  0  0
   23.8072   -5.9167  -17.8042 C   0  0  0  0  0  0  0  0  0  0  0  0
   23.0340   -7.1552  -18.0845 C   0  0  0  0  0  0  0  0  0  0  0  0
   22.0565   -7.4538  -16.9503 C   0  0  2  0  0  0  0  0  0  0  0  0
   21.3156   -8.6408  -17.3266 N   0  0  0  0  0  0  0  0  0  0  0  0
   21.0898   -6.3280  -16.8921 C   0  0  0  0  0  0  0  0  0  0  0  0
   20.1674   -6.1953  -17.7392 O   0  0  0  0  0  0  0  0  0  0  0  0
   25.0792   -5.9331  -17.2708 C   0  0  0  0  0  0  0  0  0  0  0  0
   25.7894   -4.7798  -17.0140 C   0  0  0  0  0  0  0  0  0  0  0  0
   18.1297   -4.8379  -16.7054 O   0  0  0  0  0  0  0  0  0  0  0  0
   18.8372   -4.8703  -15.4970 C   0  0  0  0  0  0  0  0  0  0  0  0
   20.1999   -4.2491  -15.7850 C   0  0  2  0  0  0  0  0  0  0  0  0
   21.1558   -5.3302  -15.8656 N   0  0  0  0  0  0  0  0  0  0  0  0
   20.5759   -3.2518  -14.7535 C   0  0  0  0  0  0  0  0  0  0  0  0
   21.7192   -3.4520  -13.9939 O   0  0  0  0  0  0  0  0  0  0  0  0
   19.9039   -2.2140  -14.5234 O   0  0  0  0  0  0  0  0  0  0  0  0
  2  4  1  0
  2  1  1  1
  3  2  1  0
  4  5  1  1
  6  7  2  0
  6  4  1  0
  8  9  1  0
  9 19  2  0
  9 10  1  0
 10 11  2  0
 11 12  1  0
 12 13  1  0
 14 13  1  6
 14 16  1  0
 14 15  1  0
 15  6  1  0
 16 23  1  0
 17 16  2  0
 18 12  2  0
 19 18  1  0
 21 20  1  0
 22 21  1  1
 23 22  1  0
 24 25  1  0
 24 22  1  0
 26 24  2  0
M  END
$$$$
