TYS.pdb
     RDKit          3D

 26 26  0  0  1  0  0  0  0  0999 V2000
   32.3214  -32.5182  -19.5572 C   0  0  0  0  0  0  0  0  0  0  0  0
   30.8737  -32.5645  -19.1234 C   0  0  1  0  0  0  0  0  0  0  0  0
   30.8646  -32.2808  -17.7434 O   0  0  0  0  0  0  0  0  0  0  0  0
   30.1497  -31.4158  -19.7920 C   0  0  2  0  0  0  0  0  0  0  0  0
   30.7214  -30.1376  -19.5064 N   0  0  0  0  0  0  0  0  0  0  0  0
   28.7034  -31.3988  -19.4640 C   0  0  0  0  0  0  0  0  0  0  0  0
   27.9536  -32.3763  -19.7313 O   0  0  0  0  0  0  0  0  0  0  0  0
   27.3265  -34.6678  -13.8657 O   0  0  0  0  0  0  0  0  0  0  0  0
   27.1723  -33.5069  -14.6114 C   0  0  0  0  0  0  0  0  0  0  0  0
   28.2331  -32.6428  -14.7796 C   0  0  0  0  0  0  0  0  0  0  0  0
   28.1025  -31.4845  -15.5159 C   0  0  0  0  0  0  0  0  0  0  0  0
   26.9022  -31.1320  -16.1219 C   0  0  0  0  0  0  0  0  0  0  0  0
   26.7787  -29.8790  -16.9125 C   0  0  0  0  0  0  0  0  0  0  0  0
   26.7590  -30.1806  -18.4091 C   0  0  2  0  0  0  0  0  0  0  0  0
   28.1379  -30.2804  -18.8428 N   0  0  0  0  0  0  0  0  0  0  0  0
   26.1647  -29.0021  -19.0897 C   0  0  0  0  0  0  0  0  0  0  0  0
   26.7964  -27.9213  -19.2270 O   0  0  0  0  0  0  0  0  0  0  0  0
   25.8534  -32.0096  -15.9417 C   0  0  0  0  0  0  0  0  0  0  0  0
   25.9764  -33.1696  -15.2069 C   0  0  0  0  0  0  0  0  0  0  0  0
   22.9537  -29.5265  -21.4411 O   0  0  0  0  0  0  0  0  0  0  0  0
   23.8300  -28.4711  -21.7240 C   0  0  0  0  0  0  0  0  0  0  0  0
   24.2873  -27.9247  -20.3757 C   0  0  2  0  0  0  0  0  0  0  0  0
   24.8369  -29.0327  -19.6279 N   0  0  0  0  0  0  0  0  0  0  0  0
   23.1774  -27.2610  -19.6491 C   0  0  0  0  0  0  0  0  0  0  0  0
   22.5764  -26.1378  -20.1980 O   0  0  0  0  0  0  0  0  0  0  0  0
   22.7414  -27.6665  -18.5414 O   0  0  0  0  0  0  0  0  0  0  0  0
  2  4  1  0
  2  1  1  6
  3  2  1  0
  4  5  1  1
  6  7  2  0
  6  4  1  0
  8  9  1  0
  9 19  2  0
  9 10  1  0
 10 11  2  0
 11 12  1  0
 12 13  1  0
 14 13  1  1
 14 16  1  0
 14 15  1  0
 15  6  1  0
 16 23  1  0
 17 16  2  0
 18 12  2  0
 19 18  1  0
 21 20  1  0
 22 21  1  6
 23 22  1  0
 24 25  1  0
 24 22  1  0
 26 24  2  0
M  END
$$$$
