TYS.pdb
     RDKit          3D

 26 26  0  0  1  0  0  0  0  0999 V2000
   26.5968  -23.1228  -19.1349 C   0  0  0  0  0  0  0  0  0  0  0  0
   27.9914  -23.0834  -18.5523 C   0  0  1  0  0  0  0  0  0  0  0  0
   28.8423  -22.6552  -19.5904 O   0  0  0  0  0  0  0  0  0  0  0  0
   28.0280  -21.9925  -17.5037 C   0  0  2  0  0  0  0  0  0  0  0  0
   29.3452  -21.6944  -17.0366 N   0  0  0  0  0  0  0  0  0  0  0  0
   27.1472  -22.2955  -16.3496 C   0  0  0  0  0  0  0  0  0  0  0  0
   26.5283  -23.3901  -16.2601 O   0  0  0  0  0  0  0  0  0  0  0  0
   23.2031  -20.8085   -8.5203 O   0  0  0  0  0  0  0  0  0  0  0  0
   24.0132  -20.7266   -9.6449 C   0  0  0  0  0  0  0  0  0  0  0  0
   23.5716  -20.0691  -10.7731 C   0  0  0  0  0  0  0  0  0  0  0  0
   24.3592  -19.9755  -11.9009 C   0  0  0  0  0  0  0  0  0  0  0  0
   25.6300  -20.5359  -11.9566 C   0  0  0  0  0  0  0  0  0  0  0  0
   26.4661  -20.4256  -13.1810 C   0  0  0  0  0  0  0  0  0  0  0  0
   26.1022  -21.5146  -14.1873 C   0  0  2  0  0  0  0  0  0  0  0  0
   26.9858  -21.3573  -15.3249 N   0  0  0  0  0  0  0  0  0  0  0  0
   24.7209  -21.2381  -14.6577 C   0  0  0  0  0  0  0  0  0  0  0  0
   24.4484  -20.2447  -15.3822 O   0  0  0  0  0  0  0  0  0  0  0  0
   26.0531  -21.1892  -10.8178 C   0  0  0  0  0  0  0  0  0  0  0  0
   25.2713  -21.2868   -9.6865 C   0  0  0  0  0  0  0  0  0  0  0  0
   21.9302  -22.7917  -16.7470 O   0  0  0  0  0  0  0  0  0  0  0  0
   21.6784  -22.9826  -15.3824 C   0  0  0  0  0  0  0  0  0  0  0  0
   22.2593  -21.7668  -14.6684 C   0  0  2  0  0  0  0  0  0  0  0  0
   23.6219  -22.0898  -14.3107 N   0  0  0  0  0  0  0  0  0  0  0  0
   21.4497  -21.3885  -13.4845 C   0  0  0  0  0  0  0  0  0  0  0  0
   20.3467  -20.5630  -13.6463 O   0  0  0  0  0  0  0  0  0  0  0  0
   21.7112  -21.7814  -12.3188 O   0  0  0  0  0  0  0  0  0  0  0  0
  2  4  1  0
  2  1  1  6
  3  2  1  0
  4  5  1  1
  6  7  2  0
  6  4  1  0
  8  9  1  0
  9 19  2  0
  9 10  1  0
 10 11  2  0
 11 12  1  0
 12 13  1  0
 14 13  1  1
 14 16  1  0
 14 15  1  0
 15  6  1  0
 16 23  1  0
 17 16  2  0
 18 12  2  0
 19 18  1  0
 21 20  1  0
 22 21  1  1
 23 22  1  0
 24 25  1  0
 24 22  1  0
 26 24  2  0
M  END
$$$$
