TYS.pdb
     RDKit          3D

 26 26  0  0  1  0  0  0  0  0999 V2000
   24.9887  -19.9823  -20.5543 C   0  0  0  0  0  0  0  0  0  0  0  0
   24.8795  -20.0288  -19.0470 C   0  0  1  0  0  0  0  0  0  0  0  0
   26.1966  -19.9563  -18.5522 O   0  0  0  0  0  0  0  0  0  0  0  0
   24.1900  -18.7612  -18.5902 C   0  0  2  0  0  0  0  0  0  0  0  0
   24.7755  -17.5705  -19.1208 N   0  0  0  0  0  0  0  0  0  0  0  0
   24.1179  -18.6645  -17.1120 C   0  0  0  0  0  0  0  0  0  0  0  0
   24.7558  -17.7829  -16.4755 O   0  0  0  0  0  0  0  0  0  0  0  0
   20.3021  -19.4369   -9.1922 O   0  0  0  0  0  0  0  0  0  0  0  0
   20.6270  -19.5232  -10.5393 C   0  0  0  0  0  0  0  0  0  0  0  0
   20.8767  -20.7496  -11.1169 C   0  0  0  0  0  0  0  0  0  0  0  0
   21.2009  -20.8586  -12.4525 C   0  0  0  0  0  0  0  0  0  0  0  0
   21.2918  -19.7444  -13.2786 C   0  0  0  0  0  0  0  0  0  0  0  0
   21.6426  -19.8800  -14.7169 C   0  0  0  0  0  0  0  0  0  0  0  0
   23.1028  -19.5047  -14.9577 C   0  0  2  0  0  0  0  0  0  0  0  0
   23.3287  -19.5639  -16.3877 N   0  0  0  0  0  0  0  0  0  0  0  0
   23.9394  -20.5608  -14.3330 C   0  0  0  0  0  0  0  0  0  0  0  0
   23.8760  -21.7650  -14.6960 O   0  0  0  0  0  0  0  0  0  0  0  0
   21.0383  -18.5270  -12.6816 C   0  0  0  0  0  0  0  0  0  0  0  0
   20.7136  -18.4102  -11.3469 C   0  0  0  0  0  0  0  0  0  0  0  0
   27.3310  -19.7432  -12.6610 O   0  0  0  0  0  0  0  0  0  0  0  0
   27.0695  -21.1026  -12.8746 C   0  0  0  0  0  0  0  0  0  0  0  0
   25.5867  -21.3021  -12.5791 C   0  0  2  0  0  0  0  0  0  0  0  0
   24.8660  -20.2643  -13.2807 N   0  0  0  0  0  0  0  0  0  0  0  0
   25.3112  -21.2809  -11.1217 C   0  0  0  0  0  0  0  0  0  0  0  0
   25.9167  -22.2186  -10.2981 O   0  0  0  0  0  0  0  0  0  0  0  0
   24.5446  -20.4446  -10.5792 O   0  0  0  0  0  0  0  0  0  0  0  0
  2  4  1  0
  2  1  1  6
  3  2  1  0
  4  5  1  1
  6  7  2  0
  6  4  1  0
  8  9  1  0
  9 19  2  0
  9 10  1  0
 10 11  2  0
 11 12  1  0
 12 13  1  0
 14 13  1  6
 14 16  1  0
 14 15  1  0
 15  6  1  0
 16 23  1  0
 17 16  2  0
 18 12  2  0
 19 18  1  0
 21 20  1  0
 22 21  1  1
 23 22  1  0
 24 25  1  0
 24 22  1  0
 26 24  2  0
M  END
$$$$
