TYS.pdb
     RDKit          3D

 26 26  0  0  1  0  0  0  0  0999 V2000
   14.9401  -12.0083  -12.5447 C   0  0  0  0  0  0  0  0  0  0  0  0
   15.5783  -10.6618  -12.8013 C   0  0  1  0  0  0  0  0  0  0  0  0
   14.5265   -9.7251  -12.8354 O   0  0  0  0  0  0  0  0  0  0  0  0
   16.4174  -10.3057  -11.5929 C   0  0  2  0  0  0  0  0  0  0  0  0
   15.6741  -10.2699  -10.3729 N   0  0  0  0  0  0  0  0  0  0  0  0
   17.1418   -9.0240  -11.7723 C   0  0  0  0  0  0  0  0  0  0  0  0
   16.7767   -7.9707  -11.1837 O   0  0  0  0  0  0  0  0  0  0  0  0
   23.5230   -3.7176  -14.9589 O   0  0  0  0  0  0  0  0  0  0  0  0
   22.7824   -4.8140  -14.5381 C   0  0  0  0  0  0  0  0  0  0  0  0
   22.0347   -4.7454  -13.3821 C   0  0  0  0  0  0  0  0  0  0  0  0
   21.2919   -5.8218  -12.9455 C   0  0  0  0  0  0  0  0  0  0  0  0
   21.2598   -7.0228  -13.6448 C   0  0  0  0  0  0  0  0  0  0  0  0
   20.4534   -8.1737  -13.1598 C   0  0  0  0  0  0  0  0  0  0  0  0
   19.0064   -7.7560  -12.9093 C   0  0  2  0  0  0  0  0  0  0  0  0
   18.2596   -8.9613  -12.6106 N   0  0  0  0  0  0  0  0  0  0  0  0
   18.4763   -7.2112  -14.1851 C   0  0  0  0  0  0  0  0  0  0  0  0
   18.1779   -7.9554  -15.1563 O   0  0  0  0  0  0  0  0  0  0  0  0
   22.0144   -7.0709  -14.7984 C   0  0  0  0  0  0  0  0  0  0  0  0
   22.7595   -5.9988  -15.2411 C   0  0  0  0  0  0  0  0  0  0  0  0
   18.1172   -5.2758  -17.9283 O   0  0  0  0  0  0  0  0  0  0  0  0
   18.5372   -5.9144  -16.7545 C   0  0  0  0  0  0  0  0  0  0  0  0
   17.7547   -5.2690  -15.6157 C   0  0  2  0  0  0  0  0  0  0  0  0
   18.2760   -5.8056  -14.3790 N   0  0  0  0  0  0  0  0  0  0  0  0
   16.2964   -5.5040  -15.7514 C   0  0  0  0  0  0  0  0  0  0  0  0
   15.7870   -6.7772  -15.5425 O   0  0  0  0  0  0  0  0  0  0  0  0
   15.4789   -4.5967  -16.0512 O   0  0  0  0  0  0  0  0  0  0  0  0
  2  4  1  0
  2  1  1  1
  3  2  1  0
  4  5  1  1
  6  7  2  0
  6  4  1  0
  8  9  1  0
  9 19  2  0
  9 10  1  0
 10 11  2  0
 11 12  1  0
 12 13  1  0
 14 13  1  6
 14 16  1  0
 14 15  1  0
 15  6  1  0
 16 23  1  0
 17 16  2  0
 18 12  2  0
 19 18  1  0
 21 20  1  0
 22 21  1  6
 23 22  1  0
 24 25  1  0
 24 22  1  0
 26 24  2  0
M  END
$$$$
