TYS.pdb
     RDKit          3D

 26 26  0  0  1  0  0  0  0  0999 V2000
   25.0640  -10.0888  -15.9920 C   0  0  0  0  0  0  0  0  0  0  0  0
   24.5746  -10.9670  -17.1213 C   0  0  1  0  0  0  0  0  0  0  0  0
   25.4276  -12.0880  -17.1493 O   0  0  0  0  0  0  0  0  0  0  0  0
   23.2057  -11.4914  -16.7446 C   0  0  2  0  0  0  0  0  0  0  0  0
   22.7192  -12.5030  -17.6290 N   0  0  0  0  0  0  0  0  0  0  0  0
   22.2021  -10.4055  -16.6302 C   0  0  0  0  0  0  0  0  0  0  0  0
   21.6898   -9.8690  -17.6495 O   0  0  0  0  0  0  0  0  0  0  0  0
   15.8215  -12.4512  -16.9459 O   0  0  0  0  0  0  0  0  0  0  0  0
   16.7977  -11.7395  -16.2617 C   0  0  0  0  0  0  0  0  0  0  0  0
   16.7963  -10.3612  -16.2830 C   0  0  0  0  0  0  0  0  0  0  0  0
   17.7558   -9.6343  -15.6108 C   0  0  0  0  0  0  0  0  0  0  0  0
   18.7665  -10.2509  -14.8823 C   0  0  0  0  0  0  0  0  0  0  0  0
   19.7934   -9.4517  -14.1632 C   0  0  0  0  0  0  0  0  0  0  0  0
   20.8317   -8.8992  -15.1367 C   0  0  2  0  0  0  0  0  0  0  0  0
   21.8007   -9.9510  -15.3698 N   0  0  0  0  0  0  0  0  0  0  0  0
   21.5387   -7.7905  -14.4466 C   0  0  0  0  0  0  0  0  0  0  0  0
   22.6271   -7.9684  -13.8386 O   0  0  0  0  0  0  0  0  0  0  0  0
   18.7502  -11.6301  -14.8736 C   0  0  0  0  0  0  0  0  0  0  0  0
   17.7941  -12.3636  -15.5432 C   0  0  0  0  0  0  0  0  0  0  0  0
   23.7746   -4.1739  -14.7827 O   0  0  0  0  0  0  0  0  0  0  0  0
   22.9735   -5.2676  -15.1348 C   0  0  0  0  0  0  0  0  0  0  0  0
   21.8428   -5.3135  -14.1125 C   0  0  2  0  0  0  0  0  0  0  0  0
   21.0180   -6.4554  -14.4361 N   0  0  0  0  0  0  0  0  0  0  0  0
   21.0635   -4.0515  -14.1011 C   0  0  0  0  0  0  0  0  0  0  0  0
   21.4412   -3.0228  -13.2506 O   0  0  0  0  0  0  0  0  0  0  0  0
   20.0597   -3.8568  -14.8331 O   0  0  0  0  0  0  0  0  0  0  0  0
  2  4  1  0
  2  1  1  1
  3  2  1  0
  4  5  1  6
  6  7  2  0
  6  4  1  0
  8  9  1  0
  9 19  2  0
  9 10  1  0
 10 11  2  0
 11 12  1  0
 12 13  1  0
 14 13  1  1
 14 16  1  0
 14 15  1  0
 15  6  1  0
 16 23  1  0
 17 16  2  0
 18 12  2  0
 19 18  1  0
 21 20  1  0
 22 21  1  6
 23 22  1  0
 24 25  1  0
 24 22  1  0
 26 24  2  0
M  END
$$$$
