YPN.pdb
     RDKit          3D

 28 29  0  0  1  0  0  0  0  0999 V2000
    5.5492  -11.4077   28.1283 O   0  0  0  0  0  0  0  0  0  0  0  0
    6.1908  -12.1147   27.1299 C   0  0  0  0  0  0  0  0  0  0  0  0
    6.1377  -11.6303   25.8352 C   0  0  0  0  0  0  0  0  0  0  0  0
    6.7610  -12.3030   24.8201 C   0  0  0  0  0  0  0  0  0  0  0  0
    7.4374  -13.4652   25.1154 C   0  0  0  0  0  0  0  0  0  0  0  0
    8.1069  -14.1830   24.0085 C   0  0  0  0  0  0  0  0  0  0  0  0
    7.1267  -15.0249   23.2094 C   0  0  2  0  0  0  0  0  0  0  0  0
    6.5956  -16.1074   23.9602 N   0  0  0  0  0  0  0  0  0  0  0  0
    7.7776  -15.4117   21.9511 C   0  0  0  0  0  0  0  0  0  0  0  0
    7.6863  -16.6412   21.6412 O   0  0  0  0  0  0  0  0  0  0  0  0
    7.5102  -13.9757   26.3936 C   0  0  0  0  0  0  0  0  0  0  0  0
    6.8737  -13.2824   27.4100 C   0  0  0  0  0  0  0  0  0  0  0  0
    8.4766  -14.5611   21.0783 N   0  0  0  0  0  0  0  0  0  0  0  0
    8.8567  -13.1769   21.4437 C   0  0  0  0  0  0  0  0  0  0  0  0
    8.3729  -12.4392   20.2054 C   0  0  0  0  0  0  0  0  0  0  0  0
    8.7815  -13.3689   19.1001 C   0  0  0  0  0  0  0  0  0  0  0  0
    8.9926  -14.7372   19.7393 C   0  0  1  0  0  0  0  0  0  0  0  0
   10.4380  -15.0722   19.8609 C   0  0  0  0  0  0  0  0  0  0  0  0
   11.1809  -14.5097   20.7049 O   0  0  0  0  0  0  0  0  0  0  0  0
   11.6171  -18.7835   16.3502 N   0  0  0  0  0  0  0  0  0  0  0  0
   12.0296  -18.3961   17.6512 C   0  0  0  0  0  0  0  0  0  0  0  0
   11.7516  -19.0869   18.6608 O   0  0  0  0  0  0  0  0  0  0  0  0
   12.7973  -17.1601   17.8125 C   0  0  0  0  0  0  0  0  0  0  0  0
   12.4509  -16.3963   19.0717 C   0  0  2  0  0  0  0  0  0  0  0  0
   11.0386  -16.0617   19.0067 N   0  0  0  0  0  0  0  0  0  0  0  0
   13.2923  -15.1444   19.0106 C   0  0  0  0  0  0  0  0  0  0  0  0
   14.0885  -14.9766   17.8899 O   0  0  0  0  0  0  0  0  0  0  0  0
   13.2658  -14.3113   19.9245 O   0  0  0  0  0  0  0  0  0  0  0  0
  2  1  1  0
  3  2  2  0
  4  3  1  0
  5  4  2  0
  5 11  1  0
  6  5  1  0
  7  6  1  0
  7  8  1  1
  9 13  1  0
  9  7  1  0
 10  9  2  0
 11 12  2  0
 12  2  1  0
 13 17  1  0
 14 13  1  0
 14 15  1  0
 16 17  1  0
 16 15  1  0
 18 25  1  0
 17 18  1  1
 19 18  2  0
 21 20  1  0
 21 22  2  0
 23 21  1  0
 24 23  1  6
 24 25  1  0
 26 27  1  0
 26 24  1  0
 28 26  2  0
M  END
$$$$
