YPN.pdb
     RDKit          3D

 28 29  0  0  1  0  0  0  0  0999 V2000
    4.7211  -20.0948   13.0326 O   0  0  0  0  0  0  0  0  0  0  0  0
    5.5398  -19.4631   13.9484 C   0  0  0  0  0  0  0  0  0  0  0  0
    5.0453  -18.3693   14.6362 C   0  0  0  0  0  0  0  0  0  0  0  0
    5.8265  -17.7179   15.5510 C   0  0  0  0  0  0  0  0  0  0  0  0
    7.1073  -18.1734   15.7693 C   0  0  0  0  0  0  0  0  0  0  0  0
    7.9416  -17.4599   16.7611 C   0  0  0  0  0  0  0  0  0  0  0  0
    8.4914  -16.1587   16.2020 C   0  0  2  0  0  0  0  0  0  0  0  0
    9.1830  -16.3389   14.9745 N   0  0  0  0  0  0  0  0  0  0  0  0
    9.2747  -15.5035   17.2573 C   0  0  0  0  0  0  0  0  0  0  0  0
   10.5354  -15.5178   17.0942 O   0  0  0  0  0  0  0  0  0  0  0  0
    7.6312  -19.2594   15.1019 C   0  0  0  0  0  0  0  0  0  0  0  0
    6.8271  -19.9078   14.1789 C   0  0  0  0  0  0  0  0  0  0  0  0
    8.7649  -14.8756   18.4061 N   0  0  0  0  0  0  0  0  0  0  0  0
    7.3479  -14.9945   18.8208 C   0  0  0  0  0  0  0  0  0  0  0  0
    7.0262  -13.5296   19.0698 C   0  0  0  0  0  0  0  0  0  0  0  0
    8.2694  -13.0419   19.7551 C   0  0  0  0  0  0  0  0  0  0  0  0
    9.3706  -14.0422   19.4204 C   0  0  1  0  0  0  0  0  0  0  0  0
    9.6920  -14.9177   20.5807 C   0  0  0  0  0  0  0  0  0  0  0  0
    8.8992  -15.8081   20.9799 O   0  0  0  0  0  0  0  0  0  0  0  0
   10.9726  -15.9238   25.3296 N   0  0  0  0  0  0  0  0  0  0  0  0
    9.7288  -15.6643   24.6985 C   0  0  0  0  0  0  0  0  0  0  0  0
    8.6410  -15.8139   25.3051 O   0  0  0  0  0  0  0  0  0  0  0  0
    9.7214  -15.2117   23.3062 C   0  0  0  0  0  0  0  0  0  0  0  0
   11.0960  -15.1838   22.6749 C   0  0  2  0  0  0  0  0  0  0  0  0
   10.9344  -14.7716   21.2911 N   0  0  0  0  0  0  0  0  0  0  0  0
   11.5853  -16.6100   22.7462 C   0  0  0  0  0  0  0  0  0  0  0  0
   10.8475  -17.5623   22.0629 O   0  0  0  0  0  0  0  0  0  0  0  0
   12.6004  -16.9062   23.3880 O   0  0  0  0  0  0  0  0  0  0  0  0
  2  1  1  0
  3  2  2  0
  4  3  1  0
  5  4  2  0
  5 11  1  0
  6  5  1  0
  7  6  1  0
  7  8  1  6
  9 13  1  0
  9  7  1  0
 10  9  2  0
 11 12  2  0
 12  2  1  0
 13 17  1  0
 14 13  1  0
 14 15  1  0
 16 17  1  0
 16 15  1  0
 18 25  1  0
 17 18  1  1
 19 18  2  0
 21 20  1  0
 21 22  2  0
 23 21  1  0
 24 23  1  1
 24 25  1  0
 26 27  1  0
 26 24  1  0
 28 26  2  0
M  END
$$$$
