YPN.pdb
     RDKit          3D

 28 29  0  0  1  0  0  0  0  0999 V2000
    6.1896  -10.5022   27.6165 O   0  0  0  0  0  0  0  0  0  0  0  0
    6.5347  -11.7044   27.0299 C   0  0  0  0  0  0  0  0  0  0  0  0
    7.8104  -11.8487   26.5146 C   0  0  0  0  0  0  0  0  0  0  0  0
    8.1886  -13.0244   25.9262 C   0  0  0  0  0  0  0  0  0  0  0  0
    7.2760  -14.0532   25.8596 C   0  0  0  0  0  0  0  0  0  0  0  0
    7.6976  -15.3192   25.2208 C   0  0  0  0  0  0  0  0  0  0  0  0
    6.6104  -15.8864   24.3240 C   0  0  2  0  0  0  0  0  0  0  0  0
    5.8512  -16.9042   24.9605 N   0  0  0  0  0  0  0  0  0  0  0  0
    7.2293  -16.2861   23.0536 C   0  0  0  0  0  0  0  0  0  0  0  0
    7.1529  -17.5232   22.7711 O   0  0  0  0  0  0  0  0  0  0  0  0
    5.9976  -13.9432   26.3628 C   0  0  0  0  0  0  0  0  0  0  0  0
    5.6306  -12.7461   26.9553 C   0  0  0  0  0  0  0  0  0  0  0  0
    7.8836  -15.4401   22.1425 N   0  0  0  0  0  0  0  0  0  0  0  0
    8.1748  -14.0182   22.4380 C   0  0  0  0  0  0  0  0  0  0  0  0
    7.6590  -13.3763   21.1600 C   0  0  0  0  0  0  0  0  0  0  0  0
    8.1344  -14.3347   20.1071 C   0  0  0  0  0  0  0  0  0  0  0  0
    8.4225  -15.6527   20.8178 C   0  0  1  0  0  0  0  0  0  0  0  0
    9.8844  -15.8915   20.9662 C   0  0  0  0  0  0  0  0  0  0  0  0
   10.5124  -15.5427   21.9979 O   0  0  0  0  0  0  0  0  0  0  0  0
   13.8113  -18.1724   22.9170 N   0  0  0  0  0  0  0  0  0  0  0  0
   13.7341  -17.2200   21.8683 C   0  0  0  0  0  0  0  0  0  0  0  0
   14.7577  -16.8382   21.2516 O   0  0  0  0  0  0  0  0  0  0  0  0
   12.4262  -16.6738   21.5019 C   0  0  0  0  0  0  0  0  0  0  0  0
   11.9278  -17.1554   20.1571 C   0  0  2  0  0  0  0  0  0  0  0  0
   10.6345  -16.5366   19.9219 N   0  0  0  0  0  0  0  0  0  0  0  0
   11.7769  -18.6495   20.3110 C   0  0  0  0  0  0  0  0  0  0  0  0
   12.7221  -19.4443   19.6840 O   0  0  0  0  0  0  0  0  0  0  0  0
   10.8483  -19.1337   20.9691 O   0  0  0  0  0  0  0  0  0  0  0  0
  2  1  1  0
  3  2  2  0
  4  3  1  0
  5  4  2  0
  5 11  1  0
  6  5  1  0
  7  6  1  0
  7  8  1  1
  9 13  1  0
  9  7  1  0
 10  9  2  0
 11 12  2  0
 12  2  1  0
 13 17  1  0
 14 13  1  0
 14 15  1  0
 16 17  1  0
 16 15  1  0
 18 25  1  0
 17 18  1  1
 19 18  2  0
 21 20  1  0
 21 22  2  0
 23 21  1  0
 24 23  1  1
 24 25  1  0
 26 27  1  0
 26 24  1  0
 28 26  2  0
M  END
$$$$
