YPN.pdb
     RDKit          3D

 28 29  0  0  1  0  0  0  0  0999 V2000
    5.4596  -10.8598   28.3481 O   0  0  0  0  0  0  0  0  0  0  0  0
    6.0732  -11.7638   27.5028 C   0  0  0  0  0  0  0  0  0  0  0  0
    7.2287  -12.3928   27.9304 C   0  0  0  0  0  0  0  0  0  0  0  0
    7.8645  -13.2940   27.1211 C   0  0  0  0  0  0  0  0  0  0  0  0
    7.3309  -13.5582   25.8797 C   0  0  0  0  0  0  0  0  0  0  0  0
    8.0283  -14.5347   25.0143 C   0  0  0  0  0  0  0  0  0  0  0  0
    7.1300  -15.7037   24.6474 C   0  0  2  0  0  0  0  0  0  0  0  0
    6.8390  -16.5403   25.7577 N   0  0  0  0  0  0  0  0  0  0  0  0
    7.7278  -16.3951   23.4979 C   0  0  0  0  0  0  0  0  0  0  0  0
    7.9212  -17.6426   23.6477 O   0  0  0  0  0  0  0  0  0  0  0  0
    6.1819  -12.9498   25.4224 C   0  0  0  0  0  0  0  0  0  0  0  0
    5.5504  -12.0397   26.2543 C   0  0  0  0  0  0  0  0  0  0  0  0
    8.0963  -15.8123   22.2738 N   0  0  0  0  0  0  0  0  0  0  0  0
    7.9896  -14.3576   22.0160 C   0  0  0  0  0  0  0  0  0  0  0  0
    7.2809  -14.3834   20.6711 C   0  0  0  0  0  0  0  0  0  0  0  0
    7.9743  -15.5130   19.9666 C   0  0  0  0  0  0  0  0  0  0  0  0
    8.6363  -16.3588   21.0491 C   0  0  1  0  0  0  0  0  0  0  0  0
   10.1105  -16.1551   21.0840 C   0  0  0  0  0  0  0  0  0  0  0  0
   10.6236  -15.0932   21.5195 O   0  0  0  0  0  0  0  0  0  0  0  0
   12.7327  -18.5140   24.7451 N   0  0  0  0  0  0  0  0  0  0  0  0
   12.3640  -19.0919   23.5030 C   0  0  0  0  0  0  0  0  0  0  0  0
   12.8299  -20.1945   23.1279 O   0  0  0  0  0  0  0  0  0  0  0  0
   11.4169  -18.3795   22.6433 C   0  0  0  0  0  0  0  0  0  0  0  0
   12.0666  -17.7277   21.4425 C   0  0  2  0  0  0  0  0  0  0  0  0
   11.0062  -17.1785   20.6150 N   0  0  0  0  0  0  0  0  0  0  0  0
   12.7683  -18.8532   20.7217 C   0  0  0  0  0  0  0  0  0  0  0  0
   14.1286  -18.7090   20.5050 O   0  0  0  0  0  0  0  0  0  0  0  0
   12.1488  -19.8553   20.3449 O   0  0  0  0  0  0  0  0  0  0  0  0
  2  1  1  0
  3  2  2  0
  4  3  1  0
  5  4  2  0
  5 11  1  0
  6  5  1  0
  7  6  1  0
  7  8  1  1
  9 13  1  0
  9  7  1  0
 10  9  2  0
 11 12  2  0
 12  2  1  0
 13 17  1  0
 14 13  1  0
 14 15  1  0
 16 17  1  0
 16 15  1  0
 18 25  1  0
 17 18  1  1
 19 18  2  0
 21 20  1  0
 21 22  2  0
 23 21  1  0
 24 23  1  1
 24 25  1  0
 26 27  1  0
 26 24  1  0
 28 26  2  0
M  END
$$$$
