YPN.pdb
     RDKit          3D

 28 29  0  0  1  0  0  0  0  0999 V2000
    9.0296  -12.1075   18.3143 O   0  0  0  0  0  0  0  0  0  0  0  0
    8.5692  -13.0571   19.2056 C   0  0  0  0  0  0  0  0  0  0  0  0
    9.3791  -14.1397   19.4985 C   0  0  0  0  0  0  0  0  0  0  0  0
    8.9573  -15.1003   20.3764 C   0  0  0  0  0  0  0  0  0  0  0  0
    7.7164  -14.9651   20.9573 C   0  0  0  0  0  0  0  0  0  0  0  0
    7.2722  -16.0109   21.9047 C   0  0  0  0  0  0  0  0  0  0  0  0
    6.6764  -15.4107   23.1669 C   0  0  2  0  0  0  0  0  0  0  0  0
    5.6124  -14.5099   22.8954 N   0  0  0  0  0  0  0  0  0  0  0  0
    7.7721  -14.8440   23.9637 C   0  0  0  0  0  0  0  0  0  0  0  0
    8.9087  -14.8191   23.3947 O   0  0  0  0  0  0  0  0  0  0  0  0
    6.8844  -13.8998   20.6881 C   0  0  0  0  0  0  0  0  0  0  0  0
    7.3266  -12.9358   19.7969 C   0  0  0  0  0  0  0  0  0  0  0  0
    7.6771  -14.3375   25.2707 N   0  0  0  0  0  0  0  0  0  0  0  0
    6.3823  -14.1604   25.9680 C   0  0  0  0  0  0  0  0  0  0  0  0
    6.5540  -12.7383   26.4775 C   0  0  0  0  0  0  0  0  0  0  0  0
    7.9848  -12.7323   26.9310 C   0  0  0  0  0  0  0  0  0  0  0  0
    8.6676  -13.9016   26.2294 C   0  0  1  0  0  0  0  0  0  0  0  0
    8.9136  -15.0365   27.1609 C   0  0  0  0  0  0  0  0  0  0  0  0
    7.9702  -15.6712   27.6973 O   0  0  0  0  0  0  0  0  0  0  0  0
   12.1446  -17.3693   25.2046 N   0  0  0  0  0  0  0  0  0  0  0  0
   11.3446  -17.8236   26.2846 C   0  0  0  0  0  0  0  0  0  0  0  0
   10.3743  -18.5976   26.1027 O   0  0  0  0  0  0  0  0  0  0  0  0
   11.6642  -17.3749   27.6410 C   0  0  0  0  0  0  0  0  0  0  0  0
   10.5383  -16.6119   28.3037 C   0  0  2  0  0  0  0  0  0  0  0  0
   10.2542  -15.4483   27.4814 N   0  0  0  0  0  0  0  0  0  0  0  0
   11.0915  -16.1883   29.6429 C   0  0  0  0  0  0  0  0  0  0  0  0
   11.2773  -14.8308   29.8450 O   0  0  0  0  0  0  0  0  0  0  0  0
   11.3638  -17.0224   30.5147 O   0  0  0  0  0  0  0  0  0  0  0  0
  2  1  1  0
  3  2  2  0
  4  3  1  0
  5  4  2  0
  5 11  1  0
  6  5  1  0
  7  6  1  0
  7  8  1  6
  9 13  1  0
  9  7  1  0
 10  9  2  0
 11 12  2  0
 12  2  1  0
 13 17  1  0
 14 13  1  0
 14 15  1  0
 16 17  1  0
 16 15  1  0
 18 25  1  0
 17 18  1  1
 19 18  2  0
 21 20  1  0
 21 22  2  0
 23 21  1  0
 24 23  1  6
 24 25  1  0
 26 27  1  0
 26 24  1  0
 28 26  2  0
M  END
$$$$
