YPN.pdb
     RDKit          3D

 28 29  0  0  1  0  0  0  0  0999 V2000
   11.0363  -15.0192   29.9037 O   0  0  0  0  0  0  0  0  0  0  0  0
   10.2940  -14.8698   28.7484 C   0  0  0  0  0  0  0  0  0  0  0  0
    9.5873  -13.6953   28.5615 C   0  0  0  0  0  0  0  0  0  0  0  0
    8.8409  -13.5110   27.4300 C   0  0  0  0  0  0  0  0  0  0  0  0
    8.8100  -14.5149   26.4883 C   0  0  0  0  0  0  0  0  0  0  0  0
    7.9989  -14.3030   25.2693 C   0  0  0  0  0  0  0  0  0  0  0  0
    7.0007  -15.4280   25.0548 C   0  0  2  0  0  0  0  0  0  0  0  0
    6.9175  -16.3060   26.1682 N   0  0  0  0  0  0  0  0  0  0  0  0
    7.3184  -16.0828   23.7793 C   0  0  0  0  0  0  0  0  0  0  0  0
    7.2202  -17.3502   23.7735 O   0  0  0  0  0  0  0  0  0  0  0  0
    9.5018  -15.6970   26.6426 C   0  0  0  0  0  0  0  0  0  0  0  0
   10.2527  -15.8677   27.7941 C   0  0  0  0  0  0  0  0  0  0  0  0
    7.7123  -15.4459   22.5905 N   0  0  0  0  0  0  0  0  0  0  0  0
    7.9036  -13.9803   22.4935 C   0  0  0  0  0  0  0  0  0  0  0  0
    7.1082  -13.6975   21.2290 C   0  0  0  0  0  0  0  0  0  0  0  0
    7.4869  -14.8529   20.3488 C   0  0  0  0  0  0  0  0  0  0  0  0
    8.0289  -15.9409   21.2696 C   0  0  1  0  0  0  0  0  0  0  0  0
    9.5108  -16.0516   21.1803 C   0  0  0  0  0  0  0  0  0  0  0  0
   10.2731  -15.3291   21.8714 O   0  0  0  0  0  0  0  0  0  0  0  0
   10.9403  -18.3966   23.8388 N   0  0  0  0  0  0  0  0  0  0  0  0
   11.7734  -17.8851   22.8107 C   0  0  0  0  0  0  0  0  0  0  0  0
   12.6121  -16.9796   23.0349 O   0  0  0  0  0  0  0  0  0  0  0  0
   11.6463  -18.4310   21.4582 C   0  0  0  0  0  0  0  0  0  0  0  0
   11.5278  -17.3678   20.3884 C   0  0  2  0  0  0  0  0  0  0  0  0
   10.1258  -16.9996   20.2901 N   0  0  0  0  0  0  0  0  0  0  0  0
   11.9859  -18.0422   19.1180 C   0  0  0  0  0  0  0  0  0  0  0  0
   12.9538  -17.3887   18.3735 O   0  0  0  0  0  0  0  0  0  0  0  0
   11.5130  -19.1293   18.7651 O   0  0  0  0  0  0  0  0  0  0  0  0
  2  1  1  0
  3  2  2  0
  4  3  1  0
  5  4  2  0
  5 11  1  0
  6  5  1  0
  7  6  1  0
  7  8  1  1
  9 13  1  0
  9  7  1  0
 10  9  2  0
 11 12  2  0
 12  2  1  0
 13 17  1  0
 14 13  1  0
 14 15  1  0
 16 17  1  0
 16 15  1  0
 18 25  1  0
 17 18  1  1
 19 18  2  0
 21 20  1  0
 21 22  2  0
 23 21  1  0
 24 23  1  1
 24 25  1  0
 26 27  1  0
 26 24  1  0
 28 26  2  0
M  END
$$$$
