YPN.pdb
     RDKit          3D

 28 29  0  0  1  0  0  0  0  0999 V2000
   10.1725  -14.4914   30.7279 O   0  0  0  0  0  0  0  0  0  0  0  0
    9.8308  -14.6409   29.3978 C   0  0  0  0  0  0  0  0  0  0  0  0
    9.4209  -13.5258   28.6891 C   0  0  0  0  0  0  0  0  0  0  0  0
    9.0745  -13.6347   27.3701 C   0  0  0  0  0  0  0  0  0  0  0  0
    9.1430  -14.8715   26.7691 C   0  0  0  0  0  0  0  0  0  0  0  0
    8.7656  -14.9755   25.3425 C   0  0  0  0  0  0  0  0  0  0  0  0
    7.3812  -15.5765   25.1689 C   0  0  2  0  0  0  0  0  0  0  0  0
    7.0591  -16.5130   26.1871 N   0  0  0  0  0  0  0  0  0  0  0  0
    7.2789  -16.0988   23.8002 C   0  0  0  0  0  0  0  0  0  0  0  0
    6.7392  -17.2444   23.6887 O   0  0  0  0  0  0  0  0  0  0  0  0
    9.5469  -16.0024   27.4454 C   0  0  0  0  0  0  0  0  0  0  0  0
    9.8942  -15.8750   28.7804 C   0  0  0  0  0  0  0  0  0  0  0  0
    7.7148  -15.4577   22.6285 N   0  0  0  0  0  0  0  0  0  0  0  0
    8.2501  -14.0766   22.6239 C   0  0  0  0  0  0  0  0  0  0  0  0
    7.4444  -13.4894   21.4762 C   0  0  0  0  0  0  0  0  0  0  0  0
    7.4530  -14.6078   20.4751 C   0  0  0  0  0  0  0  0  0  0  0  0
    7.7879  -15.8793   21.2475 C   0  0  1  0  0  0  0  0  0  0  0  0
    9.1847  -16.3274   20.9934 C   0  0  0  0  0  0  0  0  0  0  0  0
   10.1759  -15.6944   21.4376 O   0  0  0  0  0  0  0  0  0  0  0  0
    8.6417  -20.6945   21.3287 N   0  0  0  0  0  0  0  0  0  0  0  0
    9.9297  -20.1057   21.4132 C   0  0  0  0  0  0  0  0  0  0  0  0
   10.5271  -19.9883   22.5100 O   0  0  0  0  0  0  0  0  0  0  0  0
   10.5712  -19.6258   20.1878 C   0  0  0  0  0  0  0  0  0  0  0  0
   10.7644  -18.1256   20.1573 C   0  0  2  0  0  0  0  0  0  0  0  0
    9.4485  -17.5130   20.2225 N   0  0  0  0  0  0  0  0  0  0  0  0
   11.4110  -17.8442   18.8225 C   0  0  0  0  0  0  0  0  0  0  0  0
   12.7168  -18.2739   18.6540 O   0  0  0  0  0  0  0  0  0  0  0  0
   10.7954  -17.2559   17.9254 O   0  0  0  0  0  0  0  0  0  0  0  0
  2  1  1  0
  3  2  2  0
  4  3  1  0
  5  4  2  0
  5 11  1  0
  6  5  1  0
  7  6  1  0
  7  8  1  1
  9 13  1  0
  9  7  1  0
 10  9  2  0
 11 12  2  0
 12  2  1  0
 13 17  1  0
 14 13  1  0
 14 15  1  0
 16 17  1  0
 16 15  1  0
 18 25  1  0
 17 18  1  6
 19 18  2  0
 21 20  1  0
 21 22  2  0
 23 21  1  0
 24 23  1  6
 24 25  1  0
 26 27  1  0
 26 24  1  0
 28 26  2  0
M  END
$$$$
