YPN.pdb
     RDKit          3D

 28 29  0  0  1  0  0  0  0  0999 V2000
    5.8930  -10.5936   28.1103 O   0  0  0  0  0  0  0  0  0  0  0  0
    6.4058  -11.6068   27.3237 C   0  0  0  0  0  0  0  0  0  0  0  0
    7.4272  -12.3889   27.8325 C   0  0  0  0  0  0  0  0  0  0  0  0
    7.9603  -13.4016   27.0830 C   0  0  0  0  0  0  0  0  0  0  0  0
    7.4599  -13.6223   25.8195 C   0  0  0  0  0  0  0  0  0  0  0  0
    8.0454  -14.7204   25.0195 C   0  0  0  0  0  0  0  0  0  0  0  0
    6.9739  -15.6318   24.4456 C   0  0  2  0  0  0  0  0  0  0  0  0
    6.4828  -16.5660   25.3962 N   0  0  0  0  0  0  0  0  0  0  0  0
    7.4973  -16.2302   23.2109 C   0  0  0  0  0  0  0  0  0  0  0  0
    7.4921  -17.5009   23.1718 O   0  0  0  0  0  0  0  0  0  0  0  0
    6.4434  -12.8624   25.2821 C   0  0  0  0  0  0  0  0  0  0  0  0
    5.9146  -11.8409   26.0541 C   0  0  0  0  0  0  0  0  0  0  0  0
    7.9921  -15.5374   22.0933 N   0  0  0  0  0  0  0  0  0  0  0  0
    8.0467  -14.0587   22.0283 C   0  0  0  0  0  0  0  0  0  0  0  0
    7.4174  -13.8352   20.6625 C   0  0  0  0  0  0  0  0  0  0  0  0
    8.0335  -14.9322   19.8439 C   0  0  0  0  0  0  0  0  0  0  0  0
    8.5440  -15.9763   20.8311 C   0  0  1  0  0  0  0  0  0  0  0  0
   10.0269  -15.9375   20.9574 C   0  0  0  0  0  0  0  0  0  0  0  0
   10.6056  -15.1423   21.7405 O   0  0  0  0  0  0  0  0  0  0  0  0
   12.7661  -17.3881   23.3873 N   0  0  0  0  0  0  0  0  0  0  0  0
   11.7945  -18.3830   23.1063 C   0  0  0  0  0  0  0  0  0  0  0  0
   11.3042  -19.0967   24.0140 O   0  0  0  0  0  0  0  0  0  0  0  0
   11.3582  -18.5765   21.7223 C   0  0  0  0  0  0  0  0  0  0  0  0
   11.9529  -17.5740   20.7578 C   0  0  2  0  0  0  0  0  0  0  0  0
   10.8552  -16.8189   20.1786 N   0  0  0  0  0  0  0  0  0  0  0  0
   12.6339  -18.4089   19.7005 C   0  0  0  0  0  0  0  0  0  0  0  0
   11.8408  -19.2987   18.9952 O   0  0  0  0  0  0  0  0  0  0  0  0
   13.8459  -18.2972   19.4803 O   0  0  0  0  0  0  0  0  0  0  0  0
  2  1  1  0
  3  2  2  0
  4  3  1  0
  5  4  2  0
  5 11  1  0
  6  5  1  0
  7  6  1  0
  7  8  1  1
  9 13  1  0
  9  7  1  0
 10  9  2  0
 11 12  2  0
 12  2  1  0
 13 17  1  0
 14 13  1  0
 14 15  1  0
 16 17  1  0
 16 15  1  0
 18 25  1  0
 17 18  1  1
 19 18  2  0
 21 20  1  0
 21 22  2  0
 23 21  1  0
 24 23  1  1
 24 25  1  0
 26 27  1  0
 26 24  1  0
 28 26  2  0
M  END
$$$$
