YPN.pdb
     RDKit          3D

 28 29  0  0  1  0  0  0  0  0999 V2000
    6.4781  -10.5779   27.2564 O   0  0  0  0  0  0  0  0  0  0  0  0
    6.6236  -11.9038   26.8970 C   0  0  0  0  0  0  0  0  0  0  0  0
    7.8922  -12.3797   26.6176 C   0  0  0  0  0  0  0  0  0  0  0  0
    8.0757  -13.6869   26.2583 C   0  0  0  0  0  0  0  0  0  0  0  0
    6.9759  -14.5116   26.1820 C   0  0  0  0  0  0  0  0  0  0  0  0
    7.1883  -15.9228   25.7922 C   0  0  0  0  0  0  0  0  0  0  0  0
    6.2953  -16.3265   24.6313 C   0  0  2  0  0  0  0  0  0  0  0  0
    5.3291  -17.3014   24.9968 N   0  0  0  0  0  0  0  0  0  0  0  0
    7.1564  -16.7082   23.5046 C   0  0  0  0  0  0  0  0  0  0  0  0
    7.1648  -17.9459   23.2149 O   0  0  0  0  0  0  0  0  0  0  0  0
    5.6988  -14.0704   26.4535 C   0  0  0  0  0  0  0  0  0  0  0  0
    5.5302  -12.7440   26.8159 C   0  0  0  0  0  0  0  0  0  0  0  0
    7.9540  -15.8447   22.7350 N   0  0  0  0  0  0  0  0  0  0  0  0
    8.1455  -14.4160   23.0758 C   0  0  0  0  0  0  0  0  0  0  0  0
    7.8726  -13.7864   21.7192 C   0  0  0  0  0  0  0  0  0  0  0  0
    8.5684  -14.7311   20.7830 C   0  0  0  0  0  0  0  0  0  0  0  0
    8.7460  -16.0420   21.5417 C   0  0  1  0  0  0  0  0  0  0  0  0
   10.1565  -16.2431   21.9731 C   0  0  0  0  0  0  0  0  0  0  0  0
   10.6023  -15.7445   23.0377 O   0  0  0  0  0  0  0  0  0  0  0  0
   14.7029  -18.7740   22.3341 N   0  0  0  0  0  0  0  0  0  0  0  0
   14.1992  -19.0281   21.0324 C   0  0  0  0  0  0  0  0  0  0  0  0
   14.7912  -19.7974   20.2379 O   0  0  0  0  0  0  0  0  0  0  0  0
   12.9587  -18.3737   20.6125 C   0  0  0  0  0  0  0  0  0  0  0  0
   12.3094  -17.5553   21.7068 C   0  0  2  0  0  0  0  0  0  0  0  0
   11.0657  -17.0233   21.1768 N   0  0  0  0  0  0  0  0  0  0  0  0
   13.2843  -16.4370   21.9861 C   0  0  0  0  0  0  0  0  0  0  0  0
   13.9629  -16.4818   23.1925 O   0  0  0  0  0  0  0  0  0  0  0  0
   13.4629  -15.5259   21.1689 O   0  0  0  0  0  0  0  0  0  0  0  0
  2  1  1  0
  3  2  2  0
  4  3  1  0
  5  4  2  0
  5 11  1  0
  6  5  1  0
  7  6  1  0
  7  8  1  1
  9 13  1  0
  9  7  1  0
 10  9  2  0
 11 12  2  0
 12  2  1  0
 13 17  1  0
 14 13  1  0
 14 15  1  0
 16 17  1  0
 16 15  1  0
 18 25  1  0
 17 18  1  1
 19 18  2  0
 21 20  1  0
 21 22  2  0
 23 21  1  0
 24 23  1  6
 24 25  1  0
 26 27  1  0
 26 24  1  0
 28 26  2  0
M  END
$$$$
