YPN.pdb
     RDKit          3D

 28 29  0  0  1  0  0  0  0  0999 V2000
    6.4808  -10.6613   26.9123 O   0  0  0  0  0  0  0  0  0  0  0  0
    6.7909  -11.9853   26.6692 C   0  0  0  0  0  0  0  0  0  0  0  0
    5.7922  -12.9342   26.7950 C   0  0  0  0  0  0  0  0  0  0  0  0
    6.0614  -14.2552   26.5623 C   0  0  0  0  0  0  0  0  0  0  0  0
    7.3406  -14.6152   26.2025 C   0  0  0  0  0  0  0  0  0  0  0  0
    7.6184  -16.0468   25.9538 C   0  0  0  0  0  0  0  0  0  0  0  0
    6.7132  -16.6167   24.8750 C   0  0  2  0  0  0  0  0  0  0  0  0
    5.9503  -17.7252   25.3294 N   0  0  0  0  0  0  0  0  0  0  0  0
    7.5323  -16.8817   23.6853 C   0  0  0  0  0  0  0  0  0  0  0  0
    7.8487  -18.0984   23.4966 O   0  0  0  0  0  0  0  0  0  0  0  0
    8.3589  -13.6961   26.0681 C   0  0  0  0  0  0  0  0  0  0  0  0
    8.0696  -12.3626   26.3073 C   0  0  0  0  0  0  0  0  0  0  0  0
    7.9869  -15.9300   22.7571 N   0  0  0  0  0  0  0  0  0  0  0  0
    7.6800  -14.4859   22.8764 C   0  0  0  0  0  0  0  0  0  0  0  0
    7.2075  -14.2026   21.4594 C   0  0  0  0  0  0  0  0  0  0  0  0
    8.1830  -14.9904   20.6343 C   0  0  0  0  0  0  0  0  0  0  0  0
    8.7977  -16.0309   21.5643 C   0  0  1  0  0  0  0  0  0  0  0  0
   10.1926  -15.6759   21.9442 C   0  0  0  0  0  0  0  0  0  0  0  0
   10.4415  -14.8444   22.8538 O   0  0  0  0  0  0  0  0  0  0  0  0
   12.5190  -19.5480   24.6807 N   0  0  0  0  0  0  0  0  0  0  0  0
   12.9132  -18.5517   23.7507 C   0  0  0  0  0  0  0  0  0  0  0  0
   14.1049  -18.1697   23.6637 O   0  0  0  0  0  0  0  0  0  0  0  0
   11.9005  -17.9594   22.8749 C   0  0  0  0  0  0  0  0  0  0  0  0
   12.4382  -16.8516   21.9960 C   0  0  2  0  0  0  0  0  0  0  0  0
   11.3139  -16.2795   21.2751 N   0  0  0  0  0  0  0  0  0  0  0  0
   13.3830  -17.5383   21.0397 C   0  0  0  0  0  0  0  0  0  0  0  0
   12.9173  -18.6789   20.4069 O   0  0  0  0  0  0  0  0  0  0  0  0
   14.5198  -17.0957   20.8360 O   0  0  0  0  0  0  0  0  0  0  0  0
  2  1  1  0
  3  2  2  0
  4  3  1  0
  5  4  2  0
  5 11  1  0
  6  5  1  0
  7  6  1  0
  7  8  1  1
  9 13  1  0
  9  7  1  0
 10  9  2  0
 11 12  2  0
 12  2  1  0
 13 17  1  0
 14 13  1  0
 14 15  1  0
 16 17  1  0
 16 15  1  0
 18 25  1  0
 17 18  1  1
 19 18  2  0
 21 20  1  0
 21 22  2  0
 23 21  1  0
 24 23  1  1
 24 25  1  0
 26 27  1  0
 26 24  1  0
 28 26  2  0
M  END
$$$$
