YPN.pdb
     RDKit          3D

 28 29  0  0  1  0  0  0  0  0999 V2000
    5.9086  -11.6790   28.5292 O   0  0  0  0  0  0  0  0  0  0  0  0
    6.4627  -12.2288   27.3895 C   0  0  0  0  0  0  0  0  0  0  0  0
    7.5489  -13.0751   27.5221 C   0  0  0  0  0  0  0  0  0  0  0  0
    8.1244  -13.6385   26.4163 C   0  0  0  0  0  0  0  0  0  0  0  0
    7.6007  -13.3454   25.1772 C   0  0  0  0  0  0  0  0  0  0  0  0
    8.2325  -13.9611   23.9896 C   0  0  0  0  0  0  0  0  0  0  0  0
    7.3404  -15.0189   23.3624 C   0  0  2  0  0  0  0  0  0  0  0  0
    7.0910  -16.1121   24.2343 N   0  0  0  0  0  0  0  0  0  0  0  0
    7.9160  -15.3891   22.0631 C   0  0  0  0  0  0  0  0  0  0  0  0
    7.9856  -16.6366   21.8290 O   0  0  0  0  0  0  0  0  0  0  0  0
    6.5199  -12.5068   25.0092 C   0  0  0  0  0  0  0  0  0  0  0  0
    5.9488  -11.9445   26.1391 C   0  0  0  0  0  0  0  0  0  0  0  0
    8.3857  -14.5053   21.0771 N   0  0  0  0  0  0  0  0  0  0  0  0
    8.5915  -13.0604   21.3301 C   0  0  0  0  0  0  0  0  0  0  0  0
    7.8767  -12.4803   20.1201 C   0  0  0  0  0  0  0  0  0  0  0  0
    8.3016  -13.4112   19.0219 C   0  0  0  0  0  0  0  0  0  0  0  0
    8.7796  -14.6915   19.6985 C   0  0  1  0  0  0  0  0  0  0  0  0
   10.2635  -14.8083   19.6726 C   0  0  0  0  0  0  0  0  0  0  0  0
   10.9891  -14.2378   20.5263 O   0  0  0  0  0  0  0  0  0  0  0  0
   15.2183  -14.0826   18.4822 N   0  0  0  0  0  0  0  0  0  0  0  0
   14.4309  -14.6732   19.5040 C   0  0  0  0  0  0  0  0  0  0  0  0
   14.9558  -15.2520   20.4854 O   0  0  0  0  0  0  0  0  0  0  0  0
   12.9720  -14.6020   19.4048 C   0  0  0  0  0  0  0  0  0  0  0  0
   12.3674  -15.7325   18.6014 C   0  0  2  0  0  0  0  0  0  0  0  0
   10.9229  -15.5866   18.6583 N   0  0  0  0  0  0  0  0  0  0  0  0
   12.7985  -16.9906   19.3156 C   0  0  0  0  0  0  0  0  0  0  0  0
   12.1212  -17.3162   20.4789 O   0  0  0  0  0  0  0  0  0  0  0  0
   13.7161  -17.6932   18.8748 O   0  0  0  0  0  0  0  0  0  0  0  0
  2  1  1  0
  3  2  2  0
  4  3  1  0
  5  4  2  0
  5 11  1  0
  6  5  1  0
  7  6  1  0
  7  8  1  1
  9 13  1  0
  9  7  1  0
 10  9  2  0
 11 12  2  0
 12  2  1  0
 13 17  1  0
 14 13  1  0
 14 15  1  0
 16 17  1  0
 16 15  1  0
 18 25  1  0
 17 18  1  1
 19 18  2  0
 21 20  1  0
 21 22  2  0
 23 21  1  0
 24 23  1  1
 24 25  1  0
 26 27  1  0
 26 24  1  0
 28 26  2  0
M  END
$$$$
