YPN.pdb
     RDKit          3D

 28 29  0  0  1  0  0  0  0  0999 V2000
   10.4262  -18.3244   28.6402 O   0  0  0  0  0  0  0  0  0  0  0  0
    9.4506  -17.8343   27.7938 C   0  0  0  0  0  0  0  0  0  0  0  0
    9.7701  -16.7849   26.9509 C   0  0  0  0  0  0  0  0  0  0  0  0
    8.8303  -16.2730   26.0987 C   0  0  0  0  0  0  0  0  0  0  0  0
    7.5682  -16.8230   26.0998 C   0  0  0  0  0  0  0  0  0  0  0  0
    6.5613  -16.2601   25.1735 C   0  0  0  0  0  0  0  0  0  0  0  0
    6.1621  -17.2596   24.1012 C   0  0  2  0  0  0  0  0  0  0  0  0
    5.8498  -18.5387   24.6339 N   0  0  0  0  0  0  0  0  0  0  0  0
    7.2067  -17.2629   23.0690 C   0  0  0  0  0  0  0  0  0  0  0  0
    7.6136  -18.4106   22.7037 O   0  0  0  0  0  0  0  0  0  0  0  0
    7.2163  -17.8685   26.9260 C   0  0  0  0  0  0  0  0  0  0  0  0
    8.1796  -18.3753   27.7829 C   0  0  0  0  0  0  0  0  0  0  0  0
    7.7830  -16.1343   22.4624 N   0  0  0  0  0  0  0  0  0  0  0  0
    7.4900  -14.7512   22.9042 C   0  0  0  0  0  0  0  0  0  0  0  0
    7.1908  -14.1070   21.5600 C   0  0  0  0  0  0  0  0  0  0  0  0
    8.2417  -14.7119   20.6752 C   0  0  0  0  0  0  0  0  0  0  0  0
    8.7253  -15.9762   21.3774 C   0  0  1  0  0  0  0  0  0  0  0  0
   10.0726  -15.7902   21.9828 C   0  0  0  0  0  0  0  0  0  0  0  0
   10.2229  -15.5618   23.2099 O   0  0  0  0  0  0  0  0  0  0  0  0
   10.8773  -19.3267   23.3476 N   0  0  0  0  0  0  0  0  0  0  0  0
   11.9829  -18.4784   23.0813 C   0  0  0  0  0  0  0  0  0  0  0  0
   12.7768  -18.1306   23.9882 O   0  0  0  0  0  0  0  0  0  0  0  0
   12.1966  -18.0010   21.7139 C   0  0  0  0  0  0  0  0  0  0  0  0
   12.4760  -16.5165   21.6313 C   0  0  2  0  0  0  0  0  0  0  0  0
   11.2598  -15.8665   21.1740 N   0  0  0  0  0  0  0  0  0  0  0  0
   13.5661  -16.3833   20.5956 C   0  0  0  0  0  0  0  0  0  0  0  0
   14.7706  -15.8448   21.0168 O   0  0  0  0  0  0  0  0  0  0  0  0
   13.3836  -16.7415   19.4258 O   0  0  0  0  0  0  0  0  0  0  0  0
  2  1  1  0
  3  2  2  0
  4  3  1  0
  5  4  2  0
  5 11  1  0
  6  5  1  0
  7  6  1  0
  7  8  1  1
  9 13  1  0
  9  7  1  0
 10  9  2  0
 11 12  2  0
 12  2  1  0
 13 17  1  0
 14 13  1  0
 14 15  1  0
 16 17  1  0
 16 15  1  0
 18 25  1  0
 17 18  1  1
 19 18  2  0
 21 20  1  0
 21 22  2  0
 23 21  1  0
 24 23  1  6
 24 25  1  0
 26 27  1  0
 26 24  1  0
 28 26  2  0
M  END
$$$$
