YPN.pdb
     RDKit          3D

 28 29  0  0  1  0  0  0  0  0999 V2000
    5.9036  -10.2690   27.4863 O   0  0  0  0  0  0  0  0  0  0  0  0
    6.3856  -11.3811   26.8236 C   0  0  0  0  0  0  0  0  0  0  0  0
    6.4327  -12.5872   27.4994 C   0  0  0  0  0  0  0  0  0  0  0  0
    6.9037  -13.7102   26.8762 C   0  0  0  0  0  0  0  0  0  0  0  0
    7.3268  -13.6122   25.5697 C   0  0  0  0  0  0  0  0  0  0  0  0
    7.8341  -14.8340   24.9074 C   0  0  0  0  0  0  0  0  0  0  0  0
    6.7081  -15.6552   24.3027 C   0  0  2  0  0  0  0  0  0  0  0  0
    6.1097  -16.5384   25.2404 N   0  0  0  0  0  0  0  0  0  0  0  0
    7.2179  -16.3035   23.0876 C   0  0  0  0  0  0  0  0  0  0  0  0
    7.0721  -17.5654   23.0364 O   0  0  0  0  0  0  0  0  0  0  0  0
    7.2937  -12.4269   24.8671 C   0  0  0  0  0  0  0  0  0  0  0  0
    6.8139  -11.2992   25.5128 C   0  0  0  0  0  0  0  0  0  0  0  0
    7.8386  -15.6661   22.0003 N   0  0  0  0  0  0  0  0  0  0  0  0
    8.1616  -14.2206   21.9983 C   0  0  0  0  0  0  0  0  0  0  0  0
    7.5936  -13.8293   20.6434 C   0  0  0  0  0  0  0  0  0  0  0  0
    8.0060  -14.9849   19.7787 C   0  0  0  0  0  0  0  0  0  0  0  0
    8.3110  -16.1448   20.7205 C   0  0  1  0  0  0  0  0  0  0  0  0
    9.7751  -16.3818   20.8478 C   0  0  0  0  0  0  0  0  0  0  0  0
   10.5525  -15.5041   21.3015 O   0  0  0  0  0  0  0  0  0  0  0  0
   10.3029  -19.7323   23.1019 N   0  0  0  0  0  0  0  0  0  0  0  0
   11.5082  -19.0900   22.7179 C   0  0  0  0  0  0  0  0  0  0  0  0
   12.1981  -18.4422   23.5414 O   0  0  0  0  0  0  0  0  0  0  0  0
   11.9519  -19.1894   21.3263 C   0  0  0  0  0  0  0  0  0  0  0  0
   11.7797  -17.9046   20.5463 C   0  0  2  0  0  0  0  0  0  0  0  0
   10.3547  -17.6374   20.4513 N   0  0  0  0  0  0  0  0  0  0  0  0
   12.3527  -18.1990   19.1811 C   0  0  0  0  0  0  0  0  0  0  0  0
   13.7229  -18.3841   19.1014 O   0  0  0  0  0  0  0  0  0  0  0  0
   11.6243  -18.2701   18.1839 O   0  0  0  0  0  0  0  0  0  0  0  0
  2  1  1  0
  3  2  2  0
  4  3  1  0
  5  4  2  0
  5 11  1  0
  6  5  1  0
  7  6  1  0
  7  8  1  1
  9 13  1  0
  9  7  1  0
 10  9  2  0
 11 12  2  0
 12  2  1  0
 13 17  1  0
 14 13  1  0
 14 15  1  0
 16 17  1  0
 16 15  1  0
 18 25  1  0
 17 18  1  1
 19 18  2  0
 21 20  1  0
 21 22  2  0
 23 21  1  0
 24 23  1  1
 24 25  1  0
 26 27  1  0
 26 24  1  0
 28 26  2  0
M  END
$$$$
