YPN.pdb
     RDKit          3D

 28 29  0  0  1  0  0  0  0  0999 V2000
    9.9968  -14.2021   30.6391 O   0  0  0  0  0  0  0  0  0  0  0  0
    9.7582  -14.4687   29.3049 C   0  0  0  0  0  0  0  0  0  0  0  0
    9.2700  -13.4530   28.5026 C   0  0  0  0  0  0  0  0  0  0  0  0
    9.0214  -13.6792   27.1765 C   0  0  0  0  0  0  0  0  0  0  0  0
    9.2670  -14.9328   26.6630 C   0  0  0  0  0  0  0  0  0  0  0  0
    8.9939  -15.1642   25.2276 C   0  0  0  0  0  0  0  0  0  0  0  0
    7.6035  -15.7344   25.0040 C   0  0  2  0  0  0  0  0  0  0  0  0
    7.2527  -16.7163   25.9684 N   0  0  0  0  0  0  0  0  0  0  0  0
    7.5141  -16.1847   23.6090 C   0  0  0  0  0  0  0  0  0  0  0  0
    7.1840  -17.4014   23.4452 O   0  0  0  0  0  0  0  0  0  0  0  0
    9.7531  -15.9670   27.4336 C   0  0  0  0  0  0  0  0  0  0  0  0
    9.9995  -15.7212   28.7745 C   0  0  0  0  0  0  0  0  0  0  0  0
    7.7552  -15.4063   22.4646 N   0  0  0  0  0  0  0  0  0  0  0  0
    8.0630  -13.9590   22.5316 C   0  0  0  0  0  0  0  0  0  0  0  0
    7.0919  -13.4380   21.4842 C   0  0  0  0  0  0  0  0  0  0  0  0
    7.2039  -14.4727   20.4025 C   0  0  0  0  0  0  0  0  0  0  0  0
    7.7923  -15.7198   21.0537 C   0  0  1  0  0  0  0  0  0  0  0  0
    9.2198  -15.9162   20.6797 C   0  0  0  0  0  0  0  0  0  0  0  0
   10.1529  -15.3473   21.3012 O   0  0  0  0  0  0  0  0  0  0  0  0
   11.1277  -18.6937   23.1573 N   0  0  0  0  0  0  0  0  0  0  0  0
   11.5251  -18.2631   21.8652 C   0  0  0  0  0  0  0  0  0  0  0  0
   12.5888  -17.6231   21.6848 O   0  0  0  0  0  0  0  0  0  0  0  0
   10.6691  -18.5762   20.7196 C   0  0  0  0  0  0  0  0  0  0  0  0
   10.7903  -17.5800   19.5874 C   0  0  2  0  0  0  0  0  0  0  0  0
    9.5820  -16.7732   19.5825 N   0  0  0  0  0  0  0  0  0  0  0  0
   10.8673  -18.4211   18.3363 C   0  0  0  0  0  0  0  0  0  0  0  0
   12.0348  -18.3402   17.5957 O   0  0  0  0  0  0  0  0  0  0  0  0
    9.9257  -19.1471   17.9952 O   0  0  0  0  0  0  0  0  0  0  0  0
  2  1  1  0
  3  2  2  0
  4  3  1  0
  5  4  2  0
  5 11  1  0
  6  5  1  0
  7  6  1  0
  7  8  1  1
  9 13  1  0
  9  7  1  0
 10  9  2  0
 11 12  2  0
 12  2  1  0
 13 17  1  0
 14 13  1  0
 14 15  1  0
 16 17  1  0
 16 15  1  0
 18 25  1  0
 17 18  1  6
 19 18  2  0
 21 20  1  0
 21 22  2  0
 23 21  1  0
 24 23  1  1
 24 25  1  0
 26 27  1  0
 26 24  1  0
 28 26  2  0
M  END
$$$$
