KYP.pdb
     RDKit          3D

 29 30  0  0  1  0  0  0  0  0999 V2000
   20.0425  -18.6648  -18.2029 N   0  0  0  0  0  0  0  0  0  0  0  0
   20.8349  -19.6393  -17.4942 C   0  0  1  0  0  0  0  0  0  0  0  0
   21.3690  -20.7159  -18.4272 C   0  0  0  0  0  0  0  0  0  0  0  0
   20.2763  -21.6181  -18.9081 C   0  0  0  0  0  0  0  0  0  0  0  0
   19.8049  -22.6174  -17.9215 C   0  0  0  0  0  0  0  0  0  0  0  0
   18.8158  -23.6273  -18.4170 C   0  0  0  0  0  0  0  0  0  0  0  0
   19.3986  -24.4674  -19.4069 N   0  0  0  0  0  0  0  0  0  0  0  0
   21.9632  -18.9833  -16.8138 C   0  0  0  0  0  0  0  0  0  0  0  0
   22.5646  -17.9781  -17.2977 O   0  0  0  0  0  0  0  0  0  0  0  0
   20.8978  -22.6725  -10.3819 O   0  0  0  0  0  0  0  0  0  0  0  0
   21.4795  -21.6703  -11.1467 C   0  0  0  0  0  0  0  0  0  0  0  0
   21.0995  -21.4928  -12.4522 C   0  0  0  0  0  0  0  0  0  0  0  0
   21.6841  -20.4940  -13.2043 C   0  0  0  0  0  0  0  0  0  0  0  0
   22.6568  -19.6314  -12.7195 C   0  0  0  0  0  0  0  0  0  0  0  0
   23.2703  -18.5675  -13.5123 C   0  0  0  0  0  0  0  0  0  0  0  0
   23.6450  -18.8960  -14.9251 C   0  0  2  0  0  0  0  0  0  0  0  0
   22.4189  -19.4619  -15.5788 N   0  0  0  0  0  0  0  0  0  0  0  0
   24.7034  -19.8649  -15.1340 C   0  0  0  0  0  0  0  0  0  0  0  0
   24.3471  -20.9905  -15.6740 O   0  0  0  0  0  0  0  0  0  0  0  0
   23.0103  -19.8530  -11.3816 C   0  0  0  0  0  0  0  0  0  0  0  0
   22.4451  -20.8397  -10.6103 C   0  0  0  0  0  0  0  0  0  0  0  0
   26.0707  -19.7810  -14.8508 N   0  0  0  0  0  0  0  0  0  0  0  0
   26.7309  -18.7638  -14.0648 C   0  0  0  0  0  0  0  0  0  0  0  0
   27.8661  -18.3799  -15.0071 C   0  0  0  0  0  0  0  0  0  0  0  0
   28.1606  -19.6219  -15.8155 C   0  0  0  0  0  0  0  0  0  0  0  0
   27.1585  -20.6241  -15.2944 C   0  0  1  0  0  0  0  0  0  0  0  0
   27.7164  -21.5049  -14.2623 C   0  0  0  0  0  0  0  0  0  0  0  0
   27.3303  -21.3414  -13.0840 O   0  0  0  0  0  0  0  0  0  0  0  0
   28.6413  -22.5127  -14.4762 O   0  0  0  0  0  0  0  0  0  0  0  0
  2  1  1  6
  2  3  1  0
  3  4  1  0
  4  5  1  0
  6  7  1  0
  6  5  1  0
  8  2  1  0
  8  9  2  0
 10 11  1  0
 11 21  2  0
 12 11  1  0
 12 13  2  0
 13 14  1  0
 14 20  2  0
 14 15  1  0
 16 15  1  1
 16 17  1  0
 17  8  1  0
 18 16  1  0
 19 18  2  0
 21 20  1  0
 22 18  1  0
 22 26  1  0
 23 24  1  0
 23 22  1  0
 24 25  1  0
 26 25  1  0
 27 29  1  0
 26 27  1  1
 28 27  2  0
M  END
$$$$
