KYP.pdb
     RDKit          3D

 29 30  0  0  1  0  0  0  0  0999 V2000
   20.3009  -17.1394  -17.3179 N   0  0  0  0  0  0  0  0  0  0  0  0
   20.6034  -18.4962  -16.9337 C   0  0  1  0  0  0  0  0  0  0  0  0
   20.8065  -19.3922  -18.1465 C   0  0  0  0  0  0  0  0  0  0  0  0
   19.9198  -18.9891  -19.2824 C   0  0  0  0  0  0  0  0  0  0  0  0
   20.5839  -18.2123  -20.3547 C   0  0  0  0  0  0  0  0  0  0  0  0
   19.7945  -17.9999  -21.6099 C   0  0  0  0  0  0  0  0  0  0  0  0
   19.1099  -16.7527  -21.5758 N   0  0  0  0  0  0  0  0  0  0  0  0
   21.8128  -18.5324  -16.0956 C   0  0  0  0  0  0  0  0  0  0  0  0
   22.6317  -17.5672  -16.0318 O   0  0  0  0  0  0  0  0  0  0  0  0
   26.7648  -21.0087   -9.0688 O   0  0  0  0  0  0  0  0  0  0  0  0
   25.8330  -20.8971  -10.0920 C   0  0  0  0  0  0  0  0  0  0  0  0
   26.0434  -21.5361  -11.2868 C   0  0  0  0  0  0  0  0  0  0  0  0
   25.1114  -21.4186  -12.2980 C   0  0  0  0  0  0  0  0  0  0  0  0
   23.9426  -20.6789  -12.1885 C   0  0  0  0  0  0  0  0  0  0  0  0
   22.9503  -20.5609  -13.2555 C   0  0  0  0  0  0  0  0  0  0  0  0
   23.3142  -19.7164  -14.4381 C   0  0  2  0  0  0  0  0  0  0  0  0
   22.1037  -19.6638  -15.3228 N   0  0  0  0  0  0  0  0  0  0  0  0
   24.4117  -20.1636  -15.2738 C   0  0  0  0  0  0  0  0  0  0  0  0
   24.0813  -20.8026  -16.3546 O   0  0  0  0  0  0  0  0  0  0  0  0
   23.7737  -20.0458  -10.9497 C   0  0  0  0  0  0  0  0  0  0  0  0
   24.6852  -20.1454   -9.9264 C   0  0  0  0  0  0  0  0  0  0  0  0
   25.7920  -20.0102  -15.1069 N   0  0  0  0  0  0  0  0  0  0  0  0
   26.4714  -19.5074  -13.9347 C   0  0  0  0  0  0  0  0  0  0  0  0
   27.3872  -18.4678  -14.5707 C   0  0  0  0  0  0  0  0  0  0  0  0
   27.6625  -18.9701  -15.9688 C   0  0  0  0  0  0  0  0  0  0  0  0
   26.8674  -20.2516  -16.0430 C   0  0  1  0  0  0  0  0  0  0  0  0
   27.6762  -21.4422  -15.7593 C   0  0  0  0  0  0  0  0  0  0  0  0
   27.4804  -22.0368  -14.6765 O   0  0  0  0  0  0  0  0  0  0  0  0
   28.6472  -21.9741  -16.5905 O   0  0  0  0  0  0  0  0  0  0  0  0
  2  1  1  6
  2  3  1  0
  3  4  1  0
  4  5  1  0
  6  7  1  0
  6  5  1  0
  8  2  1  0
  8  9  2  0
 10 11  1  0
 11 21  2  0
 12 11  1  0
 12 13  2  0
 13 14  1  0
 14 20  2  0
 14 15  1  0
 16 15  1  1
 16 17  1  0
 17  8  1  0
 18 16  1  0
 19 18  2  0
 21 20  1  0
 22 18  1  0
 22 26  1  0
 23 24  1  0
 23 22  1  0
 24 25  1  0
 26 25  1  0
 27 29  1  0
 26 27  1  1
 28 27  2  0
M  END
$$$$
