KYP.pdb
     RDKit          3D

 29 30  0  0  1  0  0  0  0  0999 V2000
   26.4675  -17.3300  -18.4114 N   0  0  0  0  0  0  0  0  0  0  0  0
   27.2033  -17.7955  -17.2617 C   0  0  1  0  0  0  0  0  0  0  0  0
   28.2814  -16.8058  -16.8454 C   0  0  0  0  0  0  0  0  0  0  0  0
   29.4157  -16.7859  -17.8213 C   0  0  0  0  0  0  0  0  0  0  0  0
   29.0740  -17.2288  -19.1929 C   0  0  0  0  0  0  0  0  0  0  0  0
   30.2210  -17.4117  -20.1389 C   0  0  0  0  0  0  0  0  0  0  0  0
   31.1816  -16.3737  -19.9809 N   0  0  0  0  0  0  0  0  0  0  0  0
   26.2912  -18.0242  -16.1295 C   0  0  0  0  0  0  0  0  0  0  0  0
   25.2864  -17.2869  -15.8991 O   0  0  0  0  0  0  0  0  0  0  0  0
   19.9036  -21.4394  -11.5952 O   0  0  0  0  0  0  0  0  0  0  0  0
   20.9780  -21.0823  -12.3989 C   0  0  0  0  0  0  0  0  0  0  0  0
   20.8777  -20.0071  -13.2439 C   0  0  0  0  0  0  0  0  0  0  0  0
   21.9512  -19.6604  -14.0391 C   0  0  0  0  0  0  0  0  0  0  0  0
   23.1599  -20.3418  -14.0445 C   0  0  0  0  0  0  0  0  0  0  0  0
   24.3007  -19.9704  -14.8797 C   0  0  0  0  0  0  0  0  0  0  0  0
   25.5164  -19.4420  -14.1819 C   0  0  2  0  0  0  0  0  0  0  0  0
   26.5111  -19.0910  -15.2489 N   0  0  0  0  0  0  0  0  0  0  0  0
   26.2020  -20.3260  -13.2593 C   0  0  0  0  0  0  0  0  0  0  0  0
   27.1408  -21.0642  -13.7686 O   0  0  0  0  0  0  0  0  0  0  0  0
   23.2124  -21.4315  -13.1648 C   0  0  0  0  0  0  0  0  0  0  0  0
   22.1592  -21.7988  -12.3624 C   0  0  0  0  0  0  0  0  0  0  0  0
   26.0192  -20.5117  -11.8850 N   0  0  0  0  0  0  0  0  0  0  0  0
   25.0449  -19.8535  -11.0448 C   0  0  0  0  0  0  0  0  0  0  0  0
   25.9384  -19.3812   -9.9035 C   0  0  0  0  0  0  0  0  0  0  0  0
   27.0725  -20.3773   -9.8366 C   0  0  0  0  0  0  0  0  0  0  0  0
   26.7605  -21.3383  -10.9587 C   0  0  1  0  0  0  0  0  0  0  0  0
   26.0527  -22.5392  -10.5012 C   0  0  0  0  0  0  0  0  0  0  0  0
   24.8489  -22.6633  -10.8167 O   0  0  0  0  0  0  0  0  0  0  0  0
   26.6022  -23.5596   -9.7439 O   0  0  0  0  0  0  0  0  0  0  0  0
  2  1  1  6
  2  3  1  0
  3  4  1  0
  4  5  1  0
  6  7  1  0
  6  5  1  0
  8  2  1  0
  8  9  2  0
 10 11  1  0
 11 21  2  0
 12 11  1  0
 12 13  2  0
 13 14  1  0
 14 20  2  0
 14 15  1  0
 16 15  1  6
 16 17  1  0
 17  8  1  0
 18 16  1  0
 19 18  2  0
 21 20  1  0
 22 18  1  0
 22 26  1  0
 23 24  1  0
 23 22  1  0
 24 25  1  0
 26 25  1  0
 27 29  1  0
 26 27  1  1
 28 27  2  0
M  END
$$$$
