KYP.pdb
     RDKit          3D

 29 30  0  0  1  0  0  0  0  0999 V2000
   26.3244  -19.7100  -15.5643 N   0  0  0  0  0  0  0  0  0  0  0  0
   27.3349  -19.5265  -14.5518 C   0  0  1  0  0  0  0  0  0  0  0  0
   28.2679  -18.3735  -14.8908 C   0  0  0  0  0  0  0  0  0  0  0  0
   29.1433  -18.7002  -16.0596 C   0  0  0  0  0  0  0  0  0  0  0  0
   28.4353  -19.2307  -17.2477 C   0  0  0  0  0  0  0  0  0  0  0  0
   29.2519  -19.3909  -18.4932 C   0  0  0  0  0  0  0  0  0  0  0  0
   30.0416  -20.5734  -18.4356 N   0  0  0  0  0  0  0  0  0  0  0  0
   26.7082  -19.2752  -13.2440 C   0  0  0  0  0  0  0  0  0  0  0  0
   25.8038  -18.4038  -13.0734 O   0  0  0  0  0  0  0  0  0  0  0  0
   20.9815  -21.3477   -7.3095 O   0  0  0  0  0  0  0  0  0  0  0  0
   22.0015  -21.2762   -8.2488 C   0  0  0  0  0  0  0  0  0  0  0  0
   21.8138  -20.5830   -9.4169 C   0  0  0  0  0  0  0  0  0  0  0  0
   22.8337  -20.5182  -10.3445 C   0  0  0  0  0  0  0  0  0  0  0  0
   24.0716  -21.1215  -10.1743 C   0  0  0  0  0  0  0  0  0  0  0  0
   25.1558  -21.0462  -11.1519 C   0  0  0  0  0  0  0  0  0  0  0  0
   26.2531  -20.0626  -10.8825 C   0  0  2  0  0  0  0  0  0  0  0  0
   27.1020  -20.0101  -12.1184 N   0  0  0  0  0  0  0  0  0  0  0  0
   27.1532  -20.3417   -9.7804 C   0  0  0  0  0  0  0  0  0  0  0  0
   28.1339  -21.1528  -10.0369 O   0  0  0  0  0  0  0  0  0  0  0  0
   24.2139  -21.8168   -8.9659 C   0  0  0  0  0  0  0  0  0  0  0  0
   23.2155  -21.8978   -8.0254 C   0  0  0  0  0  0  0  0  0  0  0  0
   27.1418  -19.8660   -8.4650 N   0  0  0  0  0  0  0  0  0  0  0  0
   26.1985  -18.9345   -7.8896 C   0  0  0  0  0  0  0  0  0  0  0  0
   27.1538  -17.9402   -7.2394 C   0  0  0  0  0  0  0  0  0  0  0  0
   28.3901  -18.7346   -6.8885 C   0  0  0  0  0  0  0  0  0  0  0  0
   28.0648  -20.1241   -7.3822 C   0  0  1  0  0  0  0  0  0  0  0  0
   27.5457  -20.9984   -6.3246 C   0  0  0  0  0  0  0  0  0  0  0  0
   26.3455  -21.3439   -6.3892 O   0  0  0  0  0  0  0  0  0  0  0  0
   28.2719  -21.4821   -5.2496 O   0  0  0  0  0  0  0  0  0  0  0  0
  2  1  1  6
  2  3  1  0
  3  4  1  0
  4  5  1  0
  6  7  1  0
  6  5  1  0
  8  2  1  0
  8  9  2  0
 10 11  1  0
 11 21  2  0
 12 11  1  0
 12 13  2  0
 13 14  1  0
 14 20  2  0
 14 15  1  0
 16 15  1  6
 16 17  1  0
 17  8  1  0
 18 16  1  0
 19 18  2  0
 21 20  1  0
 22 18  1  0
 22 26  1  0
 23 24  1  0
 23 22  1  0
 24 25  1  0
 26 25  1  0
 27 29  1  0
 26 27  1  1
 28 27  2  0
M  END
$$$$
