KYP.pdb
     RDKit          3D

 29 30  0  0  1  0  0  0  0  0999 V2000
   19.9039  -18.8675  -17.4487 N   0  0  0  0  0  0  0  0  0  0  0  0
   20.5440  -20.0902  -17.0305 C   0  0  1  0  0  0  0  0  0  0  0  0
   21.0212  -20.9105  -18.2198 C   0  0  0  0  0  0  0  0  0  0  0  0
   19.9733  -20.9960  -19.2846 C   0  0  0  0  0  0  0  0  0  0  0  0
   20.4760  -20.8817  -20.6733 C   0  0  0  0  0  0  0  0  0  0  0  0
   19.4480  -20.9454  -21.7610 C   0  0  0  0  0  0  0  0  0  0  0  0
   20.0570  -20.8444  -23.0434 N   0  0  0  0  0  0  0  0  0  0  0  0
   21.6891  -19.7940  -16.1546 C   0  0  0  0  0  0  0  0  0  0  0  0
   22.2054  -18.6397  -16.0683 O   0  0  0  0  0  0  0  0  0  0  0  0
   26.8958  -20.7941   -8.9662 O   0  0  0  0  0  0  0  0  0  0  0  0
   25.9968  -20.9502  -10.0127 C   0  0  0  0  0  0  0  0  0  0  0  0
   24.7089  -20.4966   -9.8868 C   0  0  0  0  0  0  0  0  0  0  0  0
   23.8227  -20.6570  -10.9327 C   0  0  0  0  0  0  0  0  0  0  0  0
   24.1515  -21.2616  -12.1375 C   0  0  0  0  0  0  0  0  0  0  0  0
   23.2164  -21.4240  -13.2493 C   0  0  0  0  0  0  0  0  0  0  0  0
   23.3931  -20.5191  -14.4300 C   0  0  2  0  0  0  0  0  0  0  0  0
   22.2583  -20.8043  -15.3691 N   0  0  0  0  0  0  0  0  0  0  0  0
   24.6100  -20.6541  -15.2069 C   0  0  0  0  0  0  0  0  0  0  0  0
   24.5216  -21.3734  -16.2840 O   0  0  0  0  0  0  0  0  0  0  0  0
   25.4777  -21.7074  -12.2168 C   0  0  0  0  0  0  0  0  0  0  0  0
   26.3805  -21.5612  -11.1914 C   0  0  0  0  0  0  0  0  0  0  0  0
   25.8841  -20.1207  -14.9857 N   0  0  0  0  0  0  0  0  0  0  0  0
   26.3181  -19.3658  -13.8324 C   0  0  0  0  0  0  0  0  0  0  0  0
   26.9693  -18.1684  -14.5150 C   0  0  0  0  0  0  0  0  0  0  0  0
   27.4696  -18.6817  -15.8451 C   0  0  0  0  0  0  0  0  0  0  0  0
   27.0505  -20.1323  -15.8402 C   0  0  1  0  0  0  0  0  0  0  0  0
   28.1232  -21.0347  -15.4073 C   0  0  0  0  0  0  0  0  0  0  0  0
   29.0585  -21.2561  -16.2075 O   0  0  0  0  0  0  0  0  0  0  0  0
   28.1957  -21.6703  -14.1795 O   0  0  0  0  0  0  0  0  0  0  0  0
  2  1  1  6
  2  3  1  0
  3  4  1  0
  4  5  1  0
  6  7  1  0
  6  5  1  0
  8  2  1  0
  8  9  2  0
 10 11  1  0
 11 21  2  0
 12 11  1  0
 12 13  2  0
 13 14  1  0
 14 20  2  0
 14 15  1  0
 16 15  1  1
 16 17  1  0
 17  8  1  0
 18 16  1  0
 19 18  2  0
 21 20  1  0
 22 18  1  0
 22 26  1  0
 23 24  1  0
 23 22  1  0
 24 25  1  0
 26 25  1  0
 27 29  1  0
 26 27  1  1
 28 27  2  0
M  END
$$$$
