KYP.pdb
     RDKit          3D

 29 30  0  0  1  0  0  0  0  0999 V2000
   28.5174  -18.1922  -18.9506 N   0  0  0  0  0  0  0  0  0  0  0  0
   27.3644  -17.8454  -18.1567 C   0  0  1  0  0  0  0  0  0  0  0  0
   26.1128  -17.7112  -19.0113 C   0  0  0  0  0  0  0  0  0  0  0  0
   26.0147  -16.3536  -19.6332 C   0  0  0  0  0  0  0  0  0  0  0  0
   27.1967  -15.9355  -20.4220 C   0  0  0  0  0  0  0  0  0  0  0  0
   26.9243  -15.3779  -21.7854 C   0  0  0  0  0  0  0  0  0  0  0  0
   25.6188  -14.8155  -21.8538 N   0  0  0  0  0  0  0  0  0  0  0  0
   27.1354  -18.8615  -17.1169 C   0  0  0  0  0  0  0  0  0  0  0  0
   27.0504  -20.0994  -17.3752 O   0  0  0  0  0  0  0  0  0  0  0  0
   25.6790  -21.5158   -8.6180 O   0  0  0  0  0  0  0  0  0  0  0  0
   26.0817  -20.9058   -9.7985 C   0  0  0  0  0  0  0  0  0  0  0  0
   27.1969  -21.3537  -10.4587 C   0  0  0  0  0  0  0  0  0  0  0  0
   27.5893  -20.7404  -11.6312 C   0  0  0  0  0  0  0  0  0  0  0  0
   26.9161  -19.6722  -12.2066 C   0  0  0  0  0  0  0  0  0  0  0  0
   27.3255  -19.0275  -13.4531 C   0  0  0  0  0  0  0  0  0  0  0  0
   26.6513  -19.4810  -14.7116 C   0  0  2  0  0  0  0  0  0  0  0  0
   27.0008  -18.4823  -15.7753 N   0  0  0  0  0  0  0  0  0  0  0  0
   25.2046  -19.5798  -14.7037 C   0  0  0  0  0  0  0  0  0  0  0  0
   24.5587  -18.5170  -15.0765 O   0  0  0  0  0  0  0  0  0  0  0  0
   25.7843  -19.2521  -11.4949 C   0  0  0  0  0  0  0  0  0  0  0  0
   25.3714  -19.8440  -10.3257 C   0  0  0  0  0  0  0  0  0  0  0  0
   24.3766  -20.6539  -14.3611 N   0  0  0  0  0  0  0  0  0  0  0  0
   24.7958  -21.9524  -13.8852 C   0  0  0  0  0  0  0  0  0  0  0  0
   23.9959  -22.8586  -14.8141 C   0  0  0  0  0  0  0  0  0  0  0  0
   22.7521  -22.0783  -15.1708 C   0  0  0  0  0  0  0  0  0  0  0  0
   22.9374  -20.7710  -14.4383 C   0  0  1  0  0  0  0  0  0  0  0  0
   22.2458  -20.7387  -13.1449 C   0  0  0  0  0  0  0  0  0  0  0  0
   22.8617  -21.1632  -12.1425 O   0  0  0  0  0  0  0  0  0  0  0  0
   20.9590  -20.2753  -12.9300 O   0  0  0  0  0  0  0  0  0  0  0  0
  2  1  1  6
  2  3  1  0
  3  4  1  0
  4  5  1  0
  6  7  1  0
  6  5  1  0
  8  2  1  0
  8  9  2  0
 10 11  1  0
 11 21  2  0
 12 11  1  0
 12 13  2  0
 13 14  1  0
 14 20  2  0
 14 15  1  0
 16 15  1  1
 16 17  1  0
 17  8  1  0
 18 16  1  0
 19 18  2  0
 21 20  1  0
 22 18  1  0
 22 26  1  0
 23 24  1  0
 23 22  1  0
 24 25  1  0
 26 25  1  0
 27 29  1  0
 26 27  1  1
 28 27  2  0
M  END
$$$$
