KYP.pdb
     RDKit          3D

 29 30  0  0  1  0  0  0  0  0999 V2000
   28.8716  -19.8631  -16.9576 N   0  0  0  0  0  0  0  0  0  0  0  0
   28.4207  -19.0248  -15.8741 C   0  0  1  0  0  0  0  0  0  0  0  0
   27.2720  -18.1232  -16.3011 C   0  0  0  0  0  0  0  0  0  0  0  0
   27.7682  -16.8811  -16.9721 C   0  0  0  0  0  0  0  0  0  0  0  0
   28.3602  -17.0845  -18.3147 C   0  0  0  0  0  0  0  0  0  0  0  0
   27.5306  -16.6449  -19.4819 C   0  0  0  0  0  0  0  0  0  0  0  0
   28.0109  -15.4153  -20.0135 N   0  0  0  0  0  0  0  0  0  0  0  0
   27.9917  -19.8504  -14.7337 C   0  0  0  0  0  0  0  0  0  0  0  0
   27.3901  -20.9568  -14.8765 O   0  0  0  0  0  0  0  0  0  0  0  0
   26.3969  -20.8088   -5.8958 O   0  0  0  0  0  0  0  0  0  0  0  0
   26.9182  -20.5566   -7.1576 C   0  0  0  0  0  0  0  0  0  0  0  0
   26.4334  -19.5156   -7.9069 C   0  0  0  0  0  0  0  0  0  0  0  0
   26.9580  -19.2733   -9.1603 C   0  0  0  0  0  0  0  0  0  0  0  0
   27.9706  -20.0298   -9.7328 C   0  0  0  0  0  0  0  0  0  0  0  0
   28.5332  -19.7689  -11.0566 C   0  0  0  0  0  0  0  0  0  0  0  0
   27.7212  -20.1945  -12.2413 C   0  0  2  0  0  0  0  0  0  0  0  0
   28.2412  -19.4282  -13.4218 N   0  0  0  0  0  0  0  0  0  0  0  0
   26.2912  -19.9581  -12.1987 C   0  0  0  0  0  0  0  0  0  0  0  0
   25.9026  -18.7578  -12.5052 O   0  0  0  0  0  0  0  0  0  0  0  0
   28.4318  -21.0806   -8.9284 C   0  0  0  0  0  0  0  0  0  0  0  0
   27.9276  -21.3444   -7.6778 C   0  0  0  0  0  0  0  0  0  0  0  0
   25.2429  -20.8288  -11.8830 N   0  0  0  0  0  0  0  0  0  0  0  0
   25.3569  -22.2175  -11.4997 C   0  0  0  0  0  0  0  0  0  0  0  0
   24.3403  -22.8490  -12.4440 C   0  0  0  0  0  0  0  0  0  0  0  0
   23.3065  -21.7781  -12.7029 C   0  0  0  0  0  0  0  0  0  0  0  0
   23.8152  -20.6009  -11.9058 C   0  0  1  0  0  0  0  0  0  0  0  0
   23.1868  -20.4921  -10.5846 C   0  0  0  0  0  0  0  0  0  0  0  0
   23.8120  -20.9467   -9.6014 O   0  0  0  0  0  0  0  0  0  0  0  0
   21.9511  -19.9250  -10.3237 O   0  0  0  0  0  0  0  0  0  0  0  0
  2  1  1  6
  2  3  1  0
  3  4  1  0
  4  5  1  0
  6  7  1  0
  6  5  1  0
  8  2  1  0
  8  9  2  0
 10 11  1  0
 11 21  2  0
 12 11  1  0
 12 13  2  0
 13 14  1  0
 14 20  2  0
 14 15  1  0
 16 15  1  1
 16 17  1  0
 17  8  1  0
 18 16  1  0
 19 18  2  0
 21 20  1  0
 22 18  1  0
 22 26  1  0
 23 24  1  0
 23 22  1  0
 24 25  1  0
 26 25  1  0
 27 29  1  0
 26 27  1  1
 28 27  2  0
M  END
$$$$
