KYP.pdb
     RDKit          3D

 29 30  0  0  1  0  0  0  0  0999 V2000
   25.9549  -20.1328  -14.1025 N   0  0  0  0  0  0  0  0  0  0  0  0
   26.9285  -20.6304  -13.1621 C   0  0  1  0  0  0  0  0  0  0  0  0
   28.3462  -20.2590  -13.5708 C   0  0  0  0  0  0  0  0  0  0  0  0
   28.8510  -21.1419  -14.6685 C   0  0  0  0  0  0  0  0  0  0  0  0
   29.5209  -22.3844  -14.2194 C   0  0  0  0  0  0  0  0  0  0  0  0
   30.8662  -22.6680  -14.8140 C   0  0  0  0  0  0  0  0  0  0  0  0
   30.7858  -22.7665  -16.2314 N   0  0  0  0  0  0  0  0  0  0  0  0
   26.6567  -20.1002  -11.8164 C   0  0  0  0  0  0  0  0  0  0  0  0
   26.3987  -18.8782  -11.6003 O   0  0  0  0  0  0  0  0  0  0  0  0
   20.2554  -19.3822  -11.6359 O   0  0  0  0  0  0  0  0  0  0  0  0
   21.4053  -19.8261  -10.9967 C   0  0  0  0  0  0  0  0  0  0  0  0
   22.2266  -20.7359  -11.6115 C   0  0  0  0  0  0  0  0  0  0  0  0
   23.3671  -21.1713  -10.9677 C   0  0  0  0  0  0  0  0  0  0  0  0
   23.7533  -20.7415   -9.7062 C   0  0  0  0  0  0  0  0  0  0  0  0
   24.9656  -21.1951   -9.0268 C   0  0  0  0  0  0  0  0  0  0  0  0
   26.2401  -20.4767   -9.3489 C   0  0  2  0  0  0  0  0  0  0  0  0
   26.6752  -20.9513  -10.7041 N   0  0  0  0  0  0  0  0  0  0  0  0
   27.3703  -20.6787   -8.4632 C   0  0  0  0  0  0  0  0  0  0  0  0
   28.2353  -21.5716   -8.8375 O   0  0  0  0  0  0  0  0  0  0  0  0
   22.8821  -19.8130   -9.1206 C   0  0  0  0  0  0  0  0  0  0  0  0
   21.7404  -19.3629   -9.7385 C   0  0  0  0  0  0  0  0  0  0  0  0
   27.6906  -20.0528   -7.2539 N   0  0  0  0  0  0  0  0  0  0  0  0
   26.9779  -18.9623   -6.6284 C   0  0  0  0  0  0  0  0  0  0  0  0
   28.1313  -18.0088   -6.3380 C   0  0  0  0  0  0  0  0  0  0  0  0
   29.3461  -18.8868   -6.1478 C   0  0  0  0  0  0  0  0  0  0  0  0
   28.8074  -20.2808   -6.3641 C   0  0  1  0  0  0  0  0  0  0  0  0
   28.4676  -20.9621   -5.1101 C   0  0  0  0  0  0  0  0  0  0  0  0
   27.2629  -21.2183   -4.8925 O   0  0  0  0  0  0  0  0  0  0  0  0
   29.3692  -21.3526   -4.1347 O   0  0  0  0  0  0  0  0  0  0  0  0
  2  1  1  6
  2  3  1  0
  3  4  1  0
  4  5  1  0
  6  7  1  0
  6  5  1  0
  8  2  1  0
  8  9  2  0
 10 11  1  0
 11 21  2  0
 12 11  1  0
 12 13  2  0
 13 14  1  0
 14 20  2  0
 14 15  1  0
 16 15  1  1
 16 17  1  0
 17  8  1  0
 18 16  1  0
 19 18  2  0
 21 20  1  0
 22 18  1  0
 22 26  1  0
 23 24  1  0
 23 22  1  0
 24 25  1  0
 26 25  1  0
 27 29  1  0
 26 27  1  1
 28 27  2  0
M  END
$$$$
