KYP.pdb
     RDKit          3D

 29 30  0  0  1  0  0  0  0  0999 V2000
   29.7062  -22.1501  -18.4870 N   0  0  0  0  0  0  0  0  0  0  0  0
   29.0993  -21.0004  -17.8627 C   0  0  1  0  0  0  0  0  0  0  0  0
   28.2731  -20.1933  -18.8531 C   0  0  0  0  0  0  0  0  0  0  0  0
   27.7178  -21.0591  -19.9400 C   0  0  0  0  0  0  0  0  0  0  0  0
   28.2357  -20.7742  -21.2983 C   0  0  0  0  0  0  0  0  0  0  0  0
   27.6074  -21.5368  -22.4241 C   0  0  0  0  0  0  0  0  0  0  0  0
   28.1544  -21.1388  -23.6762 N   0  0  0  0  0  0  0  0  0  0  0  0
   28.2410  -21.4203  -16.7433 C   0  0  0  0  0  0  0  0  0  0  0  0
   27.7290  -22.5773  -16.6687 O   0  0  0  0  0  0  0  0  0  0  0  0
   24.7366  -20.8659   -8.4735 O   0  0  0  0  0  0  0  0  0  0  0  0
   25.4183  -20.6859   -9.6696 C   0  0  0  0  0  0  0  0  0  0  0  0
   24.9236  -19.8320  -10.6217 C   0  0  0  0  0  0  0  0  0  0  0  0
   25.6084  -19.6602  -11.8076 C   0  0  0  0  0  0  0  0  0  0  0  0
   26.7964  -20.3084  -12.1140 C   0  0  0  0  0  0  0  0  0  0  0  0
   27.5273  -20.1206  -13.3659 C   0  0  0  0  0  0  0  0  0  0  0  0
   27.0872  -20.9346  -14.5441 C   0  0  2  0  0  0  0  0  0  0  0  0
   27.9560  -20.5315  -15.6989 N   0  0  0  0  0  0  0  0  0  0  0  0
   25.7164  -20.7852  -14.9925 C   0  0  0  0  0  0  0  0  0  0  0  0
   25.5162  -19.9126  -15.9329 O   0  0  0  0  0  0  0  0  0  0  0  0
   27.2603  -21.1690  -11.1099 C   0  0  0  0  0  0  0  0  0  0  0  0
   26.5989  -21.3590   -9.9207 C   0  0  0  0  0  0  0  0  0  0  0  0
   24.5550  -21.4441  -14.5757 N   0  0  0  0  0  0  0  0  0  0  0  0
   24.4453  -22.4136  -13.5097 C   0  0  0  0  0  0  0  0  0  0  0  0
   23.6850  -23.5251  -14.2242 C   0  0  0  0  0  0  0  0  0  0  0  0
   22.8543  -22.8348  -15.2807 C   0  0  0  0  0  0  0  0  0  0  0  0
   23.2135  -21.3779  -15.1114 C   0  0  1  0  0  0  0  0  0  0  0  0
   22.2524  -20.6463  -14.2789 C   0  0  0  0  0  0  0  0  0  0  0  0
   22.5934  -20.3563  -13.1110 O   0  0  0  0  0  0  0  0  0  0  0  0
   20.9881  -20.2422  -14.6727 O   0  0  0  0  0  0  0  0  0  0  0  0
  2  1  1  6
  2  3  1  0
  3  4  1  0
  4  5  1  0
  6  7  1  0
  6  5  1  0
  8  2  1  0
  8  9  2  0
 10 11  1  0
 11 21  2  0
 12 11  1  0
 12 13  2  0
 13 14  1  0
 14 20  2  0
 14 15  1  0
 16 15  1  1
 16 17  1  0
 17  8  1  0
 18 16  1  0
 19 18  2  0
 21 20  1  0
 22 18  1  0
 22 26  1  0
 23 24  1  0
 23 22  1  0
 24 25  1  0
 26 25  1  0
 27 29  1  0
 26 27  1  1
 28 27  2  0
M  END
$$$$
