KYP.pdb
     RDKit          3D

 29 30  0  0  1  0  0  0  0  0999 V2000
   26.1091  -20.7447  -13.6483 N   0  0  0  0  0  0  0  0  0  0  0  0
   27.2730  -20.3993  -12.8699 C   0  0  1  0  0  0  0  0  0  0  0  0
   28.1043  -19.3211  -13.5491 C   0  0  0  0  0  0  0  0  0  0  0  0
   28.9160  -19.8806  -14.6749 C   0  0  0  0  0  0  0  0  0  0  0  0
   28.1446  -20.6209  -15.7001 C   0  0  0  0  0  0  0  0  0  0  0  0
   28.9078  -21.0823  -16.9037 C   0  0  0  0  0  0  0  0  0  0  0  0
   29.7349  -22.1959  -16.5858 N   0  0  0  0  0  0  0  0  0  0  0  0
   26.8733  -19.9332  -11.5323 C   0  0  0  0  0  0  0  0  0  0  0  0
   26.4774  -18.7501  -11.3086 O   0  0  0  0  0  0  0  0  0  0  0  0
   20.3861  -19.4342  -11.5825 O   0  0  0  0  0  0  0  0  0  0  0  0
   21.5317  -19.8826  -10.9388 C   0  0  0  0  0  0  0  0  0  0  0  0
   22.3568  -20.7885  -11.5542 C   0  0  0  0  0  0  0  0  0  0  0  0
   23.4930  -21.2284  -10.9058 C   0  0  0  0  0  0  0  0  0  0  0  0
   23.8711  -20.8069   -9.6391 C   0  0  0  0  0  0  0  0  0  0  0  0
   25.0789  -21.2653   -8.9548 C   0  0  0  0  0  0  0  0  0  0  0  0
   26.3140  -20.4329   -9.1154 C   0  0  2  0  0  0  0  0  0  0  0  0
   26.9193  -20.8049  -10.4369 N   0  0  0  0  0  0  0  0  0  0  0  0
   27.3641  -20.5870   -8.1274 C   0  0  0  0  0  0  0  0  0  0  0  0
   28.3161  -21.4156   -8.4319 O   0  0  0  0  0  0  0  0  0  0  0  0
   22.9963  -19.8821   -9.0531 C   0  0  0  0  0  0  0  0  0  0  0  0
   21.8588  -19.4276   -9.6755 C   0  0  0  0  0  0  0  0  0  0  0  0
   27.5260  -19.9728   -6.8811 N   0  0  0  0  0  0  0  0  0  0  0  0
   26.7472  -18.8784   -6.3479 C   0  0  0  0  0  0  0  0  0  0  0  0
   27.8611  -17.9400   -5.8979 C   0  0  0  0  0  0  0  0  0  0  0  0
   29.0303  -18.8331   -5.5538 C   0  0  0  0  0  0  0  0  0  0  0  0
   28.5110  -20.2193   -5.8516 C   0  0  1  0  0  0  0  0  0  0  0  0
   27.9991  -20.9051   -4.6599 C   0  0  0  0  0  0  0  0  0  0  0  0
   28.8092  -21.1670   -3.7437 O   0  0  0  0  0  0  0  0  0  0  0  0
   26.6860  -21.2926   -4.4543 O   0  0  0  0  0  0  0  0  0  0  0  0
  2  1  1  6
  2  3  1  0
  3  4  1  0
  4  5  1  0
  6  7  1  0
  6  5  1  0
  8  2  1  0
  8  9  2  0
 10 11  1  0
 11 21  2  0
 12 11  1  0
 12 13  2  0
 13 14  1  0
 14 20  2  0
 14 15  1  0
 16 15  1  1
 16 17  1  0
 17  8  1  0
 18 16  1  0
 19 18  2  0
 21 20  1  0
 22 18  1  0
 22 26  1  0
 23 24  1  0
 23 22  1  0
 24 25  1  0
 26 25  1  0
 27 29  1  0
 26 27  1  1
 28 27  2  0
M  END
$$$$
