KYP.pdb
     RDKit          3D

 29 30  0  0  1  0  0  0  0  0999 V2000
   29.4326  -20.1653  -19.2533 N   0  0  0  0  0  0  0  0  0  0  0  0
   28.2397  -19.8114  -18.5242 C   0  0  1  0  0  0  0  0  0  0  0  0
   27.0765  -19.5144  -19.4589 C   0  0  0  0  0  0  0  0  0  0  0  0
   27.3465  -18.3120  -20.3077 C   0  0  0  0  0  0  0  0  0  0  0  0
   26.2426  -17.9206  -21.2146 C   0  0  0  0  0  0  0  0  0  0  0  0
   26.5149  -16.7740  -22.1392 C   0  0  0  0  0  0  0  0  0  0  0  0
   25.3770  -16.4883  -22.9447 N   0  0  0  0  0  0  0  0  0  0  0  0
   27.8601  -20.8980  -17.6070 C   0  0  0  0  0  0  0  0  0  0  0  0
   27.8985  -22.1204  -17.9395 O   0  0  0  0  0  0  0  0  0  0  0  0
   23.3477  -20.4842  -10.1064 O   0  0  0  0  0  0  0  0  0  0  0  0
   24.3418  -20.6784  -11.0561 C   0  0  0  0  0  0  0  0  0  0  0  0
   24.3890  -19.8864  -12.1745 C   0  0  0  0  0  0  0  0  0  0  0  0
   25.3809  -20.0877  -13.1128 C   0  0  0  0  0  0  0  0  0  0  0  0
   26.3625  -21.0621  -13.0020 C   0  0  0  0  0  0  0  0  0  0  0  0
   27.4188  -21.2705  -13.9907 C   0  0  0  0  0  0  0  0  0  0  0  0
   26.9966  -21.6920  -15.3648 C   0  0  2  0  0  0  0  0  0  0  0  0
   27.4335  -20.6074  -16.3049 N   0  0  0  0  0  0  0  0  0  0  0  0
   25.5804  -21.8930  -15.6031 C   0  0  0  0  0  0  0  0  0  0  0  0
   24.9570  -20.9168  -16.1897 O   0  0  0  0  0  0  0  0  0  0  0  0
   26.2713  -21.8443  -11.8427 C   0  0  0  0  0  0  0  0  0  0  0  0
   25.2946  -21.6660  -10.8928 C   0  0  0  0  0  0  0  0  0  0  0  0
   24.7631  -22.9886  -15.3057 N   0  0  0  0  0  0  0  0  0  0  0  0
   25.1531  -24.1973  -14.6163 C   0  0  0  0  0  0  0  0  0  0  0  0
   24.6045  -25.2501  -15.5726 C   0  0  0  0  0  0  0  0  0  0  0  0
   23.4134  -24.6074  -16.2443 C   0  0  0  0  0  0  0  0  0  0  0  0
   23.3764  -23.2236  -15.6412 C   0  0  1  0  0  0  0  0  0  0  0  0
   22.4427  -23.1169  -14.5147 C   0  0  0  0  0  0  0  0  0  0  0  0
   22.9108  -23.2032  -13.3581 O   0  0  0  0  0  0  0  0  0  0  0  0
   21.0751  -22.9265  -14.6161 O   0  0  0  0  0  0  0  0  0  0  0  0
  2  1  1  6
  2  3  1  0
  3  4  1  0
  4  5  1  0
  6  7  1  0
  6  5  1  0
  8  2  1  0
  8  9  2  0
 10 11  1  0
 11 21  2  0
 12 11  1  0
 12 13  2  0
 13 14  1  0
 14 20  2  0
 14 15  1  0
 16 15  1  1
 16 17  1  0
 17  8  1  0
 18 16  1  0
 19 18  2  0
 21 20  1  0
 22 18  1  0
 22 26  1  0
 23 24  1  0
 23 22  1  0
 24 25  1  0
 26 25  1  0
 27 29  1  0
 26 27  1  1
 28 27  2  0
M  END
$$$$
