KYP.pdb
     RDKit          3D

 29 30  0  0  1  0  0  0  0  0999 V2000
   20.7163  -13.7451  -16.7325 N   0  0  0  0  0  0  0  0  0  0  0  0
   21.1559  -12.4530  -17.1983 C   0  0  1  0  0  0  0  0  0  0  0  0
   20.2045  -11.8755  -18.2357 C   0  0  0  0  0  0  0  0  0  0  0  0
   19.2640  -12.9155  -18.7583 C   0  0  0  0  0  0  0  0  0  0  0  0
   19.3219  -13.1385  -20.2216 C   0  0  0  0  0  0  0  0  0  0  0  0
   18.2753  -14.0409  -20.7997 C   0  0  0  0  0  0  0  0  0  0  0  0
   18.4047  -14.1298  -22.2141 N   0  0  0  0  0  0  0  0  0  0  0  0
   21.2710  -11.5150  -16.0700 C   0  0  0  0  0  0  0  0  0  0  0  0
   20.5130  -11.5667  -15.0556 O   0  0  0  0  0  0  0  0  0  0  0  0
   28.2069  -11.4784  -16.9511 O   0  0  0  0  0  0  0  0  0  0  0  0
   27.0662  -11.0796  -16.2674 C   0  0  0  0  0  0  0  0  0  0  0  0
   26.6071   -9.7930  -16.3866 C   0  0  0  0  0  0  0  0  0  0  0  0
   25.4725   -9.4062  -15.7025 C   0  0  0  0  0  0  0  0  0  0  0  0
   24.7419  -10.2508  -14.8790 C   0  0  0  0  0  0  0  0  0  0  0  0
   23.5350   -9.8449  -14.1609 C   0  0  0  0  0  0  0  0  0  0  0  0
   22.3348   -9.4915  -14.9847 C   0  0  2  0  0  0  0  0  0  0  0  0
   22.2468  -10.5102  -16.0827 N   0  0  0  0  0  0  0  0  0  0  0  0
   22.3184   -8.1931  -15.6300 C   0  0  0  0  0  0  0  0  0  0  0  0
   22.5146   -8.1919  -16.9134 O   0  0  0  0  0  0  0  0  0  0  0  0
   25.2509  -11.5535  -14.7905 C   0  0  0  0  0  0  0  0  0  0  0  0
   26.3780  -11.9652  -15.4600 C   0  0  0  0  0  0  0  0  0  0  0  0
   22.1149   -6.9198  -15.0877 N   0  0  0  0  0  0  0  0  0  0  0  0
   21.8582   -6.6003  -13.7019 C   0  0  0  0  0  0  0  0  0  0  0  0
   20.6378   -5.6984  -13.8478 C   0  0  0  0  0  0  0  0  0  0  0  0
   20.7756   -5.0446  -15.2030 C   0  0  0  0  0  0  0  0  0  0  0  0
   22.0546   -5.6345  -15.7474 C   0  0  1  0  0  0  0  0  0  0  0  0
   23.2204   -4.7721  -15.5256 C   0  0  0  0  0  0  0  0  0  0  0  0
   23.9731   -5.0435  -14.5643 O   0  0  0  0  0  0  0  0  0  0  0  0
   23.5679   -3.6730  -16.2924 O   0  0  0  0  0  0  0  0  0  0  0  0
  2  1  1  1
  2  3  1  0
  3  4  1  0
  4  5  1  0
  6  7  1  0
  6  5  1  0
  8  2  1  0
  8  9  2  0
 10 11  1  0
 11 21  2  0
 12 11  1  0
 12 13  2  0
 13 14  1  0
 14 20  2  0
 14 15  1  0
 16 15  1  6
 16 17  1  0
 17  8  1  0
 18 16  1  0
 19 18  2  0
 21 20  1  0
 22 18  1  0
 22 26  1  0
 23 24  1  0
 23 22  1  0
 24 25  1  0
 26 25  1  0
 27 29  1  0
 26 27  1  1
 28 27  2  0
M  END
$$$$
