KYP.pdb
     RDKit          3D

 29 30  0  0  1  0  0  0  0  0999 V2000
   29.5568  -21.4968  -19.1565 N   0  0  0  0  0  0  0  0  0  0  0  0
   28.6842  -20.5261  -18.5433 C   0  0  1  0  0  0  0  0  0  0  0  0
   27.5450  -20.1289  -19.4703 C   0  0  0  0  0  0  0  0  0  0  0  0
   27.9630  -19.0569  -20.4270 C   0  0  0  0  0  0  0  0  0  0  0  0
   29.3241  -19.2117  -20.9906 C   0  0  0  0  0  0  0  0  0  0  0  0
   29.7731  -18.1510  -21.9483 C   0  0  0  0  0  0  0  0  0  0  0  0
   31.0792  -18.4292  -22.4402 N   0  0  0  0  0  0  0  0  0  0  0  0
   28.1266  -21.0597  -17.2901 C   0  0  0  0  0  0  0  0  0  0  0  0
   27.8072  -22.2777  -17.1459 O   0  0  0  0  0  0  0  0  0  0  0  0
   25.4826  -20.5793   -8.6781 O   0  0  0  0  0  0  0  0  0  0  0  0
   26.0607  -20.4220   -9.9306 C   0  0  0  0  0  0  0  0  0  0  0  0
   25.6235  -19.4303  -10.7706 C   0  0  0  0  0  0  0  0  0  0  0  0
   26.2043  -19.2825  -12.0138 C   0  0  0  0  0  0  0  0  0  0  0  0
   27.2291  -20.0889  -12.4881 C   0  0  0  0  0  0  0  0  0  0  0  0
   27.8512  -19.9277  -13.8010 C   0  0  0  0  0  0  0  0  0  0  0  0
   27.2653  -20.7097  -14.9366 C   0  0  2  0  0  0  0  0  0  0  0  0
   27.9263  -20.2164  -16.1899 N   0  0  0  0  0  0  0  0  0  0  0  0
   25.8364  -20.6057  -15.1604 C   0  0  0  0  0  0  0  0  0  0  0  0
   25.4508  -19.6464  -15.9457 O   0  0  0  0  0  0  0  0  0  0  0  0
   27.6402  -21.0862  -11.5935 C   0  0  0  0  0  0  0  0  0  0  0  0
   27.0795  -21.2560  -10.3506 C   0  0  0  0  0  0  0  0  0  0  0  0
   24.7876  -21.3881  -14.6658 N   0  0  0  0  0  0  0  0  0  0  0  0
   24.8989  -22.5270  -13.7833 C   0  0  0  0  0  0  0  0  0  0  0  0
   24.0465  -23.5432  -14.5347 C   0  0  0  0  0  0  0  0  0  0  0  0
   23.0193  -22.7324  -15.2900 C   0  0  0  0  0  0  0  0  0  0  0  0
   23.3692  -21.3070  -14.9352 C   0  0  1  0  0  0  0  0  0  0  0  0
   22.5608  -20.7792  -13.8306 C   0  0  0  0  0  0  0  0  0  0  0  0
   23.0828  -20.7335  -12.6949 O   0  0  0  0  0  0  0  0  0  0  0  0
   21.2583  -20.3210  -13.9318 O   0  0  0  0  0  0  0  0  0  0  0  0
  2  1  1  6
  2  3  1  0
  3  4  1  0
  4  5  1  0
  6  7  1  0
  6  5  1  0
  8  2  1  0
  8  9  2  0
 10 11  1  0
 11 21  2  0
 12 11  1  0
 12 13  2  0
 13 14  1  0
 14 20  2  0
 14 15  1  0
 16 15  1  1
 16 17  1  0
 17  8  1  0
 18 16  1  0
 19 18  2  0
 21 20  1  0
 22 18  1  0
 22 26  1  0
 23 24  1  0
 23 22  1  0
 24 25  1  0
 26 25  1  0
 27 29  1  0
 26 27  1  1
 28 27  2  0
M  END
$$$$
