HDS.pdb
     RDKit          3D

 25 25  0  0  1  0  0  0  0  0999 V2000
   18.5620  -12.4363  -17.3336 N   0  0  0  0  0  0  0  0  0  0  0  0
   19.8125  -11.8019  -17.0549 C   0  0  1  0  0  0  0  0  0  0  0  0
   20.8363  -12.2027  -18.0934 C   0  0  0  0  0  0  0  0  0  0  0  0
   21.0012  -13.6852  -17.9995 C   0  0  0  0  0  0  0  0  0  0  0  0
   21.7286  -14.4192  -17.0863 C   0  0  0  0  0  0  0  0  0  0  0  0
   21.6027  -15.7091  -17.3661 N   0  0  0  0  0  0  0  0  0  0  0  0
   20.8119  -15.8494  -18.4393 C   0  0  0  0  0  0  0  0  0  0  0  0
   20.4486  -14.6212  -18.8215 N   0  0  0  0  0  0  0  0  0  0  0  0
   19.6670  -10.3300  -16.9594 C   0  0  0  0  0  0  0  0  0  0  0  0
   19.7428   -9.6631  -18.0223 O   0  0  0  0  0  0  0  0  0  0  0  0
   19.4500   -9.6427  -15.7495 N   0  0  0  0  0  0  0  0  0  0  0  0
   19.2990   -8.2188  -15.6354 C   0  0  1  0  0  0  0  0  0  0  0  0
   18.1154   -7.8463  -14.7968 C   0  0  0  0  0  0  0  0  0  0  0  0
   16.8187   -8.2906  -15.3545 C   0  0  0  0  0  0  0  0  0  0  0  0
   16.2842   -7.8125  -16.3834 O   0  0  0  0  0  0  0  0  0  0  0  0
   20.4957   -7.5662  -15.0438 C   0  0  0  0  0  0  0  0  0  0  0  0
   20.9820   -8.0916  -14.0093 O   0  0  0  0  0  0  0  0  0  0  0  0
   16.1459   -9.3069  -14.6947 O   0  0  0  0  0  0  0  0  0  0  0  0
   23.7423   -3.8980  -15.1360 O   0  0  0  0  0  0  0  0  0  0  0  0
   22.7204   -4.5744  -15.7977 C   0  0  0  0  0  0  0  0  0  0  0  0
   22.2592   -5.7663  -14.9885 C   0  0  2  0  0  0  0  0  0  0  0  0
   21.1000   -6.4018  -15.5840 N   0  0  0  0  0  0  0  0  0  0  0  0
   21.9070   -5.2956  -13.6381 C   0  0  0  0  0  0  0  0  0  0  0  0
   22.8486   -5.2556  -12.6359 O   0  0  0  0  0  0  0  0  0  0  0  0
   20.7351   -4.9283  -13.4036 O   0  0  0  0  0  0  0  0  0  0  0  0
  2  1  1  6
  3  2  1  0
  4  3  1  0
  5  4  2  0
  6  7  1  0
  6  5  1  0
  7  8  2  0
  8  4  1  0
  9 10  2  0
  9  2  1  0
 11  9  1  0
 12 16  1  0
 12 11  1  0
 12 13  1  1
 14 13  1  0
 14 15  2  0
 16 22  1  0
 17 16  2  0
 18 14  1  0
 20 19  1  0
 21 20  1  6
 21 23  1  0
 22 21  1  0
 23 25  2  0
 23 24  1  0
M  END
$$$$
