HDS.pdb
     RDKit          3D

 25 25  0  0  1  0  0  0  0  0999 V2000
   20.6522  -11.0591  -16.0473 N   0  0  0  0  0  0  0  0  0  0  0  0
   19.9589   -9.9061  -16.5307 C   0  0  1  0  0  0  0  0  0  0  0  0
   18.5177  -10.2573  -16.8253 C   0  0  0  0  0  0  0  0  0  0  0  0
   18.5271  -11.2638  -17.9302 C   0  0  0  0  0  0  0  0  0  0  0  0
   18.6065  -11.0548  -19.2909 C   0  0  0  0  0  0  0  0  0  0  0  0
   18.5835  -12.2256  -19.9128 N   0  0  0  0  0  0  0  0  0  0  0  0
   18.4912  -13.2040  -19.0013 C   0  0  0  0  0  0  0  0  0  0  0  0
   18.4571  -12.6185  -17.8002 N   0  0  0  0  0  0  0  0  0  0  0  0
   20.0702   -8.7684  -15.5872 C   0  0  0  0  0  0  0  0  0  0  0  0
   19.4372   -8.8413  -14.5036 O   0  0  0  0  0  0  0  0  0  0  0  0
   20.8422   -7.6175  -15.8378 N   0  0  0  0  0  0  0  0  0  0  0  0
   20.9247   -6.4831  -14.9605 C   0  0  1  0  0  0  0  0  0  0  0  0
   22.3374   -6.0242  -14.7694 C   0  0  0  0  0  0  0  0  0  0  0  0
   22.4800   -4.8912  -13.8280 C   0  0  0  0  0  0  0  0  0  0  0  0
   22.9466   -3.7673  -14.1312 O   0  0  0  0  0  0  0  0  0  0  0  0
   20.1359   -5.3247  -15.4543 C   0  0  0  0  0  0  0  0  0  0  0  0
   20.3881   -4.9134  -16.6162 O   0  0  0  0  0  0  0  0  0  0  0  0
   22.0696   -5.0839  -12.5183 O   0  0  0  0  0  0  0  0  0  0  0  0
   16.1401   -2.5805  -15.0034 O   0  0  0  0  0  0  0  0  0  0  0  0
   17.0252   -3.4611  -14.3863 C   0  0  0  0  0  0  0  0  0  0  0  0
   18.2648   -3.6506  -15.2322 C   0  0  2  0  0  0  0  0  0  0  0  0
   19.1327   -4.6770  -14.6883 N   0  0  0  0  0  0  0  0  0  0  0  0
   18.9967   -2.3730  -15.2666 C   0  0  0  0  0  0  0  0  0  0  0  0
   18.8259   -1.4886  -16.3065 O   0  0  0  0  0  0  0  0  0  0  0  0
   19.7830   -2.0921  -14.3360 O   0  0  0  0  0  0  0  0  0  0  0  0
  2  1  1  1
  3  2  1  0
  4  3  1  0
  5  4  2  0
  6  7  1  0
  6  5  1  0
  7  8  2  0
  8  4  1  0
  9 10  2  0
  9  2  1  0
 11  9  1  0
 12 16  1  0
 12 11  1  0
 12 13  1  6
 14 13  1  0
 14 15  2  0
 16 22  1  0
 17 16  2  0
 18 14  1  0
 20 19  1  0
 21 20  1  1
 21 23  1  0
 22 21  1  0
 23 25  2  0
 23 24  1  0
M  END
$$$$
