HDS.pdb
     RDKit          3D

 25 25  0  0  1  0  0  0  0  0999 V2000
   18.8006  -12.7603  -18.5661 N   0  0  0  0  0  0  0  0  0  0  0  0
   19.7874  -12.2694  -17.6557 C   0  0  1  0  0  0  0  0  0  0  0  0
   21.0716  -13.0519  -17.8165 C   0  0  0  0  0  0  0  0  0  0  0  0
   20.7630  -14.4766  -17.4868 C   0  0  0  0  0  0  0  0  0  0  0  0
   20.4163  -15.0284  -16.2715 C   0  0  0  0  0  0  0  0  0  0  0  0
   20.2286  -16.3322  -16.4235 N   0  0  0  0  0  0  0  0  0  0  0  0
   20.4413  -16.6587  -17.7059 C   0  0  0  0  0  0  0  0  0  0  0  0
   20.7651  -15.5323  -18.3485 N   0  0  0  0  0  0  0  0  0  0  0  0
   20.0024  -10.8121  -17.8193 C   0  0  0  0  0  0  0  0  0  0  0  0
   20.1946  -10.3748  -18.9821 O   0  0  0  0  0  0  0  0  0  0  0  0
   20.0028   -9.8967  -16.7491 N   0  0  0  0  0  0  0  0  0  0  0  0
   20.1110   -8.4717  -16.8938 C   0  0  1  0  0  0  0  0  0  0  0  0
   18.7708   -7.8036  -16.8788 C   0  0  0  0  0  0  0  0  0  0  0  0
   18.8296   -6.3330  -17.0327 C   0  0  0  0  0  0  0  0  0  0  0  0
   19.4363   -5.7366  -17.9542 O   0  0  0  0  0  0  0  0  0  0  0  0
   20.9365   -7.8533  -15.8242 C   0  0  0  0  0  0  0  0  0  0  0  0
   20.4660   -7.8665  -14.6576 O   0  0  0  0  0  0  0  0  0  0  0  0
   18.1682   -5.5581  -16.0931 O   0  0  0  0  0  0  0  0  0  0  0  0
   22.6659   -3.6637  -15.4967 O   0  0  0  0  0  0  0  0  0  0  0  0
   22.2627   -4.8132  -16.1718 C   0  0  0  0  0  0  0  0  0  0  0  0
   22.6448   -6.0513  -15.3912 C   0  0  2  0  0  0  0  0  0  0  0  0
   22.2047   -7.2616  -16.0575 N   0  0  0  0  0  0  0  0  0  0  0  0
   22.0057   -5.9740  -14.0665 C   0  0  0  0  0  0  0  0  0  0  0  0
   22.6117   -5.3061  -13.0276 O   0  0  0  0  0  0  0  0  0  0  0  0
   20.8973   -6.5243  -13.8880 O   0  0  0  0  0  0  0  0  0  0  0  0
  2  1  1  6
  3  2  1  0
  4  3  1  0
  5  4  2  0
  6  7  1  0
  6  5  1  0
  7  8  2  0
  8  4  1  0
  9 10  2  0
  9  2  1  0
 11  9  1  0
 12 16  1  0
 12 11  1  0
 12 13  1  1
 14 13  1  0
 14 15  2  0
 16 22  1  0
 17 16  2  0
 18 14  1  0
 20 19  1  0
 21 20  1  6
 21 23  1  0
 22 21  1  0
 23 25  2  0
 23 24  1  0
M  END
$$$$
