HDS.pdb
     RDKit          3D

 25 25  0  0  1  0  0  0  0  0999 V2000
   24.5272  -14.8769  -19.5317 N   0  0  0  0  0  0  0  0  0  0  0  0
   23.4014  -14.5739  -18.7043 C   0  0  1  0  0  0  0  0  0  0  0  0
   22.4954  -13.5881  -19.4075 C   0  0  0  0  0  0  0  0  0  0  0  0
   23.2274  -12.2867  -19.4724 C   0  0  0  0  0  0  0  0  0  0  0  0
   22.8335  -11.0480  -19.0117 C   0  0  0  0  0  0  0  0  0  0  0  0
   23.7859  -10.1635  -19.2737 N   0  0  0  0  0  0  0  0  0  0  0  0
   24.7995  -10.7825  -19.8953 C   0  0  0  0  0  0  0  0  0  0  0  0
   24.4586  -12.0693  -20.0146 N   0  0  0  0  0  0  0  0  0  0  0  0
   22.6765  -15.8020  -18.3002 C   0  0  0  0  0  0  0  0  0  0  0  0
   22.1519  -16.4980  -19.2061 O   0  0  0  0  0  0  0  0  0  0  0  0
   22.5446  -16.2283  -16.9645 N   0  0  0  0  0  0  0  0  0  0  0  0
   21.9691  -17.4808  -16.5605 C   0  0  1  0  0  0  0  0  0  0  0  0
   22.6463  -18.0439  -15.3492 C   0  0  0  0  0  0  0  0  0  0  0  0
   23.3335  -19.3326  -15.5884 C   0  0  0  0  0  0  0  0  0  0  0  0
   23.3265  -19.9523  -16.6787 O   0  0  0  0  0  0  0  0  0  0  0  0
   20.5190  -17.3678  -16.2562 C   0  0  0  0  0  0  0  0  0  0  0  0
   20.1552  -16.3872  -15.5571 O   0  0  0  0  0  0  0  0  0  0  0  0
   24.0351  -19.8960  -14.5342 O   0  0  0  0  0  0  0  0  0  0  0  0
   15.9387  -18.6690  -17.2600 O   0  0  0  0  0  0  0  0  0  0  0  0
   17.2972  -18.8270  -17.5235 C   0  0  0  0  0  0  0  0  0  0  0  0
   18.1289  -18.1408  -16.4626 C   0  0  2  0  0  0  0  0  0  0  0  0
   19.5489  -18.2979  -16.7106 N   0  0  0  0  0  0  0  0  0  0  0  0
   17.8002  -18.7444  -15.1601 C   0  0  0  0  0  0  0  0  0  0  0  0
   16.7780  -18.2437  -14.3872 O   0  0  0  0  0  0  0  0  0  0  0  0
   18.4615  -19.7250  -14.7548 O   0  0  0  0  0  0  0  0  0  0  0  0
  2  1  1  6
  3  2  1  0
  4  3  1  0
  5  4  2  0
  6  7  1  0
  6  5  1  0
  7  8  2  0
  8  4  1  0
  9 10  2  0
  9  2  1  0
 11  9  1  0
 12 16  1  0
 12 11  1  0
 12 13  1  1
 14 13  1  0
 14 15  2  0
 16 22  1  0
 17 16  2  0
 18 14  1  0
 20 19  1  0
 21 20  1  6
 21 23  1  0
 22 21  1  0
 23 25  2  0
 23 24  1  0
M  END
$$$$
