HDS.pdb
     RDKit          3D

 25 25  0  0  1  0  0  0  0  0999 V2000
   17.6648   -7.2446  -17.5769 N   0  0  0  0  0  0  0  0  0  0  0  0
   17.7559   -6.4374  -16.4005 C   0  0  1  0  0  0  0  0  0  0  0  0
   17.3494   -5.0158  -16.7183 C   0  0  0  0  0  0  0  0  0  0  0  0
   18.3758   -4.4633  -17.6536 C   0  0  0  0  0  0  0  0  0  0  0  0
   18.2275   -4.0690  -18.9667 C   0  0  0  0  0  0  0  0  0  0  0  0
   19.3946   -3.6386  -19.4260 N   0  0  0  0  0  0  0  0  0  0  0  0
   20.3114   -3.7371  -18.4531 C   0  0  0  0  0  0  0  0  0  0  0  0
   19.6915   -4.2372  -17.3797 N   0  0  0  0  0  0  0  0  0  0  0  0
   16.9595   -7.0058  -15.2871 C   0  0  0  0  0  0  0  0  0  0  0  0
   15.7107   -6.8677  -15.3294 O   0  0  0  0  0  0  0  0  0  0  0  0
   17.5229   -7.6879  -14.1914 N   0  0  0  0  0  0  0  0  0  0  0  0
   16.7776   -8.1854  -13.0688 C   0  0  1  0  0  0  0  0  0  0  0  0
   17.2914   -9.5110  -12.5982 C   0  0  0  0  0  0  0  0  0  0  0  0
   16.4892  -10.1163  -11.5118 C   0  0  0  0  0  0  0  0  0  0  0  0
   15.3854   -9.6760  -11.1109 O   0  0  0  0  0  0  0  0  0  0  0  0
   16.8039   -7.2536  -11.9116 C   0  0  0  0  0  0  0  0  0  0  0  0
   17.8927   -6.6717  -11.6694 O   0  0  0  0  0  0  0  0  0  0  0  0
   16.9915  -11.2498  -10.8923 O   0  0  0  0  0  0  0  0  0  0  0  0
   14.2580   -4.2948   -9.0502 O   0  0  0  0  0  0  0  0  0  0  0  0
   14.2561   -5.3475   -9.9621 C   0  0  0  0  0  0  0  0  0  0  0  0
   15.6451   -5.9289  -10.1075 C   0  0  2  0  0  0  0  0  0  0  0  0
   15.6785   -6.9978  -11.0866 N   0  0  0  0  0  0  0  0  0  0  0  0
   16.0576   -6.4643   -8.7990 C   0  0  0  0  0  0  0  0  0  0  0  0
   16.4624   -5.6241   -7.7876 O   0  0  0  0  0  0  0  0  0  0  0  0
   16.0384   -7.6999   -8.6090 O   0  0  0  0  0  0  0  0  0  0  0  0
  2  1  1  6
  3  2  1  0
  4  3  1  0
  5  4  2  0
  6  7  1  0
  6  5  1  0
  7  8  2  0
  8  4  1  0
  9 10  2  0
  9  2  1  0
 11  9  1  0
 12 16  1  0
 12 11  1  0
 12 13  1  1
 14 13  1  0
 14 15  2  0
 16 22  1  0
 17 16  2  0
 18 14  1  0
 20 19  1  0
 21 20  1  1
 21 23  1  0
 22 21  1  0
 23 25  2  0
 23 24  1  0
M  END
$$$$
