HDS.pdb
     RDKit          3D

 25 25  0  0  1  0  0  0  0  0999 V2000
   16.2283  -16.0517    5.8321 N   0  0  0  0  0  0  0  0  0  0  0  0
   17.5473  -16.5864    5.6979 C   0  0  1  0  0  0  0  0  0  0  0  0
   18.5293  -15.4711    5.4163 C   0  0  0  0  0  0  0  0  0  0  0  0
   18.2155  -14.9422    4.0541 C   0  0  0  0  0  0  0  0  0  0  0  0
   18.3936  -15.5480    2.8281 C   0  0  0  0  0  0  0  0  0  0  0  0
   17.9815  -14.7258    1.8729 N   0  0  0  0  0  0  0  0  0  0  0  0
   17.5356  -13.5925    2.4327 C   0  0  0  0  0  0  0  0  0  0  0  0
   17.6785  -13.7260    3.7549 N   0  0  0  0  0  0  0  0  0  0  0  0
   17.9367  -17.3803    6.8874 C   0  0  0  0  0  0  0  0  0  0  0  0
   17.7744  -16.8583    8.0194 O   0  0  0  0  0  0  0  0  0  0  0  0
   18.4752  -18.6797    6.8181 N   0  0  0  0  0  0  0  0  0  0  0  0
   19.1016  -19.3633    7.9152 C   0  0  1  0  0  0  0  0  0  0  0  0
   19.2796  -20.8240    7.6371 C   0  0  0  0  0  0  0  0  0  0  0  0
   19.3715  -21.6615    8.8537 C   0  0  0  0  0  0  0  0  0  0  0  0
   19.1172  -22.8890    8.8948 O   0  0  0  0  0  0  0  0  0  0  0  0
   20.4359  -18.8004    8.2477 C   0  0  0  0  0  0  0  0  0  0  0  0
   21.1224  -18.3520    7.2936 O   0  0  0  0  0  0  0  0  0  0  0  0
   19.7663  -21.0480   10.0321 O   0  0  0  0  0  0  0  0  0  0  0  0
   23.0665  -15.8161   10.2185 O   0  0  0  0  0  0  0  0  0  0  0  0
   21.8988  -16.5114    9.9140 C   0  0  0  0  0  0  0  0  0  0  0  0
   22.1516  -18.0028    9.9129 C   0  0  2  0  0  0  0  0  0  0  0  0
   20.9573  -18.7482    9.5662 N   0  0  0  0  0  0  0  0  0  0  0  0
   22.5862  -18.3955   11.2642 C   0  0  0  0  0  0  0  0  0  0  0  0
   21.6681  -18.6241   12.2631 O   0  0  0  0  0  0  0  0  0  0  0  0
   23.8070  -18.5217   11.5027 O   0  0  0  0  0  0  0  0  0  0  0  0
  2  1  1  1
  3  2  1  0
  4  3  1  0
  5  4  2  0
  6  7  1  0
  6  5  1  0
  7  8  2  0
  8  4  1  0
  9 10  2  0
  9  2  1  0
 11  9  1  0
 12 16  1  0
 12 11  1  0
 12 13  1  6
 14 13  1  0
 14 15  2  0
 16 22  1  0
 17 16  2  0
 18 14  1  0
 20 19  1  0
 21 20  1  1
 21 23  1  0
 22 21  1  0
 23 25  2  0
 23 24  1  0
M  END
$$$$
