HDS.pdb
     RDKit          3D

 25 25  0  0  1  0  0  0  0  0999 V2000
   27.8736  -23.6088  -17.6240 N   0  0  0  0  0  0  0  0  0  0  0  0
   26.6417  -24.0693  -17.0637 C   0  0  1  0  0  0  0  0  0  0  0  0
   26.9078  -24.8097  -15.7721 C   0  0  0  0  0  0  0  0  0  0  0  0
   27.0873  -26.2519  -16.1207 C   0  0  0  0  0  0  0  0  0  0  0  0
   28.2411  -27.0072  -16.1135 C   0  0  0  0  0  0  0  0  0  0  0  0
   27.9530  -28.2449  -16.4918 N   0  0  0  0  0  0  0  0  0  0  0  0
   26.6403  -28.3299  -16.7491 C   0  0  0  0  0  0  0  0  0  0  0  0
   26.1176  -27.1206  -16.5234 N   0  0  0  0  0  0  0  0  0  0  0  0
   25.6792  -22.9577  -16.8770 C   0  0  0  0  0  0  0  0  0  0  0  0
   26.1248  -21.8613  -16.4530 O   0  0  0  0  0  0  0  0  0  0  0  0
   24.3011  -23.0629  -17.1472 N   0  0  0  0  0  0  0  0  0  0  0  0
   23.3591  -21.9864  -17.0167 C   0  0  1  0  0  0  0  0  0  0  0  0
   22.4512  -21.8892  -18.2037 C   0  0  0  0  0  0  0  0  0  0  0  0
   22.9853  -21.0552  -19.3033 C   0  0  0  0  0  0  0  0  0  0  0  0
   22.6827  -21.1917  -20.5127 O   0  0  0  0  0  0  0  0  0  0  0  0
   22.5080  -22.1201  -15.8060 C   0  0  0  0  0  0  0  0  0  0  0  0
   22.0085  -23.2523  -15.5792 O   0  0  0  0  0  0  0  0  0  0  0  0
   23.8835  -20.0519  -18.9755 O   0  0  0  0  0  0  0  0  0  0  0  0
   20.6012  -20.1280  -11.7634 O   0  0  0  0  0  0  0  0  0  0  0  0
   21.4102  -19.9552  -12.8839 C   0  0  0  0  0  0  0  0  0  0  0  0
   21.3468  -21.1724  -13.7796 C   0  0  2  0  0  0  0  0  0  0  0  0
   22.2405  -21.0492  -14.9148 N   0  0  0  0  0  0  0  0  0  0  0  0
   19.9650  -21.3097  -14.2703 C   0  0  0  0  0  0  0  0  0  0  0  0
   19.0998  -22.2154  -13.7011 O   0  0  0  0  0  0  0  0  0  0  0  0
   19.5768  -20.5915  -15.2172 O   0  0  0  0  0  0  0  0  0  0  0  0
  2  1  1  1
  3  2  1  0
  4  3  1  0
  5  4  2  0
  6  7  1  0
  6  5  1  0
  7  8  2  0
  8  4  1  0
  9 10  2  0
  9  2  1  0
 11  9  1  0
 12 16  1  0
 12 11  1  0
 12 13  1  6
 14 13  1  0
 14 15  2  0
 16 22  1  0
 17 16  2  0
 18 14  1  0
 20 19  1  0
 21 20  1  1
 21 23  1  0
 22 21  1  0
 23 25  2  0
 23 24  1  0
M  END
$$$$
