HDS.pdb
     RDKit          3D

 25 25  0  0  1  0  0  0  0  0999 V2000
   16.9864  -27.4568   -2.8033 N   0  0  0  0  0  0  0  0  0  0  0  0
   16.6903  -27.9310   -1.4876 C   0  0  1  0  0  0  0  0  0  0  0  0
   17.4546  -29.2074   -1.2157 C   0  0  0  0  0  0  0  0  0  0  0  0
   16.9840  -30.2218   -2.2073 C   0  0  0  0  0  0  0  0  0  0  0  0
   17.6193  -30.6840   -3.3406 C   0  0  0  0  0  0  0  0  0  0  0  0
   16.8477  -31.5833   -3.9355 N   0  0  0  0  0  0  0  0  0  0  0  0
   15.7191  -31.7292   -3.2273 C   0  0  0  0  0  0  0  0  0  0  0  0
   15.8040  -30.9029   -2.1802 N   0  0  0  0  0  0  0  0  0  0  0  0
   16.9588  -26.8951   -0.4621 C   0  0  0  0  0  0  0  0  0  0  0  0
   18.0114  -26.2172   -0.5752 O   0  0  0  0  0  0  0  0  0  0  0  0
   16.1037  -26.6311    0.6252 N   0  0  0  0  0  0  0  0  0  0  0  0
   16.3413  -25.6281    1.6258 C   0  0  1  0  0  0  0  0  0  0  0  0
   15.0883  -24.8944    1.9923 C   0  0  0  0  0  0  0  0  0  0  0  0
   15.2805  -23.8553    3.0284 C   0  0  0  0  0  0  0  0  0  0  0  0
   15.8354  -24.0480    4.1365 O   0  0  0  0  0  0  0  0  0  0  0  0
   16.9146  -26.1955    2.8738 C   0  0  0  0  0  0  0  0  0  0  0  0
   16.2204  -27.0462    3.4879 O   0  0  0  0  0  0  0  0  0  0  0  0
   14.8151  -22.5784    2.7568 O   0  0  0  0  0  0  0  0  0  0  0  0
   20.4893  -24.7814    4.4076 O   0  0  0  0  0  0  0  0  0  0  0  0
   20.2106  -26.1046    4.7413 C   0  0  0  0  0  0  0  0  0  0  0  0
   18.7301  -26.3863    4.6117 C   0  0  2  0  0  0  0  0  0  0  0  0
   18.1833  -25.8269    3.3908 N   0  0  0  0  0  0  0  0  0  0  0  0
   18.0448  -25.7799    5.7657 C   0  0  0  0  0  0  0  0  0  0  0  0
   18.2186  -26.2822    7.0346 O   0  0  0  0  0  0  0  0  0  0  0  0
   17.2958  -24.7951    5.5853 O   0  0  0  0  0  0  0  0  0  0  0  0
  2  1  1  6
  3  2  1  0
  4  3  1  0
  5  4  2  0
  6  7  1  0
  6  5  1  0
  7  8  2  0
  8  4  1  0
  9 10  2  0
  9  2  1  0
 11  9  1  0
 12 16  1  0
 12 11  1  0
 12 13  1  1
 14 13  1  0
 14 15  2  0
 16 22  1  0
 17 16  2  0
 18 14  1  0
 20 19  1  0
 21 20  1  1
 21 23  1  0
 22 21  1  0
 23 25  2  0
 23 24  1  0
M  END
$$$$
