HDS.pdb
     RDKit          3D

 25 25  0  0  1  0  0  0  0  0999 V2000
   17.1644  -12.0032  -17.1072 N   0  0  0  0  0  0  0  0  0  0  0  0
   18.1599  -11.4704  -16.2304 C   0  0  1  0  0  0  0  0  0  0  0  0
   19.4647  -12.2108  -16.4217 C   0  0  0  0  0  0  0  0  0  0  0  0
   19.2243  -13.6337  -16.0327 C   0  0  0  0  0  0  0  0  0  0  0  0
   19.4316  -14.7798  -16.7710 C   0  0  0  0  0  0  0  0  0  0  0  0
   19.0863  -15.8337  -16.0443 N   0  0  0  0  0  0  0  0  0  0  0  0
   18.6562  -15.4169  -14.8451 C   0  0  0  0  0  0  0  0  0  0  0  0
   18.7407  -14.0830  -14.8405 N   0  0  0  0  0  0  0  0  0  0  0  0
   18.3204  -10.0083  -16.4133 C   0  0  0  0  0  0  0  0  0  0  0  0
   18.4177   -9.5717  -17.5880 O   0  0  0  0  0  0  0  0  0  0  0  0
   18.3694   -9.0879  -15.3485 N   0  0  0  0  0  0  0  0  0  0  0  0
   18.5633   -7.6728  -15.5011 C   0  0  1  0  0  0  0  0  0  0  0  0
   17.4579   -6.8844  -14.8694 C   0  0  0  0  0  0  0  0  0  0  0  0
   17.5935   -5.4199  -15.0332 C   0  0  0  0  0  0  0  0  0  0  0  0
   17.9638   -4.8521  -16.0883 O   0  0  0  0  0  0  0  0  0  0  0  0
   19.8450   -7.2082  -14.9101 C   0  0  0  0  0  0  0  0  0  0  0  0
   20.1314   -7.6296  -13.7598 O   0  0  0  0  0  0  0  0  0  0  0  0
   17.2903   -4.6173  -13.9447 O   0  0  0  0  0  0  0  0  0  0  0  0
   24.0683   -4.7880  -15.4480 O   0  0  0  0  0  0  0  0  0  0  0  0
   22.8281   -5.1147  -15.9911 C   0  0  0  0  0  0  0  0  0  0  0  0
   22.0149   -5.9299  -15.0100 C   0  0  2  0  0  0  0  0  0  0  0  0
   20.7398   -6.3292  -15.5730 N   0  0  0  0  0  0  0  0  0  0  0  0
   21.7735   -5.1029  -13.8155 C   0  0  0  0  0  0  0  0  0  0  0  0
   22.5267   -5.2702  -12.6764 O   0  0  0  0  0  0  0  0  0  0  0  0
   20.8708   -4.2383  -13.8411 O   0  0  0  0  0  0  0  0  0  0  0  0
  2  1  1  6
  3  2  1  0
  4  3  1  0
  5  4  2  0
  6  7  1  0
  6  5  1  0
  7  8  2  0
  8  4  1  0
  9 10  2  0
  9  2  1  0
 11  9  1  0
 12 16  1  0
 12 11  1  0
 12 13  1  1
 14 13  1  0
 14 15  2  0
 16 22  1  0
 17 16  2  0
 18 14  1  0
 20 19  1  0
 21 20  1  6
 21 23  1  0
 22 21  1  0
 23 25  2  0
 23 24  1  0
M  END
$$$$
