HDS.pdb
     RDKit          3D

 25 25  0  0  1  0  0  0  0  0999 V2000
   19.5926  -10.1982  -14.9332 N   0  0  0  0  0  0  0  0  0  0  0  0
   18.4644   -9.3769  -14.6225 C   0  0  1  0  0  0  0  0  0  0  0  0
   17.1971  -10.2004  -14.6767 C   0  0  0  0  0  0  0  0  0  0  0  0
   16.8811  -10.4271  -16.1198 C   0  0  0  0  0  0  0  0  0  0  0  0
   17.0175  -11.5793  -16.8652 C   0  0  0  0  0  0  0  0  0  0  0  0
   16.6204  -11.3427  -18.1080 N   0  0  0  0  0  0  0  0  0  0  0  0
   16.2250  -10.0657  -18.2059 C   0  0  0  0  0  0  0  0  0  0  0  0
   16.3839   -9.5127  -16.9995 N   0  0  0  0  0  0  0  0  0  0  0  0
   18.6287   -8.6981  -13.3151 C   0  0  0  0  0  0  0  0  0  0  0  0
   18.6259   -9.4112  -12.2798 O   0  0  0  0  0  0  0  0  0  0  0  0
   18.7866   -7.3062  -13.1713 N   0  0  0  0  0  0  0  0  0  0  0  0
   18.9751   -6.6313  -11.9173 C   0  0  1  0  0  0  0  0  0  0  0  0
   19.8169   -5.4014  -12.0639 C   0  0  0  0  0  0  0  0  0  0  0  0
   21.2386   -5.6778  -12.3676 C   0  0  0  0  0  0  0  0  0  0  0  0
   21.8781   -6.6697  -11.9435 O   0  0  0  0  0  0  0  0  0  0  0  0
   17.6897   -6.2275  -11.2908 C   0  0  0  0  0  0  0  0  0  0  0  0
   16.8058   -5.7544  -12.0507 O   0  0  0  0  0  0  0  0  0  0  0  0
   21.9129   -4.7779  -13.1779 O   0  0  0  0  0  0  0  0  0  0  0  0
   14.8002   -6.2782   -7.3359 O   0  0  0  0  0  0  0  0  0  0  0  0
   16.0590   -6.5350   -7.8737 C   0  0  0  0  0  0  0  0  0  0  0  0
   16.1093   -6.1283   -9.3298 C   0  0  2  0  0  0  0  0  0  0  0  0
   17.4227   -6.3501   -9.9028 N   0  0  0  0  0  0  0  0  0  0  0  0
   15.7842   -4.6945   -9.4173 C   0  0  0  0  0  0  0  0  0  0  0  0
   14.4783   -4.2700   -9.5022 O   0  0  0  0  0  0  0  0  0  0  0  0
   16.7106   -3.8549   -9.4140 O   0  0  0  0  0  0  0  0  0  0  0  0
  2  1  1  1
  3  2  1  0
  4  3  1  0
  5  4  2  0
  6  7  1  0
  6  5  1  0
  7  8  2  0
  8  4  1  0
  9 10  2  0
  9  2  1  0
 11  9  1  0
 12 16  1  0
 12 11  1  0
 12 13  1  6
 14 13  1  0
 14 15  2  0
 16 22  1  0
 17 16  2  0
 18 14  1  0
 20 19  1  0
 21 20  1  1
 21 23  1  0
 22 21  1  0
 23 25  2  0
 23 24  1  0
M  END
$$$$
