HDS.pdb
     RDKit          3D

 25 25  0  0  1  0  0  0  0  0999 V2000
   17.7512  -11.0287  -17.2837 N   0  0  0  0  0  0  0  0  0  0  0  0
   18.9502  -10.5416  -16.6762 C   0  0  1  0  0  0  0  0  0  0  0  0
   20.0420  -10.4201  -17.7157 C   0  0  0  0  0  0  0  0  0  0  0  0
   20.3644  -11.8040  -18.1790 C   0  0  0  0  0  0  0  0  0  0  0  0
   21.3765  -12.6427  -17.7621 C   0  0  0  0  0  0  0  0  0  0  0  0
   21.3015  -13.7828  -18.4348 N   0  0  0  0  0  0  0  0  0  0  0  0
   20.2675  -13.7221  -19.2856 C   0  0  0  0  0  0  0  0  0  0  0  0
   19.7010  -12.5217  -19.1288 N   0  0  0  0  0  0  0  0  0  0  0  0
   18.7189   -9.2628  -15.9635 C   0  0  0  0  0  0  0  0  0  0  0  0
   18.2991   -8.2857  -16.6338 O   0  0  0  0  0  0  0  0  0  0  0  0
   18.9425   -9.0846  -14.5846 N   0  0  0  0  0  0  0  0  0  0  0  0
   18.7640   -7.8444  -13.8822 C   0  0  1  0  0  0  0  0  0  0  0  0
   18.4785   -8.0600  -12.4280 C   0  0  0  0  0  0  0  0  0  0  0  0
   18.2089   -6.8141  -11.6763 C   0  0  0  0  0  0  0  0  0  0  0  0
   18.2111   -5.6646  -12.1779 O   0  0  0  0  0  0  0  0  0  0  0  0
   19.9525   -6.9583  -13.9832 C   0  0  0  0  0  0  0  0  0  0  0  0
   21.0345   -7.3956  -13.5135 O   0  0  0  0  0  0  0  0  0  0  0  0
   17.9345   -6.9230  -10.3222 O   0  0  0  0  0  0  0  0  0  0  0  0
   22.5023   -3.8083  -16.4018 O   0  0  0  0  0  0  0  0  0  0  0  0
   21.3501   -4.5730  -16.2363 C   0  0  0  0  0  0  0  0  0  0  0  0
   21.1079   -4.8615  -14.7713 C   0  0  2  0  0  0  0  0  0  0  0  0
   19.9198   -5.6687  -14.5736 N   0  0  0  0  0  0  0  0  0  0  0  0
   20.9358   -3.5763  -14.0729 C   0  0  0  0  0  0  0  0  0  0  0  0
   19.6833   -3.1169  -13.7369 O   0  0  0  0  0  0  0  0  0  0  0  0
   21.9444   -2.8966  -13.7832 O   0  0  0  0  0  0  0  0  0  0  0  0
  2  1  1  6
  3  2  1  0
  4  3  1  0
  5  4  2  0
  6  7  1  0
  6  5  1  0
  7  8  2  0
  8  4  1  0
  9 10  2  0
  9  2  1  0
 11  9  1  0
 12 16  1  0
 12 11  1  0
 12 13  1  1
 14 13  1  0
 14 15  2  0
 16 22  1  0
 17 16  2  0
 18 14  1  0
 20 19  1  0
 21 20  1  6
 21 23  1  0
 22 21  1  0
 23 25  2  0
 23 24  1  0
M  END
$$$$
