HDS.pdb
     RDKit          3D

 25 25  0  0  1  0  0  0  0  0999 V2000
   21.1666  -10.9568  -15.4994 N   0  0  0  0  0  0  0  0  0  0  0  0
   20.4967   -9.9911  -16.3133 C   0  0  1  0  0  0  0  0  0  0  0  0
   19.2268  -10.5861  -16.8794 C   0  0  0  0  0  0  0  0  0  0  0  0
   19.6290  -11.7241  -17.7608 C   0  0  0  0  0  0  0  0  0  0  0  0
   20.0582  -11.6945  -19.0710 C   0  0  0  0  0  0  0  0  0  0  0  0
   20.3122  -12.9321  -19.4735 N   0  0  0  0  0  0  0  0  0  0  0  0
   20.0631  -13.7802  -18.4659 C   0  0  0  0  0  0  0  0  0  0  0  0
   19.6491  -13.0457  -17.4288 N   0  0  0  0  0  0  0  0  0  0  0  0
   20.2365   -8.7369  -15.5674 C   0  0  0  0  0  0  0  0  0  0  0  0
   19.4868   -8.7987  -14.5602 O   0  0  0  0  0  0  0  0  0  0  0  0
   20.7805   -7.4879  -15.9240 N   0  0  0  0  0  0  0  0  0  0  0  0
   20.5103   -6.2544  -15.2393 C   0  0  1  0  0  0  0  0  0  0  0  0
   21.7679   -5.5715  -14.7978 C   0  0  0  0  0  0  0  0  0  0  0  0
   21.5393   -4.3315  -14.0231 C   0  0  0  0  0  0  0  0  0  0  0  0
   20.4114   -3.8371  -13.7860 O   0  0  0  0  0  0  0  0  0  0  0  0
   19.7453   -5.2952  -16.0775 C   0  0  0  0  0  0  0  0  0  0  0  0
   20.2379   -4.9910  -17.1944 O   0  0  0  0  0  0  0  0  0  0  0  0
   22.6489   -3.6683  -13.5233 O   0  0  0  0  0  0  0  0  0  0  0  0
   15.6978   -2.6230  -16.7588 O   0  0  0  0  0  0  0  0  0  0  0  0
   16.4081   -3.4828  -15.9246 C   0  0  0  0  0  0  0  0  0  0  0  0
   17.7615   -3.8043  -16.5187 C   0  0  2  0  0  0  0  0  0  0  0  0
   18.5103   -4.7206  -15.6808 N   0  0  0  0  0  0  0  0  0  0  0  0
   18.5167   -2.5465  -16.6475 C   0  0  0  0  0  0  0  0  0  0  0  0
   18.8539   -2.0483  -17.8848 O   0  0  0  0  0  0  0  0  0  0  0  0
   18.8540   -1.9260  -15.6158 O   0  0  0  0  0  0  0  0  0  0  0  0
  2  1  1  1
  3  2  1  0
  4  3  1  0
  5  4  2  0
  6  7  1  0
  6  5  1  0
  7  8  2  0
  8  4  1  0
  9 10  2  0
  9  2  1  0
 11  9  1  0
 12 16  1  0
 12 11  1  0
 12 13  1  6
 14 13  1  0
 14 15  2  0
 16 22  1  0
 17 16  2  0
 18 14  1  0
 20 19  1  0
 21 20  1  1
 21 23  1  0
 22 21  1  0
 23 25  2  0
 23 24  1  0
M  END
$$$$
