HDS.pdb
     RDKit          3D

 25 25  0  0  1  0  0  0  0  0999 V2000
   17.6437  -11.5217  -15.0050 N   0  0  0  0  0  0  0  0  0  0  0  0
   18.5179  -10.8599  -15.9224 C   0  0  1  0  0  0  0  0  0  0  0  0
   17.8734  -10.7893  -17.2888 C   0  0  0  0  0  0  0  0  0  0  0  0
   17.7500  -12.1919  -17.7900 C   0  0  0  0  0  0  0  0  0  0  0  0
   18.6946  -12.9705  -18.4250 C   0  0  0  0  0  0  0  0  0  0  0  0
   18.1678  -14.1559  -18.6998 N   0  0  0  0  0  0  0  0  0  0  0  0
   16.9005  -14.1835  -18.2642 C   0  0  0  0  0  0  0  0  0  0  0  0
   16.6495  -12.9919  -17.7130 N   0  0  0  0  0  0  0  0  0  0  0  0
   18.9144   -9.5204  -15.4269 C   0  0  0  0  0  0  0  0  0  0  0  0
   18.1505   -8.9482  -14.6088 O   0  0  0  0  0  0  0  0  0  0  0  0
   20.0934   -8.8586  -15.8207 N   0  0  0  0  0  0  0  0  0  0  0  0
   20.5013   -7.5657  -15.3457 C   0  0  1  0  0  0  0  0  0  0  0  0
   21.9890   -7.4632  -15.2077 C   0  0  0  0  0  0  0  0  0  0  0  0
   22.5635   -8.3748  -14.1933 C   0  0  0  0  0  0  0  0  0  0  0  0
   23.5725   -9.0973  -14.3745 O   0  0  0  0  0  0  0  0  0  0  0  0
   20.0531   -6.4654  -16.2381 C   0  0  0  0  0  0  0  0  0  0  0  0
   19.9543   -6.7269  -17.4647 O   0  0  0  0  0  0  0  0  0  0  0  0
   21.9444   -8.4357  -12.9548 O   0  0  0  0  0  0  0  0  0  0  0  0
   16.4703   -4.0512  -17.0192 O   0  0  0  0  0  0  0  0  0  0  0  0
   17.4016   -4.9366  -16.4820 C   0  0  0  0  0  0  0  0  0  0  0  0
   18.7742   -4.3024  -16.4350 C   0  0  2  0  0  0  0  0  0  0  0  0
   19.7387   -5.1614  -15.7761 N   0  0  0  0  0  0  0  0  0  0  0  0
   18.6699   -3.0374  -15.6880 C   0  0  0  0  0  0  0  0  0  0  0  0
   18.2468   -1.8841  -16.3073 O   0  0  0  0  0  0  0  0  0  0  0  0
   18.9709   -3.0158  -14.4748 O   0  0  0  0  0  0  0  0  0  0  0  0
  2  1  1  1
  3  2  1  0
  4  3  1  0
  5  4  2  0
  6  7  1  0
  6  5  1  0
  7  8  2  0
  8  4  1  0
  9 10  2  0
  9  2  1  0
 11  9  1  0
 12 16  1  0
 12 11  1  0
 12 13  1  6
 14 13  1  0
 14 15  2  0
 16 22  1  0
 17 16  2  0
 18 14  1  0
 20 19  1  0
 21 20  1  1
 21 23  1  0
 22 21  1  0
 23 25  2  0
 23 24  1  0
M  END
$$$$
