RHV.pdb
     RDKit          3D

 29 29  0  0  1  0  0  0  0  0999 V2000
   31.5267  -24.7925  -15.0410 N   0  0  0  0  0  0  0  0  0  0  0  0
   30.8555  -24.2472  -16.1668 C   0  0  0  0  0  0  0  0  0  0  0  0
   30.5221  -25.0296  -17.1260 N   0  0  0  0  0  0  0  0  0  0  0  0
   30.5712  -22.8608  -16.2062 N   0  0  0  0  0  0  0  0  0  0  0  0
   30.1331  -22.1513  -15.0552 C   0  0  0  0  0  0  0  0  0  0  0  0
   28.8327  -21.4512  -15.1160 C   0  0  0  0  0  0  0  0  0  0  0  0
   27.6065  -22.2759  -14.9848 C   0  0  0  0  0  0  0  0  0  0  0  0
   26.3108  -21.5170  -15.0335 C   0  0  2  0  0  0  0  0  0  0  0  0
   26.3438  -20.5655  -16.1453 N   0  0  0  0  0  0  0  0  0  0  0  0
   26.0959  -20.7679  -13.7468 C   0  0  0  0  0  0  0  0  0  0  0  0
   26.3290  -19.5389  -13.7254 O   0  0  0  0  0  0  0  0  0  0  0  0
   30.0654  -24.7699  -18.0044 N   0  0  0  0  0  0  0  0  0  0  0  0
   25.6327  -21.4822  -12.5901 C   0  0  1  0  0  0  0  0  0  0  0  0
   25.1832  -20.7766  -11.4078 C   0  0  0  0  0  0  0  0  0  0  0  0
   23.7222  -20.8437  -11.1708 C   0  0  0  0  0  0  0  0  0  0  0  0
   22.8795  -20.2817  -12.2373 C   0  0  0  0  0  0  0  0  0  0  0  0
   22.5147  -20.8147  -13.4441 N   0  0  0  0  0  0  0  0  0  0  0  0
   21.7381  -19.8952  -14.0632 C   0  0  0  0  0  0  0  0  0  0  0  0
   21.6337  -18.8327  -13.2556 N   0  0  0  0  0  0  0  0  0  0  0  0
   22.3281  -19.0499  -12.1278 C   0  0  0  0  0  0  0  0  0  0  0  0
   25.9305  -21.2479  -10.2022 O   0  0  0  0  0  0  0  0  0  0  0  0
   26.0488  -22.4825  -10.0214 C   0  0  0  0  0  0  0  0  0  0  0  0
   29.1720  -19.7942   -8.5999 C   0  0  2  0  0  0  0  0  0  0  0  0
   28.0689  -19.8869   -7.5756 C   0  0  0  0  0  0  0  0  0  0  0  0
   27.5228  -18.4866   -7.3570 C   0  0  2  0  0  0  0  0  0  0  0  0
   26.9279  -20.7486   -8.0122 N   0  0  0  0  0  0  0  0  0  0  0  0
   26.4780  -20.2896   -9.3088 C   0  0  0  0  0  0  0  0  0  0  0  0
   25.7892  -20.7945   -7.0957 O   0  0  0  0  0  0  0  0  0  0  0  0
   24.6601  -20.2902   -7.3386 O   0  0  0  0  0  0  0  0  0  0  0  0
  1  2  1  0
  2  3  2  0
  4  5  1  0
  4  2  1  0
  6  5  1  0
  7  6  1  0
  8 10  1  0
  8  7  1  0
  8  9  1  6
 10 11  2  0
 12 13  1  0
 12 10  1  0
 13 14  1  6
 14 15  1  0
 15 16  2  0
 16 17  1  0
 18 17  1  0
 19 15  1  0
 19 18  2  0
 20 13  1  0
 21 20  2  0
 23 22  1  1
 23 24  1  0
 23 25  1  0
 25 27  1  0
 25 26  1  1
 26 20  1  0
 27 29  1  0
 28 27  2  0
M  END
$$$$
