RHV.pdb
     RDKit          3D

 29 29  0  0  1  0  0  0  0  0999 V2000
   24.7030  -19.4581  -23.0809 N   0  0  0  0  0  0  0  0  0  0  0  0
   23.9412  -20.6335  -23.3121 C   0  0  0  0  0  0  0  0  0  0  0  0
   23.2031  -20.6954  -24.3584 N   0  0  0  0  0  0  0  0  0  0  0  0
   24.0119  -21.7044  -22.3887 N   0  0  0  0  0  0  0  0  0  0  0  0
   24.7008  -21.5844  -21.1513 C   0  0  0  0  0  0  0  0  0  0  0  0
   24.1240  -20.7082  -20.1098 C   0  0  0  0  0  0  0  0  0  0  0  0
   24.8645  -20.5907  -18.8297 C   0  0  0  0  0  0  0  0  0  0  0  0
   24.3402  -21.4337  -17.7019 C   0  0  2  0  0  0  0  0  0  0  0  0
   22.9915  -21.9002  -18.0273 N   0  0  0  0  0  0  0  0  0  0  0  0
   24.2936  -20.6327  -16.4295 C   0  0  0  0  0  0  0  0  0  0  0  0
   25.3539  -20.1199  -16.0076 O   0  0  0  0  0  0  0  0  0  0  0  0
   22.5986  -21.4710  -24.6427 N   0  0  0  0  0  0  0  0  0  0  0  0
   23.0412  -20.4822  -15.7427 C   0  0  1  0  0  0  0  0  0  0  0  0
   22.9493  -19.7148  -14.5179 C   0  0  0  0  0  0  0  0  0  0  0  0
   21.8005  -18.7807  -14.4631 C   0  0  0  0  0  0  0  0  0  0  0  0
   21.9447  -17.5498  -15.2553 C   0  0  0  0  0  0  0  0  0  0  0  0
   23.0062  -17.0950  -15.9900 N   0  0  0  0  0  0  0  0  0  0  0  0
   22.6380  -15.9059  -16.5214 C   0  0  0  0  0  0  0  0  0  0  0  0
   21.3875  -15.6449  -16.1209 N   0  0  0  0  0  0  0  0  0  0  0  0
   20.9430  -16.6430  -15.3417 C   0  0  0  0  0  0  0  0  0  0  0  0
   22.9412  -20.6234  -13.3312 O   0  0  0  0  0  0  0  0  0  0  0  0
   22.1509  -21.5962  -13.3329 C   0  0  0  0  0  0  0  0  0  0  0  0
   26.2509  -21.3887  -11.3368 C   0  0  2  0  0  0  0  0  0  0  0  0
   25.0847  -21.1873  -10.4019 C   0  0  0  0  0  0  0  0  0  0  0  0
   25.2293  -19.8126   -9.7725 C   0  0  2  0  0  0  0  0  0  0  0  0
   23.7596  -21.2253  -11.0933 N   0  0  0  0  0  0  0  0  0  0  0  0
   23.8221  -20.3575  -12.2497 C   0  0  0  0  0  0  0  0  0  0  0  0
   22.6109  -20.8491  -10.2701 O   0  0  0  0  0  0  0  0  0  0  0  0
   21.9956  -19.7536  -10.3663 O   0  0  0  0  0  0  0  0  0  0  0  0
  1  2  1  0
  2  3  2  0
  4  5  1  0
  4  2  1  0
  6  5  1  0
  7  6  1  0
  8 10  1  0
  8  7  1  0
  8  9  1  6
 10 11  2  0
 12 13  1  0
 12 10  1  0
 13 14  1  6
 14 15  1  0
 15 16  2  0
 16 17  1  0
 18 17  1  0
 19 15  1  0
 19 18  2  0
 20 13  1  0
 21 20  2  0
 23 22  1  1
 23 24  1  0
 23 25  1  0
 25 27  1  0
 25 26  1  1
 26 20  1  0
 27 29  1  0
 28 27  2  0
M  END
$$$$
