RHV.pdb
     RDKit          3D

 29 29  0  0  1  0  0  0  0  0999 V2000
   11.4053  -13.0980    7.2499 N   0  0  0  0  0  0  0  0  0  0  0  0
   11.4052  -12.8839    5.8465 C   0  0  0  0  0  0  0  0  0  0  0  0
   10.2820  -12.8079    5.2332 N   0  0  0  0  0  0  0  0  0  0  0  0
   12.6366  -12.7602    5.1589 N   0  0  0  0  0  0  0  0  0  0  0  0
   13.8833  -12.7872    5.8410 C   0  0  0  0  0  0  0  0  0  0  0  0
   15.1232  -12.7695    5.0365 C   0  0  0  0  0  0  0  0  0  0  0  0
   16.4128  -12.8086    5.7688 C   0  0  0  0  0  0  0  0  0  0  0  0
   17.6428  -12.8446    4.9069 C   0  0  2  0  0  0  0  0  0  0  0  0
   17.6335  -14.0616    4.0936 N   0  0  0  0  0  0  0  0  0  0  0  0
   18.8802  -12.8300    5.7622 C   0  0  0  0  0  0  0  0  0  0  0  0
   19.4434  -13.9180    6.0159 O   0  0  0  0  0  0  0  0  0  0  0  0
   10.1335  -12.6240    4.2374 N   0  0  0  0  0  0  0  0  0  0  0  0
   19.3738  -11.5756    6.2577 C   0  0  2  0  0  0  0  0  0  0  0  0
   20.6132  -11.5035    7.0036 C   0  0  0  0  0  0  0  0  0  0  0  0
   21.2517  -10.1665    7.0058 C   0  0  0  0  0  0  0  0  0  0  0  0
   22.5345  -10.0767    7.7201 C   0  0  0  0  0  0  0  0  0  0  0  0
   23.2130  -11.0272    8.4338 N   0  0  0  0  0  0  0  0  0  0  0  0
   24.3396  -10.4404    8.9012 C   0  0  0  0  0  0  0  0  0  0  0  0
   24.3457   -9.1685    8.4835 N   0  0  0  0  0  0  0  0  0  0  0  0
   23.2448   -8.9246    7.7558 C   0  0  0  0  0  0  0  0  0  0  0  0
   20.4100  -11.9881    8.4028 O   0  0  0  0  0  0  0  0  0  0  0  0
   19.4013  -11.5877    9.0298 C   0  0  0  0  0  0  0  0  0  0  0  0
   19.5502  -15.1212    9.3462 C   0  0  2  0  0  0  0  0  0  0  0  0
   20.7710  -14.8468   10.1883 C   0  0  0  0  0  0  0  0  0  0  0  0
   21.9539  -15.5283    9.5226 C   0  0  2  0  0  0  0  0  0  0  0  0
   21.0976  -13.3921   10.2992 N   0  0  0  0  0  0  0  0  0  0  0  0
   21.3582  -12.8792    8.9713 C   0  0  0  0  0  0  0  0  0  0  0  0
   22.2255  -13.0665   11.1712 O   0  0  0  0  0  0  0  0  0  0  0  0
   23.4285  -13.0376   10.7969 O   0  0  0  0  0  0  0  0  0  0  0  0
  1  2  1  0
  2  3  2  0
  4  5  1  0
  4  2  1  0
  6  5  1  0
  7  6  1  0
  8 10  1  0
  8  7  1  0
  8  9  1  1
 10 11  2  0
 12 13  1  0
 12 10  1  0
 13 14  1  6
 14 15  1  0
 15 16  2  0
 16 17  1  0
 18 17  1  0
 19 15  1  0
 19 18  2  0
 20 13  1  0
 21 20  2  0
 23 22  1  1
 23 24  1  0
 23 25  1  0
 25 27  1  0
 25 26  1  1
 26 20  1  0
 27 29  1  0
 28 27  2  0
M  END
$$$$
