RHV.pdb
     RDKit          3D

 29 29  0  0  1  0  0  0  0  0999 V2000
   26.2357  -20.5847   -8.5516 N   0  0  0  0  0  0  0  0  0  0  0  0
   25.0509  -21.0100   -9.2081 C   0  0  0  0  0  0  0  0  0  0  0  0
   24.0063  -21.2484   -8.5042 N   0  0  0  0  0  0  0  0  0  0  0  0
   25.0484  -21.1612  -10.6157 N   0  0  0  0  0  0  0  0  0  0  0  0
   26.1137  -20.6801  -11.4243 C   0  0  0  0  0  0  0  0  0  0  0  0
   25.9757  -20.7719  -12.8932 C   0  0  0  0  0  0  0  0  0  0  0  0
   25.6728  -22.1055  -13.4683 C   0  0  0  0  0  0  0  0  0  0  0  0
   25.6566  -22.1717  -14.9692 C   0  0  2  0  0  0  0  0  0  0  0  0
   26.8861  -21.5783  -15.4973 N   0  0  0  0  0  0  0  0  0  0  0  0
   24.4715  -21.4210  -15.5121 C   0  0  0  0  0  0  0  0  0  0  0  0
   24.6674  -20.3174  -16.0678 O   0  0  0  0  0  0  0  0  0  0  0  0
   23.1018  -21.5917   -8.8383 N   0  0  0  0  0  0  0  0  0  0  0  0
   23.1602  -21.9908  -15.3766 C   0  0  2  0  0  0  0  0  0  0  0  0
   22.0035  -21.3506  -15.9682 C   0  0  0  0  0  0  0  0  0  0  0  0
   20.9250  -22.2828  -16.3720 C   0  0  0  0  0  0  0  0  0  0  0  0
   19.7726  -21.6664  -17.0470 C   0  0  0  0  0  0  0  0  0  0  0  0
   18.4596  -21.6030  -16.6659 N   0  0  0  0  0  0  0  0  0  0  0  0
   17.7979  -20.9345  -17.6391 C   0  0  0  0  0  0  0  0  0  0  0  0
   18.6839  -20.6008  -18.5857 N   0  0  0  0  0  0  0  0  0  0  0  0
   19.9038  -21.0415  -18.2409 C   0  0  0  0  0  0  0  0  0  0  0  0
   21.4674  -20.2944  -15.0566 O   0  0  0  0  0  0  0  0  0  0  0  0
   21.5896  -20.4587  -13.8201 C   0  0  0  0  0  0  0  0  0  0  0  0
   19.7535  -16.5767  -16.5765 C   0  0  2  0  0  0  0  0  0  0  0  0
   20.5147  -16.8064  -15.2948 C   0  0  0  0  0  0  0  0  0  0  0  0
   20.0262  -15.7886  -14.2788 C   0  0  1  0  0  0  0  0  0  0  0  0
   20.2916  -18.1642  -14.7103 N   0  0  0  0  0  0  0  0  0  0  0  0
   20.8429  -19.1486  -15.6165 C   0  0  0  0  0  0  0  0  0  0  0  0
   18.8984  -18.5022  -14.4214 O   0  0  0  0  0  0  0  0  0  0  0  0
   18.1092  -19.0325  -15.2486 O   0  0  0  0  0  0  0  0  0  0  0  0
  1  2  1  0
  2  3  2  0
  4  5  1  0
  4  2  1  0
  6  5  1  0
  7  6  1  0
  8 10  1  0
  8  7  1  0
  8  9  1  6
 10 11  2  0
 12 13  1  0
 12 10  1  0
 13 14  1  1
 14 15  1  0
 15 16  2  0
 16 17  1  0
 18 17  1  0
 19 15  1  0
 19 18  2  0
 20 13  1  0
 21 20  2  0
 23 22  1  6
 23 24  1  0
 23 25  1  0
 25 27  1  0
 25 26  1  6
 26 20  1  0
 27 29  1  0
 28 27  2  0
M  END
$$$$
