RHV.pdb
     RDKit          3D

 29 29  0  0  1  0  0  0  0  0999 V2000
   30.2845  -27.8743  -16.8885 N   0  0  0  0  0  0  0  0  0  0  0  0
   28.9870  -28.4477  -16.9441 C   0  0  0  0  0  0  0  0  0  0  0  0
   28.8062  -29.6160  -16.4484 N   0  0  0  0  0  0  0  0  0  0  0  0
   27.9281  -27.7226  -17.5420 N   0  0  0  0  0  0  0  0  0  0  0  0
   28.1678  -26.6471  -18.4398 C   0  0  0  0  0  0  0  0  0  0  0  0
   28.4040  -25.3017  -17.8750 C   0  0  0  0  0  0  0  0  0  0  0  0
   27.7540  -24.9810  -16.5806 C   0  0  0  0  0  0  0  0  0  0  0  0
   26.4373  -24.2643  -16.6805 C   0  0  2  0  0  0  0  0  0  0  0  0
   26.2923  -23.6942  -18.0208 N   0  0  0  0  0  0  0  0  0  0  0  0
   26.3657  -23.1596  -15.6620 C   0  0  0  0  0  0  0  0  0  0  0  0
   26.6754  -23.4183  -14.4778 O   0  0  0  0  0  0  0  0  0  0  0  0
   27.9464  -30.1708  -16.4727 N   0  0  0  0  0  0  0  0  0  0  0  0
   25.9470  -21.8502  -16.0780 C   0  0  1  0  0  0  0  0  0  0  0  0
   25.8852  -20.7520  -15.1357 C   0  0  0  0  0  0  0  0  0  0  0  0
   25.7191  -19.4176  -15.7577 C   0  0  0  0  0  0  0  0  0  0  0  0
   26.8784  -18.9212  -16.5149 C   0  0  0  0  0  0  0  0  0  0  0  0
   28.1258  -19.4626  -16.6699 N   0  0  0  0  0  0  0  0  0  0  0  0
   28.8299  -18.6135  -17.4543 C   0  0  0  0  0  0  0  0  0  0  0  0
   28.0329  -17.5844  -17.7672 N   0  0  0  0  0  0  0  0  0  0  0  0
   26.8287  -17.7543  -17.1996 C   0  0  0  0  0  0  0  0  0  0  0  0
   24.8139  -20.9931  -14.1217 O   0  0  0  0  0  0  0  0  0  0  0  0
   23.7405  -21.5151  -14.5040 C   0  0  0  0  0  0  0  0  0  0  0  0
   25.8750  -21.5091  -10.2550 C   0  0  2  0  0  0  0  0  0  0  0  0
   24.5789  -20.7586  -10.4325 C   0  0  0  0  0  0  0  0  0  0  0  0
   24.8637  -19.2844  -10.2032 C   0  0  2  0  0  0  0  0  0  0  0  0
   24.0007  -20.8941  -11.8046 N   0  0  0  0  0  0  0  0  0  0  0  0
   25.0454  -20.6265  -12.7696 C   0  0  0  0  0  0  0  0  0  0  0  0
   22.8510  -20.0363  -12.0890 O   0  0  0  0  0  0  0  0  0  0  0  0
   22.9000  -18.9915  -12.7918 O   0  0  0  0  0  0  0  0  0  0  0  0
  1  2  1  0
  2  3  2  0
  4  5  1  0
  4  2  1  0
  6  5  1  0
  7  6  1  0
  8 10  1  0
  8  7  1  0
  8  9  1  6
 10 11  2  0
 12 13  1  0
 12 10  1  0
 13 14  1  1
 14 15  1  0
 15 16  2  0
 16 17  1  0
 18 17  1  0
 19 15  1  0
 19 18  2  0
 20 13  1  0
 21 20  2  0
 23 22  1  1
 23 24  1  0
 23 25  1  0
 25 27  1  0
 25 26  1  1
 26 20  1  0
 27 29  1  0
 28 27  2  0
M  END
$$$$
