RHV.pdb
     RDKit          3D

 29 29  0  0  1  0  0  0  0  0999 V2000
   23.4802  -19.9480  -10.5756 N   0  0  0  0  0  0  0  0  0  0  0  0
   24.3165  -20.7342   -9.7402 C   0  0  0  0  0  0  0  0  0  0  0  0
   23.9739  -20.9155   -8.5182 N   0  0  0  0  0  0  0  0  0  0  0  0
   25.5026  -21.2968  -10.2702 N   0  0  0  0  0  0  0  0  0  0  0  0
   25.8812  -21.1092  -11.6273 C   0  0  0  0  0  0  0  0  0  0  0  0
   26.6798  -19.9145  -11.9737 C   0  0  0  0  0  0  0  0  0  0  0  0
   26.8283  -19.5863  -13.4128 C   0  0  0  0  0  0  0  0  0  0  0  0
   26.4439  -20.6815  -14.3668 C   0  0  2  0  0  0  0  0  0  0  0  0
   27.5376  -20.9117  -15.3120 N   0  0  0  0  0  0  0  0  0  0  0  0
   25.2039  -20.2994  -15.1278 C   0  0  0  0  0  0  0  0  0  0  0  0
   25.2704  -19.3498  -15.9396 O   0  0  0  0  0  0  0  0  0  0  0  0
   24.4817  -21.4487   -7.8072 N   0  0  0  0  0  0  0  0  0  0  0  0
   23.9897  -21.0321  -14.9006 C   0  0  2  0  0  0  0  0  0  0  0  0
   22.7772  -20.7102  -15.6245 C   0  0  0  0  0  0  0  0  0  0  0  0
   22.3764  -21.7205  -16.6314 C   0  0  0  0  0  0  0  0  0  0  0  0
   21.2063  -21.3706  -17.4510 C   0  0  0  0  0  0  0  0  0  0  0  0
   20.4044  -20.2622  -17.4127 N   0  0  0  0  0  0  0  0  0  0  0  0
   19.4596  -20.4252  -18.3682 C   0  0  0  0  0  0  0  0  0  0  0  0
   19.6809  -21.6001  -18.9704 N   0  0  0  0  0  0  0  0  0  0  0  0
   20.7501  -22.1972  -18.4215 C   0  0  0  0  0  0  0  0  0  0  0  0
   21.6549  -20.4466  -14.6731 O   0  0  0  0  0  0  0  0  0  0  0  0
   21.5608  -21.1661  -13.6512 C   0  0  0  0  0  0  0  0  0  0  0  0
   20.9776  -16.9234  -13.5201 C   0  0  2  0  0  0  0  0  0  0  0  0
   19.6602  -17.5807  -13.8472 C   0  0  0  0  0  0  0  0  0  0  0  0
   19.2069  -17.0588  -15.1996 C   0  0  2  0  0  0  0  0  0  0  0  0
   19.7520  -19.0693  -13.9504 N   0  0  0  0  0  0  0  0  0  0  0  0
   20.7399  -19.3981  -14.9555 C   0  0  0  0  0  0  0  0  0  0  0  0
   18.4991  -19.7554  -14.2640 O   0  0  0  0  0  0  0  0  0  0  0  0
   18.2038  -20.2123  -15.4007 O   0  0  0  0  0  0  0  0  0  0  0  0
  1  2  1  0
  2  3  2  0
  4  5  1  0
  4  2  1  0
  6  5  1  0
  7  6  1  0
  8 10  1  0
  8  7  1  0
  8  9  1  6
 10 11  2  0
 12 13  1  0
 12 10  1  0
 13 14  1  6
 14 15  1  0
 15 16  2  0
 16 17  1  0
 18 17  1  0
 19 15  1  0
 19 18  2  0
 20 13  1  0
 21 20  2  0
 23 22  1  1
 23 24  1  0
 23 25  1  0
 25 27  1  0
 25 26  1  1
 26 20  1  0
 27 29  1  0
 28 27  2  0
M  END
$$$$
