RHV.pdb
     RDKit          3D

 29 29  0  0  1  0  0  0  0  0999 V2000
   28.8595  -17.1185  -19.8863 N   0  0  0  0  0  0  0  0  0  0  0  0
   27.9502  -16.0969  -19.5056 C   0  0  0  0  0  0  0  0  0  0  0  0
   27.7967  -15.0866  -20.2796 N   0  0  0  0  0  0  0  0  0  0  0  0
   27.2378  -16.2145  -18.2878 N   0  0  0  0  0  0  0  0  0  0  0  0
   27.3358  -17.3725  -17.4695 C   0  0  0  0  0  0  0  0  0  0  0  0
   26.8352  -18.6552  -18.0071 C   0  0  0  0  0  0  0  0  0  0  0  0
   26.7645  -19.8058  -17.0732 C   0  0  0  0  0  0  0  0  0  0  0  0
   28.0857  -20.2934  -16.5498 C   0  0  2  0  0  0  0  0  0  0  0  0
   28.6396  -21.2863  -17.4717 N   0  0  0  0  0  0  0  0  0  0  0  0
   27.9108  -20.9200  -15.1936 C   0  0  0  0  0  0  0  0  0  0  0  0
   27.1434  -21.9021  -15.0841 O   0  0  0  0  0  0  0  0  0  0  0  0
   27.2182  -14.2598  -20.1084 N   0  0  0  0  0  0  0  0  0  0  0  0
   28.6257  -20.3753  -14.0734 C   0  0  2  0  0  0  0  0  0  0  0  0
   28.3737  -20.8457  -12.7269 C   0  0  0  0  0  0  0  0  0  0  0  0
   29.5509  -20.7960  -11.8286 C   0  0  0  0  0  0  0  0  0  0  0  0
   30.5826  -21.8146  -12.0770 C   0  0  0  0  0  0  0  0  0  0  0  0
   30.6132  -22.8315  -12.9925 N   0  0  0  0  0  0  0  0  0  0  0  0
   31.7796  -23.4932  -12.8087 C   0  0  0  0  0  0  0  0  0  0  0  0
   32.4396  -22.8953  -11.8092 N   0  0  0  0  0  0  0  0  0  0  0  0
   31.7210  -21.8610  -11.3455 C   0  0  0  0  0  0  0  0  0  0  0  0
   27.2232  -20.1077  -12.1222 O   0  0  0  0  0  0  0  0  0  0  0  0
   27.2198  -18.8561  -12.1873 C   0  0  0  0  0  0  0  0  0  0  0  0
   24.0957  -20.0773  -13.2864 C   0  0  2  0  0  0  0  0  0  0  0  0
   23.8613  -20.3805  -11.8277 C   0  0  0  0  0  0  0  0  0  0  0  0
   23.5471  -21.8617  -11.7086 C   0  0  2  0  0  0  0  0  0  0  0  0
   25.0533  -20.1058  -10.9681 N   0  0  0  0  0  0  0  0  0  0  0  0
   26.1800  -20.8426  -11.4994 C   0  0  0  0  0  0  0  0  0  0  0  0
   24.8927  -20.4275   -9.5506 O   0  0  0  0  0  0  0  0  0  0  0  0
   25.5286  -21.3353   -8.9510 O   0  0  0  0  0  0  0  0  0  0  0  0
  1  2  1  0
  2  3  2  0
  4  5  1  0
  4  2  1  0
  6  5  1  0
  7  6  1  0
  8 10  1  0
  8  7  1  0
  8  9  1  6
 10 11  2  0
 12 13  1  0
 12 10  1  0
 13 14  1  6
 14 15  1  0
 15 16  2  0
 16 17  1  0
 18 17  1  0
 19 15  1  0
 19 18  2  0
 20 13  1  0
 21 20  2  0
 23 22  1  6
 23 24  1  0
 23 25  1  0
 25 27  1  0
 25 26  1  1
 26 20  1  0
 27 29  1  0
 28 27  2  0
M  END
$$$$
