RHV.pdb
     RDKit          3D

 29 29  0  0  1  0  0  0  0  0999 V2000
   28.3924  -27.8759  -18.5249 N   0  0  0  0  0  0  0  0  0  0  0  0
   29.2154  -27.6076  -17.3997 C   0  0  0  0  0  0  0  0  0  0  0  0
   30.4015  -28.0931  -17.3721 N   0  0  0  0  0  0  0  0  0  0  0  0
   28.7122  -26.8157  -16.3394 N   0  0  0  0  0  0  0  0  0  0  0  0
   27.3220  -26.5622  -16.1861 C   0  0  0  0  0  0  0  0  0  0  0  0
   26.6008  -25.9126  -17.3009 C   0  0  0  0  0  0  0  0  0  0  0  0
   25.5436  -24.9324  -16.9508 C   0  0  0  0  0  0  0  0  0  0  0  0
   26.0298  -23.5488  -16.6245 C   0  0  2  0  0  0  0  0  0  0  0  0
   27.3871  -23.6237  -16.0817 N   0  0  0  0  0  0  0  0  0  0  0  0
   25.1257  -22.9035  -15.6100 C   0  0  0  0  0  0  0  0  0  0  0  0
   23.8888  -22.9674  -15.7865 O   0  0  0  0  0  0  0  0  0  0  0  0
   31.1151  -27.9394  -16.6545 N   0  0  0  0  0  0  0  0  0  0  0  0
   25.7068  -22.2384  -14.4774 C   0  0  1  0  0  0  0  0  0  0  0  0
   24.8770  -21.7237  -13.4077 C   0  0  0  0  0  0  0  0  0  0  0  0
   25.6264  -21.2741  -12.2113 C   0  0  0  0  0  0  0  0  0  0  0  0
   24.8030  -20.8352  -11.0742 C   0  0  0  0  0  0  0  0  0  0  0  0
   24.1361  -19.6571  -10.8730 N   0  0  0  0  0  0  0  0  0  0  0  0
   23.5346  -19.7454   -9.6637 C   0  0  0  0  0  0  0  0  0  0  0  0
   23.8278  -20.9438   -9.1440 N   0  0  0  0  0  0  0  0  0  0  0  0
   24.6065  -21.6293   -9.9953 C   0  0  0  0  0  0  0  0  0  0  0  0
   23.9929  -20.6294  -13.9125 O   0  0  0  0  0  0  0  0  0  0  0  0
   24.5310  -19.5981  -14.3791 C   0  0  0  0  0  0  0  0  0  0  0  0
   22.0725  -20.3021  -16.6451 C   0  0  2  0  0  0  0  0  0  0  0  0
   21.0922  -20.0069  -15.5376 C   0  0  0  0  0  0  0  0  0  0  0  0
   20.2556  -21.2552  -15.3165 C   0  0  2  0  0  0  0  0  0  0  0  0
   21.7517  -19.6747  -14.2376 N   0  0  0  0  0  0  0  0  0  0  0  0
   22.5838  -20.7927  -13.8480 C   0  0  0  0  0  0  0  0  0  0  0  0
   20.8441  -19.3440  -13.1396 O   0  0  0  0  0  0  0  0  0  0  0  0
   20.6561  -20.0725  -12.1286 O   0  0  0  0  0  0  0  0  0  0  0  0
  1  2  1  0
  2  3  2  0
  4  5  1  0
  4  2  1  0
  6  5  1  0
  7  6  1  0
  8 10  1  0
  8  7  1  0
  8  9  1  1
 10 11  2  0
 12 13  1  0
 12 10  1  0
 13 14  1  6
 14 15  1  0
 15 16  2  0
 16 17  1  0
 18 17  1  0
 19 15  1  0
 19 18  2  0
 20 13  1  0
 21 20  2  0
 23 22  1  6
 23 24  1  0
 23 25  1  0
 25 27  1  0
 25 26  1  1
 26 20  1  0
 27 29  1  0
 28 27  2  0
M  END
$$$$
