RHV.pdb
     RDKit          3D

 29 29  0  0  1  0  0  0  0  0999 V2000
   30.1048  -19.7951  -20.2457 N   0  0  0  0  0  0  0  0  0  0  0  0
   28.9049  -19.7711  -21.0041 C   0  0  0  0  0  0  0  0  0  0  0  0
   28.9710  -19.5072  -22.2568 N   0  0  0  0  0  0  0  0  0  0  0  0
   27.6697  -20.0368  -20.3653 N   0  0  0  0  0  0  0  0  0  0  0  0
   27.5888  -20.3151  -18.9738 C   0  0  0  0  0  0  0  0  0  0  0  0
   28.3568  -21.4607  -18.4421 C   0  0  0  0  0  0  0  0  0  0  0  0
   28.2401  -21.7463  -16.9909 C   0  0  0  0  0  0  0  0  0  0  0  0
   26.8365  -21.8486  -16.4649 C   0  0  2  0  0  0  0  0  0  0  0  0
   25.8882  -21.6399  -17.5602 N   0  0  0  0  0  0  0  0  0  0  0  0
   26.6007  -20.8113  -15.4013 C   0  0  0  0  0  0  0  0  0  0  0  0
   26.8474  -19.6145  -15.6695 O   0  0  0  0  0  0  0  0  0  0  0  0
   28.1927  -19.4599  -22.9198 N   0  0  0  0  0  0  0  0  0  0  0  0
   26.1026  -21.2243  -14.1191 C   0  0  1  0  0  0  0  0  0  0  0  0
   25.7546  -20.2508  -13.1048 C   0  0  0  0  0  0  0  0  0  0  0  0
   24.5830  -19.4078  -13.4389 C   0  0  0  0  0  0  0  0  0  0  0  0
   23.3254  -20.1332  -13.6750 C   0  0  0  0  0  0  0  0  0  0  0  0
   23.0591  -21.4746  -13.6192 N   0  0  0  0  0  0  0  0  0  0  0  0
   21.7505  -21.6305  -13.9279 C   0  0  0  0  0  0  0  0  0  0  0  0
   21.2356  -20.4177  -14.1649 N   0  0  0  0  0  0  0  0  0  0  0  0
   22.1873  -19.4834  -14.0148 C   0  0  0  0  0  0  0  0  0  0  0  0
   25.5568  -20.9208  -11.7834 O   0  0  0  0  0  0  0  0  0  0  0  0
   25.1230  -22.0966  -11.7723 C   0  0  0  0  0  0  0  0  0  0  0  0
   28.2064  -20.3797   -9.0589 C   0  0  2  0  0  0  0  0  0  0  0  0
   26.8389  -20.4028   -8.4233 C   0  0  0  0  0  0  0  0  0  0  0  0
   26.4746  -18.9739   -8.0595 C   0  0  2  0  0  0  0  0  0  0  0  0
   25.7720  -20.9179   -9.3352 N   0  0  0  0  0  0  0  0  0  0  0  0
   25.8647  -20.2094  -10.5937 C   0  0  0  0  0  0  0  0  0  0  0  0
   24.4057  -20.8151   -8.8240 O   0  0  0  0  0  0  0  0  0  0  0  0
   23.5613  -19.9664   -9.2175 O   0  0  0  0  0  0  0  0  0  0  0  0
  1  2  1  0
  2  3  2  0
  4  5  1  0
  4  2  1  0
  6  5  1  0
  7  6  1  0
  8 10  1  0
  8  7  1  0
  8  9  1  6
 10 11  2  0
 12 13  1  0
 12 10  1  0
 13 14  1  1
 14 15  1  0
 15 16  2  0
 16 17  1  0
 18 17  1  0
 19 15  1  0
 19 18  2  0
 20 13  1  0
 21 20  2  0
 23 22  1  1
 23 24  1  0
 23 25  1  0
 25 27  1  0
 25 26  1  1
 26 20  1  0
 27 29  1  0
 28 27  2  0
M  END
$$$$
