RHV.pdb
     RDKit          3D

 29 29  0  0  1  0  0  0  0  0999 V2000
   20.6151  -15.2184  -19.1248 N   0  0  0  0  0  0  0  0  0  0  0  0
   20.8369  -14.4275  -17.9669 C   0  0  0  0  0  0  0  0  0  0  0  0
   19.9292  -13.5994  -17.6012 N   0  0  0  0  0  0  0  0  0  0  0  0
   22.0474  -14.5686  -17.2463 N   0  0  0  0  0  0  0  0  0  0  0  0
   23.0281  -15.5318  -17.6075 C   0  0  0  0  0  0  0  0  0  0  0  0
   22.6194  -16.9496  -17.6954 C   0  0  0  0  0  0  0  0  0  0  0  0
   23.1362  -17.8748  -16.6572 C   0  0  0  0  0  0  0  0  0  0  0  0
   24.5522  -18.3372  -16.8530 C   0  0  2  0  0  0  0  0  0  0  0  0
   24.6995  -18.9043  -18.1943 N   0  0  0  0  0  0  0  0  0  0  0  0
   24.9057  -19.3833  -15.8315 C   0  0  0  0  0  0  0  0  0  0  0  0
   24.0430  -20.2370  -15.5281 O   0  0  0  0  0  0  0  0  0  0  0  0
   19.9805  -12.9275  -16.8308 N   0  0  0  0  0  0  0  0  0  0  0  0
   26.2144  -19.3698  -15.2399 C   0  0  1  0  0  0  0  0  0  0  0  0
   26.6119  -20.3830  -14.2843 C   0  0  0  0  0  0  0  0  0  0  0  0
   28.0008  -20.8717  -14.4493 C   0  0  0  0  0  0  0  0  0  0  0  0
   28.2638  -21.6337  -15.6796 C   0  0  0  0  0  0  0  0  0  0  0  0
   27.4135  -21.9973  -16.6886 N   0  0  0  0  0  0  0  0  0  0  0  0
   28.1442  -22.6970  -17.5878 C   0  0  0  0  0  0  0  0  0  0  0  0
   29.4037  -22.7572  -17.1379 N   0  0  0  0  0  0  0  0  0  0  0  0
   29.4985  -22.1097  -15.9662 C   0  0  0  0  0  0  0  0  0  0  0  0
   26.3903  -19.8995  -12.8874 O   0  0  0  0  0  0  0  0  0  0  0  0
   26.6961  -18.7154  -12.6129 C   0  0  0  0  0  0  0  0  0  0  0  0
   23.1646  -20.1355  -11.2249 C   0  0  2  0  0  0  0  0  0  0  0  0
   24.1815  -20.6194  -10.2217 C   0  0  0  0  0  0  0  0  0  0  0  0
   24.0822  -22.1336  -10.1570 C   0  0  2  0  0  0  0  0  0  0  0  0
   25.5885  -20.2792  -10.5955 N   0  0  0  0  0  0  0  0  0  0  0  0
   25.8447  -20.7897  -11.9252 C   0  0  0  0  0  0  0  0  0  0  0  0
   26.6180  -20.7747   -9.6826 O   0  0  0  0  0  0  0  0  0  0  0  0
   27.4388  -21.6883   -9.9650 O   0  0  0  0  0  0  0  0  0  0  0  0
  1  2  1  0
  2  3  2  0
  4  5  1  0
  4  2  1  0
  6  5  1  0
  7  6  1  0
  8 10  1  0
  8  7  1  0
  8  9  1  6
 10 11  2  0
 12 13  1  0
 12 10  1  0
 13 14  1  6
 14 15  1  0
 15 16  2  0
 16 17  1  0
 18 17  1  0
 19 15  1  0
 19 18  2  0
 20 13  1  0
 21 20  2  0
 23 22  1  1
 23 24  1  0
 23 25  1  0
 25 27  1  0
 25 26  1  1
 26 20  1  0
 27 29  1  0
 28 27  2  0
M  END
$$$$
