RHV.pdb
     RDKit          3D

 29 29  0  0  1  0  0  0  0  0999 V2000
   24.0576  -19.5080  -18.5142 N   0  0  0  0  0  0  0  0  0  0  0  0
   23.9727  -18.6389  -17.3949 C   0  0  0  0  0  0  0  0  0  0  0  0
   22.8994  -18.6376  -16.6938 N   0  0  0  0  0  0  0  0  0  0  0  0
   25.0669  -17.7977  -17.0793 N   0  0  0  0  0  0  0  0  0  0  0  0
   26.3080  -17.8911  -17.7658 C   0  0  0  0  0  0  0  0  0  0  0  0
   27.3455  -18.7911  -17.2192 C   0  0  0  0  0  0  0  0  0  0  0  0
   27.6242  -18.7076  -15.7645 C   0  0  0  0  0  0  0  0  0  0  0  0
   28.1472  -19.9675  -15.1350 C   0  0  2  0  0  0  0  0  0  0  0  0
   28.4902  -20.9306  -16.1824 N   0  0  0  0  0  0  0  0  0  0  0  0
   27.1072  -20.5694  -14.2301 C   0  0  0  0  0  0  0  0  0  0  0  0
   26.3351  -21.4344  -14.7003 O   0  0  0  0  0  0  0  0  0  0  0  0
   22.7168  -18.0952  -15.8452 N   0  0  0  0  0  0  0  0  0  0  0  0
   27.0332  -20.1356  -12.8630 C   0  0  2  0  0  0  0  0  0  0  0  0
   26.1043  -20.7470  -11.9351 C   0  0  0  0  0  0  0  0  0  0  0  0
   26.4792  -20.6068  -10.5086 C   0  0  0  0  0  0  0  0  0  0  0  0
   27.8574  -20.9962  -10.1731 C   0  0  0  0  0  0  0  0  0  0  0  0
   28.8387  -21.5297  -10.9640 N   0  0  0  0  0  0  0  0  0  0  0  0
   29.9233  -21.7158  -10.1759 C   0  0  0  0  0  0  0  0  0  0  0  0
   29.6100  -21.3069   -8.9402 N   0  0  0  0  0  0  0  0  0  0  0  0
   28.3445  -20.8609   -8.9170 C   0  0  0  0  0  0  0  0  0  0  0  0
   24.7204  -20.2314  -12.1650 O   0  0  0  0  0  0  0  0  0  0  0  0
   24.5366  -18.9918  -12.1414 C   0  0  0  0  0  0  0  0  0  0  0  0
   22.8973  -21.1928  -15.1432 C   0  0  2  0  0  0  0  0  0  0  0  0
   21.9099  -21.3050  -14.0086 C   0  0  0  0  0  0  0  0  0  0  0  0
   21.7386  -22.7800  -13.6897 C   0  0  2  0  0  0  0  0  0  0  0  0
   22.3682  -20.6273  -12.7573 N   0  0  0  0  0  0  0  0  0  0  0  0
   23.6679  -21.1548  -12.4011 C   0  0  0  0  0  0  0  0  0  0  0  0
   21.4681  -20.7497  -11.6112 O   0  0  0  0  0  0  0  0  0  0  0  0
   21.7128  -21.4395  -10.5854 O   0  0  0  0  0  0  0  0  0  0  0  0
  1  2  1  0
  2  3  2  0
  4  5  1  0
  4  2  1  0
  6  5  1  0
  7  6  1  0
  8 10  1  0
  8  7  1  0
  8  9  1  6
 10 11  2  0
 12 13  1  0
 12 10  1  0
 13 14  1  1
 14 15  1  0
 15 16  2  0
 16 17  1  0
 18 17  1  0
 19 15  1  0
 19 18  2  0
 20 13  1  0
 21 20  2  0
 23 22  1  6
 23 24  1  0
 23 25  1  0
 25 27  1  0
 25 26  1  1
 26 20  1  0
 27 29  1  0
 28 27  2  0
M  END
$$$$
