RHV.pdb
     RDKit          3D

 29 29  0  0  1  0  0  0  0  0999 V2000
   29.7391  -25.2513  -16.3966 N   0  0  0  0  0  0  0  0  0  0  0  0
   29.5748  -23.9374  -16.9083 C   0  0  0  0  0  0  0  0  0  0  0  0
   30.2998  -23.5647  -17.8977 N   0  0  0  0  0  0  0  0  0  0  0  0
   28.6211  -23.0726  -16.3192 N   0  0  0  0  0  0  0  0  0  0  0  0
   27.4481  -23.5677  -15.6873 C   0  0  0  0  0  0  0  0  0  0  0  0
   26.2401  -23.7733  -16.5139 C   0  0  0  0  0  0  0  0  0  0  0  0
   25.0189  -23.0196  -16.1374 C   0  0  0  0  0  0  0  0  0  0  0  0
   24.4248  -23.3788  -14.8050 C   0  0  2  0  0  0  0  0  0  0  0  0
   24.3437  -24.8352  -14.6834 N   0  0  0  0  0  0  0  0  0  0  0  0
   23.0454  -22.7933  -14.6737 C   0  0  0  0  0  0  0  0  0  0  0  0
   22.1678  -23.1431  -15.4938 O   0  0  0  0  0  0  0  0  0  0  0  0
   30.3323  -22.6345  -18.3236 N   0  0  0  0  0  0  0  0  0  0  0  0
   22.7802  -21.8569  -13.6175 C   0  0  2  0  0  0  0  0  0  0  0  0
   21.4555  -21.3036  -13.4258 C   0  0  0  0  0  0  0  0  0  0  0  0
   21.0560  -21.1435  -12.0081 C   0  0  0  0  0  0  0  0  0  0  0  0
   20.5696  -22.3624  -11.3439 C   0  0  0  0  0  0  0  0  0  0  0  0
   20.1965  -23.5664  -11.8773 N   0  0  0  0  0  0  0  0  0  0  0  0
   19.8176  -24.3552  -10.8447 C   0  0  0  0  0  0  0  0  0  0  0  0
   19.9563  -23.6504   -9.7151 N   0  0  0  0  0  0  0  0  0  0  0  0
   20.4174  -22.4227   -9.9999 C   0  0  0  0  0  0  0  0  0  0  0  0
   21.3200  -20.0069  -14.1567 O   0  0  0  0  0  0  0  0  0  0  0  0
   22.1781  -19.1167  -13.9519 C   0  0  0  0  0  0  0  0  0  0  0  0
   21.4250  -19.4651  -17.6813 C   0  0  2  0  0  0  0  0  0  0  0  0
   20.1473  -18.8153  -17.2122 C   0  0  0  0  0  0  0  0  0  0  0  0
   19.0038  -19.7635  -17.5289 C   0  0  2  0  0  0  0  0  0  0  0  0
   20.1208  -18.5589  -15.7396 N   0  0  0  0  0  0  0  0  0  0  0  0
   20.2327  -19.8275  -15.0523 C   0  0  0  0  0  0  0  0  0  0  0  0
   18.9421  -17.8468  -15.2474 O   0  0  0  0  0  0  0  0  0  0  0  0
   18.0538  -18.3618  -14.5168 O   0  0  0  0  0  0  0  0  0  0  0  0
  1  2  1  0
  2  3  2  0
  4  5  1  0
  4  2  1  0
  6  5  1  0
  7  6  1  0
  8 10  1  0
  8  7  1  0
  8  9  1  6
 10 11  2  0
 12 13  1  0
 12 10  1  0
 13 14  1  6
 14 15  1  0
 15 16  2  0
 16 17  1  0
 18 17  1  0
 19 15  1  0
 19 18  2  0
 20 13  1  0
 21 20  2  0
 23 22  1  6
 23 24  1  0
 23 25  1  0
 25 27  1  0
 25 26  1  1
 26 20  1  0
 27 29  1  0
 28 27  2  0
M  END
$$$$
