RHV.pdb
     RDKit          3D

 29 29  0  0  1  0  0  0  0  0999 V2000
   33.5471  -24.8570  -16.4944 N   0  0  0  0  0  0  0  0  0  0  0  0
   32.4853  -25.6863  -16.9420 C   0  0  0  0  0  0  0  0  0  0  0  0
   32.7609  -26.8565  -17.3870 N   0  0  0  0  0  0  0  0  0  0  0  0
   31.1543  -25.2066  -16.8883 N   0  0  0  0  0  0  0  0  0  0  0  0
   30.8432  -23.9091  -16.3986 C   0  0  0  0  0  0  0  0  0  0  0  0
   30.2930  -22.9158  -17.3450 C   0  0  0  0  0  0  0  0  0  0  0  0
   28.8171  -22.8424  -17.4762 C   0  0  0  0  0  0  0  0  0  0  0  0
   28.1674  -21.6684  -16.8003 C   0  0  2  0  0  0  0  0  0  0  0  0
   28.9393  -20.4563  -17.0787 N   0  0  0  0  0  0  0  0  0  0  0  0
   28.1099  -21.8883  -15.3133 C   0  0  0  0  0  0  0  0  0  0  0  0
   27.5003  -22.8918  -14.8813 O   0  0  0  0  0  0  0  0  0  0  0  0
   32.1047  -27.5408  -17.7728 N   0  0  0  0  0  0  0  0  0  0  0  0
   28.7526  -20.9456  -14.4410 C   0  0  1  0  0  0  0  0  0  0  0  0
   28.6788  -21.0900  -13.0018 C   0  0  0  0  0  0  0  0  0  0  0  0
   29.9186  -20.7151  -12.2825 C   0  0  0  0  0  0  0  0  0  0  0  0
   30.9602  -21.7523  -12.2294 C   0  0  0  0  0  0  0  0  0  0  0  0
   31.5981  -22.4121  -13.2448 N   0  0  0  0  0  0  0  0  0  0  0  0
   32.4660  -23.2769  -12.6697 C   0  0  0  0  0  0  0  0  0  0  0  0
   32.3586  -23.1468  -11.3417 N   0  0  0  0  0  0  0  0  0  0  0  0
   31.4383  -22.2146  -11.0500 C   0  0  0  0  0  0  0  0  0  0  0  0
   27.5104  -20.3317  -12.4597 O   0  0  0  0  0  0  0  0  0  0  0  0
   27.3995  -19.1190  -12.7564 C   0  0  0  0  0  0  0  0  0  0  0  0
   23.8780  -22.0665  -12.0509 C   0  0  2  0  0  0  0  0  0  0  0  0
   24.2640  -20.6093  -12.0988 C   0  0  0  0  0  0  0  0  0  0  0  0
   23.0642  -19.7984  -11.6408 C   0  0  1  0  0  0  0  0  0  0  0  0
   25.4047  -20.2701  -11.1938 N   0  0  0  0  0  0  0  0  0  0  0  0
   26.5716  -21.0044  -11.6337 C   0  0  0  0  0  0  0  0  0  0  0  0
   25.1781  -20.5318   -9.7730 O   0  0  0  0  0  0  0  0  0  0  0  0
   25.7535  -21.4409   -9.1168 O   0  0  0  0  0  0  0  0  0  0  0  0
  1  2  1  0
  2  3  2  0
  4  5  1  0
  4  2  1  0
  6  5  1  0
  7  6  1  0
  8 10  1  0
  8  7  1  0
  8  9  1  1
 10 11  2  0
 12 13  1  0
 12 10  1  0
 13 14  1  1
 14 15  1  0
 15 16  2  0
 16 17  1  0
 18 17  1  0
 19 15  1  0
 19 18  2  0
 20 13  1  0
 21 20  2  0
 23 22  1  6
 23 24  1  0
 23 25  1  0
 25 27  1  0
 25 26  1  6
 26 20  1  0
 27 29  1  0
 28 27  2  0
M  END
$$$$
