RHV.pdb
     RDKit          3D

 29 29  0  0  1  0  0  0  0  0999 V2000
   31.1190  -24.1268  -15.5224 N   0  0  0  0  0  0  0  0  0  0  0  0
   30.8498  -24.7421  -16.7731 C   0  0  0  0  0  0  0  0  0  0  0  0
   30.7377  -26.0181  -16.8224 N   0  0  0  0  0  0  0  0  0  0  0  0
   30.7125  -23.9392  -17.9311 N   0  0  0  0  0  0  0  0  0  0  0  0
   29.7542  -22.8925  -18.0095 C   0  0  0  0  0  0  0  0  0  0  0  0
   29.5388  -22.0482  -16.8155 C   0  0  0  0  0  0  0  0  0  0  0  0
   28.1372  -21.8112  -16.3907 C   0  0  0  0  0  0  0  0  0  0  0  0
   27.4114  -23.0157  -15.8620 C   0  0  2  0  0  0  0  0  0  0  0  0
   27.0093  -23.8725  -16.9786 N   0  0  0  0  0  0  0  0  0  0  0  0
   26.1876  -22.5932  -15.0962 C   0  0  0  0  0  0  0  0  0  0  0  0
   25.0649  -22.7751  -15.6174 O   0  0  0  0  0  0  0  0  0  0  0  0
   30.6639  -26.5996  -17.6615 N   0  0  0  0  0  0  0  0  0  0  0  0
   26.3447  -21.9980  -13.7987 C   0  0  1  0  0  0  0  0  0  0  0  0
   25.1934  -21.6764  -12.9807 C   0  0  0  0  0  0  0  0  0  0  0  0
   25.5052  -21.4200  -11.5552 C   0  0  0  0  0  0  0  0  0  0  0  0
   24.3538  -21.0831  -10.7041 C   0  0  0  0  0  0  0  0  0  0  0  0
   23.0309  -20.9454  -11.0269 N   0  0  0  0  0  0  0  0  0  0  0  0
   22.3783  -20.6189   -9.8870 C   0  0  0  0  0  0  0  0  0  0  0  0
   23.2793  -20.5597   -8.8986 N   0  0  0  0  0  0  0  0  0  0  0  0
   24.4999  -20.8418   -9.3799 C   0  0  0  0  0  0  0  0  0  0  0  0
   24.4413  -20.5252  -13.5666 O   0  0  0  0  0  0  0  0  0  0  0  0
   25.0088  -19.4089  -13.6179 C   0  0  0  0  0  0  0  0  0  0  0  0
   23.4284  -20.1752  -16.8611 C   0  0  2  0  0  0  0  0  0  0  0  0
   22.1691  -19.9143  -16.0733 C   0  0  0  0  0  0  0  0  0  0  0  0
   21.3224  -21.1741  -16.1255 C   0  0  2  0  0  0  0  0  0  0  0  0
   22.4260  -19.6076  -14.6328 N   0  0  0  0  0  0  0  0  0  0  0  0
   23.1196  -20.7322  -14.0424 C   0  0  0  0  0  0  0  0  0  0  0  0
   21.2395  -19.3006  -13.8349 O   0  0  0  0  0  0  0  0  0  0  0  0
   20.7450  -20.0724  -12.9701 O   0  0  0  0  0  0  0  0  0  0  0  0
  1  2  1  0
  2  3  2  0
  4  5  1  0
  4  2  1  0
  6  5  1  0
  7  6  1  0
  8 10  1  0
  8  7  1  0
  8  9  1  6
 10 11  2  0
 12 13  1  0
 12 10  1  0
 13 14  1  6
 14 15  1  0
 15 16  2  0
 16 17  1  0
 18 17  1  0
 19 15  1  0
 19 18  2  0
 20 13  1  0
 21 20  2  0
 23 22  1  6
 23 24  1  0
 23 25  1  0
 25 27  1  0
 25 26  1  1
 26 20  1  0
 27 29  1  0
 28 27  2  0
M  END
$$$$
