VHD.pdb
     RDKit          3D

 26 26  0  0  1  0  0  0  0  0999 V2000
   28.0226  -20.0221  -16.2917 C   0  0  0  0  0  0  0  0  0  0  0  0
   27.1189  -20.3952  -15.1510 C   0  0  1  0  0  0  0  0  0  0  0  0
   26.9912  -19.2134  -14.2282 C   0  0  0  0  0  0  0  0  0  0  0  0
   25.7504  -20.7532  -15.6804 C   0  0  2  0  0  0  0  0  0  0  0  0
   25.1224  -19.6716  -16.3770 N   0  0  0  0  0  0  0  0  0  0  0  0
   24.8629  -21.1946  -14.5761 C   0  0  0  0  0  0  0  0  0  0  0  0
   25.1111  -22.2498  -13.9216 O   0  0  0  0  0  0  0  0  0  0  0  0
   23.7153  -20.4391  -14.2322 N   0  0  0  0  0  0  0  0  0  0  0  0
   22.8042  -20.8726  -13.1316 C   0  0  1  0  0  0  0  0  0  0  0  0
   23.0000  -19.9914  -11.9726 C   0  0  0  0  0  0  0  0  0  0  0  0
   24.1079  -20.3507  -11.0712 C   0  0  0  0  0  0  0  0  0  0  0  0
   24.9502  -21.4546  -11.1277 C   0  0  0  0  0  0  0  0  0  0  0  0
   25.7949  -21.4126  -10.0836 N   0  0  0  0  0  0  0  0  0  0  0  0
   25.5219  -20.3147   -9.3561 C   0  0  0  0  0  0  0  0  0  0  0  0
   24.5171  -19.6859   -9.9479 N   0  0  0  0  0  0  0  0  0  0  0  0
   21.5110  -21.0599  -13.7286 C   0  0  0  0  0  0  0  0  0  0  0  0
   21.1729  -20.2768  -14.6965 O   0  0  0  0  0  0  0  0  0  0  0  0
   20.5063  -22.0235  -13.4044 N   0  0  0  0  0  0  0  0  0  0  0  0
   19.1931  -21.9796  -14.0625 C   0  0  1  0  0  0  0  0  0  0  0  0
   18.2144  -22.8451  -13.3021 C   0  0  0  0  0  0  0  0  0  0  0  0
   18.5947  -24.2684  -13.3063 C   0  0  0  0  0  0  0  0  0  0  0  0
   19.6082  -24.6627  -13.9889 O   0  0  0  0  0  0  0  0  0  0  0  0
   18.7266  -20.5819  -14.0559 C   0  0  0  0  0  0  0  0  0  0  0  0
   18.3875  -20.0223  -15.1138 O   0  0  0  0  0  0  0  0  0  0  0  0
   17.9365  -25.2790  -12.6165 O   0  0  0  0  0  0  0  0  0  0  0  0
   18.6587  -19.8769  -12.8854 O   0  0  0  0  0  0  0  0  0  0  0  0
  2  4  1  0
  2  1  1  6
  3  2  1  0
  4  5  1  1
  4  6  1  0
  6  7  2  0
  8  6  1  0
  8  9  1  0
  9 16  1  0
  9 10  1  1
 10 11  1  0
 11 12  2  0
 12 13  1  0
 14 13  1  0
 15 11  1  0
 15 14  2  0
 16 17  2  0
 18 19  1  0
 18 16  1  0
 19 23  1  0
 20 21  1  0
 19 20  1  1
 21 22  2  0
 23 24  2  0
 23 26  1  0
 25 21  1  0
M  END
$$$$
