VHD.pdb
     RDKit          3D

 26 26  0  0  1  0  0  0  0  0999 V2000
   24.7453  -36.8178  -13.4442 C   0  0  0  0  0  0  0  0  0  0  0  0
   24.0276  -36.0455  -12.3739 C   0  0  1  0  0  0  0  0  0  0  0  0
   23.2964  -37.0151  -11.4852 C   0  0  0  0  0  0  0  0  0  0  0  0
   25.0271  -35.2770  -11.5421 C   0  0  2  0  0  0  0  0  0  0  0  0
   26.0086  -36.1209  -10.9308 N   0  0  0  0  0  0  0  0  0  0  0  0
   24.3365  -34.4976  -10.4850 C   0  0  0  0  0  0  0  0  0  0  0  0
   23.3569  -33.7450  -10.7638 O   0  0  0  0  0  0  0  0  0  0  0  0
   24.7630  -34.5819   -9.1371 N   0  0  0  0  0  0  0  0  0  0  0  0
   23.9692  -33.9637   -8.0338 C   0  0  1  0  0  0  0  0  0  0  0  0
   22.5517  -34.3047   -8.2143 C   0  0  0  0  0  0  0  0  0  0  0  0
   21.6324  -33.8022   -7.1792 C   0  0  0  0  0  0  0  0  0  0  0  0
   21.9360  -33.1438   -5.9936 C   0  0  0  0  0  0  0  0  0  0  0  0
   20.7960  -32.9014   -5.3250 N   0  0  0  0  0  0  0  0  0  0  0  0
   19.7671  -33.3840   -6.0443 C   0  0  0  0  0  0  0  0  0  0  0  0
   20.2699  -33.9192   -7.1471 N   0  0  0  0  0  0  0  0  0  0  0  0
   24.6694  -34.2638   -6.8158 C   0  0  0  0  0  0  0  0  0  0  0  0
   25.1181  -35.4629   -6.6563 O   0  0  0  0  0  0  0  0  0  0  0  0
   24.9610  -33.4004   -5.7147 N   0  0  0  0  0  0  0  0  0  0  0  0
   25.6726  -33.9128   -4.5354 C   0  0  1  0  0  0  0  0  0  0  0  0
   25.0937  -35.2503   -4.1338 C   0  0  0  0  0  0  0  0  0  0  0  0
   25.8283  -35.8741   -3.0195 C   0  0  0  0  0  0  0  0  0  0  0  0
   25.8330  -37.1511   -2.8853 O   0  0  0  0  0  0  0  0  0  0  0  0
   27.0922  -34.0760   -4.8950 C   0  0  0  0  0  0  0  0  0  0  0  0
   27.4914  -33.7984   -6.0400 O   0  0  0  0  0  0  0  0  0  0  0  0
   26.5503  -35.1904   -2.0491 O   0  0  0  0  0  0  0  0  0  0  0  0
   27.9944  -34.5354   -3.9750 O   0  0  0  0  0  0  0  0  0  0  0  0
  2  4  1  0
  2  1  1  6
  3  2  1  0
  4  5  1  1
  4  6  1  0
  6  7  2  0
  8  6  1  0
  8  9  1  0
  9 16  1  0
  9 10  1  1
 10 11  1  0
 11 12  2  0
 12 13  1  0
 14 13  1  0
 15 11  1  0
 15 14  2  0
 16 17  2  0
 18 19  1  0
 18 16  1  0
 19 23  1  0
 20 21  1  0
 19 20  1  6
 21 22  2  0
 23 24  2  0
 23 26  1  0
 25 21  1  0
M  END
$$$$
