VHD.pdb
     RDKit          3D

 26 26  0  0  1  0  0  0  0  0999 V2000
   27.4962  -11.4935  -15.3216 C   0  0  0  0  0  0  0  0  0  0  0  0
   26.2163  -10.7505  -15.5805 C   0  0  1  0  0  0  0  0  0  0  0  0
   26.4071   -9.8607  -16.7790 C   0  0  0  0  0  0  0  0  0  0  0  0
   25.1062  -11.7325  -15.8714 C   0  0  2  0  0  0  0  0  0  0  0  0
   25.4047  -12.6010  -16.9695 N   0  0  0  0  0  0  0  0  0  0  0  0
   23.8375  -11.0169  -16.1545 C   0  0  0  0  0  0  0  0  0  0  0  0
   23.3945  -10.9170  -17.3366 O   0  0  0  0  0  0  0  0  0  0  0  0
   23.0948  -10.4293  -15.1014 N   0  0  0  0  0  0  0  0  0  0  0  0
   21.8204   -9.6979  -15.3671 C   0  0  1  0  0  0  0  0  0  0  0  0
   20.7053  -10.4468  -14.7722 C   0  0  0  0  0  0  0  0  0  0  0  0
   20.1379  -11.5230  -15.6022 C   0  0  0  0  0  0  0  0  0  0  0  0
   20.4612  -11.8757  -16.9070 C   0  0  0  0  0  0  0  0  0  0  0  0
   19.6695  -12.8901  -17.2935 N   0  0  0  0  0  0  0  0  0  0  0  0
   18.8457  -13.2015  -16.2769 C   0  0  0  0  0  0  0  0  0  0  0  0
   19.1283  -12.3851  -15.2724 N   0  0  0  0  0  0  0  0  0  0  0  0
   22.0684   -8.3220  -15.0364 C   0  0  0  0  0  0  0  0  0  0  0  0
   22.5612   -8.0592  -13.8734 O   0  0  0  0  0  0  0  0  0  0  0  0
   21.8493   -7.1561  -15.8337 N   0  0  0  0  0  0  0  0  0  0  0  0
   22.1301   -5.8197  -15.2906 C   0  0  1  0  0  0  0  0  0  0  0  0
   21.9711   -4.7845  -16.3807 C   0  0  0  0  0  0  0  0  0  0  0  0
   22.1816   -3.4106  -15.8923 C   0  0  0  0  0  0  0  0  0  0  0  0
   22.9302   -3.1971  -14.8711 O   0  0  0  0  0  0  0  0  0  0  0  0
   21.1630   -5.5541  -14.2111 C   0  0  0  0  0  0  0  0  0  0  0  0
   21.4852   -4.8636  -13.2278 O   0  0  0  0  0  0  0  0  0  0  0  0
   21.6247   -2.2652  -16.4476 O   0  0  0  0  0  0  0  0  0  0  0  0
   19.8946   -6.0628  -14.2730 O   0  0  0  0  0  0  0  0  0  0  0  0
  2  4  1  0
  2  1  1  6
  3  2  1  0
  4  5  1  6
  4  6  1  0
  6  7  2  0
  8  6  1  0
  8  9  1  0
  9 16  1  0
  9 10  1  1
 10 11  1  0
 11 12  2  0
 12 13  1  0
 14 13  1  0
 15 11  1  0
 15 14  2  0
 16 17  2  0
 18 19  1  0
 18 16  1  0
 19 23  1  0
 20 21  1  0
 19 20  1  6
 21 22  2  0
 23 24  2  0
 23 26  1  0
 25 21  1  0
M  END
$$$$
