VHD.pdb
     RDKit          3D

 26 26  0  0  1  0  0  0  0  0999 V2000
   18.5165  -11.5803  -19.5329 C   0  0  0  0  0  0  0  0  0  0  0  0
   19.3234  -10.8874  -18.4717 C   0  0  1  0  0  0  0  0  0  0  0  0
   18.4834  -10.7624  -17.2294 C   0  0  0  0  0  0  0  0  0  0  0  0
   20.5529  -11.7039  -18.1513 C   0  0  2  0  0  0  0  0  0  0  0  0
   20.2407  -13.0189  -17.6796 N   0  0  0  0  0  0  0  0  0  0  0  0
   21.3875  -11.0140  -17.1368 C   0  0  0  0  0  0  0  0  0  0  0  0
   21.2694  -11.2800  -15.9043 O   0  0  0  0  0  0  0  0  0  0  0  0
   22.3370  -10.0398  -17.5309 N   0  0  0  0  0  0  0  0  0  0  0  0
   23.0894   -9.2387  -16.5202 C   0  0  1  0  0  0  0  0  0  0  0  0
   24.5297   -9.3818  -16.7713 C   0  0  0  0  0  0  0  0  0  0  0  0
   25.1177  -10.6854  -16.4192 C   0  0  0  0  0  0  0  0  0  0  0  0
   24.5238  -11.7573  -15.7637 C   0  0  0  0  0  0  0  0  0  0  0  0
   25.4341  -12.7337  -15.6107 N   0  0  0  0  0  0  0  0  0  0  0  0
   26.5967  -12.3229  -16.1480 C   0  0  0  0  0  0  0  0  0  0  0  0
   26.4034  -11.1032  -16.6280 N   0  0  0  0  0  0  0  0  0  0  0  0
   22.4550   -7.9506  -16.4727 C   0  0  0  0  0  0  0  0  0  0  0  0
   22.1312   -7.3947  -17.5910 O   0  0  0  0  0  0  0  0  0  0  0  0
   22.1091   -7.1645  -15.3301 N   0  0  0  0  0  0  0  0  0  0  0  0
   21.4844   -5.8447  -15.4963 C   0  0  1  0  0  0  0  0  0  0  0  0
   20.0258   -5.9202  -15.1063 C   0  0  0  0  0  0  0  0  0  0  0  0
   19.3524   -4.6117  -15.1758 C   0  0  0  0  0  0  0  0  0  0  0  0
   19.1323   -3.9422  -14.1025 O   0  0  0  0  0  0  0  0  0  0  0  0
   22.1841   -4.8949  -14.6134 C   0  0  0  0  0  0  0  0  0  0  0  0
   22.9957   -5.3011  -13.7627 O   0  0  0  0  0  0  0  0  0  0  0  0
   18.9060   -3.9974  -16.3394 O   0  0  0  0  0  0  0  0  0  0  0  0
   21.9525   -3.5505  -14.7155 O   0  0  0  0  0  0  0  0  0  0  0  0
  2  4  1  0
  2  1  1  6
  3  2  1  0
  4  5  1  1
  4  6  1  0
  6  7  2  0
  8  6  1  0
  8  9  1  0
  9 16  1  0
  9 10  1  6
 10 11  1  0
 11 12  2  0
 12 13  1  0
 14 13  1  0
 15 11  1  0
 15 14  2  0
 16 17  2  0
 18 19  1  0
 18 16  1  0
 19 23  1  0
 20 21  1  0
 19 20  1  1
 21 22  2  0
 23 24  2  0
 23 26  1  0
 25 21  1  0
M  END
$$$$
