VHD.pdb
     RDKit          3D

 26 26  0  0  1  0  0  0  0  0999 V2000
   28.9993  -18.4234  -17.9899 C   0  0  0  0  0  0  0  0  0  0  0  0
   28.4486  -19.2760  -16.8822 C   0  0  1  0  0  0  0  0  0  0  0  0
   29.0335  -18.8100  -15.5763 C   0  0  0  0  0  0  0  0  0  0  0  0
   26.9463  -19.1308  -16.8253 C   0  0  2  0  0  0  0  0  0  0  0  0
   26.5231  -17.7699  -16.6915 N   0  0  0  0  0  0  0  0  0  0  0  0
   26.3880  -19.9215  -15.7007 C   0  0  0  0  0  0  0  0  0  0  0  0
   26.5114  -21.1813  -15.6641 O   0  0  0  0  0  0  0  0  0  0  0  0
   25.7028  -19.2777  -14.6414 N   0  0  0  0  0  0  0  0  0  0  0  0
   25.1849  -20.0488  -13.4724 C   0  0  1  0  0  0  0  0  0  0  0  0
   25.9594  -19.6859  -12.2780 C   0  0  0  0  0  0  0  0  0  0  0  0
   27.3226  -20.2383  -12.2029 C   0  0  0  0  0  0  0  0  0  0  0  0
   27.9642  -21.0912  -13.0930 C   0  0  0  0  0  0  0  0  0  0  0  0
   29.1871  -21.3792  -12.6165 N   0  0  0  0  0  0  0  0  0  0  0  0
   29.3525  -20.7374  -11.4461 C   0  0  0  0  0  0  0  0  0  0  0  0
   28.2401  -20.0597  -11.2042 N   0  0  0  0  0  0  0  0  0  0  0  0
   23.7540  -19.9273  -13.5109 C   0  0  0  0  0  0  0  0  0  0  0  0
   23.2530  -18.7892  -13.8546 O   0  0  0  0  0  0  0  0  0  0  0  0
   22.7634  -20.9162  -13.2212 N   0  0  0  0  0  0  0  0  0  0  0  0
   21.3416  -20.6410  -13.4716 C   0  0  1  0  0  0  0  0  0  0  0  0
   21.1385  -20.3051  -14.9314 C   0  0  0  0  0  0  0  0  0  0  0  0
   19.7181  -20.1270  -15.2794 C   0  0  0  0  0  0  0  0  0  0  0  0
   18.8623  -19.8374  -14.3671 O   0  0  0  0  0  0  0  0  0  0  0  0
   20.5761  -21.8533  -13.1316 C   0  0  0  0  0  0  0  0  0  0  0  0
   20.8722  -22.9514  -13.6354 O   0  0  0  0  0  0  0  0  0  0  0  0
   19.1809  -20.2486  -16.5550 O   0  0  0  0  0  0  0  0  0  0  0  0
   19.5271  -21.7905  -12.2557 O   0  0  0  0  0  0  0  0  0  0  0  0
  2  4  1  0
  2  1  1  6
  3  2  1  0
  4  5  1  1
  4  6  1  0
  6  7  2  0
  8  6  1  0
  8  9  1  0
  9 16  1  0
  9 10  1  1
 10 11  1  0
 11 12  2  0
 12 13  1  0
 14 13  1  0
 15 11  1  0
 15 14  2  0
 16 17  2  0
 18 19  1  0
 18 16  1  0
 19 23  1  0
 20 21  1  0
 19 20  1  6
 21 22  2  0
 23 24  2  0
 23 26  1  0
 25 21  1  0
M  END
$$$$
