VHD.pdb
     RDKit          3D

 26 26  0  0  1  0  0  0  0  0999 V2000
   19.0548  -10.5394  -18.9812 C   0  0  0  0  0  0  0  0  0  0  0  0
   19.3757  -11.7398  -18.1367 C   0  0  1  0  0  0  0  0  0  0  0  0
   19.0733  -12.9833  -18.9284 C   0  0  0  0  0  0  0  0  0  0  0  0
   20.8426  -11.7331  -17.7770 C   0  0  2  0  0  0  0  0  0  0  0  0
   21.2522  -12.9186  -17.0871 N   0  0  0  0  0  0  0  0  0  0  0  0
   21.1692  -10.5519  -16.9403 C   0  0  0  0  0  0  0  0  0  0  0  0
   20.9144  -10.5404  -15.6998 O   0  0  0  0  0  0  0  0  0  0  0  0
   21.7754   -9.4093  -17.5173 N   0  0  0  0  0  0  0  0  0  0  0  0
   22.2015   -8.2512  -16.6767 C   0  0  1  0  0  0  0  0  0  0  0  0
   23.6502   -8.0583  -16.8260 C   0  0  0  0  0  0  0  0  0  0  0  0
   24.5036   -9.0770  -16.1913 C   0  0  0  0  0  0  0  0  0  0  0  0
   24.1324  -10.1201  -15.3513 C   0  0  0  0  0  0  0  0  0  0  0  0
   25.2354  -10.7841  -14.9668 N   0  0  0  0  0  0  0  0  0  0  0  0
   26.3061  -10.2000  -15.5338 C   0  0  0  0  0  0  0  0  0  0  0  0
   25.8655   -9.1844  -16.2617 N   0  0  0  0  0  0  0  0  0  0  0  0
   21.2668   -7.1934  -16.9435 C   0  0  0  0  0  0  0  0  0  0  0  0
   21.0188   -6.9024  -18.1757 O   0  0  0  0  0  0  0  0  0  0  0  0
   20.5372   -6.3880  -16.0150 N   0  0  0  0  0  0  0  0  0  0  0  0
   19.6365   -5.3303  -16.4946 C   0  0  1  0  0  0  0  0  0  0  0  0
   18.5251   -5.1164  -15.4926 C   0  0  0  0  0  0  0  0  0  0  0  0
   17.5230   -6.1961  -15.5189 C   0  0  0  0  0  0  0  0  0  0  0  0
   17.1209   -6.6751  -16.6403 O   0  0  0  0  0  0  0  0  0  0  0  0
   20.4221   -4.0916  -16.6343 C   0  0  0  0  0  0  0  0  0  0  0  0
   21.6376   -4.0792  -16.3701 O   0  0  0  0  0  0  0  0  0  0  0  0
   16.9367   -6.7769  -14.4012 O   0  0  0  0  0  0  0  0  0  0  0  0
   19.8270   -2.9346  -17.0573 O   0  0  0  0  0  0  0  0  0  0  0  0
  2  4  1  0
  2  1  1  6
  3  2  1  0
  4  5  1  1
  4  6  1  0
  6  7  2  0
  8  6  1  0
  8  9  1  0
  9 16  1  0
  9 10  1  6
 10 11  1  0
 11 12  2  0
 12 13  1  0
 14 13  1  0
 15 11  1  0
 15 14  2  0
 16 17  2  0
 18 19  1  0
 18 16  1  0
 19 23  1  0
 20 21  1  0
 19 20  1  1
 21 22  2  0
 23 24  2  0
 23 26  1  0
 25 21  1  0
M  END
$$$$
