VHD.pdb
     RDKit          3D

 26 26  0  0  1  0  0  0  0  0999 V2000
   17.9515  -12.9137  -15.8012 C   0  0  0  0  0  0  0  0  0  0  0  0
   17.6691  -11.5927  -15.1436 C   0  0  1  0  0  0  0  0  0  0  0  0
   17.3689  -10.5752  -16.2108 C   0  0  0  0  0  0  0  0  0  0  0  0
   16.4678  -11.7206  -14.2371 C   0  0  2  0  0  0  0  0  0  0  0  0
   15.2969  -12.1733  -14.9250 N   0  0  0  0  0  0  0  0  0  0  0  0
   16.1694  -10.4238  -13.5805 C   0  0  0  0  0  0  0  0  0  0  0  0
   15.3169   -9.6255  -14.0699 O   0  0  0  0  0  0  0  0  0  0  0  0
   16.8365  -10.0534  -12.3873 N   0  0  0  0  0  0  0  0  0  0  0  0
   16.7060   -8.6774  -11.8225 C   0  0  1  0  0  0  0  0  0  0  0  0
   16.1137   -8.7644  -10.4810 C   0  0  0  0  0  0  0  0  0  0  0  0
   15.9614   -7.4886   -9.7611 C   0  0  0  0  0  0  0  0  0  0  0  0
   16.4346   -6.2304  -10.1141 C   0  0  0  0  0  0  0  0  0  0  0  0
   16.1052   -5.3543   -9.1501 N   0  0  0  0  0  0  0  0  0  0  0  0
   15.4342   -6.0103   -8.1866 C   0  0  0  0  0  0  0  0  0  0  0  0
   15.3510   -7.2803   -8.5548 N   0  0  0  0  0  0  0  0  0  0  0  0
   17.9659   -8.0261  -12.0515 C   0  0  0  0  0  0  0  0  0  0  0  0
   19.0260   -8.5693  -11.5559 O   0  0  0  0  0  0  0  0  0  0  0  0
   18.2337   -6.8250  -12.7786 N   0  0  0  0  0  0  0  0  0  0  0  0
   19.6147   -6.3549  -12.9562 C   0  0  1  0  0  0  0  0  0  0  0  0
   20.1048   -6.7277  -14.3368 C   0  0  0  0  0  0  0  0  0  0  0  0
   21.4396   -6.1782  -14.6317 C   0  0  0  0  0  0  0  0  0  0  0  0
   22.1937   -5.7690  -13.6763 O   0  0  0  0  0  0  0  0  0  0  0  0
   19.6196   -4.8889  -12.8085 C   0  0  0  0  0  0  0  0  0  0  0  0
   20.6881   -4.2527  -12.8393 O   0  0  0  0  0  0  0  0  0  0  0  0
   21.9939   -6.0476  -15.8991 O   0  0  0  0  0  0  0  0  0  0  0  0
   18.4483   -4.2035  -12.6352 O   0  0  0  0  0  0  0  0  0  0  0  0
  2  4  1  0
  2  1  1  6
  3  2  1  0
  4  5  1  6
  4  6  1  0
  6  7  2  0
  8  6  1  0
  8  9  1  0
  9 16  1  0
  9 10  1  1
 10 11  1  0
 11 12  2  0
 12 13  1  0
 14 13  1  0
 15 11  1  0
 15 14  2  0
 16 17  2  0
 18 19  1  0
 18 16  1  0
 19 23  1  0
 20 21  1  0
 19 20  1  6
 21 22  2  0
 23 24  2  0
 23 26  1  0
 25 21  1  0
M  END
$$$$
