VHD.pdb
     RDKit          3D

 26 26  0  0  1  0  0  0  0  0999 V2000
   25.1141  -31.6184    4.6047 C   0  0  0  0  0  0  0  0  0  0  0  0
   25.8494  -30.9333    5.7215 C   0  0  1  0  0  0  0  0  0  0  0  0
   25.3159  -31.4395    7.0344 C   0  0  0  0  0  0  0  0  0  0  0  0
   27.3226  -31.2548    5.6350 C   0  0  2  0  0  0  0  0  0  0  0  0
   27.5970  -32.6523    5.7796 N   0  0  0  0  0  0  0  0  0  0  0  0
   28.0816  -30.5058    6.6669 C   0  0  0  0  0  0  0  0  0  0  0  0
   28.3880  -31.0448    7.7711 O   0  0  0  0  0  0  0  0  0  0  0  0
   28.4793  -29.1666    6.4341 N   0  0  0  0  0  0  0  0  0  0  0  0
   29.2425  -28.3961    7.4604 C   0  0  1  0  0  0  0  0  0  0  0  0
   30.5909  -28.1195    6.9470 C   0  0  0  0  0  0  0  0  0  0  0  0
   31.4755  -27.3543    7.8420 C   0  0  0  0  0  0  0  0  0  0  0  0
   31.2164  -26.8815    9.1229 C   0  0  0  0  0  0  0  0  0  0  0  0
   32.2868  -26.1969    9.5600 N   0  0  0  0  0  0  0  0  0  0  0  0
   33.2276  -26.2144    8.5989 C   0  0  0  0  0  0  0  0  0  0  0  0
   32.7401  -26.9044    7.5784 N   0  0  0  0  0  0  0  0  0  0  0  0
   28.3721  -27.3428    7.9040 C   0  0  0  0  0  0  0  0  0  0  0  0
   27.5953  -26.7934    7.0326 O   0  0  0  0  0  0  0  0  0  0  0  0
   28.2262  -26.7948    9.2160 N   0  0  0  0  0  0  0  0  0  0  0  0
   27.3005  -25.6792    9.4578 C   0  0  1  0  0  0  0  0  0  0  0  0
   26.4387  -25.9857   10.6614 C   0  0  0  0  0  0  0  0  0  0  0  0
   25.4984  -24.8964   10.9771 C   0  0  0  0  0  0  0  0  0  0  0  0
   25.3215  -23.9358   10.1436 O   0  0  0  0  0  0  0  0  0  0  0  0
   28.1019  -24.4703    9.7178 C   0  0  0  0  0  0  0  0  0  0  0  0
   29.3277  -24.5529    9.9126 O   0  0  0  0  0  0  0  0  0  0  0  0
   24.7479  -24.7938   12.1418 O   0  0  0  0  0  0  0  0  0  0  0  0
   27.5103  -23.2372    9.7490 O   0  0  0  0  0  0  0  0  0  0  0  0
  2  4  1  0
  2  1  1  6
  3  2  1  0
  4  5  1  1
  4  6  1  0
  6  7  2  0
  8  6  1  0
  8  9  1  0
  9 16  1  0
  9 10  1  6
 10 11  1  0
 11 12  2  0
 12 13  1  0
 14 13  1  0
 15 11  1  0
 15 14  2  0
 16 17  2  0
 18 19  1  0
 18 16  1  0
 19 23  1  0
 20 21  1  0
 19 20  1  1
 21 22  2  0
 23 24  2  0
 23 26  1  0
 25 21  1  0
M  END
$$$$
