VHD.pdb
     RDKit          3D

 26 26  0  0  1  0  0  0  0  0999 V2000
   12.2902   -9.3194   -8.1819 C   0  0  0  0  0  0  0  0  0  0  0  0
   12.7395  -10.4247   -9.0949 C   0  0  1  0  0  0  0  0  0  0  0  0
   11.5512  -11.2813   -9.4391 C   0  0  0  0  0  0  0  0  0  0  0  0
   13.3049   -9.8378  -10.3666 C   0  0  2  0  0  0  0  0  0  0  0  0
   13.4015  -10.7950  -11.4266 N   0  0  0  0  0  0  0  0  0  0  0  0
   14.6471   -9.2548  -10.1205 C   0  0  0  0  0  0  0  0  0  0  0  0
   14.9063   -8.6466   -9.0404 O   0  0  0  0  0  0  0  0  0  0  0  0
   15.6685   -9.3688  -11.0949 N   0  0  0  0  0  0  0  0  0  0  0  0
   16.9697   -8.6530  -10.9400 C   0  0  1  0  0  0  0  0  0  0  0  0
   17.9165   -9.1576  -11.9435 C   0  0  0  0  0  0  0  0  0  0  0  0
   19.1980   -8.4379  -12.0380 C   0  0  0  0  0  0  0  0  0  0  0  0
   19.6562   -7.3756  -11.2680 C   0  0  0  0  0  0  0  0  0  0  0  0
   20.8628   -6.9965  -11.7217 N   0  0  0  0  0  0  0  0  0  0  0  0
   21.1956   -7.7828  -12.7610 C   0  0  0  0  0  0  0  0  0  0  0  0
   20.2016   -8.6391  -12.9454 N   0  0  0  0  0  0  0  0  0  0  0  0
   16.6517   -7.2558  -10.8365 C   0  0  0  0  0  0  0  0  0  0  0  0
   15.7379   -6.7845  -11.6159 O   0  0  0  0  0  0  0  0  0  0  0  0
   17.2112   -6.2726   -9.9629 N   0  0  0  0  0  0  0  0  0  0  0  0
   16.7471   -4.8792  -10.0162 C   0  0  1  0  0  0  0  0  0  0  0  0
   16.9533   -4.2230   -8.6701 C   0  0  0  0  0  0  0  0  0  0  0  0
   16.6314   -2.7854   -8.6853 C   0  0  0  0  0  0  0  0  0  0  0  0
   15.7098   -2.3395   -9.4603 O   0  0  0  0  0  0  0  0  0  0  0  0
   17.5407   -4.1734  -11.0376 C   0  0  0  0  0  0  0  0  0  0  0  0
   17.0643   -3.2006  -11.6492 O   0  0  0  0  0  0  0  0  0  0  0  0
   17.2539   -1.8134   -7.9121 O   0  0  0  0  0  0  0  0  0  0  0  0
   18.8150   -4.5767  -11.3296 O   0  0  0  0  0  0  0  0  0  0  0  0
  2  4  1  0
  2  1  1  1
  3  2  1  0
  4  5  1  6
  4  6  1  0
  6  7  2  0
  8  6  1  0
  8  9  1  0
  9 16  1  0
  9 10  1  6
 10 11  1  0
 11 12  2  0
 12 13  1  0
 14 13  1  0
 15 11  1  0
 15 14  2  0
 16 17  2  0
 18 19  1  0
 18 16  1  0
 19 23  1  0
 20 21  1  0
 19 20  1  1
 21 22  2  0
 23 24  2  0
 23 26  1  0
 25 21  1  0
M  END
$$$$
