VHD.pdb
     RDKit          3D

 26 26  0  0  1  0  0  0  0  0999 V2000
   27.1316  -16.0827  -19.9920 C   0  0  0  0  0  0  0  0  0  0  0  0
   26.9805  -17.2451  -19.0523 C   0  0  1  0  0  0  0  0  0  0  0  0
   27.9720  -17.0927  -17.9306 C   0  0  0  0  0  0  0  0  0  0  0  0
   25.5852  -17.2560  -18.4743 C   0  0  2  0  0  0  0  0  0  0  0  0
   25.2315  -16.0173  -17.8499 N   0  0  0  0  0  0  0  0  0  0  0  0
   25.4384  -18.3527  -17.4857 C   0  0  0  0  0  0  0  0  0  0  0  0
   25.6211  -19.5607  -17.8192 O   0  0  0  0  0  0  0  0  0  0  0  0
   25.0894  -18.0667  -16.1432 N   0  0  0  0  0  0  0  0  0  0  0  0
   24.8031  -19.1604  -15.1678 C   0  0  1  0  0  0  0  0  0  0  0  0
   25.5414  -18.8992  -13.9250 C   0  0  0  0  0  0  0  0  0  0  0  0
   25.2079  -19.7685  -12.7838 C   0  0  0  0  0  0  0  0  0  0  0  0
   24.2734  -20.7949  -12.7181 C   0  0  0  0  0  0  0  0  0  0  0  0
   24.2652  -21.2984  -11.4724 N   0  0  0  0  0  0  0  0  0  0  0  0
   25.1665  -20.6269  -10.7336 C   0  0  0  0  0  0  0  0  0  0  0  0
   25.7250  -19.7174  -11.5185 N   0  0  0  0  0  0  0  0  0  0  0  0
   23.3785  -19.3455  -15.1758 C   0  0  0  0  0  0  0  0  0  0  0  0
   22.6339  -18.3156  -14.9534 O   0  0  0  0  0  0  0  0  0  0  0  0
   22.6325  -20.5423  -15.4081 N   0  0  0  0  0  0  0  0  0  0  0  0
   21.1636  -20.5236  -15.3662 C   0  0  1  0  0  0  0  0  0  0  0  0
   20.6167  -21.6543  -16.2075 C   0  0  0  0  0  0  0  0  0  0  0  0
   19.1443  -21.6647  -16.2544 C   0  0  0  0  0  0  0  0  0  0  0  0
   18.4868  -20.5721  -16.1038 O   0  0  0  0  0  0  0  0  0  0  0  0
   20.7453  -20.7025  -13.9647 C   0  0  0  0  0  0  0  0  0  0  0  0
   21.3438  -21.5012  -13.2222 O   0  0  0  0  0  0  0  0  0  0  0  0
   18.3536  -22.7900  -16.4516 O   0  0  0  0  0  0  0  0  0  0  0  0
   19.6918  -19.9925  -13.4573 O   0  0  0  0  0  0  0  0  0  0  0  0
  2  4  1  0
  2  1  1  6
  3  2  1  0
  4  5  1  1
  4  6  1  0
  6  7  2  0
  8  6  1  0
  8  9  1  0
  9 16  1  0
  9 10  1  1
 10 11  1  0
 11 12  2  0
 12 13  1  0
 14 13  1  0
 15 11  1  0
 15 14  2  0
 16 17  2  0
 18 19  1  0
 18 16  1  0
 19 23  1  0
 20 21  1  0
 19 20  1  6
 21 22  2  0
 23 24  2  0
 23 26  1  0
 25 21  1  0
M  END
$$$$
