VHD.pdb
     RDKit          3D

 26 26  0  0  1  0  0  0  0  0999 V2000
   16.4475  -12.2441  -19.2637 C   0  0  0  0  0  0  0  0  0  0  0  0
   17.8982  -12.6346  -19.2653 C   0  0  1  0  0  0  0  0  0  0  0  0
   18.1487  -13.5613  -20.4242 C   0  0  0  0  0  0  0  0  0  0  0  0
   18.7578  -11.4034  -19.4282 C   0  0  2  0  0  0  0  0  0  0  0  0
   20.1328  -11.7134  -19.6782 N   0  0  0  0  0  0  0  0  0  0  0  0
   18.6698  -10.5425  -18.2229 C   0  0  0  0  0  0  0  0  0  0  0  0
   17.5494  -10.1516  -17.7806 O   0  0  0  0  0  0  0  0  0  0  0  0
   19.8443  -10.1401  -17.5412 N   0  0  0  0  0  0  0  0  0  0  0  0
   19.7818   -9.2138  -16.3718 C   0  0  1  0  0  0  0  0  0  0  0  0
   20.6543   -9.7270  -15.3071 C   0  0  0  0  0  0  0  0  0  0  0  0
   20.8734   -8.8245  -14.1641 C   0  0  0  0  0  0  0  0  0  0  0  0
   20.3645   -7.5482  -13.9554 C   0  0  0  0  0  0  0  0  0  0  0  0
   20.8532   -7.0674  -12.7998 N   0  0  0  0  0  0  0  0  0  0  0  0
   21.6617   -7.9956  -12.2578 C   0  0  0  0  0  0  0  0  0  0  0  0
   21.6705   -9.0396  -13.0735 N   0  0  0  0  0  0  0  0  0  0  0  0
   19.9345   -7.8865  -16.8998 C   0  0  0  0  0  0  0  0  0  0  0  0
   20.7754   -7.7120  -17.8626 O   0  0  0  0  0  0  0  0  0  0  0  0
   19.2656   -6.6852  -16.5094 N   0  0  0  0  0  0  0  0  0  0  0  0
   19.5819   -5.4098  -17.1673 C   0  0  1  0  0  0  0  0  0  0  0  0
   18.3075   -4.6345  -17.4122 C   0  0  0  0  0  0  0  0  0  0  0  0
   18.5522   -3.3291  -18.0499 C   0  0  0  0  0  0  0  0  0  0  0  0
   19.5687   -3.1671  -18.8174 O   0  0  0  0  0  0  0  0  0  0  0  0
   20.4642   -4.6414  -16.2715 C   0  0  0  0  0  0  0  0  0  0  0  0
   20.1775   -4.4991  -15.0695 O   0  0  0  0  0  0  0  0  0  0  0  0
   17.7596   -2.1982  -17.8975 O   0  0  0  0  0  0  0  0  0  0  0  0
   21.6135   -4.0723  -16.7476 O   0  0  0  0  0  0  0  0  0  0  0  0
  2  4  1  0
  2  1  1  6
  3  2  1  0
  4  5  1  1
  4  6  1  0
  6  7  2  0
  8  6  1  0
  8  9  1  0
  9 16  1  0
  9 10  1  1
 10 11  1  0
 11 12  2  0
 12 13  1  0
 14 13  1  0
 15 11  1  0
 15 14  2  0
 16 17  2  0
 18 19  1  0
 18 16  1  0
 19 23  1  0
 20 21  1  0
 19 20  1  1
 21 22  2  0
 23 24  2  0
 23 26  1  0
 25 21  1  0
M  END
$$$$
