VHD.pdb
     RDKit          3D

 26 26  0  0  1  0  0  0  0  0999 V2000
   24.2257  -10.5101  -22.8615 C   0  0  0  0  0  0  0  0  0  0  0  0
   24.1834  -10.6082  -21.3629 C   0  0  1  0  0  0  0  0  0  0  0  0
   25.3585  -11.4252  -20.8980 C   0  0  0  0  0  0  0  0  0  0  0  0
   24.2773   -9.2272  -20.7584 C   0  0  2  0  0  0  0  0  0  0  0  0
   25.4940   -8.5529  -21.0966 N   0  0  0  0  0  0  0  0  0  0  0  0
   24.1592   -9.2954  -19.2808 C   0  0  0  0  0  0  0  0  0  0  0  0
   23.1531   -9.8328  -18.7307 O   0  0  0  0  0  0  0  0  0  0  0  0
   25.1757   -8.7574  -18.4542 N   0  0  0  0  0  0  0  0  0  0  0  0
   25.0348   -8.7368  -16.9679 C   0  0  1  0  0  0  0  0  0  0  0  0
   26.2860   -9.2110  -16.3615 C   0  0  0  0  0  0  0  0  0  0  0  0
   26.4866  -10.6701  -16.3579 C   0  0  0  0  0  0  0  0  0  0  0  0
   25.6082  -11.6684  -16.7620 C   0  0  0  0  0  0  0  0  0  0  0  0
   26.1805  -12.8653  -16.5494 N   0  0  0  0  0  0  0  0  0  0  0  0
   27.4013  -12.6680  -16.0204 C   0  0  0  0  0  0  0  0  0  0  0  0
   27.5789  -11.3598  -15.9084 N   0  0  0  0  0  0  0  0  0  0  0  0
   24.4701   -7.4587  -16.6338 C   0  0  0  0  0  0  0  0  0  0  0  0
   25.0609   -6.4018  -17.0792 O   0  0  0  0  0  0  0  0  0  0  0  0
   23.3046   -7.1700  -15.8584 N   0  0  0  0  0  0  0  0  0  0  0  0
   22.8772   -5.7800  -15.6467 C   0  0  1  0  0  0  0  0  0  0  0  0
   22.1479   -5.2802  -16.8728 C   0  0  0  0  0  0  0  0  0  0  0  0
   21.6295   -3.9114  -16.7050 C   0  0  0  0  0  0  0  0  0  0  0  0
   22.3181   -3.0350  -16.0673 O   0  0  0  0  0  0  0  0  0  0  0  0
   21.9696   -5.7541  -14.4862 C   0  0  0  0  0  0  0  0  0  0  0  0
   21.5772   -6.8134  -13.9652 O   0  0  0  0  0  0  0  0  0  0  0  0
   20.4115   -3.4477  -17.1865 O   0  0  0  0  0  0  0  0  0  0  0  0
   21.5438   -4.5641  -13.9626 O   0  0  0  0  0  0  0  0  0  0  0  0
  2  4  1  0
  2  1  1  6
  3  2  1  0
  4  5  1  1
  4  6  1  0
  6  7  2  0
  8  6  1  0
  8  9  1  0
  9 16  1  0
  9 10  1  1
 10 11  1  0
 11 12  2  0
 12 13  1  0
 14 13  1  0
 15 11  1  0
 15 14  2  0
 16 17  2  0
 18 19  1  0
 18 16  1  0
 19 23  1  0
 20 21  1  0
 19 20  1  6
 21 22  2  0
 23 24  2  0
 23 26  1  0
 25 21  1  0
M  END
$$$$
