VHD.pdb
     RDKit          3D

 26 26  0  0  1  0  0  0  0  0999 V2000
   24.0311   -9.6080  -20.9153 C   0  0  0  0  0  0  0  0  0  0  0  0
   23.7581  -11.0242  -21.3362 C   0  0  1  0  0  0  0  0  0  0  0  0
   24.9669  -11.5563  -22.0575 C   0  0  0  0  0  0  0  0  0  0  0  0
   23.5001  -11.8779  -20.1173 C   0  0  2  0  0  0  0  0  0  0  0  0
   23.3395  -13.2650  -20.4328 N   0  0  0  0  0  0  0  0  0  0  0  0
   22.2928  -11.4054  -19.3954 C   0  0  0  0  0  0  0  0  0  0  0  0
   21.1428  -11.8479  -19.6877 O   0  0  0  0  0  0  0  0  0  0  0  0
   22.4056  -10.4453  -18.3604 N   0  0  0  0  0  0  0  0  0  0  0  0
   21.2242  -10.0537  -17.5355 C   0  0  1  0  0  0  0  0  0  0  0  0
   20.6040  -11.2649  -16.9817 C   0  0  0  0  0  0  0  0  0  0  0  0
   19.4584  -11.0472  -16.0821 C   0  0  0  0  0  0  0  0  0  0  0  0
   18.9300   -9.8462  -15.6240 C   0  0  0  0  0  0  0  0  0  0  0  0
   17.9115  -10.1086  -14.7877 N   0  0  0  0  0  0  0  0  0  0  0  0
   17.7681  -11.4426  -14.6934 C   0  0  0  0  0  0  0  0  0  0  0  0
   18.6909  -11.9969  -15.4656 N   0  0  0  0  0  0  0  0  0  0  0  0
   21.6602   -8.9750  -16.6927 C   0  0  0  0  0  0  0  0  0  0  0  0
   22.7786   -9.1129  -16.0645 O   0  0  0  0  0  0  0  0  0  0  0  0
   21.0212   -7.7217  -16.4401 N   0  0  0  0  0  0  0  0  0  0  0  0
   21.6958   -6.6904  -15.6395 C   0  0  1  0  0  0  0  0  0  0  0  0
   21.3177   -5.3200  -16.1533 C   0  0  0  0  0  0  0  0  0  0  0  0
   21.9050   -4.2324  -15.3516 C   0  0  0  0  0  0  0  0  0  0  0  0
   23.1154   -4.3218  -14.9324 O   0  0  0  0  0  0  0  0  0  0  0  0
   21.2512   -6.8350  -14.2421 C   0  0  0  0  0  0  0  0  0  0  0  0
   21.7906   -6.1773  -13.3345 O   0  0  0  0  0  0  0  0  0  0  0  0
   21.2522   -3.0632  -14.9812 O   0  0  0  0  0  0  0  0  0  0  0  0
   20.2372   -7.6952  -13.9205 O   0  0  0  0  0  0  0  0  0  0  0  0
  2  4  1  0
  2  1  1  1
  3  2  1  0
  4  5  1  6
  4  6  1  0
  6  7  2  0
  8  6  1  0
  8  9  1  0
  9 16  1  0
  9 10  1  1
 10 11  1  0
 11 12  2  0
 12 13  1  0
 14 13  1  0
 15 11  1  0
 15 14  2  0
 16 17  2  0
 18 19  1  0
 18 16  1  0
 19 23  1  0
 20 21  1  0
 19 20  1  6
 21 22  2  0
 23 24  2  0
 23 26  1  0
 25 21  1  0
M  END
$$$$
