RYS.pdb
     RDKit          3D

 30 30  0  0  1  0  0  0  0  0999 V2000
   23.6050  -20.7135  -11.7240 N   0  0  0  0  0  0  0  0  0  0  0  0
   24.5728  -20.9724  -10.7005 C   0  0  0  0  0  0  0  0  0  0  0  0
   24.2582  -20.6349   -9.4997 N   0  0  0  0  0  0  0  0  0  0  0  0
   25.8278  -21.5739  -11.0053 N   0  0  0  0  0  0  0  0  0  0  0  0
   26.1231  -21.9782  -12.3358 C   0  0  0  0  0  0  0  0  0  0  0  0
   25.4038  -23.1615  -12.8166 C   0  0  0  0  0  0  0  0  0  0  0  0
   24.3479  -23.0956  -13.8243 C   0  0  0  0  0  0  0  0  0  0  0  0
   24.6644  -23.0643  -15.2663 C   0  0  2  0  0  0  0  0  0  0  0  0
   25.8365  -23.6471  -15.7539 N   0  0  0  0  0  0  0  0  0  0  0  0
   24.4847  -21.6424  -15.7372 C   0  0  0  0  0  0  0  0  0  0  0  0
   23.3037  -21.2247  -15.8434 O   0  0  0  0  0  0  0  0  0  0  0  0
   24.9020  -20.6945   -8.6873 O   0  0  0  0  0  0  0  0  0  0  0  0
   25.1103  -12.8894  -16.4282 C   0  0  0  0  0  0  0  0  0  0  0  0
   25.2376  -14.2693  -16.1694 C   0  0  0  0  0  0  0  0  0  0  0  0
   24.1374  -15.0735  -16.1549 C   0  0  0  0  0  0  0  0  0  0  0  0
   24.2386  -16.4169  -15.9063 C   0  0  0  0  0  0  0  0  0  0  0  0
   25.4666  -17.0201  -15.6589 C   0  0  0  0  0  0  0  0  0  0  0  0
   25.6527  -18.4394  -15.3931 C   0  0  1  0  0  0  0  0  0  0  0  0
   25.2506  -19.3944  -16.4421 N   0  0  0  0  0  0  0  0  0  0  0  0
   25.5335  -20.7706  -16.0621 C   0  0  0  0  0  0  0  0  0  0  0  0
   26.0494  -19.0498  -17.6867 O   0  0  0  0  0  0  0  0  0  0  0  0
   27.2322  -19.4122  -17.8468 C   0  0  0  0  0  0  0  0  0  0  0  0
   26.5699  -16.1938  -15.6774 C   0  0  0  0  0  0  0  0  0  0  0  0
   26.4738  -14.8155  -15.9303 O   0  0  0  0  0  0  0  0  0  0  0  0
   25.1036  -19.4271  -21.4966 C   0  0  0  0  0  0  0  0  0  0  0  0
   25.0396  -18.0995  -21.0827 C   0  0  2  0  0  0  0  0  0  0  0  0
   25.9865  -17.8587  -19.8886 N   0  0  0  0  0  0  0  0  0  0  0  0
   25.3766  -18.2887  -18.6716 C   0  0  0  0  0  0  0  0  0  0  0  0
   26.3720  -16.4083  -19.8832 O   0  0  0  0  0  0  0  0  0  0  0  0
   25.6211  -15.5148  -19.4582 O   0  0  0  0  0  0  0  0  0  0  0  0
  2  1  1  0
  2  3  2  0
  4  2  1  0
  5  6  1  0
  5  4  1  0
  7  6  1  0
  8  7  1  0
  8  9  1  1
 10 11  2  0
 10  8  1  0
 12 13  1  0
 13 14  2  0
 14 15  1  0
 16 17  1  0
 16 15  2  0
 18 17  1  1
 18 19  1  0
 19 10  1  0
 20 18  1  0
 21 20  2  0
 22 16  1  0
 23 22  2  0
 23 13  1  0
 25 24  1  0
 26 25  1  6
 26 27  1  0
 27 20  1  0
 28 26  1  0
 28 30  1  0
 29 28  2  0
M  END
$$$$
