RYS.pdb
     RDKit          3D

 30 30  0  0  1  0  0  0  0  0999 V2000
   19.9302  -23.7011   -9.7331 N   0  0  0  0  0  0  0  0  0  0  0  0
   20.0185  -22.7747   -8.6444 C   0  0  0  0  0  0  0  0  0  0  0  0
   19.5190  -23.1463   -7.5187 N   0  0  0  0  0  0  0  0  0  0  0  0
   20.6301  -21.4984   -8.8079 N   0  0  0  0  0  0  0  0  0  0  0  0
   21.6093  -21.2985   -9.8188 C   0  0  0  0  0  0  0  0  0  0  0  0
   22.9350  -20.8857   -9.3490 C   0  0  0  0  0  0  0  0  0  0  0  0
   24.0668  -20.6724  -10.2481 C   0  0  0  0  0  0  0  0  0  0  0  0
   23.9849  -21.0209  -11.6807 C   0  0  2  0  0  0  0  0  0  0  0  0
   24.1030  -22.3476  -12.1017 N   0  0  0  0  0  0  0  0  0  0  0  0
   24.9115  -20.0919  -12.4251 C   0  0  0  0  0  0  0  0  0  0  0  0
   24.8409  -18.8700  -12.1381 O   0  0  0  0  0  0  0  0  0  0  0  0
   19.5426  -22.5763   -6.6512 O   0  0  0  0  0  0  0  0  0  0  0  0
   30.4279  -21.1382   -8.9110 C   0  0  0  0  0  0  0  0  0  0  0  0
   29.8622  -20.8670  -10.1734 C   0  0  0  0  0  0  0  0  0  0  0  0
   29.7022  -21.8653  -11.0872 C   0  0  0  0  0  0  0  0  0  0  0  0
   29.1541  -21.6238  -12.3194 C   0  0  0  0  0  0  0  0  0  0  0  0
   28.7361  -20.3514  -12.6925 C   0  0  0  0  0  0  0  0  0  0  0  0
   28.1408  -20.0201  -13.9792 C   0  0  2  0  0  0  0  0  0  0  0  0
   26.7497  -19.5314  -13.9883 N   0  0  0  0  0  0  0  0  0  0  0  0
   25.8304  -20.4964  -13.4036 C   0  0  0  0  0  0  0  0  0  0  0  0
   26.3691  -19.3010  -15.4401 O   0  0  0  0  0  0  0  0  0  0  0  0
   25.9043  -20.2046  -16.1636 C   0  0  0  0  0  0  0  0  0  0  0  0
   28.9042  -19.3524  -11.7575 C   0  0  0  0  0  0  0  0  0  0  0  0
   29.4664  -19.5922  -10.4928 O   0  0  0  0  0  0  0  0  0  0  0  0
   24.9313  -15.6905  -16.4188 C   0  0  0  0  0  0  0  0  0  0  0  0
   25.9509  -16.0558  -17.2934 C   0  0  2  0  0  0  0  0  0  0  0  0
   26.1802  -17.5809  -17.2504 N   0  0  0  0  0  0  0  0  0  0  0  0
   26.5678  -17.9920  -15.9393 C   0  0  0  0  0  0  0  0  0  0  0  0
   27.1857  -17.9321  -18.3077 O   0  0  0  0  0  0  0  0  0  0  0  0
   28.4089  -17.7891  -18.1461 O   0  0  0  0  0  0  0  0  0  0  0  0
  2  1  1  0
  2  3  2  0
  4  2  1  0
  5  6  1  0
  5  4  1  0
  7  6  1  0
  8  7  1  0
  8  9  1  1
 10 11  2  0
 10  8  1  0
 12 13  1  0
 13 14  2  0
 14 15  1  0
 16 17  1  0
 16 15  2  0
 18 17  1  1
 18 19  1  0
 19 10  1  0
 20 18  1  0
 21 20  2  0
 22 16  1  0
 23 22  2  0
 23 13  1  0
 25 24  1  0
 26 25  1  1
 26 27  1  0
 27 20  1  0
 28 26  1  0
 28 30  1  0
 29 28  2  0
M  END
$$$$
