RYS.pdb
     RDKit          3D

 30 30  0  0  1  0  0  0  0  0999 V2000
   29.5286  -24.7904  -23.3847 N   0  0  0  0  0  0  0  0  0  0  0  0
   30.2406  -25.2112  -22.2153 C   0  0  0  0  0  0  0  0  0  0  0  0
   31.1624  -26.0936  -22.3781 N   0  0  0  0  0  0  0  0  0  0  0  0
   29.9347  -24.6754  -20.9312 N   0  0  0  0  0  0  0  0  0  0  0  0
   28.6282  -24.8175  -20.3893 C   0  0  0  0  0  0  0  0  0  0  0  0
   27.5421  -24.9333  -21.3670 C   0  0  0  0  0  0  0  0  0  0  0  0
   26.1389  -25.0724  -20.9844 C   0  0  0  0  0  0  0  0  0  0  0  0
   25.3773  -23.9335  -20.4335 C   0  0  2  0  0  0  0  0  0  0  0  0
   25.9890  -22.6936  -20.2345 N   0  0  0  0  0  0  0  0  0  0  0  0
   24.6532  -24.4264  -19.2053 C   0  0  0  0  0  0  0  0  0  0  0  0
   24.0938  -25.5492  -19.2885 O   0  0  0  0  0  0  0  0  0  0  0  0
   31.7995  -26.4199  -21.6261 O   0  0  0  0  0  0  0  0  0  0  0  0
   28.3365  -28.9849  -16.6796 C   0  0  0  0  0  0  0  0  0  0  0  0
   27.4394  -27.9210  -16.4547 C   0  0  0  0  0  0  0  0  0  0  0  0
   26.1702  -28.1673  -16.0236 C   0  0  0  0  0  0  0  0  0  0  0  0
   25.2826  -27.1483  -15.7982 C   0  0  0  0  0  0  0  0  0  0  0  0
   25.6362  -25.8186  -15.9977 C   0  0  0  0  0  0  0  0  0  0  0  0
   24.7510  -24.6845  -15.7743 C   0  0  2  0  0  0  0  0  0  0  0  0
   23.8422  -24.2950  -16.8682 N   0  0  0  0  0  0  0  0  0  0  0  0
   24.5626  -23.7228  -17.9960 C   0  0  0  0  0  0  0  0  0  0  0  0
   22.8921  -23.2522  -16.3066 O   0  0  0  0  0  0  0  0  0  0  0  0
   23.1920  -22.0440  -16.2279 C   0  0  0  0  0  0  0  0  0  0  0  0
   26.9232  -25.5856  -16.4334 C   0  0  0  0  0  0  0  0  0  0  0  0
   27.8382  -26.6251  -16.6678 O   0  0  0  0  0  0  0  0  0  0  0  0
   18.2680  -22.4598  -15.1848 C   0  0  0  0  0  0  0  0  0  0  0  0
   19.2281  -23.3135  -15.7205 C   0  0  2  0  0  0  0  0  0  0  0  0
   20.6414  -22.8891  -15.2701 N   0  0  0  0  0  0  0  0  0  0  0  0
   21.6305  -23.7238  -15.8727 C   0  0  0  0  0  0  0  0  0  0  0  0
   20.6787  -22.9069  -13.7699 O   0  0  0  0  0  0  0  0  0  0  0  0
   21.3348  -23.7405  -13.1237 O   0  0  0  0  0  0  0  0  0  0  0  0
  2  1  1  0
  2  3  2  0
  4  2  1  0
  5  6  1  0
  5  4  1  0
  7  6  1  0
  8  7  1  0
  8  9  1  1
 10 11  2  0
 10  8  1  0
 12 13  1  0
 13 14  2  0
 14 15  1  0
 16 17  1  0
 16 15  2  0
 18 17  1  6
 18 19  1  0
 19 10  1  0
 20 18  1  0
 21 20  2  0
 22 16  1  0
 23 22  2  0
 23 13  1  0
 25 24  1  0
 26 25  1  6
 26 27  1  0
 27 20  1  0
 28 26  1  0
 28 30  1  0
 29 28  2  0
M  END
$$$$
