RYS.pdb
     RDKit          3D

 30 30  0  0  1  0  0  0  0  0999 V2000
   24.5116  -14.9308  -20.2670 N   0  0  0  0  0  0  0  0  0  0  0  0
   24.7782  -15.6458  -19.0549 C   0  0  0  0  0  0  0  0  0  0  0  0
   24.6493  -16.9252  -19.0905 N   0  0  0  0  0  0  0  0  0  0  0  0
   25.1651  -14.9645  -17.8650 N   0  0  0  0  0  0  0  0  0  0  0  0
   24.6142  -13.6903  -17.5588 C   0  0  0  0  0  0  0  0  0  0  0  0
   24.9292  -12.6160  -18.5050 C   0  0  0  0  0  0  0  0  0  0  0  0
   24.4695  -11.2404  -18.3285 C   0  0  0  0  0  0  0  0  0  0  0  0
   23.8691  -10.7892  -17.0571 C   0  0  2  0  0  0  0  0  0  0  0  0
   22.9693  -11.6018  -16.3632 N   0  0  0  0  0  0  0  0  0  0  0  0
   23.3388   -9.3943  -17.2781 C   0  0  0  0  0  0  0  0  0  0  0  0
   24.1174   -8.5707  -17.8220 O   0  0  0  0  0  0  0  0  0  0  0  0
   24.8279  -17.5541  -18.2838 O   0  0  0  0  0  0  0  0  0  0  0  0
   22.2562   -8.4107  -23.5926 C   0  0  0  0  0  0  0  0  0  0  0  0
   21.8435   -8.1969  -22.2617 C   0  0  0  0  0  0  0  0  0  0  0  0
   21.4070   -9.2383  -21.4985 C   0  0  0  0  0  0  0  0  0  0  0  0
   21.0021   -9.0529  -20.2028 C   0  0  0  0  0  0  0  0  0  0  0  0
   21.0190   -7.7962  -19.6085 C   0  0  0  0  0  0  0  0  0  0  0  0
   20.6102   -7.5234  -18.2380 C   0  0  2  0  0  0  0  0  0  0  0  0
   21.6408   -7.5928  -17.1858 N   0  0  0  0  0  0  0  0  0  0  0  0
   22.0542   -8.9626  -16.9190 C   0  0  0  0  0  0  0  0  0  0  0  0
   21.0299   -7.0052  -15.9259 O   0  0  0  0  0  0  0  0  0  0  0  0
   20.3174   -7.6738  -15.1506 C   0  0  0  0  0  0  0  0  0  0  0  0
   21.4634   -6.7533  -20.3930 C   0  0  0  0  0  0  0  0  0  0  0  0
   21.8788   -6.9354  -21.7223 O   0  0  0  0  0  0  0  0  0  0  0  0
   22.8455   -3.6602  -14.2612 C   0  0  0  0  0  0  0  0  0  0  0  0
   21.9705   -4.5194  -13.6025 C   0  0  1  0  0  0  0  0  0  0  0  0
   20.8137   -4.9335  -14.5357 N   0  0  0  0  0  0  0  0  0  0  0  0
   21.3143   -5.6432  -15.6688 C   0  0  0  0  0  0  0  0  0  0  0  0
   20.0410   -3.6990  -14.8981 O   0  0  0  0  0  0  0  0  0  0  0  0
   19.9574   -3.2762  -16.0631 O   0  0  0  0  0  0  0  0  0  0  0  0
  2  1  1  0
  2  3  2  0
  4  2  1  0
  5  6  1  0
  5  4  1  0
  7  6  1  0
  8  7  1  0
  8  9  1  6
 10 11  2  0
 10  8  1  0
 12 13  1  0
 13 14  2  0
 14 15  1  0
 16 17  1  0
 16 15  2  0
 18 17  1  6
 18 19  1  0
 19 10  1  0
 20 18  1  0
 21 20  2  0
 22 16  1  0
 23 22  2  0
 23 13  1  0
 25 24  1  0
 26 25  1  1
 26 27  1  0
 27 20  1  0
 28 26  1  0
 28 30  1  0
 29 28  2  0
M  END
$$$$
