RYS.pdb
     RDKit          3D

 30 30  0  0  1  0  0  0  0  0999 V2000
   23.2459  -29.5197  -16.6677 N   0  0  0  0  0  0  0  0  0  0  0  0
   24.0998  -28.5047  -17.2081 C   0  0  0  0  0  0  0  0  0  0  0  0
   25.1707  -28.8974  -17.8026 N   0  0  0  0  0  0  0  0  0  0  0  0
   23.7740  -27.1231  -17.0863 N   0  0  0  0  0  0  0  0  0  0  0  0
   22.5851  -26.7246  -16.4167 C   0  0  0  0  0  0  0  0  0  0  0  0
   21.6101  -25.9929  -17.2307 C   0  0  0  0  0  0  0  0  0  0  0  0
   21.4301  -24.5454  -17.1465 C   0  0  0  0  0  0  0  0  0  0  0  0
   21.0385  -23.8933  -15.8809 C   0  0  2  0  0  0  0  0  0  0  0  0
   19.7249  -23.9725  -15.4123 N   0  0  0  0  0  0  0  0  0  0  0  0
   21.5537  -22.4761  -15.9247 C   0  0  0  0  0  0  0  0  0  0  0  0
   20.8231  -21.6239  -16.4908 O   0  0  0  0  0  0  0  0  0  0  0  0
   25.8483  -28.2628  -18.2676 O   0  0  0  0  0  0  0  0  0  0  0  0
   18.6772  -19.1119  -11.1494 C   0  0  0  0  0  0  0  0  0  0  0  0
   19.8444  -19.3394  -11.9065 C   0  0  0  0  0  0  0  0  0  0  0  0
   20.6442  -20.4096  -11.6376 C   0  0  0  0  0  0  0  0  0  0  0  0
   21.7825  -20.6497  -12.3613 C   0  0  0  0  0  0  0  0  0  0  0  0
   22.1721  -19.8142  -13.4020 C   0  0  0  0  0  0  0  0  0  0  0  0
   23.3626  -20.0080  -14.2174 C   0  0  2  0  0  0  0  0  0  0  0  0
   23.2006  -20.6691  -15.5254 N   0  0  0  0  0  0  0  0  0  0  0  0
   22.7774  -22.0547  -15.3857 C   0  0  0  0  0  0  0  0  0  0  0  0
   24.5538  -20.6312  -16.2132 O   0  0  0  0  0  0  0  0  0  0  0  0
   25.4964  -21.3778  -15.8815 C   0  0  0  0  0  0  0  0  0  0  0  0
   21.3528  -18.7364  -13.6621 C   0  0  0  0  0  0  0  0  0  0  0  0
   20.1851  -18.4832  -12.9237 O   0  0  0  0  0  0  0  0  0  0  0  0
   24.7371  -20.0331  -20.1036 C   0  0  0  0  0  0  0  0  0  0  0  0
   25.5512  -19.0966  -19.4726 C   0  0  2  0  0  0  0  0  0  0  0  0
   25.8875  -19.5518  -18.0373 N   0  0  0  0  0  0  0  0  0  0  0  0
   24.6952  -19.6960  -17.2656 C   0  0  0  0  0  0  0  0  0  0  0  0
   26.8620  -18.5715  -17.4526 O   0  0  0  0  0  0  0  0  0  0  0  0
   26.5852  -17.8452  -16.4838 O   0  0  0  0  0  0  0  0  0  0  0  0
  2  1  1  0
  2  3  2  0
  4  2  1  0
  5  6  1  0
  5  4  1  0
  7  6  1  0
  8  7  1  0
  8  9  1  6
 10 11  2  0
 10  8  1  0
 12 13  1  0
 13 14  2  0
 14 15  1  0
 16 17  1  0
 16 15  2  0
 18 17  1  6
 18 19  1  0
 19 10  1  0
 20 18  1  0
 21 20  2  0
 22 16  1  0
 23 22  2  0
 23 13  1  0
 25 24  1  0
 26 25  1  6
 26 27  1  0
 27 20  1  0
 28 26  1  0
 28 30  1  0
 29 28  2  0
M  END
$$$$
