RYS.pdb
     RDKit          3D

 30 30  0  0  1  0  0  0  0  0999 V2000
   31.6351  -22.4034   -9.9179 N   0  0  0  0  0  0  0  0  0  0  0  0
   30.9081  -21.8676   -8.8063 C   0  0  0  0  0  0  0  0  0  0  0  0
   31.5745  -21.6295   -7.7321 N   0  0  0  0  0  0  0  0  0  0  0  0
   29.5085  -21.6152   -8.8912 N   0  0  0  0  0  0  0  0  0  0  0  0
   28.8029  -21.8935  -10.0935 C   0  0  0  0  0  0  0  0  0  0  0  0
   28.5671  -20.7456  -10.9741 C   0  0  0  0  0  0  0  0  0  0  0  0
   27.2313  -20.3202  -11.3859 C   0  0  0  0  0  0  0  0  0  0  0  0
   26.0478  -21.1704  -11.1475 C   0  0  2  0  0  0  0  0  0  0  0  0
   26.1701  -22.5595  -11.0658 N   0  0  0  0  0  0  0  0  0  0  0  0
   24.9785  -20.7389  -12.1203 C   0  0  0  0  0  0  0  0  0  0  0  0
   24.8819  -19.5062  -12.3475 O   0  0  0  0  0  0  0  0  0  0  0  0
   31.1531  -21.2962   -6.8436 O   0  0  0  0  0  0  0  0  0  0  0  0
   28.4155  -20.7004  -17.5667 C   0  0  0  0  0  0  0  0  0  0  0  0
   27.1674  -20.9323  -16.9537 C   0  0  0  0  0  0  0  0  0  0  0  0
   26.2032  -19.9691  -16.9646 C   0  0  0  0  0  0  0  0  0  0  0  0
   24.9833  -20.1738  -16.3756 C   0  0  0  0  0  0  0  0  0  0  0  0
   24.6737  -21.3720  -15.7420 C   0  0  0  0  0  0  0  0  0  0  0  0
   23.3996  -21.6638  -15.1007 C   0  0  2  0  0  0  0  0  0  0  0  0
   23.1576  -21.0964  -13.7614 N   0  0  0  0  0  0  0  0  0  0  0  0
   24.0968  -21.6101  -12.7754 C   0  0  0  0  0  0  0  0  0  0  0  0
   21.7488  -21.4943  -13.3582 O   0  0  0  0  0  0  0  0  0  0  0  0
   21.5098  -22.4951  -12.6531 C   0  0  0  0  0  0  0  0  0  0  0  0
   25.6588  -22.3364  -15.7398 C   0  0  0  0  0  0  0  0  0  0  0  0
   26.9122  -22.1333  -16.3404 O   0  0  0  0  0  0  0  0  0  0  0  0
   18.9594  -18.4913  -12.9461 C   0  0  0  0  0  0  0  0  0  0  0  0
   18.5364  -19.5407  -13.7570 C   0  0  2  0  0  0  0  0  0  0  0  0
   19.3381  -20.8218  -13.4464 N   0  0  0  0  0  0  0  0  0  0  0  0
   20.7049  -20.6612  -13.8258 C   0  0  0  0  0  0  0  0  0  0  0  0
   18.6605  -21.9739  -14.1289 O   0  0  0  0  0  0  0  0  0  0  0  0
   19.0144  -22.3987  -15.2413 O   0  0  0  0  0  0  0  0  0  0  0  0
  2  1  1  0
  2  3  2  0
  4  2  1  0
  5  6  1  0
  5  4  1  0
  7  6  1  0
  8  7  1  0
  8  9  1  6
 10 11  2  0
 10  8  1  0
 12 13  1  0
 13 14  2  0
 14 15  1  0
 16 17  1  0
 16 15  2  0
 18 17  1  6
 18 19  1  0
 19 10  1  0
 20 18  1  0
 21 20  2  0
 22 16  1  0
 23 22  2  0
 23 13  1  0
 25 24  1  0
 26 25  1  1
 26 27  1  0
 27 20  1  0
 28 26  1  0
 28 30  1  0
 29 28  2  0
M  END
$$$$
