RYS.pdb
     RDKit          3D

 30 30  0  0  1  0  0  0  0  0999 V2000
   30.7882  -26.3017  -16.0023 N   0  0  0  0  0  0  0  0  0  0  0  0
   31.4840  -25.4871  -16.9529 C   0  0  0  0  0  0  0  0  0  0  0  0
   32.2611  -26.0902  -17.7817 N   0  0  0  0  0  0  0  0  0  0  0  0
   31.3213  -24.0718  -16.9725 N   0  0  0  0  0  0  0  0  0  0  0  0
   30.1415  -23.4799  -16.4445 C   0  0  0  0  0  0  0  0  0  0  0  0
   29.4864  -22.4893  -17.3037 C   0  0  0  0  0  0  0  0  0  0  0  0
   28.2986  -21.7431  -16.8949 C   0  0  0  0  0  0  0  0  0  0  0  0
   27.1869  -22.4019  -16.1805 C   0  0  2  0  0  0  0  0  0  0  0  0
   26.6066  -23.5693  -16.6821 N   0  0  0  0  0  0  0  0  0  0  0  0
   26.1656  -21.3397  -15.8569 C   0  0  0  0  0  0  0  0  0  0  0  0
   26.5915  -20.2907  -15.3104 O   0  0  0  0  0  0  0  0  0  0  0  0
   32.9000  -25.6073  -18.4425 O   0  0  0  0  0  0  0  0  0  0  0  0
   27.1200  -16.4280  -19.7856 C   0  0  0  0  0  0  0  0  0  0  0  0
   26.1957  -17.2185  -19.0728 C   0  0  0  0  0  0  0  0  0  0  0  0
   25.3918  -16.6567  -18.1265 C   0  0  0  0  0  0  0  0  0  0  0  0
   24.4863  -17.4063  -17.4228 C   0  0  0  0  0  0  0  0  0  0  0  0
   24.3460  -18.7719  -17.6425 C   0  0  0  0  0  0  0  0  0  0  0  0
   23.4039  -19.6307  -16.9392 C   0  0  2  0  0  0  0  0  0  0  0  0
   23.8913  -20.3628  -15.7558 N   0  0  0  0  0  0  0  0  0  0  0  0
   24.7926  -21.4462  -16.1197 C   0  0  0  0  0  0  0  0  0  0  0  0
   22.6733  -20.9441  -15.0600 O   0  0  0  0  0  0  0  0  0  0  0  0
   22.2390  -22.0864  -15.3098 C   0  0  0  0  0  0  0  0  0  0  0  0
   25.1657  -19.3255  -18.6028 C   0  0  0  0  0  0  0  0  0  0  0  0
   26.0971  -18.5636  -19.3273 O   0  0  0  0  0  0  0  0  0  0  0  0
   21.9845  -20.6189  -11.1529 C   0  0  0  0  0  0  0  0  0  0  0  0
   21.0160  -19.9452  -11.8916 C   0  0  2  0  0  0  0  0  0  0  0  0
   20.9233  -20.5247  -13.3185 N   0  0  0  0  0  0  0  0  0  0  0  0
   22.0469  -20.1162  -14.0986 C   0  0  0  0  0  0  0  0  0  0  0  0
   19.6061  -20.1104  -13.9064 O   0  0  0  0  0  0  0  0  0  0  0  0
   19.5147  -19.3226  -14.8623 O   0  0  0  0  0  0  0  0  0  0  0  0
  2  1  1  0
  2  3  2  0
  4  2  1  0
  5  6  1  0
  5  4  1  0
  7  6  1  0
  8  7  1  0
  8  9  1  6
 10 11  2  0
 10  8  1  0
 12 13  1  0
 13 14  2  0
 14 15  1  0
 16 17  1  0
 16 15  2  0
 18 17  1  1
 18 19  1  0
 19 10  1  0
 20 18  1  0
 21 20  2  0
 22 16  1  0
 23 22  2  0
 23 13  1  0
 25 24  1  0
 26 25  1  1
 26 27  1  0
 27 20  1  0
 28 26  1  0
 28 30  1  0
 29 28  2  0
M  END
$$$$
