RYS.pdb
     RDKit          3D

 30 30  0  0  1  0  0  0  0  0999 V2000
   19.1469  -17.0994  -22.0021 N   0  0  0  0  0  0  0  0  0  0  0  0
   17.8795  -16.4325  -22.0203 C   0  0  0  0  0  0  0  0  0  0  0  0
   17.0329  -16.8103  -22.9121 N   0  0  0  0  0  0  0  0  0  0  0  0
   17.5770  -15.3950  -21.0919 N   0  0  0  0  0  0  0  0  0  0  0  0
   18.6238  -14.6364  -20.5006 C   0  0  0  0  0  0  0  0  0  0  0  0
   18.2000  -13.5533  -19.6085 C   0  0  0  0  0  0  0  0  0  0  0  0
   19.1415  -12.7357  -18.8469 C   0  0  0  0  0  0  0  0  0  0  0  0
   19.6332  -13.1648  -17.5223 C   0  0  2  0  0  0  0  0  0  0  0  0
   19.0562  -14.2530  -16.8635 N   0  0  0  0  0  0  0  0  0  0  0  0
   19.7138  -11.9360  -16.6508 C   0  0  0  0  0  0  0  0  0  0  0  0
   18.7098  -11.6778  -15.9396 O   0  0  0  0  0  0  0  0  0  0  0  0
   16.0580  -16.4596  -22.9794 O   0  0  0  0  0  0  0  0  0  0  0  0
   22.4185   -4.1768  -13.1191 C   0  0  0  0  0  0  0  0  0  0  0  0
   22.3213   -5.4737  -13.6630 C   0  0  0  0  0  0  0  0  0  0  0  0
   21.7951   -6.4933  -12.9274 C   0  0  0  0  0  0  0  0  0  0  0  0
   21.6908   -7.7608  -13.4366 C   0  0  0  0  0  0  0  0  0  0  0  0
   22.1154   -8.0639  -14.7253 C   0  0  0  0  0  0  0  0  0  0  0  0
   22.0314   -9.3832  -15.3355 C   0  0  1  0  0  0  0  0  0  0  0  0
   20.7234   -9.8163  -15.8606 N   0  0  0  0  0  0  0  0  0  0  0  0
   20.8181  -11.0748  -16.5856 C   0  0  0  0  0  0  0  0  0  0  0  0
   20.2446   -8.7323  -16.8100 O   0  0  0  0  0  0  0  0  0  0  0  0
   20.7044   -8.5977  -17.9617 C   0  0  0  0  0  0  0  0  0  0  0  0
   22.6449   -7.0223  -15.4569 C   0  0  0  0  0  0  0  0  0  0  0  0
   22.7562   -5.7206  -14.9411 O   0  0  0  0  0  0  0  0  0  0  0  0
   16.9778   -8.1103  -18.0759 C   0  0  0  0  0  0  0  0  0  0  0  0
   17.2001   -6.9639  -17.3181 C   0  0  2  0  0  0  0  0  0  0  0  0
   18.7088   -6.7701  -17.0597 N   0  0  0  0  0  0  0  0  0  0  0  0
   19.2351   -7.8710  -16.3188 C   0  0  0  0  0  0  0  0  0  0  0  0
   18.8999   -5.4464  -16.3789 O   0  0  0  0  0  0  0  0  0  0  0  0
   19.3736   -5.3408  -15.2355 O   0  0  0  0  0  0  0  0  0  0  0  0
  2  1  1  0
  2  3  2  0
  4  2  1  0
  5  6  1  0
  5  4  1  0
  7  6  1  0
  8  7  1  0
  8  9  1  1
 10 11  2  0
 10  8  1  0
 12 13  1  0
 13 14  2  0
 14 15  1  0
 16 17  1  0
 16 15  2  0
 18 17  1  1
 18 19  1  0
 19 10  1  0
 20 18  1  0
 21 20  2  0
 22 16  1  0
 23 22  2  0
 23 13  1  0
 25 24  1  0
 26 25  1  6
 26 27  1  0
 27 20  1  0
 28 26  1  0
 28 30  1  0
 29 28  2  0
M  END
$$$$
