RYS.pdb
     RDKit          3D

 30 30  0  0  1  0  0  0  0  0999 V2000
   28.6118  -31.9089  -15.4814 N   0  0  0  0  0  0  0  0  0  0  0  0
   28.8870  -31.6932  -16.8703 C   0  0  0  0  0  0  0  0  0  0  0  0
   29.6327  -32.5598  -17.4600 N   0  0  0  0  0  0  0  0  0  0  0  0
   28.3586  -30.5652  -17.5618 N   0  0  0  0  0  0  0  0  0  0  0  0
   27.3782  -29.7419  -16.9438 C   0  0  0  0  0  0  0  0  0  0  0  0
   25.9847  -30.0498  -17.2787 C   0  0  0  0  0  0  0  0  0  0  0  0
   24.8508  -29.3276  -16.7064 C   0  0  0  0  0  0  0  0  0  0  0  0
   24.1641  -28.2581  -17.4580 C   0  0  2  0  0  0  0  0  0  0  0  0
   24.8735  -27.4266  -18.3278 N   0  0  0  0  0  0  0  0  0  0  0  0
   23.3219  -27.4842  -16.4743 C   0  0  0  0  0  0  0  0  0  0  0  0
   23.5708  -26.2576  -16.3558 O   0  0  0  0  0  0  0  0  0  0  0  0
   29.9268  -32.4992  -18.4538 O   0  0  0  0  0  0  0  0  0  0  0  0
   21.5436  -21.9024  -18.5831 C   0  0  0  0  0  0  0  0  0  0  0  0
   21.2645  -23.0470  -17.8090 C   0  0  0  0  0  0  0  0  0  0  0  0
   21.2188  -22.9667  -16.4493 C   0  0  0  0  0  0  0  0  0  0  0  0
   20.9487  -24.0664  -15.6781 C   0  0  0  0  0  0  0  0  0  0  0  0
   20.7083  -25.3120  -16.2469 C   0  0  0  0  0  0  0  0  0  0  0  0
   20.4095  -26.5218  -15.4939 C   0  0  2  0  0  0  0  0  0  0  0  0
   21.5231  -27.1907  -14.7964 N   0  0  0  0  0  0  0  0  0  0  0  0
   22.2969  -28.0364  -15.6933 C   0  0  0  0  0  0  0  0  0  0  0  0
   20.9111  -28.0533  -13.7069 O   0  0  0  0  0  0  0  0  0  0  0  0
   20.4588  -29.1943  -13.9290 C   0  0  0  0  0  0  0  0  0  0  0  0
   20.7575  -25.3771  -17.6230 C   0  0  0  0  0  0  0  0  0  0  0  0
   21.0350  -24.2543  -18.4201 O   0  0  0  0  0  0  0  0  0  0  0  0
   19.4986  -27.8132   -9.0360 C   0  0  0  0  0  0  0  0  0  0  0  0
   20.0355  -27.1591  -10.1414 C   0  0  1  0  0  0  0  0  0  0  0  0
   20.3359  -28.1648  -11.2721 N   0  0  0  0  0  0  0  0  0  0  0  0
   20.8804  -27.4929  -12.4080 C   0  0  0  0  0  0  0  0  0  0  0  0
   19.0744  -28.9199  -11.5732 O   0  0  0  0  0  0  0  0  0  0  0  0
   18.8406  -30.0493  -11.1118 O   0  0  0  0  0  0  0  0  0  0  0  0
  2  1  1  0
  2  3  2  0
  4  2  1  0
  5  6  1  0
  5  4  1  0
  7  6  1  0
  8  7  1  0
  8  9  1  1
 10 11  2  0
 10  8  1  0
 12 13  1  0
 13 14  2  0
 14 15  1  0
 16 17  1  0
 16 15  2  0
 18 17  1  6
 18 19  1  0
 19 10  1  0
 20 18  1  0
 21 20  2  0
 22 16  1  0
 23 22  2  0
 23 13  1  0
 25 24  1  0
 26 25  1  1
 26 27  1  0
 27 20  1  0
 28 26  1  0
 28 30  1  0
 29 28  2  0
M  END
$$$$
