RYS.pdb
     RDKit          3D

 30 30  0  0  1  0  0  0  0  0999 V2000
   30.5058  -23.2143  -17.3521 N   0  0  0  0  0  0  0  0  0  0  0  0
   31.0247  -22.2205  -18.2435 C   0  0  0  0  0  0  0  0  0  0  0  0
   31.9718  -22.5826  -19.0350 N   0  0  0  0  0  0  0  0  0  0  0  0
   30.5131  -20.8908  -18.2463 N   0  0  0  0  0  0  0  0  0  0  0  0
   29.2775  -20.5983  -17.6070 C   0  0  0  0  0  0  0  0  0  0  0  0
   28.0956  -21.2534  -18.1749 C   0  0  0  0  0  0  0  0  0  0  0  0
   26.7754  -21.1917  -17.5520 C   0  0  0  0  0  0  0  0  0  0  0  0
   26.6136  -21.2797  -16.0869 C   0  0  2  0  0  0  0  0  0  0  0  0
   27.4333  -22.1165  -15.3260 N   0  0  0  0  0  0  0  0  0  0  0  0
   25.1469  -21.4943  -15.8067 C   0  0  0  0  0  0  0  0  0  0  0  0
   24.3326  -20.9085  -16.5647 O   0  0  0  0  0  0  0  0  0  0  0  0
   32.4198  -21.9601  -19.7350 O   0  0  0  0  0  0  0  0  0  0  0  0
   23.5220  -28.3541  -17.3401 C   0  0  0  0  0  0  0  0  0  0  0  0
   23.3531  -27.2151  -16.5268 C   0  0  0  0  0  0  0  0  0  0  0  0
   22.2194  -26.4640  -16.6172 C   0  0  0  0  0  0  0  0  0  0  0  0
   22.0346  -25.3539  -15.8359 C   0  0  0  0  0  0  0  0  0  0  0  0
   22.9932  -24.9444  -14.9160 C   0  0  0  0  0  0  0  0  0  0  0  0
   22.8648  -23.7817  -14.0492 C   0  0  2  0  0  0  0  0  0  0  0  0
   23.2037  -22.4622  -14.6134 N   0  0  0  0  0  0  0  0  0  0  0  0
   24.6405  -22.2903  -14.7697 C   0  0  0  0  0  0  0  0  0  0  0  0
   22.6822  -21.4169  -13.6433 O   0  0  0  0  0  0  0  0  0  0  0  0
   23.2380  -21.1765  -12.5528 C   0  0  0  0  0  0  0  0  0  0  0  0
   24.1339  -25.7145  -14.8358 C   0  0  0  0  0  0  0  0  0  0  0  0
   24.3309  -26.8530  -15.6343 O   0  0  0  0  0  0  0  0  0  0  0  0
   19.5695  -18.8717  -15.0871 C   0  0  0  0  0  0  0  0  0  0  0  0
   20.5070  -18.4961  -14.1290 C   0  0  1  0  0  0  0  0  0  0  0  0
   20.8980  -19.7037  -13.2519 N   0  0  0  0  0  0  0  0  0  0  0  0
   21.5195  -20.7166  -14.0431 C   0  0  0  0  0  0  0  0  0  0  0  0
   19.6681  -20.1776  -12.5342 O   0  0  0  0  0  0  0  0  0  0  0  0
   19.1800  -21.3062  -12.7103 O   0  0  0  0  0  0  0  0  0  0  0  0
  2  1  1  0
  2  3  2  0
  4  2  1  0
  5  6  1  0
  5  4  1  0
  7  6  1  0
  8  7  1  0
  8  9  1  6
 10 11  2  0
 10  8  1  0
 12 13  1  0
 13 14  2  0
 14 15  1  0
 16 17  1  0
 16 15  2  0
 18 17  1  6
 18 19  1  0
 19 10  1  0
 20 18  1  0
 21 20  2  0
 22 16  1  0
 23 22  2  0
 23 13  1  0
 25 24  1  0
 26 25  1  1
 26 27  1  0
 27 20  1  0
 28 26  1  0
 28 30  1  0
 29 28  2  0
M  END
$$$$
