RYS.pdb
     RDKit          3D

 30 30  0  0  1  0  0  0  0  0999 V2000
   25.2928  -19.0090  -19.8760 N   0  0  0  0  0  0  0  0  0  0  0  0
   26.2722  -17.9679  -19.7857 C   0  0  0  0  0  0  0  0  0  0  0  0
   25.9282  -16.8032  -20.2097 N   0  0  0  0  0  0  0  0  0  0  0  0
   27.5694  -18.2180  -19.2522 N   0  0  0  0  0  0  0  0  0  0  0  0
   27.7989  -19.3571  -18.4333 C   0  0  0  0  0  0  0  0  0  0  0  0
   28.2874  -19.0804  -17.0793 C   0  0  0  0  0  0  0  0  0  0  0  0
   27.4019  -18.9596  -15.9233 C   0  0  0  0  0  0  0  0  0  0  0  0
   26.7690  -20.1466  -15.3144 C   0  0  2  0  0  0  0  0  0  0  0  0
   26.6481  -21.3393  -16.0312 N   0  0  0  0  0  0  0  0  0  0  0  0
   25.4621  -19.7001  -14.7074 C   0  0  0  0  0  0  0  0  0  0  0  0
   25.5048  -18.7111  -13.9324 O   0  0  0  0  0  0  0  0  0  0  0  0
   26.5523  -15.9735  -20.2128 O   0  0  0  0  0  0  0  0  0  0  0  0
   23.4875  -14.3478  -17.8794 C   0  0  0  0  0  0  0  0  0  0  0  0
   23.1396  -15.5661  -17.2613 C   0  0  0  0  0  0  0  0  0  0  0  0
   23.3920  -16.7525  -17.8828 C   0  0  0  0  0  0  0  0  0  0  0  0
   23.0627  -17.9477  -17.2998 C   0  0  0  0  0  0  0  0  0  0  0  0
   22.4580  -18.0046  -16.0492 C   0  0  0  0  0  0  0  0  0  0  0  0
   22.0852  -19.2347  -15.3654 C   0  0  2  0  0  0  0  0  0  0  0  0
   23.0119  -19.7644  -14.3481 N   0  0  0  0  0  0  0  0  0  0  0  0
   24.2220  -20.3091  -14.9458 C   0  0  0  0  0  0  0  0  0  0  0  0
   22.2792  -20.8735  -13.6141 O   0  0  0  0  0  0  0  0  0  0  0  0
   21.6342  -21.7601  -14.2090 C   0  0  0  0  0  0  0  0  0  0  0  0
   22.2096  -16.7966  -15.4332 C   0  0  0  0  0  0  0  0  0  0  0  0
   22.5432  -15.5673  -16.0252 O   0  0  0  0  0  0  0  0  0  0  0  0
   20.7821  -21.9923   -9.1078 C   0  0  0  0  0  0  0  0  0  0  0  0
   21.5288  -21.1509   -9.9276 C   0  0  1  0  0  0  0  0  0  0  0  0
   21.6261  -21.7314  -11.3538 N   0  0  0  0  0  0  0  0  0  0  0  0
   22.3668  -20.8538  -12.2019 C   0  0  0  0  0  0  0  0  0  0  0  0
   20.2337  -22.0013  -11.8443 O   0  0  0  0  0  0  0  0  0  0  0  0
   19.4910  -21.1081  -12.2841 O   0  0  0  0  0  0  0  0  0  0  0  0
  2  1  1  0
  2  3  2  0
  4  2  1  0
  5  6  1  0
  5  4  1  0
  7  6  1  0
  8  7  1  0
  8  9  1  6
 10 11  2  0
 10  8  1  0
 12 13  1  0
 13 14  2  0
 14 15  1  0
 16 17  1  0
 16 15  2  0
 18 17  1  1
 18 19  1  0
 19 10  1  0
 20 18  1  0
 21 20  2  0
 22 16  1  0
 23 22  2  0
 23 13  1  0
 25 24  1  0
 26 25  1  1
 26 27  1  0
 27 20  1  0
 28 26  1  0
 28 30  1  0
 29 28  2  0
M  END
$$$$
