RYS.pdb
     RDKit          3D

 30 30  0  0  1  0  0  0  0  0999 V2000
   29.4746  -26.7537  -16.6358 N   0  0  0  0  0  0  0  0  0  0  0  0
   28.0763  -27.0505  -16.5468 C   0  0  0  0  0  0  0  0  0  0  0  0
   27.7533  -28.2300  -16.1478 N   0  0  0  0  0  0  0  0  0  0  0  0
   27.0915  -26.0796  -16.8895 N   0  0  0  0  0  0  0  0  0  0  0  0
   27.4728  -24.8688  -17.5293 C   0  0  0  0  0  0  0  0  0  0  0  0
   28.2364  -23.9263  -16.7062 C   0  0  0  0  0  0  0  0  0  0  0  0
   27.6699  -22.6836  -16.1870 C   0  0  0  0  0  0  0  0  0  0  0  0
   26.3943  -22.1476  -16.7026 C   0  0  2  0  0  0  0  0  0  0  0  0
   26.3402  -21.4918  -17.9348 N   0  0  0  0  0  0  0  0  0  0  0  0
   25.7586  -21.3483  -15.5922 C   0  0  0  0  0  0  0  0  0  0  0  0
   26.0493  -20.1266  -15.5342 O   0  0  0  0  0  0  0  0  0  0  0  0
   26.7763  -28.5588  -16.0237 O   0  0  0  0  0  0  0  0  0  0  0  0
   20.4235  -17.3513  -17.0741 C   0  0  0  0  0  0  0  0  0  0  0  0
   21.0504  -18.2414  -16.1786 C   0  0  0  0  0  0  0  0  0  0  0  0
   21.1447  -17.9357  -14.8537 C   0  0  0  0  0  0  0  0  0  0  0  0
   21.7491  -18.7865  -13.9663 C   0  0  0  0  0  0  0  0  0  0  0  0
   22.2921  -19.9990  -14.3761 C   0  0  0  0  0  0  0  0  0  0  0  0
   22.9432  -20.9551  -13.4919 C   0  0  2  0  0  0  0  0  0  0  0  0
   24.4147  -21.0398  -13.5342 N   0  0  0  0  0  0  0  0  0  0  0  0
   24.8801  -21.8724  -14.6335 C   0  0  0  0  0  0  0  0  0  0  0  0
   24.8622  -21.6571  -12.2210 O   0  0  0  0  0  0  0  0  0  0  0  0
   24.6630  -22.8561  -11.9407 C   0  0  0  0  0  0  0  0  0  0  0  0
   22.1886  -20.2942  -15.7187 C   0  0  0  0  0  0  0  0  0  0  0  0
   21.5715  -19.4264  -16.6346 O   0  0  0  0  0  0  0  0  0  0  0  0
   26.7273  -20.2942   -7.9000 C   0  0  0  0  0  0  0  0  0  0  0  0
   26.5336  -19.9887   -9.2443 C   0  0  2  0  0  0  0  0  0  0  0  0
   25.6535  -21.0598   -9.9214 N   0  0  0  0  0  0  0  0  0  0  0  0
   25.5280  -20.7944  -11.3185 C   0  0  0  0  0  0  0  0  0  0  0  0
   24.3373  -21.1060   -9.2019 O   0  0  0  0  0  0  0  0  0  0  0  0
   24.1938  -21.6559   -8.0974 O   0  0  0  0  0  0  0  0  0  0  0  0
  2  1  1  0
  2  3  2  0
  4  2  1  0
  5  6  1  0
  5  4  1  0
  7  6  1  0
  8  7  1  0
  8  9  1  6
 10 11  2  0
 10  8  1  0
 12 13  1  0
 13 14  2  0
 14 15  1  0
 16 17  1  0
 16 15  2  0
 18 17  1  6
 18 19  1  0
 19 10  1  0
 20 18  1  0
 21 20  2  0
 22 16  1  0
 23 22  2  0
 23 13  1  0
 25 24  1  0
 26 25  1  6
 26 27  1  0
 27 20  1  0
 28 26  1  0
 28 30  1  0
 29 28  2  0
M  END
$$$$
