RYS.pdb
     RDKit          3D

 30 30  0  0  1  0  0  0  0  0999 V2000
   22.0546  -14.8450  -19.7514 N   0  0  0  0  0  0  0  0  0  0  0  0
   22.7846  -14.4467  -20.9175 C   0  0  0  0  0  0  0  0  0  0  0  0
   22.7518  -15.2423  -21.9277 N   0  0  0  0  0  0  0  0  0  0  0  0
   23.5157  -13.2243  -20.9499 N   0  0  0  0  0  0  0  0  0  0  0  0
   23.7983  -12.5275  -19.7435 C   0  0  0  0  0  0  0  0  0  0  0  0
   23.3585  -11.1300  -19.6969 C   0  0  0  0  0  0  0  0  0  0  0  0
   22.0779  -10.7176  -19.1270 C   0  0  0  0  0  0  0  0  0  0  0  0
   21.8720   -9.3485  -18.6135 C   0  0  2  0  0  0  0  0  0  0  0  0
   20.9662   -8.4822  -19.2302 N   0  0  0  0  0  0  0  0  0  0  0  0
   23.2337   -8.7266  -18.4269 C   0  0  0  0  0  0  0  0  0  0  0  0
   23.6576   -7.9983  -19.3599 O   0  0  0  0  0  0  0  0  0  0  0  0
   23.2666  -15.0829  -22.8152 O   0  0  0  0  0  0  0  0  0  0  0  0
   22.1819   -2.6789  -15.8831 C   0  0  0  0  0  0  0  0  0  0  0  0
   22.9831   -3.8383  -15.9171 C   0  0  0  0  0  0  0  0  0  0  0  0
   24.2244   -3.8035  -16.4787 C   0  0  0  0  0  0  0  0  0  0  0  0
   25.0196   -4.9183  -16.5218 C   0  0  0  0  0  0  0  0  0  0  0  0
   24.5974   -6.1335  -15.9945 C   0  0  0  0  0  0  0  0  0  0  0  0
   25.3874   -7.3565  -15.9985 C   0  0  2  0  0  0  0  0  0  0  0  0
   25.3216   -8.2141  -17.1961 N   0  0  0  0  0  0  0  0  0  0  0  0
   24.0461   -8.9077  -17.2988 C   0  0  0  0  0  0  0  0  0  0  0  0
   26.4345   -9.2395  -17.0701 O   0  0  0  0  0  0  0  0  0  0  0  0
   26.2467  -10.3794  -16.5998 C   0  0  0  0  0  0  0  0  0  0  0  0
   23.3400   -6.1526  -15.4297 C   0  0  0  0  0  0  0  0  0  0  0  0
   22.5186   -5.0142  -15.3830 O   0  0  0  0  0  0  0  0  0  0  0  0
   29.6119  -11.7549  -18.6372 C   0  0  0  0  0  0  0  0  0  0  0  0
   28.5237  -10.8902  -18.5594 C   0  0  2  0  0  0  0  0  0  0  0  0
   28.8334   -9.7147  -17.6094 N   0  0  0  0  0  0  0  0  0  0  0  0
   27.7131   -8.8343  -17.5208 C   0  0  0  0  0  0  0  0  0  0  0  0
   30.0850   -9.0415  -18.0917 O   0  0  0  0  0  0  0  0  0  0  0  0
   30.0698   -8.0034  -18.7737 O   0  0  0  0  0  0  0  0  0  0  0  0
  2  1  1  0
  2  3  2  0
  4  2  1  0
  5  6  1  0
  5  4  1  0
  7  6  1  0
  8  7  1  0
  8  9  1  6
 10 11  2  0
 10  8  1  0
 12 13  1  0
 13 14  2  0
 14 15  1  0
 16 17  1  0
 16 15  2  0
 18 17  1  6
 18 19  1  0
 19 10  1  0
 20 18  1  0
 21 20  2  0
 22 16  1  0
 23 22  2  0
 23 13  1  0
 25 24  1  0
 26 25  1  1
 26 27  1  0
 27 20  1  0
 28 26  1  0
 28 30  1  0
 29 28  2  0
M  END
$$$$
