RYS.pdb
     RDKit          3D

 30 30  0  0  1  0  0  0  0  0999 V2000
   26.5745  -20.8311   -8.8655 N   0  0  0  0  0  0  0  0  0  0  0  0
   25.2119  -20.8910   -9.3027 C   0  0  0  0  0  0  0  0  0  0  0  0
   24.3052  -20.9022   -8.3903 N   0  0  0  0  0  0  0  0  0  0  0  0
   24.8818  -20.9395  -10.6878 N   0  0  0  0  0  0  0  0  0  0  0  0
   25.9107  -20.9974  -11.6670 C   0  0  0  0  0  0  0  0  0  0  0  0
   26.4811  -19.7083  -12.0688 C   0  0  0  0  0  0  0  0  0  0  0  0
   26.9016  -19.4164  -13.4373 C   0  0  0  0  0  0  0  0  0  0  0  0
   26.2079  -20.0122  -14.5967 C   0  0  2  0  0  0  0  0  0  0  0  0
   25.3812  -21.1272  -14.4398 N   0  0  0  0  0  0  0  0  0  0  0  0
   27.2319  -20.1990  -15.6886 C   0  0  0  0  0  0  0  0  0  0  0  0
   28.0155  -19.2393  -15.9020 O   0  0  0  0  0  0  0  0  0  0  0  0
   23.2846  -20.9214   -8.5797 O   0  0  0  0  0  0  0  0  0  0  0  0
   32.8658  -23.6111  -21.6611 C   0  0  0  0  0  0  0  0  0  0  0  0
   31.9262  -23.3855  -20.6347 C   0  0  0  0  0  0  0  0  0  0  0  0
   32.2625  -22.6447  -19.5412 C   0  0  0  0  0  0  0  0  0  0  0  0
   31.3646  -22.4128  -18.5327 C   0  0  0  0  0  0  0  0  0  0  0  0
   30.0714  -22.9208  -18.5795 C   0  0  0  0  0  0  0  0  0  0  0  0
   29.0625  -22.7118  -17.5507 C   0  0  1  0  0  0  0  0  0  0  0  0
   28.3617  -21.4147  -17.5278 N   0  0  0  0  0  0  0  0  0  0  0  0
   27.3627  -21.3550  -16.4710 C   0  0  0  0  0  0  0  0  0  0  0  0
   27.6716  -21.2586  -18.8714 O   0  0  0  0  0  0  0  0  0  0  0  0
   26.6579  -21.9140  -19.1855 C   0  0  0  0  0  0  0  0  0  0  0  0
   29.7462  -23.6675  -19.6918 C   0  0  0  0  0  0  0  0  0  0  0  0
   30.6616  -23.9106  -20.7290 O   0  0  0  0  0  0  0  0  0  0  0  0
   27.6136  -18.3022  -22.7492 C   0  0  0  0  0  0  0  0  0  0  0  0
   28.1876  -18.6276  -21.5234 C   0  0  2  0  0  0  0  0  0  0  0  0
   27.6836  -20.0027  -21.0379 N   0  0  0  0  0  0  0  0  0  0  0  0
   28.2411  -20.3181  -19.7621 C   0  0  0  0  0  0  0  0  0  0  0  0
   28.0030  -21.0176  -22.0963 O   0  0  0  0  0  0  0  0  0  0  0  0
   29.0857  -21.6247  -22.1406 O   0  0  0  0  0  0  0  0  0  0  0  0
  2  1  1  0
  2  3  2  0
  4  2  1  0
  5  6  1  0
  5  4  1  0
  7  6  1  0
  8  7  1  0
  8  9  1  1
 10 11  2  0
 10  8  1  0
 12 13  1  0
 13 14  2  0
 14 15  1  0
 16 17  1  0
 16 15  2  0
 18 17  1  1
 18 19  1  0
 19 10  1  0
 20 18  1  0
 21 20  2  0
 22 16  1  0
 23 22  2  0
 23 13  1  0
 25 24  1  0
 26 25  1  1
 26 27  1  0
 27 20  1  0
 28 26  1  0
 28 30  1  0
 29 28  2  0
M  END
$$$$
