RYS.pdb
     RDKit          3D

 30 30  0  0  1  0  0  0  0  0999 V2000
   27.9585  -21.9214  -20.0759 N   0  0  0  0  0  0  0  0  0  0  0  0
   29.1503  -22.5725  -20.5309 C   0  0  0  0  0  0  0  0  0  0  0  0
   29.7342  -22.0697  -21.5609 N   0  0  0  0  0  0  0  0  0  0  0  0
   29.6597  -23.7274  -19.8702 N   0  0  0  0  0  0  0  0  0  0  0  0
   28.9110  -24.3465  -18.8324 C   0  0  0  0  0  0  0  0  0  0  0  0
   28.9093  -23.6475  -17.5440 C   0  0  0  0  0  0  0  0  0  0  0  0
   27.7001  -23.4490  -16.7482 C   0  0  0  0  0  0  0  0  0  0  0  0
   27.0121  -22.1431  -16.7108 C   0  0  2  0  0  0  0  0  0  0  0  0
   27.7330  -20.9516  -16.8203 N   0  0  0  0  0  0  0  0  0  0  0  0
   26.0877  -22.1537  -15.5186 C   0  0  0  0  0  0  0  0  0  0  0  0
   25.4446  -23.2133  -15.3085 O   0  0  0  0  0  0  0  0  0  0  0  0
   30.5498  -22.4989  -22.0390 O   0  0  0  0  0  0  0  0  0  0  0  0
   22.4361  -20.5865   -7.5655 C   0  0  0  0  0  0  0  0  0  0  0  0
   23.1455  -20.4994   -8.7805 C   0  0  0  0  0  0  0  0  0  0  0  0
   22.5781  -19.9102   -9.8707 C   0  0  0  0  0  0  0  0  0  0  0  0
   23.2500  -19.8144  -11.0608 C   0  0  0  0  0  0  0  0  0  0  0  0
   24.5395  -20.3121  -11.2099 C   0  0  0  0  0  0  0  0  0  0  0  0
   25.3167  -20.2418  -12.4391 C   0  0  2  0  0  0  0  0  0  0  0  0
   24.9900  -21.1954  -13.5152 N   0  0  0  0  0  0  0  0  0  0  0  0
   25.9000  -21.0737  -14.6445 C   0  0  0  0  0  0  0  0  0  0  0  0
   23.5796  -20.8763  -13.9787 O   0  0  0  0  0  0  0  0  0  0  0  0
   23.2975  -19.8324  -14.6004 C   0  0  0  0  0  0  0  0  0  0  0  0
   25.1000  -20.9047  -10.0985 C   0  0  0  0  0  0  0  0  0  0  0  0
   24.4169  -21.0078   -8.8755 O   0  0  0  0  0  0  0  0  0  0  0  0
   19.3689  -22.9790  -14.9804 C   0  0  0  0  0  0  0  0  0  0  0  0
   20.6935  -23.0895  -14.5667 C   0  0  2  0  0  0  0  0  0  0  0  0
   21.2255  -21.7240  -14.0844 N   0  0  0  0  0  0  0  0  0  0  0  0
   22.5867  -21.8357  -13.6688 C   0  0  0  0  0  0  0  0  0  0  0  0
   20.3114  -21.2209  -13.0058 O   0  0  0  0  0  0  0  0  0  0  0  0
   20.3283  -21.6688  -11.8474 O   0  0  0  0  0  0  0  0  0  0  0  0
  2  1  1  0
  2  3  2  0
  4  2  1  0
  5  6  1  0
  5  4  1  0
  7  6  1  0
  8  7  1  0
  8  9  1  1
 10 11  2  0
 10  8  1  0
 12 13  1  0
 13 14  2  0
 14 15  1  0
 16 17  1  0
 16 15  2  0
 18 17  1  1
 18 19  1  0
 19 10  1  0
 20 18  1  0
 21 20  2  0
 22 16  1  0
 23 22  2  0
 23 13  1  0
 25 24  1  0
 26 25  1  6
 26 27  1  0
 27 20  1  0
 28 26  1  0
 28 30  1  0
 29 28  2  0
M  END
$$$$
