YFK.pdb
     RDKit          3D

 33 34  0  0  1  0  0  0  0  0999 V2000
   29.5406  -18.6689  -22.4396 O   0  0  0  0  0  0  0  0  0  0  0  0
   28.8711  -19.1303  -21.2962 C   0  0  0  0  0  0  0  0  0  0  0  0
   29.0019  -18.4941  -20.0806 C   0  0  0  0  0  0  0  0  0  0  0  0
   28.3437  -18.9481  -18.9582 C   0  0  0  0  0  0  0  0  0  0  0  0
   27.5129  -20.0741  -18.9988 C   0  0  0  0  0  0  0  0  0  0  0  0
   26.8160  -20.5589  -17.7832 C   0  0  0  0  0  0  0  0  0  0  0  0
   27.7158  -21.2099  -16.8024 C   0  0  2  0  0  0  0  0  0  0  0  0
   28.2001  -22.5105  -17.2741 N   0  0  0  0  0  0  0  0  0  0  0  0
   27.2130  -21.3830  -15.4442 C   0  0  0  0  0  0  0  0  0  0  0  0
   26.3983  -22.3559  -15.2648 O   0  0  0  0  0  0  0  0  0  0  0  0
   27.4017  -20.6891  -20.2276 C   0  0  0  0  0  0  0  0  0  0  0  0
   28.0569  -20.2404  -21.3533 C   0  0  0  0  0  0  0  0  0  0  0  0
   27.5613  -20.5637  -14.3437 N   0  0  0  0  0  0  0  0  0  0  0  0
   26.9572  -20.7957  -13.0551 C   0  0  1  0  0  0  0  0  0  0  0  0
   27.7243  -20.0887  -11.9562 C   0  0  0  0  0  0  0  0  0  0  0  0
   27.0466  -20.1396  -10.6603 C   0  0  0  0  0  0  0  0  0  0  0  0
   26.2357  -19.1186  -10.2298 C   0  0  0  0  0  0  0  0  0  0  0  0
   25.5903  -19.1585   -8.9942 C   0  0  0  0  0  0  0  0  0  0  0  0
   25.7495  -20.2391   -8.1576 C   0  0  0  0  0  0  0  0  0  0  0  0
   26.5611  -21.2691   -8.5807 C   0  0  0  0  0  0  0  0  0  0  0  0
   27.2035  -21.2213   -9.8185 C   0  0  0  0  0  0  0  0  0  0  0  0
   25.5300  -20.4297  -13.1165 C   0  0  0  0  0  0  0  0  0  0  0  0
   25.1849  -19.2786  -13.5311 O   0  0  0  0  0  0  0  0  0  0  0  0
   24.4580  -21.2899  -12.7380 N   0  0  0  0  0  0  0  0  0  0  0  0
   23.0552  -20.8377  -12.7332 C   0  0  1  0  0  0  0  0  0  0  0  0
   22.3280  -21.7814  -13.6750 C   0  0  0  0  0  0  0  0  0  0  0  0
   21.5251  -21.0899  -14.7292 C   0  0  0  0  0  0  0  0  0  0  0  0
   21.8928  -21.7600  -16.0600 C   0  0  0  0  0  0  0  0  0  0  0  0
   21.1506  -21.1150  -17.2052 C   0  0  0  0  0  0  0  0  0  0  0  0
   19.7489  -21.4591  -17.1705 N   0  0  0  0  0  0  0  0  0  0  0  0
   22.5147  -20.8157  -11.3804 C   0  0  0  0  0  0  0  0  0  0  0  0
   21.5908  -20.0175  -11.0940 O   0  0  0  0  0  0  0  0  0  0  0  0
   22.9793  -21.6474  -10.3804 O   0  0  0  0  0  0  0  0  0  0  0  0
  2  1  1  0
  3  2  2  0
  4  3  1  0
  5 11  1  0
  5  4  2  0
  6  5  1  0
  7  6  1  0
  7  8  1  6
  9  7  1  0
  9 10  2  0
 11 12  2  0
 12  2  1  0
 13  9  1  0
 14 13  1  0
 14 15  1  1
 16 15  1  0
 16 17  2  0
 17 18  1  0
 19 18  2  0
 20 19  1  0
 21 20  2  0
 21 16  1  0
 22 14  1  0
 23 22  2  0
 24 22  1  0
 25 24  1  0
 26 27  1  0
 25 26  1  6
 28 29  1  0
 28 27  1  0
 29 30  1  0
 31 25  1  0
 31 33  1  0
 32 31  2  0
M  END
$$$$
