YFK.pdb
     RDKit          3D

 33 34  0  0  1  0  0  0  0  0999 V2000
   26.1437  -15.9174  -21.2629 O   0  0  0  0  0  0  0  0  0  0  0  0
   26.4207  -16.5163  -20.0246 C   0  0  0  0  0  0  0  0  0  0  0  0
   27.2088  -15.8900  -19.0832 C   0  0  0  0  0  0  0  0  0  0  0  0
   27.4802  -16.4792  -17.8674 C   0  0  0  0  0  0  0  0  0  0  0  0
   26.9697  -17.7385  -17.5309 C   0  0  0  0  0  0  0  0  0  0  0  0
   27.2747  -18.3668  -16.2231 C   0  0  0  0  0  0  0  0  0  0  0  0
   26.0749  -18.8569  -15.5051 C   0  0  2  0  0  0  0  0  0  0  0  0
   25.0922  -17.7929  -15.2794 N   0  0  0  0  0  0  0  0  0  0  0  0
   26.2879  -19.5482  -14.2386 C   0  0  0  0  0  0  0  0  0  0  0  0
   27.1452  -20.5007  -14.2539 O   0  0  0  0  0  0  0  0  0  0  0  0
   26.1853  -18.3401  -18.4919 C   0  0  0  0  0  0  0  0  0  0  0  0
   25.9103  -17.7567  -19.7092 C   0  0  0  0  0  0  0  0  0  0  0  0
   25.6230  -19.2387  -13.0279 N   0  0  0  0  0  0  0  0  0  0  0  0
   25.9938  -19.9166  -11.8105 C   0  0  1  0  0  0  0  0  0  0  0  0
   26.5479  -18.9436  -10.7897 C   0  0  0  0  0  0  0  0  0  0  0  0
   26.7996  -19.5612   -9.4872 C   0  0  0  0  0  0  0  0  0  0  0  0
   27.8752  -20.3882   -9.2769 C   0  0  0  0  0  0  0  0  0  0  0  0
   28.1188  -20.9836   -8.0395 C   0  0  0  0  0  0  0  0  0  0  0  0
   27.2751  -20.7559   -6.9767 C   0  0  0  0  0  0  0  0  0  0  0  0
   26.1928  -19.9271   -7.1775 C   0  0  0  0  0  0  0  0  0  0  0  0
   25.9563  -19.3354   -8.4190 C   0  0  0  0  0  0  0  0  0  0  0  0
   24.8439  -20.7011  -11.3236 C   0  0  0  0  0  0  0  0  0  0  0  0
   25.0300  -21.6854  -10.5409 O   0  0  0  0  0  0  0  0  0  0  0  0
   23.4848  -20.4407  -11.6660 N   0  0  0  0  0  0  0  0  0  0  0  0
   22.6321  -21.4539  -12.3131 C   0  0  1  0  0  0  0  0  0  0  0  0
   21.2711  -21.3102  -11.6548 C   0  0  0  0  0  0  0  0  0  0  0  0
   20.2427  -22.2655  -12.1686 C   0  0  0  0  0  0  0  0  0  0  0  0
   18.9251  -21.8946  -11.4746 C   0  0  0  0  0  0  0  0  0  0  0  0
   17.7975  -22.7681  -11.9686 C   0  0  0  0  0  0  0  0  0  0  0  0
   16.5651  -22.4555  -11.2846 N   0  0  0  0  0  0  0  0  0  0  0  0
   22.6136  -21.2791  -13.7595 C   0  0  0  0  0  0  0  0  0  0  0  0
   23.2137  -22.1014  -14.4918 O   0  0  0  0  0  0  0  0  0  0  0  0
   21.9541  -20.2324  -14.3736 O   0  0  0  0  0  0  0  0  0  0  0  0
  2  1  1  0
  3  2  2  0
  4  3  1  0
  5 11  1  0
  5  4  2  0
  6  5  1  0
  7  6  1  0
  7  8  1  1
  9  7  1  0
  9 10  2  0
 11 12  2  0
 12  2  1  0
 13  9  1  0
 14 13  1  0
 14 15  1  1
 16 15  1  0
 16 17  2  0
 17 18  1  0
 19 18  2  0
 20 19  1  0
 21 20  2  0
 21 16  1  0
 22 14  1  0
 23 22  2  0
 24 22  1  0
 25 24  1  0
 26 27  1  0
 25 26  1  1
 28 29  1  0
 28 27  1  0
 29 30  1  0
 31 25  1  0
 31 33  1  0
 32 31  2  0
M  END
$$$$
