YFK.pdb
     RDKit          3D

 33 34  0  0  1  0  0  0  0  0999 V2000
   29.2076  -16.0435  -20.0215 O   0  0  0  0  0  0  0  0  0  0  0  0
   28.3576  -16.7253  -19.1375 C   0  0  0  0  0  0  0  0  0  0  0  0
   27.5803  -17.7825  -19.5590 C   0  0  0  0  0  0  0  0  0  0  0  0
   26.7458  -18.4514  -18.6899 C   0  0  0  0  0  0  0  0  0  0  0  0
   26.6479  -18.0902  -17.3410 C   0  0  0  0  0  0  0  0  0  0  0  0
   25.7405  -18.8115  -16.4164 C   0  0  0  0  0  0  0  0  0  0  0  0
   26.4355  -19.7824  -15.5391 C   0  0  2  0  0  0  0  0  0  0  0  0
   27.0486  -20.8752  -16.2997 N   0  0  0  0  0  0  0  0  0  0  0  0
   25.6656  -20.3702  -14.4486 C   0  0  0  0  0  0  0  0  0  0  0  0
   25.0432  -21.4570  -14.7204 O   0  0  0  0  0  0  0  0  0  0  0  0
   27.4367  -17.0297  -16.9489 C   0  0  0  0  0  0  0  0  0  0  0  0
   28.2729  -16.3569  -17.8125 C   0  0  0  0  0  0  0  0  0  0  0  0
   25.5676  -19.8273  -13.1451 N   0  0  0  0  0  0  0  0  0  0  0  0
   24.6096  -20.3663  -12.2119 C   0  0  1  0  0  0  0  0  0  0  0  0
   24.8297  -19.8103  -10.8197 C   0  0  0  0  0  0  0  0  0  0  0  0
   23.8203  -20.2559   -9.8586 C   0  0  0  0  0  0  0  0  0  0  0  0
   22.5624  -19.7063   -9.8268 C   0  0  0  0  0  0  0  0  0  0  0  0
   21.5969  -20.1231   -8.9108 C   0  0  0  0  0  0  0  0  0  0  0  0
   21.8811  -21.1126   -7.9980 C   0  0  0  0  0  0  0  0  0  0  0  0
   23.1407  -21.6707   -8.0220 C   0  0  0  0  0  0  0  0  0  0  0  0
   24.1011  -21.2478   -8.9418 C   0  0  0  0  0  0  0  0  0  0  0  0
   23.2482  -20.1453  -12.7338 C   0  0  0  0  0  0  0  0  0  0  0  0
   23.0358  -19.2333  -13.5936 O   0  0  0  0  0  0  0  0  0  0  0  0
   22.1014  -20.8974  -12.3445 N   0  0  0  0  0  0  0  0  0  0  0  0
   20.9134  -21.0178  -13.2084 C   0  0  1  0  0  0  0  0  0  0  0  0
   21.4137  -21.6657  -14.4876 C   0  0  0  0  0  0  0  0  0  0  0  0
   20.3463  -21.9048  -15.5063 C   0  0  0  0  0  0  0  0  0  0  0  0
   21.0445  -22.5242  -16.7247 C   0  0  0  0  0  0  0  0  0  0  0  0
   20.0648  -22.7271  -17.8550 C   0  0  0  0  0  0  0  0  0  0  0  0
   20.7284  -23.2526  -19.0246 N   0  0  0  0  0  0  0  0  0  0  0  0
   19.8520  -21.7611  -12.5421 C   0  0  0  0  0  0  0  0  0  0  0  0
   18.6548  -21.5337  -12.8380 O   0  0  0  0  0  0  0  0  0  0  0  0
   20.1063  -22.7221  -11.5831 O   0  0  0  0  0  0  0  0  0  0  0  0
  2  1  1  0
  3  2  2  0
  4  3  1  0
  5 11  1  0
  5  4  2  0
  6  5  1  0
  7  6  1  0
  7  8  1  6
  9  7  1  0
  9 10  2  0
 11 12  2  0
 12  2  1  0
 13  9  1  0
 14 13  1  0
 14 15  1  1
 16 15  1  0
 16 17  2  0
 17 18  1  0
 19 18  2  0
 20 19  1  0
 21 20  2  0
 21 16  1  0
 22 14  1  0
 23 22  2  0
 24 22  1  0
 25 24  1  0
 26 27  1  0
 25 26  1  6
 28 29  1  0
 28 27  1  0
 29 30  1  0
 31 25  1  0
 31 33  1  0
 32 31  2  0
M  END
$$$$
