YFK.pdb
     RDKit          3D

 33 34  0  0  1  0  0  0  0  0999 V2000
   29.6138  -18.4816  -23.1801 O   0  0  0  0  0  0  0  0  0  0  0  0
   28.9070  -19.0032  -22.0861 C   0  0  0  0  0  0  0  0  0  0  0  0
   28.2680  -20.2223  -22.1580 C   0  0  0  0  0  0  0  0  0  0  0  0
   27.5741  -20.7336  -21.0827 C   0  0  0  0  0  0  0  0  0  0  0  0
   27.4852  -20.0415  -19.8693 C   0  0  0  0  0  0  0  0  0  0  0  0
   26.7290  -20.5971  -18.7214 C   0  0  0  0  0  0  0  0  0  0  0  0
   27.5729  -21.3442  -17.7597 C   0  0  2  0  0  0  0  0  0  0  0  0
   28.0090  -22.6374  -18.2945 N   0  0  0  0  0  0  0  0  0  0  0  0
   27.0285  -21.5700  -16.4255 C   0  0  0  0  0  0  0  0  0  0  0  0
   26.2979  -22.6134  -16.2843 O   0  0  0  0  0  0  0  0  0  0  0  0
   28.1339  -18.8257  -19.8274 C   0  0  0  0  0  0  0  0  0  0  0  0
   28.8292  -18.3089  -20.8985 C   0  0  0  0  0  0  0  0  0  0  0  0
   27.2527  -20.7293  -15.3089 N   0  0  0  0  0  0  0  0  0  0  0  0
   26.6067  -21.0159  -14.0521 C   0  0  1  0  0  0  0  0  0  0  0  0
   27.2683  -20.2661  -12.9137 C   0  0  0  0  0  0  0  0  0  0  0  0
   26.5729  -20.4328  -11.6370 C   0  0  0  0  0  0  0  0  0  0  0  0
   26.8189  -21.5060  -10.8165 C   0  0  0  0  0  0  0  0  0  0  0  0
   26.1568  -21.6736   -9.6007 C   0  0  0  0  0  0  0  0  0  0  0  0
   25.2232  -20.7540   -9.1812 C   0  0  0  0  0  0  0  0  0  0  0  0
   24.9693  -19.6733   -9.9975 C   0  0  0  0  0  0  0  0  0  0  0  0
   25.6362  -19.5132  -11.2127 C   0  0  0  0  0  0  0  0  0  0  0  0
   25.1614  -20.7524  -14.1793 C   0  0  0  0  0  0  0  0  0  0  0  0
   24.7552  -19.6505  -14.6661 O   0  0  0  0  0  0  0  0  0  0  0  0
   24.1364  -21.6636  -13.7901 N   0  0  0  0  0  0  0  0  0  0  0  0
   22.7073  -21.3089  -13.8545 C   0  0  1  0  0  0  0  0  0  0  0  0
   21.9753  -22.6288  -14.0235 C   0  0  0  0  0  0  0  0  0  0  0  0
   20.4864  -22.4998  -14.0499 C   0  0  0  0  0  0  0  0  0  0  0  0
   19.9375  -23.9027  -14.3432 C   0  0  0  0  0  0  0  0  0  0  0  0
   18.4280  -23.8961  -14.3416 C   0  0  0  0  0  0  0  0  0  0  0  0
   17.9062  -25.2186  -14.5929 N   0  0  0  0  0  0  0  0  0  0  0  0
   22.3004  -20.5504  -12.6790 C   0  0  0  0  0  0  0  0  0  0  0  0
   21.5688  -19.5409  -12.8142 O   0  0  0  0  0  0  0  0  0  0  0  0
   22.6884  -20.8970  -11.3995 O   0  0  0  0  0  0  0  0  0  0  0  0
  2  1  1  0
  3  2  2  0
  4  3  1  0
  5 11  1  0
  5  4  2  0
  6  5  1  0
  7  6  1  0
  7  8  1  6
  9  7  1  0
  9 10  2  0
 11 12  2  0
 12  2  1  0
 13  9  1  0
 14 13  1  0
 14 15  1  1
 16 15  1  0
 16 17  2  0
 17 18  1  0
 19 18  2  0
 20 19  1  0
 21 20  2  0
 21 16  1  0
 22 14  1  0
 23 22  2  0
 24 22  1  0
 25 24  1  0
 26 27  1  0
 25 26  1  1
 28 29  1  0
 28 27  1  0
 29 30  1  0
 31 25  1  0
 31 33  1  0
 32 31  2  0
M  END
$$$$
