YFK.pdb
     RDKit          3D

 33 34  0  0  1  0  0  0  0  0999 V2000
   17.1408  -25.2951  -14.6553 O   0  0  0  0  0  0  0  0  0  0  0  0
   18.1327  -24.3192  -14.4755 C   0  0  0  0  0  0  0  0  0  0  0  0
   19.4723  -24.6426  -14.4990 C   0  0  0  0  0  0  0  0  0  0  0  0
   20.4457  -23.6832  -14.3223 C   0  0  0  0  0  0  0  0  0  0  0  0
   20.1215  -22.3379  -14.1112 C   0  0  0  0  0  0  0  0  0  0  0  0
   21.1767  -21.3151  -13.9139 C   0  0  0  0  0  0  0  0  0  0  0  0
   21.7889  -21.3457  -12.5650 C   0  0  2  0  0  0  0  0  0  0  0  0
   20.8410  -20.9531  -11.5182 N   0  0  0  0  0  0  0  0  0  0  0  0
   23.0164  -20.5827  -12.3691 C   0  0  0  0  0  0  0  0  0  0  0  0
   22.8689  -19.3510  -12.0472 O   0  0  0  0  0  0  0  0  0  0  0  0
   18.7745  -22.0449  -14.0928 C   0  0  0  0  0  0  0  0  0  0  0  0
   17.7966  -22.9991  -14.2687 C   0  0  0  0  0  0  0  0  0  0  0  0
   24.3239  -21.1066  -12.5094 N   0  0  0  0  0  0  0  0  0  0  0  0
   25.4666  -20.2466  -12.3252 C   0  0  1  0  0  0  0  0  0  0  0  0
   26.5316  -20.9242  -11.4871 C   0  0  0  0  0  0  0  0  0  0  0  0
   26.3639  -20.6937  -10.0518 C   0  0  0  0  0  0  0  0  0  0  0  0
   26.8773  -19.5793   -9.4355 C   0  0  0  0  0  0  0  0  0  0  0  0
   26.7250  -19.3553   -8.0674 C   0  0  0  0  0  0  0  0  0  0  0  0
   26.0452  -20.2586   -7.2832 C   0  0  0  0  0  0  0  0  0  0  0  0
   25.5260  -21.3802   -7.8924 C   0  0  0  0  0  0  0  0  0  0  0  0
   25.6829  -21.5968   -9.2620 C   0  0  0  0  0  0  0  0  0  0  0  0
   25.9460  -19.7894  -13.6427 C   0  0  0  0  0  0  0  0  0  0  0  0
   26.0182  -20.6074  -14.6132 O   0  0  0  0  0  0  0  0  0  0  0  0
   26.3505  -18.4544  -13.9369 N   0  0  0  0  0  0  0  0  0  0  0  0
   26.7413  -18.0357  -15.2949 C   0  0  1  0  0  0  0  0  0  0  0  0
   26.9789  -16.5389  -15.1987 C   0  0  0  0  0  0  0  0  0  0  0  0
   27.4337  -15.9115  -16.4768 C   0  0  0  0  0  0  0  0  0  0  0  0
   27.6378  -14.4204  -16.1763 C   0  0  0  0  0  0  0  0  0  0  0  0
   28.0910  -13.6839  -17.4134 C   0  0  0  0  0  0  0  0  0  0  0  0
   29.3466  -14.2090  -17.8954 N   0  0  0  0  0  0  0  0  0  0  0  0
   27.8946  -18.7910  -15.7664 C   0  0  0  0  0  0  0  0  0  0  0  0
   27.9658  -19.1271  -16.9725 O   0  0  0  0  0  0  0  0  0  0  0  0
   28.9325  -19.1605  -14.9333 O   0  0  0  0  0  0  0  0  0  0  0  0
  2  1  1  0
  3  2  2  0
  4  3  1  0
  5 11  1  0
  5  4  2  0
  6  5  1  0
  7  6  1  0
  7  8  1  1
  9  7  1  0
  9 10  2  0
 11 12  2  0
 12  2  1  0
 13  9  1  0
 14 13  1  0
 14 15  1  6
 16 15  1  0
 16 17  2  0
 17 18  1  0
 19 18  2  0
 20 19  1  0
 21 20  2  0
 21 16  1  0
 22 14  1  0
 23 22  2  0
 24 22  1  0
 25 24  1  0
 26 27  1  0
 25 26  1  1
 28 29  1  0
 28 27  1  0
 29 30  1  0
 31 25  1  0
 31 33  1  0
 32 31  2  0
M  END
$$$$
