YFK.pdb
     RDKit          3D

 33 34  0  0  1  0  0  0  0  0999 V2000
   19.8037  -14.0970  -23.5424 O   0  0  0  0  0  0  0  0  0  0  0  0
   19.8522  -13.4242  -22.3121 C   0  0  0  0  0  0  0  0  0  0  0  0
   19.1068  -13.8458  -21.2321 C   0  0  0  0  0  0  0  0  0  0  0  0
   19.1554  -13.1842  -20.0242 C   0  0  0  0  0  0  0  0  0  0  0  0
   19.9619  -12.0556  -19.8365 C   0  0  0  0  0  0  0  0  0  0  0  0
   20.0002  -11.3464  -18.5350 C   0  0  0  0  0  0  0  0  0  0  0  0
   21.2155  -11.6335  -17.7376 C   0  0  2  0  0  0  0  0  0  0  0  0
   21.2628  -13.0263  -17.2832 N   0  0  0  0  0  0  0  0  0  0  0  0
   21.4801  -10.7762  -16.5876 C   0  0  0  0  0  0  0  0  0  0  0  0
   20.7770  -11.0049  -15.5408 O   0  0  0  0  0  0  0  0  0  0  0  0
   20.6955  -11.6578  -20.9339 C   0  0  0  0  0  0  0  0  0  0  0  0
   20.6515  -12.3145  -22.1441 C   0  0  0  0  0  0  0  0  0  0  0  0
   22.4397   -9.7360  -16.5597 N   0  0  0  0  0  0  0  0  0  0  0  0
   22.6014   -8.9388  -15.3691 C   0  0  1  0  0  0  0  0  0  0  0  0
   24.0658   -8.7686  -15.0196 C   0  0  0  0  0  0  0  0  0  0  0  0
   24.8469   -8.1674  -16.1012 C   0  0  0  0  0  0  0  0  0  0  0  0
   24.8706   -6.8098  -16.3052 C   0  0  0  0  0  0  0  0  0  0  0  0
   25.6091   -6.2304  -17.3365 C   0  0  0  0  0  0  0  0  0  0  0  0
   26.3472   -7.0145  -18.1930 C   0  0  0  0  0  0  0  0  0  0  0  0
   26.3301   -8.3782  -17.9964 C   0  0  0  0  0  0  0  0  0  0  0  0
   25.5883   -8.9499  -16.9620 C   0  0  0  0  0  0  0  0  0  0  0  0
   21.8764   -7.6656  -15.5367 C   0  0  0  0  0  0  0  0  0  0  0  0
   21.6857   -7.1897  -16.7000 O   0  0  0  0  0  0  0  0  0  0  0  0
   21.3466   -6.8900  -14.4643 N   0  0  0  0  0  0  0  0  0  0  0  0
   20.7857   -5.5433  -14.6743 C   0  0  1  0  0  0  0  0  0  0  0  0
   19.2788   -5.7266  -14.6294 C   0  0  0  0  0  0  0  0  0  0  0  0
   18.5057   -4.4678  -14.8570 C   0  0  0  0  0  0  0  0  0  0  0  0
   17.0221   -4.8528  -14.7773 C   0  0  0  0  0  0  0  0  0  0  0  0
   16.1460   -3.6307  -14.9076 C   0  0  0  0  0  0  0  0  0  0  0  0
   14.7585   -4.0035  -15.0506 N   0  0  0  0  0  0  0  0  0  0  0  0
   21.2989   -4.6007  -13.6889 C   0  0  0  0  0  0  0  0  0  0  0  0
   21.8350   -5.0299  -12.6396 O   0  0  0  0  0  0  0  0  0  0  0  0
   21.2226   -3.2322  -13.8589 O   0  0  0  0  0  0  0  0  0  0  0  0
  2  1  1  0
  3  2  2  0
  4  3  1  0
  5 11  1  0
  5  4  2  0
  6  5  1  0
  7  6  1  0
  7  8  1  1
  9  7  1  0
  9 10  2  0
 11 12  2  0
 12  2  1  0
 13  9  1  0
 14 13  1  0
 14 15  1  6
 16 15  1  0
 16 17  2  0
 17 18  1  0
 19 18  2  0
 20 19  1  0
 21 20  2  0
 21 16  1  0
 22 14  1  0
 23 22  2  0
 24 22  1  0
 25 24  1  0
 26 27  1  0
 25 26  1  1
 28 29  1  0
 28 27  1  0
 29 30  1  0
 31 25  1  0
 31 33  1  0
 32 31  2  0
M  END
$$$$
