YFK.pdb
     RDKit          3D

 33 34  0  0  1  0  0  0  0  0999 V2000
   16.6038  -24.7535  -13.5287 O   0  0  0  0  0  0  0  0  0  0  0  0
   17.7810  -23.9907  -13.4944 C   0  0  0  0  0  0  0  0  0  0  0  0
   17.7622  -22.6294  -13.7087 C   0  0  0  0  0  0  0  0  0  0  0  0
   18.9190  -21.8813  -13.6747 C   0  0  0  0  0  0  0  0  0  0  0  0
   20.1652  -22.4664  -13.4216 C   0  0  0  0  0  0  0  0  0  0  0  0
   21.4048  -21.6533  -13.3956 C   0  0  0  0  0  0  0  0  0  0  0  0
   21.9697  -21.4747  -12.0376 C   0  0  2  0  0  0  0  0  0  0  0  0
   21.0820  -20.6986  -11.1667 N   0  0  0  0  0  0  0  0  0  0  0  0
   23.3082  -20.9038  -11.9387 C   0  0  0  0  0  0  0  0  0  0  0  0
   23.3899  -19.6322  -12.0759 O   0  0  0  0  0  0  0  0  0  0  0  0
   20.1526  -23.8288  -13.2113 C   0  0  0  0  0  0  0  0  0  0  0  0
   18.9998  -24.5824  -13.2439 C   0  0  0  0  0  0  0  0  0  0  0  0
   24.4890  -21.6492  -11.7069 N   0  0  0  0  0  0  0  0  0  0  0  0
   25.7725  -20.9933  -11.7454 C   0  0  1  0  0  0  0  0  0  0  0  0
   26.7865  -21.7251  -10.8898 C   0  0  0  0  0  0  0  0  0  0  0  0
   27.0453  -21.0596   -9.6125 C   0  0  0  0  0  0  0  0  0  0  0  0
   28.0854  -21.4378   -8.7999 C   0  0  0  0  0  0  0  0  0  0  0  0
   28.3352  -20.8110   -7.5794 C   0  0  0  0  0  0  0  0  0  0  0  0
   27.5341  -19.7791   -7.1473 C   0  0  0  0  0  0  0  0  0  0  0  0
   26.4876  -19.3921   -7.9557 C   0  0  0  0  0  0  0  0  0  0  0  0
   26.2446  -20.0247   -9.1756 C   0  0  0  0  0  0  0  0  0  0  0  0
   26.1883  -20.8249  -13.1501 C   0  0  0  0  0  0  0  0  0  0  0  0
   25.9255  -21.7285  -14.0048 O   0  0  0  0  0  0  0  0  0  0  0  0
   26.8865  -19.6895  -13.6558 N   0  0  0  0  0  0  0  0  0  0  0  0
   27.2099  -19.5420  -15.0862 C   0  0  1  0  0  0  0  0  0  0  0  0
   27.7495  -18.1298  -15.2302 C   0  0  0  0  0  0  0  0  0  0  0  0
   28.2118  -17.7929  -16.6112 C   0  0  0  0  0  0  0  0  0  0  0  0
   28.6827  -16.3330  -16.5638 C   0  0  0  0  0  0  0  0  0  0  0  0
   29.1114  -15.8660  -17.9337 C   0  0  0  0  0  0  0  0  0  0  0  0
   30.1981  -16.6724  -18.4369 N   0  0  0  0  0  0  0  0  0  0  0  0
   28.1345  -20.5787  -15.5256 C   0  0  0  0  0  0  0  0  0  0  0  0
   28.9358  -21.0847  -14.7043 O   0  0  0  0  0  0  0  0  0  0  0  0
   28.1708  -21.0397  -16.8271 O   0  0  0  0  0  0  0  0  0  0  0  0
  2  1  1  0
  3  2  2  0
  4  3  1  0
  5 11  1  0
  5  4  2  0
  6  5  1  0
  7  6  1  0
  7  8  1  1
  9  7  1  0
  9 10  2  0
 11 12  2  0
 12  2  1  0
 13  9  1  0
 14 13  1  0
 14 15  1  1
 16 15  1  0
 16 17  2  0
 17 18  1  0
 19 18  2  0
 20 19  1  0
 21 20  2  0
 21 16  1  0
 22 14  1  0
 23 22  2  0
 24 22  1  0
 25 24  1  0
 26 27  1  0
 25 26  1  1
 28 29  1  0
 28 27  1  0
 29 30  1  0
 31 25  1  0
 31 33  1  0
 32 31  2  0
M  END
$$$$
