YFK.pdb
     RDKit          3D

 33 34  0  0  1  0  0  0  0  0999 V2000
   22.4856   -9.2578    7.2894 O   0  0  0  0  0  0  0  0  0  0  0  0
   21.7339  -10.4424    7.2636 C   0  0  0  0  0  0  0  0  0  0  0  0
   21.2688  -10.9731    6.0798 C   0  0  0  0  0  0  0  0  0  0  0  0
   20.5307  -12.1366    6.0557 C   0  0  0  0  0  0  0  0  0  0  0  0
   20.2189  -12.8334    7.2291 C   0  0  0  0  0  0  0  0  0  0  0  0
   19.4169  -14.0799    7.1925 C   0  0  0  0  0  0  0  0  0  0  0  0
   18.0738  -13.9048    6.5919 C   0  0  2  0  0  0  0  0  0  0  0  0
   17.1846  -13.1126    7.4465 N   0  0  0  0  0  0  0  0  0  0  0  0
   17.3566  -15.1102    6.1919 C   0  0  0  0  0  0  0  0  0  0  0  0
   16.5536  -15.6024    7.0610 O   0  0  0  0  0  0  0  0  0  0  0  0
   20.6974  -12.2786    8.3970 C   0  0  0  0  0  0  0  0  0  0  0  0
   21.4357  -11.1159    8.4280 C   0  0  0  0  0  0  0  0  0  0  0  0
   17.4910  -15.7508    4.9368 N   0  0  0  0  0  0  0  0  0  0  0  0
   16.8386  -17.0150    4.7014 C   0  0  1  0  0  0  0  0  0  0  0  0
   16.8448  -17.3675    3.2278 C   0  0  0  0  0  0  0  0  0  0  0  0
   16.1803  -18.6391    2.9400 C   0  0  0  0  0  0  0  0  0  0  0  0
   16.8856  -19.8115    2.8248 C   0  0  0  0  0  0  0  0  0  0  0  0
   16.2595  -21.0262    2.5464 C   0  0  0  0  0  0  0  0  0  0  0  0
   14.8954  -21.0860    2.3766 C   0  0  0  0  0  0  0  0  0  0  0  0
   14.1786  -19.9148    2.4906 C   0  0  0  0  0  0  0  0  0  0  0  0
   14.8129  -18.7035    2.7692 C   0  0  0  0  0  0  0  0  0  0  0  0
   17.4504  -18.0435    5.5631 C   0  0  0  0  0  0  0  0  0  0  0  0
   18.7124  -18.0817    5.7115 O   0  0  0  0  0  0  0  0  0  0  0  0
   16.7205  -19.0391    6.2761 N   0  0  0  0  0  0  0  0  0  0  0  0
   17.3897  -20.0573    7.1053 C   0  0  1  0  0  0  0  0  0  0  0  0
   16.8189  -19.8744    8.5007 C   0  0  0  0  0  0  0  0  0  0  0  0
   17.2251  -20.9385    9.4687 C   0  0  0  0  0  0  0  0  0  0  0  0
   16.8264  -20.4298   10.8607 C   0  0  0  0  0  0  0  0  0  0  0  0
   17.2627  -21.4025   11.9293 C   0  0  0  0  0  0  0  0  0  0  0  0
   16.7946  -20.9844   13.2295 N   0  0  0  0  0  0  0  0  0  0  0  0
   17.1972  -21.3927    6.5553 C   0  0  0  0  0  0  0  0  0  0  0  0
   16.1014  -21.6934    6.0247 O   0  0  0  0  0  0  0  0  0  0  0  0
   18.1820  -22.3604    6.5904 O   0  0  0  0  0  0  0  0  0  0  0  0
  2  1  1  0
  3  2  2  0
  4  3  1  0
  5 11  1  0
  5  4  2  0
  6  5  1  0
  7  6  1  0
  7  8  1  1
  9  7  1  0
  9 10  2  0
 11 12  2  0
 12  2  1  0
 13  9  1  0
 14 13  1  0
 14 15  1  6
 16 15  1  0
 16 17  2  0
 17 18  1  0
 19 18  2  0
 20 19  1  0
 21 20  2  0
 21 16  1  0
 22 14  1  0
 23 22  2  0
 24 22  1  0
 25 24  1  0
 26 27  1  0
 25 26  1  1
 28 29  1  0
 28 27  1  0
 29 30  1  0
 31 25  1  0
 31 33  1  0
 32 31  2  0
M  END
$$$$
