YFK.pdb
     RDKit          3D

 33 34  0  0  1  0  0  0  0  0999 V2000
   15.6984  -25.7046   -8.4784 O   0  0  0  0  0  0  0  0  0  0  0  0
   16.8249  -24.9391   -8.8156 C   0  0  0  0  0  0  0  0  0  0  0  0
   16.7435  -23.8971   -9.7140 C   0  0  0  0  0  0  0  0  0  0  0  0
   17.8507  -23.1459  -10.0444 C   0  0  0  0  0  0  0  0  0  0  0  0
   19.1075  -23.4043   -9.4847 C   0  0  0  0  0  0  0  0  0  0  0  0
   20.2938  -22.5950   -9.8535 C   0  0  0  0  0  0  0  0  0  0  0  0
   20.7257  -21.6560   -8.7919 C   0  0  2  0  0  0  0  0  0  0  0  0
   19.7796  -20.5509   -8.6124 N   0  0  0  0  0  0  0  0  0  0  0  0
   22.0644  -21.0879   -8.9042 C   0  0  0  0  0  0  0  0  0  0  0  0
   22.2103  -20.1567   -9.7725 O   0  0  0  0  0  0  0  0  0  0  0  0
   19.1578  -24.4519   -8.5899 C   0  0  0  0  0  0  0  0  0  0  0  0
   18.0550  -25.2067   -8.2555 C   0  0  0  0  0  0  0  0  0  0  0  0
   23.1805  -21.4924   -8.1332 N   0  0  0  0  0  0  0  0  0  0  0  0
   24.4546  -20.8426   -8.3168 C   0  0  1  0  0  0  0  0  0  0  0  0
   25.3764  -21.1049   -7.1432 C   0  0  0  0  0  0  0  0  0  0  0  0
   26.6674  -20.4271   -7.2660 C   0  0  0  0  0  0  0  0  0  0  0  0
   26.8355  -19.1203   -6.8797 C   0  0  0  0  0  0  0  0  0  0  0  0
   28.0618  -18.4667   -6.9980 C   0  0  0  0  0  0  0  0  0  0  0  0
   29.1561  -19.1228   -7.5130 C   0  0  0  0  0  0  0  0  0  0  0  0
   28.9977  -20.4347   -7.9033 C   0  0  0  0  0  0  0  0  0  0  0  0
   27.7670  -21.0813   -7.7817 C   0  0  0  0  0  0  0  0  0  0  0  0
   25.0189  -21.2426   -9.6192 C   0  0  0  0  0  0  0  0  0  0  0  0
   24.8860  -22.4380  -10.0309 O   0  0  0  0  0  0  0  0  0  0  0  0
   25.7282  -20.3696  -10.4950 N   0  0  0  0  0  0  0  0  0  0  0  0
   26.2963  -20.8345  -11.7731 C   0  0  1  0  0  0  0  0  0  0  0  0
   25.7144  -19.9105  -12.8286 C   0  0  0  0  0  0  0  0  0  0  0  0
   25.9649  -20.3567  -14.2329 C   0  0  0  0  0  0  0  0  0  0  0  0
   27.2354  -19.6307  -14.6957 C   0  0  0  0  0  0  0  0  0  0  0  0
   27.5877  -20.0212  -16.1105 C   0  0  0  0  0  0  0  0  0  0  0  0
   28.7127  -19.2550  -16.5921 N   0  0  0  0  0  0  0  0  0  0  0  0
   27.7526  -20.8429  -11.7289 C   0  0  0  0  0  0  0  0  0  0  0  0
   28.3757  -21.8975  -11.9976 O   0  0  0  0  0  0  0  0  0  0  0  0
   28.4930  -19.7243  -11.3999 O   0  0  0  0  0  0  0  0  0  0  0  0
  2  1  1  0
  3  2  2  0
  4  3  1  0
  5 11  1  0
  5  4  2  0
  6  5  1  0
  7  6  1  0
  7  8  1  6
  9  7  1  0
  9 10  2  0
 11 12  2  0
 12  2  1  0
 13  9  1  0
 14 13  1  0
 14 15  1  1
 16 15  1  0
 16 17  2  0
 17 18  1  0
 19 18  2  0
 20 19  1  0
 21 20  2  0
 21 16  1  0
 22 14  1  0
 23 22  2  0
 24 22  1  0
 25 24  1  0
 26 27  1  0
 25 26  1  6
 28 29  1  0
 28 27  1  0
 29 30  1  0
 31 25  1  0
 31 33  1  0
 32 31  2  0
M  END
$$$$
