YFK.pdb
     RDKit          3D

 33 34  0  0  1  0  0  0  0  0999 V2000
   33.5347  -27.9000  -19.7551 O   0  0  0  0  0  0  0  0  0  0  0  0
   32.2828  -28.2064  -19.2006 C   0  0  0  0  0  0  0  0  0  0  0  0
   32.1416  -28.4979  -17.8610 C   0  0  0  0  0  0  0  0  0  0  0  0
   30.9115  -28.7987  -17.3175 C   0  0  0  0  0  0  0  0  0  0  0  0
   29.7495  -28.8223  -18.0977 C   0  0  0  0  0  0  0  0  0  0  0  0
   28.4322  -29.1554  -17.5043 C   0  0  0  0  0  0  0  0  0  0  0  0
   27.5291  -27.9885  -17.3698 C   0  0  2  0  0  0  0  0  0  0  0  0
   27.9935  -27.0442  -16.3493 N   0  0  0  0  0  0  0  0  0  0  0  0
   26.1173  -28.2591  -17.1228 C   0  0  0  0  0  0  0  0  0  0  0  0
   25.7152  -28.0966  -15.9169 O   0  0  0  0  0  0  0  0  0  0  0  0
   29.9219  -28.5268  -19.4332 C   0  0  0  0  0  0  0  0  0  0  0  0
   31.1487  -28.2254  -19.9828 C   0  0  0  0  0  0  0  0  0  0  0  0
   25.1912  -28.6788  -18.1075 N   0  0  0  0  0  0  0  0  0  0  0  0
   23.8140  -28.9088  -17.7477 C   0  0  1  0  0  0  0  0  0  0  0  0
   22.8736  -28.3308  -18.7857 C   0  0  0  0  0  0  0  0  0  0  0  0
   21.4663  -28.6199  -18.5081 C   0  0  0  0  0  0  0  0  0  0  0  0
   20.7660  -27.9364  -17.5449 C   0  0  0  0  0  0  0  0  0  0  0  0
   19.4259  -28.2096  -17.2720 C   0  0  0  0  0  0  0  0  0  0  0  0
   18.7560  -29.1871  -17.9711 C   0  0  0  0  0  0  0  0  0  0  0  0
   19.4500  -29.8786  -18.9400 C   0  0  0  0  0  0  0  0  0  0  0  0
   20.7908  -29.5991  -19.2067 C   0  0  0  0  0  0  0  0  0  0  0  0
   23.6130  -30.3480  -17.4966 C   0  0  0  0  0  0  0  0  0  0  0  0
   24.1032  -31.2082  -18.2940 O   0  0  0  0  0  0  0  0  0  0  0  0
   22.8889  -30.8821  -16.3909 N   0  0  0  0  0  0  0  0  0  0  0  0
   22.8141  -32.3307  -16.1298 C   0  0  1  0  0  0  0  0  0  0  0  0
   22.7376  -32.4610  -14.6187 C   0  0  0  0  0  0  0  0  0  0  0  0
   22.5957  -33.8683  -14.1356 C   0  0  0  0  0  0  0  0  0  0  0  0
   22.4446  -33.7873  -12.6105 C   0  0  0  0  0  0  0  0  0  0  0  0
   22.3121  -35.1673  -12.0134 C   0  0  0  0  0  0  0  0  0  0  0  0
   22.0784  -35.0934  -10.5906 N   0  0  0  0  0  0  0  0  0  0  0  0
   21.6917  -32.9348  -16.8355 C   0  0  0  0  0  0  0  0  0  0  0  0
   20.6396  -32.2746  -17.0089 O   0  0  0  0  0  0  0  0  0  0  0  0
   21.7320  -34.2229  -17.3323 O   0  0  0  0  0  0  0  0  0  0  0  0
  2  1  1  0
  3  2  2  0
  4  3  1  0
  5 11  1  0
  5  4  2  0
  6  5  1  0
  7  6  1  0
  7  8  1  1
  9  7  1  0
  9 10  2  0
 11 12  2  0
 12  2  1  0
 13  9  1  0
 14 13  1  0
 14 15  1  6
 16 15  1  0
 16 17  2  0
 17 18  1  0
 19 18  2  0
 20 19  1  0
 21 20  2  0
 21 16  1  0
 22 14  1  0
 23 22  2  0
 24 22  1  0
 25 24  1  0
 26 27  1  0
 25 26  1  1
 28 29  1  0
 28 27  1  0
 29 30  1  0
 31 25  1  0
 31 33  1  0
 32 31  2  0
M  END
$$$$
