YFK.pdb
     RDKit          3D

 33 34  0  0  1  0  0  0  0  0999 V2000
   27.8393  -18.0542  -21.8696 O   0  0  0  0  0  0  0  0  0  0  0  0
   27.4832  -18.4711  -20.5781 C   0  0  0  0  0  0  0  0  0  0  0  0
   28.0298  -17.8848  -19.4569 C   0  0  0  0  0  0  0  0  0  0  0  0
   27.6792  -18.2952  -18.1889 C   0  0  0  0  0  0  0  0  0  0  0  0
   26.7537  -19.3242  -17.9793 C   0  0  0  0  0  0  0  0  0  0  0  0
   26.3899  -19.7635  -16.6107 C   0  0  0  0  0  0  0  0  0  0  0  0
   27.3449  -20.7327  -16.0244 C   0  0  2  0  0  0  0  0  0  0  0  0
   27.3126  -22.0266  -16.7124 N   0  0  0  0  0  0  0  0  0  0  0  0
   27.2495  -20.9834  -14.5907 C   0  0  0  0  0  0  0  0  0  0  0  0
   26.4462  -21.9162  -14.2342 O   0  0  0  0  0  0  0  0  0  0  0  0
   26.2243  -19.8913  -19.1190 C   0  0  0  0  0  0  0  0  0  0  0  0
   26.5705  -19.4859  -20.3892 C   0  0  0  0  0  0  0  0  0  0  0  0
   27.9705  -20.2779  -13.5978 N   0  0  0  0  0  0  0  0  0  0  0  0
   27.6901  -20.5119  -12.2029 C   0  0  1  0  0  0  0  0  0  0  0  0
   28.7093  -19.8243  -11.3173 C   0  0  0  0  0  0  0  0  0  0  0  0
   28.3501  -19.8559   -9.8991 C   0  0  0  0  0  0  0  0  0  0  0  0
   28.7859  -20.8573   -9.0669 C   0  0  0  0  0  0  0  0  0  0  0  0
   28.4439  -20.8961   -7.7154 C   0  0  0  0  0  0  0  0  0  0  0  0
   27.6476  -19.9167   -7.1680 C   0  0  0  0  0  0  0  0  0  0  0  0
   27.2053  -18.9072   -7.9950 C   0  0  0  0  0  0  0  0  0  0  0  0
   27.5520  -18.8758   -9.3463 C   0  0  0  0  0  0  0  0  0  0  0  0
   26.2956  -20.1259  -11.9179 C   0  0  0  0  0  0  0  0  0  0  0  0
   25.8156  -19.0592  -12.4156 O   0  0  0  0  0  0  0  0  0  0  0  0
   25.4002  -20.8763  -11.1010 N   0  0  0  0  0  0  0  0  0  0  0  0
   24.0100  -20.4476  -10.8643 C   0  0  1  0  0  0  0  0  0  0  0  0
   23.1880  -21.1515  -11.9297 C   0  0  0  0  0  0  0  0  0  0  0  0
   22.3453  -20.2326  -12.7540 C   0  0  0  0  0  0  0  0  0  0  0  0
   22.2223  -20.8854  -14.1376 C   0  0  0  0  0  0  0  0  0  0  0  0
   21.3974  -20.0239  -15.0626 C   0  0  0  0  0  0  0  0  0  0  0  0
   20.8104  -18.9151  -14.3482 N   0  0  0  0  0  0  0  0  0  0  0  0
   23.5934  -20.7447   -9.5001 C   0  0  0  0  0  0  0  0  0  0  0  0
   24.2339  -21.5850   -8.8245 O   0  0  0  0  0  0  0  0  0  0  0  0
   22.5075  -20.1334   -8.9044 O   0  0  0  0  0  0  0  0  0  0  0  0
  2  1  1  0
  3  2  2  0
  4  3  1  0
  5 11  1  0
  5  4  2  0
  6  5  1  0
  7  6  1  0
  7  8  1  6
  9  7  1  0
  9 10  2  0
 11 12  2  0
 12  2  1  0
 13  9  1  0
 14 13  1  0
 14 15  1  1
 16 15  1  0
 16 17  2  0
 17 18  1  0
 19 18  2  0
 20 19  1  0
 21 20  2  0
 21 16  1  0
 22 14  1  0
 23 22  2  0
 24 22  1  0
 25 24  1  0
 26 27  1  0
 25 26  1  6
 28 29  1  0
 28 27  1  0
 29 30  1  0
 31 25  1  0
 31 33  1  0
 32 31  2  0
M  END
$$$$
