YFK.pdb
     RDKit          3D

 33 34  0  0  1  0  0  0  0  0999 V2000
   16.5147  -23.7297  -11.3049 O   0  0  0  0  0  0  0  0  0  0  0  0
   17.8163  -23.3245  -11.6369 C   0  0  0  0  0  0  0  0  0  0  0  0
   18.8725  -23.5196  -10.7732 C   0  0  0  0  0  0  0  0  0  0  0  0
   20.1505  -23.1212  -11.1005 C   0  0  0  0  0  0  0  0  0  0  0  0
   20.4366  -22.5012  -12.3225 C   0  0  0  0  0  0  0  0  0  0  0  0
   21.8139  -22.0691  -12.6610 C   0  0  0  0  0  0  0  0  0  0  0  0
   22.3242  -20.9798  -11.7960 C   0  0  2  0  0  0  0  0  0  0  0  0
   21.4754  -19.7860  -11.8508 N   0  0  0  0  0  0  0  0  0  0  0  0
   23.7063  -20.5582  -11.9950 C   0  0  0  0  0  0  0  0  0  0  0  0
   23.8749  -19.4759  -12.6603 O   0  0  0  0  0  0  0  0  0  0  0  0
   19.3607  -22.3196  -13.1653 C   0  0  0  0  0  0  0  0  0  0  0  0
   18.0809  -22.7154  -12.8442 C   0  0  0  0  0  0  0  0  0  0  0  0
   24.8403  -21.2534  -11.5110 N   0  0  0  0  0  0  0  0  0  0  0  0
   26.1638  -20.7601  -11.8008 C   0  0  1  0  0  0  0  0  0  0  0  0
   27.1750  -21.2887  -10.8038 C   0  0  0  0  0  0  0  0  0  0  0  0
   27.0039  -20.7289   -9.4627 C   0  0  0  0  0  0  0  0  0  0  0  0
   26.7859  -21.5300   -8.3691 C   0  0  0  0  0  0  0  0  0  0  0  0
   26.6177  -21.0030   -7.0889 C   0  0  0  0  0  0  0  0  0  0  0  0
   26.6661  -19.6438   -6.8812 C   0  0  0  0  0  0  0  0  0  0  0  0
   26.8846  -18.8312   -7.9723 C   0  0  0  0  0  0  0  0  0  0  0  0
   27.0519  -19.3666   -9.2501 C   0  0  0  0  0  0  0  0  0  0  0  0
   26.4967  -21.0629  -13.2051 C   0  0  0  0  0  0  0  0  0  0  0  0
   26.0163  -22.0984  -13.7646 O   0  0  0  0  0  0  0  0  0  0  0  0
   27.3436  -20.2619  -14.0258 N   0  0  0  0  0  0  0  0  0  0  0  0
   27.5940  -20.5837  -15.4421 C   0  0  1  0  0  0  0  0  0  0  0  0
   27.7404  -22.0946  -15.4887 C   0  0  0  0  0  0  0  0  0  0  0  0
   27.9081  -22.6475  -16.8673 C   0  0  0  0  0  0  0  0  0  0  0  0
   29.0784  -23.6377  -16.7950 C   0  0  0  0  0  0  0  0  0  0  0  0
   29.4801  -24.0908  -18.1777 C   0  0  0  0  0  0  0  0  0  0  0  0
   30.7330  -24.8073  -18.1420 N   0  0  0  0  0  0  0  0  0  0  0  0
   26.5334  -20.0633  -16.2948 C   0  0  0  0  0  0  0  0  0  0  0  0
   25.3711  -20.5225  -16.1902 O   0  0  0  0  0  0  0  0  0  0  0  0
   26.7507  -19.0697  -17.2293 O   0  0  0  0  0  0  0  0  0  0  0  0
  2  1  1  0
  3  2  2  0
  4  3  1  0
  5 11  1  0
  5  4  2  0
  6  5  1  0
  7  6  1  0
  7  8  1  6
  9  7  1  0
  9 10  2  0
 11 12  2  0
 12  2  1  0
 13  9  1  0
 14 13  1  0
 14 15  1  1
 16 15  1  0
 16 17  2  0
 17 18  1  0
 19 18  2  0
 20 19  1  0
 21 20  2  0
 21 16  1  0
 22 14  1  0
 23 22  2  0
 24 22  1  0
 25 24  1  0
 26 27  1  0
 25 26  1  1
 28 29  1  0
 28 27  1  0
 29 30  1  0
 31 25  1  0
 31 33  1  0
 32 31  2  0
M  END
$$$$
