YFK.pdb
     RDKit          3D

 33 34  0  0  1  0  0  0  0  0999 V2000
   23.5360  -18.6214  -17.8619 O   0  0  0  0  0  0  0  0  0  0  0  0
   23.7259  -19.0177  -16.5294 C   0  0  0  0  0  0  0  0  0  0  0  0
   24.4907  -18.2711  -15.6592 C   0  0  0  0  0  0  0  0  0  0  0  0
   24.6764  -18.6613  -14.3506 C   0  0  0  0  0  0  0  0  0  0  0  0
   24.0988  -19.8314  -13.8438 C   0  0  0  0  0  0  0  0  0  0  0  0
   24.3120  -20.2462  -12.4364 C   0  0  0  0  0  0  0  0  0  0  0  0
   25.7127  -20.6227  -12.1337 C   0  0  2  0  0  0  0  0  0  0  0  0
   26.1731  -21.7467  -12.9541 N   0  0  0  0  0  0  0  0  0  0  0  0
   26.0419  -20.9163  -10.7435 C   0  0  0  0  0  0  0  0  0  0  0  0
   26.1698  -22.1559  -10.4445 O   0  0  0  0  0  0  0  0  0  0  0  0
   23.3398  -20.5570  -14.7371 C   0  0  0  0  0  0  0  0  0  0  0  0
   23.1502  -20.1726  -16.0464 C   0  0  0  0  0  0  0  0  0  0  0  0
   26.2231  -19.9415   -9.7333 N   0  0  0  0  0  0  0  0  0  0  0  0
   26.6635  -20.3407   -8.4196 C   0  0  1  0  0  0  0  0  0  0  0  0
   27.6144  -19.3201   -7.8279 C   0  0  0  0  0  0  0  0  0  0  0  0
   28.0399  -19.6541   -6.4683 C   0  0  0  0  0  0  0  0  0  0  0  0
   28.7787  -20.7798   -6.1998 C   0  0  0  0  0  0  0  0  0  0  0  0
   29.1839  -21.1066   -4.9060 C   0  0  0  0  0  0  0  0  0  0  0  0
   28.8500  -20.2977   -3.8443 C   0  0  0  0  0  0  0  0  0  0  0  0
   28.1088  -19.1655   -4.1033 C   0  0  0  0  0  0  0  0  0  0  0  0
   27.7073  -18.8458   -5.4009 C   0  0  0  0  0  0  0  0  0  0  0  0
   25.4852  -20.6167   -7.5770 C   0  0  0  0  0  0  0  0  0  0  0  0
   25.5208  -21.5548   -6.7198 O   0  0  0  0  0  0  0  0  0  0  0  0
   24.2590  -19.8923   -7.6400 N   0  0  0  0  0  0  0  0  0  0  0  0
   22.9515  -20.5487   -7.4617 C   0  0  1  0  0  0  0  0  0  0  0  0
   22.4683  -20.8649   -8.8663 C   0  0  0  0  0  0  0  0  0  0  0  0
   21.1878  -21.6348   -8.9104 C   0  0  0  0  0  0  0  0  0  0  0  0
   20.9067  -21.9190  -10.3922 C   0  0  0  0  0  0  0  0  0  0  0  0
   19.6403  -22.7250  -10.5499 C   0  0  0  0  0  0  0  0  0  0  0  0
   18.9450  -22.8451   -9.2903 N   0  0  0  0  0  0  0  0  0  0  0  0
   23.0626  -21.7149   -6.5953 C   0  0  0  0  0  0  0  0  0  0  0  0
   22.4364  -21.7433   -5.5092 O   0  0  0  0  0  0  0  0  0  0  0  0
   23.8382  -22.8108   -6.9195 O   0  0  0  0  0  0  0  0  0  0  0  0
  2  1  1  0
  3  2  2  0
  4  3  1  0
  5 11  1  0
  5  4  2  0
  6  5  1  0
  7  6  1  0
  7  8  1  6
  9  7  1  0
  9 10  2  0
 11 12  2  0
 12  2  1  0
 13  9  1  0
 14 13  1  0
 14 15  1  1
 16 15  1  0
 16 17  2  0
 17 18  1  0
 19 18  2  0
 20 19  1  0
 21 20  2  0
 21 16  1  0
 22 14  1  0
 23 22  2  0
 24 22  1  0
 25 24  1  0
 26 27  1  0
 25 26  1  6
 28 29  1  0
 28 27  1  0
 29 30  1  0
 31 25  1  0
 31 33  1  0
 32 31  2  0
M  END
$$$$
