YFK.pdb
     RDKit          3D

 33 34  0  0  1  0  0  0  0  0999 V2000
   14.1095  -28.3646  -13.7765 O   0  0  0  0  0  0  0  0  0  0  0  0
   14.7777  -27.1557  -14.0228 C   0  0  0  0  0  0  0  0  0  0  0  0
   14.1079  -25.9511  -14.0236 C   0  0  0  0  0  0  0  0  0  0  0  0
   14.7653  -24.7644  -14.2657 C   0  0  0  0  0  0  0  0  0  0  0  0
   16.1410  -24.7254  -14.5214 C   0  0  0  0  0  0  0  0  0  0  0  0
   16.8368  -23.4437  -14.7888 C   0  0  0  0  0  0  0  0  0  0  0  0
   17.7660  -23.0357  -13.7092 C   0  0  2  0  0  0  0  0  0  0  0  0
   17.0737  -22.8203  -12.4353 N   0  0  0  0  0  0  0  0  0  0  0  0
   18.6169  -21.8779  -13.9598 C   0  0  0  0  0  0  0  0  0  0  0  0
   18.0340  -20.7366  -13.9451 O   0  0  0  0  0  0  0  0  0  0  0  0
   16.7837  -25.9451  -14.5141 C   0  0  0  0  0  0  0  0  0  0  0  0
   16.1325  -27.1349  -14.2729 C   0  0  0  0  0  0  0  0  0  0  0  0
   20.0086  -21.9378  -14.2114 N   0  0  0  0  0  0  0  0  0  0  0  0
   20.7628  -20.7197  -14.3742 C   0  0  1  0  0  0  0  0  0  0  0  0
   21.8045  -20.5716  -13.2838 C   0  0  0  0  0  0  0  0  0  0  0  0
   21.2289  -20.2190  -11.9855 C   0  0  0  0  0  0  0  0  0  0  0  0
   21.0428  -18.9114  -11.6102 C   0  0  0  0  0  0  0  0  0  0  0  0
   20.4989  -18.5681  -10.3728 C   0  0  0  0  0  0  0  0  0  0  0  0
   20.1268  -19.5449   -9.4781 C   0  0  0  0  0  0  0  0  0  0  0  0
   20.3093  -20.8603   -9.8455 C   0  0  0  0  0  0  0  0  0  0  0  0
   20.8544  -21.1953  -11.0856 C   0  0  0  0  0  0  0  0  0  0  0  0
   21.3180  -20.6727  -15.7395 C   0  0  0  0  0  0  0  0  0  0  0  0
   21.9522  -21.6717  -16.2040 O   0  0  0  0  0  0  0  0  0  0  0  0
   21.1992  -19.5597  -16.6224 N   0  0  0  0  0  0  0  0  0  0  0  0
   21.7652  -19.5755  -17.9832 C   0  0  1  0  0  0  0  0  0  0  0  0
   20.9451  -18.5672  -18.7687 C   0  0  0  0  0  0  0  0  0  0  0  0
   21.2927  -18.4994  -20.2209 C   0  0  0  0  0  0  0  0  0  0  0  0
   20.3538  -17.4554  -20.8405 C   0  0  0  0  0  0  0  0  0  0  0  0
   20.6107  -17.3190  -22.3216 C   0  0  0  0  0  0  0  0  0  0  0  0
   19.5821  -16.5263  -22.9527 N   0  0  0  0  0  0  0  0  0  0  0  0
   23.1940  -19.2910  -17.9615 C   0  0  0  0  0  0  0  0  0  0  0  0
   23.6425  -18.4240  -17.1741 O   0  0  0  0  0  0  0  0  0  0  0  0
   24.0945  -19.9429  -18.7811 O   0  0  0  0  0  0  0  0  0  0  0  0
  2  1  1  0
  3  2  2  0
  4  3  1  0
  5 11  1  0
  5  4  2  0
  6  5  1  0
  7  6  1  0
  7  8  1  1
  9  7  1  0
  9 10  2  0
 11 12  2  0
 12  2  1  0
 13  9  1  0
 14 13  1  0
 14 15  1  1
 16 15  1  0
 16 17  2  0
 17 18  1  0
 19 18  2  0
 20 19  1  0
 21 20  2  0
 21 16  1  0
 22 14  1  0
 23 22  2  0
 24 22  1  0
 25 24  1  0
 26 27  1  0
 25 26  1  6
 28 29  1  0
 28 27  1  0
 29 30  1  0
 31 25  1  0
 31 33  1  0
 32 31  2  0
M  END
$$$$
