KHD.pdb
     RDKit          3D

 28 28  0  0  1  0  0  0  0  0999 V2000
   23.1683  -19.1233  -18.4137 N   0  0  0  0  0  0  0  0  0  0  0  0
   23.5763  -20.4468  -17.9852 C   0  0  1  0  0  0  0  0  0  0  0  0
   25.0915  -20.4419  -17.9927 C   0  0  0  0  0  0  0  0  0  0  0  0
   25.6693  -20.0029  -19.2879 C   0  0  0  0  0  0  0  0  0  0  0  0
   24.8307  -20.1787  -20.4982 C   0  0  0  0  0  0  0  0  0  0  0  0
   25.4644  -19.7378  -21.7890 C   0  0  0  0  0  0  0  0  0  0  0  0
   24.6642  -19.9628  -22.9586 N   0  0  0  0  0  0  0  0  0  0  0  0
   23.1586  -20.6553  -16.5793 C   0  0  0  0  0  0  0  0  0  0  0  0
   23.5536  -21.6871  -15.9873 O   0  0  0  0  0  0  0  0  0  0  0  0
   22.3357  -19.7483  -15.8691 N   0  0  0  0  0  0  0  0  0  0  0  0
   21.7877  -20.0743  -14.5943 C   0  0  1  0  0  0  0  0  0  0  0  0
   21.9138  -19.0007  -13.5705 C   0  0  0  0  0  0  0  0  0  0  0  0
   21.3240  -19.3098  -12.2527 C   0  0  0  0  0  0  0  0  0  0  0  0
   21.8855  -20.1082  -11.2847 C   0  0  0  0  0  0  0  0  0  0  0  0
   21.0332  -20.1286  -10.2239 N   0  0  0  0  0  0  0  0  0  0  0  0
   19.9702  -19.3737  -10.5022 C   0  0  0  0  0  0  0  0  0  0  0  0
   20.1531  -18.8840  -11.7266 N   0  0  0  0  0  0  0  0  0  0  0  0
   20.4269  -20.6685  -14.6806 C   0  0  0  0  0  0  0  0  0  0  0  0
   19.5140  -20.1591  -15.3802 O   0  0  0  0  0  0  0  0  0  0  0  0
   20.0754  -21.8576  -13.9670 N   0  0  0  0  0  0  0  0  0  0  0  0
   18.7541  -22.3788  -13.8296 C   0  0  1  0  0  0  0  0  0  0  0  0
   18.6515  -23.7964  -13.3767 C   0  0  0  0  0  0  0  0  0  0  0  0
   17.2929  -24.3668  -13.4048 C   0  0  0  0  0  0  0  0  0  0  0  0
   16.4650  -24.1439  -14.3220 O   0  0  0  0  0  0  0  0  0  0  0  0
   17.9323  -21.5843  -12.8643 C   0  0  0  0  0  0  0  0  0  0  0  0
   18.4813  -21.1036  -11.7085 O   0  0  0  0  0  0  0  0  0  0  0  0
   16.8759  -25.1989  -12.3773 O   0  0  0  0  0  0  0  0  0  0  0  0
   16.7428  -21.3729  -13.1382 O   0  0  0  0  0  0  0  0  0  0  0  0
  2  1  1  1
  2  3  1  0
  4  3  1  0
  5  4  1  0
  6  5  1  0
  7  6  1  0
  8  9  2  0
  8  2  1  0
 10  8  1  0
 11 10  1  0
 11 12  1  1
 12 13  1  0
 13 17  1  0
 13 14  2  0
 14 15  1  0
 16 15  1  0
 17 16  2  0
 18 20  1  0
 18 11  1  0
 19 18  2  0
 21 25  1  0
 21 20  1  0
 21 22  1  1
 22 23  1  0
 23 27  1  0
 23 24  2  0
 25 26  1  0
 28 25  2  0
M  END
$$$$
