KHD.pdb
     RDKit          3D

 28 28  0  0  1  0  0  0  0  0999 V2000
   21.6512  -11.7948  -19.0315 N   0  0  0  0  0  0  0  0  0  0  0  0
   20.4072  -11.1530  -19.4086 C   0  0  1  0  0  0  0  0  0  0  0  0
   19.4062  -12.2703  -19.6220 C   0  0  0  0  0  0  0  0  0  0  0  0
   19.4852  -12.8770  -20.9747 C   0  0  0  0  0  0  0  0  0  0  0  0
   19.5122  -14.3576  -21.0526 C   0  0  0  0  0  0  0  0  0  0  0  0
   19.6378  -14.9261  -22.4394 C   0  0  0  0  0  0  0  0  0  0  0  0
   18.6951  -14.4076  -23.3888 N   0  0  0  0  0  0  0  0  0  0  0  0
   19.9087  -10.3469  -18.2700 C   0  0  0  0  0  0  0  0  0  0  0  0
   18.7816   -9.8078  -18.3701 O   0  0  0  0  0  0  0  0  0  0  0  0
   20.6403  -10.1542  -17.0735 N   0  0  0  0  0  0  0  0  0  0  0  0
   20.1542   -9.3210  -16.0241 C   0  0  1  0  0  0  0  0  0  0  0  0
   19.6858  -10.0533  -14.8153 C   0  0  0  0  0  0  0  0  0  0  0  0
   18.6252  -11.0528  -15.0518 C   0  0  0  0  0  0  0  0  0  0  0  0
   18.7900  -12.4175  -15.0601 C   0  0  0  0  0  0  0  0  0  0  0  0
   17.5736  -12.9767  -15.3044 N   0  0  0  0  0  0  0  0  0  0  0  0
   16.6678  -12.0089  -15.4463 C   0  0  0  0  0  0  0  0  0  0  0  0
   17.3096  -10.8527  -15.2927 N   0  0  0  0  0  0  0  0  0  0  0  0
   21.0562   -8.1769  -15.7244 C   0  0  0  0  0  0  0  0  0  0  0  0
   22.2973   -8.3197  -15.5779 O   0  0  0  0  0  0  0  0  0  0  0  0
   20.5611   -6.8423  -15.5816 N   0  0  0  0  0  0  0  0  0  0  0  0
   21.3490   -5.6998  -15.2494 C   0  0  1  0  0  0  0  0  0  0  0  0
   20.6899   -4.3734  -15.4280 C   0  0  0  0  0  0  0  0  0  0  0  0
   21.5407   -3.2062  -15.1358 C   0  0  0  0  0  0  0  0  0  0  0  0
   21.4088   -2.4892  -14.1134 O   0  0  0  0  0  0  0  0  0  0  0  0
   21.8170   -5.7318  -13.8287 C   0  0  0  0  0  0  0  0  0  0  0  0
   21.2362   -6.5713  -12.9196 O   0  0  0  0  0  0  0  0  0  0  0  0
   22.5507   -2.8542  -16.0178 O   0  0  0  0  0  0  0  0  0  0  0  0
   22.7434   -4.9793  -13.4967 O   0  0  0  0  0  0  0  0  0  0  0  0
  2  1  1  1
  2  3  1  0
  4  3  1  0
  5  4  1  0
  6  5  1  0
  7  6  1  0
  8  9  2  0
  8  2  1  0
 10  8  1  0
 11 10  1  0
 11 12  1  1
 12 13  1  0
 13 17  1  0
 13 14  2  0
 14 15  1  0
 16 15  1  0
 17 16  2  0
 18 20  1  0
 18 11  1  0
 19 18  2  0
 21 25  1  0
 21 20  1  0
 21 22  1  1
 22 23  1  0
 23 27  1  0
 23 24  2  0
 25 26  1  0
 28 25  2  0
M  END
$$$$
