KHD.pdb
     RDKit          3D

 28 28  0  0  1  0  0  0  0  0999 V2000
   22.4812  -19.2542  -19.3168 N   0  0  0  0  0  0  0  0  0  0  0  0
   21.9202  -20.5638  -19.0485 C   0  0  1  0  0  0  0  0  0  0  0  0
   23.0746  -21.5412  -19.1373 C   0  0  0  0  0  0  0  0  0  0  0  0
   23.9810  -21.2745  -20.2825 C   0  0  0  0  0  0  0  0  0  0  0  0
   24.8249  -20.0574  -20.2093 C   0  0  0  0  0  0  0  0  0  0  0  0
   25.7956  -19.8790  -21.3443 C   0  0  0  0  0  0  0  0  0  0  0  0
   26.8659  -20.8342  -21.3751 N   0  0  0  0  0  0  0  0  0  0  0  0
   21.4314  -20.6087  -17.6508 C   0  0  0  0  0  0  0  0  0  0  0  0
   21.0562  -21.7107  -17.1861 O   0  0  0  0  0  0  0  0  0  0  0  0
   21.3663  -19.4702  -16.8120 N   0  0  0  0  0  0  0  0  0  0  0  0
   20.7575  -19.5222  -15.5242 C   0  0  1  0  0  0  0  0  0  0  0  0
   21.2573  -18.5048  -14.5589 C   0  0  0  0  0  0  0  0  0  0  0  0
   20.7127  -18.6089  -13.1904 C   0  0  0  0  0  0  0  0  0  0  0  0
   19.7946  -19.5351  -12.7558 C   0  0  0  0  0  0  0  0  0  0  0  0
   19.5643  -19.2971  -11.4358 N   0  0  0  0  0  0  0  0  0  0  0  0
   20.3052  -18.2610  -11.0424 C   0  0  0  0  0  0  0  0  0  0  0  0
   20.9943  -17.8521  -12.1056 N   0  0  0  0  0  0  0  0  0  0  0  0
   19.2745  -19.6185  -15.5851 C   0  0  0  0  0  0  0  0  0  0  0  0
   18.5777  -18.8341  -16.2791 O   0  0  0  0  0  0  0  0  0  0  0  0
   18.5515  -20.6116  -14.8518 N   0  0  0  0  0  0  0  0  0  0  0  0
   17.1305  -20.7345  -14.8071 C   0  0  1  0  0  0  0  0  0  0  0  0
   16.5993  -22.0697  -14.4065 C   0  0  0  0  0  0  0  0  0  0  0  0
   15.8269  -22.7745  -15.4449 C   0  0  0  0  0  0  0  0  0  0  0  0
   16.2371  -22.9458  -16.6193 O   0  0  0  0  0  0  0  0  0  0  0  0
   16.5092  -19.7518  -13.8653 C   0  0  0  0  0  0  0  0  0  0  0  0
   15.4961  -18.9322  -14.2777 O   0  0  0  0  0  0  0  0  0  0  0  0
   14.5758  -23.2883  -15.1405 O   0  0  0  0  0  0  0  0  0  0  0  0
   16.9354  -19.6994  -12.7033 O   0  0  0  0  0  0  0  0  0  0  0  0
  2  1  1  1
  2  3  1  0
  4  3  1  0
  5  4  1  0
  6  5  1  0
  7  6  1  0
  8  9  2  0
  8  2  1  0
 10  8  1  0
 11 10  1  0
 11 12  1  1
 12 13  1  0
 13 17  1  0
 13 14  2  0
 14 15  1  0
 16 15  1  0
 17 16  2  0
 18 20  1  0
 18 11  1  0
 19 18  2  0
 21 25  1  0
 21 20  1  0
 21 22  1  1
 22 23  1  0
 23 27  1  0
 23 24  2  0
 25 26  1  0
 28 25  2  0
M  END
$$$$
