KHD.pdb
     RDKit          3D

 28 28  0  0  1  0  0  0  0  0999 V2000
   27.2441  -22.2365  -15.4144 N   0  0  0  0  0  0  0  0  0  0  0  0
   26.3058  -21.1871  -15.7608 C   0  0  1  0  0  0  0  0  0  0  0  0
   25.9154  -21.4326  -17.2041 C   0  0  0  0  0  0  0  0  0  0  0  0
   26.5607  -22.6350  -17.7889 C   0  0  0  0  0  0  0  0  0  0  0  0
   26.0402  -23.9572  -17.3648 C   0  0  0  0  0  0  0  0  0  0  0  0
   26.5545  -25.1325  -18.1498 C   0  0  0  0  0  0  0  0  0  0  0  0
   26.0963  -26.4109  -17.6867 N   0  0  0  0  0  0  0  0  0  0  0  0
   25.0739  -21.3474  -14.9538 C   0  0  0  0  0  0  0  0  0  0  0  0
   24.8079  -22.4818  -14.4918 O   0  0  0  0  0  0  0  0  0  0  0  0
   24.1810  -20.2843  -14.6768 N   0  0  0  0  0  0  0  0  0  0  0  0
   23.0572  -20.4546  -13.8167 C   0  0  1  0  0  0  0  0  0  0  0  0
   23.1236  -19.6804  -12.5467 C   0  0  0  0  0  0  0  0  0  0  0  0
   24.0190  -20.2359  -11.5124 C   0  0  0  0  0  0  0  0  0  0  0  0
   23.6235  -20.8806  -10.3646 C   0  0  0  0  0  0  0  0  0  0  0  0
   24.7479  -21.2433   -9.6889 N   0  0  0  0  0  0  0  0  0  0  0  0
   25.8186  -20.8468  -10.3770 C   0  0  0  0  0  0  0  0  0  0  0  0
   25.3708  -20.2405  -11.4744 N   0  0  0  0  0  0  0  0  0  0  0  0
   21.7566  -20.3356  -14.5283 C   0  0  0  0  0  0  0  0  0  0  0  0
   21.5073  -19.3905  -15.3201 O   0  0  0  0  0  0  0  0  0  0  0  0
   20.7078  -21.2922  -14.3498 N   0  0  0  0  0  0  0  0  0  0  0  0
   19.4427  -21.2642  -15.0094 C   0  0  1  0  0  0  0  0  0  0  0  0
   18.6630  -22.5358  -14.9879 C   0  0  0  0  0  0  0  0  0  0  0  0
   17.4190  -22.5219  -15.7780 C   0  0  0  0  0  0  0  0  0  0  0  0
   17.0020  -21.5134  -16.3990 O   0  0  0  0  0  0  0  0  0  0  0  0
   18.5333  -20.2214  -14.4401 C   0  0  0  0  0  0  0  0  0  0  0  0
   17.6378  -19.5640  -15.2365 O   0  0  0  0  0  0  0  0  0  0  0  0
   16.6445  -23.6687  -15.8599 O   0  0  0  0  0  0  0  0  0  0  0  0
   18.6120  -19.9686  -13.2299 O   0  0  0  0  0  0  0  0  0  0  0  0
  2  1  1  1
  2  3  1  0
  4  3  1  0
  5  4  1  0
  6  5  1  0
  7  6  1  0
  8  9  2  0
  8  2  1  0
 10  8  1  0
 11 10  1  0
 11 12  1  1
 12 13  1  0
 13 17  1  0
 13 14  2  0
 14 15  1  0
 16 15  1  0
 17 16  2  0
 18 20  1  0
 18 11  1  0
 19 18  2  0
 21 25  1  0
 21 20  1  0
 21 22  1  1
 22 23  1  0
 23 27  1  0
 23 24  2  0
 25 26  1  0
 28 25  2  0
M  END
$$$$
