KHD.pdb
     RDKit          3D

 28 28  0  0  1  0  0  0  0  0999 V2000
   25.9335  -37.7211    0.9898 N   0  0  0  0  0  0  0  0  0  0  0  0
   25.8169  -37.8645    2.4276 C   0  0  1  0  0  0  0  0  0  0  0  0
   25.3275  -39.2778    2.6703 C   0  0  0  0  0  0  0  0  0  0  0  0
   23.8645  -39.3580    2.9099 C   0  0  0  0  0  0  0  0  0  0  0  0
   23.3484  -40.5957    3.5428 C   0  0  0  0  0  0  0  0  0  0  0  0
   21.8685  -40.6116    3.8111 C   0  0  0  0  0  0  0  0  0  0  0  0
   21.3769  -41.8271    4.3940 N   0  0  0  0  0  0  0  0  0  0  0  0
   27.1630  -37.7697    3.0387 C   0  0  0  0  0  0  0  0  0  0  0  0
   28.0459  -38.5761    2.6629 O   0  0  0  0  0  0  0  0  0  0  0  0
   27.5041  -36.8141    4.0260 N   0  0  0  0  0  0  0  0  0  0  0  0
   28.8184  -36.7377    4.5723 C   0  0  1  0  0  0  0  0  0  0  0  0
   29.6542  -35.6319    4.0287 C   0  0  0  0  0  0  0  0  0  0  0  0
   29.9243  -35.6962    2.5786 C   0  0  0  0  0  0  0  0  0  0  0  0
   29.1981  -35.0691    1.5941 C   0  0  0  0  0  0  0  0  0  0  0  0
   29.7766  -35.3731    0.4003 N   0  0  0  0  0  0  0  0  0  0  0  0
   30.8299  -36.1621    0.6129 C   0  0  0  0  0  0  0  0  0  0  0  0
   30.9119  -36.3521    1.9280 N   0  0  0  0  0  0  0  0  0  0  0  0
   28.8383  -36.8353    6.0563 C   0  0  0  0  0  0  0  0  0  0  0  0
   27.8510  -36.5103    6.7648 O   0  0  0  0  0  0  0  0  0  0  0  0
   29.9882  -37.3037    6.7670 N   0  0  0  0  0  0  0  0  0  0  0  0
   30.0870  -37.4343    8.1846 C   0  0  1  0  0  0  0  0  0  0  0  0
   29.0621  -38.2998    8.8371 C   0  0  0  0  0  0  0  0  0  0  0  0
   29.1407  -38.3651   10.3072 C   0  0  0  0  0  0  0  0  0  0  0  0
   29.9286  -37.6676   10.9922 O   0  0  0  0  0  0  0  0  0  0  0  0
   31.4120  -37.9847    8.6088 C   0  0  0  0  0  0  0  0  0  0  0  0
   32.1504  -37.3628    9.5765 O   0  0  0  0  0  0  0  0  0  0  0  0
   28.3129  -39.2339   11.0014 O   0  0  0  0  0  0  0  0  0  0  0  0
   31.8231  -39.0174    8.0618 O   0  0  0  0  0  0  0  0  0  0  0  0
  2  1  1  6
  2  3  1  0
  4  3  1  0
  5  4  1  0
  6  5  1  0
  7  6  1  0
  8  9  2  0
  8  2  1  0
 10  8  1  0
 11 10  1  0
 11 12  1  1
 12 13  1  0
 13 17  1  0
 13 14  2  0
 14 15  1  0
 16 15  1  0
 17 16  2  0
 18 20  1  0
 18 11  1  0
 19 18  2  0
 21 25  1  0
 21 20  1  0
 21 22  1  6
 22 23  1  0
 23 27  1  0
 23 24  2  0
 25 26  1  0
 28 25  2  0
M  END
$$$$
