KHD.pdb
     RDKit          3D

 28 28  0  0  1  0  0  0  0  0999 V2000
   20.5864  -12.4331  -19.3780 N   0  0  0  0  0  0  0  0  0  0  0  0
   21.4313  -11.8294  -18.3663 C   0  0  1  0  0  0  0  0  0  0  0  0
   22.6363  -11.2773  -19.1005 C   0  0  0  0  0  0  0  0  0  0  0  0
   22.9109  -11.9740  -20.3824 C   0  0  0  0  0  0  0  0  0  0  0  0
   24.0550  -11.4839  -21.1884 C   0  0  0  0  0  0  0  0  0  0  0  0
   24.2970  -12.2219  -22.4764 C   0  0  0  0  0  0  0  0  0  0  0  0
   25.3962  -11.7270  -23.2548 N   0  0  0  0  0  0  0  0  0  0  0  0
   20.7278  -10.6696  -17.7709 C   0  0  0  0  0  0  0  0  0  0  0  0
   19.9434  -10.0129  -18.4950 O   0  0  0  0  0  0  0  0  0  0  0  0
   20.8957  -10.2647  -16.4248 N   0  0  0  0  0  0  0  0  0  0  0  0
   20.1096   -9.2225  -15.8524 C   0  0  1  0  0  0  0  0  0  0  0  0
   19.2124   -9.6565  -14.7463 C   0  0  0  0  0  0  0  0  0  0  0  0
   18.2180  -10.6873  -15.1050 C   0  0  0  0  0  0  0  0  0  0  0  0
   18.2935  -12.0241  -14.7937 C   0  0  0  0  0  0  0  0  0  0  0  0
   17.1805  -12.6260  -15.2950 N   0  0  0  0  0  0  0  0  0  0  0  0
   16.4242  -11.7112  -15.9019 C   0  0  0  0  0  0  0  0  0  0  0  0
   17.0564  -10.5456  -15.7830 N   0  0  0  0  0  0  0  0  0  0  0  0
   20.8994   -8.0004  -15.5440 C   0  0  0  0  0  0  0  0  0  0  0  0
   22.1572   -7.9916  -15.5571 O   0  0  0  0  0  0  0  0  0  0  0  0
   20.2709   -6.7593  -15.2100 N   0  0  0  0  0  0  0  0  0  0  0  0
   20.9483   -5.5227  -14.9904 C   0  0  1  0  0  0  0  0  0  0  0  0
   21.7686   -5.0127  -16.1273 C   0  0  0  0  0  0  0  0  0  0  0  0
   22.4108   -3.7058  -15.9004 C   0  0  0  0  0  0  0  0  0  0  0  0
   23.0865   -3.4323  -14.8780 O   0  0  0  0  0  0  0  0  0  0  0  0
   20.0029   -4.4160  -14.6440 C   0  0  0  0  0  0  0  0  0  0  0  0
   20.3459   -3.4655  -13.7235 O   0  0  0  0  0  0  0  0  0  0  0  0
   22.2808   -2.7027  -16.8484 O   0  0  0  0  0  0  0  0  0  0  0  0
   18.9023   -4.3824  -15.2117 O   0  0  0  0  0  0  0  0  0  0  0  0
  2  1  1  6
  2  3  1  0
  4  3  1  0
  5  4  1  0
  6  5  1  0
  7  6  1  0
  8  9  2  0
  8  2  1  0
 10  8  1  0
 11 10  1  0
 11 12  1  1
 12 13  1  0
 13 17  1  0
 13 14  2  0
 14 15  1  0
 16 15  1  0
 17 16  2  0
 18 20  1  0
 18 11  1  0
 19 18  2  0
 21 25  1  0
 21 20  1  0
 21 22  1  6
 22 23  1  0
 23 27  1  0
 23 24  2  0
 25 26  1  0
 28 25  2  0
M  END
$$$$
