KHD.pdb
     RDKit          3D

 28 28  0  0  1  0  0  0  0  0999 V2000
   28.3005  -20.4222  -18.4118 N   0  0  0  0  0  0  0  0  0  0  0  0
   28.2378  -19.3820  -17.4039 C   0  0  1  0  0  0  0  0  0  0  0  0
   27.5394  -18.2064  -18.0567 C   0  0  0  0  0  0  0  0  0  0  0  0
   26.4094  -18.6087  -18.9315 C   0  0  0  0  0  0  0  0  0  0  0  0
   26.4598  -18.1714  -20.3475 C   0  0  0  0  0  0  0  0  0  0  0  0
   25.2515  -18.5216  -21.1719 C   0  0  0  0  0  0  0  0  0  0  0  0
   25.3475  -18.1672  -22.5590 N   0  0  0  0  0  0  0  0  0  0  0  0
   27.3670  -19.8305  -16.2926 C   0  0  0  0  0  0  0  0  0  0  0  0
   26.4260  -20.6164  -16.5531 O   0  0  0  0  0  0  0  0  0  0  0  0
   27.5433  -19.4172  -14.9501 N   0  0  0  0  0  0  0  0  0  0  0  0
   26.6689  -19.8514  -13.9116 C   0  0  1  0  0  0  0  0  0  0  0  0
   27.1724  -19.6063  -12.5320 C   0  0  0  0  0  0  0  0  0  0  0  0
   26.3051  -20.1007  -11.4442 C   0  0  0  0  0  0  0  0  0  0  0  0
   26.3372  -21.3611  -10.8964 C   0  0  0  0  0  0  0  0  0  0  0  0
   25.3898  -21.4090   -9.9205 N   0  0  0  0  0  0  0  0  0  0  0  0
   24.7771  -20.2273   -9.8473 C   0  0  0  0  0  0  0  0  0  0  0  0
   25.3344  -19.4446  -10.7687 N   0  0  0  0  0  0  0  0  0  0  0  0
   25.2589  -19.4277  -14.1230 C   0  0  0  0  0  0  0  0  0  0  0  0
   24.9518  -18.4590  -14.8644 O   0  0  0  0  0  0  0  0  0  0  0  0
   24.1656  -20.0990  -13.4898 N   0  0  0  0  0  0  0  0  0  0  0  0
   22.7837  -19.8430  -13.7372 C   0  0  1  0  0  0  0  0  0  0  0  0
   22.3682  -19.8112  -15.1696 C   0  0  0  0  0  0  0  0  0  0  0  0
   21.4023  -18.7545  -15.5189 C   0  0  0  0  0  0  0  0  0  0  0  0
   21.7261  -17.6695  -16.0616 O   0  0  0  0  0  0  0  0  0  0  0  0
   21.8970  -20.8531  -13.0801 C   0  0  0  0  0  0  0  0  0  0  0  0
   22.2723  -22.1649  -12.9975 O   0  0  0  0  0  0  0  0  0  0  0  0
   20.0553  -18.9377  -15.2466 O   0  0  0  0  0  0  0  0  0  0  0  0
   20.8149  -20.4717  -12.6130 O   0  0  0  0  0  0  0  0  0  0  0  0
  2  1  1  6
  2  3  1  0
  4  3  1  0
  5  4  1  0
  6  5  1  0
  7  6  1  0
  8  9  2  0
  8  2  1  0
 10  8  1  0
 11 10  1  0
 11 12  1  1
 12 13  1  0
 13 17  1  0
 13 14  2  0
 14 15  1  0
 16 15  1  0
 17 16  2  0
 18 20  1  0
 18 11  1  0
 19 18  2  0
 21 25  1  0
 21 20  1  0
 21 22  1  6
 22 23  1  0
 23 27  1  0
 23 24  2  0
 25 26  1  0
 28 25  2  0
M  END
$$$$
