KHD.pdb
     RDKit          3D

 28 28  0  0  1  0  0  0  0  0999 V2000
   26.3344  -21.5352  -14.0485 N   0  0  0  0  0  0  0  0  0  0  0  0
   25.8379  -20.4820  -13.1848 C   0  0  1  0  0  0  0  0  0  0  0  0
   26.7816  -19.3105  -13.3662 C   0  0  0  0  0  0  0  0  0  0  0  0
   27.7626  -19.5130  -14.4619 C   0  0  0  0  0  0  0  0  0  0  0  0
   27.2492  -19.4485  -15.8515 C   0  0  0  0  0  0  0  0  0  0  0  0
   28.2956  -19.5367  -16.9283 C   0  0  0  0  0  0  0  0  0  0  0  0
   27.7821  -19.5167  -18.2680 N   0  0  0  0  0  0  0  0  0  0  0  0
   24.5104  -20.0380  -13.6695 C   0  0  0  0  0  0  0  0  0  0  0  0
   23.9448  -19.0912  -13.0738 O   0  0  0  0  0  0  0  0  0  0  0  0
   23.8471  -20.6281  -14.7722 N   0  0  0  0  0  0  0  0  0  0  0  0
   22.5730  -20.1668  -15.2145 C   0  0  1  0  0  0  0  0  0  0  0  0
   22.5382  -19.6966  -16.6268 C   0  0  0  0  0  0  0  0  0  0  0  0
   23.3255  -18.4798  -16.9087 C   0  0  0  0  0  0  0  0  0  0  0  0
   24.2147  -18.3161  -17.9441 C   0  0  0  0  0  0  0  0  0  0  0  0
   24.7197  -17.0553  -17.8565 N   0  0  0  0  0  0  0  0  0  0  0  0
   24.1753  -16.4380  -16.8078 C   0  0  0  0  0  0  0  0  0  0  0  0
   23.3364  -17.3032  -16.2420 N   0  0  0  0  0  0  0  0  0  0  0  0
   21.4638  -21.0919  -14.8594 C   0  0  0  0  0  0  0  0  0  0  0  0
   21.6477  -22.3225  -14.6748 O   0  0  0  0  0  0  0  0  0  0  0  0
   20.1169  -20.6335  -14.7096 N   0  0  0  0  0  0  0  0  0  0  0  0
   19.1050  -21.2798  -13.9383 C   0  0  1  0  0  0  0  0  0  0  0  0
   19.4946  -21.6931  -12.5589 C   0  0  0  0  0  0  0  0  0  0  0  0
   19.1870  -23.0923  -12.2133 C   0  0  0  0  0  0  0  0  0  0  0  0
   19.2637  -24.0425  -13.0305 O   0  0  0  0  0  0  0  0  0  0  0  0
   17.8875  -20.4252  -13.7768 C   0  0  0  0  0  0  0  0  0  0  0  0
   16.6373  -20.9771  -13.8016 O   0  0  0  0  0  0  0  0  0  0  0  0
   18.7886  -23.4096  -10.9239 O   0  0  0  0  0  0  0  0  0  0  0  0
   18.0404  -19.2059  -13.6202 O   0  0  0  0  0  0  0  0  0  0  0  0
  2  1  1  6
  2  3  1  0
  4  3  1  0
  5  4  1  0
  6  5  1  0
  7  6  1  0
  8  9  2  0
  8  2  1  0
 10  8  1  0
 11 10  1  0
 11 12  1  6
 12 13  1  0
 13 17  1  0
 13 14  2  0
 14 15  1  0
 16 15  1  0
 17 16  2  0
 18 20  1  0
 18 11  1  0
 19 18  2  0
 21 25  1  0
 21 20  1  0
 21 22  1  1
 22 23  1  0
 23 27  1  0
 23 24  2  0
 25 26  1  0
 28 25  2  0
M  END
$$$$
