KHD.pdb
     RDKit          3D

 28 28  0  0  1  0  0  0  0  0999 V2000
   20.4673  -15.5699  -18.5441 N   0  0  0  0  0  0  0  0  0  0  0  0
   19.4385  -15.3043  -17.5579 C   0  0  1  0  0  0  0  0  0  0  0  0
   20.0397  -15.6685  -16.2156 C   0  0  0  0  0  0  0  0  0  0  0  0
   20.1763  -17.1328  -16.0129 C   0  0  0  0  0  0  0  0  0  0  0  0
   20.5488  -17.5970  -14.6547 C   0  0  0  0  0  0  0  0  0  0  0  0
   20.7784  -19.0775  -14.5217 C   0  0  0  0  0  0  0  0  0  0  0  0
   21.0788  -19.5216  -13.1908 N   0  0  0  0  0  0  0  0  0  0  0  0
   19.1624  -13.8494  -17.5197 C   0  0  0  0  0  0  0  0  0  0  0  0
   20.0815  -13.0601  -17.8408 O   0  0  0  0  0  0  0  0  0  0  0  0
   17.9126  -13.3040  -17.1393 N   0  0  0  0  0  0  0  0  0  0  0  0
   17.6566  -11.9032  -17.2003 C   0  0  1  0  0  0  0  0  0  0  0  0
   16.2204  -11.5396  -17.3475 C   0  0  0  0  0  0  0  0  0  0  0  0
   15.9319  -10.0916  -17.3606 C   0  0  0  0  0  0  0  0  0  0  0  0
   15.4679   -9.3517  -16.2990 C   0  0  0  0  0  0  0  0  0  0  0  0
   15.3423   -8.0636  -16.7198 N   0  0  0  0  0  0  0  0  0  0  0  0
   15.7112   -7.9831  -17.9983 C   0  0  0  0  0  0  0  0  0  0  0  0
   16.0650   -9.2094  -18.3770 N   0  0  0  0  0  0  0  0  0  0  0  0
   18.3679  -11.1351  -16.1437 C   0  0  0  0  0  0  0  0  0  0  0  0
   18.5774  -11.6058  -14.9961 O   0  0  0  0  0  0  0  0  0  0  0  0
   18.8544   -9.8092  -16.3719 N   0  0  0  0  0  0  0  0  0  0  0  0
   19.4519   -8.9672  -15.3869 C   0  0  1  0  0  0  0  0  0  0  0  0
   20.9367   -9.0477  -15.2678 C   0  0  0  0  0  0  0  0  0  0  0  0
   21.5234   -8.2409  -14.1830 C   0  0  0  0  0  0  0  0  0  0  0  0
   21.2766   -8.4290  -12.9663 O   0  0  0  0  0  0  0  0  0  0  0  0
   19.1414   -7.5219  -15.6175 C   0  0  0  0  0  0  0  0  0  0  0  0
   19.2584   -6.6111  -14.6051 O   0  0  0  0  0  0  0  0  0  0  0  0
   22.3992   -7.2109  -14.4895 O   0  0  0  0  0  0  0  0  0  0  0  0
   18.7759   -7.1712  -16.7481 O   0  0  0  0  0  0  0  0  0  0  0  0
  2  1  1  6
  2  3  1  0
  4  3  1  0
  5  4  1  0
  6  5  1  0
  7  6  1  0
  8  9  2  0
  8  2  1  0
 10  8  1  0
 11 10  1  0
 11 12  1  1
 12 13  1  0
 13 17  1  0
 13 14  2  0
 14 15  1  0
 16 15  1  0
 17 16  2  0
 18 20  1  0
 18 11  1  0
 19 18  2  0
 21 25  1  0
 21 20  1  0
 21 22  1  6
 22 23  1  0
 23 27  1  0
 23 24  2  0
 25 26  1  0
 28 25  2  0
M  END
$$$$
