KHD.pdb
     RDKit          3D

 28 28  0  0  1  0  0  0  0  0999 V2000
   22.1421  -13.4996  -16.3397 N   0  0  0  0  0  0  0  0  0  0  0  0
   21.2480  -12.4687  -16.8290 C   0  0  1  0  0  0  0  0  0  0  0  0
   19.8811  -12.7949  -16.2624 C   0  0  0  0  0  0  0  0  0  0  0  0
   19.3230  -14.0707  -16.7771 C   0  0  0  0  0  0  0  0  0  0  0  0
   18.0092  -14.5009  -16.2406 C   0  0  0  0  0  0  0  0  0  0  0  0
   17.4441  -15.7535  -16.8519 C   0  0  0  0  0  0  0  0  0  0  0  0
   16.2438  -16.2361  -16.2312 N   0  0  0  0  0  0  0  0  0  0  0  0
   21.6465  -11.1631  -16.2536 C   0  0  0  0  0  0  0  0  0  0  0  0
   21.4930  -10.9829  -15.0228 O   0  0  0  0  0  0  0  0  0  0  0  0
   22.1927  -10.1076  -17.0229 N   0  0  0  0  0  0  0  0  0  0  0  0
   22.5707   -8.8671  -16.4312 C   0  0  1  0  0  0  0  0  0  0  0  0
   24.0028   -8.5029  -16.6125 C   0  0  0  0  0  0  0  0  0  0  0  0
   24.9749   -9.4368  -16.0102 C   0  0  0  0  0  0  0  0  0  0  0  0
   24.6690  -10.5863  -15.3211 C   0  0  0  0  0  0  0  0  0  0  0  0
   25.8422  -11.1619  -14.9409 N   0  0  0  0  0  0  0  0  0  0  0  0
   26.8569  -10.4111  -15.3697 C   0  0  0  0  0  0  0  0  0  0  0  0
   26.3258   -9.3735  -16.0131 N   0  0  0  0  0  0  0  0  0  0  0  0
   21.6237   -7.7626  -16.7403 C   0  0  0  0  0  0  0  0  0  0  0  0
   21.3452   -7.4260  -17.9199 O   0  0  0  0  0  0  0  0  0  0  0  0
   20.9743   -7.0138  -15.7086 N   0  0  0  0  0  0  0  0  0  0  0  0
   20.0579   -5.9402  -15.9186 C   0  0  1  0  0  0  0  0  0  0  0  0
   18.9577   -5.8114  -14.9195 C   0  0  0  0  0  0  0  0  0  0  0  0
   18.0057   -6.9359  -14.8866 C   0  0  0  0  0  0  0  0  0  0  0  0
   17.5650   -7.5031  -15.9165 O   0  0  0  0  0  0  0  0  0  0  0  0
   20.7433   -4.6105  -15.9408 C   0  0  0  0  0  0  0  0  0  0  0  0
   20.0554   -3.4743  -16.2639 O   0  0  0  0  0  0  0  0  0  0  0  0
   17.5531   -7.4172  -13.6678 O   0  0  0  0  0  0  0  0  0  0  0  0
   21.9488   -4.5645  -15.6591 O   0  0  0  0  0  0  0  0  0  0  0  0
  2  1  1  1
  2  3  1  0
  4  3  1  0
  5  4  1  0
  6  5  1  0
  7  6  1  0
  8  9  2  0
  8  2  1  0
 10  8  1  0
 11 10  1  0
 11 12  1  6
 12 13  1  0
 13 17  1  0
 13 14  2  0
 14 15  1  0
 16 15  1  0
 17 16  2  0
 18 20  1  0
 18 11  1  0
 19 18  2  0
 21 25  1  0
 21 20  1  0
 21 22  1  1
 22 23  1  0
 23 27  1  0
 23 24  2  0
 25 26  1  0
 28 25  2  0
M  END
$$$$
