KHD.pdb
     RDKit          3D

 28 28  0  0  1  0  0  0  0  0999 V2000
   26.0733  -22.5087  -11.0686 N   0  0  0  0  0  0  0  0  0  0  0  0
   25.4329  -21.2115  -10.9754 C   0  0  1  0  0  0  0  0  0  0  0  0
   26.0736  -20.5109   -9.7944 C   0  0  0  0  0  0  0  0  0  0  0  0
   25.1132  -20.2022   -8.7052 C   0  0  0  0  0  0  0  0  0  0  0  0
   24.5595  -21.3486   -7.9449 C   0  0  0  0  0  0  0  0  0  0  0  0
   23.4147  -21.0186   -7.0270 C   0  0  0  0  0  0  0  0  0  0  0  0
   22.8458  -22.1467   -6.3468 N   0  0  0  0  0  0  0  0  0  0  0  0
   25.7692  -20.4132  -12.1772 C   0  0  0  0  0  0  0  0  0  0  0  0
   25.4693  -19.1963  -12.1870 O   0  0  0  0  0  0  0  0  0  0  0  0
   26.4128  -20.9545  -13.3160 N   0  0  0  0  0  0  0  0  0  0  0  0
   26.6898  -20.1615  -14.4676 C   0  0  1  0  0  0  0  0  0  0  0  0
   27.9208  -20.5510  -15.2090 C   0  0  0  0  0  0  0  0  0  0  0  0
   28.2508  -19.7082  -16.3756 C   0  0  0  0  0  0  0  0  0  0  0  0
   28.4131  -18.3432  -16.3647 C   0  0  0  0  0  0  0  0  0  0  0  0
   28.7177  -17.9556  -17.6332 N   0  0  0  0  0  0  0  0  0  0  0  0
   28.7492  -19.0292  -18.4229 C   0  0  0  0  0  0  0  0  0  0  0  0
   28.4667  -20.0812  -17.6574 N   0  0  0  0  0  0  0  0  0  0  0  0
   25.4996  -19.9627  -15.3372 C   0  0  0  0  0  0  0  0  0  0  0  0
   24.7667  -20.9175  -15.7024 O   0  0  0  0  0  0  0  0  0  0  0  0
   25.1200  -18.6680  -15.8132 N   0  0  0  0  0  0  0  0  0  0  0  0
   24.0013  -18.3925  -16.6553 C   0  0  1  0  0  0  0  0  0  0  0  0
   23.1041  -17.2856  -16.2136 C   0  0  0  0  0  0  0  0  0  0  0  0
   21.8086  -17.7131  -15.6561 C   0  0  0  0  0  0  0  0  0  0  0  0
   21.4456  -18.9129  -15.5841 O   0  0  0  0  0  0  0  0  0  0  0  0
   24.4177  -18.0450  -18.0497 C   0  0  0  0  0  0  0  0  0  0  0  0
   23.8068  -18.6238  -19.1268 O   0  0  0  0  0  0  0  0  0  0  0  0
   20.9200  -16.7631  -15.1768 O   0  0  0  0  0  0  0  0  0  0  0  0
   25.3291  -17.2203  -18.2039 O   0  0  0  0  0  0  0  0  0  0  0  0
  2  1  1  6
  2  3  1  0
  4  3  1  0
  5  4  1  0
  6  5  1  0
  7  6  1  0
  8  9  2  0
  8  2  1  0
 10  8  1  0
 11 10  1  0
 11 12  1  6
 12 13  1  0
 13 17  1  0
 13 14  2  0
 14 15  1  0
 16 15  1  0
 17 16  2  0
 18 20  1  0
 18 11  1  0
 19 18  2  0
 21 25  1  0
 21 20  1  0
 21 22  1  1
 22 23  1  0
 23 27  1  0
 23 24  2  0
 25 26  1  0
 28 25  2  0
M  END
$$$$
