IAV.pdb
     RDKit          3D

 21 20  0  0  1  0  0  0  0  0999 V2000
    8.0626  -12.0929   19.6961 C   0  0  0  0  0  0  0  0  0  0  0  0
    7.6031  -13.4953   19.9680 C   0  0  0  0  0  0  0  0  0  0  0  0
    8.5601  -14.5431   19.4674 C   0  0  2  0  0  0  0  0  0  0  0  0
    8.8179  -14.3936   17.9945 C   0  0  0  0  0  0  0  0  0  0  0  0
    8.0671  -15.9187   19.8478 C   0  0  2  0  0  0  0  0  0  0  0  0
    6.8781  -16.1926   19.0853 N   0  0  0  0  0  0  0  0  0  0  0  0
    7.8156  -16.0265   21.3086 C   0  0  0  0  0  0  0  0  0  0  0  0
    6.7204  -15.5924   21.7491 O   0  0  0  0  0  0  0  0  0  0  0  0
    9.1701  -17.9758   24.2143 C   0  0  0  0  0  0  0  0  0  0  0  0
    8.5087  -16.7566   23.6227 C   0  0  2  0  0  0  0  0  0  0  0  0
    8.7490  -16.5934   22.2234 N   0  0  0  0  0  0  0  0  0  0  0  0
    8.8169  -15.5242   24.4073 C   0  0  0  0  0  0  0  0  0  0  0  0
    9.8345  -14.8384   24.2502 O   0  0  0  0  0  0  0  0  0  0  0  0
    5.8164  -13.0952   25.5165 C   0  0  0  0  0  0  0  0  0  0  0  0
    6.6992  -13.4157   26.6947 C   0  0  2  0  0  0  0  0  0  0  0  0
    6.8955  -12.1833   27.5519 C   0  0  0  0  0  0  0  0  0  0  0  0
    8.0410  -13.9235   26.1924 C   0  0  2  0  0  0  0  0  0  0  0  0
    7.8747  -15.1233   25.3940 N   0  0  0  0  0  0  0  0  0  0  0  0
    8.8756  -14.2724   27.3593 C   0  0  0  0  0  0  0  0  0  0  0  0
    9.4949  -13.3639   27.9547 O   0  0  0  0  0  0  0  0  0  0  0  0
    8.9830  -15.5734   27.8003 O   0  0  0  0  0  0  0  0  0  0  0  0
  2  3  1  0
  2  1  1  0
  3  4  1  6
  5  3  1  0
  5  6  1  6
  7  5  1  0
  8  7  2  0
 10  9  1  1
 10 11  1  0
 11  7  1  0
 12 10  1  0
 12 13  2  0
 15 14  1  6
 15 17  1  0
 16 15  1  0
 17 18  1  6
 18 12  1  0
 19 17  1  0
 20 19  2  0
 21 19  1  0
M  END
$$$$
