IAV.pdb
     RDKit          3D

 21 20  0  0  1  0  0  0  0  0999 V2000
    7.8767  -12.2135   19.6884 C   0  0  0  0  0  0  0  0  0  0  0  0
    7.4479  -13.6189   19.9931 C   0  0  0  0  0  0  0  0  0  0  0  0
    8.4710  -14.6514   19.6037 C   0  0  2  0  0  0  0  0  0  0  0  0
    8.8575  -14.5242   18.1571 C   0  0  0  0  0  0  0  0  0  0  0  0
    7.9786  -16.0315   19.9681 C   0  0  2  0  0  0  0  0  0  0  0  0
    6.8357  -16.3283   19.1459 N   0  0  0  0  0  0  0  0  0  0  0  0
    7.6516  -16.1329   21.4144 C   0  0  0  0  0  0  0  0  0  0  0  0
    6.4968  -15.7945   21.7800 O   0  0  0  0  0  0  0  0  0  0  0  0
    8.7942  -17.9901   24.4074 C   0  0  0  0  0  0  0  0  0  0  0  0
    8.2809  -16.7147   23.7879 C   0  0  2  0  0  0  0  0  0  0  0  0
    8.5773  -16.5912   22.3954 N   0  0  0  0  0  0  0  0  0  0  0  0
    8.6929  -15.5132   24.5729 C   0  0  0  0  0  0  0  0  0  0  0  0
    9.7553  -14.9031   24.4008 O   0  0  0  0  0  0  0  0  0  0  0  0
    5.8776  -12.8739   25.8288 C   0  0  0  0  0  0  0  0  0  0  0  0
    6.7811  -13.3027   26.9557 C   0  0  2  0  0  0  0  0  0  0  0  0
    7.0881  -12.1256   27.8570 C   0  0  0  0  0  0  0  0  0  0  0  0
    8.0678  -13.8700   26.3784 C   0  0  2  0  0  0  0  0  0  0  0  0
    7.8003  -15.0504   25.5785 N   0  0  0  0  0  0  0  0  0  0  0  0
    8.9438  -14.2738   27.4963 C   0  0  0  0  0  0  0  0  0  0  0  0
    8.9185  -15.4611   27.8876 O   0  0  0  0  0  0  0  0  0  0  0  0
    9.7831  -13.3706   28.1115 O   0  0  0  0  0  0  0  0  0  0  0  0
  2  3  1  0
  2  1  1  0
  3  4  1  6
  5  3  1  0
  5  6  1  6
  7  5  1  0
  8  7  2  0
 10  9  1  1
 10 11  1  0
 11  7  1  0
 12 10  1  0
 12 13  2  0
 15 14  1  6
 15 17  1  0
 16 15  1  0
 17 18  1  6
 18 12  1  0
 19 17  1  0
 20 19  2  0
 21 19  1  0
M  END
$$$$
