IAV.pdb
     RDKit          3D

 21 20  0  0  1  0  0  0  0  0999 V2000
    7.9972  -11.9387   21.2300 C   0  0  0  0  0  0  0  0  0  0  0  0
    7.4802  -13.3244   21.4834 C   0  0  0  0  0  0  0  0  0  0  0  0
    8.0847  -14.3610   20.5754 C   0  0  2  0  0  0  0  0  0  0  0  0
    7.9487  -13.9725   19.1301 C   0  0  0  0  0  0  0  0  0  0  0  0
    7.5039  -15.7205   20.8825 C   0  0  2  0  0  0  0  0  0  0  0  0
    6.1018  -15.6891   20.5610 N   0  0  0  0  0  0  0  0  0  0  0  0
    7.7304  -16.1061   22.2999 C   0  0  0  0  0  0  0  0  0  0  0  0
    6.9642  -15.6188   23.1702 O   0  0  0  0  0  0  0  0  0  0  0  0
    9.6166  -18.7591   24.2000 C   0  0  0  0  0  0  0  0  0  0  0  0
    8.9910  -17.3936   24.0667 C   0  0  2  0  0  0  0  0  0  0  0  0
    8.7651  -16.9935   22.7134 N   0  0  0  0  0  0  0  0  0  0  0  0
    9.7335  -16.3652   24.8546 C   0  0  0  0  0  0  0  0  0  0  0  0
   10.6622  -15.6834   24.4039 O   0  0  0  0  0  0  0  0  0  0  0  0
    8.3291  -13.4696   26.4688 C   0  0  0  0  0  0  0  0  0  0  0  0
    8.9743  -14.2001   27.6177 C   0  0  2  0  0  0  0  0  0  0  0  0
    9.6589  -13.2174   28.5441 C   0  0  0  0  0  0  0  0  0  0  0  0
    9.9840  -15.1979   27.0739 C   0  0  2  0  0  0  0  0  0  0  0  0
    9.3397  -16.1659   26.2064 N   0  0  0  0  0  0  0  0  0  0  0  0
   10.5725  -15.9344   28.2102 C   0  0  0  0  0  0  0  0  0  0  0  0
    9.9896  -16.9544   28.6382 O   0  0  0  0  0  0  0  0  0  0  0  0
   11.7451  -15.5195   28.8030 O   0  0  0  0  0  0  0  0  0  0  0  0
  2  3  1  0
  2  1  1  0
  3  4  1  6
  5  3  1  0
  5  6  1  1
  7  5  1  0
  8  7  2  0
 10  9  1  6
 10 11  1  0
 11  7  1  0
 12 10  1  0
 12 13  2  0
 15 14  1  6
 15 17  1  0
 16 15  1  0
 17 18  1  6
 18 12  1  0
 19 17  1  0
 20 19  2  0
 21 19  1  0
M  END
$$$$
