IAV.pdb
     RDKit          3D

 21 20  0  0  1  0  0  0  0  0999 V2000
    7.6938  -12.3045   18.2493 C   0  0  0  0  0  0  0  0  0  0  0  0
    7.8763  -13.7518   18.6010 C   0  0  0  0  0  0  0  0  0  0  0  0
    7.5360  -14.0642   20.0331 C   0  0  2  0  0  0  0  0  0  0  0  0
    8.3012  -13.1873   20.9839 C   0  0  0  0  0  0  0  0  0  0  0  0
    7.7255  -15.5381   20.3007 C   0  0  2  0  0  0  0  0  0  0  0  0
    6.9306  -16.2694   19.3502 N   0  0  0  0  0  0  0  0  0  0  0  0
    7.3672  -15.8921   21.6990 C   0  0  0  0  0  0  0  0  0  0  0  0
    6.1965  -15.6433   22.0856 O   0  0  0  0  0  0  0  0  0  0  0  0
    8.3337  -17.9805   24.5716 C   0  0  0  0  0  0  0  0  0  0  0  0
    8.0575  -16.6048   24.0193 C   0  0  2  0  0  0  0  0  0  0  0  0
    8.2800  -16.4942   22.6119 N   0  0  0  0  0  0  0  0  0  0  0  0
    8.7620  -15.5437   24.7986 C   0  0  0  0  0  0  0  0  0  0  0  0
    9.9373  -15.2079   24.6077 O   0  0  0  0  0  0  0  0  0  0  0  0
    6.3293  -13.1304   27.2288 C   0  0  0  0  0  0  0  0  0  0  0  0
    7.7053  -12.6734   26.8195 C   0  0  2  0  0  0  0  0  0  0  0  0
    7.6386  -11.9252   25.5049 C   0  0  0  0  0  0  0  0  0  0  0  0
    8.6169  -13.8827   26.6882 C   0  0  2  0  0  0  0  0  0  0  0  0
    8.0260  -14.8849   25.8215 N   0  0  0  0  0  0  0  0  0  0  0  0
    8.7867  -14.4877   28.0243 C   0  0  0  0  0  0  0  0  0  0  0  0
    8.1704  -15.5413   28.2951 O   0  0  0  0  0  0  0  0  0  0  0  0
    9.6073  -13.9147   28.9714 O   0  0  0  0  0  0  0  0  0  0  0  0
  2  3  1  0
  2  1  1  0
  3  4  1  1
  5  3  1  0
  5  6  1  6
  7  5  1  0
  8  7  2  0
 10  9  1  1
 10 11  1  0
 11  7  1  0
 12 10  1  0
 12 13  2  0
 15 14  1  6
 15 17  1  0
 16 15  1  0
 17 18  1  6
 18 12  1  0
 19 17  1  0
 20 19  2  0
 21 19  1  0
M  END
$$$$
