IAV.pdb
     RDKit          3D

 21 20  0  0  1  0  0  0  0  0999 V2000
    7.5938  -12.3098   18.9549 C   0  0  0  0  0  0  0  0  0  0  0  0
    7.5043  -13.7889   19.1913 C   0  0  0  0  0  0  0  0  0  0  0  0
    7.5354  -14.1622   20.6487 C   0  0  2  0  0  0  0  0  0  0  0  0
    8.7598  -13.6185   21.3295 C   0  0  0  0  0  0  0  0  0  0  0  0
    7.3832  -15.6564   20.8040 C   0  0  2  0  0  0  0  0  0  0  0  0
    6.1852  -16.0563   20.1148 N   0  0  0  0  0  0  0  0  0  0  0  0
    7.3503  -16.0586   22.2343 C   0  0  0  0  0  0  0  0  0  0  0  0
    6.4592  -15.5548   22.9651 O   0  0  0  0  0  0  0  0  0  0  0  0
    8.9945  -18.5646   24.5467 C   0  0  0  0  0  0  0  0  0  0  0  0
    8.4047  -17.2177   24.2124 C   0  0  2  0  0  0  0  0  0  0  0  0
    8.2726  -16.9793   22.8095 N   0  0  0  0  0  0  0  0  0  0  0  0
    9.1153  -16.1113   24.9199 C   0  0  0  0  0  0  0  0  0  0  0  0
   10.1567  -15.5829   24.5114 O   0  0  0  0  0  0  0  0  0  0  0  0
    7.1241  -13.1548   26.2978 C   0  0  0  0  0  0  0  0  0  0  0  0
    7.9882  -13.6435   27.4312 C   0  0  2  0  0  0  0  0  0  0  0  0
    8.5783  -12.4693   28.1831 C   0  0  0  0  0  0  0  0  0  0  0  0
    9.0983  -14.5196   26.8736 C   0  0  2  0  0  0  0  0  0  0  0  0
    8.5506  -15.6440   26.1384 N   0  0  0  0  0  0  0  0  0  0  0  0
    9.8802  -15.0596   28.0037 C   0  0  0  0  0  0  0  0  0  0  0  0
   10.6644  -14.3015   28.6150 O   0  0  0  0  0  0  0  0  0  0  0  0
    9.7612  -16.3759   28.3934 O   0  0  0  0  0  0  0  0  0  0  0  0
  2  3  1  0
  2  1  1  0
  3  4  1  6
  5  3  1  0
  5  6  1  1
  7  5  1  0
  8  7  2  0
 10  9  1  6
 10 11  1  0
 11  7  1  0
 12 10  1  0
 12 13  2  0
 15 14  1  6
 15 17  1  0
 16 15  1  0
 17 18  1  1
 18 12  1  0
 19 17  1  0
 20 19  2  0
 21 19  1  0
M  END
$$$$
