IAV.pdb
     RDKit          3D

 21 20  0  0  1  0  0  0  0  0999 V2000
    7.5782  -12.3057   18.4244 C   0  0  0  0  0  0  0  0  0  0  0  0
    7.7095  -13.7750   18.6998 C   0  0  0  0  0  0  0  0  0  0  0  0
    7.6388  -14.1151   20.1639 C   0  0  2  0  0  0  0  0  0  0  0  0
    8.6859  -13.3784   20.9507 C   0  0  0  0  0  0  0  0  0  0  0  0
    7.6985  -15.6122   20.3512 C   0  0  2  0  0  0  0  0  0  0  0  0
    6.6268  -16.1994   19.5918 N   0  0  0  0  0  0  0  0  0  0  0  0
    7.6204  -15.9888   21.7868 C   0  0  0  0  0  0  0  0  0  0  0  0
    6.5541  -15.7337   22.4032 O   0  0  0  0  0  0  0  0  0  0  0  0
    9.4576  -18.1140   24.2850 C   0  0  0  0  0  0  0  0  0  0  0  0
    8.6845  -16.8796   23.8946 C   0  0  2  0  0  0  0  0  0  0  0  0
    8.6874  -16.6191   22.4894 N   0  0  0  0  0  0  0  0  0  0  0  0
    9.0942  -15.6917   24.7011 C   0  0  0  0  0  0  0  0  0  0  0  0
   10.1065  -15.0168   24.4767 O   0  0  0  0  0  0  0  0  0  0  0  0
    6.5151  -13.0321   25.7483 C   0  0  0  0  0  0  0  0  0  0  0  0
    7.2349  -13.4581   27.0014 C   0  0  2  0  0  0  0  0  0  0  0  0
    7.5322  -12.2536   27.8691 C   0  0  0  0  0  0  0  0  0  0  0  0
    8.5276  -14.1624   26.6222 C   0  0  2  0  0  0  0  0  0  0  0  0
    8.2612  -15.3225   25.7928 N   0  0  0  0  0  0  0  0  0  0  0  0
    9.1829  -14.6345   27.8582 C   0  0  0  0  0  0  0  0  0  0  0  0
    8.9834  -15.8086   28.2393 O   0  0  0  0  0  0  0  0  0  0  0  0
   10.0050  -13.8089   28.5939 O   0  0  0  0  0  0  0  0  0  0  0  0
  2  3  1  0
  2  1  1  0
  3  4  1  1
  5  3  1  0
  5  6  1  6
  7  5  1  0
  8  7  2  0
 10  9  1  6
 10 11  1  0
 11  7  1  0
 12 10  1  0
 12 13  2  0
 15 14  1  6
 15 17  1  0
 16 15  1  0
 17 18  1  6
 18 12  1  0
 19 17  1  0
 20 19  2  0
 21 19  1  0
M  END
$$$$
