IAV.pdb
     RDKit          3D

 21 20  0  0  1  0  0  0  0  0999 V2000
    8.5195  -12.3317   20.2387 C   0  0  0  0  0  0  0  0  0  0  0  0
    8.2779  -13.4312   21.2308 C   0  0  0  0  0  0  0  0  0  0  0  0
    7.5314  -14.6025   20.6518 C   0  0  2  0  0  0  0  0  0  0  0  0
    6.1736  -14.1965   20.1522 C   0  0  0  0  0  0  0  0  0  0  0  0
    7.4831  -15.7318   21.6529 C   0  0  2  0  0  0  0  0  0  0  0  0
    6.7022  -15.2953   22.7798 N   0  0  0  0  0  0  0  0  0  0  0  0
    8.8459  -16.1577   22.0654 C   0  0  0  0  0  0  0  0  0  0  0  0
    9.5318  -16.8114   21.2382 O   0  0  0  0  0  0  0  0  0  0  0  0
   11.7957  -15.7074   22.7827 C   0  0  0  0  0  0  0  0  0  0  0  0
   10.7365  -16.1998   23.7364 C   0  0  2  0  0  0  0  0  0  0  0  0
    9.4050  -15.8624   23.3419 N   0  0  0  0  0  0  0  0  0  0  0  0
   11.0358  -15.8088   25.1460 C   0  0  0  0  0  0  0  0  0  0  0  0
   12.1517  -15.9073   25.6711 O   0  0  0  0  0  0  0  0  0  0  0  0
    7.7017  -14.5729   27.5487 C   0  0  0  0  0  0  0  0  0  0  0  0
    9.0219  -13.8568   27.6683 C   0  0  2  0  0  0  0  0  0  0  0  0
    9.0373  -12.6351   26.7740 C   0  0  0  0  0  0  0  0  0  0  0  0
   10.1440  -14.8053   27.2787 C   0  0  2  0  0  0  0  0  0  0  0  0
    9.9635  -15.2921   25.9240 N   0  0  0  0  0  0  0  0  0  0  0  0
   10.1063  -15.9712   28.1838 C   0  0  0  0  0  0  0  0  0  0  0  0
   10.4519  -15.8239   29.3764 O   0  0  0  0  0  0  0  0  0  0  0  0
    9.6995  -17.2105   27.7396 O   0  0  0  0  0  0  0  0  0  0  0  0
  2  3  1  0
  2  1  1  0
  3  4  1  1
  5  3  1  0
  5  6  1  1
  7  5  1  0
  8  7  2  0
 10  9  1  6
 10 11  1  0
 11  7  1  0
 12 10  1  0
 12 13  2  0
 15 14  1  6
 15 17  1  0
 16 15  1  0
 17 18  1  6
 18 12  1  0
 19 17  1  0
 20 19  2  0
 21 19  1  0
M  END
$$$$
