IAV.pdb
     RDKit          3D

 21 20  0  0  1  0  0  0  0  0999 V2000
    7.4681  -12.0114   19.4633 C   0  0  0  0  0  0  0  0  0  0  0  0
    7.4315  -13.5027   19.6252 C   0  0  0  0  0  0  0  0  0  0  0  0
    7.6690  -13.9541   21.0409 C   0  0  2  0  0  0  0  0  0  0  0  0
    8.9550  -13.3999   21.5862 C   0  0  0  0  0  0  0  0  0  0  0  0
    7.5877  -15.4596   21.1249 C   0  0  2  0  0  0  0  0  0  0  0  0
    6.2999  -15.8648   20.6274 N   0  0  0  0  0  0  0  0  0  0  0  0
    7.8146  -15.9445   22.5113 C   0  0  0  0  0  0  0  0  0  0  0  0
    6.9335  -15.6923   23.3727 O   0  0  0  0  0  0  0  0  0  0  0  0
    9.9229  -18.4238   24.3505 C   0  0  0  0  0  0  0  0  0  0  0  0
    9.2550  -17.0758   24.2473 C   0  0  2  0  0  0  0  0  0  0  0  0
    8.9728  -16.6744   22.9051 N   0  0  0  0  0  0  0  0  0  0  0  0
    9.9942  -16.0314   25.0171 C   0  0  0  0  0  0  0  0  0  0  0  0
   11.0745  -15.5435   24.6631 O   0  0  0  0  0  0  0  0  0  0  0  0
    7.8576  -13.9255   28.0100 C   0  0  0  0  0  0  0  0  0  0  0  0
    9.1136  -13.4200   27.3491 C   0  0  2  0  0  0  0  0  0  0  0  0
    8.7756  -12.7178   26.0511 C   0  0  0  0  0  0  0  0  0  0  0  0
   10.0466  -14.5905   27.0839 C   0  0  2  0  0  0  0  0  0  0  0  0
    9.4103  -15.5770   26.2314 N   0  0  0  0  0  0  0  0  0  0  0  0
   10.3567  -15.2426   28.3717 C   0  0  0  0  0  0  0  0  0  0  0  0
    9.8081  -16.3319   28.6470 O   0  0  0  0  0  0  0  0  0  0  0  0
   11.2346  -14.6749   29.2693 O   0  0  0  0  0  0  0  0  0  0  0  0
  2  3  1  0
  2  1  1  0
  3  4  1  6
  5  3  1  0
  5  6  1  1
  7  5  1  0
  8  7  2  0
 10  9  1  6
 10 11  1  0
 11  7  1  0
 12 10  1  0
 12 13  2  0
 15 14  1  6
 15 17  1  0
 16 15  1  0
 17 18  1  6
 18 12  1  0
 19 17  1  0
 20 19  2  0
 21 19  1  0
M  END
$$$$
