IAV.pdb
     RDKit          3D

 21 20  0  0  1  0  0  0  0  0999 V2000
    6.0383  -11.5608   26.4939 C   0  0  0  0  0  0  0  0  0  0  0  0
    5.6696  -12.7203   25.6156 C   0  0  0  0  0  0  0  0  0  0  0  0
    6.8524  -13.3452   24.9265 C   0  0  2  0  0  0  0  0  0  0  0  0
    7.1131  -12.7046   23.5924 C   0  0  0  0  0  0  0  0  0  0  0  0
    6.6710  -14.8419   24.8418 C   0  0  2  0  0  0  0  0  0  0  0  0
    6.5593  -15.3538   26.1818 N   0  0  0  0  0  0  0  0  0  0  0  0
    7.7860  -15.4883   24.1017 C   0  0  0  0  0  0  0  0  0  0  0  0
    7.4906  -16.2815   23.1713 O   0  0  0  0  0  0  0  0  0  0  0  0
   11.0452  -15.7983   22.9115 C   0  0  0  0  0  0  0  0  0  0  0  0
   10.2142  -16.1754   24.1120 C   0  0  2  0  0  0  0  0  0  0  0  0
    9.1599  -15.2530   24.3950 N   0  0  0  0  0  0  0  0  0  0  0  0
   11.0642  -16.4621   25.3057 C   0  0  0  0  0  0  0  0  0  0  0  0
   12.1997  -16.9496   25.2475 O   0  0  0  0  0  0  0  0  0  0  0  0
    9.4580  -15.3947   29.2063 C   0  0  0  0  0  0  0  0  0  0  0  0
   10.8955  -15.1902   28.8039 C   0  0  2  0  0  0  0  0  0  0  0  0
   11.0769  -13.8179   28.1905 C   0  0  0  0  0  0  0  0  0  0  0  0
   11.2952  -16.2663   27.8075 C   0  0  2  0  0  0  0  0  0  0  0  0
   10.5243  -16.1511   26.5839 N   0  0  0  0  0  0  0  0  0  0  0  0
   11.0015  -17.5859   28.4011 C   0  0  0  0  0  0  0  0  0  0  0  0
   10.0415  -18.2511   27.9546 O   0  0  0  0  0  0  0  0  0  0  0  0
   11.7622  -18.0933   29.4319 O   0  0  0  0  0  0  0  0  0  0  0  0
  2  3  1  0
  2  1  1  0
  3  4  1  6
  5  3  1  0
  5  6  1  1
  7  5  1  0
  8  7  2  0
 10  9  1  6
 10 11  1  0
 11  7  1  0
 12 10  1  0
 12 13  2  0
 15 14  1  6
 15 17  1  0
 16 15  1  0
 17 18  1  6
 18 12  1  0
 19 17  1  0
 20 19  2  0
 21 19  1  0
M  END
$$$$
