IAV.pdb
     RDKit          3D

 21 20  0  0  1  0  0  0  0  0999 V2000
    7.7371  -20.9556   26.7630 C   0  0  0  0  0  0  0  0  0  0  0  0
    7.4594  -20.6260   25.3257 C   0  0  0  0  0  0  0  0  0  0  0  0
    7.8603  -19.2258   24.9475 C   0  0  2  0  0  0  0  0  0  0  0  0
    7.3163  -18.2168   25.9192 C   0  0  0  0  0  0  0  0  0  0  0  0
    7.4690  -18.9438   23.5166 C   0  0  2  0  0  0  0  0  0  0  0  0
    8.0036  -19.9955   22.6930 N   0  0  0  0  0  0  0  0  0  0  0  0
    7.9433  -17.6074   23.0717 C   0  0  0  0  0  0  0  0  0  0  0  0
    9.1846  -17.4077   23.0348 O   0  0  0  0  0  0  0  0  0  0  0  0
    6.3740  -14.3240   21.9110 C   0  0  0  0  0  0  0  0  0  0  0  0
    7.4867  -15.2200   22.3935 C   0  0  2  0  0  0  0  0  0  0  0  0
    7.0651  -16.5532   22.6889 N   0  0  0  0  0  0  0  0  0  0  0  0
    8.2528  -14.5970   23.5136 C   0  0  0  0  0  0  0  0  0  0  0  0
    9.4691  -14.3732   23.4817 O   0  0  0  0  0  0  0  0  0  0  0  0
    5.8690  -13.1053   26.6466 C   0  0  0  0  0  0  0  0  0  0  0  0
    7.2214  -12.4995   26.3747 C   0  0  2  0  0  0  0  0  0  0  0  0
    7.0931  -11.3513   25.3963 C   0  0  0  0  0  0  0  0  0  0  0  0
    8.1449  -13.5673   25.8111 C   0  0  2  0  0  0  0  0  0  0  0  0
    7.5286  -14.2431   24.6850 N   0  0  0  0  0  0  0  0  0  0  0  0
    8.3898  -14.5758   26.8613 C   0  0  0  0  0  0  0  0  0  0  0  0
    7.9167  -15.7246   26.7203 O   0  0  0  0  0  0  0  0  0  0  0  0
    9.1258  -14.2745   27.9865 O   0  0  0  0  0  0  0  0  0  0  0  0
  2  3  1  0
  2  1  1  0
  3  4  1  1
  5  3  1  0
  5  6  1  6
  7  5  1  0
  8  7  2  0
 10  9  1  1
 10 11  1  0
 11  7  1  0
 12 10  1  0
 12 13  2  0
 15 14  1  6
 15 17  1  0
 16 15  1  0
 17 18  1  6
 18 12  1  0
 19 17  1  0
 20 19  2  0
 21 19  1  0
M  END
$$$$
