IAV.pdb
     RDKit          3D

 21 20  0  0  1  0  0  0  0  0999 V2000
    8.0039  -12.5615   18.4486 C   0  0  0  0  0  0  0  0  0  0  0  0
    7.8246  -14.0174   18.7647 C   0  0  0  0  0  0  0  0  0  0  0  0
    7.5400  -14.2804   20.2187 C   0  0  2  0  0  0  0  0  0  0  0  0
    8.5582  -13.6217   21.1062 C   0  0  0  0  0  0  0  0  0  0  0  0
    7.4124  -15.7654   20.4610 C   0  0  2  0  0  0  0  0  0  0  0  0
    6.3997  -16.2760   19.5755 N   0  0  0  0  0  0  0  0  0  0  0  0
    7.0960  -16.0640   21.8821 C   0  0  0  0  0  0  0  0  0  0  0  0
    6.0405  -15.5774   22.3629 O   0  0  0  0  0  0  0  0  0  0  0  0
    8.1165  -18.3524   24.6683 C   0  0  0  0  0  0  0  0  0  0  0  0
    7.7717  -16.9860   24.1319 C   0  0  2  0  0  0  0  0  0  0  0  0
    7.9252  -16.8679   22.7159 N   0  0  0  0  0  0  0  0  0  0  0  0
    8.4776  -15.9034   24.8797 C   0  0  0  0  0  0  0  0  0  0  0  0
    9.6483  -15.5640   24.6680 O   0  0  0  0  0  0  0  0  0  0  0  0
    6.3065  -12.7694   26.0211 C   0  0  0  0  0  0  0  0  0  0  0  0
    7.1807  -13.2131   27.1651 C   0  0  2  0  0  0  0  0  0  0  0  0
    7.7676  -12.0099   27.8723 C   0  0  0  0  0  0  0  0  0  0  0  0
    8.2930  -14.1010   26.6311 C   0  0  2  0  0  0  0  0  0  0  0  0
    7.7489  -15.2274   25.8965 N   0  0  0  0  0  0  0  0  0  0  0  0
    9.0542  -14.6372   27.7770 C   0  0  0  0  0  0  0  0  0  0  0  0
    8.7174  -15.7372   28.2668 O   0  0  0  0  0  0  0  0  0  0  0  0
   10.1223  -13.9506   28.3121 O   0  0  0  0  0  0  0  0  0  0  0  0
  2  3  1  0
  2  1  1  0
  3  4  1  1
  5  3  1  0
  5  6  1  6
  7  5  1  0
  8  7  2  0
 10  9  1  1
 10 11  1  0
 11  7  1  0
 12 10  1  0
 12 13  2  0
 15 14  1  6
 15 17  1  0
 16 15  1  0
 17 18  1  1
 18 12  1  0
 19 17  1  0
 20 19  2  0
 21 19  1  0
M  END
$$$$
