IAV.pdb
     RDKit          3D

 21 20  0  0  1  0  0  0  0  0999 V2000
    7.6797  -12.2141   18.6005 C   0  0  0  0  0  0  0  0  0  0  0  0
    7.6491  -13.6778   18.9293 C   0  0  0  0  0  0  0  0  0  0  0  0
    7.6009  -13.9553   20.4075 C   0  0  2  0  0  0  0  0  0  0  0  0
    8.7135  -13.2546   21.1350 C   0  0  0  0  0  0  0  0  0  0  0  0
    7.5751  -15.4448   20.6541 C   0  0  2  0  0  0  0  0  0  0  0  0
    6.4219  -15.9872   19.9862 N   0  0  0  0  0  0  0  0  0  0  0  0
    7.5633  -15.7600   22.1065 C   0  0  0  0  0  0  0  0  0  0  0  0
    6.5414  -15.4424   22.7675 O   0  0  0  0  0  0  0  0  0  0  0  0
    9.4065  -17.9216   24.5533 C   0  0  0  0  0  0  0  0  0  0  0  0
    8.6874  -16.6488   24.1837 C   0  0  2  0  0  0  0  0  0  0  0  0
    8.6455  -16.3990   22.7772 N   0  0  0  0  0  0  0  0  0  0  0  0
    9.1961  -15.4799   24.9611 C   0  0  0  0  0  0  0  0  0  0  0  0
   10.1759  -14.8006   24.6307 O   0  0  0  0  0  0  0  0  0  0  0  0
    6.5910  -13.8705   27.8813 C   0  0  0  0  0  0  0  0  0  0  0  0
    7.7000  -13.0878   27.2276 C   0  0  2  0  0  0  0  0  0  0  0  0
    7.2208  -12.4942   25.9198 C   0  0  0  0  0  0  0  0  0  0  0  0
    8.8855  -14.0072   26.9823 C   0  0  2  0  0  0  0  0  0  0  0  0
    8.5032  -15.1352   26.1540 N   0  0  0  0  0  0  0  0  0  0  0  0
    9.3422  -14.5383   28.2820 C   0  0  0  0  0  0  0  0  0  0  0  0
    9.8710  -13.7579   29.1035 O   0  0  0  0  0  0  0  0  0  0  0  0
    9.1967  -15.8704   28.6028 O   0  0  0  0  0  0  0  0  0  0  0  0
  2  3  1  0
  2  1  1  0
  3  4  1  1
  5  3  1  0
  5  6  1  6
  7  5  1  0
  8  7  2  0
 10  9  1  6
 10 11  1  0
 11  7  1  0
 12 10  1  0
 12 13  2  0
 15 14  1  6
 15 17  1  0
 16 15  1  0
 17 18  1  6
 18 12  1  0
 19 17  1  0
 20 19  2  0
 21 19  1  0
M  END
$$$$
