IAV.pdb
     RDKit          3D

 21 20  0  0  1  0  0  0  0  0999 V2000
    7.1821  -12.1216   26.9764 C   0  0  0  0  0  0  0  0  0  0  0  0
    6.8667  -13.4798   26.4217 C   0  0  0  0  0  0  0  0  0  0  0  0
    6.9789  -13.5518   24.9228 C   0  0  2  0  0  0  0  0  0  0  0  0
    6.0539  -12.5740   24.2546 C   0  0  0  0  0  0  0  0  0  0  0  0
    6.7783  -14.9738   24.4563 C   0  0  2  0  0  0  0  0  0  0  0  0
    5.5448  -15.4571   25.0176 N   0  0  0  0  0  0  0  0  0  0  0  0
    7.9255  -15.8410   24.8313 C   0  0  0  0  0  0  0  0  0  0  0  0
    7.9061  -16.3810   25.9671 O   0  0  0  0  0  0  0  0  0  0  0  0
   11.0446  -17.2494   23.1597 C   0  0  0  0  0  0  0  0  0  0  0  0
   10.1765  -16.8666   24.3317 C   0  0  2  0  0  0  0  0  0  0  0  0
    9.0348  -16.0859   23.9718 N   0  0  0  0  0  0  0  0  0  0  0  0
   10.9736  -16.2473   25.4320 C   0  0  0  0  0  0  0  0  0  0  0  0
   11.8062  -15.3478   25.2638 O   0  0  0  0  0  0  0  0  0  0  0  0
    9.3838  -15.4594   28.9313 C   0  0  0  0  0  0  0  0  0  0  0  0
   10.7748  -15.0452   28.5268 C   0  0  2  0  0  0  0  0  0  0  0  0
   10.7133  -13.8940   27.5454 C   0  0  0  0  0  0  0  0  0  0  0  0
   11.4886  -16.2313   27.8988 C   0  0  2  0  0  0  0  0  0  0  0  0
   10.7537  -16.7296   26.7515 N   0  0  0  0  0  0  0  0  0  0  0  0
   11.5558  -17.3182   28.8960 C   0  0  0  0  0  0  0  0  0  0  0  0
   10.8236  -18.3210   28.7496 O   0  0  0  0  0  0  0  0  0  0  0  0
   12.4062  -17.2465   29.9778 O   0  0  0  0  0  0  0  0  0  0  0  0
  2  3  1  0
  2  1  1  0
  3  4  1  6
  5  3  1  0
  5  6  1  1
  7  5  1  0
  8  7  2  0
 10  9  1  6
 10 11  1  0
 11  7  1  0
 12 10  1  0
 12 13  2  0
 15 14  1  6
 15 17  1  0
 16 15  1  0
 17 18  1  6
 18 12  1  0
 19 17  1  0
 20 19  2  0
 21 19  1  0
M  END
$$$$
