IAV.pdb
     RDKit          3D

 21 20  0  0  1  0  0  0  0  0999 V2000
   10.5956  -20.2032   22.9400 C   0  0  0  0  0  0  0  0  0  0  0  0
    9.6361  -19.3814   22.1303 C   0  0  0  0  0  0  0  0  0  0  0  0
   10.3098  -18.3125   21.3129 C   0  0  2  0  0  0  0  0  0  0  0  0
   11.7012  -18.0362   21.8089 C   0  0  0  0  0  0  0  0  0  0  0  0
    9.4421  -17.0780   21.2587 C   0  0  2  0  0  0  0  0  0  0  0  0
   10.0038  -16.1809   20.2841 N   0  0  0  0  0  0  0  0  0  0  0  0
    9.3245  -16.4315   22.5918 C   0  0  0  0  0  0  0  0  0  0  0  0
   10.2720  -15.6979   22.9738 O   0  0  0  0  0  0  0  0  0  0  0  0
    6.7027  -16.1616   25.3502 C   0  0  0  0  0  0  0  0  0  0  0  0
    8.0770  -16.0184   24.7462 C   0  0  2  0  0  0  0  0  0  0  0  0
    8.1989  -16.6031   23.4479 N   0  0  0  0  0  0  0  0  0  0  0  0
    9.1446  -16.4742   25.6853 C   0  0  0  0  0  0  0  0  0  0  0  0
    9.7485  -17.5488   25.5800 O   0  0  0  0  0  0  0  0  0  0  0  0
    9.5643  -14.3579   29.3799 C   0  0  0  0  0  0  0  0  0  0  0  0
   10.8107  -14.7392   28.6241 C   0  0  2  0  0  0  0  0  0  0  0  0
   11.2933  -13.5726   27.7884 C   0  0  0  0  0  0  0  0  0  0  0  0
   10.5108  -15.9335   27.7327 C   0  0  2  0  0  0  0  0  0  0  0  0
    9.4797  -15.6109   26.7645 N   0  0  0  0  0  0  0  0  0  0  0  0
   10.0051  -17.0331   28.5784 C   0  0  0  0  0  0  0  0  0  0  0  0
    8.7839  -17.3007   28.5579 O   0  0  0  0  0  0  0  0  0  0  0  0
   10.8503  -17.7643   29.3842 O   0  0  0  0  0  0  0  0  0  0  0  0
  2  3  1  0
  2  1  1  0
  3  4  1  1
  5  3  1  0
  5  6  1  6
  7  5  1  0
  8  7  2  0
 10  9  1  1
 10 11  1  0
 11  7  1  0
 12 10  1  0
 12 13  2  0
 15 14  1  6
 15 17  1  0
 16 15  1  0
 17 18  1  6
 18 12  1  0
 19 17  1  0
 20 19  2  0
 21 19  1  0
M  END
$$$$
