AGI.pdb
     RDKit          3D

 18 17  0  0  1  0  0  0  0  0999 V2000
   20.2005  -12.7033  -18.6924 C   0  0  0  0  0  0  0  0  0  0  0  0
   20.6186  -13.4679  -17.4388 C   0  0  2  0  0  0  0  0  0  0  0  0
   19.5223  -13.6257  -16.5357 N   0  0  0  0  0  0  0  0  0  0  0  0
   21.7546  -12.7185  -16.8396 C   0  0  0  0  0  0  0  0  0  0  0  0
   22.8079  -12.5461  -17.5037 O   0  0  0  0  0  0  0  0  0  0  0  0
   21.7200  -12.1739  -15.5335 N   0  0  0  0  0  0  0  0  0  0  0  0
   22.8378  -11.4445  -14.9722 C   0  0  0  0  0  0  0  0  0  0  0  0
   22.6307   -9.9766  -15.0687 C   0  0  0  0  0  0  0  0  0  0  0  0
   23.4968   -9.2006  -14.5395 O   0  0  0  0  0  0  0  0  0  0  0  0
   21.2724   -7.8418  -19.7438 C   0  0  0  0  0  0  0  0  0  0  0  0
   21.7701   -8.0163  -18.3624 C   0  0  0  0  0  0  0  0  0  0  0  0
   20.9030   -7.6659  -17.2285 C   0  0  2  0  0  0  0  0  0  0  0  0
   20.3271   -6.2555  -17.4116 C   0  0  0  0  0  0  0  0  0  0  0  0
   21.3820   -7.9064  -15.8641 C   0  0  2  0  0  0  0  0  0  0  0  0
   21.5430   -9.3781  -15.7047 N   0  0  0  0  0  0  0  0  0  0  0  0
   20.7208   -7.3470  -14.7095 C   0  0  0  0  0  0  0  0  0  0  0  0
   19.6209   -8.0554  -14.1447 O   0  0  0  0  0  0  0  0  0  0  0  0
   20.9742   -6.2884  -14.0991 O   0  0  0  0  0  0  0  0  0  0  0  0
  2  1  1  6
  3  2  1  0
  4  6  1  0
  4  2  1  0
  5  4  2  0
  7  6  1  0
  8  7  1  0
  8 15  1  0
  9  8  2  0
 11 10  1  0
 11 12  1  0
 12 14  1  0
 12 13  1  1
 14 15  1  1
 14 16  1  0
 16 17  1  0
 18 16  2  0
M  END
$$$$
