AGI.pdb
     RDKit          3D

 18 17  0  0  1  0  0  0  0  0999 V2000
   19.4295  -12.5667  -22.0574 C   0  0  0  0  0  0  0  0  0  0  0  0
   19.2624  -12.5771  -20.5398 C   0  0  2  0  0  0  0  0  0  0  0  0
   17.8826  -12.5540  -20.1681 N   0  0  0  0  0  0  0  0  0  0  0  0
   20.0186  -11.4079  -20.0181 C   0  0  0  0  0  0  0  0  0  0  0  0
   21.2294  -11.5368  -19.7057 O   0  0  0  0  0  0  0  0  0  0  0  0
   19.4423  -10.1262  -19.8480 N   0  0  0  0  0  0  0  0  0  0  0  0
   20.2128   -8.9886  -19.3910 C   0  0  0  0  0  0  0  0  0  0  0  0
   20.1369   -8.8402  -17.9148 C   0  0  0  0  0  0  0  0  0  0  0  0
   19.0160   -9.0439  -17.3364 O   0  0  0  0  0  0  0  0  0  0  0  0
   23.2062  -10.8101  -13.2480 C   0  0  0  0  0  0  0  0  0  0  0  0
   22.3406   -9.7086  -13.7211 C   0  0  0  0  0  0  0  0  0  0  0  0
   22.1315   -9.5178  -15.1634 C   0  0  2  0  0  0  0  0  0  0  0  0
   23.4790   -9.4283  -15.8919 C   0  0  0  0  0  0  0  0  0  0  0  0
   21.1771   -8.5016  -15.6168 C   0  0  2  0  0  0  0  0  0  0  0  0
   21.2174   -8.4897  -17.1052 N   0  0  0  0  0  0  0  0  0  0  0  0
   21.1925   -7.1523  -15.1045 C   0  0  0  0  0  0  0  0  0  0  0  0
   21.7437   -6.1210  -15.9188 O   0  0  0  0  0  0  0  0  0  0  0  0
   20.7784   -6.7274  -14.0066 O   0  0  0  0  0  0  0  0  0  0  0  0
  2  1  1  6
  3  2  1  0
  4  6  1  0
  4  2  1  0
  5  4  2  0
  7  6  1  0
  8  7  1  0
  8 15  1  0
  9  8  2  0
 11 10  1  0
 11 12  1  0
 12 14  1  0
 12 13  1  6
 14 15  1  6
 14 16  1  0
 16 17  1  0
 18 16  2  0
M  END
$$$$
