AGI.pdb
     RDKit          3D

 18 17  0  0  1  0  0  0  0  0999 V2000
   15.3842  -14.0629  -18.2920 C   0  0  0  0  0  0  0  0  0  0  0  0
   16.6821  -14.1543  -17.4932 C   0  0  2  0  0  0  0  0  0  0  0  0
   16.4248  -14.2315  -16.0895 N   0  0  0  0  0  0  0  0  0  0  0  0
   17.4975  -12.9676  -17.8645 C   0  0  0  0  0  0  0  0  0  0  0  0
   18.3198  -13.0471  -18.8119 O   0  0  0  0  0  0  0  0  0  0  0  0
   17.4006  -11.7224  -17.1983 N   0  0  0  0  0  0  0  0  0  0  0  0
   18.2539  -10.6010  -17.5315 C   0  0  0  0  0  0  0  0  0  0  0  0
   18.8522   -9.9946  -16.3144 C   0  0  0  0  0  0  0  0  0  0  0  0
   18.2144  -10.0819  -15.2108 O   0  0  0  0  0  0  0  0  0  0  0  0
   23.2724  -11.6582  -14.5864 C   0  0  0  0  0  0  0  0  0  0  0  0
   21.9861  -10.9416  -14.7232 C   0  0  0  0  0  0  0  0  0  0  0  0
   21.9819   -9.4795  -14.8729 C   0  0  2  0  0  0  0  0  0  0  0  0
   22.8586   -8.8290  -13.7946 C   0  0  0  0  0  0  0  0  0  0  0  0
   20.7035   -8.7854  -15.0542 C   0  0  2  0  0  0  0  0  0  0  0  0
   20.0772   -9.3278  -16.2914 N   0  0  0  0  0  0  0  0  0  0  0  0
   20.6026   -7.3457  -15.0315 C   0  0  0  0  0  0  0  0  0  0  0  0
   20.4832   -6.6518  -16.2704 O   0  0  0  0  0  0  0  0  0  0  0  0
   20.6036   -6.5766  -14.0487 O   0  0  0  0  0  0  0  0  0  0  0  0
  2  1  1  6
  3  2  1  0
  4  6  1  0
  4  2  1  0
  5  4  2  0
  7  6  1  0
  8  7  1  0
  8 15  1  0
  9  8  2  0
 11 10  1  0
 11 12  1  0
 12 14  1  0
 12 13  1  1
 14 15  1  6
 14 16  1  0
 16 17  1  0
 18 16  2  0
M  END
$$$$
