AGI.pdb
     RDKit          3D

 18 17  0  0  1  0  0  0  0  0999 V2000
   24.9664  -19.8637  -14.8370 C   0  0  0  0  0  0  0  0  0  0  0  0
   25.4455  -21.1073  -14.0920 C   0  0  2  0  0  0  0  0  0  0  0  0
   24.3452  -21.8775  -13.6038 N   0  0  0  0  0  0  0  0  0  0  0  0
   26.3448  -20.6354  -13.0059 C   0  0  0  0  0  0  0  0  0  0  0  0
   26.2419  -19.4579  -12.5781 O   0  0  0  0  0  0  0  0  0  0  0  0
   27.3344  -21.4534  -12.4098 N   0  0  0  0  0  0  0  0  0  0  0  0
   28.1739  -20.9837  -11.3276 C   0  0  0  0  0  0  0  0  0  0  0  0
   27.5579  -21.2605  -10.0043 C   0  0  0  0  0  0  0  0  0  0  0  0
   26.7727  -22.2622   -9.8927 O   0  0  0  0  0  0  0  0  0  0  0  0
   28.6232  -20.2077   -4.0272 C   0  0  0  0  0  0  0  0  0  0  0  0
   27.7288  -20.6740   -5.1084 C   0  0  0  0  0  0  0  0  0  0  0  0
   28.0155  -20.2990   -6.5003 C   0  0  2  0  0  0  0  0  0  0  0  0
   28.3621  -18.8071   -6.5917 C   0  0  0  0  0  0  0  0  0  0  0  0
   27.0968  -20.7300   -7.5582 C   0  0  2  0  0  0  0  0  0  0  0  0
   27.7793  -20.4937   -8.8603 N   0  0  0  0  0  0  0  0  0  0  0  0
   25.7291  -20.2728   -7.6193 C   0  0  0  0  0  0  0  0  0  0  0  0
   24.7379  -20.9904   -6.8890 O   0  0  0  0  0  0  0  0  0  0  0  0
   25.2563  -19.3002   -8.2420 O   0  0  0  0  0  0  0  0  0  0  0  0
  2  1  1  1
  3  2  1  0
  4  6  1  0
  4  2  1  0
  5  4  2  0
  7  6  1  0
  8  7  1  0
  8 15  1  0
  9  8  2  0
 11 10  1  0
 11 12  1  0
 12 14  1  0
 12 13  1  1
 14 15  1  6
 14 16  1  0
 16 17  1  0
 18 16  2  0
M  END
$$$$
