AGI.pdb
     RDKit          3D

 18 17  0  0  1  0  0  0  0  0999 V2000
   14.8881  -13.1380  -17.5409 C   0  0  0  0  0  0  0  0  0  0  0  0
   15.6665  -12.9497  -16.2410 C   0  0  2  0  0  0  0  0  0  0  0  0
   14.9631  -12.1008  -15.3317 N   0  0  0  0  0  0  0  0  0  0  0  0
   17.0011  -12.4115  -16.6156 C   0  0  0  0  0  0  0  0  0  0  0  0
   18.0220  -13.1351  -16.4953 O   0  0  0  0  0  0  0  0  0  0  0  0
   17.1957  -11.1003  -17.1122 N   0  0  0  0  0  0  0  0  0  0  0  0
   18.5083  -10.5898  -17.4482 C   0  0  0  0  0  0  0  0  0  0  0  0
   19.0895   -9.8082  -16.3265 C   0  0  0  0  0  0  0  0  0  0  0  0
   18.4220   -9.7057  -15.2419 O   0  0  0  0  0  0  0  0  0  0  0  0
   23.4214  -11.3663  -14.3740 C   0  0  0  0  0  0  0  0  0  0  0  0
   22.1619  -10.6322  -14.6217 C   0  0  0  0  0  0  0  0  0  0  0  0
   22.2061   -9.1921  -14.9121 C   0  0  2  0  0  0  0  0  0  0  0  0
   23.0614   -8.4619  -13.8682 C   0  0  0  0  0  0  0  0  0  0  0  0
   20.9561   -8.4865  -15.2099 C   0  0  2  0  0  0  0  0  0  0  0  0
   20.3290   -9.1699  -16.3747 N   0  0  0  0  0  0  0  0  0  0  0  0
   20.9063   -7.0544  -15.3830 C   0  0  0  0  0  0  0  0  0  0  0  0
   20.6486   -6.2392  -14.2430 O   0  0  0  0  0  0  0  0  0  0  0  0
   21.0612   -6.3864  -16.4257 O   0  0  0  0  0  0  0  0  0  0  0  0
  2  1  1  6
  3  2  1  0
  4  6  1  0
  4  2  1  0
  5  4  2  0
  7  6  1  0
  8  7  1  0
  8 15  1  0
  9  8  2  0
 11 10  1  0
 11 12  1  0
 12 14  1  0
 12 13  1  1
 14 15  1  6
 14 16  1  0
 16 17  1  0
 18 16  2  0
M  END
$$$$
