AGI.pdb
     RDKit          3D

 18 17  0  0  1  0  0  0  0  0999 V2000
   17.8107  -11.7373  -16.0523 C   0  0  0  0  0  0  0  0  0  0  0  0
   16.6639  -11.5646  -15.0593 C   0  0  2  0  0  0  0  0  0  0  0  0
   15.4964  -11.0440  -15.6982 N   0  0  0  0  0  0  0  0  0  0  0  0
   17.1676  -10.6824  -13.9734 C   0  0  0  0  0  0  0  0  0  0  0  0
   18.0444  -11.1082  -13.1796 O   0  0  0  0  0  0  0  0  0  0  0  0
   16.7072   -9.3586  -13.7750 N   0  0  0  0  0  0  0  0  0  0  0  0
   17.1666   -8.5393  -12.6730 C   0  0  0  0  0  0  0  0  0  0  0  0
   16.0418   -7.8066  -12.0366 C   0  0  0  0  0  0  0  0  0  0  0  0
   14.9103   -7.7883  -12.6296 O   0  0  0  0  0  0  0  0  0  0  0  0
   12.7689   -7.4190   -7.2470 C   0  0  0  0  0  0  0  0  0  0  0  0
   13.4447   -6.5619   -8.2446 C   0  0  0  0  0  0  0  0  0  0  0  0
   14.5269   -7.1205   -9.0675 C   0  0  2  0  0  0  0  0  0  0  0  0
   15.6627   -7.6402   -8.1763 C   0  0  0  0  0  0  0  0  0  0  0  0
   15.0179   -6.3527  -10.2158 C   0  0  2  0  0  0  0  0  0  0  0  0
   16.1354   -7.1283  -10.8213 N   0  0  0  0  0  0  0  0  0  0  0  0
   15.3756   -4.9585  -10.1096 C   0  0  0  0  0  0  0  0  0  0  0  0
   16.7571   -4.6096  -10.0885 O   0  0  0  0  0  0  0  0  0  0  0  0
   14.6278   -3.9626  -10.0294 O   0  0  0  0  0  0  0  0  0  0  0  0
  2  1  1  6
  3  2  1  0
  4  6  1  0
  4  2  1  0
  5  4  2  0
  7  6  1  0
  8  7  1  0
  8 15  1  0
  9  8  2  0
 11 10  1  0
 11 12  1  0
 12 14  1  0
 12 13  1  1
 14 15  1  1
 14 16  1  0
 16 17  1  0
 18 16  2  0
M  END
$$$$
