AGI.pdb
     RDKit          3D

 18 17  0  0  1  0  0  0  0  0999 V2000
   28.5905  -22.4032  -17.8168 C   0  0  0  0  0  0  0  0  0  0  0  0
   27.2469  -22.6172  -17.1241 C   0  0  2  0  0  0  0  0  0  0  0  0
   26.1702  -22.0928  -17.9039 N   0  0  0  0  0  0  0  0  0  0  0  0
   27.3503  -21.9808  -15.7841 C   0  0  0  0  0  0  0  0  0  0  0  0
   27.9731  -22.5656  -14.8620 O   0  0  0  0  0  0  0  0  0  0  0  0
   26.7750  -20.7244  -15.4771 N   0  0  0  0  0  0  0  0  0  0  0  0
   26.9101  -20.1126  -14.1718 C   0  0  0  0  0  0  0  0  0  0  0  0
   25.8986  -20.6384  -13.2192 C   0  0  0  0  0  0  0  0  0  0  0  0
   25.0284  -21.4697  -13.6482 O   0  0  0  0  0  0  0  0  0  0  0  0
   27.1042  -20.1047   -7.9442 C   0  0  0  0  0  0  0  0  0  0  0  0
   26.5324  -20.7502   -9.1454 C   0  0  0  0  0  0  0  0  0  0  0  0
   25.1768  -20.3919   -9.5864 C   0  0  2  0  0  0  0  0  0  0  0  0
   24.1443  -20.8009   -8.5276 C   0  0  0  0  0  0  0  0  0  0  0  0
   24.7556  -20.7372  -10.9474 C   0  0  2  0  0  0  0  0  0  0  0  0
   25.8311  -20.2837  -11.8718 N   0  0  0  0  0  0  0  0  0  0  0  0
   23.4604  -20.3678  -11.4662 C   0  0  0  0  0  0  0  0  0  0  0  0
   23.3031  -19.0769  -12.0488 O   0  0  0  0  0  0  0  0  0  0  0  0
   22.4057  -21.0346  -11.4852 O   0  0  0  0  0  0  0  0  0  0  0  0
  2  1  1  6
  3  2  1  0
  4  6  1  0
  4  2  1  0
  5  4  2  0
  7  6  1  0
  8  7  1  0
  8 15  1  0
  9  8  2  0
 11 10  1  0
 11 12  1  0
 12 14  1  0
 12 13  1  1
 14 15  1  6
 14 16  1  0
 16 17  1  0
 18 16  2  0
M  END
$$$$
