AGI.pdb
     RDKit          3D

 18 17  0  0  1  0  0  0  0  0999 V2000
   26.9996  -18.3806  -19.6174 C   0  0  0  0  0  0  0  0  0  0  0  0
   27.9958  -18.6416  -18.4902 C   0  0  2  0  0  0  0  0  0  0  0  0
   28.3948  -20.0134  -18.4558 N   0  0  0  0  0  0  0  0  0  0  0  0
   27.3412  -18.2007  -17.2300 C   0  0  0  0  0  0  0  0  0  0  0  0
   26.9141  -17.0228  -17.1277 O   0  0  0  0  0  0  0  0  0  0  0  0
   27.1657  -19.0492  -16.1107 N   0  0  0  0  0  0  0  0  0  0  0  0
   26.5642  -18.5853  -14.8780 C   0  0  0  0  0  0  0  0  0  0  0  0
   25.7351  -19.6443  -14.2472 C   0  0  0  0  0  0  0  0  0  0  0  0
   25.5779  -20.7495  -14.8687 O   0  0  0  0  0  0  0  0  0  0  0  0
   26.7115  -20.5398   -9.2167 C   0  0  0  0  0  0  0  0  0  0  0  0
   26.2568  -20.6741  -10.6173 C   0  0  0  0  0  0  0  0  0  0  0  0
   24.8197  -20.6243  -10.9221 C   0  0  2  0  0  0  0  0  0  0  0  0
   24.0565  -21.6465  -10.0695 C   0  0  0  0  0  0  0  0  0  0  0  0
   24.3879  -20.6242  -12.3230 C   0  0  2  0  0  0  0  0  0  0  0  0
   25.1080  -19.5154  -13.0078 N   0  0  0  0  0  0  0  0  0  0  0  0
   22.9935  -20.6215  -12.6956 C   0  0  0  0  0  0  0  0  0  0  0  0
   22.3881  -21.8538  -13.0770 O   0  0  0  0  0  0  0  0  0  0  0  0
   22.1968  -19.6619  -12.7381 O   0  0  0  0  0  0  0  0  0  0  0  0
  2  1  1  6
  3  2  1  0
  4  6  1  0
  4  2  1  0
  5  4  2  0
  7  6  1  0
  8  7  1  0
  8 15  1  0
  9  8  2  0
 11 10  1  0
 11 12  1  0
 12 14  1  0
 12 13  1  1
 14 15  1  6
 14 16  1  0
 16 17  1  0
 18 16  2  0
M  END
$$$$
