AGI.pdb
     RDKit          3D

 18 17  0  0  1  0  0  0  0  0999 V2000
   27.5383  -20.9297  -18.0936 C   0  0  0  0  0  0  0  0  0  0  0  0
   28.4851  -21.3995  -16.9918 C   0  0  2  0  0  0  0  0  0  0  0  0
   28.2869  -22.7822  -16.6902 N   0  0  0  0  0  0  0  0  0  0  0  0
   28.2497  -20.5152  -15.8197 C   0  0  0  0  0  0  0  0  0  0  0  0
   28.6141  -19.3128  -15.8620 O   0  0  0  0  0  0  0  0  0  0  0  0
   27.6243  -20.9574  -14.6293 N   0  0  0  0  0  0  0  0  0  0  0  0
   27.4544  -20.0928  -13.4803 C   0  0  0  0  0  0  0  0  0  0  0  0
   26.6200  -20.7387  -12.4346 C   0  0  0  0  0  0  0  0  0  0  0  0
   26.1060  -21.8820  -12.6818 O   0  0  0  0  0  0  0  0  0  0  0  0
   27.9788  -19.8678   -7.3344 C   0  0  0  0  0  0  0  0  0  0  0  0
   27.4195  -20.5308   -8.5319 C   0  0  0  0  0  0  0  0  0  0  0  0
   25.9905  -20.3833   -8.8427 C   0  0  2  0  0  0  0  0  0  0  0  0
   25.1340  -20.9098   -7.6836 C   0  0  0  0  0  0  0  0  0  0  0  0
   25.4971  -20.8206  -10.1520 C   0  0  2  0  0  0  0  0  0  0  0  0
   26.3547  -20.1774  -11.1854 N   0  0  0  0  0  0  0  0  0  0  0  0
   24.1055  -20.7170  -10.5208 C   0  0  0  0  0  0  0  0  0  0  0  0
   23.6816  -19.5795  -11.2672 O   0  0  0  0  0  0  0  0  0  0  0  0
   23.1703  -21.5062  -10.2761 O   0  0  0  0  0  0  0  0  0  0  0  0
  2  1  1  6
  3  2  1  0
  4  6  1  0
  4  2  1  0
  5  4  2  0
  7  6  1  0
  8  7  1  0
  8 15  1  0
  9  8  2  0
 11 10  1  0
 11 12  1  0
 12 14  1  0
 12 13  1  1
 14 15  1  6
 14 16  1  0
 16 17  1  0
 18 16  2  0
M  END
$$$$
