AGI.pdb
     RDKit          3D

 18 17  0  0  1  0  0  0  0  0999 V2000
   18.7010  -10.2130  -21.5102 C   0  0  0  0  0  0  0  0  0  0  0  0
   19.5835  -10.3010  -20.2674 C   0  0  2  0  0  0  0  0  0  0  0  0
   19.7871  -11.6583  -19.8690 N   0  0  0  0  0  0  0  0  0  0  0  0
   18.9224   -9.4851  -19.2146 C   0  0  0  0  0  0  0  0  0  0  0  0
   18.8341   -8.2390  -19.3545 O   0  0  0  0  0  0  0  0  0  0  0  0
   18.3728  -10.0416  -18.0348 N   0  0  0  0  0  0  0  0  0  0  0  0
   17.7088   -9.2302  -17.0362 C   0  0  0  0  0  0  0  0  0  0  0  0
   18.6365   -8.8550  -15.9381 C   0  0  0  0  0  0  0  0  0  0  0  0
   18.1606   -8.6950  -14.7632 O   0  0  0  0  0  0  0  0  0  0  0  0
   22.5542  -11.9602  -15.1600 C   0  0  0  0  0  0  0  0  0  0  0  0
   21.5549  -10.8888  -14.9603 C   0  0  0  0  0  0  0  0  0  0  0  0
   21.9734   -9.4819  -15.0384 C   0  0  2  0  0  0  0  0  0  0  0  0
   23.1501   -9.2205  -14.0890 C   0  0  0  0  0  0  0  0  0  0  0  0
   20.9538   -8.4306  -14.9750 C   0  0  2  0  0  0  0  0  0  0  0  0
   20.0084   -8.6627  -16.1017 N   0  0  0  0  0  0  0  0  0  0  0  0
   21.2989   -7.0316  -14.8910 C   0  0  0  0  0  0  0  0  0  0  0  0
   21.0273   -6.1946  -16.0118 O   0  0  0  0  0  0  0  0  0  0  0  0
   21.8236   -6.4106  -13.9441 O   0  0  0  0  0  0  0  0  0  0  0  0
  2  1  1  6
  3  2  1  0
  4  6  1  0
  4  2  1  0
  5  4  2  0
  7  6  1  0
  8  7  1  0
  8 15  1  0
  9  8  2  0
 11 10  1  0
 11 12  1  0
 12 14  1  0
 12 13  1  1
 14 15  1  6
 14 16  1  0
 16 17  1  0
 18 16  2  0
M  END
$$$$
