AGI.pdb
     RDKit          3D

 18 17  0  0  1  0  0  0  0  0999 V2000
   19.4336  -11.5071  -14.1235 C   0  0  0  0  0  0  0  0  0  0  0  0
   17.9926  -11.0129  -14.0215 C   0  0  2  0  0  0  0  0  0  0  0  0
   17.7574   -9.9103  -14.8998 N   0  0  0  0  0  0  0  0  0  0  0  0
   17.7575  -10.6715  -12.5935 C   0  0  0  0  0  0  0  0  0  0  0  0
   17.5395  -11.5875  -11.7606 O   0  0  0  0  0  0  0  0  0  0  0  0
   17.7646   -9.3435  -12.1035 N   0  0  0  0  0  0  0  0  0  0  0  0
   17.5856   -9.0386  -10.6994 C   0  0  0  0  0  0  0  0  0  0  0  0
   16.5732   -7.9695  -10.5016 C   0  0  0  0  0  0  0  0  0  0  0  0
   16.0837   -7.3925  -11.5311 O   0  0  0  0  0  0  0  0  0  0  0  0
   12.3292   -8.7491   -7.7532 C   0  0  0  0  0  0  0  0  0  0  0  0
   13.3094   -8.1222   -8.6658 C   0  0  0  0  0  0  0  0  0  0  0  0
   14.0567   -6.9359   -8.2246 C   0  0  2  0  0  0  0  0  0  0  0  0
   13.0905   -5.8296   -7.7808 C   0  0  0  0  0  0  0  0  0  0  0  0
   15.1478   -6.4288   -9.0621 C   0  0  2  0  0  0  0  0  0  0  0  0
   16.1135   -7.5457   -9.2546 N   0  0  0  0  0  0  0  0  0  0  0  0
   15.8504   -5.2074   -8.7495 C   0  0  0  0  0  0  0  0  0  0  0  0
   16.9911   -5.2767   -7.8984 O   0  0  0  0  0  0  0  0  0  0  0  0
   15.6028   -4.0438   -9.1265 O   0  0  0  0  0  0  0  0  0  0  0  0
  2  1  1  1
  3  2  1  0
  4  6  1  0
  4  2  1  0
  5  4  2  0
  7  6  1  0
  8  7  1  0
  8 15  1  0
  9  8  2  0
 11 10  1  0
 11 12  1  0
 12 14  1  0
 12 13  1  6
 14 15  1  1
 14 16  1  0
 16 17  1  0
 18 16  2  0
M  END
$$$$
