AGI.pdb
     RDKit          3D

 18 17  0  0  1  0  0  0  0  0999 V2000
   25.9729  -17.2818  -17.9235 C   0  0  0  0  0  0  0  0  0  0  0  0
   26.9027  -18.3358  -17.3272 C   0  0  2  0  0  0  0  0  0  0  0  0
   26.4457  -19.6579  -17.6197 N   0  0  0  0  0  0  0  0  0  0  0  0
   26.9786  -18.0628  -15.8675 C   0  0  0  0  0  0  0  0  0  0  0  0
   27.5137  -17.0016  -15.4581 O   0  0  0  0  0  0  0  0  0  0  0  0
   26.4716  -18.9487  -14.8867 N   0  0  0  0  0  0  0  0  0  0  0  0
   26.4941  -18.6302  -13.4744 C   0  0  0  0  0  0  0  0  0  0  0  0
   25.7476  -19.6389  -12.6792 C   0  0  0  0  0  0  0  0  0  0  0  0
   25.2654  -20.6575  -13.2812 O   0  0  0  0  0  0  0  0  0  0  0  0
   26.9607  -19.6988   -7.4204 C   0  0  0  0  0  0  0  0  0  0  0  0
   26.5926  -20.2369   -8.7476 C   0  0  0  0  0  0  0  0  0  0  0  0
   25.1741  -20.3837   -9.1035 C   0  0  2  0  0  0  0  0  0  0  0  0
   24.4897  -21.3903   -8.1692 C   0  0  0  0  0  0  0  0  0  0  0  0
   24.8089  -20.5813  -10.5094 C   0  0  2  0  0  0  0  0  0  0  0  0
   25.5333  -19.5511  -11.3036 N   0  0  0  0  0  0  0  0  0  0  0  0
   23.4339  -20.6698  -10.9394 C   0  0  0  0  0  0  0  0  0  0  0  0
   22.8560  -21.9609  -11.1117 O   0  0  0  0  0  0  0  0  0  0  0  0
   22.6334  -19.7475  -11.1963 O   0  0  0  0  0  0  0  0  0  0  0  0
  2  1  1  6
  3  2  1  0
  4  6  1  0
  4  2  1  0
  5  4  2  0
  7  6  1  0
  8  7  1  0
  8 15  1  0
  9  8  2  0
 11 10  1  0
 11 12  1  0
 12 14  1  0
 12 13  1  1
 14 15  1  6
 14 16  1  0
 16 17  1  0
 18 16  2  0
M  END
$$$$
