AGI.pdb
     RDKit          3D

 18 17  0  0  1  0  0  0  0  0999 V2000
   24.2748  -20.6207  -16.0071 C   0  0  0  0  0  0  0  0  0  0  0  0
   25.7658  -20.9469  -15.9699 C   0  0  2  0  0  0  0  0  0  0  0  0
   25.9933  -22.3538  -16.0753 N   0  0  0  0  0  0  0  0  0  0  0  0
   26.2984  -20.3708  -14.7068 C   0  0  0  0  0  0  0  0  0  0  0  0
   25.9882  -19.1984  -14.3761 O   0  0  0  0  0  0  0  0  0  0  0  0
   27.1553  -21.0815  -13.8324 N   0  0  0  0  0  0  0  0  0  0  0  0
   27.6667  -20.4973  -12.6102 C   0  0  0  0  0  0  0  0  0  0  0  0
   26.9670  -21.0383  -11.4166 C   0  0  0  0  0  0  0  0  0  0  0  0
   26.7847  -22.3002  -11.3342 O   0  0  0  0  0  0  0  0  0  0  0  0
   28.4689  -19.3717   -6.7550 C   0  0  0  0  0  0  0  0  0  0  0  0
   27.8474  -20.1763   -7.8287 C   0  0  0  0  0  0  0  0  0  0  0  0
   26.3864  -20.1670   -7.9899 C   0  0  2  0  0  0  0  0  0  0  0  0
   25.7016  -20.5902   -6.6837 C   0  0  0  0  0  0  0  0  0  0  0  0
   25.7955  -20.8068   -9.1691 C   0  0  2  0  0  0  0  0  0  0  0  0
   26.4889  -20.2554  -10.3658 N   0  0  0  0  0  0  0  0  0  0  0  0
   24.3694  -20.8422   -9.3885 C   0  0  0  0  0  0  0  0  0  0  0  0
   23.8095  -19.9732  -10.3694 O   0  0  0  0  0  0  0  0  0  0  0  0
   23.5084  -21.5491   -8.8261 O   0  0  0  0  0  0  0  0  0  0  0  0
  2  1  1  1
  3  2  1  0
  4  6  1  0
  4  2  1  0
  5  4  2  0
  7  6  1  0
  8  7  1  0
  8 15  1  0
  9  8  2  0
 11 10  1  0
 11 12  1  0
 12 14  1  0
 12 13  1  1
 14 15  1  6
 14 16  1  0
 16 17  1  0
 18 16  2  0
M  END
$$$$
