AGI.pdb
     RDKit          3D

 18 17  0  0  1  0  0  0  0  0999 V2000
   26.0431  -17.9583  -15.7117 C   0  0  0  0  0  0  0  0  0  0  0  0
   25.9663  -19.3580  -15.1067 C   0  0  2  0  0  0  0  0  0  0  0  0
   24.9690  -19.4295  -14.0856 N   0  0  0  0  0  0  0  0  0  0  0  0
   27.3280  -19.6825  -14.6051 C   0  0  0  0  0  0  0  0  0  0  0  0
   28.2852  -19.7765  -15.4144 O   0  0  0  0  0  0  0  0  0  0  0  0
   27.6181  -19.8973  -13.2363 N   0  0  0  0  0  0  0  0  0  0  0  0
   28.1382  -21.1567  -12.7466 C   0  0  0  0  0  0  0  0  0  0  0  0
   27.7186  -21.4078  -11.3438 C   0  0  0  0  0  0  0  0  0  0  0  0
   28.0496  -22.5130  -10.7949 O   0  0  0  0  0  0  0  0  0  0  0  0
   28.4584  -19.4289   -6.7609 C   0  0  0  0  0  0  0  0  0  0  0  0
   27.9450  -20.3032   -7.8371 C   0  0  0  0  0  0  0  0  0  0  0  0
   26.5409  -20.1902   -8.2566 C   0  0  2  0  0  0  0  0  0  0  0  0
   25.6063  -20.3921   -7.0565 C   0  0  0  0  0  0  0  0  0  0  0  0
   26.0925  -20.9164   -9.4485 C   0  0  2  0  0  0  0  0  0  0  0  0
   26.9791  -20.5101  -10.5737 N   0  0  0  0  0  0  0  0  0  0  0  0
   24.7129  -20.9165   -9.8727 C   0  0  0  0  0  0  0  0  0  0  0  0
   23.7868  -21.7471   -9.1778 O   0  0  0  0  0  0  0  0  0  0  0  0
   24.1787  -20.2714  -10.7979 O   0  0  0  0  0  0  0  0  0  0  0  0
  2  1  1  1
  3  2  1  0
  4  6  1  0
  4  2  1  0
  5  4  2  0
  7  6  1  0
  8  7  1  0
  8 15  1  0
  9  8  2  0
 11 10  1  0
 11 12  1  0
 12 14  1  0
 12 13  1  1
 14 15  1  6
 14 16  1  0
 16 17  1  0
 18 16  2  0
M  END
$$$$
