AGI.pdb
     RDKit          3D

 18 17  0  0  1  0  0  0  0  0999 V2000
   25.8219  -17.2298  -18.1480 C   0  0  0  0  0  0  0  0  0  0  0  0
   25.0724  -17.7482  -16.9230 C   0  0  2  0  0  0  0  0  0  0  0  0
   24.5096  -16.6754  -16.1649 N   0  0  0  0  0  0  0  0  0  0  0  0
   26.0417  -18.5597  -16.1401 C   0  0  0  0  0  0  0  0  0  0  0  0
   26.4799  -19.6379  -16.6150 O   0  0  0  0  0  0  0  0  0  0  0  0
   26.5125  -18.1811  -14.8599 N   0  0  0  0  0  0  0  0  0  0  0  0
   27.4445  -18.9959  -14.1090 C   0  0  0  0  0  0  0  0  0  0  0  0
   26.7420  -20.0598  -13.3463 C   0  0  0  0  0  0  0  0  0  0  0  0
   26.9278  -21.2782  -13.6832 O   0  0  0  0  0  0  0  0  0  0  0  0
   25.9698  -20.1089   -7.8131 C   0  0  0  0  0  0  0  0  0  0  0  0
   25.7594  -19.8693   -9.2570 C   0  0  0  0  0  0  0  0  0  0  0  0
   25.8682  -20.9896  -10.2022 C   0  0  2  0  0  0  0  0  0  0  0  0
   27.3278  -21.4472  -10.3236 C   0  0  0  0  0  0  0  0  0  0  0  0
   25.1980  -20.8927  -11.5024 C   0  0  2  0  0  0  0  0  0  0  0  0
   25.8828  -19.8190  -12.2741 N   0  0  0  0  0  0  0  0  0  0  0  0
   23.7657  -20.7573  -11.6186 C   0  0  0  0  0  0  0  0  0  0  0  0
   22.9477  -21.8806  -11.3031 O   0  0  0  0  0  0  0  0  0  0  0  0
   23.0997  -19.7619  -11.9692 O   0  0  0  0  0  0  0  0  0  0  0  0
  2  1  1  6
  3  2  1  0
  4  6  1  0
  4  2  1  0
  5  4  2  0
  7  6  1  0
  8  7  1  0
  8 15  1  0
  9  8  2  0
 11 10  1  0
 11 12  1  0
 12 14  1  0
 12 13  1  6
 14 15  1  1
 14 16  1  0
 16 17  1  0
 18 16  2  0
M  END
$$$$
