IAP.pdb
     RDKit          3D

 21 21  0  0  1  0  0  0  0  0999 V2000
   15.0701  -15.3212  -17.4496 C   0  0  0  0  0  0  0  0  0  0  0  0
   15.4464  -13.8906  -17.7971 C   0  0  0  0  0  0  0  0  0  0  0  0
   16.7841  -13.6013  -17.1555 C   0  0  2  0  0  0  0  0  0  0  0  0
   16.7374  -13.8813  -15.6677 C   0  0  0  0  0  0  0  0  0  0  0  0
   17.3144  -12.2528  -17.4755 C   0  0  2  0  0  0  0  0  0  0  0  0
   17.3235  -12.0504  -18.9244 N   0  0  0  0  0  0  0  0  0  0  0  0
   18.5944  -11.8837  -16.8652 C   0  0  0  0  0  0  0  0  0  0  0  0
   18.7271  -11.9032  -15.6268 O   0  0  0  0  0  0  0  0  0  0  0  0
   21.9173  -10.7767  -18.0998 C   0  0  0  0  0  0  0  0  0  0  0  0
   20.9106  -11.0472  -16.9945 C   0  0  2  0  0  0  0  0  0  0  0  0
   19.7074  -11.4976  -17.6549 N   0  0  0  0  0  0  0  0  0  0  0  0
   20.6620   -9.8363  -16.1795 C   0  0  0  0  0  0  0  0  0  0  0  0
   19.5902   -9.2085  -16.3248 O   0  0  0  0  0  0  0  0  0  0  0  0
   21.6089   -9.3669  -15.2352 N   0  0  0  0  0  0  0  0  0  0  0  0
   22.9327   -9.8904  -14.9812 C   0  0  0  0  0  0  0  0  0  0  0  0
   22.9682   -9.8968  -13.4570 C   0  0  0  0  0  0  0  0  0  0  0  0
   22.0264   -8.7912  -13.0359 C   0  0  0  0  0  0  0  0  0  0  0  0
   21.4465   -8.2598  -14.3241 C   0  0  1  0  0  0  0  0  0  0  0  0
   22.2511   -7.1137  -14.7806 C   0  0  0  0  0  0  0  0  0  0  0  0
   23.0923   -7.1384  -15.7058 O   0  0  0  0  0  0  0  0  0  0  0  0
   22.0965   -5.8608  -14.1535 O   0  0  0  0  0  0  0  0  0  0  0  0
  2  1  1  0
  3  4  1  1
  3  2  1  0
  5  7  1  0
  5  3  1  0
  5  6  1  6
  7 11  1  0
  8  7  2  0
 10  9  1  6
 10 12  1  0
 11 10  1  0
 12 13  2  0
 12 14  1  0
 14 18  1  0
 14 15  1  0
 15 16  1  0
 17 16  1  0
 18 17  1  0
 19 21  1  0
 18 19  1  6
 20 19  2  0
M  END
$$$$
