IAP.pdb
     RDKit          3D

 21 21  0  0  1  0  0  0  0  0999 V2000
   22.4759  -20.0537  -12.2264 C   0  0  0  0  0  0  0  0  0  0  0  0
   23.8738  -20.5546  -12.5486 C   0  0  0  0  0  0  0  0  0  0  0  0
   24.5842  -20.8013  -11.2374 C   0  0  2  0  0  0  0  0  0  0  0  0
   24.5202  -19.5733  -10.3531 C   0  0  0  0  0  0  0  0  0  0  0  0
   25.9623  -21.3269  -11.4010 C   0  0  2  0  0  0  0  0  0  0  0  0
   25.9483  -22.5041  -12.2694 N   0  0  0  0  0  0  0  0  0  0  0  0
   26.7301  -21.5624  -10.1753 C   0  0  0  0  0  0  0  0  0  0  0  0
   26.2456  -22.2462   -9.2538 O   0  0  0  0  0  0  0  0  0  0  0  0
   30.1505  -20.8547   -8.9619 C   0  0  0  0  0  0  0  0  0  0  0  0
   28.6848  -21.1756   -8.7225 C   0  0  2  0  0  0  0  0  0  0  0  0
   28.0316  -21.0262  -10.0023 N   0  0  0  0  0  0  0  0  0  0  0  0
   28.0933  -20.2797   -7.7029 C   0  0  0  0  0  0  0  0  0  0  0  0
   27.1726  -19.4997   -8.0317 O   0  0  0  0  0  0  0  0  0  0  0  0
   28.5431  -20.2814   -6.3589 N   0  0  0  0  0  0  0  0  0  0  0  0
   29.6179  -21.0648   -5.7915 C   0  0  0  0  0  0  0  0  0  0  0  0
   28.9884  -21.5426   -4.4877 C   0  0  0  0  0  0  0  0  0  0  0  0
   27.9730  -20.4814   -4.1279 C   0  0  0  0  0  0  0  0  0  0  0  0
   28.0171  -19.4950   -5.2695 C   0  0  1  0  0  0  0  0  0  0  0  0
   28.9562  -18.4105   -4.9359 C   0  0  0  0  0  0  0  0  0  0  0  0
   28.7033  -17.4298   -4.2020 O   0  0  0  0  0  0  0  0  0  0  0  0
   30.2630  -18.4342   -5.4638 O   0  0  0  0  0  0  0  0  0  0  0  0
  2  1  1  0
  3  4  1  6
  3  2  1  0
  5  7  1  0
  5  3  1  0
  5  6  1  1
  7 11  1  0
  8  7  2  0
 10  9  1  6
 10 12  1  0
 11 10  1  0
 12 13  2  0
 12 14  1  0
 14 18  1  0
 14 15  1  0
 15 16  1  0
 17 16  1  0
 18 17  1  0
 19 21  1  0
 18 19  1  1
 20 19  2  0
M  END
$$$$
