IAP.pdb
     RDKit          3D

 21 21  0  0  1  0  0  0  0  0999 V2000
   14.9571  -12.3817  -15.2425 C   0  0  0  0  0  0  0  0  0  0  0  0
   16.2237  -12.4830  -16.0758 C   0  0  0  0  0  0  0  0  0  0  0  0
   17.1370  -11.3532  -15.6583 C   0  0  2  0  0  0  0  0  0  0  0  0
   16.4406  -10.0166  -15.8095 C   0  0  0  0  0  0  0  0  0  0  0  0
   18.4660  -11.3926  -16.3171 C   0  0  2  0  0  0  0  0  0  0  0  0
   19.0415  -12.7326  -16.2016 N   0  0  0  0  0  0  0  0  0  0  0  0
   19.4248  -10.3525  -15.9346 C   0  0  0  0  0  0  0  0  0  0  0  0
   19.7908  -10.2427  -14.7491 O   0  0  0  0  0  0  0  0  0  0  0  0
   21.6897   -8.0497  -17.6923 C   0  0  0  0  0  0  0  0  0  0  0  0
   20.9062   -8.4506  -16.4538 C   0  0  2  0  0  0  0  0  0  0  0  0
   19.9589   -9.4502  -16.8897 N   0  0  0  0  0  0  0  0  0  0  0  0
   20.2249   -7.2866  -15.8430 C   0  0  0  0  0  0  0  0  0  0  0  0
   18.9871   -7.1630  -15.9721 O   0  0  0  0  0  0  0  0  0  0  0  0
   20.9395   -6.3042  -15.1129 N   0  0  0  0  0  0  0  0  0  0  0  0
   22.3663   -6.2398  -14.8873 C   0  0  0  0  0  0  0  0  0  0  0  0
   22.4227   -5.8857  -13.4055 C   0  0  0  0  0  0  0  0  0  0  0  0
   21.1409   -5.1319  -13.1311 C   0  0  0  0  0  0  0  0  0  0  0  0
   20.3863   -5.1551  -14.4380 C   0  0  1  0  0  0  0  0  0  0  0  0
   20.6958   -3.9315  -15.1973 C   0  0  0  0  0  0  0  0  0  0  0  0
   21.5737   -3.8274  -16.0821 O   0  0  0  0  0  0  0  0  0  0  0  0
   19.9688   -2.7512  -14.9420 O   0  0  0  0  0  0  0  0  0  0  0  0
  2  1  1  0
  3  4  1  6
  3  2  1  0
  5  7  1  0
  5  3  1  0
  5  6  1  1
  7 11  1  0
  8  7  2  0
 10  9  1  6
 10 12  1  0
 11 10  1  0
 12 13  2  0
 12 14  1  0
 14 18  1  0
 14 15  1  0
 15 16  1  0
 17 16  1  0
 18 17  1  0
 19 21  1  0
 18 19  1  6
 20 19  2  0
M  END
$$$$
