IAP.pdb
     RDKit          3D

 21 21  0  0  1  0  0  0  0  0999 V2000
   25.8598  -21.3164   -8.4793 C   0  0  0  0  0  0  0  0  0  0  0  0
   24.9891  -20.3971   -9.3193 C   0  0  0  0  0  0  0  0  0  0  0  0
   25.4019  -20.5701  -10.7631 C   0  0  2  0  0  0  0  0  0  0  0  0
   26.9070  -20.4778  -10.9056 C   0  0  0  0  0  0  0  0  0  0  0  0
   24.6749  -19.6755  -11.6975 C   0  0  2  0  0  0  0  0  0  0  0  0
   23.2332  -19.8938  -11.5785 N   0  0  0  0  0  0  0  0  0  0  0  0
   25.1139  -19.6820  -13.0955 C   0  0  0  0  0  0  0  0  0  0  0  0
   24.7056  -20.5622  -13.8766 O   0  0  0  0  0  0  0  0  0  0  0  0
   27.1670  -17.4586  -15.2434 C   0  0  0  0  0  0  0  0  0  0  0  0
   26.3401  -18.7100  -15.0016 C   0  0  2  0  0  0  0  0  0  0  0  0
   26.0055  -18.6993  -13.5963 N   0  0  0  0  0  0  0  0  0  0  0  0
   27.0870  -19.9333  -15.3727 C   0  0  0  0  0  0  0  0  0  0  0  0
   27.6654  -20.5930  -14.4815 O   0  0  0  0  0  0  0  0  0  0  0  0
   27.1650  -20.3796  -16.7157 N   0  0  0  0  0  0  0  0  0  0  0  0
   26.6189  -19.7365  -17.8901 C   0  0  0  0  0  0  0  0  0  0  0  0
   26.0051  -20.9220  -18.6264 C   0  0  0  0  0  0  0  0  0  0  0  0
   26.8250  -22.1188  -18.1996 C   0  0  0  0  0  0  0  0  0  0  0  0
   27.8112  -21.5782  -17.1929 C   0  0  1  0  0  0  0  0  0  0  0  0
   29.0652  -21.2302  -17.8827 C   0  0  0  0  0  0  0  0  0  0  0  0
   29.3330  -20.1173  -18.3868 O   0  0  0  0  0  0  0  0  0  0  0  0
   30.0808  -22.1990  -18.0116 O   0  0  0  0  0  0  0  0  0  0  0  0
  2  1  1  0
  3  4  1  1
  3  2  1  0
  5  7  1  0
  5  3  1  0
  5  6  1  6
  7 11  1  0
  8  7  2  0
 10  9  1  1
 10 12  1  0
 11 10  1  0
 12 13  2  0
 12 14  1  0
 14 18  1  0
 14 15  1  0
 15 16  1  0
 17 16  1  0
 18 17  1  0
 19 21  1  0
 18 19  1  6
 20 19  2  0
M  END
$$$$
