IAP.pdb
     RDKit          3D

 21 21  0  0  1  0  0  0  0  0999 V2000
   17.5174  -17.7077  -14.6918 C   0  0  0  0  0  0  0  0  0  0  0  0
   18.1783  -18.9190  -15.3281 C   0  0  0  0  0  0  0  0  0  0  0  0
   19.4174  -19.2388  -14.5237 C   0  0  2  0  0  0  0  0  0  0  0  0
   20.6223  -18.5104  -15.0820 C   0  0  0  0  0  0  0  0  0  0  0  0
   19.6494  -20.6939  -14.3479 C   0  0  2  0  0  0  0  0  0  0  0  0
   18.5315  -21.2937  -13.6193 N   0  0  0  0  0  0  0  0  0  0  0  0
   20.9430  -21.0944  -13.7880 C   0  0  0  0  0  0  0  0  0  0  0  0
   21.1905  -20.9028  -12.5824 O   0  0  0  0  0  0  0  0  0  0  0  0
   23.7116  -23.2719  -14.6792 C   0  0  0  0  0  0  0  0  0  0  0  0
   23.2263  -22.0007  -14.0031 C   0  0  2  0  0  0  0  0  0  0  0  0
   21.9403  -21.7046  -14.5908 N   0  0  0  0  0  0  0  0  0  0  0  0
   24.1812  -20.8857  -14.1959 C   0  0  0  0  0  0  0  0  0  0  0  0
   23.8193  -19.8711  -14.8313 O   0  0  0  0  0  0  0  0  0  0  0  0
   25.4996  -20.9364  -13.6783 N   0  0  0  0  0  0  0  0  0  0  0  0
   26.1119  -22.0138  -12.9333 C   0  0  0  0  0  0  0  0  0  0  0  0
   26.8194  -21.2485  -11.8206 C   0  0  0  0  0  0  0  0  0  0  0  0
   27.1211  -19.8881  -12.4077 C   0  0  0  0  0  0  0  0  0  0  0  0
   26.5123  -19.9145  -13.7886 C   0  0  1  0  0  0  0  0  0  0  0  0
   27.5375  -20.3286  -14.7617 C   0  0  0  0  0  0  0  0  0  0  0  0
   27.7156  -21.4944  -15.1783 O   0  0  0  0  0  0  0  0  0  0  0  0
   28.4169  -19.3666  -15.2983 O   0  0  0  0  0  0  0  0  0  0  0  0
  2  1  1  0
  3  4  1  6
  3  2  1  0
  5  7  1  0
  5  3  1  0
  5  6  1  1
  7 11  1  0
  8  7  2  0
 10  9  1  6
 10 12  1  0
 11 10  1  0
 12 13  2  0
 12 14  1  0
 14 18  1  0
 14 15  1  0
 15 16  1  0
 17 16  1  0
 18 17  1  0
 19 21  1  0
 18 19  1  6
 20 19  2  0
M  END
$$$$
