IAP.pdb
     RDKit          3D

 21 21  0  0  1  0  0  0  0  0999 V2000
   28.5199  -19.1297   -4.2329 C   0  0  0  0  0  0  0  0  0  0  0  0
   27.1653  -19.6448   -4.6897 C   0  0  0  0  0  0  0  0  0  0  0  0
   27.2510  -19.8989   -6.1773 C   0  0  2  0  0  0  0  0  0  0  0  0
   27.8056  -18.6874   -6.8975 C   0  0  0  0  0  0  0  0  0  0  0  0
   25.9823  -20.3938   -6.7669 C   0  0  2  0  0  0  0  0  0  0  0  0
   25.3892  -21.4089   -5.8963 N   0  0  0  0  0  0  0  0  0  0  0  0
   26.0296  -20.8334   -8.1640 C   0  0  0  0  0  0  0  0  0  0  0  0
   26.8822  -21.6640   -8.5312 O   0  0  0  0  0  0  0  0  0  0  0  0
   23.8011  -20.8448  -11.0277 C   0  0  0  0  0  0  0  0  0  0  0  0
   25.2228  -20.7945  -10.4939 C   0  0  2  0  0  0  0  0  0  0  0  0
   25.1182  -20.3336   -9.1288 N   0  0  0  0  0  0  0  0  0  0  0  0
   26.0754  -19.8972  -11.3063 C   0  0  0  0  0  0  0  0  0  0  0  0
   26.3836  -18.7714  -10.8572 O   0  0  0  0  0  0  0  0  0  0  0  0
   26.5540  -20.2801  -12.5842 N   0  0  0  0  0  0  0  0  0  0  0  0
   26.2422  -21.4881  -13.3153 C   0  0  0  0  0  0  0  0  0  0  0  0
   27.6191  -21.8954  -13.8278 C   0  0  0  0  0  0  0  0  0  0  0  0
   28.3949  -20.6027  -13.9441 C   0  0  0  0  0  0  0  0  0  0  0  0
   27.4590  -19.5372  -13.4274 C   0  0  1  0  0  0  0  0  0  0  0  0
   26.7212  -18.9508  -14.5593 C   0  0  0  0  0  0  0  0  0  0  0  0
   27.1616  -18.0794  -15.3410 O   0  0  0  0  0  0  0  0  0  0  0  0
   25.4036  -19.3746  -14.8259 O   0  0  0  0  0  0  0  0  0  0  0  0
  2  1  1  0
  3  4  1  6
  3  2  1  0
  5  7  1  0
  5  3  1  0
  5  6  1  1
  7 11  1  0
  8  7  2  0
 10  9  1  6
 10 12  1  0
 11 10  1  0
 12 13  2  0
 12 14  1  0
 14 18  1  0
 14 15  1  0
 15 16  1  0
 17 16  1  0
 18 17  1  0
 19 21  1  0
 18 19  1  6
 20 19  2  0
M  END
$$$$
