IAP.pdb
     RDKit          3D

 21 21  0  0  1  0  0  0  0  0999 V2000
   25.2645  -21.1687   -8.1826 C   0  0  0  0  0  0  0  0  0  0  0  0
   24.1025  -21.0206   -9.1505 C   0  0  0  0  0  0  0  0  0  0  0  0
   24.6778  -20.9395  -10.5459 C   0  0  2  0  0  0  0  0  0  0  0  0
   25.7716  -19.8941  -10.6155 C   0  0  0  0  0  0  0  0  0  0  0  0
   23.6481  -20.7727  -11.6014 C   0  0  2  0  0  0  0  0  0  0  0  0
   22.5856  -21.7626  -11.4240 N   0  0  0  0  0  0  0  0  0  0  0  0
   24.1231  -20.7247  -12.9869 C   0  0  0  0  0  0  0  0  0  0  0  0
   24.9750  -21.5410  -13.3860 O   0  0  0  0  0  0  0  0  0  0  0  0
   22.9982  -19.4828  -16.1672 C   0  0  0  0  0  0  0  0  0  0  0  0
   24.1782  -19.7287  -15.2421 C   0  0  2  0  0  0  0  0  0  0  0  0
   23.6340  -19.7600  -13.9043 N   0  0  0  0  0  0  0  0  0  0  0  0
   25.2079  -18.6745  -15.3851 C   0  0  0  0  0  0  0  0  0  0  0  0
   25.3186  -17.8007  -14.4972 O   0  0  0  0  0  0  0  0  0  0  0  0
   26.0755  -18.6278  -16.5048 N   0  0  0  0  0  0  0  0  0  0  0  0
   26.0365  -19.4638  -17.6840 C   0  0  0  0  0  0  0  0  0  0  0  0
   27.5127  -19.7980  -17.8670 C   0  0  0  0  0  0  0  0  0  0  0  0
   28.2593  -18.6303  -17.2621 C   0  0  0  0  0  0  0  0  0  0  0  0
   27.1866  -17.7285  -16.7015 C   0  0  1  0  0  0  0  0  0  0  0  0
   26.8353  -16.7113  -17.7072 C   0  0  0  0  0  0  0  0  0  0  0  0
   27.4814  -15.6660  -17.9404 O   0  0  0  0  0  0  0  0  0  0  0  0
   25.6825  -16.8846  -18.4994 O   0  0  0  0  0  0  0  0  0  0  0  0
  2  1  1  0
  3  4  1  1
  3  2  1  0
  5  7  1  0
  5  3  1  0
  5  6  1  6
  7 11  1  0
  8  7  2  0
 10  9  1  6
 10 12  1  0
 11 10  1  0
 12 13  2  0
 12 14  1  0
 14 18  1  0
 14 15  1  0
 15 16  1  0
 17 16  1  0
 18 17  1  0
 19 21  1  0
 18 19  1  6
 20 19  2  0
M  END
$$$$
