IAP.pdb
     RDKit          3D

 21 21  0  0  1  0  0  0  0  0999 V2000
   25.3538  -14.2745  -19.5443 C   0  0  0  0  0  0  0  0  0  0  0  0
   25.2438  -14.3683  -18.0317 C   0  0  0  0  0  0  0  0  0  0  0  0
   24.1569  -13.4140  -17.5925 C   0  0  2  0  0  0  0  0  0  0  0  0
   24.3948  -12.0310  -18.1624 C   0  0  0  0  0  0  0  0  0  0  0  0
   23.9337  -13.4063  -16.1255 C   0  0  2  0  0  0  0  0  0  0  0  0
   23.8035  -14.7776  -15.6326 N   0  0  0  0  0  0  0  0  0  0  0  0
   22.8615  -12.5424  -15.6242 C   0  0  0  0  0  0  0  0  0  0  0  0
   21.6920  -12.6993  -16.0231 O   0  0  0  0  0  0  0  0  0  0  0  0
   22.3476  -10.1988  -12.8716 C   0  0  0  0  0  0  0  0  0  0  0  0
   22.0393  -10.6359  -14.2936 C   0  0  2  0  0  0  0  0  0  0  0  0
   23.1185  -11.5142  -14.6818 N   0  0  0  0  0  0  0  0  0  0  0  0
   21.9291   -9.4748  -15.2058 C   0  0  0  0  0  0  0  0  0  0  0  0
   22.8836   -9.1987  -15.9652 O   0  0  0  0  0  0  0  0  0  0  0  0
   20.7672   -8.6642  -15.2424 N   0  0  0  0  0  0  0  0  0  0  0  0
   19.6125   -8.7412  -14.3755 C   0  0  0  0  0  0  0  0  0  0  0  0
   18.4718   -8.6082  -15.3782 C   0  0  0  0  0  0  0  0  0  0  0  0
   19.0459   -7.8064  -16.5246 C   0  0  0  0  0  0  0  0  0  0  0  0
   20.4938   -7.5849  -16.1603 C   0  0  1  0  0  0  0  0  0  0  0  0
   20.6260   -6.2923  -15.4668 C   0  0  0  0  0  0  0  0  0  0  0  0
   20.7410   -6.1388  -14.2308 O   0  0  0  0  0  0  0  0  0  0  0  0
   20.6286   -5.0978  -16.2151 O   0  0  0  0  0  0  0  0  0  0  0  0
  2  1  1  0
  3  4  1  1
  3  2  1  0
  5  7  1  0
  5  3  1  0
  5  6  1  6
  7 11  1  0
  8  7  2  0
 10  9  1  1
 10 12  1  0
 11 10  1  0
 12 13  2  0
 12 14  1  0
 14 18  1  0
 14 15  1  0
 15 16  1  0
 17 16  1  0
 18 17  1  0
 19 21  1  0
 18 19  1  1
 20 19  2  0
M  END
$$$$
