IAP.pdb
     RDKit          3D

 21 21  0  0  1  0  0  0  0  0999 V2000
   17.7592  -15.1422  -16.4321 C   0  0  0  0  0  0  0  0  0  0  0  0
   17.1924  -13.8009  -15.9978 C   0  0  0  0  0  0  0  0  0  0  0  0
   18.2716  -12.7620  -16.1997 C   0  0  2  0  0  0  0  0  0  0  0  0
   19.5547  -13.1805  -15.5122 C   0  0  0  0  0  0  0  0  0  0  0  0
   17.8435  -11.3870  -15.8415 C   0  0  2  0  0  0  0  0  0  0  0  0
   16.6167  -11.0424  -16.5603 N   0  0  0  0  0  0  0  0  0  0  0  0
   18.8535  -10.3308  -15.9489 C   0  0  0  0  0  0  0  0  0  0  0  0
   19.8464  -10.3342  -15.1968 O   0  0  0  0  0  0  0  0  0  0  0  0
   19.5431   -7.5298  -18.2651 C   0  0  0  0  0  0  0  0  0  0  0  0
   19.7605   -8.2710  -16.9568 C   0  0  2  0  0  0  0  0  0  0  0  0
   18.7338   -9.2856  -16.9001 N   0  0  0  0  0  0  0  0  0  0  0  0
   19.6839   -7.3554  -15.7958 C   0  0  0  0  0  0  0  0  0  0  0  0
   18.6725   -7.3803  -15.0606 O   0  0  0  0  0  0  0  0  0  0  0  0
   20.7294   -6.4475  -15.4931 N   0  0  0  0  0  0  0  0  0  0  0  0
   21.9558   -6.2398  -16.2305 C   0  0  0  0  0  0  0  0  0  0  0  0
   22.9797   -6.1758  -15.1028 C   0  0  0  0  0  0  0  0  0  0  0  0
   22.2136   -5.6661  -13.9028 C   0  0  0  0  0  0  0  0  0  0  0  0
   20.7866   -5.5349  -14.3770 C   0  0  1  0  0  0  0  0  0  0  0  0
   20.5568   -4.1572  -14.8445 C   0  0  0  0  0  0  0  0  0  0  0  0
   20.6004   -3.7767  -16.0351 O   0  0  0  0  0  0  0  0  0  0  0  0
   20.2590   -3.1454  -13.9095 O   0  0  0  0  0  0  0  0  0  0  0  0
  2  1  1  0
  3  4  1  1
  3  2  1  0
  5  7  1  0
  5  3  1  0
  5  6  1  6
  7 11  1  0
  8  7  2  0
 10  9  1  6
 10 12  1  0
 11 10  1  0
 12 13  2  0
 12 14  1  0
 14 18  1  0
 14 15  1  0
 15 16  1  0
 17 16  1  0
 18 17  1  0
 19 21  1  0
 18 19  1  6
 20 19  2  0
M  END
$$$$
