IAP.pdb
     RDKit          3D

 21 21  0  0  1  0  0  0  0  0999 V2000
   27.3306  -20.5803  -14.9557 C   0  0  0  0  0  0  0  0  0  0  0  0
   26.2142  -21.0826  -14.0555 C   0  0  0  0  0  0  0  0  0  0  0  0
   26.4160  -20.4663  -12.6901 C   0  0  2  0  0  0  0  0  0  0  0  0
   27.8404  -20.6669  -12.2160 C   0  0  0  0  0  0  0  0  0  0  0  0
   25.4062  -20.8970  -11.6916 C   0  0  2  0  0  0  0  0  0  0  0  0
   24.0598  -20.7336  -12.2400 N   0  0  0  0  0  0  0  0  0  0  0  0
   25.5205  -20.3260  -10.3469 C   0  0  0  0  0  0  0  0  0  0  0  0
   25.3500  -19.1052  -10.1678 O   0  0  0  0  0  0  0  0  0  0  0  0
   25.0891  -21.2759   -6.9773 C   0  0  0  0  0  0  0  0  0  0  0  0
   25.9858  -20.5058   -7.9319 C   0  0  2  0  0  0  0  0  0  0  0  0
   25.8248  -21.1348   -9.2223 N   0  0  0  0  0  0  0  0  0  0  0  0
   27.3981  -20.5307   -7.4880 C   0  0  0  0  0  0  0  0  0  0  0  0
   28.2424  -21.1591   -8.1635 O   0  0  0  0  0  0  0  0  0  0  0  0
   27.8216  -19.8593   -6.3139 N   0  0  0  0  0  0  0  0  0  0  0  0
   27.0255  -19.0257   -5.4408 C   0  0  0  0  0  0  0  0  0  0  0  0
   27.9686  -17.8522   -5.2001 C   0  0  0  0  0  0  0  0  0  0  0  0
   29.3592  -18.4263   -5.3523 C   0  0  0  0  0  0  0  0  0  0  0  0
   29.1462  -19.8689   -5.7419 C   0  0  1  0  0  0  0  0  0  0  0  0
   29.1619  -20.7050   -4.5294 C   0  0  0  0  0  0  0  0  0  0  0  0
   30.1824  -21.0294   -3.8830 O   0  0  0  0  0  0  0  0  0  0  0  0
   27.9497  -21.2065   -4.0139 O   0  0  0  0  0  0  0  0  0  0  0  0
  2  1  1  0
  3  4  1  1
  3  2  1  0
  5  7  1  0
  5  3  1  0
  5  6  1  6
  7 11  1  0
  8  7  2  0
 10  9  1  1
 10 12  1  0
 11 10  1  0
 12 13  2  0
 12 14  1  0
 14 18  1  0
 14 15  1  0
 15 16  1  0
 17 16  1  0
 18 17  1  0
 19 21  1  0
 18 19  1  1
 20 19  2  0
M  END
$$$$
