IAP.pdb
     RDKit          3D

 21 21  0  0  1  0  0  0  0  0999 V2000
   26.5834  -20.3479   -5.8220 C   0  0  0  0  0  0  0  0  0  0  0  0
   25.6325  -20.0921   -6.9793 C   0  0  0  0  0  0  0  0  0  0  0  0
   26.3951  -20.3397   -8.2606 C   0  0  2  0  0  0  0  0  0  0  0  0
   27.7314  -19.6271   -8.2359 C   0  0  0  0  0  0  0  0  0  0  0  0
   25.6062  -20.0506   -9.4838 C   0  0  2  0  0  0  0  0  0  0  0  0
   24.3485  -20.7973   -9.4553 N   0  0  0  0  0  0  0  0  0  0  0  0
   26.2984  -20.1969  -10.7671 C   0  0  0  0  0  0  0  0  0  0  0  0
   27.3231  -19.5303  -11.0061 O   0  0  0  0  0  0  0  0  0  0  0  0
   25.9377  -22.2668  -13.8145 C   0  0  0  0  0  0  0  0  0  0  0  0
   26.3821  -21.0042  -13.0957 C   0  0  2  0  0  0  0  0  0  0  0  0
   25.8295  -21.0903  -11.7638 N   0  0  0  0  0  0  0  0  0  0  0  0
   25.9163  -19.7875  -13.7993 C   0  0  0  0  0  0  0  0  0  0  0  0
   24.9490  -19.1438  -13.3366 O   0  0  0  0  0  0  0  0  0  0  0  0
   26.5388  -19.3300  -14.9875 N   0  0  0  0  0  0  0  0  0  0  0  0
   27.6379  -19.9446  -15.6982 C   0  0  0  0  0  0  0  0  0  0  0  0
   28.5098  -18.7341  -16.0125 C   0  0  0  0  0  0  0  0  0  0  0  0
   27.5517  -17.5664  -16.0859 C   0  0  0  0  0  0  0  0  0  0  0  0
   26.2016  -18.1462  -15.7404 C   0  0  1  0  0  0  0  0  0  0  0  0
   25.5051  -18.5240  -16.9820 C   0  0  0  0  0  0  0  0  0  0  0  0
   25.4703  -19.6728  -17.4753 O   0  0  0  0  0  0  0  0  0  0  0  0
   24.8038  -17.5437  -17.7127 O   0  0  0  0  0  0  0  0  0  0  0  0
  2  1  1  0
  3  4  1  1
  3  2  1  0
  5  7  1  0
  5  3  1  0
  5  6  1  6
  7 11  1  0
  8  7  2  0
 10  9  1  6
 10 12  1  0
 11 10  1  0
 12 13  2  0
 12 14  1  0
 14 18  1  0
 14 15  1  0
 15 16  1  0
 17 16  1  0
 18 17  1  0
 19 21  1  0
 18 19  1  6
 20 19  2  0
M  END
$$$$
