IAP.pdb
     RDKit          3D

 21 21  0  0  1  0  0  0  0  0999 V2000
   14.7556  -11.9329  -14.9625 C   0  0  0  0  0  0  0  0  0  0  0  0
   15.9187  -12.0864  -15.9281 C   0  0  0  0  0  0  0  0  0  0  0  0
   16.9537  -11.0459  -15.5659 C   0  0  2  0  0  0  0  0  0  0  0  0
   16.3413   -9.6606  -15.5564 C   0  0  0  0  0  0  0  0  0  0  0  0
   18.1879  -11.1289  -16.3855 C   0  0  2  0  0  0  0  0  0  0  0  0
   18.7138  -12.4938  -16.3602 N   0  0  0  0  0  0  0  0  0  0  0  0
   19.2314  -10.1372  -16.1118 C   0  0  0  0  0  0  0  0  0  0  0  0
   19.8165  -10.1302  -15.0122 O   0  0  0  0  0  0  0  0  0  0  0  0
   21.1211   -7.6211  -18.0292 C   0  0  0  0  0  0  0  0  0  0  0  0
   20.5726   -8.1586  -16.7182 C   0  0  2  0  0  0  0  0  0  0  0  0
   19.6028   -9.1671  -17.0775 N   0  0  0  0  0  0  0  0  0  0  0  0
   19.9615   -7.0830  -15.9047 C   0  0  0  0  0  0  0  0  0  0  0  0
   18.7156   -6.9949  -15.8405 O   0  0  0  0  0  0  0  0  0  0  0  0
   20.7525   -6.1463  -15.1937 N   0  0  0  0  0  0  0  0  0  0  0  0
   22.1952   -6.0504  -15.1703 C   0  0  0  0  0  0  0  0  0  0  0  0
   22.4600   -5.8324  -13.6848 C   0  0  0  0  0  0  0  0  0  0  0  0
   21.2152   -5.1548  -13.1576 C   0  0  0  0  0  0  0  0  0  0  0  0
   20.2778   -5.0854  -14.3386 C   0  0  1  0  0  0  0  0  0  0  0  0
   20.4444   -3.7865  -15.0129 C   0  0  0  0  0  0  0  0  0  0  0  0
   21.1538   -3.5766  -16.0214 O   0  0  0  0  0  0  0  0  0  0  0  0
   19.7678   -2.6533  -14.5180 O   0  0  0  0  0  0  0  0  0  0  0  0
  2  1  1  0
  3  4  1  6
  3  2  1  0
  5  7  1  0
  5  3  1  0
  5  6  1  1
  7 11  1  0
  8  7  2  0
 10  9  1  6
 10 12  1  0
 11 10  1  0
 12 13  2  0
 12 14  1  0
 14 18  1  0
 14 15  1  0
 15 16  1  0
 17 16  1  0
 18 17  1  0
 19 21  1  0
 18 19  1  6
 20 19  2  0
M  END
$$$$
