IAP.pdb
     RDKit          3D

 21 21  0  0  1  0  0  0  0  0999 V2000
   19.2205  -18.0298  -16.1512 C   0  0  0  0  0  0  0  0  0  0  0  0
   19.8661  -19.3493  -16.5397 C   0  0  0  0  0  0  0  0  0  0  0  0
   21.3453  -19.2373  -16.2496 C   0  0  2  0  0  0  0  0  0  0  0  0
   22.1206  -18.9492  -17.5185 C   0  0  0  0  0  0  0  0  0  0  0  0
   21.8876  -20.3893  -15.4874 C   0  0  2  0  0  0  0  0  0  0  0  0
   21.2053  -20.5012  -14.1982 N   0  0  0  0  0  0  0  0  0  0  0  0
   23.3440  -20.4590  -15.3416 C   0  0  0  0  0  0  0  0  0  0  0  0
   23.9434  -19.6291  -14.6320 O   0  0  0  0  0  0  0  0  0  0  0  0
   26.0215  -22.8349  -16.2082 C   0  0  0  0  0  0  0  0  0  0  0  0
   25.5462  -21.4297  -15.8797 C   0  0  2  0  0  0  0  0  0  0  0  0
   24.1066  -21.4604  -15.9952 N   0  0  0  0  0  0  0  0  0  0  0  0
   26.1430  -20.4284  -16.7926 C   0  0  0  0  0  0  0  0  0  0  0  0
   25.4118  -19.8375  -17.6174 O   0  0  0  0  0  0  0  0  0  0  0  0
   27.5258  -20.1194  -16.7577 N   0  0  0  0  0  0  0  0  0  0  0  0
   28.5418  -20.7229  -15.9243 C   0  0  0  0  0  0  0  0  0  0  0  0
   29.3191  -19.4968  -15.4589 C   0  0  0  0  0  0  0  0  0  0  0  0
   29.1364  -18.4737  -16.5573 C   0  0  0  0  0  0  0  0  0  0  0  0
   28.2117  -19.1303  -17.5533 C   0  0  1  0  0  0  0  0  0  0  0  0
   29.0148  -19.7944  -18.5943 C   0  0  0  0  0  0  0  0  0  0  0  0
   29.2724  -21.0173  -18.6442 O   0  0  0  0  0  0  0  0  0  0  0  0
   29.5615  -19.0303  -19.6450 O   0  0  0  0  0  0  0  0  0  0  0  0
  2  1  1  0
  3  4  1  6
  3  2  1  0
  5  7  1  0
  5  3  1  0
  5  6  1  1
  7 11  1  0
  8  7  2  0
 10  9  1  6
 10 12  1  0
 11 10  1  0
 12 13  2  0
 12 14  1  0
 14 18  1  0
 14 15  1  0
 15 16  1  0
 17 16  1  0
 18 17  1  0
 19 21  1  0
 18 19  1  6
 20 19  2  0
M  END
$$$$
