IAP.pdb
     RDKit          3D

 21 21  0  0  1  0  0  0  0  0999 V2000
   14.3986  -11.7736  -16.2086 C   0  0  0  0  0  0  0  0  0  0  0  0
   15.7461  -12.2543  -16.7205 C   0  0  0  0  0  0  0  0  0  0  0  0
   16.8057  -11.3454  -16.1409 C   0  0  2  0  0  0  0  0  0  0  0  0
   16.5420   -9.9031  -16.5212 C   0  0  0  0  0  0  0  0  0  0  0  0
   18.1908  -11.7817  -16.4463 C   0  0  2  0  0  0  0  0  0  0  0  0
   18.3565  -13.1945  -16.1046 N   0  0  0  0  0  0  0  0  0  0  0  0
   19.2772  -10.9592  -15.9074 C   0  0  0  0  0  0  0  0  0  0  0  0
   19.4073  -10.8209  -14.6763 O   0  0  0  0  0  0  0  0  0  0  0  0
   22.3143   -9.3181  -17.1713 C   0  0  0  0  0  0  0  0  0  0  0  0
   21.1663   -9.3976  -16.1792 C   0  0  2  0  0  0  0  0  0  0  0  0
   20.2023  -10.3035  -16.7594 N   0  0  0  0  0  0  0  0  0  0  0  0
   20.5749   -8.0639  -15.9265 C   0  0  0  0  0  0  0  0  0  0  0  0
   19.4864   -7.7638  -16.4643 O   0  0  0  0  0  0  0  0  0  0  0  0
   21.2107   -7.1139  -15.0887 N   0  0  0  0  0  0  0  0  0  0  0  0
   22.4552   -7.2684  -14.3689 C   0  0  0  0  0  0  0  0  0  0  0  0
   22.0945   -6.6777  -13.0105 C   0  0  0  0  0  0  0  0  0  0  0  0
   21.0037   -5.6700  -13.2957 C   0  0  0  0  0  0  0  0  0  0  0  0
   20.7435   -5.7845  -14.7781 C   0  0  1  0  0  0  0  0  0  0  0  0
   21.5601   -4.7875  -15.4912 C   0  0  0  0  0  0  0  0  0  0  0  0
   22.6585   -5.0103  -16.0464 O   0  0  0  0  0  0  0  0  0  0  0  0
   21.1088   -3.4554  -15.5835 O   0  0  0  0  0  0  0  0  0  0  0  0
  2  1  1  0
  3  4  1  6
  3  2  1  0
  5  7  1  0
  5  3  1  0
  5  6  1  1
  7 11  1  0
  8  7  2  0
 10  9  1  6
 10 12  1  0
 11 10  1  0
 12 13  2  0
 12 14  1  0
 14 18  1  0
 14 15  1  0
 15 16  1  0
 17 16  1  0
 18 17  1  0
 19 21  1  0
 18 19  1  6
 20 19  2  0
M  END
$$$$
