EMV.pdb
     RDKit          3D

 25 24  0  0  1  0  0  0  0  0999 V2000
   27.1744  -17.6795  -15.2502 N   0  0  0  0  0  0  0  0  0  0  0  0
   26.1835  -18.3292  -16.0674 C   0  0  1  0  0  0  0  0  0  0  0  0
   26.8000  -18.7152  -17.3851 C   0  0  0  0  0  0  0  0  0  0  0  0
   27.7252  -17.6687  -17.8761 C   0  0  0  0  0  0  0  0  0  0  0  0
   29.0482  -18.2354  -18.1921 C   0  0  0  0  0  0  0  0  0  0  0  0
   30.1016  -17.9142  -17.5761 O   0  0  0  0  0  0  0  0  0  0  0  0
   25.7062  -19.5780  -15.4347 C   0  0  0  0  0  0  0  0  0  0  0  0
   25.2673  -20.4959  -16.1485 O   0  0  0  0  0  0  0  0  0  0  0  0
   29.1115  -19.1790  -19.2364 O   0  0  0  0  0  0  0  0  0  0  0  0
   25.7810  -21.7481   -9.0836 C   0  0  0  0  0  0  0  0  0  0  0  0
   25.7809  -19.9715   -9.4959 S   0  0  0  0  0  0  0  0  0  0  0  0
   25.1722  -19.7745  -11.1795 C   0  0  0  0  0  0  0  0  0  0  0  0
   25.6274  -20.9684  -12.0249 C   0  0  0  0  0  0  0  0  0  0  0  0
   25.0346  -20.7809  -13.3960 C   0  0  2  0  0  0  0  0  0  0  0  0
   25.7521  -19.7121  -14.0456 N   0  0  0  0  0  0  0  0  0  0  0  0
   23.6030  -20.4568  -13.3670 C   0  0  0  0  0  0  0  0  0  0  0  0
   23.2239  -19.3152  -13.0089 O   0  0  0  0  0  0  0  0  0  0  0  0
   21.1107  -19.9415  -15.8899 C   0  0  0  0  0  0  0  0  0  0  0  0
   20.5197  -20.9697  -14.9738 C   0  0  1  0  0  0  0  0  0  0  0  0
   20.4906  -22.2851  -15.7008 C   0  0  0  0  0  0  0  0  0  0  0  0
   21.1850  -21.0308  -13.6380 C   0  0  2  0  0  0  0  0  0  0  0  0
   22.5874  -21.3871  -13.7309 N   0  0  0  0  0  0  0  0  0  0  0  0
   20.4701  -21.9921  -12.7218 C   0  0  0  0  0  0  0  0  0  0  0  0
   19.2035  -21.6987  -12.2270 O   0  0  0  0  0  0  0  0  0  0  0  0
   20.9842  -23.0800  -12.3746 O   0  0  0  0  0  0  0  0  0  0  0  0
  2  1  1  1
  3  2  1  0
  4  3  1  0
  5  4  1  0
  6  5  2  0
  7  8  2  0
  7  2  1  0
  9  5  1  0
 11 10  1  0
 11 12  1  0
 12 13  1  0
 14 13  1  1
 14 15  1  0
 15  7  1  0
 16 22  1  0
 16 14  1  0
 17 16  2  0
 19 18  1  6
 19 21  1  0
 20 19  1  0
 21 22  1  6
 21 23  1  0
 23 24  1  0
 25 23  2  0
M  END
$$$$
