EMV.pdb
     RDKit          3D

 25 24  0  0  1  0  0  0  0  0999 V2000
   15.9768  -10.4064  -16.7787 N   0  0  0  0  0  0  0  0  0  0  0  0
   16.8701  -10.9210  -15.7742 C   0  0  1  0  0  0  0  0  0  0  0  0
   17.1910  -12.3588  -16.0827 C   0  0  0  0  0  0  0  0  0  0  0  0
   15.9908  -13.2177  -15.9649 C   0  0  0  0  0  0  0  0  0  0  0  0
   15.5228  -13.2879  -14.5694 C   0  0  0  0  0  0  0  0  0  0  0  0
   14.5355  -12.6307  -14.1387 O   0  0  0  0  0  0  0  0  0  0  0  0
   18.1532  -10.1853  -15.7745 C   0  0  0  0  0  0  0  0  0  0  0  0
   19.1041  -10.6144  -15.0989 O   0  0  0  0  0  0  0  0  0  0  0  0
   16.2295  -14.1376  -13.6956 O   0  0  0  0  0  0  0  0  0  0  0  0
   21.6155   -6.9718  -20.4570 C   0  0  0  0  0  0  0  0  0  0  0  0
   20.3081   -8.2417  -20.5243 S   0  0  0  0  0  0  0  0  0  0  0  0
   20.0406   -8.8767  -18.8603 C   0  0  0  0  0  0  0  0  0  0  0  0
   19.7093   -7.7121  -17.9215 C   0  0  0  0  0  0  0  0  0  0  0  0
   19.5321   -8.2994  -16.5467 C   0  0  2  0  0  0  0  0  0  0  0  0
   18.2825   -9.0187  -16.5307 N   0  0  0  0  0  0  0  0  0  0  0  0
   19.5232   -7.2875  -15.4830 C   0  0  0  0  0  0  0  0  0  0  0  0
   18.4622   -6.6779  -15.2040 O   0  0  0  0  0  0  0  0  0  0  0  0
   19.9465   -7.5656  -11.8930 C   0  0  0  0  0  0  0  0  0  0  0  0
   20.9140   -6.5071  -12.3284 C   0  0  1  0  0  0  0  0  0  0  0  0
   22.3057   -7.0591  -12.1939 C   0  0  0  0  0  0  0  0  0  0  0  0
   20.6137   -5.9440  -13.6787 C   0  0  2  0  0  0  0  0  0  0  0  0
   20.6802   -6.9447  -14.7259 N   0  0  0  0  0  0  0  0  0  0  0  0
   21.5383   -4.7977  -14.0039 C   0  0  0  0  0  0  0  0  0  0  0  0
   21.4977   -3.6172  -13.2691 O   0  0  0  0  0  0  0  0  0  0  0  0
   22.3692   -4.8638  -14.9386 O   0  0  0  0  0  0  0  0  0  0  0  0
  2  1  1  6
  3  2  1  0
  4  3  1  0
  5  4  1  0
  6  5  2  0
  7  8  2  0
  7  2  1  0
  9  5  1  0
 11 10  1  0
 11 12  1  0
 12 13  1  0
 14 13  1  6
 14 15  1  0
 15  7  1  0
 16 22  1  0
 16 14  1  0
 17 16  2  0
 19 18  1  6
 19 21  1  0
 20 19  1  0
 21 22  1  6
 21 23  1  0
 23 24  1  0
 25 23  2  0
M  END
$$$$
