EMV.pdb
     RDKit          3D

 25 24  0  0  1  0  0  0  0  0999 V2000
   27.1180  -23.6802  -16.4311 N   0  0  0  0  0  0  0  0  0  0  0  0
   26.9752  -22.3229  -15.9736 C   0  0  1  0  0  0  0  0  0  0  0  0
   26.3831  -21.4858  -17.0756 C   0  0  0  0  0  0  0  0  0  0  0  0
   27.3565  -21.2650  -18.1691 C   0  0  0  0  0  0  0  0  0  0  0  0
   28.4081  -20.3170  -17.7606 C   0  0  0  0  0  0  0  0  0  0  0  0
   28.2161  -19.3913  -16.9249 O   0  0  0  0  0  0  0  0  0  0  0  0
   26.0454  -22.2420  -14.8263 C   0  0  0  0  0  0  0  0  0  0  0  0
   25.0145  -22.9361  -14.8247 O   0  0  0  0  0  0  0  0  0  0  0  0
   29.6797  -20.4747  -18.3465 O   0  0  0  0  0  0  0  0  0  0  0  0
   25.0098  -20.3215   -7.3916 C   0  0  0  0  0  0  0  0  0  0  0  0
   26.1516  -20.3001   -8.8137 S   0  0  0  0  0  0  0  0  0  0  0  0
   25.2041  -20.6115  -10.3134 C   0  0  0  0  0  0  0  0  0  0  0  0
   26.1479  -20.5966  -11.5203 C   0  0  0  0  0  0  0  0  0  0  0  0
   25.4238  -21.2852  -12.6463 C   0  0  2  0  0  0  0  0  0  0  0  0
   26.3338  -21.3879  -13.7600 N   0  0  0  0  0  0  0  0  0  0  0  0
   24.2120  -20.5749  -13.0737 C   0  0  0  0  0  0  0  0  0  0  0  0
   24.2932  -19.6343  -13.9006 O   0  0  0  0  0  0  0  0  0  0  0  0
   20.4043  -20.2017  -15.3500 C   0  0  0  0  0  0  0  0  0  0  0  0
   21.6351  -20.7266  -14.6750 C   0  0  1  0  0  0  0  0  0  0  0  0
   22.8297  -20.3111  -15.4874 C   0  0  0  0  0  0  0  0  0  0  0  0
   21.7266  -20.3569  -13.2308 C   0  0  2  0  0  0  0  0  0  0  0  0
   22.9107  -20.8976  -12.5922 N   0  0  0  0  0  0  0  0  0  0  0  0
   20.4932  -20.7952  -12.4817 C   0  0  0  0  0  0  0  0  0  0  0  0
   19.4515  -19.9058  -12.2390 O   0  0  0  0  0  0  0  0  0  0  0  0
   20.3610  -21.9647  -12.0535 O   0  0  0  0  0  0  0  0  0  0  0  0
  2  1  1  6
  3  2  1  0
  4  3  1  0
  5  4  1  0
  6  5  2  0
  7  8  2  0
  7  2  1  0
  9  5  1  0
 11 10  1  0
 11 12  1  0
 12 13  1  0
 14 13  1  1
 14 15  1  0
 15  7  1  0
 16 22  1  0
 16 14  1  0
 17 16  2  0
 19 18  1  6
 19 21  1  0
 20 19  1  0
 21 22  1  1
 21 23  1  0
 23 24  1  0
 25 23  2  0
M  END
$$$$
