EMV.pdb
     RDKit          3D

 25 24  0  0  1  0  0  0  0  0999 V2000
   28.0924  -22.3005  -16.3105 N   0  0  0  0  0  0  0  0  0  0  0  0
   27.4928  -21.1511  -15.6851 C   0  0  1  0  0  0  0  0  0  0  0  0
   26.7275  -20.3657  -16.7161 C   0  0  0  0  0  0  0  0  0  0  0  0
   27.6376  -19.7237  -17.6915 C   0  0  0  0  0  0  0  0  0  0  0  0
   28.4525  -18.6776  -17.0487 C   0  0  0  0  0  0  0  0  0  0  0  0
   29.6786  -18.8211  -16.7874 O   0  0  0  0  0  0  0  0  0  0  0  0
   26.5214  -21.5557  -14.6458 C   0  0  0  0  0  0  0  0  0  0  0  0
   25.7027  -22.4578  -14.8921 O   0  0  0  0  0  0  0  0  0  0  0  0
   27.8066  -17.4691  -16.7213 O   0  0  0  0  0  0  0  0  0  0  0  0
   27.0354  -19.6456   -8.5874 C   0  0  0  0  0  0  0  0  0  0  0  0
   25.4862  -20.5929   -8.4170 S   0  0  0  0  0  0  0  0  0  0  0  0
   24.9294  -21.0801  -10.0591 C   0  0  0  0  0  0  0  0  0  0  0  0
   26.0118  -20.7289  -11.0851 C   0  0  0  0  0  0  0  0  0  0  0  0
   25.5280  -21.2360  -12.4175 C   0  0  2  0  0  0  0  0  0  0  0  0
   26.5331  -20.9210  -13.4021 N   0  0  0  0  0  0  0  0  0  0  0  0
   24.2461  -20.6496  -12.8279 C   0  0  0  0  0  0  0  0  0  0  0  0
   24.1832  -19.4381  -13.1497 O   0  0  0  0  0  0  0  0  0  0  0  0
   21.4851  -22.7688  -14.9631 C   0  0  0  0  0  0  0  0  0  0  0  0
   21.5583  -21.2774  -14.8354 C   0  0  1  0  0  0  0  0  0  0  0  0
   20.3143  -20.6924  -15.4437 C   0  0  0  0  0  0  0  0  0  0  0  0
   21.8283  -20.8109  -13.4425 C   0  0  2  0  0  0  0  0  0  0  0  0
   23.0328  -21.3940  -12.8844 N   0  0  0  0  0  0  0  0  0  0  0  0
   20.6538  -21.0956  -12.5402 C   0  0  0  0  0  0  0  0  0  0  0  0
   19.4296  -20.4666  -12.7418 O   0  0  0  0  0  0  0  0  0  0  0  0
   20.7350  -21.9007  -11.5843 O   0  0  0  0  0  0  0  0  0  0  0  0
  2  1  1  6
  3  2  1  0
  4  3  1  0
  5  4  1  0
  6  5  2  0
  7  8  2  0
  7  2  1  0
  9  5  1  0
 11 10  1  0
 11 12  1  0
 12 13  1  0
 14 13  1  1
 14 15  1  0
 15  7  1  0
 16 22  1  0
 16 14  1  0
 17 16  2  0
 19 18  1  1
 19 21  1  0
 20 19  1  0
 21 22  1  1
 21 23  1  0
 23 24  1  0
 25 23  2  0
M  END
$$$$
