EMV.pdb
     RDKit          3D

 25 24  0  0  1  0  0  0  0  0999 V2000
   28.1329  -21.7307  -15.9853 N   0  0  0  0  0  0  0  0  0  0  0  0
   27.4764  -20.6935  -15.2336 C   0  0  1  0  0  0  0  0  0  0  0  0
   26.4972  -19.9768  -16.1243 C   0  0  0  0  0  0  0  0  0  0  0  0
   27.1918  -19.1974  -17.1741 C   0  0  0  0  0  0  0  0  0  0  0  0
   28.0450  -18.1518  -16.5822 C   0  0  0  0  0  0  0  0  0  0  0  0
   29.3003  -18.2504  -16.4992 O   0  0  0  0  0  0  0  0  0  0  0  0
   26.6993  -21.2598  -14.1099 C   0  0  0  0  0  0  0  0  0  0  0  0
   26.0255  -22.2885  -14.2896 O   0  0  0  0  0  0  0  0  0  0  0  0
   27.4026  -16.9970  -16.0937 O   0  0  0  0  0  0  0  0  0  0  0  0
   27.6720  -20.2779   -7.8269 C   0  0  0  0  0  0  0  0  0  0  0  0
   25.8483  -20.2944   -7.8467 S   0  0  0  0  0  0  0  0  0  0  0  0
   25.2986  -20.9056   -9.4491 C   0  0  0  0  0  0  0  0  0  0  0  0
   26.2694  -20.4266  -10.5334 C   0  0  0  0  0  0  0  0  0  0  0  0
   25.7975  -21.0226  -11.8328 C   0  0  2  0  0  0  0  0  0  0  0  0
   26.7296  -20.6340  -12.8620 N   0  0  0  0  0  0  0  0  0  0  0  0
   24.4474  -20.5875  -12.2114 C   0  0  0  0  0  0  0  0  0  0  0  0
   24.2375  -19.3906  -12.5256 O   0  0  0  0  0  0  0  0  0  0  0  0
   21.8149  -23.4029  -13.8656 C   0  0  0  0  0  0  0  0  0  0  0  0
   21.8676  -21.9332  -14.1539 C   0  0  1  0  0  0  0  0  0  0  0  0
   20.6257  -21.5588  -14.9136 C   0  0  0  0  0  0  0  0  0  0  0  0
   22.1111  -21.0961  -12.9412 C   0  0  2  0  0  0  0  0  0  0  0  0
   23.3273  -21.4671  -12.2444 N   0  0  0  0  0  0  0  0  0  0  0  0
   20.9375  -21.1601  -11.9961 C   0  0  0  0  0  0  0  0  0  0  0  0
   19.7295  -20.5487  -12.3154 O   0  0  0  0  0  0  0  0  0  0  0  0
   21.0049  -21.7597  -10.8986 O   0  0  0  0  0  0  0  0  0  0  0  0
  2  1  1  6
  3  2  1  0
  4  3  1  0
  5  4  1  0
  6  5  2  0
  7  8  2  0
  7  2  1  0
  9  5  1  0
 11 10  1  0
 11 12  1  0
 12 13  1  0
 14 13  1  1
 14 15  1  0
 15  7  1  0
 16 22  1  0
 16 14  1  0
 17 16  2  0
 19 18  1  1
 19 21  1  0
 20 19  1  0
 21 22  1  1
 21 23  1  0
 23 24  1  0
 25 23  2  0
M  END
$$$$
