EMV.pdb
     RDKit          3D

 25 24  0  0  1  0  0  0  0  0999 V2000
   25.3433  -21.4515  -15.2491 N   0  0  0  0  0  0  0  0  0  0  0  0
   24.0166  -22.0090  -15.2203 C   0  0  1  0  0  0  0  0  0  0  0  0
   24.1084  -23.5096  -15.1470 C   0  0  0  0  0  0  0  0  0  0  0  0
   24.7209  -24.0739  -16.3711 C   0  0  0  0  0  0  0  0  0  0  0  0
   25.9149  -24.8743  -16.0470 C   0  0  0  0  0  0  0  0  0  0  0  0
   26.6183  -25.4501  -16.9223 O   0  0  0  0  0  0  0  0  0  0  0  0
   23.2779  -21.5651  -14.0183 C   0  0  0  0  0  0  0  0  0  0  0  0
   23.9097  -21.1739  -13.0222 O   0  0  0  0  0  0  0  0  0  0  0  0
   26.2656  -24.9854  -14.6870 O   0  0  0  0  0  0  0  0  0  0  0  0
   19.9944  -16.3514  -15.3700 C   0  0  0  0  0  0  0  0  0  0  0  0
   20.9404  -17.1009  -14.0026 S   0  0  0  0  0  0  0  0  0  0  0  0
   20.6569  -18.8794  -14.0177 C   0  0  0  0  0  0  0  0  0  0  0  0
   21.4674  -19.5305  -12.8922 C   0  0  0  0  0  0  0  0  0  0  0  0
   21.1483  -21.0014  -12.9221 C   0  0  2  0  0  0  0  0  0  0  0  0
   21.8818  -21.5910  -14.0145 N   0  0  0  0  0  0  0  0  0  0  0  0
   19.7167  -21.2786  -13.0932 C   0  0  0  0  0  0  0  0  0  0  0  0
   19.2051  -21.2586  -14.2390 O   0  0  0  0  0  0  0  0  0  0  0  0
   17.0761  -22.6260   -9.8719 C   0  0  0  0  0  0  0  0  0  0  0  0
   16.9480  -22.9654  -11.3259 C   0  0  1  0  0  0  0  0  0  0  0  0
   15.5248  -23.3710  -11.5898 C   0  0  0  0  0  0  0  0  0  0  0  0
   17.4503  -21.8922  -12.2351 C   0  0  2  0  0  0  0  0  0  0  0  0
   18.8468  -21.5773  -12.0054 N   0  0  0  0  0  0  0  0  0  0  0  0
   16.6144  -20.6431  -12.1100 C   0  0  0  0  0  0  0  0  0  0  0  0
   15.3624  -20.5587  -12.7104 O   0  0  0  0  0  0  0  0  0  0  0  0
   17.0116  -19.6440  -11.4677 O   0  0  0  0  0  0  0  0  0  0  0  0
  2  1  1  1
  3  2  1  0
  4  3  1  0
  5  4  1  0
  6  5  2  0
  7  8  2  0
  7  2  1  0
  9  5  1  0
 11 10  1  0
 11 12  1  0
 12 13  1  0
 14 13  1  6
 14 15  1  0
 15  7  1  0
 16 22  1  0
 16 14  1  0
 17 16  2  0
 19 18  1  1
 19 21  1  0
 20 19  1  0
 21 22  1  1
 21 23  1  0
 23 24  1  0
 25 23  2  0
M  END
$$$$
