EMV.pdb
     RDKit          3D

 25 24  0  0  1  0  0  0  0  0999 V2000
   22.0685  -13.8311  -17.0155 N   0  0  0  0  0  0  0  0  0  0  0  0
   21.8597  -12.4550  -17.3824 C   0  0  1  0  0  0  0  0  0  0  0  0
   20.3846  -12.1555  -17.3731 C   0  0  0  0  0  0  0  0  0  0  0  0
   19.5851  -13.3685  -17.6586 C   0  0  0  0  0  0  0  0  0  0  0  0
   18.4050  -13.4457  -16.7796 C   0  0  0  0  0  0  0  0  0  0  0  0
   18.1662  -12.6051  -15.8694 O   0  0  0  0  0  0  0  0  0  0  0  0
   22.4893  -11.5411  -16.4047 C   0  0  0  0  0  0  0  0  0  0  0  0
   22.2278  -11.6646  -15.1960 O   0  0  0  0  0  0  0  0  0  0  0  0
   17.5169  -14.5195  -16.9874 O   0  0  0  0  0  0  0  0  0  0  0  0
   28.0310  -11.3639  -17.3176 C   0  0  0  0  0  0  0  0  0  0  0  0
   27.6285  -11.3979  -15.5391 S   0  0  0  0  0  0  0  0  0  0  0  0
   25.8604  -11.1141  -15.3467 C   0  0  0  0  0  0  0  0  0  0  0  0
   25.4803   -9.8018  -16.0400 C   0  0  0  0  0  0  0  0  0  0  0  0
   23.9882   -9.6551  -15.9039 C   0  0  2  0  0  0  0  0  0  0  0  0
   23.3678  -10.5506  -16.8485 N   0  0  0  0  0  0  0  0  0  0  0  0
   23.5173   -8.2867  -16.1512 C   0  0  0  0  0  0  0  0  0  0  0  0
   23.6226   -7.7828  -17.2958 O   0  0  0  0  0  0  0  0  0  0  0  0
   20.0836   -7.1284  -15.7685 C   0  0  0  0  0  0  0  0  0  0  0  0
   21.1684   -6.2653  -16.3378 C   0  0  1  0  0  0  0  0  0  0  0  0
   20.5698   -4.9335  -16.6954 C   0  0  0  0  0  0  0  0  0  0  0  0
   22.3759   -6.1715  -15.4639 C   0  0  2  0  0  0  0  0  0  0  0  0
   22.9310   -7.4714  -15.1409 N   0  0  0  0  0  0  0  0  0  0  0  0
   22.0679   -5.4147  -14.1962 C   0  0  0  0  0  0  0  0  0  0  0  0
   21.8419   -4.0423  -14.2209 O   0  0  0  0  0  0  0  0  0  0  0  0
   22.0047   -5.9870  -13.0840 O   0  0  0  0  0  0  0  0  0  0  0  0
  2  1  1  1
  3  2  1  0
  4  3  1  0
  5  4  1  0
  6  5  2  0
  7  8  2  0
  7  2  1  0
  9  5  1  0
 11 10  1  0
 11 12  1  0
 12 13  1  0
 14 13  1  6
 14 15  1  0
 15  7  1  0
 16 22  1  0
 16 14  1  0
 17 16  2  0
 19 18  1  1
 19 21  1  0
 20 19  1  0
 21 22  1  1
 21 23  1  0
 23 24  1  0
 25 23  2  0
M  END
$$$$
