EMV.pdb
     RDKit          3D

 25 24  0  0  1  0  0  0  0  0999 V2000
   27.9283  -19.9808  -15.7540 N   0  0  0  0  0  0  0  0  0  0  0  0
   27.2254  -21.1930  -16.0830 C   0  0  1  0  0  0  0  0  0  0  0  0
   28.2172  -22.3114  -16.2598 C   0  0  0  0  0  0  0  0  0  0  0  0
   29.2476  -21.9659  -17.2652 C   0  0  0  0  0  0  0  0  0  0  0  0
   28.6971  -22.0223  -18.6310 C   0  0  0  0  0  0  0  0  0  0  0  0
   28.1711  -21.0291  -19.2046 O   0  0  0  0  0  0  0  0  0  0  0  0
   26.3154  -21.5954  -14.9887 C   0  0  0  0  0  0  0  0  0  0  0  0
   25.6342  -22.6279  -15.1086 O   0  0  0  0  0  0  0  0  0  0  0  0
   28.7751  -23.2566  -19.3058 O   0  0  0  0  0  0  0  0  0  0  0  0
   24.4380  -20.9177   -7.4630 C   0  0  0  0  0  0  0  0  0  0  0  0
   25.6296  -20.4904   -8.7760 S   0  0  0  0  0  0  0  0  0  0  0  0
   24.9647  -21.0448  -10.3553 C   0  0  0  0  0  0  0  0  0  0  0  0
   25.9435  -20.6744  -11.4743 C   0  0  0  0  0  0  0  0  0  0  0  0
   25.3578  -21.2035  -12.7563 C   0  0  2  0  0  0  0  0  0  0  0  0
   26.2303  -20.8126  -13.8356 N   0  0  0  0  0  0  0  0  0  0  0  0
   24.0032  -20.7038  -13.0221 C   0  0  0  0  0  0  0  0  0  0  0  0
   23.8107  -19.4778  -13.2090 O   0  0  0  0  0  0  0  0  0  0  0  0
   21.4092  -23.0142  -15.1181 C   0  0  0  0  0  0  0  0  0  0  0  0
   21.2848  -21.5295  -14.9566 C   0  0  1  0  0  0  0  0  0  0  0  0
   19.9304  -21.1142  -15.4594 C   0  0  0  0  0  0  0  0  0  0  0  0
   21.5901  -21.0525  -13.5746 C   0  0  2  0  0  0  0  0  0  0  0  0
   22.8594  -21.5509  -13.0819 N   0  0  0  0  0  0  0  0  0  0  0  0
   20.4853  -21.4253  -12.6180 C   0  0  0  0  0  0  0  0  0  0  0  0
   19.2288  -20.8362  -12.7139 O   0  0  0  0  0  0  0  0  0  0  0  0
   20.6552  -22.2706  -11.7097 O   0  0  0  0  0  0  0  0  0  0  0  0
  2  1  1  1
  3  2  1  0
  4  3  1  0
  5  4  1  0
  6  5  2  0
  7  8  2  0
  7  2  1  0
  9  5  1  0
 11 10  1  0
 11 12  1  0
 12 13  1  0
 14 13  1  1
 14 15  1  0
 15  7  1  0
 16 22  1  0
 16 14  1  0
 17 16  2  0
 19 18  1  1
 19 21  1  0
 20 19  1  0
 21 22  1  1
 21 23  1  0
 23 24  1  0
 25 23  2  0
M  END
$$$$
