EMV.pdb
     RDKit          3D

 25 24  0  0  1  0  0  0  0  0999 V2000
   28.5463  -20.9270  -15.8772 N   0  0  0  0  0  0  0  0  0  0  0  0
   28.0035  -19.9958  -14.9232 C   0  0  1  0  0  0  0  0  0  0  0  0
   27.3499  -18.8555  -15.6567 C   0  0  0  0  0  0  0  0  0  0  0  0
   28.3516  -17.8759  -16.1352 C   0  0  0  0  0  0  0  0  0  0  0  0
   28.4266  -17.8688  -17.6069 C   0  0  0  0  0  0  0  0  0  0  0  0
   27.4679  -17.5109  -18.3452 O   0  0  0  0  0  0  0  0  0  0  0  0
   26.9551  -20.6308  -14.0956 C   0  0  0  0  0  0  0  0  0  0  0  0
   26.1668  -21.4362  -14.6196 O   0  0  0  0  0  0  0  0  0  0  0  0
   29.6387  -18.2860  -18.1915 O   0  0  0  0  0  0  0  0  0  0  0  0
   25.6791  -19.4127   -7.5164 C   0  0  0  0  0  0  0  0  0  0  0  0
   25.5978  -21.2000   -7.8703 S   0  0  0  0  0  0  0  0  0  0  0  0
   25.1933  -21.4212   -9.6112 C   0  0  0  0  0  0  0  0  0  0  0  0
   26.2647  -20.7414  -10.4699 C   0  0  0  0  0  0  0  0  0  0  0  0
   25.8865  -20.9819  -11.9071 C   0  0  2  0  0  0  0  0  0  0  0  0
   26.8610  -20.3190  -12.7378 N   0  0  0  0  0  0  0  0  0  0  0  0
   24.5458  -20.4866  -12.2424 C   0  0  0  0  0  0  0  0  0  0  0  0
   24.3287  -19.2519  -12.3031 O   0  0  0  0  0  0  0  0  0  0  0  0
   22.6944  -20.5904  -15.2853 C   0  0  0  0  0  0  0  0  0  0  0  0
   21.7424  -21.1220  -14.2573 C   0  0  1  0  0  0  0  0  0  0  0  0
   21.5412  -22.5888  -14.5175 C   0  0  0  0  0  0  0  0  0  0  0  0
   22.1428  -20.8054  -12.8537 C   0  0  2  0  0  0  0  0  0  0  0  0
   23.4430  -21.3476  -12.5106 N   0  0  0  0  0  0  0  0  0  0  0  0
   21.1068  -21.2946  -11.8728 C   0  0  0  0  0  0  0  0  0  0  0  0
   19.8334  -20.7356  -11.8411 O   0  0  0  0  0  0  0  0  0  0  0  0
   21.3509  -22.2132  -11.0574 O   0  0  0  0  0  0  0  0  0  0  0  0
  2  1  1  6
  3  2  1  0
  4  3  1  0
  5  4  1  0
  6  5  2  0
  7  8  2  0
  7  2  1  0
  9  5  1  0
 11 10  1  0
 11 12  1  0
 12 13  1  0
 14 13  1  1
 14 15  1  0
 15  7  1  0
 16 22  1  0
 16 14  1  0
 17 16  2  0
 19 18  1  6
 19 21  1  0
 20 19  1  0
 21 22  1  1
 21 23  1  0
 23 24  1  0
 25 23  2  0
M  END
$$$$
