EMV.pdb
     RDKit          3D

 25 24  0  0  1  0  0  0  0  0999 V2000
   28.4068  -20.8976  -15.5205 N   0  0  0  0  0  0  0  0  0  0  0  0
   28.0081  -20.0249  -14.4475 C   0  0  1  0  0  0  0  0  0  0  0  0
   27.4013  -18.7734  -15.0229 C   0  0  0  0  0  0  0  0  0  0  0  0
   28.4185  -17.9468  -15.7113 C   0  0  0  0  0  0  0  0  0  0  0  0
   28.1721  -17.9018  -17.1635 C   0  0  0  0  0  0  0  0  0  0  0  0
   27.1933  -17.2948  -17.6789 O   0  0  0  0  0  0  0  0  0  0  0  0
   26.9701  -20.6567  -13.6043 C   0  0  0  0  0  0  0  0  0  0  0  0
   26.2381  -21.5352  -14.0912 O   0  0  0  0  0  0  0  0  0  0  0  0
   29.0891  -18.5770  -17.9931 O   0  0  0  0  0  0  0  0  0  0  0  0
   26.8277  -19.7705   -7.3012 C   0  0  0  0  0  0  0  0  0  0  0  0
   25.3803  -20.8743   -7.4163 S   0  0  0  0  0  0  0  0  0  0  0  0
   25.1085  -21.2832   -9.1491 C   0  0  0  0  0  0  0  0  0  0  0  0
   26.1072  -20.5080  -10.0146 C   0  0  0  0  0  0  0  0  0  0  0  0
   25.8041  -20.8583  -11.4470 C   0  0  2  0  0  0  0  0  0  0  0  0
   26.8226  -20.2599  -12.2737 N   0  0  0  0  0  0  0  0  0  0  0  0
   24.4841  -20.3914  -11.8890 C   0  0  0  0  0  0  0  0  0  0  0  0
   24.2647  -19.1632  -12.0248 O   0  0  0  0  0  0  0  0  0  0  0  0
   22.7984  -20.9575  -15.0933 C   0  0  0  0  0  0  0  0  0  0  0  0
   21.8022  -21.3134  -14.0318 C   0  0  1  0  0  0  0  0  0  0  0  0
   21.6075  -22.8039  -14.0514 C   0  0  0  0  0  0  0  0  0  0  0  0
   22.1441  -20.7650  -12.6854 C   0  0  2  0  0  0  0  0  0  0  0  0
   23.4047  -21.2739  -12.1813 N   0  0  0  0  0  0  0  0  0  0  0  0
   21.0434  -21.0442  -11.6928 C   0  0  0  0  0  0  0  0  0  0  0  0
   21.2569  -21.8897  -10.6090 O   0  0  0  0  0  0  0  0  0  0  0  0
   19.9065  -20.5312  -11.8054 O   0  0  0  0  0  0  0  0  0  0  0  0
  2  1  1  6
  3  2  1  0
  4  3  1  0
  5  4  1  0
  6  5  2  0
  7  8  2  0
  7  2  1  0
  9  5  1  0
 11 10  1  0
 11 12  1  0
 12 13  1  0
 14 13  1  1
 14 15  1  0
 15  7  1  0
 16 22  1  0
 16 14  1  0
 17 16  2  0
 19 18  1  6
 19 21  1  0
 20 19  1  0
 21 22  1  1
 21 23  1  0
 23 24  1  0
 25 23  2  0
M  END
$$$$
