EMV.pdb
     RDKit          3D

 25 24  0  0  1  0  0  0  0  0999 V2000
   20.5804  -12.7966  -16.3963 N   0  0  0  0  0  0  0  0  0  0  0  0
   21.1080  -11.6452  -17.0802 C   0  0  1  0  0  0  0  0  0  0  0  0
   19.9693  -10.8196  -17.6164 C   0  0  0  0  0  0  0  0  0  0  0  0
   19.1982  -11.5620  -18.6392 C   0  0  0  0  0  0  0  0  0  0  0  0
   18.1123  -10.7329  -19.1911 C   0  0  0  0  0  0  0  0  0  0  0  0
   17.8811   -9.5534  -18.8070 O   0  0  0  0  0  0  0  0  0  0  0  0
   21.8686  -10.7776  -16.1549 C   0  0  0  0  0  0  0  0  0  0  0  0
   21.5317  -10.7141  -14.9603 O   0  0  0  0  0  0  0  0  0  0  0  0
   17.3090  -11.3093  -20.1949 O   0  0  0  0  0  0  0  0  0  0  0  0
   27.5314  -12.9679  -15.1390 C   0  0  0  0  0  0  0  0  0  0  0  0
   27.1903  -11.3102  -15.8187 S   0  0  0  0  0  0  0  0  0  0  0  0
   25.4670  -10.9010  -15.4923 C   0  0  0  0  0  0  0  0  0  0  0  0
   25.1805   -9.4816  -15.9930 C   0  0  0  0  0  0  0  0  0  0  0  0
   23.7219   -9.2153  -15.7321 C   0  0  2  0  0  0  0  0  0  0  0  0
   22.9539  -10.0398  -16.6317 N   0  0  0  0  0  0  0  0  0  0  0  0
   23.3481   -7.8086  -15.9245 C   0  0  0  0  0  0  0  0  0  0  0  0
   23.4566   -7.2785  -17.0569 O   0  0  0  0  0  0  0  0  0  0  0  0
   20.0404   -6.2301  -14.8374 C   0  0  0  0  0  0  0  0  0  0  0  0
   21.0621   -5.5232  -15.6755 C   0  0  1  0  0  0  0  0  0  0  0  0
   20.5895   -4.1144  -15.9030 C   0  0  0  0  0  0  0  0  0  0  0  0
   22.4489   -5.6159  -15.1289 C   0  0  2  0  0  0  0  0  0  0  0  0
   22.8555   -6.9838  -14.8726 N   0  0  0  0  0  0  0  0  0  0  0  0
   22.5906   -4.7937  -13.8725 C   0  0  0  0  0  0  0  0  0  0  0  0
   22.9040   -5.3945  -12.6576 O   0  0  0  0  0  0  0  0  0  0  0  0
   22.4326   -3.5513  -13.8747 O   0  0  0  0  0  0  0  0  0  0  0  0
  2  1  1  1
  3  2  1  0
  4  3  1  0
  5  4  1  0
  6  5  2  0
  7  8  2  0
  7  2  1  0
  9  5  1  0
 11 10  1  0
 11 12  1  0
 12 13  1  0
 14 13  1  6
 14 15  1  0
 15  7  1  0
 16 22  1  0
 16 14  1  0
 17 16  2  0
 19 18  1  1
 19 21  1  0
 20 19  1  0
 21 22  1  1
 21 23  1  0
 23 24  1  0
 25 23  2  0
M  END
$$$$
