EMV.pdb
     RDKit          3D

 25 24  0  0  1  0  0  0  0  0999 V2000
   28.5644  -21.5546  -16.0163 N   0  0  0  0  0  0  0  0  0  0  0  0
   28.3317  -20.6307  -14.9373 C   0  0  1  0  0  0  0  0  0  0  0  0
   28.1266  -19.2497  -15.4998 C   0  0  0  0  0  0  0  0  0  0  0  0
   26.8783  -19.1686  -16.2918 C   0  0  0  0  0  0  0  0  0  0  0  0
   26.6445  -17.7965  -16.7756 C   0  0  0  0  0  0  0  0  0  0  0  0
   27.5023  -17.1386  -17.4263 O   0  0  0  0  0  0  0  0  0  0  0  0
   27.1014  -20.9783  -14.1938 C   0  0  0  0  0  0  0  0  0  0  0  0
   26.2651  -21.7354  -14.7154 O   0  0  0  0  0  0  0  0  0  0  0  0
   25.3945  -17.2156  -16.4841 O   0  0  0  0  0  0  0  0  0  0  0  0
   26.7194  -19.6132   -8.0007 C   0  0  0  0  0  0  0  0  0  0  0  0
   25.1486  -20.5319   -8.1223 S   0  0  0  0  0  0  0  0  0  0  0  0
   24.9227  -21.0564   -9.8304 C   0  0  0  0  0  0  0  0  0  0  0  0
   26.1079  -20.5690  -10.6701 C   0  0  0  0  0  0  0  0  0  0  0  0
   25.8136  -20.9473  -12.0973 C   0  0  2  0  0  0  0  0  0  0  0  0
   26.8917  -20.4528  -12.9172 N   0  0  0  0  0  0  0  0  0  0  0  0
   24.5415  -20.4033  -12.5886 C   0  0  0  0  0  0  0  0  0  0  0  0
   24.4479  -19.1853  -12.8761 O   0  0  0  0  0  0  0  0  0  0  0  0
   22.7212  -20.7912  -15.6312 C   0  0  0  0  0  0  0  0  0  0  0  0
   21.7130  -21.0786  -14.5602 C   0  0  1  0  0  0  0  0  0  0  0  0
   21.3770  -22.5429  -14.6124 C   0  0  0  0  0  0  0  0  0  0  0  0
   22.1275  -20.6001  -13.2074 C   0  0  2  0  0  0  0  0  0  0  0  0
   23.3718  -21.1974  -12.7635 N   0  0  0  0  0  0  0  0  0  0  0  0
   21.0439  -20.8534  -12.1894 C   0  0  0  0  0  0  0  0  0  0  0  0
   19.8126  -20.2129  -12.2829 O   0  0  0  0  0  0  0  0  0  0  0  0
   21.2095  -21.6417  -11.2305 O   0  0  0  0  0  0  0  0  0  0  0  0
  2  1  1  6
  3  2  1  0
  4  3  1  0
  5  4  1  0
  6  5  2  0
  7  8  2  0
  7  2  1  0
  9  5  1  0
 11 10  1  0
 11 12  1  0
 12 13  1  0
 14 13  1  1
 14 15  1  0
 15  7  1  0
 16 22  1  0
 16 14  1  0
 17 16  2  0
 19 18  1  6
 19 21  1  0
 20 19  1  0
 21 22  1  1
 21 23  1  0
 23 24  1  0
 25 23  2  0
M  END
$$$$
