AAY.pdb
     RDKit          3D

 23 23  0  0  1  0  0  0  0  0999 V2000
   31.5004  -34.2198  -17.8770 C   0  0  0  0  0  0  0  0  0  0  0  0
   30.8923  -32.9101  -18.2904 C   0  0  2  0  0  0  0  0  0  0  0  0
   31.8965  -31.9480  -18.6382 N   0  0  0  0  0  0  0  0  0  0  0  0
   29.9477  -32.3847  -17.2580 C   0  0  0  0  0  0  0  0  0  0  0  0
   30.3405  -32.0604  -16.1004 O   0  0  0  0  0  0  0  0  0  0  0  0
   26.4448  -31.0211  -17.2154 C   0  0  0  0  0  0  0  0  0  0  0  0
   27.6675  -31.6322  -16.5757 C   0  0  2  0  0  0  0  0  0  0  0  0
   28.5604  -32.2214  -17.5203 N   0  0  0  0  0  0  0  0  0  0  0  0
   27.2671  -32.5627  -15.4896 C   0  0  0  0  0  0  0  0  0  0  0  0
   26.9888  -33.7576  -15.7451 O   0  0  0  0  0  0  0  0  0  0  0  0
   24.7755  -34.3287   -7.1014 O   0  0  0  0  0  0  0  0  0  0  0  0
   25.3529  -33.8057   -8.2488 C   0  0  0  0  0  0  0  0  0  0  0  0
   26.1448  -34.5525   -9.0977 C   0  0  0  0  0  0  0  0  0  0  0  0
   26.7203  -34.0358  -10.2393 C   0  0  0  0  0  0  0  0  0  0  0  0
   26.5065  -32.7135  -10.5648 C   0  0  0  0  0  0  0  0  0  0  0  0
   27.1261  -32.1663  -11.7786 C   0  0  0  0  0  0  0  0  0  0  0  0
   26.6967  -32.8917  -13.0545 C   0  0  2  0  0  0  0  0  0  0  0  0
   27.2015  -32.0864  -14.1530 N   0  0  0  0  0  0  0  0  0  0  0  0
   25.2397  -33.0832  -13.1348 C   0  0  0  0  0  0  0  0  0  0  0  0
   24.4816  -32.2120  -13.6268 O   0  0  0  0  0  0  0  0  0  0  0  0
   25.7179  -31.9613   -9.7233 C   0  0  0  0  0  0  0  0  0  0  0  0
   25.1435  -32.4803   -8.5824 C   0  0  0  0  0  0  0  0  0  0  0  0
   24.6324  -34.2521  -12.6635 O   0  0  0  0  0  0  0  0  0  0  0  0
  2  1  1  1
  3  2  1  0
  4  2  1  0
  5  4  2  0
  7  6  1  6
  7  9  1  0
  7  8  1  0
  8  4  1  0
  9 18  1  0
 10  9  2  0
 12 22  2  0
 12 11  1  0
 13 12  1  0
 14 15  1  0
 14 13  2  0
 15 21  2  0
 16 15  1  0
 17 19  1  0
 17 16  1  1
 18 17  1  0
 19 20  2  0
 19 23  1  0
 21 22  1  0
M  END
$$$$
