AAY.pdb
     RDKit          3D

 23 23  0  0  1  0  0  0  0  0999 V2000
   22.2486  -10.5188  -20.6603 C   0  0  0  0  0  0  0  0  0  0  0  0
   22.9287   -9.7073  -19.5948 C   0  0  2  0  0  0  0  0  0  0  0  0
   24.3523   -9.8707  -19.6348 N   0  0  0  0  0  0  0  0  0  0  0  0
   22.3707   -9.9916  -18.2376 C   0  0  0  0  0  0  0  0  0  0  0  0
   21.1439   -9.8307  -17.9755 O   0  0  0  0  0  0  0  0  0  0  0  0
   23.6473  -11.3215  -14.9236 C   0  0  0  0  0  0  0  0  0  0  0  0
   22.7019  -10.5759  -15.8335 C   0  0  2  0  0  0  0  0  0  0  0  0
   23.1862  -10.4570  -17.1707 N   0  0  0  0  0  0  0  0  0  0  0  0
   22.3290   -9.2720  -15.2280 C   0  0  0  0  0  0  0  0  0  0  0  0
   23.1045   -8.2904  -15.3022 O   0  0  0  0  0  0  0  0  0  0  0  0
   21.3681   -1.5295  -14.4627 O   0  0  0  0  0  0  0  0  0  0  0  0
   21.0919   -2.8769  -14.6416 C   0  0  0  0  0  0  0  0  0  0  0  0
   22.0742   -3.8215  -14.8609 C   0  0  0  0  0  0  0  0  0  0  0  0
   21.8033   -5.1618  -15.0390 C   0  0  0  0  0  0  0  0  0  0  0  0
   20.4962   -5.5979  -14.9995 C   0  0  0  0  0  0  0  0  0  0  0  0
   20.2121   -7.0255  -15.1953 C   0  0  0  0  0  0  0  0  0  0  0  0
   20.6135   -7.8898  -13.9993 C   0  0  2  0  0  0  0  0  0  0  0  0
   21.0812   -9.1449  -14.5612 N   0  0  0  0  0  0  0  0  0  0  0  0
   19.5088   -8.0889  -13.0475 C   0  0  0  0  0  0  0  0  0  0  0  0
   18.5691   -8.8884  -13.2787 O   0  0  0  0  0  0  0  0  0  0  0  0
   19.5100   -4.6621  -14.7814 C   0  0  0  0  0  0  0  0  0  0  0  0
   19.7836   -3.3226  -14.6035 C   0  0  0  0  0  0  0  0  0  0  0  0
   19.4577   -7.3913  -11.8358 O   0  0  0  0  0  0  0  0  0  0  0  0
  2  1  1  6
  3  2  1  0
  4  2  1  0
  5  4  2  0
  7  6  1  1
  7  9  1  0
  7  8  1  0
  8  4  1  0
  9 18  1  0
 10  9  2  0
 12 22  2  0
 12 11  1  0
 13 12  1  0
 14 15  1  0
 14 13  2  0
 15 21  2  0
 16 15  1  0
 17 19  1  0
 17 16  1  6
 18 17  1  0
 19 20  2  0
 19 23  1  0
 21 22  1  0
M  END
$$$$
