AAY.pdb
     RDKit          3D

 23 23  0  0  1  0  0  0  0  0999 V2000
   29.2534  -19.3116  -15.8860 C   0  0  0  0  0  0  0  0  0  0  0  0
   28.6101  -20.4668  -15.1734 C   0  0  2  0  0  0  0  0  0  0  0  0
   28.1339  -21.4564  -16.0947 N   0  0  0  0  0  0  0  0  0  0  0  0
   27.5385  -20.0145  -14.2346 C   0  0  0  0  0  0  0  0  0  0  0  0
   27.7729  -19.1896  -13.3050 O   0  0  0  0  0  0  0  0  0  0  0  0
   23.8461  -19.8091  -14.2667 C   0  0  0  0  0  0  0  0  0  0  0  0
   25.1471  -19.9750  -13.5200 C   0  0  2  0  0  0  0  0  0  0  0  0
   26.2014  -20.4855  -14.3353 N   0  0  0  0  0  0  0  0  0  0  0  0
   24.9302  -20.7651  -12.2813 C   0  0  0  0  0  0  0  0  0  0  0  0
   25.1327  -22.0018  -12.2710 O   0  0  0  0  0  0  0  0  0  0  0  0
   29.9070  -20.2739   -7.0443 O   0  0  0  0  0  0  0  0  0  0  0  0
   28.5874  -20.1759   -7.4599 C   0  0  0  0  0  0  0  0  0  0  0  0
   27.8664  -21.2553   -7.9295 C   0  0  0  0  0  0  0  0  0  0  0  0
   26.5544  -21.1614   -8.3434 C   0  0  0  0  0  0  0  0  0  0  0  0
   25.9158  -19.9408   -8.2933 C   0  0  0  0  0  0  0  0  0  0  0  0
   24.5202  -19.8447   -8.7404 C   0  0  0  0  0  0  0  0  0  0  0  0
   24.1815  -20.8149   -9.8729 C   0  0  2  0  0  0  0  0  0  0  0  0
   24.4895  -20.1059  -11.1027 N   0  0  0  0  0  0  0  0  0  0  0  0
   22.7817  -21.2672   -9.8324 C   0  0  0  0  0  0  0  0  0  0  0  0
   22.3379  -21.9696   -8.8914 O   0  0  0  0  0  0  0  0  0  0  0  0
   26.6278  -18.8588   -7.8263 C   0  0  0  0  0  0  0  0  0  0  0  0
   27.9396  -18.9553   -7.4130 C   0  0  0  0  0  0  0  0  0  0  0  0
   21.8790  -20.9320  -10.8473 O   0  0  0  0  0  0  0  0  0  0  0  0
  2  1  1  6
  3  2  1  0
  4  2  1  0
  5  4  2  0
  7  6  1  6
  7  9  1  0
  7  8  1  0
  8  4  1  0
  9 18  1  0
 10  9  2  0
 12 22  2  0
 12 11  1  0
 13 12  1  0
 14 15  1  0
 14 13  2  0
 15 21  2  0
 16 15  1  0
 17 19  1  0
 17 16  1  1
 18 17  1  0
 19 20  2  0
 19 23  1  0
 21 22  1  0
M  END
$$$$
