AAY.pdb
     RDKit          3D

 23 23  0  0  1  0  0  0  0  0999 V2000
   19.3997  -11.2840  -14.9244 C   0  0  0  0  0  0  0  0  0  0  0  0
   18.7148  -10.4987  -16.0062 C   0  0  2  0  0  0  0  0  0  0  0  0
   19.1136  -10.9385  -17.3110 N   0  0  0  0  0  0  0  0  0  0  0  0
   18.9040   -9.0264  -15.8299 C   0  0  0  0  0  0  0  0  0  0  0  0
   19.9211   -8.4273  -16.2838 O   0  0  0  0  0  0  0  0  0  0  0  0
   16.8053   -6.1160  -14.6394 C   0  0  0  0  0  0  0  0  0  0  0  0
   18.0885   -6.8056  -15.0340 C   0  0  2  0  0  0  0  0  0  0  0  0
   17.9538   -8.2221  -15.1443 N   0  0  0  0  0  0  0  0  0  0  0  0
   19.1920   -6.3912  -14.1305 C   0  0  0  0  0  0  0  0  0  0  0  0
   19.4128   -7.0160  -13.0668 O   0  0  0  0  0  0  0  0  0  0  0  0
   23.5337   -3.1986  -19.3824 O   0  0  0  0  0  0  0  0  0  0  0  0
   23.2455   -3.7457  -18.1410 C   0  0  0  0  0  0  0  0  0  0  0  0
   22.5474   -4.9263  -17.9851 C   0  0  0  0  0  0  0  0  0  0  0  0
   22.2591   -5.4732  -16.7525 C   0  0  0  0  0  0  0  0  0  0  0  0
   22.6795   -4.8251  -15.6108 C   0  0  0  0  0  0  0  0  0  0  0  0
   22.3654   -5.4085  -14.3002 C   0  0  0  0  0  0  0  0  0  0  0  0
   21.1072   -4.8175  -13.6629 C   0  0  2  0  0  0  0  0  0  0  0  0
   19.9992   -5.2766  -14.4823 N   0  0  0  0  0  0  0  0  0  0  0  0
   21.1543   -3.3495  -13.5708 C   0  0  0  0  0  0  0  0  0  0  0  0
   20.3731   -2.6176  -14.2265 O   0  0  0  0  0  0  0  0  0  0  0  0
   23.3764   -3.6467  -15.7573 C   0  0  0  0  0  0  0  0  0  0  0  0
   23.6634   -3.1020  -16.9909 C   0  0  0  0  0  0  0  0  0  0  0  0
   22.0776   -2.7015  -12.7432 O   0  0  0  0  0  0  0  0  0  0  0  0
  2  1  1  1
  3  2  1  0
  4  2  1  0
  5  4  2  0
  7  6  1  1
  7  9  1  0
  7  8  1  0
  8  4  1  0
  9 18  1  0
 10  9  2  0
 12 22  2  0
 12 11  1  0
 13 12  1  0
 14 15  1  0
 14 13  2  0
 15 21  2  0
 16 15  1  0
 17 19  1  0
 17 16  1  6
 18 17  1  0
 19 20  2  0
 19 23  1  0
 21 22  1  0
M  END
$$$$
