AAY.pdb
     RDKit          3D

 23 23  0  0  1  0  0  0  0  0999 V2000
   22.5144  -13.8874  -19.2420 C   0  0  0  0  0  0  0  0  0  0  0  0
   21.6903  -13.2719  -18.1474 C   0  0  2  0  0  0  0  0  0  0  0  0
   20.2993  -13.5864  -18.2933 N   0  0  0  0  0  0  0  0  0  0  0  0
   21.9226  -11.7994  -18.0370 C   0  0  0  0  0  0  0  0  0  0  0  0
   23.0636  -11.3240  -17.7694 O   0  0  0  0  0  0  0  0  0  0  0  0
   20.0497   -8.6377  -18.8625 C   0  0  0  0  0  0  0  0  0  0  0  0
   21.0892   -9.4482  -18.1274 C   0  0  2  0  0  0  0  0  0  0  0  0
   20.8765  -10.8560  -18.2261 N   0  0  0  0  0  0  0  0  0  0  0  0
   21.2140   -8.9720  -16.7262 C   0  0  0  0  0  0  0  0  0  0  0  0
   20.5024   -9.4651  -15.8201 O   0  0  0  0  0  0  0  0  0  0  0  0
   27.9238  -10.0423  -17.0799 O   0  0  0  0  0  0  0  0  0  0  0  0
   26.7614   -9.6888  -16.4111 C   0  0  0  0  0  0  0  0  0  0  0  0
   26.1780  -10.4866  -15.4474 C   0  0  0  0  0  0  0  0  0  0  0  0
   25.0224  -10.1383  -14.7805 C   0  0  0  0  0  0  0  0  0  0  0  0
   24.4063   -8.9412  -15.0763 C   0  0  0  0  0  0  0  0  0  0  0  0
   23.1728   -8.5771  -14.3673 C   0  0  0  0  0  0  0  0  0  0  0  0
   22.3793   -7.4722  -15.0660 C   0  0  2  0  0  0  0  0  0  0  0  0
   22.1502   -7.9488  -16.4189 N   0  0  0  0  0  0  0  0  0  0  0  0
   23.0758   -6.1759  -15.0481 C   0  0  0  0  0  0  0  0  0  0  0  0
   23.5196   -5.6461  -16.0960 O   0  0  0  0  0  0  0  0  0  0  0  0
   24.9815   -8.1394  -16.0365 C   0  0  0  0  0  0  0  0  0  0  0  0
   26.1371   -8.4899  -16.7019 C   0  0  0  0  0  0  0  0  0  0  0  0
   23.2748   -5.4732  -13.8549 O   0  0  0  0  0  0  0  0  0  0  0  0
  2  1  1  6
  3  2  1  0
  4  2  1  0
  5  4  2  0
  7  6  1  1
  7  9  1  0
  7  8  1  0
  8  4  1  0
  9 18  1  0
 10  9  2  0
 12 22  2  0
 12 11  1  0
 13 12  1  0
 14 15  1  0
 14 13  2  0
 15 21  2  0
 16 15  1  0
 17 19  1  0
 17 16  1  1
 18 17  1  0
 19 20  2  0
 19 23  1  0
 21 22  1  0
M  END
$$$$
