AAY.pdb
     RDKit          3D

 23 23  0  0  1  0  0  0  0  0999 V2000
   43.0753  -10.5944   -4.7240 C   0  0  0  0  0  0  0  0  0  0  0  0
   43.4998  -11.1285   -6.0622 C   0  0  2  0  0  0  0  0  0  0  0  0
   44.9268  -11.1385   -6.1982 N   0  0  0  0  0  0  0  0  0  0  0  0
   42.8355  -10.4023   -7.1873 C   0  0  0  0  0  0  0  0  0  0  0  0
   43.3370   -9.3571   -7.6928 O   0  0  0  0  0  0  0  0  0  0  0  0
   39.7495  -10.8419   -9.3479 C   0  0  0  0  0  0  0  0  0  0  0  0
   40.8853  -10.0786   -8.7114 C   0  0  2  0  0  0  0  0  0  0  0  0
   41.6074  -10.8458   -7.7487 N   0  0  0  0  0  0  0  0  0  0  0  0
   40.3962   -8.7815   -8.1785 C   0  0  0  0  0  0  0  0  0  0  0  0
   39.8074   -8.7283   -7.0735 O   0  0  0  0  0  0  0  0  0  0  0  0
   39.7032   -1.3976   -4.3944 O   0  0  0  0  0  0  0  0  0  0  0  0
   40.0902   -2.4189   -5.2492 C   0  0  0  0  0  0  0  0  0  0  0  0
   40.0894   -2.2882   -6.6233 C   0  0  0  0  0  0  0  0  0  0  0  0
   40.4736   -3.3014   -7.4761 C   0  0  0  0  0  0  0  0  0  0  0  0
   40.8808   -4.5089   -6.9504 C   0  0  0  0  0  0  0  0  0  0  0  0
   41.2838   -5.5869   -7.8627 C   0  0  0  0  0  0  0  0  0  0  0  0
   40.0985   -6.2993   -8.5153 C   0  0  2  0  0  0  0  0  0  0  0  0
   40.6016   -7.5961   -8.9338 N   0  0  0  0  0  0  0  0  0  0  0  0
   39.5291   -5.5392   -9.6396 C   0  0  0  0  0  0  0  0  0  0  0  0
   39.7316   -5.8686  -10.8339 O   0  0  0  0  0  0  0  0  0  0  0  0
   40.8845   -4.6479   -5.5805 C   0  0  0  0  0  0  0  0  0  0  0  0
   40.4999   -3.6332   -4.7300 C   0  0  0  0  0  0  0  0  0  0  0  0
   38.7325   -4.4094   -9.4249 O   0  0  0  0  0  0  0  0  0  0  0  0
  2  1  1  1
  3  2  1  0
  4  2  1  0
  5  4  2  0
  7  6  1  1
  7  9  1  0
  7  8  1  0
  8  4  1  0
  9 18  1  0
 10  9  2  0
 12 22  2  0
 12 11  1  0
 13 12  1  0
 14 15  1  0
 14 13  2  0
 15 21  2  0
 16 15  1  0
 17 19  1  0
 17 16  1  6
 18 17  1  0
 19 20  2  0
 19 23  1  0
 21 22  1  0
M  END
$$$$
