AAY.pdb
     RDKit          3D

 23 23  0  0  1  0  0  0  0  0999 V2000
   17.5715  -12.9952  -14.5069 C   0  0  0  0  0  0  0  0  0  0  0  0
   17.6977  -11.8660  -15.4894 C   0  0  2  0  0  0  0  0  0  0  0  0
   18.7534  -12.1005  -16.4304 N   0  0  0  0  0  0  0  0  0  0  0  0
   17.8420  -10.5455  -14.8040 C   0  0  0  0  0  0  0  0  0  0  0  0
   18.9072  -10.2197  -14.2050 O   0  0  0  0  0  0  0  0  0  0  0  0
   15.7539   -7.3942  -14.4387 C   0  0  0  0  0  0  0  0  0  0  0  0
   16.9583   -8.2810  -14.2368 C   0  0  2  0  0  0  0  0  0  0  0  0
   16.7929   -9.5868  -14.7882 N   0  0  0  0  0  0  0  0  0  0  0  0
   17.3497   -8.2959  -12.8042 C   0  0  0  0  0  0  0  0  0  0  0  0
   16.8717   -9.1506  -12.0223 O   0  0  0  0  0  0  0  0  0  0  0  0
   22.7470   -4.3238  -14.9510 O   0  0  0  0  0  0  0  0  0  0  0  0
   22.1229   -5.0783  -13.9687 C   0  0  0  0  0  0  0  0  0  0  0  0
   21.4540   -4.5143  -12.9010 C   0  0  0  0  0  0  0  0  0  0  0  0
   20.8323   -5.2613  -11.9228 C   0  0  0  0  0  0  0  0  0  0  0  0
   20.8697   -6.6373  -11.9974 C   0  0  0  0  0  0  0  0  0  0  0  0
   20.2109   -7.4287  -10.9503 C   0  0  0  0  0  0  0  0  0  0  0  0
   18.6909   -7.2619  -10.9346 C   0  0  2  0  0  0  0  0  0  0  0  0
   18.2741   -7.3298  -12.3244 N   0  0  0  0  0  0  0  0  0  0  0  0
   18.2646   -6.0088  -10.2913 C   0  0  0  0  0  0  0  0  0  0  0  0
   18.4395   -5.7985   -9.0662 O   0  0  0  0  0  0  0  0  0  0  0  0
   21.5350   -7.2081  -13.0592 C   0  0  0  0  0  0  0  0  0  0  0  0
   22.1558   -6.4589  -14.0361 C   0  0  0  0  0  0  0  0  0  0  0  0
   17.6420   -4.9910  -11.0218 O   0  0  0  0  0  0  0  0  0  0  0  0
  2  1  1  1
  3  2  1  0
  4  2  1  0
  5  4  2  0
  7  6  1  1
  7  9  1  0
  7  8  1  0
  8  4  1  0
  9 18  1  0
 10  9  2  0
 12 22  2  0
 12 11  1  0
 13 12  1  0
 14 15  1  0
 14 13  2  0
 15 21  2  0
 16 15  1  0
 17 19  1  0
 17 16  1  6
 18 17  1  0
 19 20  2  0
 19 23  1  0
 21 22  1  0
M  END
$$$$
