AAY.pdb
     RDKit          3D

 23 23  0  0  1  0  0  0  0  0999 V2000
   23.8189  -13.8634  -15.0493 C   0  0  0  0  0  0  0  0  0  0  0  0
   24.0956  -13.2596  -16.3966 C   0  0  2  0  0  0  0  0  0  0  0  0
   25.5007  -13.2168  -16.6775 N   0  0  0  0  0  0  0  0  0  0  0  0
   23.4536  -11.9182  -16.5477 C   0  0  0  0  0  0  0  0  0  0  0  0
   24.0405  -10.8558  -16.1920 O   0  0  0  0  0  0  0  0  0  0  0  0
   20.2596  -10.5311  -18.0502 C   0  0  0  0  0  0  0  0  0  0  0  0
   21.5196  -10.4907  -17.2205 C   0  0  2  0  0  0  0  0  0  0  0  0
   22.1522  -11.7641  -17.0978 N   0  0  0  0  0  0  0  0  0  0  0  0
   21.2511   -9.8420  -15.9118 C   0  0  0  0  0  0  0  0  0  0  0  0
   20.8562  -10.5195  -14.9343 O   0  0  0  0  0  0  0  0  0  0  0  0
   24.8169   -3.1249  -17.2016 O   0  0  0  0  0  0  0  0  0  0  0  0
   24.2740   -4.1403  -16.4283 C   0  0  0  0  0  0  0  0  0  0  0  0
   23.4402   -3.9017  -15.3545 C   0  0  0  0  0  0  0  0  0  0  0  0
   22.8986   -4.9086  -14.5837 C   0  0  0  0  0  0  0  0  0  0  0  0
   23.1920   -6.2216  -14.8841 C   0  0  0  0  0  0  0  0  0  0  0  0
   22.6173   -7.2904  -14.0570 C   0  0  0  0  0  0  0  0  0  0  0  0
   21.2309   -7.7353  -14.5244 C   0  0  2  0  0  0  0  0  0  0  0  0
   21.4461   -8.4415  -15.7753 N   0  0  0  0  0  0  0  0  0  0  0  0
   20.2965   -6.6090  -14.6802 C   0  0  0  0  0  0  0  0  0  0  0  0
   19.9211   -6.2091  -15.8093 O   0  0  0  0  0  0  0  0  0  0  0  0
   24.0231   -6.4686  -15.9537 C   0  0  0  0  0  0  0  0  0  0  0  0
   24.5633   -5.4599  -16.7229 C   0  0  0  0  0  0  0  0  0  0  0  0
   19.7829   -5.9306  -13.5697 O   0  0  0  0  0  0  0  0  0  0  0  0
  2  1  1  1
  3  2  1  0
  4  2  1  0
  5  4  2  0
  7  6  1  1
  7  9  1  0
  7  8  1  0
  8  4  1  0
  9 18  1  0
 10  9  2  0
 12 22  2  0
 12 11  1  0
 13 12  1  0
 14 15  1  0
 14 13  2  0
 15 21  2  0
 16 15  1  0
 17 19  1  0
 17 16  1  6
 18 17  1  0
 19 20  2  0
 19 23  1  0
 21 22  1  0
M  END
$$$$
