AAY.pdb
     RDKit          3D

 23 23  0  0  1  0  0  0  0  0999 V2000
   20.2987  -23.5459  -12.6294 C   0  0  0  0  0  0  0  0  0  0  0  0
   18.8531  -23.1430  -12.6935 C   0  0  2  0  0  0  0  0  0  0  0  0
   18.7069  -21.7330  -12.9065 N   0  0  0  0  0  0  0  0  0  0  0  0
   18.0916  -23.6098  -11.4949 C   0  0  0  0  0  0  0  0  0  0  0  0
   18.0163  -22.9135  -10.4419 O   0  0  0  0  0  0  0  0  0  0  0  0
   15.6894  -26.3908  -10.6421 C   0  0  0  0  0  0  0  0  0  0  0  0
   16.7129  -25.3287  -10.3222 C   0  0  2  0  0  0  0  0  0  0  0  0
   17.4126  -24.8582  -11.4736 N   0  0  0  0  0  0  0  0  0  0  0  0
   17.6154  -25.7960   -9.2392 C   0  0  0  0  0  0  0  0  0  0  0  0
   18.7239  -26.3127   -9.5126 O   0  0  0  0  0  0  0  0  0  0  0  0
   13.7316  -22.9655   -3.1870 O   0  0  0  0  0  0  0  0  0  0  0  0
   14.8496  -23.4398   -3.8570 C   0  0  0  0  0  0  0  0  0  0  0  0
   15.1946  -23.0259   -5.1278 C   0  0  0  0  0  0  0  0  0  0  0  0
   16.3053  -23.4953   -5.7967 C   0  0  0  0  0  0  0  0  0  0  0  0
   17.1216  -24.4217   -5.1839 C   0  0  0  0  0  0  0  0  0  0  0  0
   18.3004  -24.9229   -5.9024 C   0  0  0  0  0  0  0  0  0  0  0  0
   18.0024  -26.1455   -6.7712 C   0  0  2  0  0  0  0  0  0  0  0  0
   17.2112  -25.6524   -7.8850 N   0  0  0  0  0  0  0  0  0  0  0  0
   17.3089  -27.2117   -6.0308 C   0  0  0  0  0  0  0  0  0  0  0  0
   16.0832  -27.4363   -6.1827 O   0  0  0  0  0  0  0  0  0  0  0  0
   16.7847  -24.8402   -3.9161 C   0  0  0  0  0  0  0  0  0  0  0  0
   15.6736  -24.3692   -3.2494 C   0  0  0  0  0  0  0  0  0  0  0  0
   17.9897  -28.0264   -5.1199 O   0  0  0  0  0  0  0  0  0  0  0  0
  2  1  1  1
  3  2  1  0
  4  2  1  0
  5  4  2  0
  7  6  1  6
  7  9  1  0
  7  8  1  0
  8  4  1  0
  9 18  1  0
 10  9  2  0
 12 22  2  0
 12 11  1  0
 13 12  1  0
 14 15  1  0
 14 13  2  0
 15 21  2  0
 16 15  1  0
 17 19  1  0
 17 16  1  1
 18 17  1  0
 19 20  2  0
 19 23  1  0
 21 22  1  0
M  END
$$$$
