AAY.pdb
     RDKit          3D

 23 23  0  0  1  0  0  0  0  0999 V2000
   17.2335   -8.9456  -16.3224 C   0  0  0  0  0  0  0  0  0  0  0  0
   18.2580   -9.0464  -17.4163 C   0  0  2  0  0  0  0  0  0  0  0  0
   18.9127  -10.3217  -17.4105 N   0  0  0  0  0  0  0  0  0  0  0  0
   19.2346   -7.9158  -17.3700 C   0  0  0  0  0  0  0  0  0  0  0  0
   20.1994   -7.9030  -16.5523 O   0  0  0  0  0  0  0  0  0  0  0  0
   19.9952   -4.8620  -19.4738 C   0  0  0  0  0  0  0  0  0  0  0  0
   20.1048   -5.7521  -18.2600 C   0  0  2  0  0  0  0  0  0  0  0  0
   19.1324   -6.7965  -18.2399 N   0  0  0  0  0  0  0  0  0  0  0  0
   20.1086   -4.9322  -17.0216 C   0  0  0  0  0  0  0  0  0  0  0  0
   19.0392   -4.6900  -16.4148 O   0  0  0  0  0  0  0  0  0  0  0  0
   21.3062   -9.4252  -12.5800 O   0  0  0  0  0  0  0  0  0  0  0  0
   21.6107   -8.1538  -13.0433 C   0  0  0  0  0  0  0  0  0  0  0  0
   21.1668   -7.0031  -12.4236 C   0  0  0  0  0  0  0  0  0  0  0  0
   21.4676   -5.7376  -12.8814 C   0  0  0  0  0  0  0  0  0  0  0  0
   22.2470   -5.5948  -14.0093 C   0  0  0  0  0  0  0  0  0  0  0  0
   22.5602   -4.2451  -14.4962 C   0  0  0  0  0  0  0  0  0  0  0  0
   21.4304   -3.6231  -15.3180 C   0  0  2  0  0  0  0  0  0  0  0  0
   21.3389   -4.4221  -16.5276 N   0  0  0  0  0  0  0  0  0  0  0  0
   21.6609   -2.1999  -15.6128 C   0  0  0  0  0  0  0  0  0  0  0  0
   21.7139   -1.3339  -14.7055 O   0  0  0  0  0  0  0  0  0  0  0  0
   22.6940   -6.7376  -14.6338 C   0  0  0  0  0  0  0  0  0  0  0  0
   22.3918   -8.0018  -14.1740 C   0  0  0  0  0  0  0  0  0  0  0  0
   21.8320   -1.7471  -16.9254 O   0  0  0  0  0  0  0  0  0  0  0  0
  2  1  1  1
  3  2  1  0
  4  2  1  0
  5  4  2  0
  7  6  1  6
  7  9  1  0
  7  8  1  0
  8  4  1  0
  9 18  1  0
 10  9  2  0
 12 22  2  0
 12 11  1  0
 13 12  1  0
 14 15  1  0
 14 13  2  0
 15 21  2  0
 16 15  1  0
 17 19  1  0
 17 16  1  1
 18 17  1  0
 19 20  2  0
 19 23  1  0
 21 22  1  0
M  END
$$$$
