AAY.pdb
     RDKit          3D

 23 23  0  0  1  0  0  0  0  0999 V2000
   27.9185  -18.1919  -16.2508 C   0  0  0  0  0  0  0  0  0  0  0  0
   28.0030  -19.4482  -15.4319 C   0  0  2  0  0  0  0  0  0  0  0  0
   27.7595  -20.6150  -16.2284 N   0  0  0  0  0  0  0  0  0  0  0  0
   27.1111  -19.3925  -14.2337 C   0  0  0  0  0  0  0  0  0  0  0  0
   27.2130  -18.4738  -13.3705 O   0  0  0  0  0  0  0  0  0  0  0  0
   23.9096  -20.9910  -13.1001 C   0  0  0  0  0  0  0  0  0  0  0  0
   25.2386  -20.3154  -12.8652 C   0  0  2  0  0  0  0  0  0  0  0  0
   26.1027  -20.3664  -13.9999 N   0  0  0  0  0  0  0  0  0  0  0  0
   25.8680  -20.8390  -11.6261 C   0  0  0  0  0  0  0  0  0  0  0  0
   26.5283  -21.9039  -11.6482 O   0  0  0  0  0  0  0  0  0  0  0  0
   29.5069  -20.0710   -3.5991 O   0  0  0  0  0  0  0  0  0  0  0  0
   28.9427  -19.8925   -4.8534 C   0  0  0  0  0  0  0  0  0  0  0  0
   27.8626  -19.0632   -5.0792 C   0  0  0  0  0  0  0  0  0  0  0  0
   27.2991  -18.8833   -6.3248 C   0  0  0  0  0  0  0  0  0  0  0  0
   27.8253  -19.5546   -7.4077 C   0  0  0  0  0  0  0  0  0  0  0  0
   27.2184  -19.3641   -8.7314 C   0  0  0  0  0  0  0  0  0  0  0  0
   26.3397  -20.5375   -9.1665 C   0  0  2  0  0  0  0  0  0  0  0  0
   25.7155  -20.1208  -10.4101 N   0  0  0  0  0  0  0  0  0  0  0  0
   25.3452  -20.9095   -8.1475 C   0  0  0  0  0  0  0  0  0  0  0  0
   25.6438  -21.6196   -7.1563 O   0  0  0  0  0  0  0  0  0  0  0  0
   28.9028  -20.3841   -7.1913 C   0  0  0  0  0  0  0  0  0  0  0  0
   29.4644  -20.5622   -5.9448 C   0  0  0  0  0  0  0  0  0  0  0  0
   24.0153  -20.4853   -8.2396 O   0  0  0  0  0  0  0  0  0  0  0  0
  2  1  1  6
  3  2  1  0
  4  2  1  0
  5  4  2  0
  7  6  1  6
  7  9  1  0
  7  8  1  0
  8  4  1  0
  9 18  1  0
 10  9  2  0
 12 22  2  0
 12 11  1  0
 13 12  1  0
 14 15  1  0
 14 13  2  0
 15 21  2  0
 16 15  1  0
 17 19  1  0
 17 16  1  1
 18 17  1  0
 19 20  2  0
 19 23  1  0
 21 22  1  0
M  END
$$$$
