VNI.pdb
     RDKit          3D

 24 23  0  0  1  0  0  0  0  0999 V2000
    6.6372  -14.3821   18.9989 C   0  0  0  0  0  0  0  0  0  0  0  0
    7.4819  -13.1925   19.4387 C   0  0  2  0  0  0  0  0  0  0  0  0
    7.9366  -12.4884   18.1788 C   0  0  0  0  0  0  0  0  0  0  0  0
    8.7152  -13.6643   20.1715 C   0  0  2  0  0  0  0  0  0  0  0  0
    9.4160  -14.5878   19.2971 N   0  0  0  0  0  0  0  0  0  0  0  0
    8.3483  -14.4243   21.3988 C   0  0  0  0  0  0  0  0  0  0  0  0
    7.5216  -14.0055   22.2418 O   0  0  0  0  0  0  0  0  0  0  0  0
    8.7835  -19.2555   20.7618 N   0  0  0  0  0  0  0  0  0  0  0  0
    9.5327  -18.3741   21.5308 C   0  0  0  0  0  0  0  0  0  0  0  0
   10.6445  -17.9713   21.0423 O   0  0  0  0  0  0  0  0  0  0  0  0
    9.1975  -17.8412   22.8564 C   0  0  0  0  0  0  0  0  0  0  0  0
    8.6982  -16.4445   22.8720 C   0  0  2  0  0  0  0  0  0  0  0  0
    8.9410  -15.7052   21.6788 N   0  0  0  0  0  0  0  0  0  0  0  0
    9.2877  -15.7697   24.0835 C   0  0  0  0  0  0  0  0  0  0  0  0
   10.5053  -15.4584   24.1403 O   0  0  0  0  0  0  0  0  0  0  0  0
    6.1591  -12.1721   26.2901 C   0  0  0  0  0  0  0  0  0  0  0  0
    7.3390  -12.9265   25.7152 C   0  0  0  0  0  0  0  0  0  0  0  0
    7.9161  -13.7741   26.8005 C   0  0  2  0  0  0  0  0  0  0  0  0
    8.3653  -12.8978   27.9462 C   0  0  0  0  0  0  0  0  0  0  0  0
    9.0151  -14.7009   26.3515 C   0  0  2  0  0  0  0  0  0  0  0  0
    8.4857  -15.4580   25.2135 N   0  0  0  0  0  0  0  0  0  0  0  0
    9.4342  -15.6297   27.4260 C   0  0  0  0  0  0  0  0  0  0  0  0
   10.2370  -15.3368   28.3433 O   0  0  0  0  0  0  0  0  0  0  0  0
    8.9079  -16.9100   27.4236 O   0  0  0  0  0  0  0  0  0  0  0  0
  2  1  1  6
  2  3  1  0
  2  4  1  0
  4  6  1  0
  4  5  1  6
  6 13  1  0
  6  7  2  0
  9 10  2  0
  9  8  1  0
 11  9  1  0
 12 11  1  6
 12 14  1  0
 13 12  1  0
 14 15  2  0
 17 16  1  0
 18 17  1  0
 18 20  1  0
 18 19  1  1
 20 21  1  6
 21 14  1  0
 22 24  1  0
 22 20  1  0
 23 22  2  0
M  END
$$$$
