VNI.pdb
     RDKit          3D

 24 23  0  0  1  0  0  0  0  0999 V2000
    7.8284  -12.7536   18.2128 C   0  0  0  0  0  0  0  0  0  0  0  0
    7.7242  -13.3905   19.5932 C   0  0  2  0  0  0  0  0  0  0  0  0
    8.5625  -12.5472   20.5291 C   0  0  0  0  0  0  0  0  0  0  0  0
    8.3124  -14.7813   19.5774 C   0  0  2  0  0  0  0  0  0  0  0  0
    7.5626  -15.5614   18.6089 N   0  0  0  0  0  0  0  0  0  0  0  0
    8.1393  -15.4486   20.8977 C   0  0  0  0  0  0  0  0  0  0  0  0
    7.0180  -15.6771   21.4075 O   0  0  0  0  0  0  0  0  0  0  0  0
    9.0229  -19.7194   21.6935 N   0  0  0  0  0  0  0  0  0  0  0  0
    9.9142  -18.6739   21.8976 C   0  0  0  0  0  0  0  0  0  0  0  0
   10.7847  -18.4608   20.9843 O   0  0  0  0  0  0  0  0  0  0  0  0
    9.9789  -17.7703   23.0521 C   0  0  0  0  0  0  0  0  0  0  0  0
    9.1839  -16.5241   22.9290 C   0  0  2  0  0  0  0  0  0  0  0  0
    9.2799  -15.8714   21.6664 N   0  0  0  0  0  0  0  0  0  0  0  0
    9.5878  -15.6190   24.0641 C   0  0  0  0  0  0  0  0  0  0  0  0
   10.7198  -15.0715   24.1028 O   0  0  0  0  0  0  0  0  0  0  0  0
    5.8464  -12.5384   26.2842 C   0  0  0  0  0  0  0  0  0  0  0  0
    7.1152  -13.0991   25.6778 C   0  0  0  0  0  0  0  0  0  0  0  0
    7.8652  -13.8097   26.7556 C   0  0  2  0  0  0  0  0  0  0  0  0
    8.1776  -12.8475   27.8777 C   0  0  0  0  0  0  0  0  0  0  0  0
    9.1023  -14.5289   26.2858 C   0  0  2  0  0  0  0  0  0  0  0  0
    8.7001  -15.3488   25.1392 N   0  0  0  0  0  0  0  0  0  0  0  0
    9.6827  -15.3880   27.3432 C   0  0  0  0  0  0  0  0  0  0  0  0
    9.3592  -16.5826   27.5432 O   0  0  0  0  0  0  0  0  0  0  0  0
   10.6485  -14.8415   28.1707 O   0  0  0  0  0  0  0  0  0  0  0  0
  2  1  1  6
  2  3  1  0
  2  4  1  0
  4  6  1  0
  4  5  1  6
  6 13  1  0
  6  7  2  0
  9 10  2  0
  9  8  1  0
 11  9  1  0
 12 11  1  6
 12 14  1  0
 13 12  1  0
 14 15  2  0
 17 16  1  0
 18 17  1  0
 18 20  1  0
 18 19  1  1
 20 21  1  6
 21 14  1  0
 22 24  1  0
 22 20  1  0
 23 22  2  0
M  END
$$$$
