VNI.pdb
     RDKit          3D

 24 23  0  0  1  0  0  0  0  0999 V2000
    8.1946  -13.0479   17.3871 C   0  0  0  0  0  0  0  0  0  0  0  0
    7.7080  -13.5867   18.7269 C   0  0  2  0  0  0  0  0  0  0  0  0
    7.1780  -12.4041   19.5082 C   0  0  0  0  0  0  0  0  0  0  0  0
    8.8593  -14.1740   19.5080 C   0  0  2  0  0  0  0  0  0  0  0  0
    9.4220  -15.2509   18.7130 N   0  0  0  0  0  0  0  0  0  0  0  0
    8.3846  -14.7799   20.7832 C   0  0  0  0  0  0  0  0  0  0  0  0
    7.6254  -14.1851   21.5828 O   0  0  0  0  0  0  0  0  0  0  0  0
    7.5528  -19.8684   21.3954 N   0  0  0  0  0  0  0  0  0  0  0  0
    8.6437  -19.0149   21.4987 C   0  0  0  0  0  0  0  0  0  0  0  0
    9.4854  -19.0223   20.5351 O   0  0  0  0  0  0  0  0  0  0  0  0
    8.9520  -18.0916   22.5969 C   0  0  0  0  0  0  0  0  0  0  0  0
    8.4611  -16.7034   22.4167 C   0  0  2  0  0  0  0  0  0  0  0  0
    8.7861  -16.1082   21.1639 N   0  0  0  0  0  0  0  0  0  0  0  0
    8.9741  -15.8908   23.5773 C   0  0  0  0  0  0  0  0  0  0  0  0
   10.1981  -15.6364   23.7169 O   0  0  0  0  0  0  0  0  0  0  0  0
    6.8327  -11.2999   26.7646 C   0  0  0  0  0  0  0  0  0  0  0  0
    7.8780  -12.3929   26.8313 C   0  0  0  0  0  0  0  0  0  0  0  0
    7.5384  -13.4178   25.8001 C   0  0  2  0  0  0  0  0  0  0  0  0
    6.1620  -13.9776   26.0730 C   0  0  0  0  0  0  0  0  0  0  0  0
    8.5596  -14.5145   25.6496 C   0  0  2  0  0  0  0  0  0  0  0  0
    8.0891  -15.3786   24.5630 N   0  0  0  0  0  0  0  0  0  0  0  0
    8.7161  -15.3044   26.8924 C   0  0  0  0  0  0  0  0  0  0  0  0
    8.1723  -16.4149   27.1000 O   0  0  0  0  0  0  0  0  0  0  0  0
    9.5156  -14.7879   27.8974 O   0  0  0  0  0  0  0  0  0  0  0  0
  2  1  1  6
  2  3  1  0
  2  4  1  0
  4  6  1  0
  4  5  1  6
  6 13  1  0
  6  7  2  0
  9 10  2  0
  9  8  1  0
 11  9  1  0
 12 11  1  6
 12 14  1  0
 13 12  1  0
 14 15  2  0
 17 16  1  0
 18 17  1  0
 18 20  1  0
 18 19  1  1
 20 21  1  6
 21 14  1  0
 22 24  1  0
 22 20  1  0
 23 22  2  0
M  END
$$$$
