VNI.pdb
     RDKit          3D

 24 23  0  0  1  0  0  0  0  0999 V2000
    8.0627  -15.1514   17.7629 C   0  0  0  0  0  0  0  0  0  0  0  0
    7.4263  -13.8881   18.3297 C   0  0  2  0  0  0  0  0  0  0  0  0
    7.6279  -12.7967   17.3011 C   0  0  0  0  0  0  0  0  0  0  0  0
    8.1340  -13.4635   19.5943 C   0  0  2  0  0  0  0  0  0  0  0  0
    9.5394  -13.2923   19.2717 N   0  0  0  0  0  0  0  0  0  0  0  0
    8.0550  -14.5283   20.6329 C   0  0  0  0  0  0  0  0  0  0  0  0
    6.9710  -14.9698   21.0796 O   0  0  0  0  0  0  0  0  0  0  0  0
   11.2603  -19.0191   23.4887 N   0  0  0  0  0  0  0  0  0  0  0  0
   10.1927  -18.2236   23.0927 C   0  0  0  0  0  0  0  0  0  0  0  0
    9.0903  -18.3665   23.7261 O   0  0  0  0  0  0  0  0  0  0  0  0
   10.1767  -17.2235   22.0188 C   0  0  0  0  0  0  0  0  0  0  0  0
    9.2453  -16.0872   22.2225 C   0  0  2  0  0  0  0  0  0  0  0  0
    9.2491  -15.1124   21.1837 N   0  0  0  0  0  0  0  0  0  0  0  0
    9.5617  -15.4815   23.5656 C   0  0  0  0  0  0  0  0  0  0  0  0
   10.6398  -14.8688   23.7773 O   0  0  0  0  0  0  0  0  0  0  0  0
    6.8402  -11.7739   26.9502 C   0  0  0  0  0  0  0  0  0  0  0  0
    7.8556  -12.8810   27.1370 C   0  0  0  0  0  0  0  0  0  0  0  0
    7.7864  -13.7751   25.9432 C   0  0  2  0  0  0  0  0  0  0  0  0
    6.4021  -14.3701   25.8326 C   0  0  0  0  0  0  0  0  0  0  0  0
    8.8496  -14.8407   25.8985 C   0  0  2  0  0  0  0  0  0  0  0  0
    8.6489  -15.5805   24.6491 N   0  0  0  0  0  0  0  0  0  0  0  0
    8.7617  -15.7643   27.0528 C   0  0  0  0  0  0  0  0  0  0  0  0
    9.0859  -15.4653   28.2264 O   0  0  0  0  0  0  0  0  0  0  0  0
    8.2904  -17.0463   26.8281 O   0  0  0  0  0  0  0  0  0  0  0  0
  2  1  1  6
  2  3  1  0
  2  4  1  0
  4  6  1  0
  4  5  1  6
  6 13  1  0
  6  7  2  0
  9 10  2  0
  9  8  1  0
 11  9  1  0
 12 11  1  6
 12 14  1  0
 13 12  1  0
 14 15  2  0
 17 16  1  0
 18 17  1  0
 18 20  1  0
 18 19  1  1
 20 21  1  6
 21 14  1  0
 22 24  1  0
 22 20  1  0
 23 22  2  0
M  END
$$$$
