VNI.pdb
     RDKit          3D

 24 23  0  0  1  0  0  0  0  0999 V2000
    6.2795  -19.7893   21.4229 C   0  0  0  0  0  0  0  0  0  0  0  0
    5.5729  -19.7790   22.7730 C   0  0  2  0  0  0  0  0  0  0  0  0
    4.0867  -19.7500   22.4894 C   0  0  0  0  0  0  0  0  0  0  0  0
    5.9185  -18.5242   23.5389 C   0  0  2  0  0  0  0  0  0  0  0  0
    5.3689  -17.3988   22.8041 N   0  0  0  0  0  0  0  0  0  0  0  0
    7.3934  -18.3242   23.5971 C   0  0  0  0  0  0  0  0  0  0  0  0
    8.1696  -19.1186   24.1766 O   0  0  0  0  0  0  0  0  0  0  0  0
   12.4046  -16.8095   21.6758 N   0  0  0  0  0  0  0  0  0  0  0  0
   11.3870  -15.8932   21.9082 C   0  0  0  0  0  0  0  0  0  0  0  0
   11.7327  -14.6913   22.1787 O   0  0  0  0  0  0  0  0  0  0  0  0
    9.9409  -16.1413   21.8805 C   0  0  0  0  0  0  0  0  0  0  0  0
    9.4054  -16.9077   23.0321 C   0  0  2  0  0  0  0  0  0  0  0  0
    8.0086  -17.1817   22.9753 N   0  0  0  0  0  0  0  0  0  0  0  0
    9.7831  -16.1600   24.2847 C   0  0  0  0  0  0  0  0  0  0  0  0
   10.9848  -15.9626   24.6001 O   0  0  0  0  0  0  0  0  0  0  0  0
    6.2884  -12.4160   25.6125 C   0  0  0  0  0  0  0  0  0  0  0  0
    7.5853  -13.1353   25.3086 C   0  0  0  0  0  0  0  0  0  0  0  0
    8.0035  -13.8697   26.5395 C   0  0  2  0  0  0  0  0  0  0  0  0
    8.3126  -12.8826   27.6407 C   0  0  0  0  0  0  0  0  0  0  0  0
    9.1378  -14.8388   26.3336 C   0  0  2  0  0  0  0  0  0  0  0  0
    8.7903  -15.6472   25.1613 N   0  0  0  0  0  0  0  0  0  0  0  0
    9.3423  -15.7151   27.5097 C   0  0  0  0  0  0  0  0  0  0  0  0
    8.7999  -16.8351   27.6623 O   0  0  0  0  0  0  0  0  0  0  0  0
   10.1884  -15.2741   28.5126 O   0  0  0  0  0  0  0  0  0  0  0  0
  2  1  1  6
  2  3  1  0
  2  4  1  0
  4  6  1  0
  4  5  1  6
  6 13  1  0
  6  7  2  0
  9 10  2  0
  9  8  1  0
 11  9  1  0
 12 11  1  6
 12 14  1  0
 13 12  1  0
 14 15  2  0
 17 16  1  0
 18 17  1  0
 18 20  1  0
 18 19  1  1
 20 21  1  6
 21 14  1  0
 22 24  1  0
 22 20  1  0
 23 22  2  0
M  END
$$$$
