VNI.pdb
     RDKit          3D

 24 23  0  0  1  0  0  0  0  0999 V2000
    6.5952  -14.2855   18.6337 C   0  0  0  0  0  0  0  0  0  0  0  0
    7.6355  -13.2627   19.0742 C   0  0  2  0  0  0  0  0  0  0  0  0
    8.2732  -12.7166   17.8153 C   0  0  0  0  0  0  0  0  0  0  0  0
    8.7199  -13.9303   19.8858 C   0  0  2  0  0  0  0  0  0  0  0  0
    9.2431  -15.0298   19.0946 N   0  0  0  0  0  0  0  0  0  0  0  0
    8.1639  -14.5220   21.1345 C   0  0  0  0  0  0  0  0  0  0  0  0
    7.5233  -13.8568   21.9810 O   0  0  0  0  0  0  0  0  0  0  0  0
    6.5535  -19.3535   24.2748 N   0  0  0  0  0  0  0  0  0  0  0  0
    7.7009  -18.6349   23.9645 C   0  0  0  0  0  0  0  0  0  0  0  0
    8.5720  -18.4952   24.8912 O   0  0  0  0  0  0  0  0  0  0  0  0
    8.0397  -18.0071   22.6821 C   0  0  0  0  0  0  0  0  0  0  0  0
    7.9016  -16.5307   22.6413 C   0  0  2  0  0  0  0  0  0  0  0  0
    8.3415  -15.9185   21.4325 N   0  0  0  0  0  0  0  0  0  0  0  0
    8.6180  -15.9785   23.8465 C   0  0  0  0  0  0  0  0  0  0  0  0
    9.8605  -15.7821   23.8449 O   0  0  0  0  0  0  0  0  0  0  0  0
    6.8856  -11.4902   27.1974 C   0  0  0  0  0  0  0  0  0  0  0  0
    7.8963  -12.6164   27.2412 C   0  0  0  0  0  0  0  0  0  0  0  0
    7.4984  -13.6318   26.2215 C   0  0  2  0  0  0  0  0  0  0  0  0
    6.1098  -14.1426   26.5269 C   0  0  0  0  0  0  0  0  0  0  0  0
    8.4772  -14.7637   26.0521 C   0  0  2  0  0  0  0  0  0  0  0  0
    7.9126  -15.6573   25.0366 N   0  0  0  0  0  0  0  0  0  0  0  0
    8.6942  -15.5062   27.3149 C   0  0  0  0  0  0  0  0  0  0  0  0
    9.2982  -15.0468   28.3128 O   0  0  0  0  0  0  0  0  0  0  0  0
    8.1992  -16.7957   27.4068 O   0  0  0  0  0  0  0  0  0  0  0  0
  2  1  1  6
  2  3  1  0
  2  4  1  0
  4  6  1  0
  4  5  1  6
  6 13  1  0
  6  7  2  0
  9 10  2  0
  9  8  1  0
 11  9  1  0
 12 11  1  6
 12 14  1  0
 13 12  1  0
 14 15  2  0
 17 16  1  0
 18 17  1  0
 18 20  1  0
 18 19  1  1
 20 21  1  6
 21 14  1  0
 22 24  1  0
 22 20  1  0
 23 22  2  0
M  END
$$$$
