VNI.pdb
     RDKit          3D

 24 23  0  0  1  0  0  0  0  0999 V2000
    7.0256  -14.9290   18.9503 C   0  0  0  0  0  0  0  0  0  0  0  0
    7.4031  -13.5125   19.3667 C   0  0  2  0  0  0  0  0  0  0  0  0
    7.7628  -12.7651   18.1011 C   0  0  0  0  0  0  0  0  0  0  0  0
    8.6265  -13.5320   20.2518 C   0  0  2  0  0  0  0  0  0  0  0  0
    9.7023  -14.1485   19.4961 N   0  0  0  0  0  0  0  0  0  0  0  0
    8.4010  -14.3807   21.4548 C   0  0  0  0  0  0  0  0  0  0  0  0
    7.4739  -14.1770   22.2724 O   0  0  0  0  0  0  0  0  0  0  0  0
   10.7245  -19.1422   24.6172 N   0  0  0  0  0  0  0  0  0  0  0  0
    9.6802  -18.5405   23.9267 C   0  0  0  0  0  0  0  0  0  0  0  0
    8.4946  -18.7521   24.3588 O   0  0  0  0  0  0  0  0  0  0  0  0
    9.7744  -17.6780   22.7432 C   0  0  0  0  0  0  0  0  0  0  0  0
    9.0750  -16.3742   22.8497 C   0  0  2  0  0  0  0  0  0  0  0  0
    9.2586  -15.5005   21.7396 N   0  0  0  0  0  0  0  0  0  0  0  0
    9.5054  -15.7376   24.1459 C   0  0  0  0  0  0  0  0  0  0  0  0
   10.7022  -15.4131   24.3580 O   0  0  0  0  0  0  0  0  0  0  0  0
    6.2560  -12.1154   26.1014 C   0  0  0  0  0  0  0  0  0  0  0  0
    7.4543  -12.9205   25.6456 C   0  0  0  0  0  0  0  0  0  0  0  0
    7.8362  -13.8447   26.7544 C   0  0  2  0  0  0  0  0  0  0  0  0
    8.1412  -13.0462   28.0001 C   0  0  0  0  0  0  0  0  0  0  0  0
    8.9574  -14.7927   26.4190 C   0  0  2  0  0  0  0  0  0  0  0  0
    8.5701  -15.4787   25.1828 N   0  0  0  0  0  0  0  0  0  0  0  0
    9.1905  -15.7828   27.4952 C   0  0  0  0  0  0  0  0  0  0  0  0
    8.5821  -16.8742   27.5986 O   0  0  0  0  0  0  0  0  0  0  0  0
   10.1432  -15.4902   28.4558 O   0  0  0  0  0  0  0  0  0  0  0  0
  2  1  1  6
  2  3  1  0
  2  4  1  0
  4  6  1  0
  4  5  1  6
  6 13  1  0
  6  7  2  0
  9 10  2  0
  9  8  1  0
 11  9  1  0
 12 11  1  6
 12 14  1  0
 13 12  1  0
 14 15  2  0
 17 16  1  0
 18 17  1  0
 18 20  1  0
 18 19  1  1
 20 21  1  6
 21 14  1  0
 22 24  1  0
 22 20  1  0
 23 22  2  0
M  END
$$$$
