VNI.pdb
     RDKit          3D

 24 23  0  0  1  0  0  0  0  0999 V2000
    6.6775  -14.3374   18.9268 C   0  0  0  0  0  0  0  0  0  0  0  0
    7.6744  -13.2392   19.2768 C   0  0  2  0  0  0  0  0  0  0  0  0
    8.1501  -12.6463   17.9684 C   0  0  0  0  0  0  0  0  0  0  0  0
    8.8764  -13.8234   19.9799 C   0  0  2  0  0  0  0  0  0  0  0  0
    9.4184  -14.8651   19.1257 N   0  0  0  0  0  0  0  0  0  0  0  0
    8.4811  -14.4752   21.2595 C   0  0  0  0  0  0  0  0  0  0  0  0
    7.7720  -13.9111   22.1246 O   0  0  0  0  0  0  0  0  0  0  0  0
    9.6035  -19.2303   20.7608 N   0  0  0  0  0  0  0  0  0  0  0  0
    8.7305  -18.7223   21.7143 C   0  0  0  0  0  0  0  0  0  0  0  0
    7.4901  -19.0072   21.5824 O   0  0  0  0  0  0  0  0  0  0  0  0
    9.0646  -17.8855   22.8726 C   0  0  0  0  0  0  0  0  0  0  0  0
    8.6054  -16.4772   22.7927 C   0  0  2  0  0  0  0  0  0  0  0  0
    8.9061  -15.8149   21.5678 N   0  0  0  0  0  0  0  0  0  0  0  0
    9.1765  -15.7498   23.9823 C   0  0  0  0  0  0  0  0  0  0  0  0
   10.3903  -15.4239   24.0382 O   0  0  0  0  0  0  0  0  0  0  0  0
    6.0094  -12.3856   27.1437 C   0  0  0  0  0  0  0  0  0  0  0  0
    6.6280  -13.6922   26.6944 C   0  0  0  0  0  0  0  0  0  0  0  0
    8.0753  -13.4466   26.4223 C   0  0  2  0  0  0  0  0  0  0  0  0
    8.2205  -12.5262   25.2330 C   0  0  0  0  0  0  0  0  0  0  0  0
    8.9005  -14.6955   26.2567 C   0  0  2  0  0  0  0  0  0  0  0  0
    8.3606  -15.4028   25.0918 N   0  0  0  0  0  0  0  0  0  0  0  0
    8.8373  -15.5675   27.4519 C   0  0  0  0  0  0  0  0  0  0  0  0
    8.2410  -16.6695   27.4949 O   0  0  0  0  0  0  0  0  0  0  0  0
    9.4779  -15.1435   28.6034 O   0  0  0  0  0  0  0  0  0  0  0  0
  2  1  1  6
  2  3  1  0
  2  4  1  0
  4  6  1  0
  4  5  1  6
  6 13  1  0
  6  7  2  0
  9 10  2  0
  9  8  1  0
 11  9  1  0
 12 11  1  6
 12 14  1  0
 13 12  1  0
 14 15  2  0
 17 16  1  0
 18 17  1  0
 18 20  1  0
 18 19  1  6
 20 21  1  6
 21 14  1  0
 22 24  1  0
 22 20  1  0
 23 22  2  0
M  END
$$$$
