VNI.pdb
     RDKit          3D

 24 23  0  0  1  0  0  0  0  0999 V2000
    7.0269  -14.8618   18.3370 C   0  0  0  0  0  0  0  0  0  0  0  0
    7.2775  -13.4882   18.9474 C   0  0  2  0  0  0  0  0  0  0  0  0
    7.5576  -12.5431   17.7992 C   0  0  0  0  0  0  0  0  0  0  0  0
    8.5048  -13.5184   19.8268 C   0  0  2  0  0  0  0  0  0  0  0  0
    9.5783  -14.1221   19.0576 N   0  0  0  0  0  0  0  0  0  0  0  0
    8.2859  -14.3850   21.0183 C   0  0  0  0  0  0  0  0  0  0  0  0
    7.3163  -14.2434   21.7989 O   0  0  0  0  0  0  0  0  0  0  0  0
   10.7891  -18.7363   20.5339 N   0  0  0  0  0  0  0  0  0  0  0  0
    9.8653  -18.3660   21.5028 C   0  0  0  0  0  0  0  0  0  0  0  0
    8.7199  -18.9349   21.4666 O   0  0  0  0  0  0  0  0  0  0  0  0
   10.0476  -17.3857   22.5796 C   0  0  0  0  0  0  0  0  0  0  0  0
    9.1372  -16.2155   22.5344 C   0  0  2  0  0  0  0  0  0  0  0  0
    9.2002  -15.4501   21.3346 N   0  0  0  0  0  0  0  0  0  0  0  0
    9.4215  -15.3772   23.7539 C   0  0  0  0  0  0  0  0  0  0  0  0
    9.9732  -14.2500   23.6677 O   0  0  0  0  0  0  0  0  0  0  0  0
    6.8405  -12.1012   27.0849 C   0  0  0  0  0  0  0  0  0  0  0  0
    8.1191  -12.9030   27.2032 C   0  0  0  0  0  0  0  0  0  0  0  0
    8.1406  -13.9011   26.0930 C   0  0  2  0  0  0  0  0  0  0  0  0
    6.7652  -14.5027   25.9228 C   0  0  0  0  0  0  0  0  0  0  0  0
    9.1952  -14.9673   26.2320 C   0  0  2  0  0  0  0  0  0  0  0  0
    9.0749  -15.8315   25.0542 N   0  0  0  0  0  0  0  0  0  0  0  0
    9.0197  -15.7669   27.4661 C   0  0  0  0  0  0  0  0  0  0  0  0
    9.2652  -15.3494   28.6225 O   0  0  0  0  0  0  0  0  0  0  0  0
    8.5533  -17.0643   27.3419 O   0  0  0  0  0  0  0  0  0  0  0  0
  2  1  1  6
  2  3  1  0
  2  4  1  0
  4  6  1  0
  4  5  1  6
  6 13  1  0
  6  7  2  0
  9 10  2  0
  9  8  1  0
 11  9  1  0
 12 11  1  6
 12 14  1  0
 13 12  1  0
 14 15  2  0
 17 16  1  0
 18 17  1  0
 18 20  1  0
 18 19  1  1
 20 21  1  6
 21 14  1  0
 22 24  1  0
 22 20  1  0
 23 22  2  0
M  END
$$$$
