VNI.pdb
     RDKit          3D

 24 23  0  0  1  0  0  0  0  0999 V2000
    6.6845  -14.3782   18.9795 C   0  0  0  0  0  0  0  0  0  0  0  0
    7.5853  -13.2302   19.4186 C   0  0  2  0  0  0  0  0  0  0  0  0
    8.0352  -12.5204   18.1601 C   0  0  0  0  0  0  0  0  0  0  0  0
    8.8174  -13.7624   20.1108 C   0  0  2  0  0  0  0  0  0  0  0  0
    9.4310  -14.7346   19.2237 N   0  0  0  0  0  0  0  0  0  0  0  0
    8.4558  -14.4857   21.3617 C   0  0  0  0  0  0  0  0  0  0  0  0
    7.7011  -14.0032   22.2376 O   0  0  0  0  0  0  0  0  0  0  0  0
    9.7082  -19.1763   20.6613 N   0  0  0  0  0  0  0  0  0  0  0  0
    8.8614  -18.7381   21.6714 C   0  0  0  0  0  0  0  0  0  0  0  0
    7.6300  -19.0760   21.5899 O   0  0  0  0  0  0  0  0  0  0  0  0
    9.2143  -17.9217   22.8386 C   0  0  0  0  0  0  0  0  0  0  0  0
    8.6976  -16.5314   22.8214 C   0  0  2  0  0  0  0  0  0  0  0  0
    8.9693  -15.8033   21.6274 N   0  0  0  0  0  0  0  0  0  0  0  0
    9.2398  -15.8348   24.0426 C   0  0  0  0  0  0  0  0  0  0  0  0
   10.4689  -15.6059   24.1824 O   0  0  0  0  0  0  0  0  0  0  0  0
    6.3031  -11.9529   26.1616 C   0  0  0  0  0  0  0  0  0  0  0  0
    7.4115  -12.8278   25.6158 C   0  0  0  0  0  0  0  0  0  0  0  0
    7.8571  -13.7415   26.7093 C   0  0  2  0  0  0  0  0  0  0  0  0
    8.3230  -12.9280   27.8941 C   0  0  0  0  0  0  0  0  0  0  0  0
    8.8923  -14.7537   26.2944 C   0  0  2  0  0  0  0  0  0  0  0  0
    8.3781  -15.4082   25.0878 N   0  0  0  0  0  0  0  0  0  0  0  0
    9.1401  -15.7620   27.3503 C   0  0  0  0  0  0  0  0  0  0  0  0
    8.4978  -16.8316   27.4741 O   0  0  0  0  0  0  0  0  0  0  0  0
   10.1478  -15.5134   28.2662 O   0  0  0  0  0  0  0  0  0  0  0  0
  2  1  1  6
  2  3  1  0
  2  4  1  0
  4  6  1  0
  4  5  1  6
  6 13  1  0
  6  7  2  0
  9 10  2  0
  9  8  1  0
 11  9  1  0
 12 11  1  6
 12 14  1  0
 13 12  1  0
 14 15  2  0
 17 16  1  0
 18 17  1  0
 18 20  1  0
 18 19  1  1
 20 21  1  6
 21 14  1  0
 22 24  1  0
 22 20  1  0
 23 22  2  0
M  END
$$$$
