VNI.pdb
     RDKit          3D

 24 23  0  0  1  0  0  0  0  0999 V2000
    7.6671  -12.6433   18.0880 C   0  0  0  0  0  0  0  0  0  0  0  0
    7.5831  -13.4030   19.4063 C   0  0  2  0  0  0  0  0  0  0  0  0
    8.4075  -12.6285   20.4115 C   0  0  0  0  0  0  0  0  0  0  0  0
    8.2009  -14.7737   19.2647 C   0  0  2  0  0  0  0  0  0  0  0  0
    7.3733  -15.5326   18.3440 N   0  0  0  0  0  0  0  0  0  0  0  0
    8.1842  -15.5030   20.5633 C   0  0  0  0  0  0  0  0  0  0  0  0
    7.1370  -15.9564   21.0804 O   0  0  0  0  0  0  0  0  0  0  0  0
   10.0983  -19.2007   24.4626 N   0  0  0  0  0  0  0  0  0  0  0  0
   10.6755  -18.0260   23.9977 C   0  0  0  0  0  0  0  0  0  0  0  0
   11.4292  -17.3841   24.8082 O   0  0  0  0  0  0  0  0  0  0  0  0
   10.5226  -17.4231   22.6685 C   0  0  0  0  0  0  0  0  0  0  0  0
    9.4514  -16.4036   22.5525 C   0  0  2  0  0  0  0  0  0  0  0  0
    9.3995  -15.7253   21.3009 N   0  0  0  0  0  0  0  0  0  0  0  0
    9.6134  -15.4478   23.7060 C   0  0  0  0  0  0  0  0  0  0  0  0
   10.5454  -14.6034   23.7395 O   0  0  0  0  0  0  0  0  0  0  0  0
    6.6009  -11.6916   26.8900 C   0  0  0  0  0  0  0  0  0  0  0  0
    7.7634  -12.6403   27.0906 C   0  0  0  0  0  0  0  0  0  0  0  0
    7.7176  -13.6608   26.0017 C   0  0  2  0  0  0  0  0  0  0  0  0
    6.4150  -14.4229   26.0730 C   0  0  0  0  0  0  0  0  0  0  0  0
    8.9003  -14.5926   25.9689 C   0  0  2  0  0  0  0  0  0  0  0  0
    8.7143  -15.4646   24.8053 N   0  0  0  0  0  0  0  0  0  0  0  0
    9.0015  -15.4081   27.2009 C   0  0  0  0  0  0  0  0  0  0  0  0
    9.3687  -14.9665   28.3153 O   0  0  0  0  0  0  0  0  0  0  0  0
    8.6697  -16.7498   27.1243 O   0  0  0  0  0  0  0  0  0  0  0  0
  2  1  1  6
  2  3  1  0
  2  4  1  0
  4  6  1  0
  4  5  1  6
  6 13  1  0
  6  7  2  0
  9 10  2  0
  9  8  1  0
 11  9  1  0
 12 11  1  6
 12 14  1  0
 13 12  1  0
 14 15  2  0
 17 16  1  0
 18 17  1  0
 18 20  1  0
 18 19  1  1
 20 21  1  6
 21 14  1  0
 22 24  1  0
 22 20  1  0
 23 22  2  0
M  END
$$$$
