VNI.pdb
     RDKit          3D

 24 23  0  0  1  0  0  0  0  0999 V2000
    8.0866  -14.6420   18.6719 C   0  0  0  0  0  0  0  0  0  0  0  0
    7.1592  -13.7277   19.4634 C   0  0  2  0  0  0  0  0  0  0  0  0
    7.0034  -12.4572   18.6564 C   0  0  0  0  0  0  0  0  0  0  0  0
    7.7874  -13.3575   20.7858 C   0  0  2  0  0  0  0  0  0  0  0  0
    9.0728  -12.7444   20.5022 N   0  0  0  0  0  0  0  0  0  0  0  0
    8.0582  -14.5710   21.6059 C   0  0  0  0  0  0  0  0  0  0  0  0
    7.1520  -15.3123   22.0516 O   0  0  0  0  0  0  0  0  0  0  0  0
   10.4086  -19.0338   23.3413 N   0  0  0  0  0  0  0  0  0  0  0  0
   11.3061  -18.0422   22.9665 C   0  0  0  0  0  0  0  0  0  0  0  0
   12.5395  -18.2326   23.2488 O   0  0  0  0  0  0  0  0  0  0  0  0
   11.0056  -16.7831   22.2752 C   0  0  0  0  0  0  0  0  0  0  0  0
    9.7357  -16.1275   22.6724 C   0  0  2  0  0  0  0  0  0  0  0  0
    9.4058  -14.9563   21.9315 N   0  0  0  0  0  0  0  0  0  0  0  0
    9.8138  -15.8554   24.1525 C   0  0  0  0  0  0  0  0  0  0  0  0
   10.6254  -16.4655   24.8952 O   0  0  0  0  0  0  0  0  0  0  0  0
    5.8583  -12.5548   26.7077 C   0  0  0  0  0  0  0  0  0  0  0  0
    6.6552  -13.7383   26.2019 C   0  0  0  0  0  0  0  0  0  0  0  0
    8.0994  -13.4680   26.4676 C   0  0  2  0  0  0  0  0  0  0  0  0
    8.5385  -12.2452   25.6967 C   0  0  0  0  0  0  0  0  0  0  0  0
    9.0115  -14.6386   26.2106 C   0  0  2  0  0  0  0  0  0  0  0  0
    8.9687  -14.8941   24.7679 N   0  0  0  0  0  0  0  0  0  0  0  0
    8.5872  -15.8487   26.9514 C   0  0  0  0  0  0  0  0  0  0  0  0
    7.9605  -16.8081   26.4427 O   0  0  0  0  0  0  0  0  0  0  0  0
    8.9003  -15.9330   28.2971 O   0  0  0  0  0  0  0  0  0  0  0  0
  2  1  1  6
  2  3  1  0
  2  4  1  0
  4  6  1  0
  4  5  1  6
  6 13  1  0
  6  7  2  0
  9 10  2  0
  9  8  1  0
 11  9  1  0
 12 11  1  6
 12 14  1  0
 13 12  1  0
 14 15  2  0
 17 16  1  0
 18 17  1  0
 18 20  1  0
 18 19  1  6
 20 21  1  6
 21 14  1  0
 22 24  1  0
 22 20  1  0
 23 22  2  0
M  END
$$$$
