WPS.pdb
     RDKit          3D

 28 30  0  0  1  0  0  0  0  0999 V2000
    6.0946  -18.1966   24.8326 N   0  0  0  0  0  0  0  0  0  0  0  0
    6.6307  -16.9224   24.3638 C   0  0  1  0  0  0  0  0  0  0  0  0
    7.4432  -16.3153   25.4617 C   0  0  0  0  0  0  0  0  0  0  0  0
    6.8458  -15.0941   25.9977 C   0  0  0  0  0  0  0  0  0  0  0  0
    5.5281  -14.8870   26.3850 C   0  0  0  0  0  0  0  0  0  0  0  0
    5.3823  -13.6153   26.7956 N   0  0  0  0  0  0  0  0  0  0  0  0
    6.5556  -12.9826   26.6933 C   0  0  0  0  0  0  0  0  0  0  0  0
    6.9477  -11.6831   26.9983 C   0  0  0  0  0  0  0  0  0  0  0  0
    8.2441  -11.2953   26.8132 C   0  0  0  0  0  0  0  0  0  0  0  0
    9.1872  -12.1688   26.3270 C   0  0  0  0  0  0  0  0  0  0  0  0
    8.7873  -13.4558   26.0266 C   0  0  0  0  0  0  0  0  0  0  0  0
    7.4931  -13.8780   26.1991 C   0  0  0  0  0  0  0  0  0  0  0  0
    7.3302  -17.1126   23.0774 C   0  0  0  0  0  0  0  0  0  0  0  0
    7.5594  -18.3026   22.7131 O   0  0  0  0  0  0  0  0  0  0  0  0
    7.7372  -16.0475   22.2503 N   0  0  0  0  0  0  0  0  0  0  0  0
    7.3908  -14.6598   22.4392 C   0  0  0  0  0  0  0  0  0  0  0  0
    7.3694  -14.0503   21.0460 C   0  0  0  0  0  0  0  0  0  0  0  0
    8.1023  -14.9953   20.1664 C   0  0  0  0  0  0  0  0  0  0  0  0
    8.4968  -16.1497   21.0578 C   0  0  1  0  0  0  0  0  0  0  0  0
    9.9443  -16.2016   21.1459 C   0  0  0  0  0  0  0  0  0  0  0  0
   10.5037  -15.3141   21.8792 O   0  0  0  0  0  0  0  0  0  0  0  0
   11.9232  -19.5617   21.2075 O   0  0  0  0  0  0  0  0  0  0  0  0
   12.5698  -18.4463   21.6897 C   0  0  0  0  0  0  0  0  0  0  0  0
   12.2182  -17.2387   20.8694 C   0  0  2  0  0  0  0  0  0  0  0  0
   10.8368  -17.1078   20.5254 N   0  0  0  0  0  0  0  0  0  0  0  0
   13.1303  -17.2271   19.6812 C   0  0  0  0  0  0  0  0  0  0  0  0
   14.5072  -17.2700   19.7927 O   0  0  0  0  0  0  0  0  0  0  0  0
   12.5980  -17.1761   18.5453 O   0  0  0  0  0  0  0  0  0  0  0  0
  2  1  1  1
  3  4  1  0
  3  2  1  0
  4  5  2  0
  5  6  1  0
  7  8  2  0
  7  6  1  0
  9  8  1  0
 10  9  2  0
 11 10  1  0
 11 12  2  0
 12  4  1  0
 12  7  1  0
 13  2  1  0
 14 13  2  0
 15 13  1  0
 16 15  1  0
 17 16  1  0
 18 17  1  0
 18 19  1  0
 19 15  1  0
 19 20  1  1
 20 25  1  0
 20 21  2  0
 23 22  1  0
 24 23  1  6
 25 24  1  0
 26 24  1  0
 26 27  1  0
 28 26  2  0
M  END
$$$$
