WPS.pdb
     RDKit          3D

 28 30  0  0  1  0  0  0  0  0999 V2000
    6.7956  -17.8237   24.4882 N   0  0  0  0  0  0  0  0  0  0  0  0
    7.0372  -16.5391   23.8383 C   0  0  1  0  0  0  0  0  0  0  0  0
    7.8153  -15.6713   24.7741 C   0  0  0  0  0  0  0  0  0  0  0  0
    6.9599  -14.8171   25.5953 C   0  0  0  0  0  0  0  0  0  0  0  0
    5.7538  -15.1458   26.2005 C   0  0  0  0  0  0  0  0  0  0  0  0
    5.2723  -14.0673   26.8425 N   0  0  0  0  0  0  0  0  0  0  0  0
    6.1191  -13.0453   26.6817 C   0  0  0  0  0  0  0  0  0  0  0  0
    6.1027  -11.7344   27.1473 C   0  0  0  0  0  0  0  0  0  0  0  0
    7.1288  -10.8852   26.8454 C   0  0  0  0  0  0  0  0  0  0  0  0
    8.1951  -11.2979   26.0828 C   0  0  0  0  0  0  0  0  0  0  0  0
    8.2011  -12.6006   25.6250 C   0  0  0  0  0  0  0  0  0  0  0  0
    7.1860  -13.4794   25.9083 C   0  0  0  0  0  0  0  0  0  0  0  0
    7.6423  -16.7531   22.5084 C   0  0  0  0  0  0  0  0  0  0  0  0
    7.7954  -17.9500   22.1275 O   0  0  0  0  0  0  0  0  0  0  0  0
    8.0402  -15.7025   21.6586 N   0  0  0  0  0  0  0  0  0  0  0  0
    7.9419  -14.2956   21.9624 C   0  0  0  0  0  0  0  0  0  0  0  0
    7.7516  -13.6003   20.6233 C   0  0  0  0  0  0  0  0  0  0  0  0
    8.1620  -14.5779   19.5841 C   0  0  0  0  0  0  0  0  0  0  0  0
    8.5418  -15.8305   20.3390 C   0  0  1  0  0  0  0  0  0  0  0  0
    9.9570  -16.0853   20.1441 C   0  0  0  0  0  0  0  0  0  0  0  0
   10.7668  -15.3249   20.7800 O   0  0  0  0  0  0  0  0  0  0  0  0
   11.6642  -19.4775   20.2075 O   0  0  0  0  0  0  0  0  0  0  0  0
   12.4803  -18.3698   20.2509 C   0  0  0  0  0  0  0  0  0  0  0  0
   11.9844  -17.3138   19.3055 C   0  0  2  0  0  0  0  0  0  0  0  0
   10.5762  -17.0696   19.3375 N   0  0  0  0  0  0  0  0  0  0  0  0
   12.4964  -17.6618   17.9414 C   0  0  0  0  0  0  0  0  0  0  0  0
   13.8359  -17.8741   17.6752 O   0  0  0  0  0  0  0  0  0  0  0  0
   11.6536  -17.7597   17.0161 O   0  0  0  0  0  0  0  0  0  0  0  0
  2  1  1  1
  3  4  1  0
  3  2  1  0
  4  5  2  0
  5  6  1  0
  7  8  2  0
  7  6  1  0
  9  8  1  0
 10  9  2  0
 11 10  1  0
 11 12  2  0
 12  4  1  0
 12  7  1  0
 13  2  1  0
 14 13  2  0
 15 13  1  0
 16 15  1  0
 17 16  1  0
 18 17  1  0
 18 19  1  0
 19 15  1  0
 19 20  1  1
 20 25  1  0
 20 21  2  0
 23 22  1  0
 24 23  1  1
 25 24  1  0
 26 24  1  0
 26 27  1  0
 28 26  2  0
M  END
$$$$
