WPS.pdb
     RDKit          3D

 28 30  0  0  1  0  0  0  0  0999 V2000
    6.4091  -18.3569   24.9917 N   0  0  0  0  0  0  0  0  0  0  0  0
    6.8336  -17.0432   24.5178 C   0  0  1  0  0  0  0  0  0  0  0  0
    7.6006  -16.3687   25.6092 C   0  0  0  0  0  0  0  0  0  0  0  0
    6.9351  -15.1670   26.1078 C   0  0  0  0  0  0  0  0  0  0  0  0
    5.6113  -15.0260   26.5036 C   0  0  0  0  0  0  0  0  0  0  0  0
    5.3922  -13.7511   26.8696 N   0  0  0  0  0  0  0  0  0  0  0  0
    6.5236  -13.0527   26.7299 C   0  0  0  0  0  0  0  0  0  0  0  0
    6.8387  -11.7215   26.9826 C   0  0  0  0  0  0  0  0  0  0  0  0
    8.1071  -11.2628   26.7675 C   0  0  0  0  0  0  0  0  0  0  0  0
    9.0968  -12.0949   26.3018 C   0  0  0  0  0  0  0  0  0  0  0  0
    8.7732  -13.4140   26.0532 C   0  0  0  0  0  0  0  0  0  0  0  0
    7.5090  -13.9073   26.2569 C   0  0  0  0  0  0  0  0  0  0  0  0
    7.5374  -17.1764   23.2265 C   0  0  0  0  0  0  0  0  0  0  0  0
    7.7429  -18.3488   22.7971 O   0  0  0  0  0  0  0  0  0  0  0  0
    7.9730  -16.0759   22.4628 N   0  0  0  0  0  0  0  0  0  0  0  0
    7.6416  -14.6951   22.7174 C   0  0  0  0  0  0  0  0  0  0  0  0
    7.6529  -14.0142   21.3576 C   0  0  0  0  0  0  0  0  0  0  0  0
    8.3888  -14.9228   20.4427 C   0  0  0  0  0  0  0  0  0  0  0  0
    8.7522  -16.1272   21.2797 C   0  0  1  0  0  0  0  0  0  0  0  0
   10.1970  -16.2039   21.3896 C   0  0  0  0  0  0  0  0  0  0  0  0
   10.7706  -15.2640   22.0422 O   0  0  0  0  0  0  0  0  0  0  0  0
   12.1581  -19.4775   21.8327 O   0  0  0  0  0  0  0  0  0  0  0  0
   12.9188  -18.3503   22.0463 C   0  0  0  0  0  0  0  0  0  0  0  0
   12.4758  -17.2373   21.1409 C   0  0  2  0  0  0  0  0  0  0  0  0
   11.0734  -17.1852   20.8683 N   0  0  0  0  0  0  0  0  0  0  0  0
   13.3193  -17.3068   19.9049 C   0  0  0  0  0  0  0  0  0  0  0  0
   14.7006  -17.3374   19.9408 O   0  0  0  0  0  0  0  0  0  0  0  0
   12.7234  -17.3380   18.8003 O   0  0  0  0  0  0  0  0  0  0  0  0
  2  1  1  1
  3  4  1  0
  3  2  1  0
  4  5  2  0
  5  6  1  0
  7  8  2  0
  7  6  1  0
  9  8  1  0
 10  9  2  0
 11 10  1  0
 11 12  2  0
 12  4  1  0
 12  7  1  0
 13  2  1  0
 14 13  2  0
 15 13  1  0
 16 15  1  0
 17 16  1  0
 18 17  1  0
 18 19  1  0
 19 15  1  0
 19 20  1  1
 20 25  1  0
 20 21  2  0
 23 22  1  0
 24 23  1  1
 25 24  1  0
 26 24  1  0
 26 27  1  0
 28 26  2  0
M  END
$$$$
