WPS.pdb
     RDKit          3D

 28 30  0  0  1  0  0  0  0  0999 V2000
    9.7918  -15.3914   24.4287 N   0  0  0  0  0  0  0  0  0  0  0  0
    8.9047  -16.5506   24.4325 C   0  0  1  0  0  0  0  0  0  0  0  0
    8.1701  -16.5833   25.7338 C   0  0  0  0  0  0  0  0  0  0  0  0
    7.6752  -15.2684   26.1363 C   0  0  0  0  0  0  0  0  0  0  0  0
    6.4426  -14.6958   25.8501 C   0  0  0  0  0  0  0  0  0  0  0  0
    6.3938  -13.4620   26.3815 N   0  0  0  0  0  0  0  0  0  0  0  0
    7.5478  -13.2061   27.0063 C   0  0  0  0  0  0  0  0  0  0  0  0
    7.9998  -12.1018   27.7216 C   0  0  0  0  0  0  0  0  0  0  0  0
    9.2424  -12.1118   28.2882 C   0  0  0  0  0  0  0  0  0  0  0  0
   10.0712  -13.2017   28.1699 C   0  0  0  0  0  0  0  0  0  0  0  0
    9.6133  -14.2921   27.4572 C   0  0  0  0  0  0  0  0  0  0  0  0
    8.3714  -14.3148   26.8740 C   0  0  0  0  0  0  0  0  0  0  0  0
    8.0623  -16.5446   23.2198 C   0  0  0  0  0  0  0  0  0  0  0  0
    7.2253  -17.4848   23.0912 O   0  0  0  0  0  0  0  0  0  0  0  0
    8.1424  -15.5515   22.2240 N   0  0  0  0  0  0  0  0  0  0  0  0
    8.7155  -14.2384   22.3938 C   0  0  0  0  0  0  0  0  0  0  0  0
    7.9576  -13.3342   21.4342 C   0  0  0  0  0  0  0  0  0  0  0  0
    7.2776  -14.2308   20.4659 C   0  0  0  0  0  0  0  0  0  0  0  0
    7.6216  -15.6340   20.9082 C   0  0  1  0  0  0  0  0  0  0  0  0
    8.4157  -16.2709   19.8741 C   0  0  0  0  0  0  0  0  0  0  0  0
    9.6132  -15.8427   19.7290 O   0  0  0  0  0  0  0  0  0  0  0  0
    7.2637  -19.7802   17.9155 O   0  0  0  0  0  0  0  0  0  0  0  0
    8.5622  -19.6537   18.3544 C   0  0  0  0  0  0  0  0  0  0  0  0
    8.9729  -18.2096   18.3728 C   0  0  2  0  0  0  0  0  0  0  0  0
    8.0466  -17.3127   18.9903 N   0  0  0  0  0  0  0  0  0  0  0  0
    9.3220  -17.8283   16.9668 C   0  0  0  0  0  0  0  0  0  0  0  0
   10.2315  -18.5346   16.2025 O   0  0  0  0  0  0  0  0  0  0  0  0
    8.7508  -16.8203   16.4832 O   0  0  0  0  0  0  0  0  0  0  0  0
  2  1  1  1
  3  4  1  0
  3  2  1  0
  4  5  2  0
  5  6  1  0
  7  8  2  0
  7  6  1  0
  9  8  1  0
 10  9  2  0
 11 10  1  0
 11 12  2  0
 12  4  1  0
 12  7  1  0
 13  2  1  0
 14 13  2  0
 15 13  1  0
 16 15  1  0
 17 16  1  0
 18 17  1  0
 18 19  1  0
 19 15  1  0
 19 20  1  6
 20 25  1  0
 20 21  2  0
 23 22  1  0
 24 23  1  6
 25 24  1  0
 26 24  1  0
 26 27  1  0
 28 26  2  0
M  END
$$$$
