WPS.pdb
     RDKit          3D

 28 30  0  0  1  0  0  0  0  0999 V2000
    6.3389  -17.4413   23.7239 N   0  0  0  0  0  0  0  0  0  0  0  0
    6.8200  -16.1595   23.2175 C   0  0  1  0  0  0  0  0  0  0  0  0
    7.7284  -15.5551   24.2392 C   0  0  0  0  0  0  0  0  0  0  0  0
    7.0014  -14.8988   25.3238 C   0  0  0  0  0  0  0  0  0  0  0  0
    5.9833  -15.4235   26.1094 C   0  0  0  0  0  0  0  0  0  0  0  0
    5.5638  -14.4847   26.9752 N   0  0  0  0  0  0  0  0  0  0  0  0
    6.2705  -13.3655   26.7871 C   0  0  0  0  0  0  0  0  0  0  0  0
    6.2471  -12.1266   27.4196 C   0  0  0  0  0  0  0  0  0  0  0  0
    7.1123  -11.1423   27.0350 C   0  0  0  0  0  0  0  0  0  0  0  0
    8.0212  -11.3467   26.0244 C   0  0  0  0  0  0  0  0  0  0  0  0
    8.0354  -12.5795   25.4027 C   0  0  0  0  0  0  0  0  0  0  0  0
    7.1793  -13.5896   25.7630 C   0  0  0  0  0  0  0  0  0  0  0  0
    7.3963  -16.3344   21.8694 C   0  0  0  0  0  0  0  0  0  0  0  0
    7.5571  -17.5201   21.4575 O   0  0  0  0  0  0  0  0  0  0  0  0
    7.7592  -15.2592   21.0349 N   0  0  0  0  0  0  0  0  0  0  0  0
    7.5293  -13.8634   21.3183 C   0  0  0  0  0  0  0  0  0  0  0  0
    7.3657  -13.1924   19.9634 C   0  0  0  0  0  0  0  0  0  0  0  0
    7.9164  -14.1386   18.9606 C   0  0  0  0  0  0  0  0  0  0  0  0
    8.3492  -15.3525   19.7494 C   0  0  1  0  0  0  0  0  0  0  0  0
    9.7896  -15.4924   19.6429 C   0  0  0  0  0  0  0  0  0  0  0  0
   10.4866  -14.9359   20.5610 O   0  0  0  0  0  0  0  0  0  0  0  0
   11.0011  -18.9016   19.7316 O   0  0  0  0  0  0  0  0  0  0  0  0
   11.7807  -17.8091   20.0374 C   0  0  0  0  0  0  0  0  0  0  0  0
   11.7843  -16.8302   18.8987 C   0  0  2  0  0  0  0  0  0  0  0  0
   10.5425  -16.1664   18.6521 N   0  0  0  0  0  0  0  0  0  0  0  0
   12.3243  -17.5459   17.6986 C   0  0  0  0  0  0  0  0  0  0  0  0
   11.6121  -17.6786   16.5216 O   0  0  0  0  0  0  0  0  0  0  0  0
   13.4757  -18.0380   17.7895 O   0  0  0  0  0  0  0  0  0  0  0  0
  2  1  1  1
  3  4  1  0
  3  2  1  0
  4  5  2  0
  5  6  1  0
  7  8  2  0
  7  6  1  0
  9  8  1  0
 10  9  2  0
 11 10  1  0
 11 12  2  0
 12  4  1  0
 12  7  1  0
 13  2  1  0
 14 13  2  0
 15 13  1  0
 16 15  1  0
 17 16  1  0
 18 17  1  0
 18 19  1  0
 19 15  1  0
 19 20  1  1
 20 25  1  0
 20 21  2  0
 23 22  1  0
 24 23  1  1
 25 24  1  0
 26 24  1  0
 26 27  1  0
 28 26  2  0
M  END
$$$$
