WPS.pdb
     RDKit          3D

 28 30  0  0  1  0  0  0  0  0999 V2000
    6.1689  -17.2449   23.6772 N   0  0  0  0  0  0  0  0  0  0  0  0
    6.7513  -16.0026   23.1788 C   0  0  1  0  0  0  0  0  0  0  0  0
    7.7087  -15.4820   24.2020 C   0  0  0  0  0  0  0  0  0  0  0  0
    7.0447  -14.7361   25.2690 C   0  0  0  0  0  0  0  0  0  0  0  0
    5.8979  -15.0866   25.9697 C   0  0  0  0  0  0  0  0  0  0  0  0
    5.6019  -14.1137   26.8489 N   0  0  0  0  0  0  0  0  0  0  0  0
    6.5131  -13.1403   26.7512 C   0  0  0  0  0  0  0  0  0  0  0  0
    6.6761  -11.9392   27.4340 C   0  0  0  0  0  0  0  0  0  0  0  0
    7.7310  -11.1216   27.1439 C   0  0  0  0  0  0  0  0  0  0  0  0
    8.6515  -11.4598   26.1809 C   0  0  0  0  0  0  0  0  0  0  0  0
    8.4799  -12.6535   25.5086 C   0  0  0  0  0  0  0  0  0  0  0  0
    7.4308  -13.4975   25.7739 C   0  0  0  0  0  0  0  0  0  0  0  0
    7.3079  -16.2135   21.8275 C   0  0  0  0  0  0  0  0  0  0  0  0
    7.2961  -17.3948   21.3740 O   0  0  0  0  0  0  0  0  0  0  0  0
    7.8328  -15.1750   21.0336 N   0  0  0  0  0  0  0  0  0  0  0  0
    7.8094  -13.7715   21.3665 C   0  0  0  0  0  0  0  0  0  0  0  0
    7.7581  -13.0363   20.0362 C   0  0  0  0  0  0  0  0  0  0  0  0
    8.1712  -14.0175   19.0016 C   0  0  0  0  0  0  0  0  0  0  0  0
    8.4132  -15.3093   19.7473 C   0  0  1  0  0  0  0  0  0  0  0  0
    9.8179  -15.6571   19.6403 C   0  0  0  0  0  0  0  0  0  0  0  0
   10.6298  -14.9828   20.3645 O   0  0  0  0  0  0  0  0  0  0  0  0
   11.1736  -19.2644   19.1799 O   0  0  0  0  0  0  0  0  0  0  0  0
   12.1115  -18.3249   19.5437 C   0  0  0  0  0  0  0  0  0  0  0  0
   11.8089  -17.0026   18.8998 C   0  0  2  0  0  0  0  0  0  0  0  0
   10.4248  -16.6504   18.8355 N   0  0  0  0  0  0  0  0  0  0  0  0
   12.4875  -16.9924   17.5644 C   0  0  0  0  0  0  0  0  0  0  0  0
   13.8195  -17.3212   17.3979 O   0  0  0  0  0  0  0  0  0  0  0  0
   11.7960  -16.6682   16.5679 O   0  0  0  0  0  0  0  0  0  0  0  0
  2  1  1  1
  3  4  1  0
  3  2  1  0
  4  5  2  0
  5  6  1  0
  7  8  2  0
  7  6  1  0
  9  8  1  0
 10  9  2  0
 11 10  1  0
 11 12  2  0
 12  4  1  0
 12  7  1  0
 13  2  1  0
 14 13  2  0
 15 13  1  0
 16 15  1  0
 17 16  1  0
 18 17  1  0
 18 19  1  0
 19 15  1  0
 19 20  1  1
 20 25  1  0
 20 21  2  0
 23 22  1  0
 24 23  1  6
 25 24  1  0
 26 24  1  0
 26 27  1  0
 28 26  2  0
M  END
$$$$
