WPS.pdb
     RDKit          3D

 28 30  0  0  1  0  0  0  0  0999 V2000
    5.8996  -18.2261   24.5713 N   0  0  0  0  0  0  0  0  0  0  0  0
    6.5246  -16.9501   24.2367 C   0  0  1  0  0  0  0  0  0  0  0  0
    7.2529  -16.4468   25.4412 C   0  0  0  0  0  0  0  0  0  0  0  0
    6.7650  -15.1456   25.8934 C   0  0  0  0  0  0  0  0  0  0  0  0
    5.4608  -14.7841   26.2057 C   0  0  0  0  0  0  0  0  0  0  0  0
    5.4325  -13.4858   26.5530 N   0  0  0  0  0  0  0  0  0  0  0  0
    6.6698  -12.9842   26.4815 C   0  0  0  0  0  0  0  0  0  0  0  0
    7.1835  -11.7193   26.7489 C   0  0  0  0  0  0  0  0  0  0  0  0
    8.5207  -11.4777   26.6115 C   0  0  0  0  0  0  0  0  0  0  0  0
    9.3866  -12.4671   26.2109 C   0  0  0  0  0  0  0  0  0  0  0  0
    8.8662  -13.7185   25.9472 C   0  0  0  0  0  0  0  0  0  0  0  0
    7.5281  -13.9951   26.0736 C   0  0  0  0  0  0  0  0  0  0  0  0
    7.3341  -17.0918   23.0099 C   0  0  0  0  0  0  0  0  0  0  0  0
    7.6336  -18.2661   22.6459 O   0  0  0  0  0  0  0  0  0  0  0  0
    7.7709  -15.9977   22.2376 N   0  0  0  0  0  0  0  0  0  0  0  0
    7.3588  -14.6269   22.4175 C   0  0  0  0  0  0  0  0  0  0  0  0
    7.4341  -13.9927   21.0373 C   0  0  0  0  0  0  0  0  0  0  0  0
    8.2738  -14.8946   20.2094 C   0  0  0  0  0  0  0  0  0  0  0  0
    8.6328  -16.0509   21.1135 C   0  0  1  0  0  0  0  0  0  0  0  0
   10.0684  -16.0532   21.3250 C   0  0  0  0  0  0  0  0  0  0  0  0
   10.5019  -15.3551   22.3064 O   0  0  0  0  0  0  0  0  0  0  0  0
   11.8356  -19.3429   21.3309 O   0  0  0  0  0  0  0  0  0  0  0  0
   12.4363  -18.2766   21.9609 C   0  0  0  0  0  0  0  0  0  0  0  0
   12.3663  -17.0489   21.0991 C   0  0  2  0  0  0  0  0  0  0  0  0
   11.0705  -16.7276   20.5877 N   0  0  0  0  0  0  0  0  0  0  0  0
   13.4072  -17.1946   20.0318 C   0  0  0  0  0  0  0  0  0  0  0  0
   13.1196  -17.0857   18.6844 O   0  0  0  0  0  0  0  0  0  0  0  0
   14.5848  -17.4248   20.4014 O   0  0  0  0  0  0  0  0  0  0  0  0
  2  1  1  1
  3  4  1  0
  3  2  1  0
  4  5  2  0
  5  6  1  0
  7  8  2  0
  7  6  1  0
  9  8  1  0
 10  9  2  0
 11 10  1  0
 11 12  2  0
 12  4  1  0
 12  7  1  0
 13  2  1  0
 14 13  2  0
 15 13  1  0
 16 15  1  0
 17 16  1  0
 18 17  1  0
 18 19  1  0
 19 15  1  0
 19 20  1  1
 20 25  1  0
 20 21  2  0
 23 22  1  0
 24 23  1  6
 25 24  1  0
 26 24  1  0
 26 27  1  0
 28 26  2  0
M  END
$$$$
