WPS.pdb
     RDKit          3D

 28 30  0  0  1  0  0  0  0  0999 V2000
    6.1908  -18.0110   24.3753 N   0  0  0  0  0  0  0  0  0  0  0  0
    6.7007  -16.7389   23.8727 C   0  0  1  0  0  0  0  0  0  0  0  0
    7.5673  -16.1248   24.9244 C   0  0  0  0  0  0  0  0  0  0  0  0
    6.9229  -15.0021   25.6026 C   0  0  0  0  0  0  0  0  0  0  0  0
    5.6158  -14.9203   26.0652 C   0  0  0  0  0  0  0  0  0  0  0  0
    5.4123  -13.7057   26.6041 N   0  0  0  0  0  0  0  0  0  0  0  0
    6.5379  -12.9899   26.5133 C   0  0  0  0  0  0  0  0  0  0  0  0
    6.8637  -11.7021   26.9266 C   0  0  0  0  0  0  0  0  0  0  0  0
    8.1229  -11.2135   26.7242 C   0  0  0  0  0  0  0  0  0  0  0  0
    9.0929  -11.9727   26.1145 C   0  0  0  0  0  0  0  0  0  0  0  0
    8.7588  -13.2491   25.7073 C   0  0  0  0  0  0  0  0  0  0  0  0
    7.5031  -13.7704   25.8937 C   0  0  0  0  0  0  0  0  0  0  0  0
    7.3341  -16.9357   22.5534 C   0  0  0  0  0  0  0  0  0  0  0  0
    7.4352  -18.1242   22.1309 O   0  0  0  0  0  0  0  0  0  0  0  0
    7.8128  -15.8773   21.7567 N   0  0  0  0  0  0  0  0  0  0  0  0
    7.6730  -14.4730   22.0561 C   0  0  0  0  0  0  0  0  0  0  0  0
    7.6216  -13.7705   20.7082 C   0  0  0  0  0  0  0  0  0  0  0  0
    8.1470  -14.7389   19.7132 C   0  0  0  0  0  0  0  0  0  0  0  0
    8.4529  -15.9939   20.4973 C   0  0  1  0  0  0  0  0  0  0  0  0
    9.8825  -16.2385   20.4527 C   0  0  0  0  0  0  0  0  0  0  0  0
   10.6165  -15.4638   21.1594 O   0  0  0  0  0  0  0  0  0  0  0  0
   11.5490  -19.7668   20.2726 O   0  0  0  0  0  0  0  0  0  0  0  0
   12.3526  -18.7115   20.6407 C   0  0  0  0  0  0  0  0  0  0  0  0
   11.9896  -17.4783   19.8647 C   0  0  2  0  0  0  0  0  0  0  0  0
   10.5892  -17.2265   19.7266 N   0  0  0  0  0  0  0  0  0  0  0  0
   12.7130  -17.5478   18.5548 C   0  0  0  0  0  0  0  0  0  0  0  0
   12.0626  -17.5049   17.3361 O   0  0  0  0  0  0  0  0  0  0  0  0
   13.9639  -17.6490   18.5908 O   0  0  0  0  0  0  0  0  0  0  0  0
  2  1  1  1
  3  4  1  0
  3  2  1  0
  4  5  2  0
  5  6  1  0
  7  8  2  0
  7  6  1  0
  9  8  1  0
 10  9  2  0
 11 10  1  0
 11 12  2  0
 12  4  1  0
 12  7  1  0
 13  2  1  0
 14 13  2  0
 15 13  1  0
 16 15  1  0
 17 16  1  0
 18 17  1  0
 18 19  1  0
 19 15  1  0
 19 20  1  1
 20 25  1  0
 20 21  2  0
 23 22  1  0
 24 23  1  6
 25 24  1  0
 26 24  1  0
 26 27  1  0
 28 26  2  0
M  END
$$$$
