WPS.pdb
     RDKit          3D

 28 30  0  0  1  0  0  0  0  0999 V2000
    6.3426  -17.2539   23.6938 N   0  0  0  0  0  0  0  0  0  0  0  0
    6.9259  -16.0071   23.2080 C   0  0  1  0  0  0  0  0  0  0  0  0
    7.7809  -15.4289   24.2892 C   0  0  0  0  0  0  0  0  0  0  0  0
    7.0004  -14.7760   25.3382 C   0  0  0  0  0  0  0  0  0  0  0  0
    5.8820  -15.2657   26.0003 C   0  0  0  0  0  0  0  0  0  0  0  0
    5.4457  -14.3423   26.8744 N   0  0  0  0  0  0  0  0  0  0  0  0
    6.2378  -13.2672   26.8107 C   0  0  0  0  0  0  0  0  0  0  0  0
    6.2361  -12.0612   27.5042 C   0  0  0  0  0  0  0  0  0  0  0  0
    7.1952  -11.1222   27.2520 C   0  0  0  0  0  0  0  0  0  0  0  0
    8.1788  -11.3408   26.3173 C   0  0  0  0  0  0  0  0  0  0  0  0
    8.1707  -12.5405   25.6339 C   0  0  0  0  0  0  0  0  0  0  0  0
    7.2213  -13.5048   25.8614 C   0  0  0  0  0  0  0  0  0  0  0  0
    7.5965  -16.2355   21.9125 C   0  0  0  0  0  0  0  0  0  0  0  0
    7.6453  -17.4265   21.4876 O   0  0  0  0  0  0  0  0  0  0  0  0
    8.1649  -15.2038   21.1402 N   0  0  0  0  0  0  0  0  0  0  0  0
    8.2476  -13.8161   21.5259 C   0  0  0  0  0  0  0  0  0  0  0  0
    8.2038  -13.0270   20.2265 C   0  0  0  0  0  0  0  0  0  0  0  0
    8.5159  -13.9919   19.1424 C   0  0  0  0  0  0  0  0  0  0  0  0
    8.6934  -15.3254   19.8304 C   0  0  1  0  0  0  0  0  0  0  0  0
   10.0670  -15.7615   19.6619 C   0  0  0  0  0  0  0  0  0  0  0  0
   10.9291  -15.2544   20.4606 O   0  0  0  0  0  0  0  0  0  0  0  0
   11.1013  -19.3941   18.9530 O   0  0  0  0  0  0  0  0  0  0  0  0
   12.0944  -18.5434   19.3830 C   0  0  0  0  0  0  0  0  0  0  0  0
   11.9315  -17.1871   18.7597 C   0  0  2  0  0  0  0  0  0  0  0  0
   10.5950  -16.6810   18.7245 N   0  0  0  0  0  0  0  0  0  0  0  0
   12.5844  -17.2354   17.4122 C   0  0  0  0  0  0  0  0  0  0  0  0
   11.9292  -16.8792   16.2487 O   0  0  0  0  0  0  0  0  0  0  0  0
   13.7788  -17.6189   17.3629 O   0  0  0  0  0  0  0  0  0  0  0  0
  2  1  1  1
  3  4  1  0
  3  2  1  0
  4  5  2  0
  5  6  1  0
  7  8  2  0
  7  6  1  0
  9  8  1  0
 10  9  2  0
 11 10  1  0
 11 12  2  0
 12  4  1  0
 12  7  1  0
 13  2  1  0
 14 13  2  0
 15 13  1  0
 16 15  1  0
 17 16  1  0
 18 17  1  0
 18 19  1  0
 19 15  1  0
 19 20  1  1
 20 25  1  0
 20 21  2  0
 23 22  1  0
 24 23  1  6
 25 24  1  0
 26 24  1  0
 26 27  1  0
 28 26  2  0
M  END
$$$$
