WPS.pdb
     RDKit          3D

 28 30  0  0  1  0  0  0  0  0999 V2000
    5.9808  -17.6659   24.0102 N   0  0  0  0  0  0  0  0  0  0  0  0
    6.5750  -16.4078   23.5687 C   0  0  1  0  0  0  0  0  0  0  0  0
    7.4949  -15.9148   24.6388 C   0  0  0  0  0  0  0  0  0  0  0  0
    6.8867  -14.8820   25.4748 C   0  0  0  0  0  0  0  0  0  0  0  0
    5.6269  -14.8891   26.0595 C   0  0  0  0  0  0  0  0  0  0  0  0
    5.4419  -13.7364   26.7261 N   0  0  0  0  0  0  0  0  0  0  0  0
    6.5343  -12.9758   26.6012 C   0  0  0  0  0  0  0  0  0  0  0  0
    6.8625  -11.7201   27.1021 C   0  0  0  0  0  0  0  0  0  0  0  0
    8.0836  -11.1707   26.8331 C   0  0  0  0  0  0  0  0  0  0  0  0
    9.0124  -11.8364   26.0695 C   0  0  0  0  0  0  0  0  0  0  0  0
    8.6763  -13.0815   25.5765 C   0  0  0  0  0  0  0  0  0  0  0  0
    7.4581  -13.6620   25.8262 C   0  0  0  0  0  0  0  0  0  0  0  0
    7.1782  -16.5772   22.2316 C   0  0  0  0  0  0  0  0  0  0  0  0
    7.1686  -17.7410   21.7350 O   0  0  0  0  0  0  0  0  0  0  0  0
    7.7444  -15.5179   21.4957 N   0  0  0  0  0  0  0  0  0  0  0  0
    7.7238  -14.1269   21.8775 C   0  0  0  0  0  0  0  0  0  0  0  0
    7.7316  -13.3446   20.5734 C   0  0  0  0  0  0  0  0  0  0  0  0
    8.1732  -14.2937   19.5208 C   0  0  0  0  0  0  0  0  0  0  0  0
    8.3722  -15.6138   20.2284 C   0  0  1  0  0  0  0  0  0  0  0  0
    9.7760  -15.9750   20.1623 C   0  0  0  0  0  0  0  0  0  0  0  0
   10.5544  -15.3962   20.9975 O   0  0  0  0  0  0  0  0  0  0  0  0
   11.2250  -19.2170   18.0151 O   0  0  0  0  0  0  0  0  0  0  0  0
   11.8254  -18.9277   19.2195 C   0  0  0  0  0  0  0  0  0  0  0  0
   11.7014  -17.4640   19.5310 C   0  0  2  0  0  0  0  0  0  0  0  0
   10.4146  -16.8893   19.2910 N   0  0  0  0  0  0  0  0  0  0  0  0
   12.8103  -16.7603   18.8104 C   0  0  0  0  0  0  0  0  0  0  0  0
   14.1429  -17.0785   18.9922 O   0  0  0  0  0  0  0  0  0  0  0  0
   12.4909  -15.8458   18.0118 O   0  0  0  0  0  0  0  0  0  0  0  0
  2  1  1  1
  3  4  1  0
  3  2  1  0
  4  5  2  0
  5  6  1  0
  7  8  2  0
  7  6  1  0
  9  8  1  0
 10  9  2  0
 11 10  1  0
 11 12  2  0
 12  4  1  0
 12  7  1  0
 13  2  1  0
 14 13  2  0
 15 13  1  0
 16 15  1  0
 17 16  1  0
 18 17  1  0
 18 19  1  0
 19 15  1  0
 19 20  1  1
 20 25  1  0
 20 21  2  0
 23 22  1  0
 24 23  1  6
 25 24  1  0
 26 24  1  0
 26 27  1  0
 28 26  2  0
M  END
$$$$
