WPS.pdb
     RDKit          3D

 28 30  0  0  1  0  0  0  0  0999 V2000
    5.8964  -18.1026   24.9179 N   0  0  0  0  0  0  0  0  0  0  0  0
    6.6820  -16.9024   24.6472 C   0  0  1  0  0  0  0  0  0  0  0  0
    7.5724  -16.6423   25.8192 C   0  0  0  0  0  0  0  0  0  0  0  0
    7.3395  -15.3335   26.4261 C   0  0  0  0  0  0  0  0  0  0  0  0
    6.1752  -14.5766   26.4031 C   0  0  0  0  0  0  0  0  0  0  0  0
    6.3859  -13.4205   27.0558 N   0  0  0  0  0  0  0  0  0  0  0  0
    7.6441  -13.3930   27.5069 C   0  0  0  0  0  0  0  0  0  0  0  0
    8.3528  -12.4511   28.2457 C   0  0  0  0  0  0  0  0  0  0  0  0
    9.6505  -12.6895   28.5987 C   0  0  0  0  0  0  0  0  0  0  0  0
   10.2848  -13.8545   28.2389 C   0  0  0  0  0  0  0  0  0  0  0  0
    9.5726  -14.7822   27.5049 C   0  0  0  0  0  0  0  0  0  0  0  0
    8.2684  -14.5740   27.1323 C   0  0  0  0  0  0  0  0  0  0  0  0
    7.3598  -17.0277   23.3413 C   0  0  0  0  0  0  0  0  0  0  0  0
    7.4837  -18.1923   22.8623 O   0  0  0  0  0  0  0  0  0  0  0  0
    7.8565  -15.9270   22.6160 N   0  0  0  0  0  0  0  0  0  0  0  0
    7.7688  -14.5459   23.0236 C   0  0  0  0  0  0  0  0  0  0  0  0
    7.7128  -13.7417   21.7340 C   0  0  0  0  0  0  0  0  0  0  0  0
    8.1860  -14.6474   20.6572 C   0  0  0  0  0  0  0  0  0  0  0  0
    8.4667  -15.9672   21.3371 C   0  0  1  0  0  0  0  0  0  0  0  0
    9.8864  -16.2519   21.2417 C   0  0  0  0  0  0  0  0  0  0  0  0
   10.6333  -15.7400   22.1463 O   0  0  0  0  0  0  0  0  0  0  0  0
   11.3490  -19.2369   18.7868 O   0  0  0  0  0  0  0  0  0  0  0  0
   11.8989  -19.1076   20.0421 C   0  0  0  0  0  0  0  0  0  0  0  0
   11.8197  -17.6819   20.5068 C   0  0  2  0  0  0  0  0  0  0  0  0
   10.5707  -17.0262   20.2748 N   0  0  0  0  0  0  0  0  0  0  0  0
   12.9904  -16.9563   19.9179 C   0  0  0  0  0  0  0  0  0  0  0  0
   14.2935  -17.3933   20.0631 O   0  0  0  0  0  0  0  0  0  0  0  0
   12.7529  -15.9085   19.2683 O   0  0  0  0  0  0  0  0  0  0  0  0
  2  1  1  1
  3  4  1  0
  3  2  1  0
  4  5  2  0
  5  6  1  0
  7  8  2  0
  7  6  1  0
  9  8  1  0
 10  9  2  0
 11 10  1  0
 11 12  2  0
 12  4  1  0
 12  7  1  0
 13  2  1  0
 14 13  2  0
 15 13  1  0
 16 15  1  0
 17 16  1  0
 18 17  1  0
 18 19  1  0
 19 15  1  0
 19 20  1  1
 20 25  1  0
 20 21  2  0
 23 22  1  0
 24 23  1  6
 25 24  1  0
 26 24  1  0
 26 27  1  0
 28 26  2  0
M  END
$$$$
