WPS.pdb
     RDKit          3D

 28 30  0  0  1  0  0  0  0  0999 V2000
    6.1789  -17.2088   23.6100 N   0  0  0  0  0  0  0  0  0  0  0  0
    6.7755  -15.9663   23.1293 C   0  0  1  0  0  0  0  0  0  0  0  0
    7.7363  -15.4696   24.1611 C   0  0  0  0  0  0  0  0  0  0  0  0
    7.0750  -14.7574   25.2525 C   0  0  0  0  0  0  0  0  0  0  0  0
    5.9696  -15.1618   25.9898 C   0  0  0  0  0  0  0  0  0  0  0  0
    5.6589  -14.2055   26.8820 N   0  0  0  0  0  0  0  0  0  0  0  0
    6.5207  -13.1909   26.7576 C   0  0  0  0  0  0  0  0  0  0  0  0
    6.6512  -11.9851   27.4389 C   0  0  0  0  0  0  0  0  0  0  0  0
    7.6571  -11.1193   27.1169 C   0  0  0  0  0  0  0  0  0  0  0  0
    8.5593  -11.4126   26.1224 C   0  0  0  0  0  0  0  0  0  0  0  0
    8.4203  -12.6115   25.4518 C   0  0  0  0  0  0  0  0  0  0  0  0
    7.4205  -13.5034   25.7488 C   0  0  0  0  0  0  0  0  0  0  0  0
    7.3325  -16.1650   21.7763 C   0  0  0  0  0  0  0  0  0  0  0  0
    7.3755  -17.3506   21.3360 O   0  0  0  0  0  0  0  0  0  0  0  0
    7.8003  -15.1113   20.9671 N   0  0  0  0  0  0  0  0  0  0  0  0
    7.7101  -13.7068   21.2845 C   0  0  0  0  0  0  0  0  0  0  0  0
    7.6139  -12.9904   19.9465 C   0  0  0  0  0  0  0  0  0  0  0  0
    8.0679  -13.9620   18.9200 C   0  0  0  0  0  0  0  0  0  0  0  0
    8.3781  -15.2316   19.6783 C   0  0  1  0  0  0  0  0  0  0  0  0
    9.7974  -15.5112   19.5650 C   0  0  0  0  0  0  0  0  0  0  0  0
   10.5700  -14.8753   20.3631 O   0  0  0  0  0  0  0  0  0  0  0  0
   11.2230  -18.9387   19.5770 O   0  0  0  0  0  0  0  0  0  0  0  0
   12.1035  -17.8991   19.7744 C   0  0  0  0  0  0  0  0  0  0  0  0
   11.8279  -16.7853   18.8057 C   0  0  2  0  0  0  0  0  0  0  0  0
   10.4567  -16.4000   18.6828 N   0  0  0  0  0  0  0  0  0  0  0  0
   12.4580  -17.1646   17.5007 C   0  0  0  0  0  0  0  0  0  0  0  0
   13.8070  -17.4352   17.3702 O   0  0  0  0  0  0  0  0  0  0  0  0
   11.7081  -17.2336   16.4961 O   0  0  0  0  0  0  0  0  0  0  0  0
  2  1  1  1
  3  4  1  0
  3  2  1  0
  4  5  2  0
  5  6  1  0
  7  8  2  0
  7  6  1  0
  9  8  1  0
 10  9  2  0
 11 10  1  0
 11 12  2  0
 12  4  1  0
 12  7  1  0
 13  2  1  0
 14 13  2  0
 15 13  1  0
 16 15  1  0
 17 16  1  0
 18 17  1  0
 18 19  1  0
 19 15  1  0
 19 20  1  1
 20 25  1  0
 20 21  2  0
 23 22  1  0
 24 23  1  1
 25 24  1  0
 26 24  1  0
 26 27  1  0
 28 26  2  0
M  END
$$$$
