WPS.pdb
     RDKit          3D

 28 30  0  0  1  0  0  0  0  0999 V2000
    6.9462  -17.1940   23.0353 N   0  0  0  0  0  0  0  0  0  0  0  0
    7.3727  -15.8347   22.7173 C   0  0  1  0  0  0  0  0  0  0  0  0
    8.1180  -15.2833   23.8898 C   0  0  0  0  0  0  0  0  0  0  0  0
    7.2337  -14.8665   24.9760 C   0  0  0  0  0  0  0  0  0  0  0  0
    6.2051  -15.5904   25.5652 C   0  0  0  0  0  0  0  0  0  0  0  0
    5.6175  -14.8357   26.5098 N   0  0  0  0  0  0  0  0  0  0  0  0
    6.2241  -13.6455   26.5623 C   0  0  0  0  0  0  0  0  0  0  0  0
    6.0205  -12.5260   27.3628 C   0  0  0  0  0  0  0  0  0  0  0  0
    6.8156  -11.4248   27.2191 C   0  0  0  0  0  0  0  0  0  0  0  0
    7.8286  -11.3930   26.2908 C   0  0  0  0  0  0  0  0  0  0  0  0
    8.0215  -12.5089   25.5008 C   0  0  0  0  0  0  0  0  0  0  0  0
    7.2403  -13.6310   25.6178 C   0  0  0  0  0  0  0  0  0  0  0  0
    8.0987  -15.8221   21.4315 C   0  0  0  0  0  0  0  0  0  0  0  0
    8.4001  -16.9420   20.9255 O   0  0  0  0  0  0  0  0  0  0  0  0
    8.4551  -14.6402   20.7530 N   0  0  0  0  0  0  0  0  0  0  0  0
    8.0791  -13.3033   21.1438 C   0  0  0  0  0  0  0  0  0  0  0  0
    8.0029  -12.5055   19.8514 C   0  0  0  0  0  0  0  0  0  0  0  0
    8.7343  -13.2962   18.8298 C   0  0  0  0  0  0  0  0  0  0  0  0
    9.1829  -14.5523   19.5398 C   0  0  1  0  0  0  0  0  0  0  0  0
   10.6331  -14.5739   19.5843 C   0  0  0  0  0  0  0  0  0  0  0  0
   11.1857  -13.8986   20.5207 O   0  0  0  0  0  0  0  0  0  0  0  0
   13.0557  -17.4432   17.9983 O   0  0  0  0  0  0  0  0  0  0  0  0
   13.5866  -16.6183   18.9639 C   0  0  0  0  0  0  0  0  0  0  0  0
   12.9539  -15.2581   18.8995 C   0  0  2  0  0  0  0  0  0  0  0  0
   11.5350  -15.2455   18.7250 N   0  0  0  0  0  0  0  0  0  0  0  0
   13.6882  -14.4748   17.8548 C   0  0  0  0  0  0  0  0  0  0  0  0
   13.0594  -13.9104   16.7611 O   0  0  0  0  0  0  0  0  0  0  0  0
   14.9277  -14.3384   18.0005 O   0  0  0  0  0  0  0  0  0  0  0  0
  2  1  1  1
  3  4  1  0
  3  2  1  0
  4  5  2  0
  5  6  1  0
  7  8  2  0
  7  6  1  0
  9  8  1  0
 10  9  2  0
 11 10  1  0
 11 12  2  0
 12  4  1  0
 12  7  1  0
 13  2  1  0
 14 13  2  0
 15 13  1  0
 16 15  1  0
 17 16  1  0
 18 17  1  0
 18 19  1  0
 19 15  1  0
 19 20  1  1
 20 25  1  0
 20 21  2  0
 23 22  1  0
 24 23  1  6
 25 24  1  0
 26 24  1  0
 26 27  1  0
 28 26  2  0
M  END
$$$$
