WPS.pdb
     RDKit          3D

 28 30  0  0  1  0  0  0  0  0999 V2000
    5.9483  -17.3439   23.6113 N   0  0  0  0  0  0  0  0  0  0  0  0
    6.6638  -16.1292   23.2325 C   0  0  1  0  0  0  0  0  0  0  0  0
    7.6114  -15.7728   24.3323 C   0  0  0  0  0  0  0  0  0  0  0  0
    6.9810  -14.9809   25.3865 C   0  0  0  0  0  0  0  0  0  0  0  0
    5.8938  -15.3258   26.1790 C   0  0  0  0  0  0  0  0  0  0  0  0
    5.6097  -14.3066   27.0082 N   0  0  0  0  0  0  0  0  0  0  0  0
    6.4714  -13.3081   26.7894 C   0  0  0  0  0  0  0  0  0  0  0  0
    6.6236  -12.0573   27.3792 C   0  0  0  0  0  0  0  0  0  0  0  0
    7.6238  -11.2220   26.9703 C   0  0  0  0  0  0  0  0  0  0  0  0
    8.4989  -11.5904   25.9766 C   0  0  0  0  0  0  0  0  0  0  0  0
    8.3384  -12.8334   25.3972 C   0  0  0  0  0  0  0  0  0  0  0  0
    7.3436  -13.6965   25.7828 C   0  0  0  0  0  0  0  0  0  0  0  0
    7.2665  -16.2957   21.8948 C   0  0  0  0  0  0  0  0  0  0  0  0
    7.2525  -17.4575   21.3937 O   0  0  0  0  0  0  0  0  0  0  0  0
    7.8368  -15.2357   21.1631 N   0  0  0  0  0  0  0  0  0  0  0  0
    7.8774  -13.8553   21.5806 C   0  0  0  0  0  0  0  0  0  0  0  0
    7.8578  -13.0392   20.2975 C   0  0  0  0  0  0  0  0  0  0  0  0
    8.2247  -13.9734   19.2037 C   0  0  0  0  0  0  0  0  0  0  0  0
    8.4089  -15.3176   19.8687 C   0  0  1  0  0  0  0  0  0  0  0  0
    9.7962  -15.7214   19.7352 C   0  0  0  0  0  0  0  0  0  0  0  0
   10.6367  -15.1403   20.5061 O   0  0  0  0  0  0  0  0  0  0  0  0
   10.9229  -19.3241   18.3172 O   0  0  0  0  0  0  0  0  0  0  0  0
   11.8121  -18.6698   19.1395 C   0  0  0  0  0  0  0  0  0  0  0  0
   11.6924  -17.1831   18.9666 C   0  0  2  0  0  0  0  0  0  0  0  0
   10.3585  -16.6801   18.8591 N   0  0  0  0  0  0  0  0  0  0  0  0
   12.5677  -16.7973   17.8137 C   0  0  0  0  0  0  0  0  0  0  0  0
   13.8950  -17.1716   17.7222 O   0  0  0  0  0  0  0  0  0  0  0  0
   12.0511  -16.1042   16.9033 O   0  0  0  0  0  0  0  0  0  0  0  0
  2  1  1  1
  3  4  1  0
  3  2  1  0
  4  5  2  0
  5  6  1  0
  7  8  2  0
  7  6  1  0
  9  8  1  0
 10  9  2  0
 11 10  1  0
 11 12  2  0
 12  4  1  0
 12  7  1  0
 13  2  1  0
 14 13  2  0
 15 13  1  0
 16 15  1  0
 17 16  1  0
 18 17  1  0
 18 19  1  0
 19 15  1  0
 19 20  1  1
 20 25  1  0
 20 21  2  0
 23 22  1  0
 24 23  1  6
 25 24  1  0
 26 24  1  0
 26 27  1  0
 28 26  2  0
M  END
$$$$
