QCS.pdb
     RDKit          3D

 22 21  0  0  1  0  0  0  0  0999 V2000
   10.8209  -14.1666   -9.8831 N   0  0  0  0  0  0  0  0  0  0  0  0
   12.0071  -13.8055  -10.6054 C   0  0  0  0  0  0  0  0  0  0  0  0
   13.1319  -14.2502  -10.2785 O   0  0  0  0  0  0  0  0  0  0  0  0
   11.8632  -12.8907  -11.7443 C   0  0  0  0  0  0  0  0  0  0  0  0
   12.3088  -11.5013  -11.5070 C   0  0  0  0  0  0  0  0  0  0  0  0
   13.6867  -11.1353  -11.9210 C   0  0  2  0  0  0  0  0  0  0  0  0
   14.7119  -12.0197  -11.5090 N   0  0  0  0  0  0  0  0  0  0  0  0
   13.9242   -9.7312  -11.4151 C   0  0  0  0  0  0  0  0  0  0  0  0
   13.0502   -8.8290  -11.5821 O   0  0  0  0  0  0  0  0  0  0  0  0
   15.1101   -9.3562  -10.7417 N   0  0  0  0  0  0  0  0  0  0  0  0
   15.3654   -7.9987  -10.3004 C   0  0  1  0  0  0  0  0  0  0  0  0
   16.2757   -7.9952   -9.0676 C   0  0  0  0  0  0  0  0  0  0  0  0
   16.6438   -6.2805   -8.5623 S   0  0  0  0  0  0  0  0  0  0  0  0
   16.0266   -7.1830  -11.3312 C   0  0  0  0  0  0  0  0  0  0  0  0
   17.1480   -7.5440  -11.7716 O   0  0  0  0  0  0  0  0  0  0  0  0
   15.7152   -3.6305  -14.6907 O   0  0  0  0  0  0  0  0  0  0  0  0
   15.1335   -4.3414  -13.6646 C   0  0  0  0  0  0  0  0  0  0  0  0
   16.1091   -5.2234  -12.9170 C   0  0  2  0  0  0  0  0  0  0  0  0
   15.4822   -5.9891  -11.8810 N   0  0  0  0  0  0  0  0  0  0  0  0
   17.1551   -4.3687  -12.3104 C   0  0  0  0  0  0  0  0  0  0  0  0
   16.9785   -3.8549  -11.0471 O   0  0  0  0  0  0  0  0  0  0  0  0
   18.2216   -4.0956  -12.9336 O   0  0  0  0  0  0  0  0  0  0  0  0
  1  2  1  0
  2  3  2  0
  4  5  1  0
  4  2  1  0
  6  8  1  0
  6  5  1  0
  6  7  1  1
  8 10  1  0
  9  8  2  0
 10 11  1  0
 11 14  1  0
 11 12  1  1
 13 12  1  0
 14 15  2  0
 14 19  1  0
 16 17  1  0
 18 17  1  1
 18 20  1  0
 19 18  1  0
 20 21  1  0
 22 20  2  0
M  END
$$$$
