QCS.pdb
     RDKit          3D

 22 21  0  0  1  0  0  0  0  0999 V2000
   20.2292  -33.0980   -4.5572 N   0  0  0  0  0  0  0  0  0  0  0  0
   19.2250  -33.8761   -5.2247 C   0  0  0  0  0  0  0  0  0  0  0  0
   18.2043  -34.2812   -4.6215 O   0  0  0  0  0  0  0  0  0  0  0  0
   19.4323  -34.1884   -6.6439 C   0  0  0  0  0  0  0  0  0  0  0  0
   20.7127  -33.7246   -7.2190 C   0  0  0  0  0  0  0  0  0  0  0  0
   21.5685  -32.8441   -6.3846 C   0  0  2  0  0  0  0  0  0  0  0  0
   21.6916  -31.5044   -6.8239 N   0  0  0  0  0  0  0  0  0  0  0  0
   22.9138  -33.5256   -6.2879 C   0  0  0  0  0  0  0  0  0  0  0  0
   22.9913  -34.7818   -6.1404 O   0  0  0  0  0  0  0  0  0  0  0  0
   24.1336  -32.8130   -6.3559 N   0  0  0  0  0  0  0  0  0  0  0  0
   25.4264  -33.4699   -6.3577 C   0  0  1  0  0  0  0  0  0  0  0  0
   26.4609  -32.6213   -7.1049 C   0  0  0  0  0  0  0  0  0  0  0  0
   25.9124  -32.3274   -8.8206 S   0  0  0  0  0  0  0  0  0  0  0  0
   25.9484  -33.6963   -5.0007 C   0  0  0  0  0  0  0  0  0  0  0  0
   25.9939  -32.7329   -4.1935 O   0  0  0  0  0  0  0  0  0  0  0  0
   27.0884  -37.5698   -3.4678 O   0  0  0  0  0  0  0  0  0  0  0  0
   26.5375  -36.5774   -2.6878 C   0  0  0  0  0  0  0  0  0  0  0  0
   26.8580  -35.1822   -3.1768 C   0  0  2  0  0  0  0  0  0  0  0  0
   26.4168  -34.9508   -4.5201 N   0  0  0  0  0  0  0  0  0  0  0  0
   28.3238  -34.9815   -3.1162 C   0  0  0  0  0  0  0  0  0  0  0  0
   28.9608  -34.9158   -1.8993 O   0  0  0  0  0  0  0  0  0  0  0  0
   29.0141  -34.8674   -4.1701 O   0  0  0  0  0  0  0  0  0  0  0  0
  1  2  1  0
  2  3  2  0
  4  5  1  0
  4  2  1  0
  6  8  1  0
  6  5  1  0
  6  7  1  6
  8 10  1  0
  9  8  2  0
 10 11  1  0
 11 14  1  0
 11 12  1  6
 13 12  1  0
 14 15  2  0
 14 19  1  0
 16 17  1  0
 18 17  1  6
 18 20  1  0
 19 18  1  0
 20 21  1  0
 22 20  2  0
M  END
$$$$
