QCS.pdb
     RDKit          3D

 22 21  0  0  1  0  0  0  0  0999 V2000
   29.2372  -20.9303  -11.8596 N   0  0  0  0  0  0  0  0  0  0  0  0
   29.8471  -19.7734  -12.4504 C   0  0  0  0  0  0  0  0  0  0  0  0
   30.9291  -19.3127  -12.0183 O   0  0  0  0  0  0  0  0  0  0  0  0
   29.1591  -19.1394  -13.5815 C   0  0  0  0  0  0  0  0  0  0  0  0
   27.8657  -19.7454  -13.9625 C   0  0  0  0  0  0  0  0  0  0  0  0
   27.7180  -21.2149  -13.8124 C   0  0  2  0  0  0  0  0  0  0  0  0
   27.9702  -21.9838  -14.9735 N   0  0  0  0  0  0  0  0  0  0  0  0
   26.3237  -21.4502  -13.2791 C   0  0  0  0  0  0  0  0  0  0  0  0
   25.5586  -22.2992  -13.8264 O   0  0  0  0  0  0  0  0  0  0  0  0
   25.8084  -20.7502  -12.1633 N   0  0  0  0  0  0  0  0  0  0  0  0
   24.4901  -21.0078  -11.6167 C   0  0  1  0  0  0  0  0  0  0  0  0
   24.3342  -20.3371  -10.2476 C   0  0  0  0  0  0  0  0  0  0  0  0
   25.5232  -21.0484   -9.0597 S   0  0  0  0  0  0  0  0  0  0  0  0
   23.4109  -20.4967  -12.4764 C   0  0  0  0  0  0  0  0  0  0  0  0
   23.4189  -19.2853  -12.8144 O   0  0  0  0  0  0  0  0  0  0  0  0
   20.2397  -22.9578  -13.9590 O   0  0  0  0  0  0  0  0  0  0  0  0
   20.7053  -21.8930  -14.6980 C   0  0  0  0  0  0  0  0  0  0  0  0
   21.3191  -20.7986  -13.8530 C   0  0  2  0  0  0  0  0  0  0  0  0
   22.3335  -21.2861  -12.9665 N   0  0  0  0  0  0  0  0  0  0  0  0
   20.2508  -20.1618  -13.0495 C   0  0  0  0  0  0  0  0  0  0  0  0
   19.2408  -19.4670  -13.6726 O   0  0  0  0  0  0  0  0  0  0  0  0
   20.2438  -20.2420  -11.7870 O   0  0  0  0  0  0  0  0  0  0  0  0
  1  2  1  0
  2  3  2  0
  4  5  1  0
  4  2  1  0
  6  8  1  0
  6  5  1  0
  6  7  1  6
  8 10  1  0
  9  8  2  0
 10 11  1  0
 11 14  1  0
 11 12  1  1
 13 12  1  0
 14 15  2  0
 14 19  1  0
 16 17  1  0
 18 17  1  1
 18 20  1  0
 19 18  1  0
 20 21  1  0
 22 20  2  0
M  END
$$$$
