QCS.pdb
     RDKit          3D

 22 21  0  0  1  0  0  0  0  0999 V2000
   21.3087  -10.0967  -20.2479 N   0  0  0  0  0  0  0  0  0  0  0  0
   20.4689  -10.7329  -19.2736 C   0  0  0  0  0  0  0  0  0  0  0  0
   20.8272  -11.7800  -18.6861 O   0  0  0  0  0  0  0  0  0  0  0  0
   19.1671  -10.1184  -18.9862 C   0  0  0  0  0  0  0  0  0  0  0  0
   19.1825   -9.0289  -17.9873 C   0  0  0  0  0  0  0  0  0  0  0  0
   19.2933   -9.4035  -16.5550 C   0  0  2  0  0  0  0  0  0  0  0  0
   18.2241  -10.1686  -16.0311 N   0  0  0  0  0  0  0  0  0  0  0  0
   19.4833   -8.1134  -15.7912 C   0  0  0  0  0  0  0  0  0  0  0  0
   18.4833   -7.4701  -15.3530 O   0  0  0  0  0  0  0  0  0  0  0  0
   20.7609   -7.5661  -15.5294 N   0  0  0  0  0  0  0  0  0  0  0  0
   20.9471   -6.3076  -14.8334 C   0  0  1  0  0  0  0  0  0  0  0  0
   22.2353   -6.3362  -14.0037 C   0  0  0  0  0  0  0  0  0  0  0  0
   22.5157   -4.7114  -13.2212 S   0  0  0  0  0  0  0  0  0  0  0  0
   21.0469   -5.1621  -15.7515 C   0  0  0  0  0  0  0  0  0  0  0  0
   21.9204   -5.1769  -16.6563 O   0  0  0  0  0  0  0  0  0  0  0  0
   17.9091   -2.4088  -16.1303 O   0  0  0  0  0  0  0  0  0  0  0  0
   18.7864   -2.6593  -17.1619 C   0  0  0  0  0  0  0  0  0  0  0  0
   20.1871   -2.9858  -16.6928 C   0  0  2  0  0  0  0  0  0  0  0  0
   20.2116   -4.0119  -15.6933 N   0  0  0  0  0  0  0  0  0  0  0  0
   20.7989   -1.7598  -16.1313 C   0  0  0  0  0  0  0  0  0  0  0  0
   20.9301   -0.6352  -16.9116 O   0  0  0  0  0  0  0  0  0  0  0  0
   21.2096   -1.7206  -14.9354 O   0  0  0  0  0  0  0  0  0  0  0  0
  1  2  1  0
  2  3  2  0
  4  5  1  0
  4  2  1  0
  6  8  1  0
  6  5  1  0
  6  7  1  1
  8 10  1  0
  9  8  2  0
 10 11  1  0
 11 14  1  0
 11 12  1  6
 13 12  1  0
 14 15  2  0
 14 19  1  0
 16 17  1  0
 18 17  1  1
 18 20  1  0
 19 18  1  0
 20 21  1  0
 22 20  2  0
M  END
$$$$
