QCS.pdb
     RDKit          3D

 22 21  0  0  1  0  0  0  0  0999 V2000
   19.0694  -12.4796  -18.1702 N   0  0  0  0  0  0  0  0  0  0  0  0
   20.0246  -12.8987  -17.1847 C   0  0  0  0  0  0  0  0  0  0  0  0
   20.3304  -14.1054  -17.0429 O   0  0  0  0  0  0  0  0  0  0  0  0
   20.6343  -11.8649  -16.3396 C   0  0  0  0  0  0  0  0  0  0  0  0
   20.1211  -10.4931  -16.5390 C   0  0  0  0  0  0  0  0  0  0  0  0
   21.0902   -9.3717  -16.4555 C   0  0  2  0  0  0  0  0  0  0  0  0
   22.4061   -9.7189  -16.0670 N   0  0  0  0  0  0  0  0  0  0  0  0
   20.4825   -8.3527  -15.5195 C   0  0  0  0  0  0  0  0  0  0  0  0
   19.5338   -8.6748  -14.7436 O   0  0  0  0  0  0  0  0  0  0  0  0
   20.9307   -7.0126  -15.4600 N   0  0  0  0  0  0  0  0  0  0  0  0
   20.4035   -6.0509  -14.5113 C   0  0  1  0  0  0  0  0  0  0  0  0
   21.4962   -5.6031  -13.5345 C   0  0  0  0  0  0  0  0  0  0  0  0
   22.9925   -5.1018  -14.4513 S   0  0  0  0  0  0  0  0  0  0  0  0
   19.8809   -4.8399  -15.1636 C   0  0  0  0  0  0  0  0  0  0  0  0
   20.5108   -4.3469  -16.1343 O   0  0  0  0  0  0  0  0  0  0  0  0
   16.0966   -1.8447  -15.9513 O   0  0  0  0  0  0  0  0  0  0  0  0
   16.6372   -2.9371  -15.3102 C   0  0  0  0  0  0  0  0  0  0  0  0
   18.1385   -3.0411  -15.4641 C   0  0  2  0  0  0  0  0  0  0  0  0
   18.6898   -4.1678  -14.7718 N   0  0  0  0  0  0  0  0  0  0  0  0
   18.7583   -1.8060  -14.9323 C   0  0  0  0  0  0  0  0  0  0  0  0
   19.0279   -0.7525  -15.7740 O   0  0  0  0  0  0  0  0  0  0  0  0
   19.0501   -1.6942  -13.7065 O   0  0  0  0  0  0  0  0  0  0  0  0
  1  2  1  0
  2  3  2  0
  4  5  1  0
  4  2  1  0
  6  8  1  0
  6  5  1  0
  6  7  1  1
  8 10  1  0
  9  8  2  0
 10 11  1  0
 11 14  1  0
 11 12  1  1
 13 12  1  0
 14 15  2  0
 14 19  1  0
 16 17  1  0
 18 17  1  1
 18 20  1  0
 19 18  1  0
 20 21  1  0
 22 20  2  0
M  END
$$$$
