QCS.pdb
     RDKit          3D

 22 21  0  0  1  0  0  0  0  0999 V2000
   18.8528  -14.9739  -16.8047 N   0  0  0  0  0  0  0  0  0  0  0  0
   19.5486  -15.0085  -18.0593 C   0  0  0  0  0  0  0  0  0  0  0  0
   19.5910  -16.0500  -18.7545 O   0  0  0  0  0  0  0  0  0  0  0  0
   20.2168  -13.7800  -18.5054 C   0  0  0  0  0  0  0  0  0  0  0  0
   20.0616  -12.6100  -17.6154 C   0  0  0  0  0  0  0  0  0  0  0  0
   20.7922  -11.3674  -17.9705 C   0  0  2  0  0  0  0  0  0  0  0  0
   22.0446  -11.5461  -18.6051 N   0  0  0  0  0  0  0  0  0  0  0  0
   20.9225  -10.5705  -16.6932 C   0  0  0  0  0  0  0  0  0  0  0  0
   20.0608  -10.6846  -15.7711 O   0  0  0  0  0  0  0  0  0  0  0  0
   21.9912   -9.6732  -16.4626 N   0  0  0  0  0  0  0  0  0  0  0  0
   22.1782   -8.9844  -15.2003 C   0  0  1  0  0  0  0  0  0  0  0  0
   23.5507   -9.3152  -14.6042 C   0  0  0  0  0  0  0  0  0  0  0  0
   23.5772  -11.0389  -14.0049 S   0  0  0  0  0  0  0  0  0  0  0  0
   22.1051   -7.5212  -15.3373 C   0  0  0  0  0  0  0  0  0  0  0  0
   22.8231   -6.9501  -16.1977 O   0  0  0  0  0  0  0  0  0  0  0  0
   19.7541   -3.3441  -14.2841 O   0  0  0  0  0  0  0  0  0  0  0  0
   19.8385   -4.7167  -14.2100 C   0  0  0  0  0  0  0  0  0  0  0  0
   21.1450   -5.2671  -14.7379 C   0  0  2  0  0  0  0  0  0  0  0  0
   21.2650   -6.6828  -14.5529 N   0  0  0  0  0  0  0  0  0  0  0  0
   22.2626   -4.5987  -14.0331 C   0  0  0  0  0  0  0  0  0  0  0  0
   22.8350   -3.4673  -14.5654 O   0  0  0  0  0  0  0  0  0  0  0  0
   22.7102   -5.0485  -12.9387 O   0  0  0  0  0  0  0  0  0  0  0  0
  1  2  1  0
  2  3  2  0
  4  5  1  0
  4  2  1  0
  6  8  1  0
  6  5  1  0
  6  7  1  1
  8 10  1  0
  9  8  2  0
 10 11  1  0
 11 14  1  0
 11 12  1  6
 13 12  1  0
 14 15  2  0
 14 19  1  0
 16 17  1  0
 18 17  1  1
 18 20  1  0
 19 18  1  0
 20 21  1  0
 22 20  2  0
M  END
$$$$
