QCS.pdb
     RDKit          3D

 22 21  0  0  1  0  0  0  0  0999 V2000
   16.1906  -14.2064  -14.0754 N   0  0  0  0  0  0  0  0  0  0  0  0
   15.7609  -14.0881  -15.4394 C   0  0  0  0  0  0  0  0  0  0  0  0
   15.0001  -14.9363  -15.9607 O   0  0  0  0  0  0  0  0  0  0  0  0
   16.2452  -12.9380  -16.2123 C   0  0  0  0  0  0  0  0  0  0  0  0
   17.1740  -12.0356  -15.4994 C   0  0  0  0  0  0  0  0  0  0  0  0
   17.7715  -10.9118  -16.2635 C   0  0  2  0  0  0  0  0  0  0  0  0
   18.5912  -11.2749  -17.3586 N   0  0  0  0  0  0  0  0  0  0  0  0
   18.5223  -10.0668  -15.2604 C   0  0  0  0  0  0  0  0  0  0  0  0
   17.9609   -9.6844  -14.1906 O   0  0  0  0  0  0  0  0  0  0  0  0
   19.8643   -9.6659  -15.4573 N   0  0  0  0  0  0  0  0  0  0  0  0
   20.5984   -8.8795  -14.4849 C   0  0  1  0  0  0  0  0  0  0  0  0
   22.0106   -9.4427  -14.2922 C   0  0  0  0  0  0  0  0  0  0  0  0
   22.8576   -9.5815  -15.9029 S   0  0  0  0  0  0  0  0  0  0  0  0
   20.7432   -7.4719  -14.8880 C   0  0  0  0  0  0  0  0  0  0  0  0
   20.9734   -7.2010  -16.0945 O   0  0  0  0  0  0  0  0  0  0  0  0
   19.8792   -2.7815  -14.2439 O   0  0  0  0  0  0  0  0  0  0  0  0
   19.6660   -4.1162  -13.9799 C   0  0  0  0  0  0  0  0  0  0  0  0
   20.8233   -5.0011  -14.3874 C   0  0  2  0  0  0  0  0  0  0  0  0
   20.6404   -6.3674  -13.9972 N   0  0  0  0  0  0  0  0  0  0  0  0
   22.0604   -4.4876  -13.7563 C   0  0  0  0  0  0  0  0  0  0  0  0
   22.5660   -5.0985  -12.6328 O   0  0  0  0  0  0  0  0  0  0  0  0
   22.6722   -3.4872  -14.2311 O   0  0  0  0  0  0  0  0  0  0  0  0
  1  2  1  0
  2  3  2  0
  4  5  1  0
  4  2  1  0
  6  8  1  0
  6  5  1  0
  6  7  1  6
  8 10  1  0
  9  8  2  0
 10 11  1  0
 11 14  1  0
 11 12  1  6
 13 12  1  0
 14 15  2  0
 14 19  1  0
 16 17  1  0
 18 17  1  1
 18 20  1  0
 19 18  1  0
 20 21  1  0
 22 20  2  0
M  END
$$$$
