QCS.pdb
     RDKit          3D

 22 21  0  0  1  0  0  0  0  0999 V2000
   16.5484  -11.3330  -15.8545 N   0  0  0  0  0  0  0  0  0  0  0  0
   17.2832  -11.7948  -16.9973 C   0  0  0  0  0  0  0  0  0  0  0  0
   16.9631  -12.8463  -17.5986 O   0  0  0  0  0  0  0  0  0  0  0  0
   18.4310  -10.9950  -17.4419 C   0  0  0  0  0  0  0  0  0  0  0  0
   18.7142   -9.7852  -16.6410 C   0  0  0  0  0  0  0  0  0  0  0  0
   19.9117   -9.7997  -15.7637 C   0  0  2  0  0  0  0  0  0  0  0  0
   19.9737  -10.8517  -14.8190 N   0  0  0  0  0  0  0  0  0  0  0  0
   19.9659   -8.4454  -15.0952 C   0  0  0  0  0  0  0  0  0  0  0  0
   19.0346   -8.0699  -14.3223 O   0  0  0  0  0  0  0  0  0  0  0  0
   21.0371   -7.5430  -15.2919 N   0  0  0  0  0  0  0  0  0  0  0  0
   21.0965   -6.2446  -14.6489 C   0  0  1  0  0  0  0  0  0  0  0  0
   22.3177   -6.1553  -13.7273 C   0  0  0  0  0  0  0  0  0  0  0  0
   22.4360   -4.4855  -13.0000 S   0  0  0  0  0  0  0  0  0  0  0  0
   21.1987   -5.1387  -15.6141 C   0  0  0  0  0  0  0  0  0  0  0  0
   22.1462   -5.1334  -16.4412 O   0  0  0  0  0  0  0  0  0  0  0  0
   18.0651   -3.3449  -17.4612 O   0  0  0  0  0  0  0  0  0  0  0  0
   18.9736   -2.4295  -16.9780 C   0  0  0  0  0  0  0  0  0  0  0  0
   20.3327   -3.0278  -16.6892 C   0  0  2  0  0  0  0  0  0  0  0  0
   20.2866   -4.0492  -15.6856 N   0  0  0  0  0  0  0  0  0  0  0  0
   21.2393   -1.9507  -16.2306 C   0  0  0  0  0  0  0  0  0  0  0  0
   22.1424   -1.3913  -17.1038 O   0  0  0  0  0  0  0  0  0  0  0  0
   21.2034   -1.5263  -15.0394 O   0  0  0  0  0  0  0  0  0  0  0  0
  1  2  1  0
  2  3  2  0
  4  5  1  0
  4  2  1  0
  6  8  1  0
  6  5  1  0
  6  7  1  1
  8 10  1  0
  9  8  2  0
 10 11  1  0
 11 14  1  0
 11 12  1  1
 13 12  1  0
 14 15  2  0
 14 19  1  0
 16 17  1  0
 18 17  1  1
 18 20  1  0
 19 18  1  0
 20 21  1  0
 22 20  2  0
M  END
$$$$
