QCS.pdb
     RDKit          3D

 22 21  0  0  1  0  0  0  0  0999 V2000
   19.0201  -15.6885  -14.3585 N   0  0  0  0  0  0  0  0  0  0  0  0
   18.2287  -15.7082  -15.5555 C   0  0  0  0  0  0  0  0  0  0  0  0
   17.4549  -16.6598  -15.8115 O   0  0  0  0  0  0  0  0  0  0  0  0
   18.3561  -14.5743  -16.4789 C   0  0  0  0  0  0  0  0  0  0  0  0
   19.1581  -13.4354  -15.9841 C   0  0  0  0  0  0  0  0  0  0  0  0
   19.2977  -12.2505  -16.8675 C   0  0  2  0  0  0  0  0  0  0  0  0
   19.8956  -12.4861  -18.1285 N   0  0  0  0  0  0  0  0  0  0  0  0
   20.0597  -11.2149  -16.0733 C   0  0  0  0  0  0  0  0  0  0  0  0
   19.6433  -10.8387  -14.9371 O   0  0  0  0  0  0  0  0  0  0  0  0
   21.2541  -10.6224  -16.5453 N   0  0  0  0  0  0  0  0  0  0  0  0
   21.9865   -9.6250  -15.7892 C   0  0  1  0  0  0  0  0  0  0  0  0
   23.4868   -9.7173  -16.0876 C   0  0  0  0  0  0  0  0  0  0  0  0
   24.2897  -10.8714  -14.9238 S   0  0  0  0  0  0  0  0  0  0  0  0
   21.5641   -8.2515  -16.1058 C   0  0  0  0  0  0  0  0  0  0  0  0
   21.3737   -7.9310  -17.3070 O   0  0  0  0  0  0  0  0  0  0  0  0
   20.7317   -5.2311  -13.1347 O   0  0  0  0  0  0  0  0  0  0  0  0
   20.0891   -5.2806  -14.3518 C   0  0  0  0  0  0  0  0  0  0  0  0
   20.9267   -5.9015  -15.4479 C   0  0  2  0  0  0  0  0  0  0  0  0
   21.3496   -7.2341  -15.1348 N   0  0  0  0  0  0  0  0  0  0  0  0
   22.1259   -5.0604  -15.6649 C   0  0  0  0  0  0  0  0  0  0  0  0
   21.9978   -3.8053  -16.2118 O   0  0  0  0  0  0  0  0  0  0  0  0
   23.2810   -5.4732  -15.3556 O   0  0  0  0  0  0  0  0  0  0  0  0
  1  2  1  0
  2  3  2  0
  4  5  1  0
  4  2  1  0
  6  8  1  0
  6  5  1  0
  6  7  1  6
  8 10  1  0
  9  8  2  0
 10 11  1  0
 11 14  1  0
 11 12  1  6
 13 12  1  0
 14 15  2  0
 14 19  1  0
 16 17  1  0
 18 17  1  1
 18 20  1  0
 19 18  1  0
 20 21  1  0
 22 20  2  0
M  END
$$$$
