QCS.pdb
     RDKit          3D

 22 21  0  0  1  0  0  0  0  0999 V2000
   14.7058  -10.4786  -10.2262 N   0  0  0  0  0  0  0  0  0  0  0  0
   13.5946   -9.8458   -9.5748 C   0  0  0  0  0  0  0  0  0  0  0  0
   12.7004  -10.5168   -9.0091 O   0  0  0  0  0  0  0  0  0  0  0  0
   13.5345   -8.3793   -9.5941 C   0  0  0  0  0  0  0  0  0  0  0  0
   14.7184   -7.6996  -10.1612 C   0  0  0  0  0  0  0  0  0  0  0  0
   15.8894   -7.4909   -9.2730 C   0  0  2  0  0  0  0  0  0  0  0  0
   15.6879   -6.6157   -8.1791 N   0  0  0  0  0  0  0  0  0  0  0  0
   17.0192   -7.0234  -10.1610 C   0  0  0  0  0  0  0  0  0  0  0  0
   17.3400   -5.7982  -10.2055 O   0  0  0  0  0  0  0  0  0  0  0  0
   17.7644   -7.9097  -10.9731 N   0  0  0  0  0  0  0  0  0  0  0  0
   18.8930   -7.4776  -11.7746 C   0  0  1  0  0  0  0  0  0  0  0  0
   19.8272   -8.6562  -12.0693 C   0  0  0  0  0  0  0  0  0  0  0  0
   21.1741   -8.1283  -13.1820 S   0  0  0  0  0  0  0  0  0  0  0  0
   18.4842   -6.9126  -13.0702 C   0  0  0  0  0  0  0  0  0  0  0  0
   17.7462   -7.5919  -13.8290 O   0  0  0  0  0  0  0  0  0  0  0  0
   18.8863   -2.7977  -14.0281 O   0  0  0  0  0  0  0  0  0  0  0  0
   17.9356   -3.6170  -14.5952 C   0  0  0  0  0  0  0  0  0  0  0  0
   18.3997   -5.0468  -14.7653 C   0  0  2  0  0  0  0  0  0  0  0  0
   18.8684   -5.6265  -13.5419 N   0  0  0  0  0  0  0  0  0  0  0  0
   19.4986   -5.0757  -15.7573 C   0  0  0  0  0  0  0  0  0  0  0  0
   19.2738   -4.6566  -17.0476 O   0  0  0  0  0  0  0  0  0  0  0  0
   20.6548   -5.4818  -15.4433 O   0  0  0  0  0  0  0  0  0  0  0  0
  1  2  1  0
  2  3  2  0
  4  5  1  0
  4  2  1  0
  6  8  1  0
  6  5  1  0
  6  7  1  1
  8 10  1  0
  9  8  2  0
 10 11  1  0
 11 14  1  0
 11 12  1  6
 13 12  1  0
 14 15  2  0
 14 19  1  0
 16 17  1  0
 18 17  1  1
 18 20  1  0
 19 18  1  0
 20 21  1  0
 22 20  2  0
M  END
$$$$
