QCS.pdb
     RDKit          3D

 22 21  0  0  1  0  0  0  0  0999 V2000
   22.1329  -11.7332  -17.6108 N   0  0  0  0  0  0  0  0  0  0  0  0
   20.7164  -11.5980  -17.4253 C   0  0  0  0  0  0  0  0  0  0  0  0
   19.9027  -12.0115  -18.2836 O   0  0  0  0  0  0  0  0  0  0  0  0
   20.2459  -10.9533  -16.1934 C   0  0  0  0  0  0  0  0  0  0  0  0
   19.1787   -9.9455  -16.3681 C   0  0  0  0  0  0  0  0  0  0  0  0
   19.5003   -8.7237  -17.1477 C   0  0  2  0  0  0  0  0  0  0  0  0
   20.6320   -8.8095  -17.9932 N   0  0  0  0  0  0  0  0  0  0  0  0
   19.6371   -7.6022  -16.1441 C   0  0  0  0  0  0  0  0  0  0  0  0
   18.7122   -7.3661  -15.3107 O   0  0  0  0  0  0  0  0  0  0  0  0
   20.7813   -6.7731  -16.0819 N   0  0  0  0  0  0  0  0  0  0  0  0
   20.8782   -5.6364  -15.1866 C   0  0  1  0  0  0  0  0  0  0  0  0
   22.2977   -5.5149  -14.6220 C   0  0  0  0  0  0  0  0  0  0  0  0
   22.2385   -4.9477  -12.8883 S   0  0  0  0  0  0  0  0  0  0  0  0
   20.5649   -4.3625  -15.8529 C   0  0  0  0  0  0  0  0  0  0  0  0
   21.1152   -4.0946  -16.9517 O   0  0  0  0  0  0  0  0  0  0  0  0
   17.6459   -0.4565  -16.2543 O   0  0  0  0  0  0  0  0  0  0  0  0
   17.9569   -1.6565  -15.6543 C   0  0  0  0  0  0  0  0  0  0  0  0
   19.3371   -2.1647  -16.0084 C   0  0  2  0  0  0  0  0  0  0  0  0
   19.6664   -3.3872  -15.3377 N   0  0  0  0  0  0  0  0  0  0  0  0
   20.3336   -1.1346  -15.6365 C   0  0  0  0  0  0  0  0  0  0  0  0
   20.6844   -0.1575  -16.5383 O   0  0  0  0  0  0  0  0  0  0  0  0
   20.8778   -1.1308  -14.4945 O   0  0  0  0  0  0  0  0  0  0  0  0
  1  2  1  0
  2  3  2  0
  4  5  1  0
  4  2  1  0
  6  8  1  0
  6  5  1  0
  6  7  1  1
  8 10  1  0
  9  8  2  0
 10 11  1  0
 11 14  1  0
 11 12  1  6
 13 12  1  0
 14 15  2  0
 14 19  1  0
 16 17  1  0
 18 17  1  1
 18 20  1  0
 19 18  1  0
 20 21  1  0
 22 20  2  0
M  END
$$$$
