QCS.pdb
     RDKit          3D

 22 21  0  0  1  0  0  0  0  0999 V2000
   13.9141  -22.1034   -8.5805 N   0  0  0  0  0  0  0  0  0  0  0  0
   14.0720  -21.8007   -9.9743 C   0  0  0  0  0  0  0  0  0  0  0  0
   13.6252  -20.7389  -10.4670 O   0  0  0  0  0  0  0  0  0  0  0  0
   14.7743  -22.7803  -10.8121 C   0  0  0  0  0  0  0  0  0  0  0  0
   15.3849  -23.9164  -10.0899 C   0  0  0  0  0  0  0  0  0  0  0  0
   16.7411  -23.7250   -9.5171 C   0  0  2  0  0  0  0  0  0  0  0  0
   17.8006  -23.6378  -10.4514 N   0  0  0  0  0  0  0  0  0  0  0  0
   16.9527  -24.8558   -8.5372 C   0  0  0  0  0  0  0  0  0  0  0  0
   17.2289  -26.0222   -8.9482 O   0  0  0  0  0  0  0  0  0  0  0  0
   16.8563  -24.6768   -7.1375 N   0  0  0  0  0  0  0  0  0  0  0  0
   17.3057  -25.6752   -6.1866 C   0  0  1  0  0  0  0  0  0  0  0  0
   18.8352  -25.7714   -6.1889 C   0  0  0  0  0  0  0  0  0  0  0  0
   19.5704  -24.1015   -6.2329 S   0  0  0  0  0  0  0  0  0  0  0  0
   16.8915  -25.3710   -4.8079 C   0  0  0  0  0  0  0  0  0  0  0  0
   17.0239  -24.1981   -4.3733 O   0  0  0  0  0  0  0  0  0  0  0  0
   13.9991  -26.2067   -1.0756 O   0  0  0  0  0  0  0  0  0  0  0  0
   14.4888  -26.5572   -2.3142 C   0  0  0  0  0  0  0  0  0  0  0  0
   15.8706  -26.0072   -2.5909 C   0  0  2  0  0  0  0  0  0  0  0  0
   16.3397  -26.3239   -3.9071 N   0  0  0  0  0  0  0  0  0  0  0  0
   16.8151  -26.5722   -1.6003 C   0  0  0  0  0  0  0  0  0  0  0  0
   16.9044  -26.0239   -0.3424 O   0  0  0  0  0  0  0  0  0  0  0  0
   17.5518  -27.5600   -1.8862 O   0  0  0  0  0  0  0  0  0  0  0  0
  1  2  1  0
  2  3  2  0
  4  5  1  0
  4  2  1  0
  6  8  1  0
  6  5  1  0
  6  7  1  6
  8 10  1  0
  9  8  2  0
 10 11  1  0
 11 14  1  0
 11 12  1  1
 13 12  1  0
 14 15  2  0
 14 19  1  0
 16 17  1  0
 18 17  1  1
 18 20  1  0
 19 18  1  0
 20 21  1  0
 22 20  2  0
M  END
$$$$
