FEF.pdb
     RDKit          3D

 32 33  0  0  1  0  0  0  0  0999 V2000
   29.1986  -20.1187  -14.0086 N   0  0  0  0  0  0  0  0  0  0  0  0
   28.5567  -21.3650  -13.6541 C   0  0  1  0  0  0  0  0  0  0  0  0
   28.3889  -21.5345  -12.1764 C   0  0  0  0  0  0  0  0  0  0  0  0
   29.6584  -21.5734  -11.4298 C   0  0  0  0  0  0  0  0  0  0  0  0
   30.1778  -22.8133  -11.0923 C   0  0  0  0  0  0  0  0  0  0  0  0
   31.3599  -22.9509  -10.3946 C   0  0  0  0  0  0  0  0  0  0  0  0
   32.0720  -21.8344  -10.0058 C   0  0  0  0  0  0  0  0  0  0  0  0
   31.5345  -20.6091  -10.3536 C   0  0  0  0  0  0  0  0  0  0  0  0
   30.3589  -20.4631  -11.0477 C   0  0  0  0  0  0  0  0  0  0  0  0
   27.1823  -21.3545  -14.2523 C   0  0  0  0  0  0  0  0  0  0  0  0
   26.5613  -20.2791  -14.3298 O   0  0  0  0  0  0  0  0  0  0  0  0
   26.6024  -22.5442  -14.7198 N   0  0  0  0  0  0  0  0  0  0  0  0
   25.2395  -22.7129  -15.0670 C   0  0  1  0  0  0  0  0  0  0  0  0
   24.8725  -24.0524  -15.6878 C   0  0  0  0  0  0  0  0  0  0  0  0
   23.4980  -24.0720  -16.2987 C   0  0  0  0  0  0  0  0  0  0  0  0
   23.6180  -23.4143  -17.6443 C   0  0  0  0  0  0  0  0  0  0  0  0
   24.4589  -23.8597  -18.4496 O   0  0  0  0  0  0  0  0  0  0  0  0
   24.2539  -22.3913  -14.0371 C   0  0  0  0  0  0  0  0  0  0  0  0
   24.5096  -22.7551  -12.8325 O   0  0  0  0  0  0  0  0  0  0  0  0
   22.8293  -22.3406  -18.0081 O   0  0  0  0  0  0  0  0  0  0  0  0
   23.0435  -21.7167  -14.2342 N   0  0  0  0  0  0  0  0  0  0  0  0
   22.1968  -21.2564  -13.1281 C   0  0  1  0  0  0  0  0  0  0  0  0
   22.8210  -19.9505  -12.6455 C   0  0  0  0  0  0  0  0  0  0  0  0
   23.6281  -20.1596  -11.4265 C   0  0  0  0  0  0  0  0  0  0  0  0
   23.0931  -20.4914  -10.2148 C   0  0  0  0  0  0  0  0  0  0  0  0
   23.9408  -20.6651   -9.1322 C   0  0  0  0  0  0  0  0  0  0  0  0
   25.3081  -20.5152   -9.2329 C   0  0  0  0  0  0  0  0  0  0  0  0
   25.8522  -20.1803  -10.4543 C   0  0  0  0  0  0  0  0  0  0  0  0
   24.9933  -20.0091  -11.5305 C   0  0  0  0  0  0  0  0  0  0  0  0
   20.8353  -20.9172  -13.6126 C   0  0  0  0  0  0  0  0  0  0  0  0
   20.6628  -20.8275  -14.8551 O   0  0  0  0  0  0  0  0  0  0  0  0
   19.7615  -20.6968  -12.8002 O   0  0  0  0  0  0  0  0  0  0  0  0
  2  1  1  1
  3  2  1  0
  4  5  2  0
  4  3  1  0
  6  5  1  0
  7  6  2  0
  8  7  1  0
  8  9  2  0
  9  4  1  0
 10 12  1  0
 10  2  1  0
 11 10  2  0
 13 12  1  0
 14 15  1  0
 13 14  1  1
 15 16  1  0
 16 17  2  0
 18 21  1  0
 18 13  1  0
 19 18  2  0
 20 16  1  0
 22 21  1  0
 22 30  1  0
 23 24  1  0
 22 23  1  6
 24 29  1  0
 25 24  2  0
 25 26  1  0
 26 27  2  0
 27 28  1  0
 29 28  2  0
 30 32  1  0
 31 30  2  0
M  END
$$$$
