FEF.pdb
     RDKit          3D

 32 33  0  0  1  0  0  0  0  0999 V2000
   18.3057   -5.2871  -15.6001 N   0  0  0  0  0  0  0  0  0  0  0  0
   18.4310   -6.4200  -14.7103 C   0  0  1  0  0  0  0  0  0  0  0  0
   19.1773   -6.0949  -13.4543 C   0  0  0  0  0  0  0  0  0  0  0  0
   20.5854   -5.7209  -13.6738 C   0  0  0  0  0  0  0  0  0  0  0  0
   20.8980   -4.3724  -13.7425 C   0  0  0  0  0  0  0  0  0  0  0  0
   22.1873   -3.9253  -13.9452 C   0  0  0  0  0  0  0  0  0  0  0  0
   23.2220   -4.8273  -14.0878 C   0  0  0  0  0  0  0  0  0  0  0  0
   22.8859   -6.1665  -14.0157 C   0  0  0  0  0  0  0  0  0  0  0  0
   21.6058   -6.6201  -13.8143 C   0  0  0  0  0  0  0  0  0  0  0  0
   17.0489   -6.8336  -14.3036 C   0  0  0  0  0  0  0  0  0  0  0  0
   16.1424   -5.9816  -14.2774 O   0  0  0  0  0  0  0  0  0  0  0  0
   16.7800   -8.1668  -13.9564 N   0  0  0  0  0  0  0  0  0  0  0  0
   15.5011   -8.6951  -13.6534 C   0  0  1  0  0  0  0  0  0  0  0  0
   15.3206  -10.1846  -13.9045 C   0  0  0  0  0  0  0  0  0  0  0  0
   15.5677  -10.5847  -15.3333 C   0  0  0  0  0  0  0  0  0  0  0  0
   15.3642  -12.0718  -15.4029 C   0  0  0  0  0  0  0  0  0  0  0  0
   15.0989  -12.6843  -14.3501 O   0  0  0  0  0  0  0  0  0  0  0  0
   14.9522   -8.3747  -12.3376 C   0  0  0  0  0  0  0  0  0  0  0  0
   15.7705   -8.3071  -11.3503 O   0  0  0  0  0  0  0  0  0  0  0  0
   15.4625  -12.7700  -16.5903 O   0  0  0  0  0  0  0  0  0  0  0  0
   13.6063   -8.1301  -12.0413 N   0  0  0  0  0  0  0  0  0  0  0  0
   13.1247   -7.8577  -10.6826 C   0  0  1  0  0  0  0  0  0  0  0  0
   13.1638   -6.3405  -10.5266 C   0  0  0  0  0  0  0  0  0  0  0  0
   12.6877   -5.9258   -9.1915 C   0  0  0  0  0  0  0  0  0  0  0  0
   11.3672   -5.8327   -8.8564 C   0  0  0  0  0  0  0  0  0  0  0  0
   11.0273   -5.4332   -7.5735 C   0  0  0  0  0  0  0  0  0  0  0  0
   11.9750   -5.1255   -6.6200 C   0  0  0  0  0  0  0  0  0  0  0  0
   13.3091   -5.2182   -6.9542 C   0  0  0  0  0  0  0  0  0  0  0  0
   13.6368   -5.6191   -8.2415 C   0  0  0  0  0  0  0  0  0  0  0  0
   11.7027   -8.2583  -10.5374 C   0  0  0  0  0  0  0  0  0  0  0  0
   11.1750   -8.1387   -9.4022 O   0  0  0  0  0  0  0  0  0  0  0  0
   10.9327   -8.7465  -11.5525 O   0  0  0  0  0  0  0  0  0  0  0  0
  2  1  1  6
  3  2  1  0
  4  5  2  0
  4  3  1  0
  6  5  1  0
  7  6  2  0
  8  7  1  0
  8  9  2  0
  9  4  1  0
 10 12  1  0
 10  2  1  0
 11 10  2  0
 13 12  1  0
 14 15  1  0
 13 14  1  1
 15 16  1  0
 16 17  2  0
 18 21  1  0
 18 13  1  0
 19 18  2  0
 20 16  1  0
 22 21  1  0
 22 30  1  0
 23 24  1  0
 22 23  1  6
 24 29  1  0
 25 24  2  0
 25 26  1  0
 26 27  2  0
 27 28  1  0
 29 28  2  0
 30 32  1  0
 31 30  2  0
M  END
$$$$
