FEF.pdb
     RDKit          3D

 32 33  0  0  1  0  0  0  0  0999 V2000
   25.9175  -18.8271   -8.2753 N   0  0  0  0  0  0  0  0  0  0  0  0
   26.7782  -19.7996   -8.9112 C   0  0  1  0  0  0  0  0  0  0  0  0
   27.0674  -20.9808   -8.0386 C   0  0  0  0  0  0  0  0  0  0  0  0
   27.8165  -20.6515   -6.8134 C   0  0  0  0  0  0  0  0  0  0  0  0
   27.1022  -20.1996   -5.7149 C   0  0  0  0  0  0  0  0  0  0  0  0
   27.7153  -19.8667   -4.5247 C   0  0  0  0  0  0  0  0  0  0  0  0
   29.0847  -19.9770   -4.3930 C   0  0  0  0  0  0  0  0  0  0  0  0
   29.7756  -20.4296   -5.5016 C   0  0  0  0  0  0  0  0  0  0  0  0
   29.1737  -20.7630   -6.6897 C   0  0  0  0  0  0  0  0  0  0  0  0
   26.0632  -20.3155  -10.1234 C   0  0  0  0  0  0  0  0  0  0  0  0
   24.8237  -20.4217  -10.0987 O   0  0  0  0  0  0  0  0  0  0  0  0
   26.7835  -20.6747  -11.2734 N   0  0  0  0  0  0  0  0  0  0  0  0
   26.2658  -20.7039  -12.5915 C   0  0  1  0  0  0  0  0  0  0  0  0
   27.2752  -20.9774  -13.6963 C   0  0  0  0  0  0  0  0  0  0  0  0
   27.5494  -19.7808  -14.5657 C   0  0  0  0  0  0  0  0  0  0  0  0
   28.1345  -20.3067  -15.8459 C   0  0  0  0  0  0  0  0  0  0  0  0
   28.5035  -19.4876  -16.7100 O   0  0  0  0  0  0  0  0  0  0  0  0
   25.0897  -21.5413  -12.8175 C   0  0  0  0  0  0  0  0  0  0  0  0
   25.0208  -22.6564  -12.1845 O   0  0  0  0  0  0  0  0  0  0  0  0
   28.2724  -21.6594  -16.0872 O   0  0  0  0  0  0  0  0  0  0  0  0
   24.0159  -21.2457  -13.6654 N   0  0  0  0  0  0  0  0  0  0  0  0
   22.6425  -21.6861  -13.3974 C   0  0  1  0  0  0  0  0  0  0  0  0
   22.2217  -20.9716  -12.1167 C   0  0  0  0  0  0  0  0  0  0  0  0
   20.8593  -21.3657  -11.7050 C   0  0  0  0  0  0  0  0  0  0  0  0
   19.7941  -20.5113  -11.7052 C   0  0  0  0  0  0  0  0  0  0  0  0
   18.5556  -20.9832  -11.2996 C   0  0  0  0  0  0  0  0  0  0  0  0
   18.3581  -22.2868  -10.8948 C   0  0  0  0  0  0  0  0  0  0  0  0
   19.4308  -23.1524  -10.8932 C   0  0  0  0  0  0  0  0  0  0  0  0
   20.6653  -22.6682  -11.3013 C   0  0  0  0  0  0  0  0  0  0  0  0
   21.7213  -21.2164  -14.4624 C   0  0  0  0  0  0  0  0  0  0  0  0
   21.8369  -20.0262  -14.8518 O   0  0  0  0  0  0  0  0  0  0  0  0
   20.7598  -21.9895  -15.0450 O   0  0  0  0  0  0  0  0  0  0  0  0
  2  1  1  1
  3  2  1  0
  4  5  2  0
  4  3  1  0
  6  5  1  0
  7  6  2  0
  8  7  1  0
  8  9  2  0
  9  4  1  0
 10 12  1  0
 10  2  1  0
 11 10  2  0
 13 12  1  0
 14 15  1  0
 13 14  1  6
 15 16  1  0
 16 17  2  0
 18 21  1  0
 18 13  1  0
 19 18  2  0
 20 16  1  0
 22 21  1  0
 22 30  1  0
 23 24  1  0
 22 23  1  1
 24 29  1  0
 25 24  2  0
 25 26  1  0
 26 27  2  0
 27 28  1  0
 29 28  2  0
 30 32  1  0
 31 30  2  0
M  END
$$$$
