FEF.pdb
     RDKit          3D

 32 33  0  0  1  0  0  0  0  0999 V2000
   18.2524  -26.6756  -12.0249 N   0  0  0  0  0  0  0  0  0  0  0  0
   18.8738  -25.7768  -11.0778 C   0  0  1  0  0  0  0  0  0  0  0  0
   19.1220  -24.4137  -11.6442 C   0  0  0  0  0  0  0  0  0  0  0  0
   20.0999  -24.3918  -12.7460 C   0  0  0  0  0  0  0  0  0  0  0  0
   19.6174  -24.3369  -14.0441 C   0  0  0  0  0  0  0  0  0  0  0  0
   20.4549  -24.3126  -15.1400 C   0  0  0  0  0  0  0  0  0  0  0  0
   21.8242  -24.3430  -14.9699 C   0  0  0  0  0  0  0  0  0  0  0  0
   22.2818  -24.3976  -13.6664 C   0  0  0  0  0  0  0  0  0  0  0  0
   21.4555  -24.4221  -12.5702 C   0  0  0  0  0  0  0  0  0  0  0  0
   17.9298  -25.6069   -9.9259 C   0  0  0  0  0  0  0  0  0  0  0  0
   16.7040  -25.6053  -10.1397 O   0  0  0  0  0  0  0  0  0  0  0  0
   18.4228  -25.4514   -8.6208 N   0  0  0  0  0  0  0  0  0  0  0  0
   17.6375  -25.1880   -7.4718 C   0  0  1  0  0  0  0  0  0  0  0  0
   18.3601  -25.2833   -6.1366 C   0  0  0  0  0  0  0  0  0  0  0  0
   17.4629  -25.0473   -4.9525 C   0  0  0  0  0  0  0  0  0  0  0  0
   17.8745  -26.0368   -3.8993 C   0  0  0  0  0  0  0  0  0  0  0  0
   17.0306  -26.3854   -3.0507 O   0  0  0  0  0  0  0  0  0  0  0  0
   16.8435  -23.9613   -7.4851 C   0  0  0  0  0  0  0  0  0  0  0  0
   17.3959  -22.8982   -7.9472 O   0  0  0  0  0  0  0  0  0  0  0  0
   19.1498  -26.5641   -3.8478 O   0  0  0  0  0  0  0  0  0  0  0  0
   15.5234  -23.8270   -7.0396 N   0  0  0  0  0  0  0  0  0  0  0  0
   14.7454  -22.5948   -7.2084 C   0  0  1  0  0  0  0  0  0  0  0  0
   14.4728  -22.4798   -8.7052 C   0  0  0  0  0  0  0  0  0  0  0  0
   13.5063  -23.5019   -9.1549 C   0  0  0  0  0  0  0  0  0  0  0  0
   12.1823  -23.4872   -8.8211 C   0  0  0  0  0  0  0  0  0  0  0  0
   11.3593  -24.4958   -9.2969 C   0  0  0  0  0  0  0  0  0  0  0  0
   11.8286  -25.5164  -10.0971 C   0  0  0  0  0  0  0  0  0  0  0  0
   13.1644  -25.5349  -10.4364 C   0  0  0  0  0  0  0  0  0  0  0  0
   13.9781  -24.5199   -9.9539 C   0  0  0  0  0  0  0  0  0  0  0  0
   13.4210  -22.7133   -6.5484 C   0  0  0  0  0  0  0  0  0  0  0  0
   12.6455  -21.7254   -6.6132 O   0  0  0  0  0  0  0  0  0  0  0  0
   12.9912  -23.8210   -5.8778 O   0  0  0  0  0  0  0  0  0  0  0  0
  2  1  1  6
  3  2  1  0
  4  5  2  0
  4  3  1  0
  6  5  1  0
  7  6  2  0
  8  7  1  0
  8  9  2  0
  9  4  1  0
 10 12  1  0
 10  2  1  0
 11 10  2  0
 13 12  1  0
 14 15  1  0
 13 14  1  1
 15 16  1  0
 16 17  2  0
 18 21  1  0
 18 13  1  0
 19 18  2  0
 20 16  1  0
 22 21  1  0
 22 30  1  0
 23 24  1  0
 22 23  1  6
 24 29  1  0
 25 24  2  0
 25 26  1  0
 26 27  2  0
 27 28  1  0
 29 28  2  0
 30 32  1  0
 31 30  2  0
M  END
$$$$
