FEF.pdb
     RDKit          3D

 32 33  0  0  1  0  0  0  0  0999 V2000
   26.3195  -17.8225  -20.4444 N   0  0  0  0  0  0  0  0  0  0  0  0
   26.2979  -17.2214  -19.1294 C   0  0  1  0  0  0  0  0  0  0  0  0
   25.4450  -15.9931  -19.0640 C   0  0  0  0  0  0  0  0  0  0  0  0
   25.8916  -14.9056  -19.9520 C   0  0  0  0  0  0  0  0  0  0  0  0
   25.0856  -14.5714  -21.0288 C   0  0  0  0  0  0  0  0  0  0  0  0
   25.4196  -13.5679  -21.9146 C   0  0  0  0  0  0  0  0  0  0  0  0
   26.5897  -12.8550  -21.7490 C   0  0  0  0  0  0  0  0  0  0  0  0
   27.3772  -13.2062  -20.6683 C   0  0  0  0  0  0  0  0  0  0  0  0
   27.0524  -14.2032  -19.7820 C   0  0  0  0  0  0  0  0  0  0  0  0
   25.7015  -18.2194  -18.1833 C   0  0  0  0  0  0  0  0  0  0  0  0
   24.7345  -18.9080  -18.5562 O   0  0  0  0  0  0  0  0  0  0  0  0
   26.2276  -18.3754  -16.8913 N   0  0  0  0  0  0  0  0  0  0  0  0
   25.7466  -19.2785  -15.9118 C   0  0  1  0  0  0  0  0  0  0  0  0
   26.7465  -19.6953  -14.8438 C   0  0  0  0  0  0  0  0  0  0  0  0
   28.0346  -20.2308  -15.4066 C   0  0  0  0  0  0  0  0  0  0  0  0
   27.8417  -21.7103  -15.5849 C   0  0  0  0  0  0  0  0  0  0  0  0
   26.7557  -22.2132  -15.2364 O   0  0  0  0  0  0  0  0  0  0  0  0
   24.4861  -18.9308  -15.2593 C   0  0  0  0  0  0  0  0  0  0  0  0
   24.3790  -17.7536  -14.7577 O   0  0  0  0  0  0  0  0  0  0  0  0
   28.8259  -22.5184  -16.1190 O   0  0  0  0  0  0  0  0  0  0  0  0
   23.3685  -19.7627  -15.1252 N   0  0  0  0  0  0  0  0  0  0  0  0
   22.1114  -19.3183  -14.5135 C   0  0  1  0  0  0  0  0  0  0  0  0
   21.6001  -18.1841  -15.3968 C   0  0  0  0  0  0  0  0  0  0  0  0
   21.1332  -18.6901  -16.7034 C   0  0  0  0  0  0  0  0  0  0  0  0
   19.9225  -19.2933  -16.8901 C   0  0  0  0  0  0  0  0  0  0  0  0
   19.5807  -19.7328  -18.1593 C   0  0  0  0  0  0  0  0  0  0  0  0
   20.4196  -19.5833  -19.2437 C   0  0  0  0  0  0  0  0  0  0  0  0
   21.6427  -18.9749  -19.0595 C   0  0  0  0  0  0  0  0  0  0  0  0
   21.9734  -18.5393  -17.7843 C   0  0  0  0  0  0  0  0  0  0  0  0
   21.0877  -20.3916  -14.5739 C   0  0  0  0  0  0  0  0  0  0  0  0
   19.9703  -20.1638  -14.0437 O   0  0  0  0  0  0  0  0  0  0  0  0
   21.2793  -21.6061  -15.1655 O   0  0  0  0  0  0  0  0  0  0  0  0
  2  1  1  6
  3  2  1  0
  4  5  2  0
  4  3  1  0
  6  5  1  0
  7  6  2  0
  8  7  1  0
  8  9  2  0
  9  4  1  0
 10 12  1  0
 10  2  1  0
 11 10  2  0
 13 12  1  0
 14 15  1  0
 13 14  1  1
 15 16  1  0
 16 17  2  0
 18 21  1  0
 18 13  1  0
 19 18  2  0
 20 16  1  0
 22 21  1  0
 22 30  1  0
 23 24  1  0
 22 23  1  6
 24 29  1  0
 25 24  2  0
 25 26  1  0
 26 27  2  0
 27 28  1  0
 29 28  2  0
 30 32  1  0
 31 30  2  0
M  END
$$$$
