FEF.pdb
     RDKit          3D

 32 33  0  0  1  0  0  0  0  0999 V2000
   18.7482  -13.7889  -18.6714 N   0  0  0  0  0  0  0  0  0  0  0  0
   18.4544  -13.2977  -17.3435 C   0  0  1  0  0  0  0  0  0  0  0  0
   19.6365  -13.3524  -16.4270 C   0  0  0  0  0  0  0  0  0  0  0  0
   20.0698  -14.7194  -16.0891 C   0  0  0  0  0  0  0  0  0  0  0  0
   19.6000  -15.2792  -14.9114 C   0  0  0  0  0  0  0  0  0  0  0  0
   19.9499  -16.5521  -14.5109 C   0  0  0  0  0  0  0  0  0  0  0  0
   20.7946  -17.3183  -15.2880 C   0  0  0  0  0  0  0  0  0  0  0  0
   21.2502  -16.7390  -16.4577 C   0  0  0  0  0  0  0  0  0  0  0  0
   20.9072  -15.4731  -16.8639 C   0  0  0  0  0  0  0  0  0  0  0  0
   18.0637  -11.8559  -17.4684 C   0  0  0  0  0  0  0  0  0  0  0  0
   18.6522  -11.1362  -18.2955 O   0  0  0  0  0  0  0  0  0  0  0  0
   17.0458  -11.3236  -16.6617 N   0  0  0  0  0  0  0  0  0  0  0  0
   16.6269   -9.9705  -16.6533 C   0  0  1  0  0  0  0  0  0  0  0  0
   15.1617   -9.7303  -16.3221 C   0  0  0  0  0  0  0  0  0  0  0  0
   14.7467   -8.2905  -16.4551 C   0  0  0  0  0  0  0  0  0  0  0  0
   14.5774   -7.7629  -15.0584 C   0  0  0  0  0  0  0  0  0  0  0  0
   14.0345   -8.4961  -14.2090 O   0  0  0  0  0  0  0  0  0  0  0  0
   17.4391   -9.0356  -15.8776 C   0  0  0  0  0  0  0  0  0  0  0  0
   18.0640   -9.4952  -14.8543 O   0  0  0  0  0  0  0  0  0  0  0  0
   15.0031   -6.5003  -14.6955 O   0  0  0  0  0  0  0  0  0  0  0  0
   17.6073   -7.6714  -16.1420 N   0  0  0  0  0  0  0  0  0  0  0  0
   18.4449   -6.7955  -15.3155 C   0  0  1  0  0  0  0  0  0  0  0  0
   19.8817   -7.2482  -15.5579 C   0  0  0  0  0  0  0  0  0  0  0  0
   20.8451   -6.3742  -14.8587 C   0  0  0  0  0  0  0  0  0  0  0  0
   21.4495   -5.2980  -15.4428 C   0  0  0  0  0  0  0  0  0  0  0  0
   22.3397   -4.5419  -14.6966 C   0  0  0  0  0  0  0  0  0  0  0  0
   22.6389   -4.8363  -13.3829 C   0  0  0  0  0  0  0  0  0  0  0  0
   22.0309   -5.9219  -12.7896 C   0  0  0  0  0  0  0  0  0  0  0  0
   21.1417   -6.6709  -13.5468 C   0  0  0  0  0  0  0  0  0  0  0  0
   18.3625   -5.3901  -15.7862 C   0  0  0  0  0  0  0  0  0  0  0  0
   18.0449   -5.1938  -16.9870 O   0  0  0  0  0  0  0  0  0  0  0  0
   18.6082   -4.3000  -15.0032 O   0  0  0  0  0  0  0  0  0  0  0  0
  2  1  1  6
  3  2  1  0
  4  5  2  0
  4  3  1  0
  6  5  1  0
  7  6  2  0
  8  7  1  0
  8  9  2  0
  9  4  1  0
 10 12  1  0
 10  2  1  0
 11 10  2  0
 13 12  1  0
 14 15  1  0
 13 14  1  1
 15 16  1  0
 16 17  2  0
 18 21  1  0
 18 13  1  0
 19 18  2  0
 20 16  1  0
 22 21  1  0
 22 30  1  0
 23 24  1  0
 22 23  1  6
 24 29  1  0
 25 24  2  0
 25 26  1  0
 26 27  2  0
 27 28  1  0
 29 28  2  0
 30 32  1  0
 31 30  2  0
M  END
$$$$
