FEF.pdb
     RDKit          3D

 32 33  0  0  1  0  0  0  0  0999 V2000
   21.4114   -9.7895  -21.8708 N   0  0  0  0  0  0  0  0  0  0  0  0
   21.3845   -8.3480  -21.7606 C   0  0  1  0  0  0  0  0  0  0  0  0
   19.9976   -7.7863  -21.7980 C   0  0  0  0  0  0  0  0  0  0  0  0
   19.3246   -7.9382  -23.0998 C   0  0  0  0  0  0  0  0  0  0  0  0
   19.5448   -6.9673  -24.0641 C   0  0  0  0  0  0  0  0  0  0  0  0
   18.9592   -7.0233  -25.3119 C   0  0  0  0  0  0  0  0  0  0  0  0
   18.1209   -8.0692  -25.6405 C   0  0  0  0  0  0  0  0  0  0  0  0
   17.9164   -9.0251  -24.6629 C   0  0  0  0  0  0  0  0  0  0  0  0
   18.4950   -8.9773  -23.4188 C   0  0  0  0  0  0  0  0  0  0  0  0
   21.9689   -7.9829  -20.4294 C   0  0  0  0  0  0  0  0  0  0  0  0
   22.1003   -8.8643  -19.5610 O   0  0  0  0  0  0  0  0  0  0  0  0
   22.3634   -6.6620  -20.1654 N   0  0  0  0  0  0  0  0  0  0  0  0
   22.9811   -6.2117  -18.9728 C   0  0  1  0  0  0  0  0  0  0  0  0
   23.8474   -4.9678  -19.1015 C   0  0  0  0  0  0  0  0  0  0  0  0
   24.6004   -4.6305  -17.8438 C   0  0  0  0  0  0  0  0  0  0  0  0
   25.3870   -3.3842  -18.1368 C   0  0  0  0  0  0  0  0  0  0  0  0
   26.4040   -3.4788  -18.8514 O   0  0  0  0  0  0  0  0  0  0  0  0
   22.1191   -6.0598  -17.8027 C   0  0  0  0  0  0  0  0  0  0  0  0
   21.0202   -5.4124  -17.9514 O   0  0  0  0  0  0  0  0  0  0  0  0
   25.0163   -2.1501  -17.6403 O   0  0  0  0  0  0  0  0  0  0  0  0
   22.3737   -6.5565  -16.5191 N   0  0  0  0  0  0  0  0  0  0  0  0
   21.4396   -6.3927  -15.3999 C   0  0  1  0  0  0  0  0  0  0  0  0
   20.9807   -7.8012  -15.0348 C   0  0  0  0  0  0  0  0  0  0  0  0
   22.1276   -8.7225  -14.9042 C   0  0  0  0  0  0  0  0  0  0  0  0
   22.8047   -8.9235  -13.7356 C   0  0  0  0  0  0  0  0  0  0  0  0
   23.8686   -9.8118  -13.7211 C   0  0  0  0  0  0  0  0  0  0  0  0
   24.2701  -10.5021  -14.8455 C   0  0  0  0  0  0  0  0  0  0  0  0
   23.5891  -10.3019  -16.0272 C   0  0  0  0  0  0  0  0  0  0  0  0
   22.5260   -9.4103  -16.0290 C   0  0  0  0  0  0  0  0  0  0  0  0
   22.1380   -5.8557  -14.2051 C   0  0  0  0  0  0  0  0  0  0  0  0
   23.3628   -5.5921  -14.3135 O   0  0  0  0  0  0  0  0  0  0  0  0
   21.5394   -5.6301  -12.9999 O   0  0  0  0  0  0  0  0  0  0  0  0
  2  1  1  1
  3  2  1  0
  4  5  2  0
  4  3  1  0
  6  5  1  0
  7  6  2  0
  8  7  1  0
  8  9  2  0
  9  4  1  0
 10 12  1  0
 10  2  1  0
 11 10  2  0
 13 12  1  0
 14 15  1  0
 13 14  1  6
 15 16  1  0
 16 17  2  0
 18 21  1  0
 18 13  1  0
 19 18  2  0
 20 16  1  0
 22 21  1  0
 22 30  1  0
 23 24  1  0
 22 23  1  1
 24 29  1  0
 25 24  2  0
 25 26  1  0
 26 27  2  0
 27 28  1  0
 29 28  2  0
 30 32  1  0
 31 30  2  0
M  END
$$$$
