FEF.pdb
     RDKit          3D

 32 33  0  0  1  0  0  0  0  0999 V2000
   23.6958   -4.6276  -18.1095 N   0  0  0  0  0  0  0  0  0  0  0  0
   23.6585   -5.9909  -18.5903 C   0  0  1  0  0  0  0  0  0  0  0  0
   24.7573   -6.8375  -18.0280 C   0  0  0  0  0  0  0  0  0  0  0  0
   26.0820   -6.5656  -18.6127 C   0  0  0  0  0  0  0  0  0  0  0  0
   26.5750   -7.4575  -19.5520 C   0  0  0  0  0  0  0  0  0  0  0  0
   27.8044   -7.2872  -20.1543 C   0  0  0  0  0  0  0  0  0  0  0  0
   28.5929   -6.2017  -19.8311 C   0  0  0  0  0  0  0  0  0  0  0  0
   28.0804   -5.3260  -18.8920 C   0  0  0  0  0  0  0  0  0  0  0  0
   26.8582   -5.4878  -18.2878 C   0  0  0  0  0  0  0  0  0  0  0  0
   22.3641   -6.5969  -18.1384 C   0  0  0  0  0  0  0  0  0  0  0  0
   21.8220   -6.1702  -17.1028 O   0  0  0  0  0  0  0  0  0  0  0  0
   21.7702   -7.6338  -18.8748 N   0  0  0  0  0  0  0  0  0  0  0  0
   20.5902   -8.3282  -18.5117 C   0  0  1  0  0  0  0  0  0  0  0  0
   19.9308   -9.1411  -19.6156 C   0  0  0  0  0  0  0  0  0  0  0  0
   18.5549   -9.6318  -19.2568 C   0  0  0  0  0  0  0  0  0  0  0  0
   18.0383  -10.3737  -20.4570 C   0  0  0  0  0  0  0  0  0  0  0  0
   16.8054  -10.4387  -20.6289 O   0  0  0  0  0  0  0  0  0  0  0  0
   20.6554   -9.1490  -17.3045 C   0  0  0  0  0  0  0  0  0  0  0  0
   21.5192  -10.0986  -17.2748 O   0  0  0  0  0  0  0  0  0  0  0  0
   18.8850  -10.9788  -21.3648 O   0  0  0  0  0  0  0  0  0  0  0  0
   19.8610   -9.0016  -16.1615 N   0  0  0  0  0  0  0  0  0  0  0  0
   19.9606   -9.8918  -14.9998 C   0  0  1  0  0  0  0  0  0  0  0  0
   20.6370   -9.0704  -13.9063 C   0  0  0  0  0  0  0  0  0  0  0  0
   22.0590   -8.8255  -14.2209 C   0  0  0  0  0  0  0  0  0  0  0  0
   22.5323   -7.6373  -14.6992 C   0  0  0  0  0  0  0  0  0  0  0  0
   23.8873   -7.5120  -14.9623 C   0  0  0  0  0  0  0  0  0  0  0  0
   24.7780   -8.5451  -14.7587 C   0  0  0  0  0  0  0  0  0  0  0  0
   24.3043   -9.7462  -14.2760 C   0  0  0  0  0  0  0  0  0  0  0  0
   22.9460   -9.8592  -14.0164 C   0  0  0  0  0  0  0  0  0  0  0  0
   18.6122  -10.2429  -14.4879 C   0  0  0  0  0  0  0  0  0  0  0  0
   17.6182   -9.7196  -15.0530 O   0  0  0  0  0  0  0  0  0  0  0  0
   18.3814  -11.0942  -13.4469 O   0  0  0  0  0  0  0  0  0  0  0  0
  2  1  1  1
  3  2  1  0
  4  5  2  0
  4  3  1  0
  6  5  1  0
  7  6  2  0
  8  7  1  0
  8  9  2  0
  9  4  1  0
 10 12  1  0
 10  2  1  0
 11 10  2  0
 13 12  1  0
 14 15  1  0
 13 14  1  6
 15 16  1  0
 16 17  2  0
 18 21  1  0
 18 13  1  0
 19 18  2  0
 20 16  1  0
 22 21  1  0
 22 30  1  0
 23 24  1  0
 22 23  1  1
 24 29  1  0
 25 24  2  0
 25 26  1  0
 26 27  2  0
 27 28  1  0
 29 28  2  0
 30 32  1  0
 31 30  2  0
M  END
$$$$
