FEF.pdb
     RDKit          3D

 32 33  0  0  1  0  0  0  0  0999 V2000
   25.3789  -17.7703  -15.4148 N   0  0  0  0  0  0  0  0  0  0  0  0
   26.2764  -18.6305  -14.6762 C   0  0  1  0  0  0  0  0  0  0  0  0
   27.5919  -17.9817  -14.3780 C   0  0  0  0  0  0  0  0  0  0  0  0
   28.5199  -17.9553  -15.5220 C   0  0  0  0  0  0  0  0  0  0  0  0
   28.7630  -16.7365  -16.1355 C   0  0  0  0  0  0  0  0  0  0  0  0
   29.6158  -16.6120  -17.2127 C   0  0  0  0  0  0  0  0  0  0  0  0
   30.2634  -17.7207  -17.7190 C   0  0  0  0  0  0  0  0  0  0  0  0
   30.0053  -18.9250  -17.0909 C   0  0  0  0  0  0  0  0  0  0  0  0
   29.1582  -19.0579  -16.0186 C   0  0  0  0  0  0  0  0  0  0  0  0
   25.6308  -18.9369  -13.3586 C   0  0  0  0  0  0  0  0  0  0  0  0
   25.1540  -18.0062  -12.6843 O   0  0  0  0  0  0  0  0  0  0  0  0
   25.5647  -20.2586  -12.8906 N   0  0  0  0  0  0  0  0  0  0  0  0
   24.9945  -20.6670  -11.6600 C   0  0  1  0  0  0  0  0  0  0  0  0
   23.8750  -21.6928  -11.7540 C   0  0  0  0  0  0  0  0  0  0  0  0
   22.7518  -21.2710  -12.6613 C   0  0  0  0  0  0  0  0  0  0  0  0
   21.7554  -20.5465  -11.8011 C   0  0  0  0  0  0  0  0  0  0  0  0
   21.8597  -20.6429  -10.5628 O   0  0  0  0  0  0  0  0  0  0  0  0
   25.9228  -21.0856  -10.6119 C   0  0  0  0  0  0  0  0  0  0  0  0
   26.8313  -21.9373  -10.9251 O   0  0  0  0  0  0  0  0  0  0  0  0
   20.7380  -19.7848  -12.3413 O   0  0  0  0  0  0  0  0  0  0  0  0
   25.9218  -20.6448   -9.2834 N   0  0  0  0  0  0  0  0  0  0  0  0
   26.8447  -21.1656   -8.2689 C   0  0  1  0  0  0  0  0  0  0  0  0
   28.0731  -20.2624   -8.3250 C   0  0  0  0  0  0  0  0  0  0  0  0
   28.3956  -19.7116   -6.9932 C   0  0  0  0  0  0  0  0  0  0  0  0
   27.9862  -18.4809   -6.5662 C   0  0  0  0  0  0  0  0  0  0  0  0
   28.3440  -18.0585   -5.2956 C   0  0  0  0  0  0  0  0  0  0  0  0
   29.0998  -18.8366   -4.4439 C   0  0  0  0  0  0  0  0  0  0  0  0
   29.5151  -20.0796   -4.8711 C   0  0  0  0  0  0  0  0  0  0  0  0
   29.1507  -20.4912   -6.1450 C   0  0  0  0  0  0  0  0  0  0  0  0
   26.2725  -21.0121   -6.9078 C   0  0  0  0  0  0  0  0  0  0  0  0
   25.3418  -20.1802   -6.7556 O   0  0  0  0  0  0  0  0  0  0  0  0
   26.6893  -21.7129   -5.8138 O   0  0  0  0  0  0  0  0  0  0  0  0
  2  1  1  6
  3  2  1  0
  4  5  2  0
  4  3  1  0
  6  5  1  0
  7  6  2  0
  8  7  1  0
  8  9  2  0
  9  4  1  0
 10 12  1  0
 10  2  1  0
 11 10  2  0
 13 12  1  0
 14 15  1  0
 13 14  1  6
 15 16  1  0
 16 17  2  0
 18 21  1  0
 18 13  1  0
 19 18  2  0
 20 16  1  0
 22 21  1  0
 22 30  1  0
 23 24  1  0
 22 23  1  1
 24 29  1  0
 25 24  2  0
 25 26  1  0
 26 27  2  0
 27 28  1  0
 29 28  2  0
 30 32  1  0
 31 30  2  0
M  END
$$$$
