FEF.pdb
     RDKit          3D

 32 33  0  0  1  0  0  0  0  0999 V2000
   16.5363  -14.0139    7.3512 N   0  0  0  0  0  0  0  0  0  0  0  0
   16.9791  -15.0518    6.4469 C   0  0  1  0  0  0  0  0  0  0  0  0
   18.4097  -14.8952    6.0355 C   0  0  0  0  0  0  0  0  0  0  0  0
   18.6604  -13.7279    5.1721 C   0  0  0  0  0  0  0  0  0  0  0  0
   19.4644  -12.7129    5.6663 C   0  0  0  0  0  0  0  0  0  0  0  0
   19.7558  -11.5817    4.9325 C   0  0  0  0  0  0  0  0  0  0  0  0
   19.2440  -11.4269    3.6602 C   0  0  0  0  0  0  0  0  0  0  0  0
   18.4451  -12.4520    3.1888 C   0  0  0  0  0  0  0  0  0  0  0  0
   18.1500  -13.5811    3.9121 C   0  0  0  0  0  0  0  0  0  0  0  0
   16.8724  -16.3605    7.1700 C   0  0  0  0  0  0  0  0  0  0  0  0
   16.9098  -16.3726    8.4137 O   0  0  0  0  0  0  0  0  0  0  0  0
   16.7319  -17.5588    6.4525 N   0  0  0  0  0  0  0  0  0  0  0  0
   16.8212  -18.8611    7.0025 C   0  0  1  0  0  0  0  0  0  0  0  0
   16.4075  -20.0006    6.0835 C   0  0  0  0  0  0  0  0  0  0  0  0
   14.9732  -19.9187    5.6375 C   0  0  0  0  0  0  0  0  0  0  0  0
   14.9929  -19.4113    4.2232 C   0  0  0  0  0  0  0  0  0  0  0  0
   14.2575  -18.4492    3.9278 O   0  0  0  0  0  0  0  0  0  0  0  0
   18.0833  -19.2175    7.6470 C   0  0  0  0  0  0  0  0  0  0  0  0
   19.1442  -18.6063    7.2598 O   0  0  0  0  0  0  0  0  0  0  0  0
   15.7960  -19.9773    3.2528 O   0  0  0  0  0  0  0  0  0  0  0  0
   18.2543  -20.1701    8.6582 N   0  0  0  0  0  0  0  0  0  0  0  0
   19.5463  -20.4252    9.3044 C   0  0  1  0  0  0  0  0  0  0  0  0
   19.8318  -19.1934   10.1582 C   0  0  0  0  0  0  0  0  0  0  0  0
   20.9545  -18.4074    9.6078 C   0  0  0  0  0  0  0  0  0  0  0  0
   20.7930  -17.3714    8.7329 C   0  0  0  0  0  0  0  0  0  0  0  0
   21.9150  -16.6981    8.2762 C   0  0  0  0  0  0  0  0  0  0  0  0
   23.1919  -17.0358    8.6732 C   0  0  0  0  0  0  0  0  0  0  0  0
   23.3592  -18.0809    9.5562 C   0  0  0  0  0  0  0  0  0  0  0  0
   22.2284  -18.7472   10.0062 C   0  0  0  0  0  0  0  0  0  0  0  0
   19.4492  -21.5723   10.2416 C   0  0  0  0  0  0  0  0  0  0  0  0
   18.3162  -22.0887   10.4177 O   0  0  0  0  0  0  0  0  0  0  0  0
   20.5062  -22.1017   10.9229 O   0  0  0  0  0  0  0  0  0  0  0  0
  2  1  1  1
  3  2  1  0
  4  5  2  0
  4  3  1  0
  6  5  1  0
  7  6  2  0
  8  7  1  0
  8  9  2  0
  9  4  1  0
 10 12  1  0
 10  2  1  0
 11 10  2  0
 13 12  1  0
 14 15  1  0
 13 14  1  6
 15 16  1  0
 16 17  2  0
 18 21  1  0
 18 13  1  0
 19 18  2  0
 20 16  1  0
 22 21  1  0
 22 30  1  0
 23 24  1  0
 22 23  1  1
 24 29  1  0
 25 24  2  0
 25 26  1  0
 26 27  2  0
 27 28  1  0
 29 28  2  0
 30 32  1  0
 31 30  2  0
M  END
$$$$
