FEF.pdb
     RDKit          3D

 32 33  0  0  1  0  0  0  0  0999 V2000
   26.2908    2.0710  -20.8838 N   0  0  0  0  0  0  0  0  0  0  0  0
   26.6673    2.3099  -19.5083 C   0  0  1  0  0  0  0  0  0  0  0  0
   27.6122    3.4604  -19.3539 C   0  0  0  0  0  0  0  0  0  0  0  0
   28.9460    3.2220  -19.9327 C   0  0  0  0  0  0  0  0  0  0  0  0
   29.3569    4.0339  -20.9782 C   0  0  0  0  0  0  0  0  0  0  0  0
   30.5876    3.8872  -21.5840 C   0  0  0  0  0  0  0  0  0  0  0  0
   31.4609    2.9078  -21.1565 C   0  0  0  0  0  0  0  0  0  0  0  0
   31.0292    2.1105  -20.1128 C   0  0  0  0  0  0  0  0  0  0  0  0
   29.8064    2.2495  -19.5043 C   0  0  0  0  0  0  0  0  0  0  0  0
   25.4225    2.6612  -18.7507 C   0  0  0  0  0  0  0  0  0  0  0  0
   25.5217    3.1307  -17.6027 O   0  0  0  0  0  0  0  0  0  0  0  0
   24.1592    2.4629  -19.3297 N   0  0  0  0  0  0  0  0  0  0  0  0
   22.9171    2.7245  -18.7011 C   0  0  1  0  0  0  0  0  0  0  0  0
   21.7183    2.8589  -19.6280 C   0  0  0  0  0  0  0  0  0  0  0  0
   20.4657    3.3057  -18.9250 C   0  0  0  0  0  0  0  0  0  0  0  0
   19.3909    3.3819  -19.9722 C   0  0  0  0  0  0  0  0  0  0  0  0
   19.0978    4.4990  -20.4414 O   0  0  0  0  0  0  0  0  0  0  0  0
   22.5484    1.8551  -17.5860 C   0  0  0  0  0  0  0  0  0  0  0  0
   22.4380    0.5976  -17.8214 O   0  0  0  0  0  0  0  0  0  0  0  0
   18.7266    2.2585  -20.4235 O   0  0  0  0  0  0  0  0  0  0  0  0
   22.3011    2.2604  -16.2693 N   0  0  0  0  0  0  0  0  0  0  0  0
   21.9051    1.3282  -15.2081 C   0  0  1  0  0  0  0  0  0  0  0  0
   23.2020    0.7055  -14.6998 C   0  0  0  0  0  0  0  0  0  0  0  0
   24.1191    1.7340  -14.1685 C   0  0  0  0  0  0  0  0  0  0  0  0
   24.9689    2.4634  -14.9498 C   0  0  0  0  0  0  0  0  0  0  0  0
   25.7894    3.4056  -14.3500 C   0  0  0  0  0  0  0  0  0  0  0  0
   25.7799    3.6348  -12.9900 C   0  0  0  0  0  0  0  0  0  0  0  0
   24.9236    2.9006  -12.1978 C   0  0  0  0  0  0  0  0  0  0  0  0
   24.1072    1.9605  -12.8100 C   0  0  0  0  0  0  0  0  0  0  0  0
   21.3116    2.0583  -14.0599 C   0  0  0  0  0  0  0  0  0  0  0  0
   20.9867    1.3882  -13.0465 O   0  0  0  0  0  0  0  0  0  0  0  0
   21.0962    3.4052  -14.0321 O   0  0  0  0  0  0  0  0  0  0  0  0
  2  1  1  6
  3  2  1  0
  4  5  2  0
  4  3  1  0
  6  5  1  0
  7  6  2  0
  8  7  1  0
  8  9  2  0
  9  4  1  0
 10 12  1  0
 10  2  1  0
 11 10  2  0
 13 12  1  0
 14 15  1  0
 13 14  1  6
 15 16  1  0
 16 17  2  0
 18 21  1  0
 18 13  1  0
 19 18  2  0
 20 16  1  0
 22 21  1  0
 22 30  1  0
 23 24  1  0
 22 23  1  1
 24 29  1  0
 25 24  2  0
 25 26  1  0
 26 27  2  0
 27 28  1  0
 29 28  2  0
 30 32  1  0
 31 30  2  0
M  END
$$$$
