AAP.pdb
     RDKit          3D

 18 18  0  0  1  0  0  0  0  0999 V2000
   11.1521  -17.1404   21.6025 C   0  0  0  0  0  0  0  0  0  0  0  0
    9.6975  -17.2384   21.2428 C   0  0  2  0  0  0  0  0  0  0  0  0
    9.4575  -16.8129   19.8889 N   0  0  0  0  0  0  0  0  0  0  0  0
    8.8903  -16.4402   22.2206 C   0  0  0  0  0  0  0  0  0  0  0  0
    8.8344  -15.1927   22.0738 O   0  0  0  0  0  0  0  0  0  0  0  0
    6.6334  -17.1404   25.1216 C   0  0  0  0  0  0  0  0  0  0  0  0
    7.5061  -16.2407   24.3197 C   0  0  2  0  0  0  0  0  0  0  0  0
    8.1889  -17.0295   23.3013 N   0  0  0  0  0  0  0  0  0  0  0  0
    8.4708  -15.4618   25.1085 C   0  0  0  0  0  0  0  0  0  0  0  0
    9.6957  -15.6617   24.9345 O   0  0  0  0  0  0  0  0  0  0  0  0
    8.0935  -14.4887   26.0635 N   0  0  0  0  0  0  0  0  0  0  0  0
    6.7359  -14.0561   26.4255 C   0  0  0  0  0  0  0  0  0  0  0  0
    6.9026  -12.5426   26.2854 C   0  0  0  0  0  0  0  0  0  0  0  0
    8.2159  -12.3444   27.0419 C   0  0  0  0  0  0  0  0  0  0  0  0
    8.9410  -13.6752   26.9224 C   0  0  1  0  0  0  0  0  0  0  0  0
    9.0454  -14.2915   28.2853 C   0  0  0  0  0  0  0  0  0  0  0  0
    8.2995  -15.2449   28.5999 O   0  0  0  0  0  0  0  0  0  0  0  0
    9.9627  -13.8172   29.2085 O   0  0  0  0  0  0  0  0  0  0  0  0
  2  1  1  1
  2  3  1  0
  4  2  1  0
  4  5  2  0
  7  6  1  1
  7  8  1  0
  8  4  1  0
  9  7  1  0
 10  9  2  0
 11  9  1  0
 11 12  1  0
 12 13  1  0
 14 13  1  0
 15 14  1  0
 15 11  1  0
 15 16  1  1
 16 18  1  0
 17 16  2  0
M  END
$$$$
