AAP.pdb
     RDKit          3D

 18 18  0  0  1  0  0  0  0  0999 V2000
    9.5976  -13.2951   20.0059 C   0  0  0  0  0  0  0  0  0  0  0  0
    8.2651  -13.9848   19.9450 C   0  0  2  0  0  0  0  0  0  0  0  0
    7.3752  -13.3352   19.0189 N   0  0  0  0  0  0  0  0  0  0  0  0
    7.6760  -14.0471   21.3211 C   0  0  0  0  0  0  0  0  0  0  0  0
    7.0351  -13.0513   21.7439 O   0  0  0  0  0  0  0  0  0  0  0  0
    6.8615  -16.6316   23.8174 C   0  0  0  0  0  0  0  0  0  0  0  0
    7.2453  -15.2277   23.5080 C   0  0  2  0  0  0  0  0  0  0  0  0
    7.8097  -15.1774   22.1647 N   0  0  0  0  0  0  0  0  0  0  0  0
    8.1610  -14.6155   24.4807 C   0  0  0  0  0  0  0  0  0  0  0  0
    9.3862  -14.5814   24.2195 O   0  0  0  0  0  0  0  0  0  0  0  0
    7.7356  -14.0559   25.7085 N   0  0  0  0  0  0  0  0  0  0  0  0
    6.3652  -13.9604   26.2318 C   0  0  0  0  0  0  0  0  0  0  0  0
    6.3259  -12.4718   26.5793 C   0  0  0  0  0  0  0  0  0  0  0  0
    7.6565  -12.3320   27.3184 C   0  0  0  0  0  0  0  0  0  0  0  0
    8.5347  -13.4383   26.7562 C   0  0  1  0  0  0  0  0  0  0  0  0
    8.8196  -14.4283   27.8457 C   0  0  0  0  0  0  0  0  0  0  0  0
    9.6204  -14.1379   28.7615 O   0  0  0  0  0  0  0  0  0  0  0  0
    8.2045  -15.6694   27.8533 O   0  0  0  0  0  0  0  0  0  0  0  0
  2  1  1  1
  2  3  1  0
  4  2  1  0
  4  5  2  0
  7  6  1  1
  7  8  1  0
  8  4  1  0
  9  7  1  0
 10  9  2  0
 11  9  1  0
 11 12  1  0
 12 13  1  0
 14 13  1  0
 15 14  1  0
 15 11  1  0
 15 16  1  1
 16 18  1  0
 17 16  2  0
M  END
$$$$
