AAP.pdb
     RDKit          3D

 18 18  0  0  1  0  0  0  0  0999 V2000
   11.1459  -17.0699   21.4275 C   0  0  0  0  0  0  0  0  0  0  0  0
    9.6975  -16.9451   21.0511 C   0  0  2  0  0  0  0  0  0  0  0  0
    9.5381  -16.3380   19.7559 N   0  0  0  0  0  0  0  0  0  0  0  0
    8.9745  -16.1732   22.1122 C   0  0  0  0  0  0  0  0  0  0  0  0
    9.0231  -14.9172   22.0775 O   0  0  0  0  0  0  0  0  0  0  0  0
    6.5739  -16.9798   24.8647 C   0  0  0  0  0  0  0  0  0  0  0  0
    7.4633  -16.0419   24.1274 C   0  0  2  0  0  0  0  0  0  0  0  0
    8.2397  -16.7963   23.1510 N   0  0  0  0  0  0  0  0  0  0  0  0
    8.3449  -15.2352   24.9827 C   0  0  0  0  0  0  0  0  0  0  0  0
    9.5858  -15.3657   24.8657 O   0  0  0  0  0  0  0  0  0  0  0  0
    7.8695  -14.3096   25.9412 N   0  0  0  0  0  0  0  0  0  0  0  0
    6.4740  -13.9757   26.2609 C   0  0  0  0  0  0  0  0  0  0  0  0
    6.5438  -12.4518   26.1554 C   0  0  0  0  0  0  0  0  0  0  0  0
    7.8131  -12.1831   26.9634 C   0  0  0  0  0  0  0  0  0  0  0  0
    8.6296  -13.4601   26.8458 C   0  0  1  0  0  0  0  0  0  0  0  0
    8.7265  -14.0968   28.1999 C   0  0  0  0  0  0  0  0  0  0  0  0
    9.4485  -13.5834   29.0827 O   0  0  0  0  0  0  0  0  0  0  0  0
    8.0228  -15.2541   28.4902 O   0  0  0  0  0  0  0  0  0  0  0  0
  2  1  1  1
  2  3  1  0
  4  2  1  0
  4  5  2  0
  7  6  1  1
  7  8  1  0
  8  4  1  0
  9  7  1  0
 10  9  2  0
 11  9  1  0
 11 12  1  0
 12 13  1  0
 14 13  1  0
 15 14  1  0
 15 11  1  0
 15 16  1  1
 16 18  1  0
 17 16  2  0
M  END
$$$$
