AAP.pdb
     RDKit          3D

 18 18  0  0  1  0  0  0  0  0999 V2000
   10.0509  -13.2344   19.8825 C   0  0  0  0  0  0  0  0  0  0  0  0
    8.6280  -13.6884   19.7273 C   0  0  2  0  0  0  0  0  0  0  0  0
    7.8904  -12.8239   18.8441 N   0  0  0  0  0  0  0  0  0  0  0  0
    7.9845  -13.7721   21.0777 C   0  0  0  0  0  0  0  0  0  0  0  0
    7.4775  -12.7299   21.5654 O   0  0  0  0  0  0  0  0  0  0  0  0
    6.9112  -16.4559   23.4154 C   0  0  0  0  0  0  0  0  0  0  0  0
    7.3044  -15.0465   23.1454 C   0  0  2  0  0  0  0  0  0  0  0  0
    7.9228  -14.9728   21.8272 N   0  0  0  0  0  0  0  0  0  0  0  0
    8.1786  -14.4495   24.1647 C   0  0  0  0  0  0  0  0  0  0  0  0
    9.4069  -14.3621   23.9320 O   0  0  0  0  0  0  0  0  0  0  0  0
    7.7094  -13.9620   25.4072 N   0  0  0  0  0  0  0  0  0  0  0  0
    6.3348  -13.9882   25.9277 C   0  0  0  0  0  0  0  0  0  0  0  0
    6.1806  -12.5183   26.3200 C   0  0  0  0  0  0  0  0  0  0  0  0
    7.4953  -12.2992   27.0683 C   0  0  0  0  0  0  0  0  0  0  0  0
    8.4569  -13.3170   26.4763 C   0  0  1  0  0  0  0  0  0  0  0  0
    8.8154  -14.3150   27.5364 C   0  0  0  0  0  0  0  0  0  0  0  0
    9.6312  -14.0091   28.4337 O   0  0  0  0  0  0  0  0  0  0  0  0
    8.2523  -15.5805   27.5370 O   0  0  0  0  0  0  0  0  0  0  0  0
  2  1  1  1
  2  3  1  0
  4  2  1  0
  4  5  2  0
  7  6  1  1
  7  8  1  0
  8  4  1  0
  9  7  1  0
 10  9  2  0
 11  9  1  0
 11 12  1  0
 12 13  1  0
 14 13  1  0
 15 14  1  0
 15 11  1  0
 15 16  1  1
 16 18  1  0
 17 16  2  0
M  END
$$$$
