AAP.pdb
     RDKit          3D

 18 18  0  0  1  0  0  0  0  0999 V2000
    8.6833  -12.5478   19.6938 C   0  0  0  0  0  0  0  0  0  0  0  0
    8.2979  -13.9977   19.7591 C   0  0  2  0  0  0  0  0  0  0  0  0
    7.4934  -14.3825   18.6294 N   0  0  0  0  0  0  0  0  0  0  0  0
    7.5915  -14.2650   21.0530 C   0  0  0  0  0  0  0  0  0  0  0  0
    6.4013  -13.8786   21.1765 O   0  0  0  0  0  0  0  0  0  0  0  0
    7.1883  -16.5804   23.5538 C   0  0  0  0  0  0  0  0  0  0  0  0
    7.5334  -15.1394   23.4181 C   0  0  2  0  0  0  0  0  0  0  0  0
    8.2056  -14.9329   22.1410 N   0  0  0  0  0  0  0  0  0  0  0  0
    8.3359  -14.5961   24.5227 C   0  0  0  0  0  0  0  0  0  0  0  0
    9.5847  -14.5928   24.4184 O   0  0  0  0  0  0  0  0  0  0  0  0
    7.7748  -14.0705   25.7104 N   0  0  0  0  0  0  0  0  0  0  0  0
    6.3610  -14.0556   26.1128 C   0  0  0  0  0  0  0  0  0  0  0  0
    6.2082  -12.5742   26.4597 C   0  0  0  0  0  0  0  0  0  0  0  0
    7.4597  -12.3661   27.3122 C   0  0  0  0  0  0  0  0  0  0  0  0
    8.4441  -13.4173   26.8255 C   0  0  1  0  0  0  0  0  0  0  0  0
    8.6887  -14.3983   27.9328 C   0  0  0  0  0  0  0  0  0  0  0  0
    8.1058  -15.5049   27.9287 O   0  0  0  0  0  0  0  0  0  0  0  0
    9.5572  -14.0951   28.9684 O   0  0  0  0  0  0  0  0  0  0  0  0
  2  1  1  6
  2  3  1  0
  4  2  1  0
  4  5  2  0
  7  6  1  1
  7  8  1  0
  8  4  1  0
  9  7  1  0
 10  9  2  0
 11  9  1  0
 11 12  1  0
 12 13  1  0
 14 13  1  0
 15 14  1  0
 15 11  1  0
 15 16  1  1
 16 18  1  0
 17 16  2  0
M  END
$$$$
