AAP.pdb
     RDKit          3D

 18 18  0  0  1  0  0  0  0  0999 V2000
    6.6139  -19.7299   21.7512 C   0  0  0  0  0  0  0  0  0  0  0  0
    5.9677  -18.8335   22.7680 C   0  0  2  0  0  0  0  0  0  0  0  0
    4.5419  -19.0249   22.8116 N   0  0  0  0  0  0  0  0  0  0  0  0
    6.3217  -17.4088   22.4688 C   0  0  0  0  0  0  0  0  0  0  0  0
    5.6512  -16.7946   21.6003 O   0  0  0  0  0  0  0  0  0  0  0  0
    8.7560  -14.8686   23.7520 C   0  0  0  0  0  0  0  0  0  0  0  0
    7.8143  -15.3918   22.7255 C   0  0  2  0  0  0  0  0  0  0  0  0
    7.3774  -16.7252   23.1212 N   0  0  0  0  0  0  0  0  0  0  0  0
    8.3472  -15.4034   21.3561 C   0  0  0  0  0  0  0  0  0  0  0  0
    8.5093  -16.5043   20.7796 O   0  0  0  0  0  0  0  0  0  0  0  0
    8.6917  -14.2315   20.6424 N   0  0  0  0  0  0  0  0  0  0  0  0
    8.5637  -12.8346   21.0824 C   0  0  0  0  0  0  0  0  0  0  0  0
    7.8127  -12.2553   19.8829 C   0  0  0  0  0  0  0  0  0  0  0  0
    8.6417  -12.8378   18.7384 C   0  0  0  0  0  0  0  0  0  0  0  0
    9.2541  -14.1082   19.3059 C   0  0  1  0  0  0  0  0  0  0  0  0
   10.7416  -13.9346   19.3809 C   0  0  0  0  0  0  0  0  0  0  0  0
   11.2671  -13.4812   20.4213 O   0  0  0  0  0  0  0  0  0  0  0  0
   11.5488  -14.2714   18.3068 O   0  0  0  0  0  0  0  0  0  0  0  0
  2  1  1  6
  2  3  1  0
  4  2  1  0
  4  5  2  0
  7  6  1  1
  7  8  1  0
  8  4  1  0
  9  7  1  0
 10  9  2  0
 11  9  1  0
 11 12  1  0
 12 13  1  0
 14 13  1  0
 15 14  1  0
 15 11  1  0
 15 16  1  1
 16 18  1  0
 17 16  2  0
M  END
$$$$
