AAP.pdb
     RDKit          3D

 18 18  0  0  1  0  0  0  0  0999 V2000
   11.4726  -16.9096   21.6505 C   0  0  0  0  0  0  0  0  0  0  0  0
   10.1261  -16.7933   20.9960 C   0  0  2  0  0  0  0  0  0  0  0  0
   10.2243  -16.2080   19.6847 N   0  0  0  0  0  0  0  0  0  0  0  0
    9.2108  -16.0050   21.8822 C   0  0  0  0  0  0  0  0  0  0  0  0
    9.2293  -14.7505   21.7982 O   0  0  0  0  0  0  0  0  0  0  0  0
    6.4830  -16.7329   24.3353 C   0  0  0  0  0  0  0  0  0  0  0  0
    7.5134  -15.8393   23.7405 C   0  0  2  0  0  0  0  0  0  0  0  0
    8.3270  -16.6111   22.8089 N   0  0  0  0  0  0  0  0  0  0  0  0
    8.3606  -15.1456   24.7206 C   0  0  0  0  0  0  0  0  0  0  0  0
    9.6001  -15.3268   24.6842 O   0  0  0  0  0  0  0  0  0  0  0  0
    7.8532  -14.2753   25.7139 N   0  0  0  0  0  0  0  0  0  0  0  0
    6.4493  -13.9341   25.9853 C   0  0  0  0  0  0  0  0  0  0  0  0
    6.5511  -12.4083   25.9854 C   0  0  0  0  0  0  0  0  0  0  0  0
    7.7820  -12.2200   26.8717 C   0  0  0  0  0  0  0  0  0  0  0  0
    8.5809  -13.5032   26.7099 C   0  0  1  0  0  0  0  0  0  0  0  0
    8.5973  -14.2295   28.0216 C   0  0  0  0  0  0  0  0  0  0  0  0
    9.3145  -13.8139   28.9582 O   0  0  0  0  0  0  0  0  0  0  0  0
    7.8240  -15.3627   28.2132 O   0  0  0  0  0  0  0  0  0  0  0  0
  2  1  1  1
  2  3  1  0
  4  2  1  0
  4  5  2  0
  7  6  1  1
  7  8  1  0
  8  4  1  0
  9  7  1  0
 10  9  2  0
 11  9  1  0
 11 12  1  0
 12 13  1  0
 14 13  1  0
 15 14  1  0
 15 11  1  0
 15 16  1  1
 16 18  1  0
 17 16  2  0
M  END
$$$$
