AAP.pdb
     RDKit          3D

 18 18  0  0  1  0  0  0  0  0999 V2000
    9.8024  -16.2436   15.7649 C   0  0  0  0  0  0  0  0  0  0  0  0
    8.3595  -15.8291   15.8003 C   0  0  2  0  0  0  0  0  0  0  0  0
    8.0853  -14.7861   14.8472 N   0  0  0  0  0  0  0  0  0  0  0  0
    7.9984  -15.4097   17.1926 C   0  0  0  0  0  0  0  0  0  0  0  0
    8.3184  -14.2544   17.5722 O   0  0  0  0  0  0  0  0  0  0  0  0
    5.9387  -16.7915   19.9874 C   0  0  0  0  0  0  0  0  0  0  0  0
    6.9377  -15.8334   19.4414 C   0  0  2  0  0  0  0  0  0  0  0  0
    7.3133  -16.2571   18.0979 N   0  0  0  0  0  0  0  0  0  0  0  0
    8.1294  -15.6478   20.2810 C   0  0  0  0  0  0  0  0  0  0  0  0
    9.2347  -16.0647   19.8628 O   0  0  0  0  0  0  0  0  0  0  0  0
    8.1015  -15.0188   21.5480 N   0  0  0  0  0  0  0  0  0  0  0  0
    6.9441  -14.4380   22.2436 C   0  0  0  0  0  0  0  0  0  0  0  0
    7.5115  -13.0580   22.5784 C   0  0  0  0  0  0  0  0  0  0  0  0
    8.8773  -13.4560   23.1373 C   0  0  0  0  0  0  0  0  0  0  0  0
    9.1975  -14.7874   22.4770 C   0  0  1  0  0  0  0  0  0  0  0  0
    9.2215  -15.8544   23.5301 C   0  0  0  0  0  0  0  0  0  0  0  0
    8.2154  -16.5742   23.7149 O   0  0  0  0  0  0  0  0  0  0  0  0
   10.3499  -16.0568   24.3076 O   0  0  0  0  0  0  0  0  0  0  0  0
  2  1  1  1
  2  3  1  0
  4  2  1  0
  4  5  2  0
  7  6  1  1
  7  8  1  0
  8  4  1  0
  9  7  1  0
 10  9  2  0
 11  9  1  0
 11 12  1  0
 12 13  1  0
 14 13  1  0
 15 14  1  0
 15 11  1  0
 15 16  1  1
 16 18  1  0
 17 16  2  0
M  END
$$$$
