AAP.pdb
     RDKit          3D

 18 18  0  0  1  0  0  0  0  0999 V2000
    9.9501  -13.1433   19.8862 C   0  0  0  0  0  0  0  0  0  0  0  0
    8.5816  -13.7431   19.7360 C   0  0  2  0  0  0  0  0  0  0  0  0
    7.7820  -13.0066   18.7928 N   0  0  0  0  0  0  0  0  0  0  0  0
    7.9212  -13.8134   21.0790 C   0  0  0  0  0  0  0  0  0  0  0  0
    7.3340  -12.7893   21.5122 O   0  0  0  0  0  0  0  0  0  0  0  0
    6.7544  -16.4345   23.3813 C   0  0  0  0  0  0  0  0  0  0  0  0
    7.2653  -15.0522   23.1760 C   0  0  2  0  0  0  0  0  0  0  0  0
    7.9299  -14.9818   21.8802 N   0  0  0  0  0  0  0  0  0  0  0  0
    8.1501  -14.5625   24.2422 C   0  0  0  0  0  0  0  0  0  0  0  0
    9.3866  -14.5402   24.0394 O   0  0  0  0  0  0  0  0  0  0  0  0
    7.6825  -14.1098   25.4983 N   0  0  0  0  0  0  0  0  0  0  0  0
    6.3073  -14.1435   26.0167 C   0  0  0  0  0  0  0  0  0  0  0  0
    6.1612  -12.6851   26.4527 C   0  0  0  0  0  0  0  0  0  0  0  0
    7.4764  -12.4962   27.2084 C   0  0  0  0  0  0  0  0  0  0  0  0
    8.4327  -13.5015   26.5870 C   0  0  1  0  0  0  0  0  0  0  0  0
    8.7843  -14.5328   27.6170 C   0  0  0  0  0  0  0  0  0  0  0  0
    8.2099  -15.6438   27.6118 O   0  0  0  0  0  0  0  0  0  0  0  0
    9.7433  -14.2717   28.5818 O   0  0  0  0  0  0  0  0  0  0  0  0
  2  1  1  1
  2  3  1  0
  4  2  1  0
  4  5  2  0
  7  6  1  1
  7  8  1  0
  8  4  1  0
  9  7  1  0
 10  9  2  0
 11  9  1  0
 11 12  1  0
 12 13  1  0
 14 13  1  0
 15 14  1  0
 15 11  1  0
 15 16  1  1
 16 18  1  0
 17 16  2  0
M  END
$$$$
