AAP.pdb
     RDKit          3D

 18 18  0  0  1  0  0  0  0  0999 V2000
    9.5583  -13.0639   19.8796 C   0  0  0  0  0  0  0  0  0  0  0  0
    8.2977  -13.8763   19.8027 C   0  0  2  0  0  0  0  0  0  0  0  0
    7.3673  -13.3204   18.8557 N   0  0  0  0  0  0  0  0  0  0  0  0
    7.6927  -13.9829   21.1692 C   0  0  0  0  0  0  0  0  0  0  0  0
    6.9857  -13.0308   21.5873 O   0  0  0  0  0  0  0  0  0  0  0  0
    6.9336  -16.6392   23.5900 C   0  0  0  0  0  0  0  0  0  0  0  0
    7.2765  -15.2147   23.3305 C   0  0  2  0  0  0  0  0  0  0  0  0
    7.8827  -15.1080   22.0089 N   0  0  0  0  0  0  0  0  0  0  0  0
    8.1369  -14.5974   24.3494 C   0  0  0  0  0  0  0  0  0  0  0  0
    9.3653  -14.4962   24.1230 O   0  0  0  0  0  0  0  0  0  0  0  0
    7.6541  -14.1052   25.5848 N   0  0  0  0  0  0  0  0  0  0  0  0
    6.2854  -14.1815   26.1156 C   0  0  0  0  0  0  0  0  0  0  0  0
    6.0681  -12.7119   26.4782 C   0  0  0  0  0  0  0  0  0  0  0  0
    7.3763  -12.4187   27.2124 C   0  0  0  0  0  0  0  0  0  0  0  0
    8.3787  -13.4050   26.6348 C   0  0  1  0  0  0  0  0  0  0  0  0
    8.7881  -14.3634   27.7129 C   0  0  0  0  0  0  0  0  0  0  0  0
    9.5657  -13.9912   28.6190 O   0  0  0  0  0  0  0  0  0  0  0  0
    8.3142  -15.6650   27.7206 O   0  0  0  0  0  0  0  0  0  0  0  0
  2  1  1  1
  2  3  1  0
  4  2  1  0
  4  5  2  0
  7  6  1  1
  7  8  1  0
  8  4  1  0
  9  7  1  0
 10  9  2  0
 11  9  1  0
 11 12  1  0
 12 13  1  0
 14 13  1  0
 15 14  1  0
 15 11  1  0
 15 16  1  1
 16 18  1  0
 17 16  2  0
M  END
$$$$
