AAP.pdb
     RDKit          3D

 18 18  0  0  1  0  0  0  0  0999 V2000
   10.0583  -13.3838   19.8913 C   0  0  0  0  0  0  0  0  0  0  0  0
    8.6251  -13.8114   19.7570 C   0  0  2  0  0  0  0  0  0  0  0  0
    7.8952  -12.9439   18.8704 N   0  0  0  0  0  0  0  0  0  0  0  0
    7.9946  -13.8652   21.1150 C   0  0  0  0  0  0  0  0  0  0  0  0
    7.5397  -12.8011   21.6068 O   0  0  0  0  0  0  0  0  0  0  0  0
    6.7765  -16.5042   23.4245 C   0  0  0  0  0  0  0  0  0  0  0  0
    7.2451  -15.1142   23.1742 C   0  0  2  0  0  0  0  0  0  0  0  0
    7.8892  -15.0611   21.8674 N   0  0  0  0  0  0  0  0  0  0  0  0
    8.1304  -14.5707   24.2136 C   0  0  0  0  0  0  0  0  0  0  0  0
    9.3679  -14.5735   24.0160 O   0  0  0  0  0  0  0  0  0  0  0  0
    7.6621  -14.0386   25.4379 N   0  0  0  0  0  0  0  0  0  0  0  0
    6.2705  -13.9073   25.8932 C   0  0  0  0  0  0  0  0  0  0  0  0
    6.2694  -12.4315   26.2939 C   0  0  0  0  0  0  0  0  0  0  0  0
    7.5634  -12.3711   27.1053 C   0  0  0  0  0  0  0  0  0  0  0  0
    8.4275  -13.4908   26.5479 C   0  0  1  0  0  0  0  0  0  0  0  0
    8.6167  -14.5295   27.6127 C   0  0  0  0  0  0  0  0  0  0  0  0
    7.9231  -15.5702   27.6021 O   0  0  0  0  0  0  0  0  0  0  0  0
    9.5554  -14.3524   28.6157 O   0  0  0  0  0  0  0  0  0  0  0  0
  2  1  1  1
  2  3  1  0
  4  2  1  0
  4  5  2  0
  7  6  1  1
  7  8  1  0
  8  4  1  0
  9  7  1  0
 10  9  2  0
 11  9  1  0
 11 12  1  0
 12 13  1  0
 14 13  1  0
 15 14  1  0
 15 11  1  0
 15 16  1  1
 16 18  1  0
 17 16  2  0
M  END
$$$$
