AAP.pdb
     RDKit          3D

 18 18  0  0  1  0  0  0  0  0999 V2000
   11.0124  -18.1909   15.2829 C   0  0  0  0  0  0  0  0  0  0  0  0
    9.6161  -17.7515   14.9479 C   0  0  2  0  0  0  0  0  0  0  0  0
    9.5592  -17.1041   13.6637 N   0  0  0  0  0  0  0  0  0  0  0  0
    9.1029  -16.8589   16.0362 C   0  0  0  0  0  0  0  0  0  0  0  0
    9.4547  -15.6517   16.0366 O   0  0  0  0  0  0  0  0  0  0  0  0
    6.5898  -17.1588   18.7941 C   0  0  0  0  0  0  0  0  0  0  0  0
    7.6393  -16.4187   18.0427 C   0  0  2  0  0  0  0  0  0  0  0  0
    8.2399  -17.3156   17.0628 N   0  0  0  0  0  0  0  0  0  0  0  0
    8.6728  -15.8001   18.8846 C   0  0  0  0  0  0  0  0  0  0  0  0
    9.8190  -16.3063   18.9051 O   0  0  0  0  0  0  0  0  0  0  0  0
    8.4470  -14.6536   19.6821 N   0  0  0  0  0  0  0  0  0  0  0  0
    7.1865  -13.9233   19.8791 C   0  0  0  0  0  0  0  0  0  0  0  0
    7.6618  -12.5028   19.5718 C   0  0  0  0  0  0  0  0  0  0  0  0
    8.9445  -12.4617   20.4022 C   0  0  0  0  0  0  0  0  0  0  0  0
    9.3924  -13.9110   20.5023 C   0  0  1  0  0  0  0  0  0  0  0  0
    9.2954  -14.3479   21.9334 C   0  0  0  0  0  0  0  0  0  0  0  0
    8.2980  -14.9933   22.3246 O   0  0  0  0  0  0  0  0  0  0  0  0
   10.3016  -14.0451   22.8360 O   0  0  0  0  0  0  0  0  0  0  0  0
  2  1  1  1
  2  3  1  0
  4  2  1  0
  4  5  2  0
  7  6  1  1
  7  8  1  0
  8  4  1  0
  9  7  1  0
 10  9  2  0
 11  9  1  0
 11 12  1  0
 12 13  1  0
 14 13  1  0
 15 14  1  0
 15 11  1  0
 15 16  1  1
 16 18  1  0
 17 16  2  0
M  END
$$$$
