AAP.pdb
     RDKit          3D

 18 18  0  0  1  0  0  0  0  0999 V2000
    8.5293  -12.5385   19.3007 C   0  0  0  0  0  0  0  0  0  0  0  0
    8.3705  -14.0125   19.5394 C   0  0  2  0  0  0  0  0  0  0  0  0
    7.7295  -14.6624   18.4266 N   0  0  0  0  0  0  0  0  0  0  0  0
    7.6123  -14.2295   20.8132 C   0  0  0  0  0  0  0  0  0  0  0  0
    6.3909  -14.5193   20.7414 O   0  0  0  0  0  0  0  0  0  0  0  0
    7.1316  -15.9598   23.1895 C   0  0  0  0  0  0  0  0  0  0  0  0
    7.5324  -14.5325   23.3160 C   0  0  2  0  0  0  0  0  0  0  0  0
    8.2113  -14.1223   22.0927 N   0  0  0  0  0  0  0  0  0  0  0  0
    8.3563  -14.2307   24.4948 C   0  0  0  0  0  0  0  0  0  0  0  0
    9.6021  -14.3307   24.4036 O   0  0  0  0  0  0  0  0  0  0  0  0
    7.8192  -13.8294   25.7406 N   0  0  0  0  0  0  0  0  0  0  0  0
    6.4107  -13.8343   26.1616 C   0  0  0  0  0  0  0  0  0  0  0  0
    6.2899  -12.3976   26.6711 C   0  0  0  0  0  0  0  0  0  0  0  0
    7.5550  -12.3063   27.5240 C   0  0  0  0  0  0  0  0  0  0  0  0
    8.5137  -13.3146   26.9113 C   0  0  1  0  0  0  0  0  0  0  0  0
    8.7528  -14.4155   27.9008 C   0  0  0  0  0  0  0  0  0  0  0  0
    8.1473  -15.5037   27.7848 O   0  0  0  0  0  0  0  0  0  0  0  0
    9.6412  -14.2442   28.9496 O   0  0  0  0  0  0  0  0  0  0  0  0
  2  1  1  6
  2  3  1  0
  4  2  1  0
  4  5  2  0
  7  6  1  6
  7  8  1  0
  8  4  1  0
  9  7  1  0
 10  9  2  0
 11  9  1  0
 11 12  1  0
 12 13  1  0
 14 13  1  0
 15 14  1  0
 15 11  1  0
 15 16  1  1
 16 18  1  0
 17 16  2  0
M  END
$$$$
