AAP.pdb
     RDKit          3D

 18 18  0  0  1  0  0  0  0  0999 V2000
   11.1958  -17.9729   22.2515 C   0  0  0  0  0  0  0  0  0  0  0  0
   10.7657  -16.9218   21.2691 C   0  0  2  0  0  0  0  0  0  0  0  0
   11.8795  -16.4246   20.5050 N   0  0  0  0  0  0  0  0  0  0  0  0
   10.0644  -15.8177   21.9998 C   0  0  0  0  0  0  0  0  0  0  0  0
   10.7571  -15.0011   22.6589 O   0  0  0  0  0  0  0  0  0  0  0  0
    6.5382  -14.6018   22.3626 C   0  0  0  0  0  0  0  0  0  0  0  0
    7.9735  -14.6256   22.7540 C   0  0  2  0  0  0  0  0  0  0  0  0
    8.6572  -15.6547   21.9800 N   0  0  0  0  0  0  0  0  0  0  0  0
    8.2122  -14.8110   24.1921 C   0  0  0  0  0  0  0  0  0  0  0  0
    9.0475  -15.6694   24.5608 O   0  0  0  0  0  0  0  0  0  0  0  0
    7.5468  -14.0689   25.1960 N   0  0  0  0  0  0  0  0  0  0  0  0
    6.4746  -13.0775   25.0264 C   0  0  0  0  0  0  0  0  0  0  0  0
    7.0647  -11.9203   25.8333 C   0  0  0  0  0  0  0  0  0  0  0  0
    7.5034  -12.6659   27.0934 C   0  0  0  0  0  0  0  0  0  0  0  0
    7.7497  -14.0949   26.6369 C   0  0  1  0  0  0  0  0  0  0  0  0
    6.7392  -14.9904   27.2889 C   0  0  0  0  0  0  0  0  0  0  0  0
    5.6756  -15.2715   26.6938 O   0  0  0  0  0  0  0  0  0  0  0  0
    6.9675  -15.5152   28.5503 O   0  0  0  0  0  0  0  0  0  0  0  0
  2  1  1  1
  2  3  1  0
  4  2  1  0
  4  5  2  0
  7  6  1  1
  7  8  1  0
  8  4  1  0
  9  7  1  0
 10  9  2  0
 11  9  1  0
 11 12  1  0
 12 13  1  0
 14 13  1  0
 15 14  1  0
 15 11  1  0
 15 16  1  1
 16 18  1  0
 17 16  2  0
M  END
$$$$
