KWW.pdb
     RDKit          3D

 38 41  0  0  1  0  0  0  0  0999 V2000
    8.8409  -17.9930   18.5619 N   0  0  0  0  0  0  0  0  0  0  0  0
    9.1918  -16.6435   18.7863 C   0  0  1  0  0  0  0  0  0  0  0  0
    8.4066  -15.6043   18.0400 C   0  0  0  0  0  0  0  0  0  0  0  0
    8.2448  -15.9025   16.6077 C   0  0  0  0  0  0  0  0  0  0  0  0
    8.7913  -14.8336   15.7232 C   0  0  0  0  0  0  0  0  0  0  0  0
    8.6503  -15.2423   14.2810 C   0  0  0  0  0  0  0  0  0  0  0  0
    9.3412  -14.2916   13.4089 N   0  0  0  0  0  0  0  0  0  0  0  0
    9.4087  -16.2613   20.2084 C   0  0  0  0  0  0  0  0  0  0  0  0
    9.9031  -15.1135   20.4123 O   0  0  0  0  0  0  0  0  0  0  0  0
    9.1206  -17.0478   21.3281 N   0  0  0  0  0  0  0  0  0  0  0  0
    9.2743  -16.5632   22.7078 C   0  0  1  0  0  0  0  0  0  0  0  0
    8.0827  -16.9828   23.4796 C   0  0  0  0  0  0  0  0  0  0  0  0
    7.0156  -15.9936   23.5674 C   0  0  0  0  0  0  0  0  0  0  0  0
    5.7008  -16.1862   23.2053 C   0  0  0  0  0  0  0  0  0  0  0  0
    5.0308  -15.0390   23.4444 N   0  0  0  0  0  0  0  0  0  0  0  0
    5.8430  -14.1022   23.9461 C   0  0  0  0  0  0  0  0  0  0  0  0
    5.6134  -12.8035   24.3340 C   0  0  0  0  0  0  0  0  0  0  0  0
    6.6526  -12.0456   24.8237 C   0  0  0  0  0  0  0  0  0  0  0  0
    7.9177  -12.6005   24.9200 C   0  0  0  0  0  0  0  0  0  0  0  0
    8.1237  -13.9116   24.5228 C   0  0  0  0  0  0  0  0  0  0  0  0
    7.1047  -14.7019   24.0267 C   0  0  0  0  0  0  0  0  0  0  0  0
   10.5814  -16.9937   23.2622 C   0  0  0  0  0  0  0  0  0  0  0  0
   11.3804  -17.5709   22.4845 O   0  0  0  0  0  0  0  0  0  0  0  0
   10.9707  -16.7951   24.5964 N   0  0  0  0  0  0  0  0  0  0  0  0
   12.2588  -17.3429   25.0792 C   0  0  1  0  0  0  0  0  0  0  0  0
   12.8485  -16.4476   26.0941 C   0  0  0  0  0  0  0  0  0  0  0  0
   11.9054  -16.1045   27.1783 C   0  0  0  0  0  0  0  0  0  0  0  0
   11.5233  -16.9094   28.2462 C   0  0  0  0  0  0  0  0  0  0  0  0
   10.6209  -16.2498   28.9762 N   0  0  0  0  0  0  0  0  0  0  0  0
   10.3861  -15.0350   28.4379 C   0  0  0  0  0  0  0  0  0  0  0  0
    9.5564  -14.0028   28.8403 C   0  0  0  0  0  0  0  0  0  0  0  0
    9.5029  -12.8296   28.1238 C   0  0  0  0  0  0  0  0  0  0  0  0
   10.2900  -12.7027   27.0002 C   0  0  0  0  0  0  0  0  0  0  0  0
   11.1109  -13.7377   26.6099 C   0  0  0  0  0  0  0  0  0  0  0  0
   11.1803  -14.9375   27.3215 C   0  0  0  0  0  0  0  0  0  0  0  0
   12.0458  -18.7133   25.5440 C   0  0  0  0  0  0  0  0  0  0  0  0
   13.0642  -19.6135   25.8076 O   0  0  0  0  0  0  0  0  0  0  0  0
   10.8757  -19.1291   25.7180 O   0  0  0  0  0  0  0  0  0  0  0  0
  2  1  1  1
  2  3  1  0
  4  3  1  0
  4  5  1  0
  6  5  1  0
  7  6  1  0
  8  2  1  0
  9  8  2  0
 10  8  1  0
 11 12  1  1
 11 10  1  0
 12 13  1  0
 13 21  1  0
 14 13  2  0
 14 15  1  0
 15 16  1  0
 16 17  1  0
 17 18  2  0
 19 18  1  0
 20 19  2  0
 21 16  2  0
 21 20  1  0
 22 23  2  0
 22 11  1  0
 24 22  1  0
 25 24  1  0
 25 26  1  1
 27 28  2  0
 27 26  1  0
 29 28  1  0
 30 35  2  0
 30 29  1  0
 31 30  1  0
 32 33  1  0
 32 31  2  0
 33 34  2  0
 34 35  1  0
 35 27  1  0
 36 37  1  0
 36 25  1  0
 38 36  2  0
M  END
$$$$
