KWW.pdb
     RDKit          3D

 38 41  0  0  1  0  0  0  0  0999 V2000
    7.4279  -16.6531   18.7722 N   0  0  0  0  0  0  0  0  0  0  0  0
    8.4500  -15.6871   18.9026 C   0  0  1  0  0  0  0  0  0  0  0  0
    8.2540  -14.3884   18.1757 C   0  0  0  0  0  0  0  0  0  0  0  0
    8.0520  -14.5479   16.7264 C   0  0  0  0  0  0  0  0  0  0  0  0
    7.8759  -13.2492   16.0150 C   0  0  0  0  0  0  0  0  0  0  0  0
    7.5184  -13.5006   14.5742 C   0  0  0  0  0  0  0  0  0  0  0  0
    7.2320  -12.2392   13.8896 N   0  0  0  0  0  0  0  0  0  0  0  0
    8.9687  -15.4792   20.2822 C   0  0  0  0  0  0  0  0  0  0  0  0
    9.8693  -14.5993   20.4168 O   0  0  0  0  0  0  0  0  0  0  0  0
    8.5570  -16.1619   21.4310 N   0  0  0  0  0  0  0  0  0  0  0  0
    9.1724  -15.9534   22.7499 C   0  0  1  0  0  0  0  0  0  0  0  0
    8.3648  -16.6795   23.7559 C   0  0  0  0  0  0  0  0  0  0  0  0
    7.3673  -15.8771   24.4531 C   0  0  0  0  0  0  0  0  0  0  0  0
    6.2121  -16.3485   25.0363 C   0  0  0  0  0  0  0  0  0  0  0  0
    5.5635  -15.2988   25.5834 N   0  0  0  0  0  0  0  0  0  0  0  0
    6.2378  -14.1603   25.3872 C   0  0  0  0  0  0  0  0  0  0  0  0
    5.9708  -12.8629   25.7548 C   0  0  0  0  0  0  0  0  0  0  0  0
    6.8532  -11.8634   25.4135 C   0  0  0  0  0  0  0  0  0  0  0  0
    8.0002  -12.1767   24.7035 C   0  0  0  0  0  0  0  0  0  0  0  0
    8.2470  -13.4918   24.3447 C   0  0  0  0  0  0  0  0  0  0  0  0
    7.3840  -14.5207   24.6700 C   0  0  0  0  0  0  0  0  0  0  0  0
   10.6128  -16.3067   22.7078 C   0  0  0  0  0  0  0  0  0  0  0  0
   11.0081  -17.0199   21.7532 O   0  0  0  0  0  0  0  0  0  0  0  0
   11.5497  -15.8934   23.6683 N   0  0  0  0  0  0  0  0  0  0  0  0
   11.7810  -16.7172   24.8767 C   0  0  1  0  0  0  0  0  0  0  0  0
   10.4938  -17.1240   25.4741 C   0  0  0  0  0  0  0  0  0  0  0  0
   10.4568  -16.9467   26.9403 C   0  0  0  0  0  0  0  0  0  0  0  0
   10.4261  -17.9455   27.9075 C   0  0  0  0  0  0  0  0  0  0  0  0
   10.3511  -17.3723   29.1108 N   0  0  0  0  0  0  0  0  0  0  0  0
   10.3314  -16.0290   28.9851 C   0  0  0  0  0  0  0  0  0  0  0  0
   10.2771  -15.0236   29.9348 C   0  0  0  0  0  0  0  0  0  0  0  0
   10.2892  -13.7016   29.5543 C   0  0  0  0  0  0  0  0  0  0  0  0
   10.3563  -13.3989   28.2119 C   0  0  0  0  0  0  0  0  0  0  0  0
   10.4091  -14.4088   27.2766 C   0  0  0  0  0  0  0  0  0  0  0  0
   10.3971  -15.7572   27.6403 C   0  0  0  0  0  0  0  0  0  0  0  0
   12.6562  -17.8356   24.5266 C   0  0  0  0  0  0  0  0  0  0  0  0
   13.8088  -18.1687   25.2179 O   0  0  0  0  0  0  0  0  0  0  0  0
   12.3727  -18.5527   23.5378 O   0  0  0  0  0  0  0  0  0  0  0  0
  2  1  1  1
  2  3  1  0
  4  3  1  0
  4  5  1  0
  6  5  1  0
  7  6  1  0
  8  2  1  0
  9  8  2  0
 10  8  1  0
 11 12  1  1
 11 10  1  0
 12 13  1  0
 13 21  1  0
 14 13  2  0
 14 15  1  0
 15 16  1  0
 16 17  1  0
 17 18  2  0
 19 18  1  0
 20 19  2  0
 21 16  2  0
 21 20  1  0
 22 23  2  0
 22 11  1  0
 24 22  1  0
 25 24  1  0
 25 26  1  6
 27 28  2  0
 27 26  1  0
 29 28  1  0
 30 35  2  0
 30 29  1  0
 31 30  1  0
 32 33  1  0
 32 31  2  0
 33 34  2  0
 34 35  1  0
 35 27  1  0
 36 37  1  0
 36 25  1  0
 38 36  2  0
M  END
$$$$
