KWW.pdb
     RDKit          3D

 38 41  0  0  1  0  0  0  0  0999 V2000
    5.3662  -20.9275   22.9352 N   0  0  0  0  0  0  0  0  0  0  0  0
    6.1725  -20.2143   22.0210 C   0  0  1  0  0  0  0  0  0  0  0  0
    5.7589  -20.2503   20.5785 C   0  0  0  0  0  0  0  0  0  0  0  0
    4.4011  -19.7340   20.3407 C   0  0  0  0  0  0  0  0  0  0  0  0
    3.5647  -20.6500   19.5131 C   0  0  0  0  0  0  0  0  0  0  0  0
    2.2024  -20.0451   19.3001 C   0  0  0  0  0  0  0  0  0  0  0  0
    1.3474  -20.9610   18.5440 N   0  0  0  0  0  0  0  0  0  0  0  0
    6.5785  -18.8477   22.4489 C   0  0  0  0  0  0  0  0  0  0  0  0
    6.3814  -17.9161   21.6141 O   0  0  0  0  0  0  0  0  0  0  0  0
    7.1536  -18.5032   23.6761 N   0  0  0  0  0  0  0  0  0  0  0  0
    7.6767  -17.1600   23.9660 C   0  0  1  0  0  0  0  0  0  0  0  0
    7.5159  -16.9052   25.4155 C   0  0  0  0  0  0  0  0  0  0  0  0
    6.9218  -15.6197   25.7613 C   0  0  0  0  0  0  0  0  0  0  0  0
    5.5759  -15.3580   25.8905 C   0  0  0  0  0  0  0  0  0  0  0  0
    5.4348  -14.0583   26.2264 N   0  0  0  0  0  0  0  0  0  0  0  0
    6.6242  -13.4540   26.3239 C   0  0  0  0  0  0  0  0  0  0  0  0
    6.9714  -12.1604   26.6336 C   0  0  0  0  0  0  0  0  0  0  0  0
    8.2993  -11.8000   26.6605 C   0  0  0  0  0  0  0  0  0  0  0  0
    9.2705  -12.7452   26.3753 C   0  0  0  0  0  0  0  0  0  0  0  0
    8.8952  -14.0424   26.0664 C   0  0  0  0  0  0  0  0  0  0  0  0
    7.5725  -14.4400   26.0298 C   0  0  0  0  0  0  0  0  0  0  0  0
    9.0568  -17.0201   23.4399 C   0  0  0  0  0  0  0  0  0  0  0  0
    9.7793  -18.0468   23.4243 O   0  0  0  0  0  0  0  0  0  0  0  0
    9.5960  -15.8142   22.9643 N   0  0  0  0  0  0  0  0  0  0  0  0
   10.9153  -15.8094   22.2921 C   0  0  1  0  0  0  0  0  0  0  0  0
   11.1575  -14.5037   21.6473 C   0  0  0  0  0  0  0  0  0  0  0  0
    9.9530  -13.9506   20.9945 C   0  0  0  0  0  0  0  0  0  0  0  0
    8.7862  -13.5155   21.6136 C   0  0  0  0  0  0  0  0  0  0  0  0
    7.9212  -13.1315   20.6719 N   0  0  0  0  0  0  0  0  0  0  0  0
    8.4654  -13.2923   19.4478 C   0  0  0  0  0  0  0  0  0  0  0  0
    7.9680  -13.0224   18.1846 C   0  0  0  0  0  0  0  0  0  0  0  0
    8.7349  -13.2569   17.0669 C   0  0  0  0  0  0  0  0  0  0  0  0
   10.0054  -13.7646   17.2293 C   0  0  0  0  0  0  0  0  0  0  0  0
   10.4884  -14.0297   18.4918 C   0  0  0  0  0  0  0  0  0  0  0  0
    9.7270  -13.8003   19.6400 C   0  0  0  0  0  0  0  0  0  0  0  0
   11.9412  -16.1961   23.2603 C   0  0  0  0  0  0  0  0  0  0  0  0
   13.2598  -16.4632   22.9331 O   0  0  0  0  0  0  0  0  0  0  0  0
   11.6341  -16.3067   24.4710 O   0  0  0  0  0  0  0  0  0  0  0  0
  2  1  1  1
  2  3  1  0
  4  3  1  0
  4  5  1  0
  6  5  1  0
  7  6  1  0
  8  2  1  0
  9  8  2  0
 10  8  1  0
 11 12  1  1
 11 10  1  0
 12 13  1  0
 13 21  1  0
 14 13  2  0
 14 15  1  0
 15 16  1  0
 16 17  1  0
 17 18  2  0
 19 18  1  0
 20 19  2  0
 21 16  2  0
 21 20  1  0
 22 23  2  0
 22 11  1  0
 24 22  1  0
 25 24  1  0
 25 26  1  1
 27 28  2  0
 27 26  1  0
 29 28  1  0
 30 35  2  0
 30 29  1  0
 31 30  1  0
 32 33  1  0
 32 31  2  0
 33 34  2  0
 34 35  1  0
 35 27  1  0
 36 37  1  0
 36 25  1  0
 38 36  2  0
M  END
$$$$
