KWW.pdb
     RDKit          3D

 38 41  0  0  1  0  0  0  0  0999 V2000
    7.2892  -16.8195   19.7810 N   0  0  0  0  0  0  0  0  0  0  0  0
    8.2683  -15.8112   19.9205 C   0  0  1  0  0  0  0  0  0  0  0  0
    7.9211  -14.4494   19.3930 C   0  0  0  0  0  0  0  0  0  0  0  0
    7.8851  -14.3773   17.9233 C   0  0  0  0  0  0  0  0  0  0  0  0
    7.5167  -13.0251   17.4138 C   0  0  0  0  0  0  0  0  0  0  0  0
    7.4564  -13.0450   15.9095 C   0  0  0  0  0  0  0  0  0  0  0  0
    6.9202  -11.7817   15.4012 N   0  0  0  0  0  0  0  0  0  0  0  0
    8.9352  -15.7393   21.2492 C   0  0  0  0  0  0  0  0  0  0  0  0
    9.8248  -14.8481   21.3835 O   0  0  0  0  0  0  0  0  0  0  0  0
    8.6723  -16.5595   22.3508 N   0  0  0  0  0  0  0  0  0  0  0  0
    9.1993  -16.2866   23.6960 C   0  0  1  0  0  0  0  0  0  0  0  0
    8.2120  -16.7734   24.6858 C   0  0  0  0  0  0  0  0  0  0  0  0
    7.0666  -15.8991   24.9072 C   0  0  0  0  0  0  0  0  0  0  0  0
    5.7588  -16.3015   25.0637 C   0  0  0  0  0  0  0  0  0  0  0  0
    5.0039  -15.1988   25.2540 N   0  0  0  0  0  0  0  0  0  0  0  0
    5.7538  -14.0914   25.2298 C   0  0  0  0  0  0  0  0  0  0  0  0
    5.4301  -12.7631   25.3736 C   0  0  0  0  0  0  0  0  0  0  0  0
    6.4201  -11.8097   25.3013 C   0  0  0  0  0  0  0  0  0  0  0  0
    7.7310  -12.2000   25.0848 C   0  0  0  0  0  0  0  0  0  0  0  0
    8.0318  -13.5449   24.9434 C   0  0  0  0  0  0  0  0  0  0  0  0
    7.0645  -14.5292   25.0100 C   0  0  0  0  0  0  0  0  0  0  0  0
   10.5700  -16.8373   23.8337 C   0  0  0  0  0  0  0  0  0  0  0  0
   10.8809  -17.8106   23.1041 O   0  0  0  0  0  0  0  0  0  0  0  0
   11.5299  -16.3366   24.7277 N   0  0  0  0  0  0  0  0  0  0  0  0
   12.8094  -17.0573   24.9174 C   0  0  1  0  0  0  0  0  0  0  0  0
   13.5655  -16.4723   26.0422 C   0  0  0  0  0  0  0  0  0  0  0  0
   12.7617  -16.3498   27.2757 C   0  0  0  0  0  0  0  0  0  0  0  0
   12.5796  -17.3153   28.2599 C   0  0  0  0  0  0  0  0  0  0  0  0
   11.7481  -16.8303   29.1849 N   0  0  0  0  0  0  0  0  0  0  0  0
   11.3683  -15.5777   28.8573 C   0  0  0  0  0  0  0  0  0  0  0  0
   10.5410  -14.6758   29.5037 C   0  0  0  0  0  0  0  0  0  0  0  0
   10.3185  -13.4266   28.9720 C   0  0  0  0  0  0  0  0  0  0  0  0
   10.9342  -13.0918   27.7859 C   0  0  0  0  0  0  0  0  0  0  0  0
   11.7547  -13.9988   27.1521 C   0  0  0  0  0  0  0  0  0  0  0  0
   11.9939  -15.2723   27.6732 C   0  0  0  0  0  0  0  0  0  0  0  0
   12.5307  -18.4856   25.0645 C   0  0  0  0  0  0  0  0  0  0  0  0
   11.3223  -19.0026   25.4999 O   0  0  0  0  0  0  0  0  0  0  0  0
   13.4273  -19.3187   24.7917 O   0  0  0  0  0  0  0  0  0  0  0  0
  2  1  1  1
  2  3  1  0
  4  3  1  0
  4  5  1  0
  6  5  1  0
  7  6  1  0
  8  2  1  0
  9  8  2  0
 10  8  1  0
 11 12  1  1
 11 10  1  0
 12 13  1  0
 13 21  1  0
 14 13  2  0
 14 15  1  0
 15 16  1  0
 16 17  1  0
 17 18  2  0
 19 18  1  0
 20 19  2  0
 21 16  2  0
 21 20  1  0
 22 23  2  0
 22 11  1  0
 24 22  1  0
 25 24  1  0
 25 26  1  1
 27 28  2  0
 27 26  1  0
 29 28  1  0
 30 35  2  0
 30 29  1  0
 31 30  1  0
 32 33  1  0
 32 31  2  0
 33 34  2  0
 34 35  1  0
 35 27  1  0
 36 37  1  0
 36 25  1  0
 38 36  2  0
M  END
$$$$
