KWW.pdb
     RDKit          3D

 38 41  0  0  1  0  0  0  0  0999 V2000
    7.7922  -17.0636   18.8314 N   0  0  0  0  0  0  0  0  0  0  0  0
    8.6453  -15.9528   19.0135 C   0  0  1  0  0  0  0  0  0  0  0  0
    8.3287  -14.7164   18.2231 C   0  0  0  0  0  0  0  0  0  0  0  0
    8.2858  -14.9403   16.7689 C   0  0  0  0  0  0  0  0  0  0  0  0
    7.9258  -13.7146   15.9998 C   0  0  0  0  0  0  0  0  0  0  0  0
    7.8917  -14.0273   14.5273 C   0  0  0  0  0  0  0  0  0  0  0  0
    7.4920  -12.8459   13.7616 N   0  0  0  0  0  0  0  0  0  0  0  0
    8.9989  -15.6356   20.4240 C   0  0  0  0  0  0  0  0  0  0  0  0
    9.8866  -14.7487   20.5945 O   0  0  0  0  0  0  0  0  0  0  0  0
    8.4467  -16.2235   21.5663 N   0  0  0  0  0  0  0  0  0  0  0  0
    8.7747  -15.7848   22.9307 C   0  0  1  0  0  0  0  0  0  0  0  0
    7.8781  -16.4938   23.8714 C   0  0  0  0  0  0  0  0  0  0  0  0
    7.0070  -15.6387   24.6683 C   0  0  0  0  0  0  0  0  0  0  0  0
    5.9210  -16.0528   25.4072 C   0  0  0  0  0  0  0  0  0  0  0  0
    5.3850  -14.9671   26.0038 N   0  0  0  0  0  0  0  0  0  0  0  0
    6.0674  -13.8597   25.6919 C   0  0  0  0  0  0  0  0  0  0  0  0
    5.8949  -12.5451   26.0551 C   0  0  0  0  0  0  0  0  0  0  0  0
    6.7600  -11.5877   25.5764 C   0  0  0  0  0  0  0  0  0  0  0  0
    7.7944  -11.9601   24.7344 C   0  0  0  0  0  0  0  0  0  0  0  0
    7.9474  -13.2914   24.3831 C   0  0  0  0  0  0  0  0  0  0  0  0
    7.0985  -14.2793   24.8441 C   0  0  0  0  0  0  0  0  0  0  0  0
   10.2274  -15.9429   23.1873 C   0  0  0  0  0  0  0  0  0  0  0  0
   10.9853  -15.0073   22.8314 O   0  0  0  0  0  0  0  0  0  0  0  0
   10.7972  -17.0710   23.7987 N   0  0  0  0  0  0  0  0  0  0  0  0
   12.2021  -17.0282   24.2643 C   0  0  1  0  0  0  0  0  0  0  0  0
   12.3570  -16.0244   25.3356 C   0  0  0  0  0  0  0  0  0  0  0  0
   11.6195  -16.3762   26.5665 C   0  0  0  0  0  0  0  0  0  0  0  0
   11.3992  -17.6499   27.0795 C   0  0  0  0  0  0  0  0  0  0  0  0
   10.6515  -17.5432   28.1803 N   0  0  0  0  0  0  0  0  0  0  0  0
   10.3646  -16.2473   28.4233 C   0  0  0  0  0  0  0  0  0  0  0  0
    9.6442  -15.6468   29.4412 C   0  0  0  0  0  0  0  0  0  0  0  0
    9.5049  -14.2789   29.4855 C   0  0  0  0  0  0  0  0  0  0  0  0
   10.0955  -13.5201   28.4988 C   0  0  0  0  0  0  0  0  0  0  0  0
   10.8091  -14.1300   27.4908 C   0  0  0  0  0  0  0  0  0  0  0  0
   10.9625  -15.5167   27.4255 C   0  0  0  0  0  0  0  0  0  0  0  0
   12.6151  -18.3781   24.6474 C   0  0  0  0  0  0  0  0  0  0  0  0
   11.7800  -19.4824   24.6302 O   0  0  0  0  0  0  0  0  0  0  0  0
   13.7939  -18.5768   25.0257 O   0  0  0  0  0  0  0  0  0  0  0  0
  2  1  1  1
  2  3  1  0
  4  3  1  0
  4  5  1  0
  6  5  1  0
  7  6  1  0
  8  2  1  0
  9  8  2  0
 10  8  1  0
 11 12  1  1
 11 10  1  0
 12 13  1  0
 13 21  1  0
 14 13  2  0
 14 15  1  0
 15 16  1  0
 16 17  1  0
 17 18  2  0
 19 18  1  0
 20 19  2  0
 21 16  2  0
 21 20  1  0
 22 23  2  0
 22 11  1  0
 24 22  1  0
 25 24  1  0
 25 26  1  1
 27 28  2  0
 27 26  1  0
 29 28  1  0
 30 35  2  0
 30 29  1  0
 31 30  1  0
 32 33  1  0
 32 31  2  0
 33 34  2  0
 34 35  1  0
 35 27  1  0
 36 37  1  0
 36 25  1  0
 38 36  2  0
M  END
$$$$
