KWW.pdb
     RDKit          3D

 38 41  0  0  1  0  0  0  0  0999 V2000
    8.1324  -19.9592   18.5407 N   0  0  0  0  0  0  0  0  0  0  0  0
    9.1123  -18.9896   18.2338 C   0  0  1  0  0  0  0  0  0  0  0  0
    9.1393  -18.4733   16.8244 C   0  0  0  0  0  0  0  0  0  0  0  0
    8.8636  -19.5059   15.8122 C   0  0  0  0  0  0  0  0  0  0  0  0
    8.9581  -18.9938   14.4150 C   0  0  0  0  0  0  0  0  0  0  0  0
    8.4712  -20.0440   13.4521 C   0  0  0  0  0  0  0  0  0  0  0  0
    8.4261  -19.5095   12.0904 N   0  0  0  0  0  0  0  0  0  0  0  0
    9.2707  -17.8950   19.2299 C   0  0  0  0  0  0  0  0  0  0  0  0
   10.2026  -17.0663   19.0101 O   0  0  0  0  0  0  0  0  0  0  0  0
    8.4927  -17.7020   20.3756 N   0  0  0  0  0  0  0  0  0  0  0  0
    8.7565  -16.6347   21.3519 C   0  0  1  0  0  0  0  0  0  0  0  0
    7.4725  -15.9668   21.6634 C   0  0  0  0  0  0  0  0  0  0  0  0
    7.5714  -14.7937   22.5232 C   0  0  0  0  0  0  0  0  0  0  0  0
    8.0226  -13.5485   22.1457 C   0  0  0  0  0  0  0  0  0  0  0  0
    7.9533  -12.7366   23.2218 N   0  0  0  0  0  0  0  0  0  0  0  0
    7.4781  -13.3896   24.2882 C   0  0  0  0  0  0  0  0  0  0  0  0
    7.2388  -12.9827   25.5793 C   0  0  0  0  0  0  0  0  0  0  0  0
    6.7392  -13.8810   26.4944 C   0  0  0  0  0  0  0  0  0  0  0  0
    6.4831  -15.1846   26.1036 C   0  0  0  0  0  0  0  0  0  0  0  0
    6.7325  -15.5704   24.7966 C   0  0  0  0  0  0  0  0  0  0  0  0
    7.2337  -14.6962   23.8512 C   0  0  0  0  0  0  0  0  0  0  0  0
    9.4974  -17.1750   22.5182 C   0  0  0  0  0  0  0  0  0  0  0  0
    8.8780  -17.9430   23.2947 O   0  0  0  0  0  0  0  0  0  0  0  0
   10.8399  -16.8769   22.8007 N   0  0  0  0  0  0  0  0  0  0  0  0
   11.3652  -17.0639   24.1724 C   0  0  1  0  0  0  0  0  0  0  0  0
   11.2259  -15.8165   24.9494 C   0  0  0  0  0  0  0  0  0  0  0  0
   10.8911  -16.0554   26.3684 C   0  0  0  0  0  0  0  0  0  0  0  0
   10.9032  -17.2722   27.0417 C   0  0  0  0  0  0  0  0  0  0  0  0
   10.4938  -17.0698   28.2962 N   0  0  0  0  0  0  0  0  0  0  0  0
   10.2096  -15.7647   28.4873 C   0  0  0  0  0  0  0  0  0  0  0  0
    9.7728  -15.0798   29.6080 C   0  0  0  0  0  0  0  0  0  0  0  0
    9.5691  -13.7201   29.5606 C   0  0  0  0  0  0  0  0  0  0  0  0
    9.8080  -13.0549   28.3779 C   0  0  0  0  0  0  0  0  0  0  0  0
   10.2417  -13.7483   27.2695 C   0  0  0  0  0  0  0  0  0  0  0  0
   10.4542  -15.1285   27.2948 C   0  0  0  0  0  0  0  0  0  0  0  0
   10.7060  -18.2207   24.7778 C   0  0  0  0  0  0  0  0  0  0  0  0
   11.3705  -19.2323   25.4503 O   0  0  0  0  0  0  0  0  0  0  0  0
    9.4600  -18.3332   24.6929 O   0  0  0  0  0  0  0  0  0  0  0  0
  2  1  1  1
  2  3  1  0
  4  3  1  0
  4  5  1  0
  6  5  1  0
  7  6  1  0
  8  2  1  0
  9  8  2  0
 10  8  1  0
 11 12  1  1
 11 10  1  0
 12 13  1  0
 13 21  1  0
 14 13  2  0
 14 15  1  0
 15 16  1  0
 16 17  1  0
 17 18  2  0
 19 18  1  0
 20 19  2  0
 21 16  2  0
 21 20  1  0
 22 23  2  0
 22 11  1  0
 24 22  1  0
 25 24  1  0
 25 26  1  1
 27 28  2  0
 27 26  1  0
 29 28  1  0
 30 35  2  0
 30 29  1  0
 31 30  1  0
 32 33  1  0
 32 31  2  0
 33 34  2  0
 34 35  1  0
 35 27  1  0
 36 37  1  0
 36 25  1  0
 38 36  2  0
M  END
$$$$
