KWW.pdb
     RDKit          3D

 38 41  0  0  1  0  0  0  0  0999 V2000
    9.0704  -17.3286   18.0001 N   0  0  0  0  0  0  0  0  0  0  0  0
    9.7723  -16.1843   18.4391 C   0  0  1  0  0  0  0  0  0  0  0  0
    9.6590  -14.9509   17.5909 C   0  0  0  0  0  0  0  0  0  0  0  0
    9.0109  -15.1864   16.2905 C   0  0  0  0  0  0  0  0  0  0  0  0
    7.9131  -14.2194   16.0016 C   0  0  0  0  0  0  0  0  0  0  0  0
    7.2921  -14.5356   14.6669 C   0  0  0  0  0  0  0  0  0  0  0  0
    6.1599  -13.6460   14.4047 N   0  0  0  0  0  0  0  0  0  0  0  0
    9.6563  -15.8737   19.8901 C   0  0  0  0  0  0  0  0  0  0  0  0
   10.3704  -14.9201   20.3191 O   0  0  0  0  0  0  0  0  0  0  0  0
    8.8397  -16.5341   20.8134 N   0  0  0  0  0  0  0  0  0  0  0  0
    8.7633  -16.1524   22.2312 C   0  0  1  0  0  0  0  0  0  0  0  0
    7.3391  -16.1616   22.6353 C   0  0  0  0  0  0  0  0  0  0  0  0
    7.0628  -15.6223   23.9612 C   0  0  0  0  0  0  0  0  0  0  0  0
    6.5594  -16.3256   25.0329 C   0  0  0  0  0  0  0  0  0  0  0  0
    6.4549  -15.4759   26.0765 N   0  0  0  0  0  0  0  0  0  0  0  0
    6.8658  -14.2479   25.7410 C   0  0  0  0  0  0  0  0  0  0  0  0
    6.9387  -13.0784   26.4600 C   0  0  0  0  0  0  0  0  0  0  0  0
    7.4081  -11.9353   25.8542 C   0  0  0  0  0  0  0  0  0  0  0  0
    7.8018  -11.9768   24.5271 C   0  0  0  0  0  0  0  0  0  0  0  0
    7.7190  -13.1675   23.8240 C   0  0  0  0  0  0  0  0  0  0  0  0
    7.2530  -14.3342   24.3991 C   0  0  0  0  0  0  0  0  0  0  0  0
    9.6656  -17.0051   23.0436 C   0  0  0  0  0  0  0  0  0  0  0  0
    9.7828  -18.2097   22.7097 O   0  0  0  0  0  0  0  0  0  0  0  0
   10.3880  -16.5448   24.1560 N   0  0  0  0  0  0  0  0  0  0  0  0
   11.4208  -17.4071   24.7741 C   0  0  1  0  0  0  0  0  0  0  0  0
   12.0393  -16.7213   25.9259 C   0  0  0  0  0  0  0  0  0  0  0  0
   11.1998  -16.7635   27.1409 C   0  0  0  0  0  0  0  0  0  0  0  0
   10.8824  -17.8813   27.9050 C   0  0  0  0  0  0  0  0  0  0  0  0
   10.0641  -17.5059   28.8908 N   0  0  0  0  0  0  0  0  0  0  0  0
    9.8234  -16.1804   28.8155 C   0  0  0  0  0  0  0  0  0  0  0  0
    9.0619  -15.3438   29.6130 C   0  0  0  0  0  0  0  0  0  0  0  0
    8.9858  -13.9975   29.3405 C   0  0  0  0  0  0  0  0  0  0  0  0
    9.6811  -13.4995   28.2604 C   0  0  0  0  0  0  0  0  0  0  0  0
   10.4346  -14.3428   27.4740 C   0  0  0  0  0  0  0  0  0  0  0  0
   10.5254  -15.7125   27.7315 C   0  0  0  0  0  0  0  0  0  0  0  0
   10.8230  -18.7014   25.1011 C   0  0  0  0  0  0  0  0  0  0  0  0
   11.5491  -19.8509   25.3628 O   0  0  0  0  0  0  0  0  0  0  0  0
    9.5745  -18.8080   25.1487 O   0  0  0  0  0  0  0  0  0  0  0  0
  2  1  1  6
  2  3  1  0
  4  3  1  0
  4  5  1  0
  6  5  1  0
  7  6  1  0
  8  2  1  0
  9  8  2  0
 10  8  1  0
 11 12  1  1
 11 10  1  0
 12 13  1  0
 13 21  1  0
 14 13  2  0
 14 15  1  0
 15 16  1  0
 16 17  1  0
 17 18  2  0
 19 18  1  0
 20 19  2  0
 21 16  2  0
 21 20  1  0
 22 23  2  0
 22 11  1  0
 24 22  1  0
 25 24  1  0
 25 26  1  1
 27 28  2  0
 27 26  1  0
 29 28  1  0
 30 35  2  0
 30 29  1  0
 31 30  1  0
 32 33  1  0
 32 31  2  0
 33 34  2  0
 34 35  1  0
 35 27  1  0
 36 37  1  0
 36 25  1  0
 38 36  2  0
M  END
$$$$
