KWW.pdb
     RDKit          3D

 38 41  0  0  1  0  0  0  0  0999 V2000
    9.5441  -18.6067   18.6883 N   0  0  0  0  0  0  0  0  0  0  0  0
   10.5690  -18.4576   19.6486 C   0  0  1  0  0  0  0  0  0  0  0  0
   11.9729  -18.3374   19.1307 C   0  0  0  0  0  0  0  0  0  0  0  0
   12.2706  -19.2502   18.0149 C   0  0  0  0  0  0  0  0  0  0  0  0
   13.0363  -18.5970   16.9146 C   0  0  0  0  0  0  0  0  0  0  0  0
   13.3565  -19.6076   15.8455 C   0  0  0  0  0  0  0  0  0  0  0  0
   14.0036  -18.9589   14.7043 N   0  0  0  0  0  0  0  0  0  0  0  0
   10.2937  -17.4835   20.7398 C   0  0  0  0  0  0  0  0  0  0  0  0
   11.0318  -16.4551   20.7739 O   0  0  0  0  0  0  0  0  0  0  0  0
    9.3051  -17.6008   21.7217 N   0  0  0  0  0  0  0  0  0  0  0  0
    9.1090  -16.6030   22.7836 C   0  0  1  0  0  0  0  0  0  0  0  0
    7.6680  -16.2687   22.8422 C   0  0  0  0  0  0  0  0  0  0  0  0
    7.1283  -15.6213   21.6528 C   0  0  0  0  0  0  0  0  0  0  0  0
    6.1434  -16.1255   20.8326 C   0  0  0  0  0  0  0  0  0  0  0  0
    5.9200  -15.2275   19.8498 N   0  0  0  0  0  0  0  0  0  0  0  0
    6.7114  -14.1577   19.9856 C   0  0  0  0  0  0  0  0  0  0  0  0
    6.8382  -13.0117   19.2371 C   0  0  0  0  0  0  0  0  0  0  0  0
    7.7532  -12.0534   19.6093 C   0  0  0  0  0  0  0  0  0  0  0  0
    8.5355  -12.2550   20.7342 C   0  0  0  0  0  0  0  0  0  0  0  0
    8.3888  -13.4182   21.4721 C   0  0  0  0  0  0  0  0  0  0  0  0
    7.4811  -14.4016   21.1285 C   0  0  0  0  0  0  0  0  0  0  0  0
    9.7090  -17.0785   24.0544 C   0  0  0  0  0  0  0  0  0  0  0  0
    9.4205  -18.2400   24.4340 O   0  0  0  0  0  0  0  0  0  0  0  0
   10.5721  -16.3086   24.8503 N   0  0  0  0  0  0  0  0  0  0  0  0
   10.3219  -16.1843   26.3043 C   0  0  1  0  0  0  0  0  0  0  0  0
    8.9368  -16.5839   26.6223 C   0  0  0  0  0  0  0  0  0  0  0  0
    7.9551  -15.5079   26.3751 C   0  0  0  0  0  0  0  0  0  0  0  0
    6.6883  -15.6379   25.8160 C   0  0  0  0  0  0  0  0  0  0  0  0
    6.1371  -14.4256   25.7216 N   0  0  0  0  0  0  0  0  0  0  0  0
    6.9862  -13.4909   26.1969 C   0  0  0  0  0  0  0  0  0  0  0  0
    6.8573  -12.1183   26.3203 C   0  0  0  0  0  0  0  0  0  0  0  0
    7.8731  -11.3673   26.8651 C   0  0  0  0  0  0  0  0  0  0  0  0
    9.0188  -12.0072   27.2848 C   0  0  0  0  0  0  0  0  0  0  0  0
    9.1349  -13.3737   27.1557 C   0  0  0  0  0  0  0  0  0  0  0  0
    8.1171  -14.1554   26.6048 C   0  0  0  0  0  0  0  0  0  0  0  0
   11.3425  -16.9432   27.0267 C   0  0  0  0  0  0  0  0  0  0  0  0
   11.4755  -16.9538   28.4048 O   0  0  0  0  0  0  0  0  0  0  0  0
   12.1678  -17.6330   26.3820 O   0  0  0  0  0  0  0  0  0  0  0  0
  2  1  1  6
  2  3  1  0
  4  3  1  0
  4  5  1  0
  6  5  1  0
  7  6  1  0
  8  2  1  0
  9  8  2  0
 10  8  1  0
 11 12  1  1
 11 10  1  0
 12 13  1  0
 13 21  1  0
 14 13  2  0
 14 15  1  0
 15 16  1  0
 16 17  1  0
 17 18  2  0
 19 18  1  0
 20 19  2  0
 21 16  2  0
 21 20  1  0
 22 23  2  0
 22 11  1  0
 24 22  1  0
 25 24  1  0
 25 26  1  6
 27 28  2  0
 27 26  1  0
 29 28  1  0
 30 35  2  0
 30 29  1  0
 31 30  1  0
 32 33  1  0
 32 31  2  0
 33 34  2  0
 34 35  1  0
 35 27  1  0
 36 37  1  0
 36 25  1  0
 38 36  2  0
M  END
$$$$
