KWW.pdb
     RDKit          3D

 38 41  0  0  1  0  0  0  0  0999 V2000
   10.0718  -18.4943   19.3898 N   0  0  0  0  0  0  0  0  0  0  0  0
   10.6703  -17.2166   19.4540 C   0  0  1  0  0  0  0  0  0  0  0  0
   10.4514  -16.3042   18.2823 C   0  0  0  0  0  0  0  0  0  0  0  0
   10.2767  -17.0150   17.0052 C   0  0  0  0  0  0  0  0  0  0  0  0
   10.0783  -16.0961   15.8478 C   0  0  0  0  0  0  0  0  0  0  0  0
    9.9611  -16.8940   14.5764 C   0  0  0  0  0  0  0  0  0  0  0  0
    9.9915  -16.0091   13.4111 N   0  0  0  0  0  0  0  0  0  0  0  0
   10.5246  -16.5007   20.7508 C   0  0  0  0  0  0  0  0  0  0  0  0
   11.4406  -15.6767   21.0434 O   0  0  0  0  0  0  0  0  0  0  0  0
    9.4795  -16.6554   21.6669 N   0  0  0  0  0  0  0  0  0  0  0  0
    9.3941  -15.8918   22.9204 C   0  0  1  0  0  0  0  0  0  0  0  0
    8.0267  -15.3350   23.0292 C   0  0  0  0  0  0  0  0  0  0  0  0
    7.3468  -15.0970   21.7618 C   0  0  0  0  0  0  0  0  0  0  0  0
    6.3628  -15.8868   21.2098 C   0  0  0  0  0  0  0  0  0  0  0  0
    5.9864  -15.3267   20.0407 N   0  0  0  0  0  0  0  0  0  0  0  0
    6.6765  -14.2067   19.7987 C   0  0  0  0  0  0  0  0  0  0  0  0
    6.6394  -13.3164   18.7519 C   0  0  0  0  0  0  0  0  0  0  0  0
    7.4793  -12.2261   18.7556 C   0  0  0  0  0  0  0  0  0  0  0  0
    8.3519  -12.0386   19.8144 C   0  0  0  0  0  0  0  0  0  0  0  0
    8.3703  -12.9498   20.8578 C   0  0  0  0  0  0  0  0  0  0  0  0
    7.5420  -14.0553   20.8878 C   0  0  0  0  0  0  0  0  0  0  0  0
    9.8391  -16.7265   24.0634 C   0  0  0  0  0  0  0  0  0  0  0  0
   10.7405  -17.5734   23.8478 O   0  0  0  0  0  0  0  0  0  0  0  0
    9.3119  -16.6246   25.3606 N   0  0  0  0  0  0  0  0  0  0  0  0
   10.2232  -16.5816   26.5268 C   0  0  1  0  0  0  0  0  0  0  0  0
    9.7219  -15.6263   27.5345 C   0  0  0  0  0  0  0  0  0  0  0  0
    8.3710  -15.1155   27.2230 C   0  0  0  0  0  0  0  0  0  0  0  0
    7.2175  -15.8633   27.0122 C   0  0  0  0  0  0  0  0  0  0  0  0
    6.2181  -15.0305   26.7123 N   0  0  0  0  0  0  0  0  0  0  0  0
    6.6590  -13.7553   26.7155 C   0  0  0  0  0  0  0  0  0  0  0  0
    5.9999  -12.5606   26.4832 C   0  0  0  0  0  0  0  0  0  0  0  0
    6.6732  -11.3637   26.5654 C   0  0  0  0  0  0  0  0  0  0  0  0
    8.0137  -11.3778   26.8830 C   0  0  0  0  0  0  0  0  0  0  0  0
    8.6583  -12.5736   27.1111 C   0  0  0  0  0  0  0  0  0  0  0  0
    7.9948  -13.8001   27.0321 C   0  0  0  0  0  0  0  0  0  0  0  0
   10.4078  -17.9412   27.0336 C   0  0  0  0  0  0  0  0  0  0  0  0
   11.4107  -18.3157   27.9116 O   0  0  0  0  0  0  0  0  0  0  0  0
    9.6258  -18.8480   26.6613 O   0  0  0  0  0  0  0  0  0  0  0  0
  2  1  1  1
  2  3  1  0
  4  3  1  0
  4  5  1  0
  6  5  1  0
  7  6  1  0
  8  2  1  0
  9  8  2  0
 10  8  1  0
 11 12  1  1
 11 10  1  0
 12 13  1  0
 13 21  1  0
 14 13  2  0
 14 15  1  0
 15 16  1  0
 16 17  1  0
 17 18  2  0
 19 18  1  0
 20 19  2  0
 21 16  2  0
 21 20  1  0
 22 23  2  0
 22 11  1  0
 24 22  1  0
 25 24  1  0
 25 26  1  1
 27 28  2  0
 27 26  1  0
 29 28  1  0
 30 35  2  0
 30 29  1  0
 31 30  1  0
 32 33  1  0
 32 31  2  0
 33 34  2  0
 34 35  1  0
 35 27  1  0
 36 37  1  0
 36 25  1  0
 38 36  2  0
M  END
$$$$
