KWW.pdb
     RDKit          3D

 38 41  0  0  1  0  0  0  0  0999 V2000
   10.6327  -21.2349   20.4083 N   0  0  0  0  0  0  0  0  0  0  0  0
   11.7243  -20.3471   20.5315 C   0  0  1  0  0  0  0  0  0  0  0  0
   12.9734  -20.6975   19.7763 C   0  0  0  0  0  0  0  0  0  0  0  0
   12.8760  -21.9614   19.0281 C   0  0  0  0  0  0  0  0  0  0  0  0
   14.0527  -22.8539   19.2338 C   0  0  0  0  0  0  0  0  0  0  0  0
   13.8947  -24.1050   18.4111 C   0  0  0  0  0  0  0  0  0  0  0  0
   15.0916  -24.9409   18.5144 N   0  0  0  0  0  0  0  0  0  0  0  0
   11.3945  -18.9000   20.4196 C   0  0  0  0  0  0  0  0  0  0  0  0
   12.0293  -18.2457   19.5407 O   0  0  0  0  0  0  0  0  0  0  0  0
   10.4580  -18.2043   21.1905 N   0  0  0  0  0  0  0  0  0  0  0  0
   10.1555  -16.7796   20.9894 C   0  0  1  0  0  0  0  0  0  0  0  0
    8.7231  -16.6575   20.6359 C   0  0  0  0  0  0  0  0  0  0  0  0
    8.3239  -15.3689   20.0836 C   0  0  0  0  0  0  0  0  0  0  0  0
    8.3519  -15.0143   18.7531 C   0  0  0  0  0  0  0  0  0  0  0  0
    7.8992  -13.7468   18.6503 N   0  0  0  0  0  0  0  0  0  0  0  0
    7.5753  -13.2521   19.8502 C   0  0  0  0  0  0  0  0  0  0  0  0
    7.0826  -12.0272   20.2330 C   0  0  0  0  0  0  0  0  0  0  0  0
    6.8358  -11.7785   21.5639 C   0  0  0  0  0  0  0  0  0  0  0  0
    7.0868  -12.7657   22.5021 C   0  0  0  0  0  0  0  0  0  0  0  0
    7.5832  -13.9921   22.0913 C   0  0  0  0  0  0  0  0  0  0  0  0
    7.8428  -14.2771   20.7645 C   0  0  0  0  0  0  0  0  0  0  0  0
   10.5953  -15.9887   22.1651 C   0  0  0  0  0  0  0  0  0  0  0  0
   10.3893  -14.7504   22.1420 O   0  0  0  0  0  0  0  0  0  0  0  0
   11.2252  -16.5423   23.2912 N   0  0  0  0  0  0  0  0  0  0  0  0
   10.6059  -16.3995   24.6285 C   0  0  1  0  0  0  0  0  0  0  0  0
    9.1539  -16.1670   24.4990 C   0  0  0  0  0  0  0  0  0  0  0  0
    8.5839  -15.4279   25.6443 C   0  0  0  0  0  0  0  0  0  0  0  0
    8.5735  -15.8220   26.9780 C   0  0  0  0  0  0  0  0  0  0  0  0
    7.9239  -14.8989   27.6907 N   0  0  0  0  0  0  0  0  0  0  0  0
    7.5007  -13.9027   26.8850 C   0  0  0  0  0  0  0  0  0  0  0  0
    6.8084  -12.7364   27.1612 C   0  0  0  0  0  0  0  0  0  0  0  0
    6.5034  -11.8498   26.1545 C   0  0  0  0  0  0  0  0  0  0  0  0
    6.9001  -12.1451   24.8685 C   0  0  0  0  0  0  0  0  0  0  0  0
    7.5878  -13.3095   24.6067 C   0  0  0  0  0  0  0  0  0  0  0  0
    7.9070  -14.2241   25.6128 C   0  0  0  0  0  0  0  0  0  0  0  0
   10.9533  -17.5673   25.4379 C   0  0  0  0  0  0  0  0  0  0  0  0
   11.3216  -17.5091   26.7713 O   0  0  0  0  0  0  0  0  0  0  0  0
   10.9307  -18.7069   24.9153 O   0  0  0  0  0  0  0  0  0  0  0  0
  2  1  1  6
  2  3  1  0
  4  3  1  0
  4  5  1  0
  6  5  1  0
  7  6  1  0
  8  2  1  0
  9  8  2  0
 10  8  1  0
 11 12  1  1
 11 10  1  0
 12 13  1  0
 13 21  1  0
 14 13  2  0
 14 15  1  0
 15 16  1  0
 16 17  1  0
 17 18  2  0
 19 18  1  0
 20 19  2  0
 21 16  2  0
 21 20  1  0
 22 23  2  0
 22 11  1  0
 24 22  1  0
 25 24  1  0
 25 26  1  6
 27 28  2  0
 27 26  1  0
 29 28  1  0
 30 35  2  0
 30 29  1  0
 31 30  1  0
 32 33  1  0
 32 31  2  0
 33 34  2  0
 34 35  1  0
 35 27  1  0
 36 37  1  0
 36 25  1  0
 38 36  2  0
M  END
$$$$
