KWW.pdb
     RDKit          3D

 38 41  0  0  1  0  0  0  0  0999 V2000
    7.8449  -17.3175   18.2034 N   0  0  0  0  0  0  0  0  0  0  0  0
    8.3819  -16.0658   18.5772 C   0  0  1  0  0  0  0  0  0  0  0  0
    7.8026  -14.8517   17.9110 C   0  0  0  0  0  0  0  0  0  0  0  0
    7.7526  -14.9511   16.4433 C   0  0  0  0  0  0  0  0  0  0  0  0
    8.3776  -13.7839   15.7573 C   0  0  0  0  0  0  0  0  0  0  0  0
    8.1896  -13.9058   14.2684 C   0  0  0  0  0  0  0  0  0  0  0  0
    8.6474  -12.6909   13.5928 N   0  0  0  0  0  0  0  0  0  0  0  0
    8.5775  -15.8583   20.0381 C   0  0  0  0  0  0  0  0  0  0  0  0
    9.2375  -14.8318   20.3760 O   0  0  0  0  0  0  0  0  0  0  0  0
    8.1048  -16.6867   21.0606 N   0  0  0  0  0  0  0  0  0  0  0  0
    8.3878  -16.4441   22.4828 C   0  0  1  0  0  0  0  0  0  0  0  0
    7.3324  -17.1058   23.2827 C   0  0  0  0  0  0  0  0  0  0  0  0
    6.7964  -16.3159   24.3845 C   0  0  0  0  0  0  0  0  0  0  0  0
    5.9765  -16.7793   25.3894 C   0  0  0  0  0  0  0  0  0  0  0  0
    5.7071  -15.7469   26.2163 N   0  0  0  0  0  0  0  0  0  0  0  0
    6.3113  -14.6276   25.8022 C   0  0  0  0  0  0  0  0  0  0  0  0
    6.3252  -13.3516   26.3136 C   0  0  0  0  0  0  0  0  0  0  0  0
    7.0433  -12.3688   25.6713 C   0  0  0  0  0  0  0  0  0  0  0  0
    7.7437  -12.6771   24.5171 C   0  0  0  0  0  0  0  0  0  0  0  0
    7.7142  -13.9705   24.0217 C   0  0  0  0  0  0  0  0  0  0  0  0
    7.0044  -14.9822   24.6395 C   0  0  0  0  0  0  0  0  0  0  0  0
    9.7804  -16.8408   22.8058 C   0  0  0  0  0  0  0  0  0  0  0  0
   10.3242  -17.7019   22.0715 O   0  0  0  0  0  0  0  0  0  0  0  0
   10.5172  -16.3132   23.8783 N   0  0  0  0  0  0  0  0  0  0  0  0
   11.8475  -16.8740   24.2071 C   0  0  1  0  0  0  0  0  0  0  0  0
   12.5866  -15.9544   25.0944 C   0  0  0  0  0  0  0  0  0  0  0  0
   11.9493  -15.7931   26.4175 C   0  0  0  0  0  0  0  0  0  0  0  0
   11.9176  -16.7198   27.4539 C   0  0  0  0  0  0  0  0  0  0  0  0
   11.2050  -16.2095   28.4610 N   0  0  0  0  0  0  0  0  0  0  0  0
   10.7603  -14.9773   28.1379 C   0  0  0  0  0  0  0  0  0  0  0  0
   10.0070  -14.0619   28.8522 C   0  0  0  0  0  0  0  0  0  0  0  0
    9.6914  -12.8392   28.3063 C   0  0  0  0  0  0  0  0  0  0  0  0
   10.1392  -12.5445   27.0371 C   0  0  0  0  0  0  0  0  0  0  0  0
   10.8875  -13.4645   26.3364 C   0  0  0  0  0  0  0  0  0  0  0  0
   11.2187  -14.7117   26.8705 C   0  0  0  0  0  0  0  0  0  0  0  0
   11.6719  -18.2189   24.7546 C   0  0  0  0  0  0  0  0  0  0  0  0
   12.6742  -19.1723   24.8149 O   0  0  0  0  0  0  0  0  0  0  0  0
   10.5505  -18.5605   25.1997 O   0  0  0  0  0  0  0  0  0  0  0  0
  2  1  1  1
  2  3  1  0
  4  3  1  0
  4  5  1  0
  6  5  1  0
  7  6  1  0
  8  2  1  0
  9  8  2  0
 10  8  1  0
 11 12  1  1
 11 10  1  0
 12 13  1  0
 13 21  1  0
 14 13  2  0
 14 15  1  0
 15 16  1  0
 16 17  1  0
 17 18  2  0
 19 18  1  0
 20 19  2  0
 21 16  2  0
 21 20  1  0
 22 23  2  0
 22 11  1  0
 24 22  1  0
 25 24  1  0
 25 26  1  1
 27 28  2  0
 27 26  1  0
 29 28  1  0
 30 35  2  0
 30 29  1  0
 31 30  1  0
 32 33  1  0
 32 31  2  0
 33 34  2  0
 34 35  1  0
 35 27  1  0
 36 37  1  0
 36 25  1  0
 38 36  2  0
M  END
$$$$
