KWW.pdb
     RDKit          3D

 38 41  0  0  1  0  0  0  0  0999 V2000
    8.7561  -17.8788   17.6150 N   0  0  0  0  0  0  0  0  0  0  0  0
    9.3247  -16.6329   17.9604 C   0  0  1  0  0  0  0  0  0  0  0  0
    9.0119  -15.4712   17.0625 C   0  0  0  0  0  0  0  0  0  0  0  0
    9.5186  -15.6329   15.6900 C   0  0  0  0  0  0  0  0  0  0  0  0
    8.4331  -15.6822   14.6688 C   0  0  0  0  0  0  0  0  0  0  0  0
    9.0277  -15.8886   13.3010 C   0  0  0  0  0  0  0  0  0  0  0  0
    9.2490  -17.3130   13.0480 N   0  0  0  0  0  0  0  0  0  0  0  0
    9.2399  -16.2620   19.3993 C   0  0  0  0  0  0  0  0  0  0  0  0
   10.0297  -15.3537   19.7926 O   0  0  0  0  0  0  0  0  0  0  0  0
    8.3770  -16.8213   20.3470 N   0  0  0  0  0  0  0  0  0  0  0  0
    8.3319  -16.3786   21.7484 C   0  0  1  0  0  0  0  0  0  0  0  0
    6.9640  -16.6147   22.2629 C   0  0  0  0  0  0  0  0  0  0  0  0
    6.7286  -16.1782   23.6338 C   0  0  0  0  0  0  0  0  0  0  0  0
    6.3760  -16.9862   24.6918 C   0  0  0  0  0  0  0  0  0  0  0  0
    6.2598  -16.2086   25.7890 N   0  0  0  0  0  0  0  0  0  0  0  0
    6.5193  -14.9282   25.5017 C   0  0  0  0  0  0  0  0  0  0  0  0
    6.5238  -13.7972   26.2831 C   0  0  0  0  0  0  0  0  0  0  0  0
    6.8310  -12.5806   25.7178 C   0  0  0  0  0  0  0  0  0  0  0  0
    7.1323  -12.5102   24.3679 C   0  0  0  0  0  0  0  0  0  0  0  0
    7.1213  -13.6642   23.6016 C   0  0  0  0  0  0  0  0  0  0  0  0
    6.8177  -14.9022   24.1348 C   0  0  0  0  0  0  0  0  0  0  0  0
    9.4267  -17.0119   22.5240 C   0  0  0  0  0  0  0  0  0  0  0  0
    9.8084  -18.1528   22.1648 O   0  0  0  0  0  0  0  0  0  0  0  0
   10.0530  -16.4128   23.6286 N   0  0  0  0  0  0  0  0  0  0  0  0
   11.2657  -17.0287   24.2137 C   0  0  1  0  0  0  0  0  0  0  0  0
   11.8895  -16.1097   25.1861 C   0  0  0  0  0  0  0  0  0  0  0  0
   11.1925  -16.0885   26.4886 C   0  0  0  0  0  0  0  0  0  0  0  0
   10.7609  -17.1837   27.2290 C   0  0  0  0  0  0  0  0  0  0  0  0
   10.1360  -16.7403   28.3222 N   0  0  0  0  0  0  0  0  0  0  0  0
   10.1342  -15.3911   28.3413 C   0  0  0  0  0  0  0  0  0  0  0  0
    9.6287  -14.4915   29.2637 C   0  0  0  0  0  0  0  0  0  0  0  0
    9.7703  -13.1371   29.0688 C   0  0  0  0  0  0  0  0  0  0  0  0
   10.4241  -12.6947   27.9397 C   0  0  0  0  0  0  0  0  0  0  0  0
   10.9220  -13.6003   27.0289 C   0  0  0  0  0  0  0  0  0  0  0  0
   10.7887  -14.9792   27.2061 C   0  0  0  0  0  0  0  0  0  0  0  0
   10.9122  -18.3348   24.7691 C   0  0  0  0  0  0  0  0  0  0  0  0
    9.6133  -18.7839   24.9374 O   0  0  0  0  0  0  0  0  0  0  0  0
   11.8233  -19.1169   25.1304 O   0  0  0  0  0  0  0  0  0  0  0  0
  2  1  1  1
  2  3  1  0
  4  3  1  0
  4  5  1  0
  6  5  1  0
  7  6  1  0
  8  2  1  0
  9  8  2  0
 10  8  1  0
 11 12  1  1
 11 10  1  0
 12 13  1  0
 13 21  1  0
 14 13  2  0
 14 15  1  0
 15 16  1  0
 16 17  1  0
 17 18  2  0
 19 18  1  0
 20 19  2  0
 21 16  2  0
 21 20  1  0
 22 23  2  0
 22 11  1  0
 24 22  1  0
 25 24  1  0
 25 26  1  1
 27 28  2  0
 27 26  1  0
 29 28  1  0
 30 35  2  0
 30 29  1  0
 31 30  1  0
 32 33  1  0
 32 31  2  0
 33 34  2  0
 34 35  1  0
 35 27  1  0
 36 37  1  0
 36 25  1  0
 38 36  2  0
M  END
$$$$
