KWW.pdb
     RDKit          3D

 38 41  0  0  1  0  0  0  0  0999 V2000
    9.1295  -17.8642   18.2496 N   0  0  0  0  0  0  0  0  0  0  0  0
    9.5097  -18.1777   19.5733 C   0  0  1  0  0  0  0  0  0  0  0  0
   10.8141  -18.8986   19.7528 C   0  0  0  0  0  0  0  0  0  0  0  0
   11.9586  -18.2109   19.1334 C   0  0  0  0  0  0  0  0  0  0  0  0
   13.2014  -19.0350   19.1271 C   0  0  0  0  0  0  0  0  0  0  0  0
   14.3181  -18.2700   18.4678 C   0  0  0  0  0  0  0  0  0  0  0  0
   15.5313  -19.0862   18.4052 N   0  0  0  0  0  0  0  0  0  0  0  0
    9.3362  -17.0858   20.5698 C   0  0  0  0  0  0  0  0  0  0  0  0
    9.8673  -15.9730   20.2817 O   0  0  0  0  0  0  0  0  0  0  0  0
    8.6484  -17.1772   21.7839 N   0  0  0  0  0  0  0  0  0  0  0  0
    8.4659  -16.0328   22.6887 C   0  0  1  0  0  0  0  0  0  0  0  0
    7.1339  -16.1542   23.3233 C   0  0  0  0  0  0  0  0  0  0  0  0
    6.8860  -15.2431   24.4339 C   0  0  0  0  0  0  0  0  0  0  0  0
    6.4952  -15.6026   25.7047 C   0  0  0  0  0  0  0  0  0  0  0  0
    6.3797  -14.4760   26.4391 N   0  0  0  0  0  0  0  0  0  0  0  0
    6.6760  -13.3937   25.7111 C   0  0  0  0  0  0  0  0  0  0  0  0
    6.6953  -12.0556   26.0257 C   0  0  0  0  0  0  0  0  0  0  0  0
    7.0425  -11.1351   25.0633 C   0  0  0  0  0  0  0  0  0  0  0  0
    7.3686  -11.5679   23.7889 C   0  0  0  0  0  0  0  0  0  0  0  0
    7.3419  -12.9218   23.4965 C   0  0  0  0  0  0  0  0  0  0  0  0
    6.9983  -13.8740   24.4369 C   0  0  0  0  0  0  0  0  0  0  0  0
    9.6137  -15.9266   23.6228 C   0  0  0  0  0  0  0  0  0  0  0  0
    9.7109  -14.8781   24.3065 O   0  0  0  0  0  0  0  0  0  0  0  0
   10.5896  -16.9233   23.7822 N   0  0  0  0  0  0  0  0  0  0  0  0
   11.7946  -16.6532   24.5990 C   0  0  1  0  0  0  0  0  0  0  0  0
   11.8303  -17.5487   25.7720 C   0  0  0  0  0  0  0  0  0  0  0  0
   10.7288  -17.2966   26.7238 C   0  0  0  0  0  0  0  0  0  0  0  0
    9.6999  -18.1665   27.0683 C   0  0  0  0  0  0  0  0  0  0  0  0
    8.8843  -17.5454   27.9235 N   0  0  0  0  0  0  0  0  0  0  0  0
    9.3292  -16.2946   28.1645 C   0  0  0  0  0  0  0  0  0  0  0  0
    8.8364  -15.2916   28.9812 C   0  0  0  0  0  0  0  0  0  0  0  0
    9.4899  -14.0849   29.0777 C   0  0  0  0  0  0  0  0  0  0  0  0
   10.6423  -13.8949   28.3468 C   0  0  0  0  0  0  0  0  0  0  0  0
   11.1218  -14.9007   27.5371 C   0  0  0  0  0  0  0  0  0  0  0  0
   10.4743  -16.1329   27.4233 C   0  0  0  0  0  0  0  0  0  0  0  0
   12.9769  -16.7441   23.7427 C   0  0  0  0  0  0  0  0  0  0  0  0
   14.2697  -16.4936   24.1706 O   0  0  0  0  0  0  0  0  0  0  0  0
   12.8406  -17.0614   22.5372 O   0  0  0  0  0  0  0  0  0  0  0  0
  2  1  1  6
  2  3  1  0
  4  3  1  0
  4  5  1  0
  6  5  1  0
  7  6  1  0
  8  2  1  0
  9  8  2  0
 10  8  1  0
 11 12  1  1
 11 10  1  0
 12 13  1  0
 13 21  1  0
 14 13  2  0
 14 15  1  0
 15 16  1  0
 16 17  1  0
 17 18  2  0
 19 18  1  0
 20 19  2  0
 21 16  2  0
 21 20  1  0
 22 23  2  0
 22 11  1  0
 24 22  1  0
 25 24  1  0
 25 26  1  1
 27 28  2  0
 27 26  1  0
 29 28  1  0
 30 35  2  0
 30 29  1  0
 31 30  1  0
 32 33  1  0
 32 31  2  0
 33 34  2  0
 34 35  1  0
 35 27  1  0
 36 37  1  0
 36 25  1  0
 38 36  2  0
M  END
$$$$
