NMI.pdb
     RDKit          3D

 25 24  0  0  1  0  0  0  0  0999 V2000
   27.5019  -17.0942  -17.9312 N   0  0  0  0  0  0  0  0  0  0  0  0
   28.4012  -17.7281  -17.0265 C   0  0  0  0  0  0  0  0  0  0  0  0
   29.6371  -17.5429  -17.1261 O   0  0  0  0  0  0  0  0  0  0  0  0
   27.9003  -18.6139  -15.9573 C   0  0  0  0  0  0  0  0  0  0  0  0
   28.6785  -19.8558  -15.7271 C   0  0  2  0  0  0  0  0  0  0  0  0
   28.4340  -20.7169  -16.9061 N   0  0  0  0  0  0  0  0  0  0  0  0
   28.3919  -20.6276  -14.5293 C   0  0  0  0  0  0  0  0  0  0  0  0
   27.4066  -21.4370  -14.5524 O   0  0  0  0  0  0  0  0  0  0  0  0
   31.7133  -21.8545   -8.7527 C   0  0  0  0  0  0  0  0  0  0  0  0
   32.4670  -21.7654  -10.4113 S   0  0  0  0  0  0  0  0  0  0  0  0
   31.0911  -21.9842  -11.6217 C   0  0  0  0  0  0  0  0  0  0  0  0
   29.9507  -21.1068  -11.2164 C   0  0  0  0  0  0  0  0  0  0  0  0
   28.7458  -21.1697  -12.1089 C   0  0  2  0  0  0  0  0  0  0  0  0
   29.1749  -20.5060  -13.3545 N   0  0  0  0  0  0  0  0  0  0  0  0
   27.5361  -20.5454  -11.5924 C   0  0  0  0  0  0  0  0  0  0  0  0
   27.4429  -19.2762  -11.6461 O   0  0  0  0  0  0  0  0  0  0  0  0
   23.0048  -21.0650  -13.6619 C   0  0  0  0  0  0  0  0  0  0  0  0
   24.1223  -20.5545  -12.8254 C   0  0  0  0  0  0  0  0  0  0  0  0
   24.0274  -20.9091  -11.3698 C   0  0  2  0  0  0  0  0  0  0  0  0
   22.7903  -20.2460  -10.8099 C   0  0  0  0  0  0  0  0  0  0  0  0
   25.2473  -20.5040  -10.5790 C   0  0  2  0  0  0  0  0  0  0  0  0
   26.4227  -21.2461  -11.0250 N   0  0  0  0  0  0  0  0  0  0  0  0
   24.9809  -20.9077   -9.1698 C   0  0  0  0  0  0  0  0  0  0  0  0
   25.7037  -21.9670   -8.5836 O   0  0  0  0  0  0  0  0  0  0  0  0
   24.1363  -20.3651   -8.4339 O   0  0  0  0  0  0  0  0  0  0  0  0
  2  1  1  0
  2  3  2  0
  4  2  1  0
  5  4  1  0
  5  6  1  6
  7  5  1  0
  8  7  2  0
  9 10  1  0
 10 11  1  0
 11 12  1  0
 13 12  1  1
 13 14  1  0
 14  7  1  0
 15 13  1  0
 15 16  2  0
 18 19  1  0
 18 17  1  0
 19 21  1  0
 19 20  1  1
 21 22  1  6
 22 15  1  0
 23 21  1  0
 24 23  1  0
 25 23  2  0
M  END
$$$$
