NMI.pdb
     RDKit          3D

 25 24  0  0  1  0  0  0  0  0999 V2000
   18.6959  -12.7636  -19.8662 N   0  0  0  0  0  0  0  0  0  0  0  0
   18.3641  -11.3886  -19.6975 C   0  0  0  0  0  0  0  0  0  0  0  0
   17.6070  -10.8137  -20.5148 O   0  0  0  0  0  0  0  0  0  0  0  0
   18.9025  -10.6136  -18.5625 C   0  0  0  0  0  0  0  0  0  0  0  0
   19.9164  -11.3048  -17.7289 C   0  0  2  0  0  0  0  0  0  0  0  0
   19.2001  -12.3997  -17.0365 N   0  0  0  0  0  0  0  0  0  0  0  0
   20.6283  -10.5218  -16.7326 C   0  0  0  0  0  0  0  0  0  0  0  0
   19.9963  -10.1531  -15.6880 O   0  0  0  0  0  0  0  0  0  0  0  0
   27.0948  -10.2376  -15.1493 C   0  0  0  0  0  0  0  0  0  0  0  0
   26.1125  -11.7061  -15.6027 S   0  0  0  0  0  0  0  0  0  0  0  0
   24.3437  -11.2535  -15.3342 C   0  0  0  0  0  0  0  0  0  0  0  0
   24.1057   -9.8898  -15.8985 C   0  0  0  0  0  0  0  0  0  0  0  0
   22.6855   -9.4090  -15.8341 C   0  0  2  0  0  0  0  0  0  0  0  0
   21.9913  -10.1681  -16.8916 N   0  0  0  0  0  0  0  0  0  0  0  0
   22.4870   -7.9790  -16.0227 C   0  0  0  0  0  0  0  0  0  0  0  0
   22.7208   -7.4848  -17.1731 O   0  0  0  0  0  0  0  0  0  0  0  0
   18.2737   -5.6494  -16.7444 C   0  0  0  0  0  0  0  0  0  0  0  0
   19.7375   -5.8921  -16.6561 C   0  0  0  0  0  0  0  0  0  0  0  0
   20.3962   -5.3103  -15.4391 C   0  0  2  0  0  0  0  0  0  0  0  0
   20.2065   -3.8117  -15.4798 C   0  0  0  0  0  0  0  0  0  0  0  0
   21.8619   -5.6544  -15.3353 C   0  0  2  0  0  0  0  0  0  0  0  0
   22.0400   -7.0670  -15.0124 N   0  0  0  0  0  0  0  0  0  0  0  0
   22.3916   -4.8700  -14.1846 C   0  0  0  0  0  0  0  0  0  0  0  0
   22.5502   -5.4769  -12.9217 O   0  0  0  0  0  0  0  0  0  0  0  0
   22.7197   -3.6710  -14.2466 O   0  0  0  0  0  0  0  0  0  0  0  0
  2  1  1  0
  2  3  2  0
  4  2  1  0
  5  4  1  0
  5  6  1  1
  7  5  1  0
  8  7  2  0
  9 10  1  0
 10 11  1  0
 11 12  1  0
 13 12  1  6
 13 14  1  0
 14  7  1  0
 15 13  1  0
 15 16  2  0
 18 19  1  0
 18 17  1  0
 19 21  1  0
 19 20  1  6
 21 22  1  1
 22 15  1  0
 23 21  1  0
 24 23  1  0
 25 23  2  0
M  END
$$$$
