NMI.pdb
     RDKit          3D

 25 24  0  0  1  0  0  0  0  0999 V2000
   17.7772  -23.8016  -12.5596 N   0  0  0  0  0  0  0  0  0  0  0  0
   17.8430  -22.8217  -13.5914 C   0  0  0  0  0  0  0  0  0  0  0  0
   16.9658  -22.7824  -14.4861 O   0  0  0  0  0  0  0  0  0  0  0  0
   18.9409  -21.8359  -13.6303 C   0  0  0  0  0  0  0  0  0  0  0  0
   19.9426  -21.9383  -12.5408 C   0  0  2  0  0  0  0  0  0  0  0  0
   19.2488  -21.5112  -11.3049 N   0  0  0  0  0  0  0  0  0  0  0  0
   21.1684  -21.1676  -12.6672 C   0  0  0  0  0  0  0  0  0  0  0  0
   21.1057  -20.0164  -13.2126 O   0  0  0  0  0  0  0  0  0  0  0  0
   25.0174  -20.8088   -8.4804 C   0  0  0  0  0  0  0  0  0  0  0  0
   26.4935  -20.5883   -9.5289 S   0  0  0  0  0  0  0  0  0  0  0  0
   25.9135  -20.7043  -11.2770 C   0  0  0  0  0  0  0  0  0  0  0  0
   24.5603  -21.3395  -11.2930 C   0  0  0  0  0  0  0  0  0  0  0  0
   23.6356  -20.8495  -12.3687 C   0  0  2  0  0  0  0  0  0  0  0  0
   22.4132  -21.6579  -12.2002 N   0  0  0  0  0  0  0  0  0  0  0  0
   24.1309  -20.9574  -13.7336 C   0  0  0  0  0  0  0  0  0  0  0  0
   24.3262  -22.1210  -14.2135 O   0  0  0  0  0  0  0  0  0  0  0  0
   21.6952  -18.9923  -17.8400 C   0  0  0  0  0  0  0  0  0  0  0  0
   22.6074  -19.8305  -17.0186 C   0  0  0  0  0  0  0  0  0  0  0  0
   24.0234  -19.3362  -16.9539 C   0  0  2  0  0  0  0  0  0  0  0  0
   24.6137  -19.4348  -18.3414 C   0  0  0  0  0  0  0  0  0  0  0  0
   24.8726  -20.0949  -15.9637 C   0  0  2  0  0  0  0  0  0  0  0  0
   24.4171  -19.8515  -14.5982 N   0  0  0  0  0  0  0  0  0  0  0  0
   26.2464  -19.5293  -16.0764 C   0  0  0  0  0  0  0  0  0  0  0  0
   27.2530  -20.2355  -16.7665 O   0  0  0  0  0  0  0  0  0  0  0  0
   26.5961  -18.4379  -15.5907 O   0  0  0  0  0  0  0  0  0  0  0  0
  2  1  1  0
  2  3  2  0
  4  2  1  0
  5  4  1  0
  5  6  1  1
  7  5  1  0
  8  7  2  0
  9 10  1  0
 10 11  1  0
 11 12  1  0
 13 12  1  1
 13 14  1  0
 14  7  1  0
 15 13  1  0
 15 16  2  0
 18 19  1  0
 18 17  1  0
 19 21  1  0
 19 20  1  6
 21 22  1  1
 22 15  1  0
 23 21  1  0
 24 23  1  0
 25 23  2  0
M  END
$$$$
