NMI.pdb
     RDKit          3D

 25 24  0  0  1  0  0  0  0  0999 V2000
   20.7062  -15.0504  -21.3053 N   0  0  0  0  0  0  0  0  0  0  0  0
   19.6911  -14.1164  -20.9499 C   0  0  0  0  0  0  0  0  0  0  0  0
   18.7679  -13.8461  -21.7538 O   0  0  0  0  0  0  0  0  0  0  0  0
   19.7041  -13.4485  -19.6336 C   0  0  0  0  0  0  0  0  0  0  0  0
   20.8838  -13.7261  -18.7779 C   0  0  2  0  0  0  0  0  0  0  0  0
   20.6458  -15.0550  -18.1707 N   0  0  0  0  0  0  0  0  0  0  0  0
   21.1903  -12.7848  -17.7136 C   0  0  0  0  0  0  0  0  0  0  0  0
   20.4572  -12.7918  -16.6700 O   0  0  0  0  0  0  0  0  0  0  0  0
   27.2171  -10.1859  -16.8056 C   0  0  0  0  0  0  0  0  0  0  0  0
   26.4474  -10.6944  -15.2321 S   0  0  0  0  0  0  0  0  0  0  0  0
   24.6500  -10.3030  -15.3804 C   0  0  0  0  0  0  0  0  0  0  0  0
   24.0536  -11.1769  -16.4365 C   0  0  0  0  0  0  0  0  0  0  0  0
   22.5851  -10.9806  -16.6759 C   0  0  2  0  0  0  0  0  0  0  0  0
   22.2733  -11.8758  -17.8064 N   0  0  0  0  0  0  0  0  0  0  0  0
   22.1639   -9.6195  -16.9757 C   0  0  0  0  0  0  0  0  0  0  0  0
   22.5397   -9.1012  -18.0768 O   0  0  0  0  0  0  0  0  0  0  0  0
   17.5360   -7.9698  -18.0422 C   0  0  0  0  0  0  0  0  0  0  0  0
   19.0145   -8.0131  -17.8965 C   0  0  0  0  0  0  0  0  0  0  0  0
   19.5498   -7.2551  -16.7164 C   0  0  2  0  0  0  0  0  0  0  0  0
   19.2113   -5.7951  -16.9098 C   0  0  0  0  0  0  0  0  0  0  0  0
   21.0359   -7.4312  -16.5218 C   0  0  2  0  0  0  0  0  0  0  0  0
   21.3471   -8.8024  -16.1287 N   0  0  0  0  0  0  0  0  0  0  0  0
   21.4119   -6.5504  -15.3805 C   0  0  0  0  0  0  0  0  0  0  0  0
   21.7544   -5.2011  -15.6049 O   0  0  0  0  0  0  0  0  0  0  0  0
   21.4517   -6.9218  -14.1932 O   0  0  0  0  0  0  0  0  0  0  0  0
  2  1  1  0
  2  3  2  0
  4  2  1  0
  5  4  1  0
  5  6  1  1
  7  5  1  0
  8  7  2  0
  9 10  1  0
 10 11  1  0
 11 12  1  0
 13 12  1  6
 13 14  1  0
 14  7  1  0
 15 13  1  0
 15 16  2  0
 18 19  1  0
 18 17  1  0
 19 21  1  0
 19 20  1  6
 21 22  1  1
 22 15  1  0
 23 21  1  0
 24 23  1  0
 25 23  2  0
M  END
$$$$
