NMI.pdb
     RDKit          3D

 25 24  0  0  1  0  0  0  0  0999 V2000
   17.7682  -17.8162  -16.7294 N   0  0  0  0  0  0  0  0  0  0  0  0
   18.9770  -17.3538  -16.1344 C   0  0  0  0  0  0  0  0  0  0  0  0
   19.6117  -18.0840  -15.3372 O   0  0  0  0  0  0  0  0  0  0  0  0
   19.5062  -16.0104  -16.4411 C   0  0  0  0  0  0  0  0  0  0  0  0
   18.7150  -15.2069  -17.4051 C   0  0  2  0  0  0  0  0  0  0  0  0
   18.8887  -15.8599  -18.7222 N   0  0  0  0  0  0  0  0  0  0  0  0
   19.0406  -13.7975  -17.5465 C   0  0  0  0  0  0  0  0  0  0  0  0
   19.8847  -13.4582  -18.4403 O   0  0  0  0  0  0  0  0  0  0  0  0
   14.6146  -10.0331  -16.4241 C   0  0  0  0  0  0  0  0  0  0  0  0
   15.1263   -9.9658  -18.1735 S   0  0  0  0  0  0  0  0  0  0  0  0
   16.7334  -10.8666  -18.2817 C   0  0  0  0  0  0  0  0  0  0  0  0
   17.4768  -10.6788  -16.9984 C   0  0  0  0  0  0  0  0  0  0  0  0
   18.7983  -11.3851  -16.9146 C   0  0  2  0  0  0  0  0  0  0  0  0
   18.4457  -12.8054  -16.7280 N   0  0  0  0  0  0  0  0  0  0  0  0
   19.6928  -10.9412  -15.8551 C   0  0  0  0  0  0  0  0  0  0  0  0
   19.3643  -11.1830  -14.6484 O   0  0  0  0  0  0  0  0  0  0  0  0
   24.9135  -11.8111  -15.4767 C   0  0  0  0  0  0  0  0  0  0  0  0
   23.4694  -11.4995  -15.3129 C   0  0  0  0  0  0  0  0  0  0  0  0
   23.1643  -10.0475  -15.0844 C   0  0  2  0  0  0  0  0  0  0  0  0
   23.9391   -9.5958  -13.8682 C   0  0  0  0  0  0  0  0  0  0  0  0
   21.6916   -9.7712  -14.9048 C   0  0  2  0  0  0  0  0  0  0  0  0
   20.9314  -10.2498  -16.0556 N   0  0  0  0  0  0  0  0  0  0  0  0
   21.5492   -8.2885  -14.8694 C   0  0  0  0  0  0  0  0  0  0  0  0
   21.4982   -7.6071  -13.6359 O   0  0  0  0  0  0  0  0  0  0  0  0
   21.4670   -7.5688  -15.8816 O   0  0  0  0  0  0  0  0  0  0  0  0
  2  1  1  0
  2  3  2  0
  4  2  1  0
  5  4  1  0
  5  6  1  6
  7  5  1  0
  8  7  2  0
  9 10  1  0
 10 11  1  0
 11 12  1  0
 13 12  1  1
 13 14  1  0
 14  7  1  0
 15 13  1  0
 15 16  2  0
 18 19  1  0
 18 17  1  0
 19 21  1  0
 19 20  1  1
 21 22  1  6
 22 15  1  0
 23 21  1  0
 24 23  1  0
 25 23  2  0
M  END
$$$$
