NMI.pdb
     RDKit          3D

 25 24  0  0  1  0  0  0  0  0999 V2000
   20.9542  -17.0787  -17.6374 N   0  0  0  0  0  0  0  0  0  0  0  0
   20.7205  -15.7267  -18.0203 C   0  0  0  0  0  0  0  0  0  0  0  0
   20.1608  -15.4638  -19.1108 O   0  0  0  0  0  0  0  0  0  0  0  0
   21.1313  -14.6105  -17.1462 C   0  0  0  0  0  0  0  0  0  0  0  0
   20.9704  -13.2496  -17.7144 C   0  0  2  0  0  0  0  0  0  0  0  0
   22.0031  -13.1205  -18.7671 N   0  0  0  0  0  0  0  0  0  0  0  0
   21.0916  -12.1159  -16.8129 C   0  0  0  0  0  0  0  0  0  0  0  0
   20.2884  -12.0397  -15.8252 O   0  0  0  0  0  0  0  0  0  0  0  0
   26.6022  -10.6691  -16.2751 C   0  0  0  0  0  0  0  0  0  0  0  0
   25.9369  -10.6692  -14.5768 S   0  0  0  0  0  0  0  0  0  0  0  0
   24.1075  -10.8550  -14.7334 C   0  0  0  0  0  0  0  0  0  0  0  0
   23.6073   -9.8602  -15.7309 C   0  0  0  0  0  0  0  0  0  0  0  0
   22.1492   -9.9699  -16.0687 C   0  0  2  0  0  0  0  0  0  0  0  0
   22.0718  -11.1101  -17.0016 N   0  0  0  0  0  0  0  0  0  0  0  0
   21.5410   -8.7874  -16.6618 C   0  0  0  0  0  0  0  0  0  0  0  0
   21.7870   -8.5326  -17.8853 O   0  0  0  0  0  0  0  0  0  0  0  0
   16.6046   -7.4642  -17.4736 C   0  0  0  0  0  0  0  0  0  0  0  0
   18.0897   -7.5009  -17.5199 C   0  0  0  0  0  0  0  0  0  0  0  0
   18.7687   -6.4931  -16.6385 C   0  0  2  0  0  0  0  0  0  0  0  0
   18.3665   -5.1157  -17.1126 C   0  0  0  0  0  0  0  0  0  0  0  0
   20.2715   -6.6300  -16.6280 C   0  0  2  0  0  0  0  0  0  0  0  0
   20.6730   -7.8746  -15.9792 N   0  0  0  0  0  0  0  0  0  0  0  0
   20.7840   -5.5110  -15.7882 C   0  0  0  0  0  0  0  0  0  0  0  0
   21.0615   -5.7159  -14.4209 O   0  0  0  0  0  0  0  0  0  0  0  0
   20.9966   -4.3596  -16.2102 O   0  0  0  0  0  0  0  0  0  0  0  0
  2  1  1  0
  2  3  2  0
  4  2  1  0
  5  4  1  0
  5  6  1  6
  7  5  1  0
  8  7  2  0
  9 10  1  0
 10 11  1  0
 11 12  1  0
 13 12  1  6
 13 14  1  0
 14  7  1  0
 15 13  1  0
 15 16  2  0
 18 19  1  0
 18 17  1  0
 19 21  1  0
 19 20  1  6
 21 22  1  1
 22 15  1  0
 23 21  1  0
 24 23  1  0
 25 23  2  0
M  END
$$$$
