NMI.pdb
     RDKit          3D

 25 24  0  0  1  0  0  0  0  0999 V2000
   29.6855  -20.0147  -16.7636 N   0  0  0  0  0  0  0  0  0  0  0  0
   28.4291  -19.3441  -16.7345 C   0  0  0  0  0  0  0  0  0  0  0  0
   28.2512  -18.3002  -17.4056 O   0  0  0  0  0  0  0  0  0  0  0  0
   27.3142  -19.8603  -15.9165 C   0  0  0  0  0  0  0  0  0  0  0  0
   27.6365  -21.0064  -15.0313 C   0  0  2  0  0  0  0  0  0  0  0  0
   27.8754  -22.1608  -15.9265 N   0  0  0  0  0  0  0  0  0  0  0  0
   26.6526  -21.3958  -14.0348 C   0  0  0  0  0  0  0  0  0  0  0  0
   25.7059  -22.1726  -14.3906 O   0  0  0  0  0  0  0  0  0  0  0  0
   26.8044  -18.9441   -7.9334 C   0  0  0  0  0  0  0  0  0  0  0  0
   26.1310  -20.6223   -7.6951 S   0  0  0  0  0  0  0  0  0  0  0  0
   25.2472  -21.0561   -9.2560 C   0  0  0  0  0  0  0  0  0  0  0  0
   26.1778  -20.8512  -10.4078 C   0  0  0  0  0  0  0  0  0  0  0  0
   25.6403  -21.2646  -11.7467 C   0  0  2  0  0  0  0  0  0  0  0  0
   26.7238  -20.9416  -12.6944 N   0  0  0  0  0  0  0  0  0  0  0  0
   24.3983  -20.6270  -12.1600 C   0  0  0  0  0  0  0  0  0  0  0  0
   24.4316  -19.3954  -12.4831 O   0  0  0  0  0  0  0  0  0  0  0  0
   22.0788  -21.1668  -16.4495 C   0  0  0  0  0  0  0  0  0  0  0  0
   22.4898  -20.7076  -15.0970 C   0  0  0  0  0  0  0  0  0  0  0  0
   21.4770  -20.9556  -14.0170 C   0  0  2  0  0  0  0  0  0  0  0  0
   20.2061  -20.2318  -14.3970 C   0  0  0  0  0  0  0  0  0  0  0  0
   21.9459  -20.5175  -12.6511 C   0  0  2  0  0  0  0  0  0  0  0  0
   23.1237  -21.2762  -12.2406 N   0  0  0  0  0  0  0  0  0  0  0  0
   20.8481  -20.8636  -11.7051 C   0  0  0  0  0  0  0  0  0  0  0  0
   19.9614  -19.8671  -11.2477 O   0  0  0  0  0  0  0  0  0  0  0  0
   20.6389  -22.0087  -11.2644 O   0  0  0  0  0  0  0  0  0  0  0  0
  2  1  1  0
  2  3  2  0
  4  2  1  0
  5  4  1  0
  5  6  1  6
  7  5  1  0
  8  7  2  0
  9 10  1  0
 10 11  1  0
 11 12  1  0
 13 12  1  1
 13 14  1  0
 14  7  1  0
 15 13  1  0
 15 16  2  0
 18 19  1  0
 18 17  1  0
 19 21  1  0
 19 20  1  6
 21 22  1  1
 22 15  1  0
 23 21  1  0
 24 23  1  0
 25 23  2  0
M  END
$$$$
