NMI.pdb
     RDKit          3D

 25 24  0  0  1  0  0  0  0  0999 V2000
   29.6800  -19.4886  -16.4398 N   0  0  0  0  0  0  0  0  0  0  0  0
   28.3175  -19.1241  -16.6398 C   0  0  0  0  0  0  0  0  0  0  0  0
   28.0119  -18.2508  -17.4856 O   0  0  0  0  0  0  0  0  0  0  0  0
   27.2405  -19.7630  -15.8584 C   0  0  0  0  0  0  0  0  0  0  0  0
   27.6744  -20.7717  -14.8609 C   0  0  2  0  0  0  0  0  0  0  0  0
   28.1716  -21.9291  -15.6384 N   0  0  0  0  0  0  0  0  0  0  0  0
   26.6908  -21.2514  -13.9044 C   0  0  0  0  0  0  0  0  0  0  0  0
   25.8833  -22.1666  -14.2744 O   0  0  0  0  0  0  0  0  0  0  0  0
   25.7960  -20.2904   -7.3377 C   0  0  0  0  0  0  0  0  0  0  0  0
   27.4227  -20.6000   -8.1024 S   0  0  0  0  0  0  0  0  0  0  0  0
   27.0872  -21.3084   -9.7732 C   0  0  0  0  0  0  0  0  0  0  0  0
   25.8882  -20.6282  -10.3514 C   0  0  0  0  0  0  0  0  0  0  0  0
   25.4799  -21.1008  -11.7161 C   0  0  2  0  0  0  0  0  0  0  0  0
   26.6133  -20.7354  -12.5869 N   0  0  0  0  0  0  0  0  0  0  0  0
   24.2394  -20.5458  -12.2387 C   0  0  0  0  0  0  0  0  0  0  0  0
   24.2024  -19.3015  -12.5083 O   0  0  0  0  0  0  0  0  0  0  0  0
   22.4567  -21.0869  -16.7808 C   0  0  0  0  0  0  0  0  0  0  0  0
   22.6711  -20.6425  -15.3788 C   0  0  0  0  0  0  0  0  0  0  0  0
   21.5790  -21.0312  -14.4249 C   0  0  2  0  0  0  0  0  0  0  0  0
   20.2908  -20.4132  -14.9169 C   0  0  0  0  0  0  0  0  0  0  0  0
   21.8561  -20.6118  -13.0020 C   0  0  2  0  0  0  0  0  0  0  0  0
   23.0403  -21.2905  -12.4840 N   0  0  0  0  0  0  0  0  0  0  0  0
   20.6931  -21.0809  -12.1974 C   0  0  0  0  0  0  0  0  0  0  0  0
   20.7676  -22.2900  -11.4757 O   0  0  0  0  0  0  0  0  0  0  0  0
   19.6133  -20.4688  -12.1050 O   0  0  0  0  0  0  0  0  0  0  0  0
  2  1  1  0
  2  3  2  0
  4  2  1  0
  5  4  1  0
  5  6  1  6
  7  5  1  0
  8  7  2  0
  9 10  1  0
 10 11  1  0
 11 12  1  0
 13 12  1  1
 13 14  1  0
 14  7  1  0
 15 13  1  0
 15 16  2  0
 18 19  1  0
 18 17  1  0
 19 21  1  0
 19 20  1  6
 21 22  1  1
 22 15  1  0
 23 21  1  0
 24 23  1  0
 25 23  2  0
M  END
$$$$
