NMI.pdb
     RDKit          3D

 25 24  0  0  1  0  0  0  0  0999 V2000
   22.4600  -11.0666  -19.7736 N   0  0  0  0  0  0  0  0  0  0  0  0
   23.5396  -11.8459  -19.2672 C   0  0  0  0  0  0  0  0  0  0  0  0
   23.3211  -12.7986  -18.4824 O   0  0  0  0  0  0  0  0  0  0  0  0
   24.9333  -11.5494  -19.6528 C   0  0  0  0  0  0  0  0  0  0  0  0
   25.1328  -10.3312  -20.4756 C   0  0  2  0  0  0  0  0  0  0  0  0
   24.6126  -10.6569  -21.8226 N   0  0  0  0  0  0  0  0  0  0  0  0
   26.4856   -9.8194  -20.6188 C   0  0  0  0  0  0  0  0  0  0  0  0
   27.2124  -10.2850  -21.5577 O   0  0  0  0  0  0  0  0  0  0  0  0
   28.1564   -4.2981  -22.2827 C   0  0  0  0  0  0  0  0  0  0  0  0
   29.0209   -4.2925  -20.6767 S   0  0  0  0  0  0  0  0  0  0  0  0
   29.4525   -6.0490  -20.3106 C   0  0  0  0  0  0  0  0  0  0  0  0
   28.1890   -6.8381  -20.1856 C   0  0  0  0  0  0  0  0  0  0  0  0
   28.3732   -8.3101  -19.9581 C   0  0  2  0  0  0  0  0  0  0  0  0
   27.0060   -8.8252  -19.7535 N   0  0  0  0  0  0  0  0  0  0  0  0
   29.2275   -8.6805  -18.8388 C   0  0  0  0  0  0  0  0  0  0  0  0
   28.7692   -8.5399  -17.6587 O   0  0  0  0  0  0  0  0  0  0  0  0
   32.2155  -13.1730  -18.3831 C   0  0  0  0  0  0  0  0  0  0  0  0
   31.4000  -11.9530  -18.1475 C   0  0  0  0  0  0  0  0  0  0  0  0
   32.1969  -10.6991  -17.9323 C   0  0  2  0  0  0  0  0  0  0  0  0
   33.0805  -10.9117  -16.7251 C   0  0  0  0  0  0  0  0  0  0  0  0
   31.3366   -9.4730  -17.7476 C   0  0  2  0  0  0  0  0  0  0  0  0
   30.5571   -9.2019  -18.9519 N   0  0  0  0  0  0  0  0  0  0  0  0
   32.2760   -8.3309  -17.5655 C   0  0  0  0  0  0  0  0  0  0  0  0
   32.5529   -7.8353  -16.2748 O   0  0  0  0  0  0  0  0  0  0  0  0
   32.8624   -7.7513  -18.4980 O   0  0  0  0  0  0  0  0  0  0  0  0
  2  1  1  0
  2  3  2  0
  4  2  1  0
  5  4  1  0
  5  6  1  6
  7  5  1  0
  8  7  2  0
  9 10  1  0
 10 11  1  0
 11 12  1  0
 13 12  1  1
 13 14  1  0
 14  7  1  0
 15 13  1  0
 15 16  2  0
 18 19  1  0
 18 17  1  0
 19 21  1  0
 19 20  1  1
 21 22  1  6
 22 15  1  0
 23 21  1  0
 24 23  1  0
 25 23  2  0
M  END
$$$$
