NMI.pdb
     RDKit          3D

 25 24  0  0  1  0  0  0  0  0999 V2000
   28.8561  -19.0035  -15.9110 N   0  0  0  0  0  0  0  0  0  0  0  0
   27.4873  -18.6870  -15.6762 C   0  0  0  0  0  0  0  0  0  0  0  0
   26.9036  -17.8314  -16.3826 O   0  0  0  0  0  0  0  0  0  0  0  0
   26.7295  -19.3554  -14.6003 C   0  0  0  0  0  0  0  0  0  0  0  0
   27.4834  -20.3500  -13.7983 C   0  0  2  0  0  0  0  0  0  0  0  0
   27.7354  -21.4968  -14.6997 N   0  0  0  0  0  0  0  0  0  0  0  0
   26.8679  -20.8515  -12.5808 C   0  0  0  0  0  0  0  0  0  0  0  0
   26.1066  -21.8713  -12.6633 O   0  0  0  0  0  0  0  0  0  0  0  0
   28.5772  -20.4418   -5.9952 C   0  0  0  0  0  0  0  0  0  0  0  0
   27.2032  -19.3011   -6.3664 S   0  0  0  0  0  0  0  0  0  0  0  0
   26.1992  -20.1070   -7.6887 C   0  0  0  0  0  0  0  0  0  0  0  0
   26.8930  -19.9204   -8.9996 C   0  0  0  0  0  0  0  0  0  0  0  0
   26.2229  -20.5672  -10.1765 C   0  0  2  0  0  0  0  0  0  0  0  0
   27.0957  -20.2438  -11.3210 N   0  0  0  0  0  0  0  0  0  0  0  0
   24.8563  -20.1427  -10.4451 C   0  0  0  0  0  0  0  0  0  0  0  0
   24.6707  -18.9787  -10.9278 O   0  0  0  0  0  0  0  0  0  0  0  0
   20.8753  -20.7001  -14.2925 C   0  0  0  0  0  0  0  0  0  0  0  0
   20.9584  -20.5361  -12.8176 C   0  0  0  0  0  0  0  0  0  0  0  0
   22.3060  -20.8379  -12.2291 C   0  0  2  0  0  0  0  0  0  0  0  0
   22.5973  -22.3022  -12.4620 C   0  0  0  0  0  0  0  0  0  0  0  0
   22.3996  -20.5081  -10.7594 C   0  0  2  0  0  0  0  0  0  0  0  0
   23.6850  -20.9349  -10.2144 N   0  0  0  0  0  0  0  0  0  0  0  0
   21.3457  -21.3170  -10.0849 C   0  0  0  0  0  0  0  0  0  0  0  0
   21.7017  -22.3433   -9.1859 O   0  0  0  0  0  0  0  0  0  0  0  0
   20.1233  -21.1564  -10.2562 O   0  0  0  0  0  0  0  0  0  0  0  0
  2  1  1  0
  2  3  2  0
  4  2  1  0
  5  4  1  0
  5  6  1  6
  7  5  1  0
  8  7  2  0
  9 10  1  0
 10 11  1  0
 11 12  1  0
 13 12  1  1
 13 14  1  0
 14  7  1  0
 15 13  1  0
 15 16  2  0
 18 19  1  0
 18 17  1  0
 19 21  1  0
 19 20  1  1
 21 22  1  1
 22 15  1  0
 23 21  1  0
 24 23  1  0
 25 23  2  0
M  END
$$$$
