NMI.pdb
     RDKit          3D

 25 24  0  0  1  0  0  0  0  0999 V2000
   18.7180  -12.9813  -16.8904 N   0  0  0  0  0  0  0  0  0  0  0  0
   17.7730  -12.4400  -15.9721 C   0  0  0  0  0  0  0  0  0  0  0  0
   17.7271  -12.8553  -14.7902 O   0  0  0  0  0  0  0  0  0  0  0  0
   16.8306  -11.3837  -16.3902 C   0  0  0  0  0  0  0  0  0  0  0  0
   16.9893  -10.8864  -17.7789 C   0  0  2  0  0  0  0  0  0  0  0  0
   17.3162  -12.0714  -18.6035 N   0  0  0  0  0  0  0  0  0  0  0  0
   17.9935   -9.8652  -18.0266 C   0  0  0  0  0  0  0  0  0  0  0  0
   18.5538   -9.8328  -19.1718 O   0  0  0  0  0  0  0  0  0  0  0  0
   17.9871   -6.2047  -21.7442 C   0  0  0  0  0  0  0  0  0  0  0  0
   18.0539   -5.0853  -20.3057 S   0  0  0  0  0  0  0  0  0  0  0  0
   19.1753   -5.8827  -19.0760 C   0  0  0  0  0  0  0  0  0  0  0  0
   18.4970   -7.0942  -18.5221 C   0  0  0  0  0  0  0  0  0  0  0  0
   19.2185   -7.7729  -17.3947 C   0  0  2  0  0  0  0  0  0  0  0  0
   18.3552   -8.9152  -17.0393 N   0  0  0  0  0  0  0  0  0  0  0  0
   19.4831   -6.9528  -16.2212 C   0  0  0  0  0  0  0  0  0  0  0  0
   18.5269   -6.7392  -15.4073 O   0  0  0  0  0  0  0  0  0  0  0  0
   23.0607   -9.1582  -13.4888 C   0  0  0  0  0  0  0  0  0  0  0  0
   21.9198   -8.3141  -13.9304 C   0  0  0  0  0  0  0  0  0  0  0  0
   22.2210   -6.8456  -14.0086 C   0  0  2  0  0  0  0  0  0  0  0  0
   22.6404   -6.3835  -12.6323 C   0  0  0  0  0  0  0  0  0  0  0  0
   21.0564   -6.0262  -14.5084 C   0  0  2  0  0  0  0  0  0  0  0  0
   20.7462   -6.3605  -15.8953 N   0  0  0  0  0  0  0  0  0  0  0  0
   21.5092   -4.6069  -14.4889 C   0  0  0  0  0  0  0  0  0  0  0  0
   22.1248   -4.0399  -15.6237 O   0  0  0  0  0  0  0  0  0  0  0  0
   21.3850   -3.8459  -13.5117 O   0  0  0  0  0  0  0  0  0  0  0  0
  2  1  1  0
  2  3  2  0
  4  2  1  0
  5  4  1  0
  5  6  1  6
  7  5  1  0
  8  7  2  0
  9 10  1  0
 10 11  1  0
 11 12  1  0
 13 12  1  6
 13 14  1  0
 14  7  1  0
 15 13  1  0
 15 16  2  0
 18 19  1  0
 18 17  1  0
 19 21  1  0
 19 20  1  1
 21 22  1  6
 22 15  1  0
 23 21  1  0
 24 23  1  0
 25 23  2  0
M  END
$$$$
