NMI.pdb
     RDKit          3D

 25 24  0  0  1  0  0  0  0  0999 V2000
   16.4513   -7.9358  -19.3392 N   0  0  0  0  0  0  0  0  0  0  0  0
   15.9835   -9.1328  -18.7247 C   0  0  0  0  0  0  0  0  0  0  0  0
   15.0479   -9.7877  -19.2418 O   0  0  0  0  0  0  0  0  0  0  0  0
   16.5864   -9.6257  -17.4708 C   0  0  0  0  0  0  0  0  0  0  0  0
   17.6860   -8.8009  -16.9126 C   0  0  2  0  0  0  0  0  0  0  0  0
   18.9119   -9.2102  -17.6342 N   0  0  0  0  0  0  0  0  0  0  0  0
   17.9451   -8.8867  -15.4849 C   0  0  0  0  0  0  0  0  0  0  0  0
   18.0170  -10.0428  -14.9514 O   0  0  0  0  0  0  0  0  0  0  0  0
   23.0389   -8.2031  -14.1388 C   0  0  0  0  0  0  0  0  0  0  0  0
   22.5249   -9.0647  -12.6155 S   0  0  0  0  0  0  0  0  0  0  0  0
   20.8361   -8.4418  -12.2085 C   0  0  0  0  0  0  0  0  0  0  0  0
   20.0483   -8.3279  -13.4739 C   0  0  0  0  0  0  0  0  0  0  0  0
   18.6331   -7.8571  -13.3068 C   0  0  2  0  0  0  0  0  0  0  0  0
   18.1218   -7.7305  -14.6849 N   0  0  0  0  0  0  0  0  0  0  0  0
   18.4583   -6.6052  -12.5842 C   0  0  0  0  0  0  0  0  0  0  0  0
   18.6185   -5.5141  -13.2215 O   0  0  0  0  0  0  0  0  0  0  0  0
   14.3716   -3.2399  -11.2896 C   0  0  0  0  0  0  0  0  0  0  0  0
   15.6320   -3.6814  -10.6371 C   0  0  0  0  0  0  0  0  0  0  0  0
   16.2509   -4.9102  -11.2377 C   0  0  2  0  0  0  0  0  0  0  0  0
   15.3049   -6.0661  -11.0085 C   0  0  0  0  0  0  0  0  0  0  0  0
   17.6150   -5.2244  -10.6739 C   0  0  2  0  0  0  0  0  0  0  0  0
   18.1119   -6.4929  -11.1986 N   0  0  0  0  0  0  0  0  0  0  0  0
   17.4269   -5.3991   -9.2062 C   0  0  0  0  0  0  0  0  0  0  0  0
   17.6183   -6.6620   -8.6089 O   0  0  0  0  0  0  0  0  0  0  0  0
   17.0998   -4.4839   -8.4286 O   0  0  0  0  0  0  0  0  0  0  0  0
  2  1  1  0
  2  3  2  0
  4  2  1  0
  5  4  1  0
  5  6  1  6
  7  5  1  0
  8  7  2  0
  9 10  1  0
 10 11  1  0
 11 12  1  0
 13 12  1  6
 13 14  1  0
 14  7  1  0
 15 13  1  0
 15 16  2  0
 18 19  1  0
 18 17  1  0
 19 21  1  0
 19 20  1  1
 21 22  1  6
 22 15  1  0
 23 21  1  0
 24 23  1  0
 25 23  2  0
M  END
$$$$
