FFC.pdb
     RDKit          3D

 29 30  0  0  1  0  0  0  0  0999 V2000
    7.2358  -18.0156   21.3139 N   0  0  0  0  0  0  0  0  0  0  0  0
    7.7611  -16.7007   21.0085 C   0  0  1  0  0  0  0  0  0  0  0  0
    6.5771  -15.8163   20.6804 C   0  0  0  0  0  0  0  0  0  0  0  0
    7.0627  -14.4597   20.3820 C   0  0  0  0  0  0  0  0  0  0  0  0
    6.9858  -13.4383   21.3267 C   0  0  0  0  0  0  0  0  0  0  0  0
    7.4454  -12.1727   21.0309 C   0  0  0  0  0  0  0  0  0  0  0  0
    7.9904  -11.9022   19.7872 C   0  0  0  0  0  0  0  0  0  0  0  0
    8.0757  -12.9022   18.8358 C   0  0  0  0  0  0  0  0  0  0  0  0
    7.6023  -14.1764   19.1619 C   0  0  0  0  0  0  0  0  0  0  0  0
    8.5455  -16.2051   22.1405 C   0  0  0  0  0  0  0  0  0  0  0  0
    9.5815  -15.5335   21.9247 O   0  0  0  0  0  0  0  0  0  0  0  0
    8.2014  -16.4410   23.5054 N   0  0  0  0  0  0  0  0  0  0  0  0
    9.0309  -15.9786   24.6155 C   0  0  1  0  0  0  0  0  0  0  0  0
    8.1730  -15.3982   25.7186 C   0  0  0  0  0  0  0  0  0  0  0  0
    8.9546  -14.9009   26.8743 C   0  0  0  0  0  0  0  0  0  0  0  0
    9.3779  -15.7920   27.8619 C   0  0  0  0  0  0  0  0  0  0  0  0
   10.0984  -15.3029   28.9023 C   0  0  0  0  0  0  0  0  0  0  0  0
   10.4219  -13.9686   29.0137 C   0  0  0  0  0  0  0  0  0  0  0  0
   10.0085  -13.0787   28.0427 C   0  0  0  0  0  0  0  0  0  0  0  0
    9.2746  -13.5457   26.9728 C   0  0  0  0  0  0  0  0  0  0  0  0
    9.8540  -17.1231   25.0785 C   0  0  0  0  0  0  0  0  0  0  0  0
    9.3447  -18.1803   25.5368 O   0  0  0  0  0  0  0  0  0  0  0  0
   11.2780  -17.0696   25.0216 N   0  0  0  0  0  0  0  0  0  0  0  0
   12.0557  -18.2253   25.3777 C   0  0  1  0  0  0  0  0  0  0  0  0
   13.0750  -18.5891   24.3237 C   0  0  0  0  0  0  0  0  0  0  0  0
   12.1701  -18.8610   22.7722 S   0  0  0  0  0  0  0  0  0  0  0  0
   12.7568  -17.9575   26.6561 C   0  0  0  0  0  0  0  0  0  0  0  0
   12.6317  -16.8319   27.2219 O   0  0  0  0  0  0  0  0  0  0  0  0
   13.5477  -18.9026   27.2546 O   0  0  0  0  0  0  0  0  0  0  0  0
  2  1  1  1
  2 10  1  0
  3  2  1  0
  3  4  1  0
  4  9  1  0
  4  5  2  0
  5  6  1  0
  6  7  2  0
  8  7  1  0
  9  8  2  0
 10 11  2  0
 12 10  1  0
 12 13  1  0
 13 21  1  0
 13 14  1  1
 14 15  1  0
 15 16  2  0
 16 17  1  0
 18 17  2  0
 19 18  1  0
 20 15  1  0
 20 19  2  0
 21 22  2  0
 23 24  1  0
 23 21  1  0
 24 27  1  0
 24 25  1  6
 26 25  1  0
 27 28  2  0
 27 29  1  0
M  END
$$$$
