FFC.pdb
     RDKit          3D

 29 30  0  0  1  0  0  0  0  0999 V2000
   10.1707  -17.9000   20.4126 N   0  0  0  0  0  0  0  0  0  0  0  0
    9.6302  -16.6838   20.9844 C   0  0  1  0  0  0  0  0  0  0  0  0
    8.1854  -16.5908   20.5422 C   0  0  0  0  0  0  0  0  0  0  0  0
    7.8130  -15.1723   20.4228 C   0  0  0  0  0  0  0  0  0  0  0  0
    8.0206  -14.4655   19.2401 C   0  0  0  0  0  0  0  0  0  0  0  0
    7.6659  -13.1368   19.1450 C   0  0  0  0  0  0  0  0  0  0  0  0
    7.0973  -12.4881   20.2280 C   0  0  0  0  0  0  0  0  0  0  0  0
    6.8829  -13.1719   21.4108 C   0  0  0  0  0  0  0  0  0  0  0  0
    7.2519  -14.5184   21.4801 C   0  0  0  0  0  0  0  0  0  0  0  0
    9.7793  -16.7116   22.4402 C   0  0  0  0  0  0  0  0  0  0  0  0
   10.0408  -17.7958   23.0119 O   0  0  0  0  0  0  0  0  0  0  0  0
    9.6436  -15.5594   23.2716 N   0  0  0  0  0  0  0  0  0  0  0  0
    9.8956  -15.5951   24.7102 C   0  0  1  0  0  0  0  0  0  0  0  0
    9.7712  -14.2113   25.3096 C   0  0  0  0  0  0  0  0  0  0  0  0
    9.8692  -14.1973   26.7874 C   0  0  0  0  0  0  0  0  0  0  0  0
    8.8649  -13.5919   27.5446 C   0  0  0  0  0  0  0  0  0  0  0  0
    8.9834  -13.6044   28.8960 C   0  0  0  0  0  0  0  0  0  0  0  0
   10.0525  -14.1895   29.5380 C   0  0  0  0  0  0  0  0  0  0  0  0
   11.0514  -14.7911   28.7989 C   0  0  0  0  0  0  0  0  0  0  0  0
   10.9590  -14.7947   27.4231 C   0  0  0  0  0  0  0  0  0  0  0  0
    8.9488  -16.5639   25.3160 C   0  0  0  0  0  0  0  0  0  0  0  0
    7.6990  -16.4247   25.2409 O   0  0  0  0  0  0  0  0  0  0  0  0
    9.4254  -17.7097   26.0187 N   0  0  0  0  0  0  0  0  0  0  0  0
    8.4998  -18.5656   26.7100 C   0  0  1  0  0  0  0  0  0  0  0  0
    7.8562  -19.5843   25.7990 C   0  0  0  0  0  0  0  0  0  0  0  0
    9.1971  -20.4916   24.9751 S   0  0  0  0  0  0  0  0  0  0  0  0
    9.2190  -19.2740   27.7956 C   0  0  0  0  0  0  0  0  0  0  0  0
   10.4682  -19.1196   27.9319 O   0  0  0  0  0  0  0  0  0  0  0  0
    8.5664  -20.1030   28.6696 O   0  0  0  0  0  0  0  0  0  0  0  0
  2  1  1  6
  2 10  1  0
  3  2  1  0
  3  4  1  0
  4  9  1  0
  4  5  2  0
  5  6  1  0
  6  7  2  0
  8  7  1  0
  9  8  2  0
 10 11  2  0
 12 10  1  0
 12 13  1  0
 13 21  1  0
 13 14  1  1
 14 15  1  0
 15 16  2  0
 16 17  1  0
 18 17  2  0
 19 18  1  0
 20 15  1  0
 20 19  2  0
 21 22  2  0
 23 24  1  0
 23 21  1  0
 24 27  1  0
 24 25  1  6
 26 25  1  0
 27 28  2  0
 27 29  1  0
M  END
$$$$
