FFC.pdb
     RDKit          3D

 29 30  0  0  1  0  0  0  0  0999 V2000
    8.3149  -17.0669   20.9525 N   0  0  0  0  0  0  0  0  0  0  0  0
    9.6138  -16.5974   21.3892 C   0  0  1  0  0  0  0  0  0  0  0  0
    9.9818  -15.4260   20.5038 C   0  0  0  0  0  0  0  0  0  0  0  0
    8.9156  -14.4149   20.5819 C   0  0  0  0  0  0  0  0  0  0  0  0
    7.6000  -14.7700   20.8727 C   0  0  0  0  0  0  0  0  0  0  0  0
    6.6129  -13.8101   20.9422 C   0  0  0  0  0  0  0  0  0  0  0  0
    6.9197  -12.4780   20.7229 C   0  0  0  0  0  0  0  0  0  0  0  0
    8.2195  -12.1050   20.4329 C   0  0  0  0  0  0  0  0  0  0  0  0
    9.2008  -13.0983   20.3685 C   0  0  0  0  0  0  0  0  0  0  0  0
    9.5615  -16.2438   22.8086 C   0  0  0  0  0  0  0  0  0  0  0  0
   10.5573  -15.7050   23.3461 O   0  0  0  0  0  0  0  0  0  0  0  0
    8.4257  -16.4770   23.6409 N   0  0  0  0  0  0  0  0  0  0  0  0
    8.4878  -16.3862   25.0977 C   0  0  1  0  0  0  0  0  0  0  0  0
    7.1812  -15.8674   25.6573 C   0  0  0  0  0  0  0  0  0  0  0  0
    7.1819  -14.4063   25.9002 C   0  0  0  0  0  0  0  0  0  0  0  0
    8.1168  -13.8476   26.7734 C   0  0  0  0  0  0  0  0  0  0  0  0
    8.0934  -12.5049   26.9663 C   0  0  0  0  0  0  0  0  0  0  0  0
    7.1856  -11.6840   26.3343 C   0  0  0  0  0  0  0  0  0  0  0  0
    6.2567  -12.2259   25.4686 C   0  0  0  0  0  0  0  0  0  0  0  0
    6.2555  -13.5877   25.2519 C   0  0  0  0  0  0  0  0  0  0  0  0
    8.8386  -17.7282   25.6246 C   0  0  0  0  0  0  0  0  0  0  0  0
    8.4699  -18.7931   25.0614 O   0  0  0  0  0  0  0  0  0  0  0  0
    9.6202  -17.8667   26.8094 N   0  0  0  0  0  0  0  0  0  0  0  0
   10.7006  -18.8145   26.8513 C   0  0  1  0  0  0  0  0  0  0  0  0
   11.7782  -18.5149   25.8359 C   0  0  0  0  0  0  0  0  0  0  0  0
   13.0581  -19.7910   26.0183 S   0  0  0  0  0  0  0  0  0  0  0  0
   11.2980  -18.8026   28.2080 C   0  0  0  0  0  0  0  0  0  0  0  0
   11.6138  -19.8927   28.7692 O   0  0  0  0  0  0  0  0  0  0  0  0
   11.5230  -17.6329   28.8849 O   0  0  0  0  0  0  0  0  0  0  0  0
  2  1  1  6
  2 10  1  0
  3  2  1  0
  3  4  1  0
  4  9  1  0
  4  5  2  0
  5  6  1  0
  6  7  2  0
  8  7  1  0
  9  8  2  0
 10 11  2  0
 12 10  1  0
 12 13  1  0
 13 21  1  0
 13 14  1  1
 14 15  1  0
 15 16  2  0
 16 17  1  0
 18 17  2  0
 19 18  1  0
 20 15  1  0
 20 19  2  0
 21 22  2  0
 23 24  1  0
 23 21  1  0
 24 27  1  0
 24 25  1  6
 26 25  1  0
 27 28  2  0
 27 29  1  0
M  END
$$$$
