FFC.pdb
     RDKit          3D

 29 30  0  0  1  0  0  0  0  0999 V2000
    5.9086  -16.8827   20.3289 N   0  0  0  0  0  0  0  0  0  0  0  0
    7.2092  -17.0254   20.9505 C   0  0  1  0  0  0  0  0  0  0  0  0
    8.2401  -16.6219   19.9180 C   0  0  0  0  0  0  0  0  0  0  0  0
    8.1499  -15.1702   19.6952 C   0  0  0  0  0  0  0  0  0  0  0  0
    8.9739  -14.5257   18.7748 C   0  0  0  0  0  0  0  0  0  0  0  0
    8.8765  -13.1648   18.5782 C   0  0  0  0  0  0  0  0  0  0  0  0
    7.9552  -12.4211   19.2960 C   0  0  0  0  0  0  0  0  0  0  0  0
    7.1282  -13.0420   20.2142 C   0  0  0  0  0  0  0  0  0  0  0  0
    7.2479  -14.4230   20.3940 C   0  0  0  0  0  0  0  0  0  0  0  0
    7.2703  -16.2103   22.1648 C   0  0  0  0  0  0  0  0  0  0  0  0
    6.6808  -15.1047   22.1946 O   0  0  0  0  0  0  0  0  0  0  0  0
    7.9728  -16.5997   23.3446 N   0  0  0  0  0  0  0  0  0  0  0  0
    8.1685  -15.6964   24.4761 C   0  0  1  0  0  0  0  0  0  0  0  0
    6.9093  -15.6033   25.3100 C   0  0  0  0  0  0  0  0  0  0  0  0
    6.9617  -14.5416   26.3414 C   0  0  0  0  0  0  0  0  0  0  0  0
    7.5210  -14.8139   27.5911 C   0  0  0  0  0  0  0  0  0  0  0  0
    7.5593  -13.8156   28.5090 C   0  0  0  0  0  0  0  0  0  0  0  0
    7.0688  -12.5549   28.2494 C   0  0  0  0  0  0  0  0  0  0  0  0
    6.5136  -12.2746   27.0169 C   0  0  0  0  0  0  0  0  0  0  0  0
    6.4604  -13.2689   26.0630 C   0  0  0  0  0  0  0  0  0  0  0  0
    9.3316  -16.1867   25.2562 C   0  0  0  0  0  0  0  0  0  0  0  0
    9.8075  -17.3433   25.1056 O   0  0  0  0  0  0  0  0  0  0  0  0
    9.9666  -15.3528   26.2234 N   0  0  0  0  0  0  0  0  0  0  0  0
   11.1015  -15.8408   26.9591 C   0  0  1  0  0  0  0  0  0  0  0  0
   11.7028  -14.7926   27.8656 C   0  0  0  0  0  0  0  0  0  0  0  0
   11.0535  -13.1827   27.3304 S   0  0  0  0  0  0  0  0  0  0  0  0
   10.6804  -17.0032   27.7770 C   0  0  0  0  0  0  0  0  0  0  0  0
    9.4582  -17.3293   27.8300 O   0  0  0  0  0  0  0  0  0  0  0  0
   11.5842  -17.7477   28.4883 O   0  0  0  0  0  0  0  0  0  0  0  0
  2  1  1  6
  2 10  1  0
  3  2  1  0
  3  4  1  0
  4  9  1  0
  4  5  2  0
  5  6  1  0
  6  7  2  0
  8  7  1  0
  9  8  2  0
 10 11  2  0
 12 10  1  0
 12 13  1  0
 13 21  1  0
 13 14  1  1
 14 15  1  0
 15 16  2  0
 16 17  1  0
 18 17  2  0
 19 18  1  0
 20 15  1  0
 20 19  2  0
 21 22  2  0
 23 24  1  0
 23 21  1  0
 24 27  1  0
 24 25  1  1
 26 25  1  0
 27 28  2  0
 27 29  1  0
M  END
$$$$
