FFC.pdb
     RDKit          3D

 29 30  0  0  1  0  0  0  0  0999 V2000
    9.8888  -17.1391   19.4170 N   0  0  0  0  0  0  0  0  0  0  0  0
    8.8247  -17.4633   20.3447 C   0  0  1  0  0  0  0  0  0  0  0  0
    8.8779  -18.9586   20.5746 C   0  0  0  0  0  0  0  0  0  0  0  0
    7.8563  -19.3256   21.5679 C   0  0  0  0  0  0  0  0  0  0  0  0
    8.1849  -19.5186   22.9082 C   0  0  0  0  0  0  0  0  0  0  0  0
    7.2155  -19.8623   23.8261 C   0  0  0  0  0  0  0  0  0  0  0  0
    5.9000  -20.0199   23.4243 C   0  0  0  0  0  0  0  0  0  0  0  0
    5.5533  -19.8328   22.0986 C   0  0  0  0  0  0  0  0  0  0  0  0
    6.5558  -19.4848   21.1888 C   0  0  0  0  0  0  0  0  0  0  0  0
    8.9897  -16.6916   21.5775 C   0  0  0  0  0  0  0  0  0  0  0  0
   10.1257  -16.5994   22.0989 O   0  0  0  0  0  0  0  0  0  0  0  0
    7.9182  -16.0214   22.2409 N   0  0  0  0  0  0  0  0  0  0  0  0
    8.1274  -15.1757   23.4137 C   0  0  1  0  0  0  0  0  0  0  0  0
    7.0088  -14.1661   23.5514 C   0  0  0  0  0  0  0  0  0  0  0  0
    7.0553  -13.4031   24.8200 C   0  0  0  0  0  0  0  0  0  0  0  0
    6.2032  -13.7487   25.8703 C   0  0  0  0  0  0  0  0  0  0  0  0
    6.2783  -13.0331   27.0205 C   0  0  0  0  0  0  0  0  0  0  0  0
    7.1597  -11.9871   27.1829 C   0  0  0  0  0  0  0  0  0  0  0  0
    8.0070  -11.6369   26.1508 C   0  0  0  0  0  0  0  0  0  0  0  0
    7.9542  -12.3456   24.9692 C   0  0  0  0  0  0  0  0  0  0  0  0
    8.2438  -16.0599   24.5997 C   0  0  0  0  0  0  0  0  0  0  0  0
    7.3067  -16.8131   24.9759 O   0  0  0  0  0  0  0  0  0  0  0  0
    9.4418  -16.0916   25.3728 N   0  0  0  0  0  0  0  0  0  0  0  0
    9.5708  -17.0226   26.4609 C   0  0  1  0  0  0  0  0  0  0  0  0
    9.9484  -18.4103   25.9989 C   0  0  0  0  0  0  0  0  0  0  0  0
   10.2494  -19.4087   27.4864 S   0  0  0  0  0  0  0  0  0  0  0  0
   10.6070  -16.5263   27.3977 C   0  0  0  0  0  0  0  0  0  0  0  0
   11.3057  -15.5162   27.0901 O   0  0  0  0  0  0  0  0  0  0  0  0
   10.8370  -17.1340   28.6039 O   0  0  0  0  0  0  0  0  0  0  0  0
  2  1  1  6
  2 10  1  0
  3  2  1  0
  3  4  1  0
  4  9  1  0
  4  5  2  0
  5  6  1  0
  6  7  2  0
  8  7  1  0
  9  8  2  0
 10 11  2  0
 12 10  1  0
 12 13  1  0
 13 21  1  0
 13 14  1  1
 14 15  1  0
 15 16  2  0
 16 17  1  0
 18 17  2  0
 19 18  1  0
 20 15  1  0
 20 19  2  0
 21 22  2  0
 23 24  1  0
 23 21  1  0
 24 27  1  0
 24 25  1  6
 26 25  1  0
 27 28  2  0
 27 29  1  0
M  END
$$$$
