FFC.pdb
     RDKit          3D

 29 30  0  0  1  0  0  0  0  0999 V2000
    6.8485  -14.2875   21.8894 N   0  0  0  0  0  0  0  0  0  0  0  0
    8.1343  -14.9510   21.9584 C   0  0  1  0  0  0  0  0  0  0  0  0
    9.0865  -14.1630   21.0843 C   0  0  0  0  0  0  0  0  0  0  0  0
    8.4499  -13.9237   19.7795 C   0  0  0  0  0  0  0  0  0  0  0  0
    8.4818  -14.8841   18.7705 C   0  0  0  0  0  0  0  0  0  0  0  0
    7.8802  -14.6439   17.5536 C   0  0  0  0  0  0  0  0  0  0  0  0
    7.2355  -13.4410   17.3204 C   0  0  0  0  0  0  0  0  0  0  0  0
    7.1927  -12.4748   18.3089 C   0  0  0  0  0  0  0  0  0  0  0  0
    7.8107  -12.7443   19.5334 C   0  0  0  0  0  0  0  0  0  0  0  0
    8.5758  -15.0329   23.3515 C   0  0  0  0  0  0  0  0  0  0  0  0
    9.1286  -14.0408   23.8816 O   0  0  0  0  0  0  0  0  0  0  0  0
    8.4150  -16.1942   24.1656 N   0  0  0  0  0  0  0  0  0  0  0  0
    8.8060  -16.2269   25.5728 C   0  0  1  0  0  0  0  0  0  0  0  0
    7.6227  -15.9181   26.4640 C   0  0  0  0  0  0  0  0  0  0  0  0
    7.3263  -14.4708   26.5709 C   0  0  0  0  0  0  0  0  0  0  0  0
    6.1243  -13.9688   26.0690 C   0  0  0  0  0  0  0  0  0  0  0  0
    5.8825  -12.6395   26.1910 C   0  0  0  0  0  0  0  0  0  0  0  0
    6.7764  -11.7783   26.7883 C   0  0  0  0  0  0  0  0  0  0  0  0
    7.9681  -12.2641   27.2882 C   0  0  0  0  0  0  0  0  0  0  0  0
    8.2424  -13.6110   27.1792 C   0  0  0  0  0  0  0  0  0  0  0  0
    9.3952  -17.5597   25.8525 C   0  0  0  0  0  0  0  0  0  0  0  0
    8.6919  -18.5980   25.9728 O   0  0  0  0  0  0  0  0  0  0  0  0
   10.8049  -17.7195   25.9983 N   0  0  0  0  0  0  0  0  0  0  0  0
   11.3629  -19.0291   26.2002 C   0  0  1  0  0  0  0  0  0  0  0  0
   12.8201  -19.1081   25.8100 C   0  0  0  0  0  0  0  0  0  0  0  0
   13.3442  -17.4316   25.3469 S   0  0  0  0  0  0  0  0  0  0  0  0
   11.2249  -19.3952   27.6300 C   0  0  0  0  0  0  0  0  0  0  0  0
   10.6622  -18.5968   28.4355 O   0  0  0  0  0  0  0  0  0  0  0  0
   11.6934  -20.5874   28.1160 O   0  0  0  0  0  0  0  0  0  0  0  0
  2  1  1  1
  2 10  1  0
  3  2  1  0
  3  4  1  0
  4  9  1  0
  4  5  2  0
  5  6  1  0
  6  7  2  0
  8  7  1  0
  9  8  2  0
 10 11  2  0
 12 10  1  0
 12 13  1  0
 13 21  1  0
 13 14  1  1
 14 15  1  0
 15 16  2  0
 16 17  1  0
 18 17  2  0
 19 18  1  0
 20 15  1  0
 20 19  2  0
 21 22  2  0
 23 24  1  0
 23 21  1  0
 24 27  1  0
 24 25  1  1
 26 25  1  0
 27 28  2  0
 27 29  1  0
M  END
$$$$
