FFC.pdb
     RDKit          3D

 29 30  0  0  1  0  0  0  0  0999 V2000
    9.6972  -18.9654   20.8525 N   0  0  0  0  0  0  0  0  0  0  0  0
    9.6150  -18.8751   22.2959 C   0  0  1  0  0  0  0  0  0  0  0  0
   10.8809  -19.4924   22.8509 C   0  0  0  0  0  0  0  0  0  0  0  0
   10.8571  -20.9414   22.5959 C   0  0  0  0  0  0  0  0  0  0  0  0
    9.9236  -21.7709   23.2140 C   0  0  0  0  0  0  0  0  0  0  0  0
    9.9151  -23.1265   22.9640 C   0  0  0  0  0  0  0  0  0  0  0  0
   10.8376  -23.6803   22.0927 C   0  0  0  0  0  0  0  0  0  0  0  0
   11.7724  -22.8741   21.4691 C   0  0  0  0  0  0  0  0  0  0  0  0
   11.7588  -21.5029   21.7404 C   0  0  0  0  0  0  0  0  0  0  0  0
    9.4401  -17.4781   22.6959 C   0  0  0  0  0  0  0  0  0  0  0  0
   10.0463  -16.5776   22.0695 O   0  0  0  0  0  0  0  0  0  0  0  0
    8.6057  -17.0631   23.7771 N   0  0  0  0  0  0  0  0  0  0  0  0
    8.4738  -15.6635   24.1747 C   0  0  1  0  0  0  0  0  0  0  0  0
    7.1686  -15.4359   24.9057 C   0  0  0  0  0  0  0  0  0  0  0  0
    6.9627  -14.0294   25.3218 C   0  0  0  0  0  0  0  0  0  0  0  0
    7.5902  -12.9984   24.6204 C   0  0  0  0  0  0  0  0  0  0  0  0
    7.3731  -11.7216   25.0245 C   0  0  0  0  0  0  0  0  0  0  0  0
    6.5613  -11.4137   26.0939 C   0  0  0  0  0  0  0  0  0  0  0  0
    5.9357  -12.4255   26.7945 C   0  0  0  0  0  0  0  0  0  0  0  0
    6.1369  -13.7336   26.4076 C   0  0  0  0  0  0  0  0  0  0  0  0
    9.6558  -15.3094   24.9988 C   0  0  0  0  0  0  0  0  0  0  0  0
   10.7027  -14.8150   24.5021 O   0  0  0  0  0  0  0  0  0  0  0  0
    9.6523  -15.5186   26.4096 N   0  0  0  0  0  0  0  0  0  0  0  0
   10.8643  -15.3499   27.1645 C   0  0  1  0  0  0  0  0  0  0  0  0
   10.7398  -14.2951   28.2386 C   0  0  0  0  0  0  0  0  0  0  0  0
    9.0761  -13.5795   28.0989 S   0  0  0  0  0  0  0  0  0  0  0  0
   11.2212  -16.6429   27.7957 C   0  0  0  0  0  0  0  0  0  0  0  0
   10.4526  -17.6411   27.6701 O   0  0  0  0  0  0  0  0  0  0  0  0
   12.3730  -16.7955   28.5217 O   0  0  0  0  0  0  0  0  0  0  0  0
  2  1  1  6
  2 10  1  0
  3  2  1  0
  3  4  1  0
  4  9  1  0
  4  5  2  0
  5  6  1  0
  6  7  2  0
  8  7  1  0
  9  8  2  0
 10 11  2  0
 12 10  1  0
 12 13  1  0
 13 21  1  0
 13 14  1  1
 14 15  1  0
 15 16  2  0
 16 17  1  0
 18 17  2  0
 19 18  1  0
 20 15  1  0
 20 19  2  0
 21 22  2  0
 23 24  1  0
 23 21  1  0
 24 27  1  0
 24 25  1  1
 26 25  1  0
 27 28  2  0
 27 29  1  0
M  END
$$$$
