FFC.pdb
     RDKit          3D

 29 30  0  0  1  0  0  0  0  0999 V2000
   10.6429  -16.5208   21.5212 N   0  0  0  0  0  0  0  0  0  0  0  0
    9.5784  -15.7577   22.1399 C   0  0  1  0  0  0  0  0  0  0  0  0
    8.3074  -16.0754   21.3815 C   0  0  0  0  0  0  0  0  0  0  0  0
    7.8132  -14.8460   20.7415 C   0  0  0  0  0  0  0  0  0  0  0  0
    6.6542  -14.8471   19.9681 C   0  0  0  0  0  0  0  0  0  0  0  0
    6.2049  -13.6864   19.3754 C   0  0  0  0  0  0  0  0  0  0  0  0
    6.9034  -12.5027   19.5431 C   0  0  0  0  0  0  0  0  0  0  0  0
    8.0560  -12.4807   20.3070 C   0  0  0  0  0  0  0  0  0  0  0  0
    8.4893  -13.6717   20.8966 C   0  0  0  0  0  0  0  0  0  0  0  0
    9.4912  -16.0917   23.5623 C   0  0  0  0  0  0  0  0  0  0  0  0
   10.4902  -16.5764   24.1434 O   0  0  0  0  0  0  0  0  0  0  0  0
    8.3169  -15.8976   24.3501 N   0  0  0  0  0  0  0  0  0  0  0  0
    8.2788  -16.1746   25.7841 C   0  0  1  0  0  0  0  0  0  0  0  0
    7.0248  -15.6003   26.4065 C   0  0  0  0  0  0  0  0  0  0  0  0
    7.0596  -14.1266   26.5515 C   0  0  0  0  0  0  0  0  0  0  0  0
    6.0620  -13.3470   25.9636 C   0  0  0  0  0  0  0  0  0  0  0  0
    6.1210  -12.0010   26.1232 C   0  0  0  0  0  0  0  0  0  0  0  0
    7.1240  -11.3858   26.8395 C   0  0  0  0  0  0  0  0  0  0  0  0
    8.1155  -12.1473   27.4251 C   0  0  0  0  0  0  0  0  0  0  0  0
    8.0826  -13.5182   27.2807 C   0  0  0  0  0  0  0  0  0  0  0  0
    8.3833  -17.6432   25.9687 C   0  0  0  0  0  0  0  0  0  0  0  0
    7.5030  -18.4414   25.5504 O   0  0  0  0  0  0  0  0  0  0  0  0
    9.5039  -18.2176   26.6382 N   0  0  0  0  0  0  0  0  0  0  0  0
    9.5839  -19.6425   26.8133 C   0  0  1  0  0  0  0  0  0  0  0  0
   10.7346  -20.2593   26.0534 C   0  0  0  0  0  0  0  0  0  0  0  0
   12.2297  -19.3247   26.4905 S   0  0  0  0  0  0  0  0  0  0  0  0
    9.7423  -19.9413   28.2566 C   0  0  0  0  0  0  0  0  0  0  0  0
    9.9025  -18.9963   29.0838 O   0  0  0  0  0  0  0  0  0  0  0  0
    9.7207  -21.2260   28.7321 O   0  0  0  0  0  0  0  0  0  0  0  0
  2  1  1  6
  2 10  1  0
  3  2  1  0
  3  4  1  0
  4  9  1  0
  4  5  2  0
  5  6  1  0
  6  7  2  0
  8  7  1  0
  9  8  2  0
 10 11  2  0
 12 10  1  0
 12 13  1  0
 13 21  1  0
 13 14  1  6
 14 15  1  0
 15 16  2  0
 16 17  1  0
 18 17  2  0
 19 18  1  0
 20 15  1  0
 20 19  2  0
 21 22  2  0
 23 24  1  0
 23 21  1  0
 24 27  1  0
 24 25  1  6
 26 25  1  0
 27 28  2  0
 27 29  1  0
M  END
$$$$
