FFC.pdb
     RDKit          3D

 29 30  0  0  1  0  0  0  0  0999 V2000
    8.3525  -18.1064   21.2803 N   0  0  0  0  0  0  0  0  0  0  0  0
    8.5973  -16.7487   20.8384 C   0  0  1  0  0  0  0  0  0  0  0  0
    7.4570  -16.3706   19.9174 C   0  0  0  0  0  0  0  0  0  0  0  0
    7.5927  -14.9531   19.5466 C   0  0  0  0  0  0  0  0  0  0  0  0
    8.5203  -14.5390   18.5928 C   0  0  0  0  0  0  0  0  0  0  0  0
    8.6345  -13.2069   18.2570 C   0  0  0  0  0  0  0  0  0  0  0  0
    7.8257  -12.2628   18.8662 C   0  0  0  0  0  0  0  0  0  0  0  0
    6.8987  -12.6534   19.8153 C   0  0  0  0  0  0  0  0  0  0  0  0
    6.8036  -14.0103   20.1371 C   0  0  0  0  0  0  0  0  0  0  0  0
    8.7102  -15.8628   21.9981 C   0  0  0  0  0  0  0  0  0  0  0  0
    9.4263  -14.8370   21.9219 O   0  0  0  0  0  0  0  0  0  0  0  0
    8.0436  -16.0945   23.2387 N   0  0  0  0  0  0  0  0  0  0  0  0
    8.1829  -15.1985   24.3842 C   0  0  1  0  0  0  0  0  0  0  0  0
    6.8322  -14.6743   24.8205 C   0  0  0  0  0  0  0  0  0  0  0  0
    6.9107  -13.6789   25.9146 C   0  0  0  0  0  0  0  0  0  0  0  0
    6.3408  -12.4157   25.7468 C   0  0  0  0  0  0  0  0  0  0  0  0
    6.4249  -11.5318   26.7725 C   0  0  0  0  0  0  0  0  0  0  0  0
    7.0484  -11.8382   27.9620 C   0  0  0  0  0  0  0  0  0  0  0  0
    7.6153  -13.0845   28.1386 C   0  0  0  0  0  0  0  0  0  0  0  0
    7.5459  -14.0048   27.1141 C   0  0  0  0  0  0  0  0  0  0  0  0
    8.8797  -15.9414   25.4633 C   0  0  0  0  0  0  0  0  0  0  0  0
    9.2758  -15.3835   26.5210 O   0  0  0  0  0  0  0  0  0  0  0  0
    9.1321  -17.3398   25.3424 N   0  0  0  0  0  0  0  0  0  0  0  0
    9.7711  -18.0505   26.4166 C   0  0  1  0  0  0  0  0  0  0  0  0
    9.0084  -19.2863   26.8327 C   0  0  0  0  0  0  0  0  0  0  0  0
    7.3399  -18.7519   27.3125 S   0  0  0  0  0  0  0  0  0  0  0  0
   11.1342  -18.4452   25.9879 C   0  0  0  0  0  0  0  0  0  0  0  0
   11.5415  -18.1504   24.8259 O   0  0  0  0  0  0  0  0  0  0  0  0
   11.9806  -19.1290   26.8204 O   0  0  0  0  0  0  0  0  0  0  0  0
  2  1  1  1
  2 10  1  0
  3  2  1  0
  3  4  1  0
  4  9  1  0
  4  5  2  0
  5  6  1  0
  6  7  2  0
  8  7  1  0
  9  8  2  0
 10 11  2  0
 12 10  1  0
 12 13  1  0
 13 21  1  0
 13 14  1  1
 14 15  1  0
 15 16  2  0
 16 17  1  0
 18 17  2  0
 19 18  1  0
 20 15  1  0
 20 19  2  0
 21 22  2  0
 23 24  1  0
 23 21  1  0
 24 27  1  0
 24 25  1  6
 26 25  1  0
 27 28  2  0
 27 29  1  0
M  END
$$$$
