FFC.pdb
     RDKit          3D

 29 30  0  0  1  0  0  0  0  0999 V2000
    9.7995  -16.6874   19.5643 N   0  0  0  0  0  0  0  0  0  0  0  0
    9.0566  -17.0913   20.7405 C   0  0  1  0  0  0  0  0  0  0  0  0
    9.6253  -18.4209   21.1883 C   0  0  0  0  0  0  0  0  0  0  0  0
    9.0557  -19.4896   20.3527 C   0  0  0  0  0  0  0  0  0  0  0  0
    8.8266  -19.3009   18.9913 C   0  0  0  0  0  0  0  0  0  0  0  0
    8.2922  -20.3128   18.2226 C   0  0  0  0  0  0  0  0  0  0  0  0
    7.9763  -21.5321   18.7975 C   0  0  0  0  0  0  0  0  0  0  0  0
    8.1960  -21.7394   20.1471 C   0  0  0  0  0  0  0  0  0  0  0  0
    8.7389  -20.6966   20.9032 C   0  0  0  0  0  0  0  0  0  0  0  0
    9.1549  -16.0546   21.7691 C   0  0  0  0  0  0  0  0  0  0  0  0
   10.1434  -15.2841   21.7743 O   0  0  0  0  0  0  0  0  0  0  0  0
    8.1774  -15.8581   22.7903 N   0  0  0  0  0  0  0  0  0  0  0  0
    8.2652  -14.7711   23.7625 C   0  0  1  0  0  0  0  0  0  0  0  0
    6.8877  -14.2456   24.1031 C   0  0  0  0  0  0  0  0  0  0  0  0
    6.8918  -13.2412   25.1917 C   0  0  0  0  0  0  0  0  0  0  0  0
    7.3317  -11.9413   24.9360 C   0  0  0  0  0  0  0  0  0  0  0  0
    7.3146  -11.0454   25.9547 C   0  0  0  0  0  0  0  0  0  0  0  0
    6.8812  -11.3745   27.2201 C   0  0  0  0  0  0  0  0  0  0  0  0
    6.4439  -12.6570   27.4839 C   0  0  0  0  0  0  0  0  0  0  0  0
    6.4493  -13.5902   26.4688 C   0  0  0  0  0  0  0  0  0  0  0  0
    8.9894  -15.2805   24.9533 C   0  0  0  0  0  0  0  0  0  0  0  0
    9.2945  -14.5410   25.9265 O   0  0  0  0  0  0  0  0  0  0  0  0
    9.3746  -16.6507   25.0434 N   0  0  0  0  0  0  0  0  0  0  0  0
   10.1307  -17.1119   26.1761 C   0  0  1  0  0  0  0  0  0  0  0  0
    9.7981  -18.5350   26.5585 C   0  0  0  0  0  0  0  0  0  0  0  0
    9.8541  -19.5271   25.0378 S   0  0  0  0  0  0  0  0  0  0  0  0
   11.5758  -17.0220   25.8580 C   0  0  0  0  0  0  0  0  0  0  0  0
   12.4364  -17.3224   26.7367 O   0  0  0  0  0  0  0  0  0  0  0  0
   12.0176  -16.6183   24.6255 O   0  0  0  0  0  0  0  0  0  0  0  0
  2  1  1  6
  2 10  1  0
  3  2  1  0
  3  4  1  0
  4  9  1  0
  4  5  2  0
  5  6  1  0
  6  7  2  0
  8  7  1  0
  9  8  2  0
 10 11  2  0
 12 10  1  0
 12 13  1  0
 13 21  1  0
 13 14  1  1
 14 15  1  0
 15 16  2  0
 16 17  1  0
 18 17  2  0
 19 18  1  0
 20 15  1  0
 20 19  2  0
 21 22  2  0
 23 24  1  0
 23 21  1  0
 24 27  1  0
 24 25  1  6
 26 25  1  0
 27 28  2  0
 27 29  1  0
M  END
$$$$
