FFC.pdb
     RDKit          3D

 29 30  0  0  1  0  0  0  0  0999 V2000
    5.4469  -17.1369   24.4907 N   0  0  0  0  0  0  0  0  0  0  0  0
    6.4319  -16.0832   24.6240 C   0  0  1  0  0  0  0  0  0  0  0  0
    6.6891  -15.9025   26.1048 C   0  0  0  0  0  0  0  0  0  0  0  0
    6.7839  -14.4643   26.4009 C   0  0  0  0  0  0  0  0  0  0  0  0
    7.6211  -13.6267   25.6666 C   0  0  0  0  0  0  0  0  0  0  0  0
    7.6981  -12.2814   25.9571 C   0  0  0  0  0  0  0  0  0  0  0  0
    6.9414  -11.7461   26.9856 C   0  0  0  0  0  0  0  0  0  0  0  0
    6.1043  -12.5605   27.7262 C   0  0  0  0  0  0  0  0  0  0  0  0
    6.0453  -13.9209   27.4106 C   0  0  0  0  0  0  0  0  0  0  0  0
    7.6393  -16.4358   23.8754 C   0  0  0  0  0  0  0  0  0  0  0  0
    7.8943  -17.6422   23.6508 O   0  0  0  0  0  0  0  0  0  0  0  0
    8.5672  -15.4750   23.3724 N   0  0  0  0  0  0  0  0  0  0  0  0
    9.7045  -15.8461   22.5337 C   0  0  1  0  0  0  0  0  0  0  0  0
   10.0294  -14.7401   21.5534 C   0  0  0  0  0  0  0  0  0  0  0  0
    8.8486  -14.2465   20.8079 C   0  0  0  0  0  0  0  0  0  0  0  0
    8.5386  -12.8854   20.8197 C   0  0  0  0  0  0  0  0  0  0  0  0
    7.4543  -12.4675   20.1196 C   0  0  0  0  0  0  0  0  0  0  0  0
    6.6578  -13.3348   19.4049 C   0  0  0  0  0  0  0  0  0  0  0  0
    6.9552  -14.6828   19.3863 C   0  0  0  0  0  0  0  0  0  0  0  0
    8.0513  -15.1381   20.0883 C   0  0  0  0  0  0  0  0  0  0  0  0
   10.8452  -16.1670   23.4267 C   0  0  0  0  0  0  0  0  0  0  0  0
   11.4008  -15.2996   24.1520 O   0  0  0  0  0  0  0  0  0  0  0  0
   11.3658  -17.4928   23.4996 N   0  0  0  0  0  0  0  0  0  0  0  0
   12.5180  -17.7691   24.3141 C   0  0  1  0  0  0  0  0  0  0  0  0
   12.3159  -18.9563   25.2261 C   0  0  0  0  0  0  0  0  0  0  0  0
   10.9366  -18.5520   26.3369 S   0  0  0  0  0  0  0  0  0  0  0  0
   13.6795  -18.0302   23.4308 C   0  0  0  0  0  0  0  0  0  0  0  0
   13.5336  -18.0141   22.1733 O   0  0  0  0  0  0  0  0  0  0  0  0
   14.9248  -18.2924   23.9383 O   0  0  0  0  0  0  0  0  0  0  0  0
  2  1  1  1
  2 10  1  0
  3  2  1  0
  3  4  1  0
  4  9  1  0
  4  5  2  0
  5  6  1  0
  6  7  2  0
  8  7  1  0
  9  8  2  0
 10 11  2  0
 12 10  1  0
 12 13  1  0
 13 21  1  0
 13 14  1  6
 14 15  1  0
 15 16  2  0
 16 17  1  0
 18 17  2  0
 19 18  1  0
 20 15  1  0
 20 19  2  0
 21 22  2  0
 23 24  1  0
 23 21  1  0
 24 27  1  0
 24 25  1  6
 26 25  1  0
 27 28  2  0
 27 29  1  0
M  END
$$$$
