FFC.pdb
     RDKit          3D

 29 30  0  0  1  0  0  0  0  0999 V2000
    8.4728  -16.5086   22.1810 N   0  0  0  0  0  0  0  0  0  0  0  0
    9.1135  -15.2748   22.5880 C   0  0  1  0  0  0  0  0  0  0  0  0
    8.0536  -14.1944   22.5569 C   0  0  0  0  0  0  0  0  0  0  0  0
    7.7735  -13.8406   21.1563 C   0  0  0  0  0  0  0  0  0  0  0  0
    6.8644  -14.5697   20.3925 C   0  0  0  0  0  0  0  0  0  0  0  0
    6.6134  -14.2248   19.0817 C   0  0  0  0  0  0  0  0  0  0  0  0
    7.2646  -13.1460   18.5080 C   0  0  0  0  0  0  0  0  0  0  0  0
    8.1705  -12.4095   19.2492 C   0  0  0  0  0  0  0  0  0  0  0  0
    8.4063  -12.7809   20.5760 C   0  0  0  0  0  0  0  0  0  0  0  0
    9.7167  -15.4425   23.9110 C   0  0  0  0  0  0  0  0  0  0  0  0
   10.6241  -14.6596   24.2778 O   0  0  0  0  0  0  0  0  0  0  0  0
    9.3316  -16.4620   24.8328 N   0  0  0  0  0  0  0  0  0  0  0  0
    8.7729  -16.1605   26.1486 C   0  0  1  0  0  0  0  0  0  0  0  0
    7.3464  -15.6714   26.0246 C   0  0  0  0  0  0  0  0  0  0  0  0
    7.1876  -14.2310   26.3309 C   0  0  0  0  0  0  0  0  0  0  0  0
    5.9851  -13.5863   26.0358 C   0  0  0  0  0  0  0  0  0  0  0  0
    5.8722  -12.2683   26.3369 C   0  0  0  0  0  0  0  0  0  0  0  0
    6.8959  -11.5536   26.9187 C   0  0  0  0  0  0  0  0  0  0  0  0
    8.0893  -12.1812   27.2149 C   0  0  0  0  0  0  0  0  0  0  0  0
    8.2345  -13.5205   26.9207 C   0  0  0  0  0  0  0  0  0  0  0  0
    8.8841  -17.3825   26.9830 C   0  0  0  0  0  0  0  0  0  0  0  0
    8.4373  -17.4406   28.1595 O   0  0  0  0  0  0  0  0  0  0  0  0
    9.5118  -18.5587   26.4765 N   0  0  0  0  0  0  0  0  0  0  0  0
    9.5452  -19.7555   27.2727 C   0  0  1  0  0  0  0  0  0  0  0  0
    8.1655  -20.2790   27.5959 C   0  0  0  0  0  0  0  0  0  0  0  0
    7.3161  -20.5667   26.0162 S   0  0  0  0  0  0  0  0  0  0  0  0
   10.2989  -20.8000   26.5389 C   0  0  0  0  0  0  0  0  0  0  0  0
   10.5433  -21.9110   27.0945 O   0  0  0  0  0  0  0  0  0  0  0  0
   10.7465  -20.5994   25.2596 O   0  0  0  0  0  0  0  0  0  0  0  0
  2  1  1  1
  2 10  1  0
  3  2  1  0
  3  4  1  0
  4  9  1  0
  4  5  2  0
  5  6  1  0
  6  7  2  0
  8  7  1  0
  9  8  2  0
 10 11  2  0
 12 10  1  0
 12 13  1  0
 13 21  1  0
 13 14  1  6
 14 15  1  0
 15 16  2  0
 16 17  1  0
 18 17  2  0
 19 18  1  0
 20 15  1  0
 20 19  2  0
 21 22  2  0
 23 24  1  0
 23 21  1  0
 24 27  1  0
 24 25  1  6
 26 25  1  0
 27 28  2  0
 27 29  1  0
M  END
$$$$
