WCP.pdb
     RDKit          3D

 28 30  0  0  1  0  0  0  0  0999 V2000
    6.4119  -18.9992   26.4055 N   0  0  0  0  0  0  0  0  0  0  0  0
    7.2087  -17.7832   26.4297 C   0  0  1  0  0  0  0  0  0  0  0  0
    8.6590  -18.2283   26.5674 C   0  0  0  0  0  0  0  0  0  0  0  0
    9.3415  -17.5535   27.6855 C   0  0  0  0  0  0  0  0  0  0  0  0
    9.8853  -18.1983   28.7808 C   0  0  0  0  0  0  0  0  0  0  0  0
   10.4175  -17.2447   29.5833 N   0  0  0  0  0  0  0  0  0  0  0  0
   10.2108  -16.0349   29.0026 C   0  0  0  0  0  0  0  0  0  0  0  0
   10.5573  -14.7727   29.4150 C   0  0  0  0  0  0  0  0  0  0  0  0
   10.2344  -13.6799   28.6437 C   0  0  0  0  0  0  0  0  0  0  0  0
    9.5635  -13.8134   27.4502 C   0  0  0  0  0  0  0  0  0  0  0  0
    9.2242  -15.0797   27.0515 C   0  0  0  0  0  0  0  0  0  0  0  0
    9.5423  -16.1894   27.8177 C   0  0  0  0  0  0  0  0  0  0  0  0
    7.0291  -17.0222   25.1406 C   0  0  0  0  0  0  0  0  0  0  0  0
    6.5530  -17.5850   24.1237 O   0  0  0  0  0  0  0  0  0  0  0  0
    7.3925  -15.6602   25.0490 N   0  0  0  0  0  0  0  0  0  0  0  0
    7.2226  -14.9473   23.7633 C   0  0  1  0  0  0  0  0  0  0  0  0
    7.2148  -13.4681   24.0357 C   0  0  0  0  0  0  0  0  0  0  0  0
    7.4784  -12.4449   22.5904 S   0  0  0  0  0  0  0  0  0  0  0  0
    8.2066  -15.4130   22.7867 C   0  0  0  0  0  0  0  0  0  0  0  0
    9.2919  -15.8877   23.2984 O   0  0  0  0  0  0  0  0  0  0  0  0
    8.1203  -15.4117   21.3776 N   0  0  0  0  0  0  0  0  0  0  0  0
    6.9415  -14.7923   20.7224 C   0  0  0  0  0  0  0  0  0  0  0  0
    6.8553  -15.5046   19.3901 C   0  0  0  0  0  0  0  0  0  0  0  0
    8.2714  -15.7690   19.0085 C   0  0  0  0  0  0  0  0  0  0  0  0
    8.9849  -15.8972   20.3404 C   0  0  1  0  0  0  0  0  0  0  0  0
   10.2863  -15.1476   20.2860 C   0  0  0  0  0  0  0  0  0  0  0  0
   10.2744  -13.9210   20.5107 O   0  0  0  0  0  0  0  0  0  0  0  0
   11.4698  -15.7817   19.9982 O   0  0  0  0  0  0  0  0  0  0  0  0
  2  3  1  0
  2  1  1  6
  3  4  1  0
  4 12  1  0
  4  5  2  0
  5  6  1  0
  7  6  1  0
  7  8  2  0
  9  8  1  0
 10  9  2  0
 11 12  2  0
 11 10  1  0
 12  7  1  0
 13  2  1  0
 13 15  1  0
 14 13  2  0
 16 15  1  0
 16 17  1  1
 18 17  1  0
 19 16  1  0
 20 19  2  0
 21 19  1  0
 21 25  1  0
 22 21  1  0
 23 22  1  0
 23 24  1  0
 24 25  1  0
 25 26  1  6
 26 28  1  0
 27 26  2  0
M  END
$$$$
