WCP.pdb
     RDKit          3D

 28 30  0  0  1  0  0  0  0  0999 V2000
    5.6878  -18.2048   25.0003 N   0  0  0  0  0  0  0  0  0  0  0  0
    6.2799  -16.8936   24.7896 C   0  0  1  0  0  0  0  0  0  0  0  0
    7.3538  -16.7357   25.8584 C   0  0  0  0  0  0  0  0  0  0  0  0
    7.4031  -15.3645   26.3955 C   0  0  0  0  0  0  0  0  0  0  0  0
    6.3954  -14.4280   26.2583 C   0  0  0  0  0  0  0  0  0  0  0  0
    6.8115  -13.2982   26.8801 N   0  0  0  0  0  0  0  0  0  0  0  0
    8.0482  -13.5245   27.3928 C   0  0  0  0  0  0  0  0  0  0  0  0
    8.8868  -12.7034   28.1040 C   0  0  0  0  0  0  0  0  0  0  0  0
   10.1135  -13.1640   28.5244 C   0  0  0  0  0  0  0  0  0  0  0  0
   10.5346  -14.4447   28.2505 C   0  0  0  0  0  0  0  0  0  0  0  0
    9.6866  -15.2528   27.5395 C   0  0  0  0  0  0  0  0  0  0  0  0
    8.4487  -14.8028   27.1094 C   0  0  0  0  0  0  0  0  0  0  0  0
    6.9086  -16.8245   23.4209 C   0  0  0  0  0  0  0  0  0  0  0  0
    7.3433  -17.8614   22.8610 O   0  0  0  0  0  0  0  0  0  0  0  0
    7.0222  -15.5925   22.7393 N   0  0  0  0  0  0  0  0  0  0  0  0
    7.6765  -15.5533   21.4125 C   0  0  1  0  0  0  0  0  0  0  0  0
    7.4058  -14.2125   20.7869 C   0  0  0  0  0  0  0  0  0  0  0  0
    8.3874  -13.8596   19.3318 S   0  0  0  0  0  0  0  0  0  0  0  0
    9.0840  -15.9344   21.5252 C   0  0  0  0  0  0  0  0  0  0  0  0
    9.6983  -15.4353   22.5445 O   0  0  0  0  0  0  0  0  0  0  0  0
    9.8433  -16.7678   20.6757 N   0  0  0  0  0  0  0  0  0  0  0  0
    9.1570  -17.5315   19.6042 C   0  0  0  0  0  0  0  0  0  0  0  0
   10.0714  -18.7129   19.3630 C   0  0  0  0  0  0  0  0  0  0  0  0
   11.4459  -18.1798   19.5799 C   0  0  0  0  0  0  0  0  0  0  0  0
   11.2444  -17.0648   20.5877 C   0  0  1  0  0  0  0  0  0  0  0  0
   12.0561  -15.8676   20.1796 C   0  0  0  0  0  0  0  0  0  0  0  0
   13.2769  -15.8636   20.4343 O   0  0  0  0  0  0  0  0  0  0  0  0
   11.4843  -14.7953   19.5402 O   0  0  0  0  0  0  0  0  0  0  0  0
  2  3  1  0
  2  1  1  1
  3  4  1  0
  4 12  1  0
  4  5  2  0
  5  6  1  0
  7  6  1  0
  7  8  2  0
  9  8  1  0
 10  9  2  0
 11 12  2  0
 11 10  1  0
 12  7  1  0
 13  2  1  0
 13 15  1  0
 14 13  2  0
 16 15  1  0
 16 17  1  1
 18 17  1  0
 19 16  1  0
 20 19  2  0
 21 19  1  0
 21 25  1  0
 22 21  1  0
 23 22  1  0
 23 24  1  0
 24 25  1  0
 25 26  1  6
 26 28  1  0
 27 26  2  0
M  END
$$$$
