WCP.pdb
     RDKit          3D

 28 30  0  0  1  0  0  0  0  0999 V2000
    6.5856  -17.4516   23.6114 N   0  0  0  0  0  0  0  0  0  0  0  0
    7.7743  -16.6145   23.5903 C   0  0  1  0  0  0  0  0  0  0  0  0
    8.1314  -16.3469   25.0467 C   0  0  0  0  0  0  0  0  0  0  0  0
    7.2563  -15.3283   25.6532 C   0  0  0  0  0  0  0  0  0  0  0  0
    6.0649  -15.5978   26.3007 C   0  0  0  0  0  0  0  0  0  0  0  0
    5.5568  -14.4115   26.7144 N   0  0  0  0  0  0  0  0  0  0  0  0
    6.4104  -13.4264   26.3344 C   0  0  0  0  0  0  0  0  0  0  0  0
    6.3468  -12.0675   26.5147 C   0  0  0  0  0  0  0  0  0  0  0  0
    7.3491  -11.2578   26.0316 C   0  0  0  0  0  0  0  0  0  0  0  0
    8.4335  -11.7754   25.3618 C   0  0  0  0  0  0  0  0  0  0  0  0
    8.4832  -13.1339   25.1894 C   0  0  0  0  0  0  0  0  0  0  0  0
    7.4813  -13.9616   25.6699 C   0  0  0  0  0  0  0  0  0  0  0  0
    8.9073  -17.3431   22.9130 C   0  0  0  0  0  0  0  0  0  0  0  0
    9.0837  -18.5723   23.1012 O   0  0  0  0  0  0  0  0  0  0  0  0
    9.7945  -16.6589   22.0527 N   0  0  0  0  0  0  0  0  0  0  0  0
   10.8950  -17.4038   21.4015 C   0  0  1  0  0  0  0  0  0  0  0  0
   11.2366  -16.7158   20.1082 C   0  0  0  0  0  0  0  0  0  0  0  0
    9.8322  -16.3884   19.0471 S   0  0  0  0  0  0  0  0  0  0  0  0
   12.0037  -17.5978   22.3353 C   0  0  0  0  0  0  0  0  0  0  0  0
   12.1799  -16.6314   23.1721 O   0  0  0  0  0  0  0  0  0  0  0  0
   12.8900  -18.6918   22.4378 N   0  0  0  0  0  0  0  0  0  0  0  0
   12.6670  -19.8895   21.5902 C   0  0  0  0  0  0  0  0  0  0  0  0
   13.3203  -21.0089   22.3711 C   0  0  0  0  0  0  0  0  0  0  0  0
   14.4950  -20.3747   23.0335 C   0  0  0  0  0  0  0  0  0  0  0  0
   14.0648  -18.9334   23.2257 C   0  0  1  0  0  0  0  0  0  0  0  0
   15.1978  -18.0184   22.8547 C   0  0  0  0  0  0  0  0  0  0  0  0
   15.1475  -17.4260   21.7585 O   0  0  0  0  0  0  0  0  0  0  0  0
   16.2703  -17.8267   23.6905 O   0  0  0  0  0  0  0  0  0  0  0  0
  2  3  1  0
  2  1  1  1
  3  4  1  0
  4 12  1  0
  4  5  2  0
  5  6  1  0
  7  6  1  0
  7  8  2  0
  9  8  1  0
 10  9  2  0
 11 12  2  0
 11 10  1  0
 12  7  1  0
 13  2  1  0
 13 15  1  0
 14 13  2  0
 16 15  1  0
 16 17  1  6
 18 17  1  0
 19 16  1  0
 20 19  2  0
 21 19  1  0
 21 25  1  0
 22 21  1  0
 23 22  1  0
 23 24  1  0
 24 25  1  0
 25 26  1  6
 26 28  1  0
 27 26  2  0
M  END
$$$$
