WCP.pdb
     RDKit          3D

 28 30  0  0  1  0  0  0  0  0999 V2000
    6.3254  -18.4529   25.1151 N   0  0  0  0  0  0  0  0  0  0  0  0
    6.4586  -17.0478   24.7656 C   0  0  1  0  0  0  0  0  0  0  0  0
    7.3074  -16.4161   25.8615 C   0  0  0  0  0  0  0  0  0  0  0  0
    6.7283  -15.1528   26.3514 C   0  0  0  0  0  0  0  0  0  0  0  0
    5.3982  -14.9717   26.6818 C   0  0  0  0  0  0  0  0  0  0  0  0
    5.2572  -13.6856   27.0847 N   0  0  0  0  0  0  0  0  0  0  0  0
    6.4697  -13.0794   27.0078 C   0  0  0  0  0  0  0  0  0  0  0  0
    6.8485  -11.7938   27.3025 C   0  0  0  0  0  0  0  0  0  0  0  0
    8.1585  -11.4045   27.1422 C   0  0  0  0  0  0  0  0  0  0  0  0
    9.1192  -12.2781   26.6880 C   0  0  0  0  0  0  0  0  0  0  0  0
    8.7261  -13.5582   26.3977 C   0  0  0  0  0  0  0  0  0  0  0  0
    7.4107  -13.9645   26.5540 C   0  0  0  0  0  0  0  0  0  0  0  0
    7.1570  -16.9100   23.4365 C   0  0  0  0  0  0  0  0  0  0  0  0
    7.8996  -17.8257   23.0035 O   0  0  0  0  0  0  0  0  0  0  0  0
    6.9911  -15.7484   22.6501 N   0  0  0  0  0  0  0  0  0  0  0  0
    7.7628  -15.6032   21.3957 C   0  0  1  0  0  0  0  0  0  0  0  0
    7.4970  -14.2360   20.8279 C   0  0  0  0  0  0  0  0  0  0  0  0
    8.3157  -13.9062   19.2702 S   0  0  0  0  0  0  0  0  0  0  0  0
    9.1681  -15.9416   21.6181 C   0  0  0  0  0  0  0  0  0  0  0  0
    9.6826  -15.4348   22.6875 O   0  0  0  0  0  0  0  0  0  0  0  0
   10.0192  -16.7418   20.8256 N   0  0  0  0  0  0  0  0  0  0  0  0
    9.4545  -17.4753   19.6656 C   0  0  0  0  0  0  0  0  0  0  0  0
   10.4009  -18.6419   19.4828 C   0  0  0  0  0  0  0  0  0  0  0  0
   11.7403  -18.1065   19.8568 C   0  0  0  0  0  0  0  0  0  0  0  0
   11.4250  -17.0261   20.8730 C   0  0  1  0  0  0  0  0  0  0  0  0
   12.2619  -15.8107   20.5885 C   0  0  0  0  0  0  0  0  0  0  0  0
   11.7397  -14.8621   19.9699 O   0  0  0  0  0  0  0  0  0  0  0  0
   13.5717  -15.7289   20.9930 O   0  0  0  0  0  0  0  0  0  0  0  0
  2  3  1  0
  2  1  1  1
  3  4  1  0
  4 12  1  0
  4  5  2  0
  5  6  1  0
  7  6  1  0
  7  8  2  0
  9  8  1  0
 10  9  2  0
 11 12  2  0
 11 10  1  0
 12  7  1  0
 13  2  1  0
 13 15  1  0
 14 13  2  0
 16 15  1  0
 16 17  1  1
 18 17  1  0
 19 16  1  0
 20 19  2  0
 21 19  1  0
 21 25  1  0
 22 21  1  0
 23 22  1  0
 23 24  1  0
 24 25  1  0
 25 26  1  6
 26 28  1  0
 27 26  2  0
M  END
$$$$
