WCP.pdb
     RDKit          3D

 28 30  0  0  1  0  0  0  0  0999 V2000
    5.8867  -18.6165   24.9817 N   0  0  0  0  0  0  0  0  0  0  0  0
    6.2639  -17.2236   24.8038 C   0  0  1  0  0  0  0  0  0  0  0  0
    7.1196  -16.8578   26.0097 C   0  0  0  0  0  0  0  0  0  0  0  0
    6.9440  -15.4497   26.4067 C   0  0  0  0  0  0  0  0  0  0  0  0
    5.7376  -14.7746   26.4024 C   0  0  0  0  0  0  0  0  0  0  0  0
    5.9842  -13.5113   26.8264 N   0  0  0  0  0  0  0  0  0  0  0  0
    7.3118  -13.4013   27.0888 C   0  0  0  0  0  0  0  0  0  0  0  0
    8.0505  -12.3357   27.5384 C   0  0  0  0  0  0  0  0  0  0  0  0
    9.4064  -12.4666   27.7328 C   0  0  0  0  0  0  0  0  0  0  0  0
   10.0581  -13.6530   27.4872 C   0  0  0  0  0  0  0  0  0  0  0  0
    9.3075  -14.7080   27.0387 C   0  0  0  0  0  0  0  0  0  0  0  0
    7.9416  -14.5909   26.8380 C   0  0  0  0  0  0  0  0  0  0  0  0
    7.0697  -17.0640   23.5395 C   0  0  0  0  0  0  0  0  0  0  0  0
    7.7544  -18.0161   23.0900 O   0  0  0  0  0  0  0  0  0  0  0  0
    7.0718  -15.8403   22.8337 N   0  0  0  0  0  0  0  0  0  0  0  0
    7.8023  -15.7425   21.5504 C   0  0  1  0  0  0  0  0  0  0  0  0
    7.4769  -14.4180   20.9163 C   0  0  0  0  0  0  0  0  0  0  0  0
    8.4819  -14.0089   19.4922 S   0  0  0  0  0  0  0  0  0  0  0  0
    9.2235  -16.0252   21.7483 C   0  0  0  0  0  0  0  0  0  0  0  0
    9.7332  -15.5080   22.8151 O   0  0  0  0  0  0  0  0  0  0  0  0
   10.0943  -16.7823   20.9351 N   0  0  0  0  0  0  0  0  0  0  0  0
    9.5536  -17.4729   19.7379 C   0  0  0  0  0  0  0  0  0  0  0  0
   10.5158  -18.6204   19.5200 C   0  0  0  0  0  0  0  0  0  0  0  0
   11.8439  -18.0864   19.9344 C   0  0  0  0  0  0  0  0  0  0  0  0
   11.5025  -17.0529   20.9902 C   0  0  1  0  0  0  0  0  0  0  0  0
   12.3291  -15.8176   20.7681 C   0  0  0  0  0  0  0  0  0  0  0  0
   11.8223  -14.8703   20.1348 O   0  0  0  0  0  0  0  0  0  0  0  0
   13.6131  -15.7164   21.2444 O   0  0  0  0  0  0  0  0  0  0  0  0
  2  3  1  0
  2  1  1  1
  3  4  1  0
  4 12  1  0
  4  5  2  0
  5  6  1  0
  7  6  1  0
  7  8  2  0
  9  8  1  0
 10  9  2  0
 11 12  2  0
 11 10  1  0
 12  7  1  0
 13  2  1  0
 13 15  1  0
 14 13  2  0
 16 15  1  0
 16 17  1  1
 18 17  1  0
 19 16  1  0
 20 19  2  0
 21 19  1  0
 21 25  1  0
 22 21  1  0
 23 22  1  0
 23 24  1  0
 24 25  1  0
 25 26  1  6
 26 28  1  0
 27 26  2  0
M  END
$$$$
