WCP.pdb
     RDKit          3D

 28 30  0  0  1  0  0  0  0  0999 V2000
    6.2531  -17.7408   24.5350 N   0  0  0  0  0  0  0  0  0  0  0  0
    6.9854  -16.5686   24.0836 C   0  0  1  0  0  0  0  0  0  0  0  0
    7.6879  -16.0071   25.3130 C   0  0  0  0  0  0  0  0  0  0  0  0
    6.9030  -14.9415   25.9609 C   0  0  0  0  0  0  0  0  0  0  0  0
    5.6577  -15.1183   26.5345 C   0  0  0  0  0  0  0  0  0  0  0  0
    5.2656  -13.9149   27.0190 N   0  0  0  0  0  0  0  0  0  0  0  0
    6.2425  -13.0099   26.7542 C   0  0  0  0  0  0  0  0  0  0  0  0
    6.3227  -11.6698   27.0384 C   0  0  0  0  0  0  0  0  0  0  0  0
    7.4327  -10.9482   26.6634 C   0  0  0  0  0  0  0  0  0  0  0  0
    8.4847  -11.5371   26.0008 C   0  0  0  0  0  0  0  0  0  0  0  0
    8.3903  -12.8758   25.7239 C   0  0  0  0  0  0  0  0  0  0  0  0
    7.2788  -13.6151   26.0950 C   0  0  0  0  0  0  0  0  0  0  0  0
    8.0077  -16.9650   23.0487 C   0  0  0  0  0  0  0  0  0  0  0  0
    8.5836  -18.0795   23.1091 O   0  0  0  0  0  0  0  0  0  0  0  0
    8.3396  -16.0915   21.9893 N   0  0  0  0  0  0  0  0  0  0  0  0
    9.3300  -16.5202   20.9767 C   0  0  1  0  0  0  0  0  0  0  0  0
    9.2852  -15.5522   19.8264 C   0  0  0  0  0  0  0  0  0  0  0  0
    7.6593  -15.3190   19.1141 S   0  0  0  0  0  0  0  0  0  0  0  0
   10.6403  -16.7187   21.5953 C   0  0  0  0  0  0  0  0  0  0  0  0
   10.9468  -15.8515   22.5004 O   0  0  0  0  0  0  0  0  0  0  0  0
   11.5962  -17.7241   21.3342 N   0  0  0  0  0  0  0  0  0  0  0  0
   11.2488  -18.8356   20.4142 C   0  0  0  0  0  0  0  0  0  0  0  0
   12.1526  -19.9652   20.8581 C   0  0  0  0  0  0  0  0  0  0  0  0
   13.4103  -19.2960   21.2953 C   0  0  0  0  0  0  0  0  0  0  0  0
   12.9452  -17.9349   21.7756 C   0  0  1  0  0  0  0  0  0  0  0  0
   13.8832  -16.8765   21.2669 C   0  0  0  0  0  0  0  0  0  0  0  0
   14.9683  -16.7112   21.8587 O   0  0  0  0  0  0  0  0  0  0  0  0
   13.5696  -16.1013   20.1777 O   0  0  0  0  0  0  0  0  0  0  0  0
  2  3  1  0
  2  1  1  1
  3  4  1  0
  4 12  1  0
  4  5  2  0
  5  6  1  0
  7  6  1  0
  7  8  2  0
  9  8  1  0
 10  9  2  0
 11 12  2  0
 11 10  1  0
 12  7  1  0
 13  2  1  0
 13 15  1  0
 14 13  2  0
 16 15  1  0
 16 17  1  6
 18 17  1  0
 19 16  1  0
 20 19  2  0
 21 19  1  0
 21 25  1  0
 22 21  1  0
 23 22  1  0
 23 24  1  0
 24 25  1  0
 25 26  1  6
 26 28  1  0
 27 26  2  0
M  END
$$$$
