WCP.pdb
     RDKit          3D

 28 30  0  0  1  0  0  0  0  0999 V2000
    7.4340  -17.2487   25.7974 N   0  0  0  0  0  0  0  0  0  0  0  0
    7.4595  -16.2788   24.7144 C   0  0  1  0  0  0  0  0  0  0  0  0
    8.6625  -15.3818   24.9758 C   0  0  0  0  0  0  0  0  0  0  0  0
    8.4447  -14.4839   26.1237 C   0  0  0  0  0  0  0  0  0  0  0  0
    9.0133  -14.6502   27.3728 C   0  0  0  0  0  0  0  0  0  0  0  0
    8.5743  -13.6316   28.1513 N   0  0  0  0  0  0  0  0  0  0  0  0
    7.7522  -12.8492   27.4061 C   0  0  0  0  0  0  0  0  0  0  0  0
    7.0636  -11.7078   27.7324 C   0  0  0  0  0  0  0  0  0  0  0  0
    6.2800  -11.0798   26.7917 C   0  0  0  0  0  0  0  0  0  0  0  0
    6.1622  -11.5672   25.5107 C   0  0  0  0  0  0  0  0  0  0  0  0
    6.8554  -12.7074   25.1996 C   0  0  0  0  0  0  0  0  0  0  0  0
    7.6481  -13.3509   26.1364 C   0  0  0  0  0  0  0  0  0  0  0  0
    7.6272  -16.9847   23.3927 C   0  0  0  0  0  0  0  0  0  0  0  0
    8.2355  -18.0813   23.3232 O   0  0  0  0  0  0  0  0  0  0  0  0
    7.1040  -16.4277   22.2047 N   0  0  0  0  0  0  0  0  0  0  0  0
    7.2404  -17.1705   20.9320 C   0  0  1  0  0  0  0  0  0  0  0  0
    6.0417  -16.8709   20.0743 C   0  0  0  0  0  0  0  0  0  0  0  0
    4.4698  -17.2912   20.8211 S   0  0  0  0  0  0  0  0  0  0  0  0
    8.5442  -16.9075   20.3238 C   0  0  0  0  0  0  0  0  0  0  0  0
    9.0325  -15.7402   20.5774 O   0  0  0  0  0  0  0  0  0  0  0  0
    9.3254  -17.7557   19.5096 N   0  0  0  0  0  0  0  0  0  0  0  0
    8.9489  -19.1852   19.3780 C   0  0  0  0  0  0  0  0  0  0  0  0
   10.2525  -19.8693   19.0279 C   0  0  0  0  0  0  0  0  0  0  0  0
   10.9888  -18.8790   18.1925 C   0  0  0  0  0  0  0  0  0  0  0  0
   10.4893  -17.5396   18.6985 C   0  0  1  0  0  0  0  0  0  0  0  0
   10.2103  -16.6352   17.5311 C   0  0  0  0  0  0  0  0  0  0  0  0
    9.0378  -16.5476   17.1153 O   0  0  0  0  0  0  0  0  0  0  0  0
   11.2097  -15.9145   16.9250 O   0  0  0  0  0  0  0  0  0  0  0  0
  2  3  1  0
  2  1  1  1
  3  4  1  0
  4 12  1  0
  4  5  2  0
  5  6  1  0
  7  6  1  0
  7  8  2  0
  9  8  1  0
 10  9  2  0
 11 12  2  0
 11 10  1  0
 12  7  1  0
 13  2  1  0
 13 15  1  0
 14 13  2  0
 16 15  1  0
 16 17  1  6
 18 17  1  0
 19 16  1  0
 20 19  2  0
 21 19  1  0
 21 25  1  0
 22 21  1  0
 23 22  1  0
 23 24  1  0
 24 25  1  0
 25 26  1  6
 26 28  1  0
 27 26  2  0
M  END
$$$$
