WCP.pdb
     RDKit          3D

 28 30  0  0  1  0  0  0  0  0999 V2000
    6.5115  -18.7774   25.5389 N   0  0  0  0  0  0  0  0  0  0  0  0
    6.6801  -17.4461   24.9791 C   0  0  1  0  0  0  0  0  0  0  0  0
    7.4689  -16.6486   26.0097 C   0  0  0  0  0  0  0  0  0  0  0  0
    6.8501  -15.3411   26.2899 C   0  0  0  0  0  0  0  0  0  0  0  0
    5.4891  -15.1180   26.3858 C   0  0  0  0  0  0  0  0  0  0  0  0
    5.3170  -13.7998   26.6488 N   0  0  0  0  0  0  0  0  0  0  0  0
    6.5405  -13.2151   26.7155 C   0  0  0  0  0  0  0  0  0  0  0  0
    6.8986  -11.9123   26.9556 C   0  0  0  0  0  0  0  0  0  0  0  0
    8.2265  -11.5520   26.9745 C   0  0  0  0  0  0  0  0  0  0  0  0
    9.2258  -12.4721   26.7572 C   0  0  0  0  0  0  0  0  0  0  0  0
    8.8530  -13.7689   26.5188 C   0  0  0  0  0  0  0  0  0  0  0  0
    7.5200  -14.1464   26.4963 C   0  0  0  0  0  0  0  0  0  0  0  0
    7.4576  -17.5227   23.6895 C   0  0  0  0  0  0  0  0  0  0  0  0
    8.1978  -18.5071   23.4436 O   0  0  0  0  0  0  0  0  0  0  0  0
    7.3703  -16.4890   22.7308 N   0  0  0  0  0  0  0  0  0  0  0  0
    8.1433  -16.5964   21.4734 C   0  0  1  0  0  0  0  0  0  0  0  0
    7.7359  -15.4685   20.5655 C   0  0  0  0  0  0  0  0  0  0  0  0
    8.4982  -13.8943   20.9476 S   0  0  0  0  0  0  0  0  0  0  0  0
    9.5735  -16.7023   21.7601 C   0  0  0  0  0  0  0  0  0  0  0  0
    9.9634  -16.0562   22.8070 O   0  0  0  0  0  0  0  0  0  0  0  0
   10.5657  -17.4124   21.0501 N   0  0  0  0  0  0  0  0  0  0  0  0
   10.1648  -18.2872   19.9203 C   0  0  0  0  0  0  0  0  0  0  0  0
   11.2778  -19.3097   19.8451 C   0  0  0  0  0  0  0  0  0  0  0  0
   12.5076  -18.5615   20.2304 C   0  0  0  0  0  0  0  0  0  0  0  0
   11.9944  -17.4825   21.1642 C   0  0  1  0  0  0  0  0  0  0  0  0
   12.6574  -16.1753   20.8322 C   0  0  0  0  0  0  0  0  0  0  0  0
   12.0754  -15.3963   20.0515 O   0  0  0  0  0  0  0  0  0  0  0  0
   13.8743  -15.8301   21.3667 O   0  0  0  0  0  0  0  0  0  0  0  0
  2  3  1  0
  2  1  1  1
  3  4  1  0
  4 12  1  0
  4  5  2  0
  5  6  1  0
  7  6  1  0
  7  8  2  0
  9  8  1  0
 10  9  2  0
 11 12  2  0
 11 10  1  0
 12  7  1  0
 13  2  1  0
 13 15  1  0
 14 13  2  0
 16 15  1  0
 16 17  1  6
 18 17  1  0
 19 16  1  0
 20 19  2  0
 21 19  1  0
 21 25  1  0
 22 21  1  0
 23 22  1  0
 23 24  1  0
 24 25  1  0
 25 26  1  6
 26 28  1  0
 27 26  2  0
M  END
$$$$
