WCP.pdb
     RDKit          3D

 28 30  0  0  1  0  0  0  0  0999 V2000
    5.8986  -17.9651   23.9354 N   0  0  0  0  0  0  0  0  0  0  0  0
    6.3457  -16.5972   23.7275 C   0  0  1  0  0  0  0  0  0  0  0  0
    7.3985  -16.3275   24.7948 C   0  0  0  0  0  0  0  0  0  0  0  0
    6.9485  -15.3240   25.7754 C   0  0  0  0  0  0  0  0  0  0  0  0
    6.0700  -15.5750   26.8129 C   0  0  0  0  0  0  0  0  0  0  0  0
    5.9033  -14.4112   27.4869 N   0  0  0  0  0  0  0  0  0  0  0  0
    6.6595  -13.4578   26.8847 C   0  0  0  0  0  0  0  0  0  0  0  0
    6.8323  -12.1299   27.1849 C   0  0  0  0  0  0  0  0  0  0  0  0
    7.6647  -11.3494   26.4158 C   0  0  0  0  0  0  0  0  0  0  0  0
    8.3424  -11.8660   25.3360 C   0  0  0  0  0  0  0  0  0  0  0  0
    8.1599  -13.1933   25.0485 C   0  0  0  0  0  0  0  0  0  0  0  0
    7.3248  -13.9915   25.8135 C   0  0  0  0  0  0  0  0  0  0  0  0
    6.9604  -16.4571   22.3580 C   0  0  0  0  0  0  0  0  0  0  0  0
    7.4503  -17.4525   21.7693 O   0  0  0  0  0  0  0  0  0  0  0  0
    6.9985  -15.2035   21.7079 N   0  0  0  0  0  0  0  0  0  0  0  0
    7.6519  -15.0902   20.3849 C   0  0  1  0  0  0  0  0  0  0  0  0
    7.5254  -13.6683   19.9110 C   0  0  0  0  0  0  0  0  0  0  0  0
    8.4076  -13.3090   18.3950 S   0  0  0  0  0  0  0  0  0  0  0  0
    9.0106  -15.6285   20.4381 C   0  0  0  0  0  0  0  0  0  0  0  0
    9.6881  -15.2818   21.4802 O   0  0  0  0  0  0  0  0  0  0  0  0
    9.6641  -16.4682   19.5103 N   0  0  0  0  0  0  0  0  0  0  0  0
    8.8791  -17.0909   18.4155 C   0  0  0  0  0  0  0  0  0  0  0  0
    9.6714  -18.3320   18.0663 C   0  0  0  0  0  0  0  0  0  0  0  0
   11.0955  -17.9433   18.2701 C   0  0  0  0  0  0  0  0  0  0  0  0
   11.0281  -16.8859   19.3549 C   0  0  1  0  0  0  0  0  0  0  0  0
   11.9368  -15.7432   18.9981 C   0  0  0  0  0  0  0  0  0  0  0  0
   13.0803  -15.7170   19.4948 O   0  0  0  0  0  0  0  0  0  0  0  0
   11.5346  -14.7436   18.1468 O   0  0  0  0  0  0  0  0  0  0  0  0
  2  3  1  0
  2  1  1  1
  3  4  1  0
  4 12  1  0
  4  5  2  0
  5  6  1  0
  7  6  1  0
  7  8  2  0
  9  8  1  0
 10  9  2  0
 11 12  2  0
 11 10  1  0
 12  7  1  0
 13  2  1  0
 13 15  1  0
 14 13  2  0
 16 15  1  0
 16 17  1  1
 18 17  1  0
 19 16  1  0
 20 19  2  0
 21 19  1  0
 21 25  1  0
 22 21  1  0
 23 22  1  0
 23 24  1  0
 24 25  1  0
 25 26  1  6
 26 28  1  0
 27 26  2  0
M  END
$$$$
