WCP.pdb
     RDKit          3D

 28 30  0  0  1  0  0  0  0  0999 V2000
    6.5517  -19.1736   26.6516 N   0  0  0  0  0  0  0  0  0  0  0  0
    7.3140  -17.9440   26.7969 C   0  0  1  0  0  0  0  0  0  0  0  0
    8.7818  -18.3511   26.7931 C   0  0  0  0  0  0  0  0  0  0  0  0
    9.5712  -17.5862   27.7743 C   0  0  0  0  0  0  0  0  0  0  0  0
   10.1268  -18.1165   28.9238 C   0  0  0  0  0  0  0  0  0  0  0  0
   10.7692  -17.1073   29.5605 N   0  0  0  0  0  0  0  0  0  0  0  0
   10.6181  -15.9754   28.8261 C   0  0  0  0  0  0  0  0  0  0  0  0
   11.0761  -14.6999   29.0421 C   0  0  0  0  0  0  0  0  0  0  0  0
   10.7904  -13.7003   28.1407 C   0  0  0  0  0  0  0  0  0  0  0  0
   10.0472  -13.9419   27.0086 C   0  0  0  0  0  0  0  0  0  0  0  0
    9.5967  -15.2201   26.8064 C   0  0  0  0  0  0  0  0  0  0  0  0
    9.8762  -16.2367   27.7054 C   0  0  0  0  0  0  0  0  0  0  0  0
    7.0370  -17.0240   25.6349 C   0  0  0  0  0  0  0  0  0  0  0  0
    6.6837  -17.4849   24.5212 O   0  0  0  0  0  0  0  0  0  0  0  0
    7.1688  -15.6245   25.7740 N   0  0  0  0  0  0  0  0  0  0  0  0
    6.9804  -14.7554   24.5911 C   0  0  1  0  0  0  0  0  0  0  0  0
    6.8933  -13.3280   25.0572 C   0  0  0  0  0  0  0  0  0  0  0  0
    5.6879  -13.0403   26.3493 S   0  0  0  0  0  0  0  0  0  0  0  0
    8.0002  -15.0378   23.5816 C   0  0  0  0  0  0  0  0  0  0  0  0
    8.9936  -15.7465   24.0015 O   0  0  0  0  0  0  0  0  0  0  0  0
    8.0343  -14.6423   22.2269 N   0  0  0  0  0  0  0  0  0  0  0  0
    6.9519  -13.7774   21.6951 C   0  0  0  0  0  0  0  0  0  0  0  0
    6.9398  -14.0869   20.2139 C   0  0  0  0  0  0  0  0  0  0  0  0
    8.3662  -14.3446   19.8680 C   0  0  0  0  0  0  0  0  0  0  0  0
    8.9556  -14.8890   21.1547 C   0  0  1  0  0  0  0  0  0  0  0  0
   10.2967  -14.2562   21.3989 C   0  0  0  0  0  0  0  0  0  0  0  0
   10.3813  -13.3589   22.2607 O   0  0  0  0  0  0  0  0  0  0  0  0
   11.4130  -14.6446   20.6997 O   0  0  0  0  0  0  0  0  0  0  0  0
  2  3  1  0
  2  1  1  6
  3  4  1  0
  4 12  1  0
  4  5  2  0
  5  6  1  0
  7  6  1  0
  7  8  2  0
  9  8  1  0
 10  9  2  0
 11 12  2  0
 11 10  1  0
 12  7  1  0
 13  2  1  0
 13 15  1  0
 14 13  2  0
 16 15  1  0
 16 17  1  1
 18 17  1  0
 19 16  1  0
 20 19  2  0
 21 19  1  0
 21 25  1  0
 22 21  1  0
 23 22  1  0
 23 24  1  0
 24 25  1  0
 25 26  1  1
 26 28  1  0
 27 26  2  0
M  END
$$$$
