WCP.pdb
     RDKit          3D

 28 30  0  0  1  0  0  0  0  0999 V2000
    6.5728  -17.3297   23.5651 N   0  0  0  0  0  0  0  0  0  0  0  0
    7.7562  -16.4850   23.5701 C   0  0  1  0  0  0  0  0  0  0  0  0
    8.0421  -16.1628   25.0312 C   0  0  0  0  0  0  0  0  0  0  0  0
    7.0950  -15.1741   25.5758 C   0  0  0  0  0  0  0  0  0  0  0  0
    5.8433  -15.4762   26.0790 C   0  0  0  0  0  0  0  0  0  0  0  0
    5.2802  -14.3100   26.4783 N   0  0  0  0  0  0  0  0  0  0  0  0
    6.1591  -13.3053   26.2303 C   0  0  0  0  0  0  0  0  0  0  0  0
    6.0612  -11.9547   26.4526 C   0  0  0  0  0  0  0  0  0  0  0  0
    7.1011  -11.1203   26.1121 C   0  0  0  0  0  0  0  0  0  0  0  0
    8.2575  -11.6046   25.5459 C   0  0  0  0  0  0  0  0  0  0  0  0
    8.3407  -12.9552   25.3299 C   0  0  0  0  0  0  0  0  0  0  0  0
    7.3017  -13.8075   25.6674 C   0  0  0  0  0  0  0  0  0  0  0  0
    8.9244  -17.2287   22.9738 C   0  0  0  0  0  0  0  0  0  0  0  0
    9.0034  -18.4789   23.0647 O   0  0  0  0  0  0  0  0  0  0  0  0
    9.9547  -16.5354   22.3006 N   0  0  0  0  0  0  0  0  0  0  0  0
   11.1281  -17.2850   21.7991 C   0  0  1  0  0  0  0  0  0  0  0  0
   11.8378  -16.4344   20.7817 C   0  0  0  0  0  0  0  0  0  0  0  0
   10.8212  -15.9268   19.3981 S   0  0  0  0  0  0  0  0  0  0  0  0
   11.9441  -17.7631   22.9146 C   0  0  0  0  0  0  0  0  0  0  0  0
   12.0207  -16.9508   23.9144 O   0  0  0  0  0  0  0  0  0  0  0  0
   12.6454  -18.9823   23.0360 N   0  0  0  0  0  0  0  0  0  0  0  0
   12.4656  -20.0300   22.0004 C   0  0  0  0  0  0  0  0  0  0  0  0
   12.7910  -21.3154   22.7297 C   0  0  0  0  0  0  0  0  0  0  0  0
   13.8630  -20.9432   23.6956 C   0  0  0  0  0  0  0  0  0  0  0  0
   13.5823  -19.4844   23.9999 C   0  0  1  0  0  0  0  0  0  0  0  0
   14.8727  -18.7141   23.9952 C   0  0  0  0  0  0  0  0  0  0  0  0
   15.1337  -17.9997   23.0070 O   0  0  0  0  0  0  0  0  0  0  0  0
   15.7548  -18.7827   25.0453 O   0  0  0  0  0  0  0  0  0  0  0  0
  2  3  1  0
  2  1  1  1
  3  4  1  0
  4 12  1  0
  4  5  2  0
  5  6  1  0
  7  6  1  0
  7  8  2  0
  9  8  1  0
 10  9  2  0
 11 12  2  0
 11 10  1  0
 12  7  1  0
 13  2  1  0
 13 15  1  0
 14 13  2  0
 16 15  1  0
 16 17  1  6
 18 17  1  0
 19 16  1  0
 20 19  2  0
 21 19  1  0
 21 25  1  0
 22 21  1  0
 23 22  1  0
 23 24  1  0
 24 25  1  0
 25 26  1  6
 26 28  1  0
 27 26  2  0
M  END
$$$$
