WCP.pdb
     RDKit          3D

 28 30  0  0  1  0  0  0  0  0999 V2000
    6.1410  -18.2671   24.6636 N   0  0  0  0  0  0  0  0  0  0  0  0
    6.8036  -17.0503   24.2225 C   0  0  1  0  0  0  0  0  0  0  0  0
    7.6153  -16.5534   25.4119 C   0  0  0  0  0  0  0  0  0  0  0  0
    6.9978  -15.3785   26.0517 C   0  0  0  0  0  0  0  0  0  0  0  0
    5.8164  -15.4022   26.7693 C   0  0  0  0  0  0  0  0  0  0  0  0
    5.5800  -14.1370   27.1934 N   0  0  0  0  0  0  0  0  0  0  0  0
    6.5893  -13.3437   26.7512 C   0  0  0  0  0  0  0  0  0  0  0  0
    6.8086  -11.9989   26.9146 C   0  0  0  0  0  0  0  0  0  0  0  0
    7.9223  -11.4075   26.3638 C   0  0  0  0  0  0  0  0  0  0  0  0
    8.8407  -12.1337   25.6415 C   0  0  0  0  0  0  0  0  0  0  0  0
    8.6084  -13.4752   25.4868 C   0  0  0  0  0  0  0  0  0  0  0  0
    7.4913  -14.0843   26.0353 C   0  0  0  0  0  0  0  0  0  0  0  0
    7.7243  -17.3530   23.0675 C   0  0  0  0  0  0  0  0  0  0  0  0
    8.1038  -18.5284   22.8400 O   0  0  0  0  0  0  0  0  0  0  0  0
    8.1796  -16.3212   22.2170 N   0  0  0  0  0  0  0  0  0  0  0  0
    9.0065  -16.6627   21.0381 C   0  0  1  0  0  0  0  0  0  0  0  0
    8.7315  -15.6559   19.9550 C   0  0  0  0  0  0  0  0  0  0  0  0
    7.0160  -15.1627   19.8170 S   0  0  0  0  0  0  0  0  0  0  0  0
   10.4082  -16.8196   21.4250 C   0  0  0  0  0  0  0  0  0  0  0  0
   10.8172  -15.9860   22.3212 O   0  0  0  0  0  0  0  0  0  0  0  0
   11.3549  -17.7539   20.9522 N   0  0  0  0  0  0  0  0  0  0  0  0
   10.9311  -18.7857   19.9733 C   0  0  0  0  0  0  0  0  0  0  0  0
   11.9165  -19.9134   20.1906 C   0  0  0  0  0  0  0  0  0  0  0  0
   13.1974  -19.2365   20.5396 C   0  0  0  0  0  0  0  0  0  0  0  0
   12.7537  -17.9487   21.2061 C   0  0  1  0  0  0  0  0  0  0  0  0
   13.5894  -16.8077   20.6980 C   0  0  0  0  0  0  0  0  0  0  0  0
   13.2497  -16.2506   19.6352 O   0  0  0  0  0  0  0  0  0  0  0  0
   14.7031  -16.3749   21.3748 O   0  0  0  0  0  0  0  0  0  0  0  0
  2  3  1  0
  2  1  1  1
  3  4  1  0
  4 12  1  0
  4  5  2  0
  5  6  1  0
  7  6  1  0
  7  8  2  0
  9  8  1  0
 10  9  2  0
 11 12  2  0
 11 10  1  0
 12  7  1  0
 13  2  1  0
 13 15  1  0
 14 13  2  0
 16 15  1  0
 16 17  1  6
 18 17  1  0
 19 16  1  0
 20 19  2  0
 21 19  1  0
 21 25  1  0
 22 21  1  0
 23 22  1  0
 23 24  1  0
 24 25  1  0
 25 26  1  6
 26 28  1  0
 27 26  2  0
M  END
$$$$
