WCP.pdb
     RDKit          3D

 28 30  0  0  1  0  0  0  0  0999 V2000
    6.3350  -18.5440   26.5139 N   0  0  0  0  0  0  0  0  0  0  0  0
    7.2535  -17.4263   26.3679 C   0  0  1  0  0  0  0  0  0  0  0  0
    8.6541  -18.0040   26.5254 C   0  0  0  0  0  0  0  0  0  0  0  0
    9.3561  -17.4437   27.6935 C   0  0  0  0  0  0  0  0  0  0  0  0
    9.9286  -18.1945   28.7034 C   0  0  0  0  0  0  0  0  0  0  0  0
   10.4713  -17.3252   29.5901 N   0  0  0  0  0  0  0  0  0  0  0  0
   10.2431  -16.0633   29.1442 C   0  0  0  0  0  0  0  0  0  0  0  0
   10.5894  -14.8480   29.6794 C   0  0  0  0  0  0  0  0  0  0  0  0
   10.2416  -13.6835   29.0341 C   0  0  0  0  0  0  0  0  0  0  0  0
    9.5457  -13.6975   27.8476 C   0  0  0  0  0  0  0  0  0  0  0  0
    9.2069  -14.9183   27.3254 C   0  0  0  0  0  0  0  0  0  0  0  0
    9.5499  -16.0991   27.9640 C   0  0  0  0  0  0  0  0  0  0  0  0
    7.1062  -16.8121   24.9988 C   0  0  0  0  0  0  0  0  0  0  0  0
    6.5128  -17.4282   24.0792 O   0  0  0  0  0  0  0  0  0  0  0  0
    7.6326  -15.5310   24.7213 N   0  0  0  0  0  0  0  0  0  0  0  0
    7.4476  -14.9450   23.3750 C   0  0  1  0  0  0  0  0  0  0  0  0
    7.4862  -13.4464   23.4978 C   0  0  0  0  0  0  0  0  0  0  0  0
    7.2941  -12.8325   25.1686 S   0  0  0  0  0  0  0  0  0  0  0  0
    8.3928  -15.5339   22.4270 C   0  0  0  0  0  0  0  0  0  0  0  0
    9.4465  -16.0493   22.9650 O   0  0  0  0  0  0  0  0  0  0  0  0
    8.2993  -15.6114   21.0205 N   0  0  0  0  0  0  0  0  0  0  0  0
    7.1489  -14.9742   20.3326 C   0  0  0  0  0  0  0  0  0  0  0  0
    7.0209  -15.7588   19.0450 C   0  0  0  0  0  0  0  0  0  0  0  0
    8.4202  -16.1147   18.6763 C   0  0  0  0  0  0  0  0  0  0  0  0
    9.1336  -16.1993   20.0118 C   0  0  1  0  0  0  0  0  0  0  0  0
   10.4700  -15.5194   19.9102 C   0  0  0  0  0  0  0  0  0  0  0  0
   10.5754  -14.3517   20.3351 O   0  0  0  0  0  0  0  0  0  0  0  0
   11.5598  -16.1534   19.3662 O   0  0  0  0  0  0  0  0  0  0  0  0
  2  3  1  0
  2  1  1  6
  3  4  1  0
  4 12  1  0
  4  5  2  0
  5  6  1  0
  7  6  1  0
  7  8  2  0
  9  8  1  0
 10  9  2  0
 11 12  2  0
 11 10  1  0
 12  7  1  0
 13  2  1  0
 13 15  1  0
 14 13  2  0
 16 15  1  0
 16 17  1  1
 18 17  1  0
 19 16  1  0
 20 19  2  0
 21 19  1  0
 21 25  1  0
 22 21  1  0
 23 22  1  0
 23 24  1  0
 24 25  1  0
 25 26  1  6
 26 28  1  0
 27 26  2  0
M  END
$$$$
