WCP.pdb
     RDKit          3D

 28 30  0  0  1  0  0  0  0  0999 V2000
    4.6392  -20.4565   22.7193 N   0  0  0  0  0  0  0  0  0  0  0  0
    5.7957  -19.9605   23.4479 C   0  0  1  0  0  0  0  0  0  0  0  0
    7.0202  -20.4864   22.7100 C   0  0  0  0  0  0  0  0  0  0  0  0
    7.2122  -21.9327   22.9163 C   0  0  0  0  0  0  0  0  0  0  0  0
    7.3447  -22.8624   21.9017 C   0  0  0  0  0  0  0  0  0  0  0  0
    7.5002  -24.0746   22.4873 N   0  0  0  0  0  0  0  0  0  0  0  0
    7.4658  -23.9051   23.8339 C   0  0  0  0  0  0  0  0  0  0  0  0
    7.5778  -24.8158   24.8544 C   0  0  0  0  0  0  0  0  0  0  0  0
    7.5108  -24.3991   26.1641 C   0  0  0  0  0  0  0  0  0  0  0  0
    7.3323  -23.0748   26.4905 C   0  0  0  0  0  0  0  0  0  0  0  0
    7.2220  -22.1771   25.4611 C   0  0  0  0  0  0  0  0  0  0  0  0
    7.2873  -22.5819   24.1376 C   0  0  0  0  0  0  0  0  0  0  0  0
    5.8039  -18.4529   23.4396 C   0  0  0  0  0  0  0  0  0  0  0  0
    5.3060  -17.8134   22.4801 O   0  0  0  0  0  0  0  0  0  0  0  0
    6.3716  -17.7275   24.5106 N   0  0  0  0  0  0  0  0  0  0  0  0
    6.7054  -16.2979   24.3243 C   0  0  1  0  0  0  0  0  0  0  0  0
    6.8571  -15.6632   25.6795 C   0  0  0  0  0  0  0  0  0  0  0  0
    7.5058  -13.9947   25.6503 S   0  0  0  0  0  0  0  0  0  0  0  0
    7.8446  -16.1527   23.4187 C   0  0  0  0  0  0  0  0  0  0  0  0
    8.7837  -17.0213   23.5891 O   0  0  0  0  0  0  0  0  0  0  0  0
    8.0431  -15.2000   22.3960 N   0  0  0  0  0  0  0  0  0  0  0  0
    7.0025  -14.1711   22.1496 C   0  0  0  0  0  0  0  0  0  0  0  0
    7.2065  -13.7941   20.6984 C   0  0  0  0  0  0  0  0  0  0  0  0
    8.6775  -13.8965   20.4825 C   0  0  0  0  0  0  0  0  0  0  0  0
    9.1123  -14.9632   21.4687 C   0  0  1  0  0  0  0  0  0  0  0  0
   10.3757  -14.5261   22.1552 C   0  0  0  0  0  0  0  0  0  0  0  0
   11.4140  -14.4162   21.4733 O   0  0  0  0  0  0  0  0  0  0  0  0
   10.4045  -14.2495   23.4999 O   0  0  0  0  0  0  0  0  0  0  0  0
  2  3  1  0
  2  1  1  6
  3  4  1  0
  4 12  1  0
  4  5  2  0
  5  6  1  0
  7  6  1  0
  7  8  2  0
  9  8  1  0
 10  9  2  0
 11 12  2  0
 11 10  1  0
 12  7  1  0
 13  2  1  0
 13 15  1  0
 14 13  2  0
 16 15  1  0
 16 17  1  1
 18 17  1  0
 19 16  1  0
 20 19  2  0
 21 19  1  0
 21 25  1  0
 22 21  1  0
 23 22  1  0
 23 24  1  0
 24 25  1  0
 25 26  1  1
 26 28  1  0
 27 26  2  0
M  END
$$$$
