WCP.pdb
     RDKit          3D

 28 30  0  0  1  0  0  0  0  0999 V2000
    5.7483  -17.3359   23.6412 N   0  0  0  0  0  0  0  0  0  0  0  0
    6.6087  -16.1975   23.3617 C   0  0  1  0  0  0  0  0  0  0  0  0
    7.4839  -16.0136   24.5948 C   0  0  0  0  0  0  0  0  0  0  0  0
    6.8938  -15.0656   25.5562 C   0  0  0  0  0  0  0  0  0  0  0  0
    5.7611  -15.3106   26.3099 C   0  0  0  0  0  0  0  0  0  0  0  0
    5.5364  -14.2081   27.0652 N   0  0  0  0  0  0  0  0  0  0  0  0
    6.5054  -13.2979   26.7894 C   0  0  0  0  0  0  0  0  0  0  0  0
    6.7178  -12.0371   27.2881 C   0  0  0  0  0  0  0  0  0  0  0  0
    7.7866  -11.2902   26.8484 C   0  0  0  0  0  0  0  0  0  0  0  0
    8.6661  -11.7749   25.9082 C   0  0  0  0  0  0  0  0  0  0  0  0
    8.4412  -13.0352   25.4195 C   0  0  0  0  0  0  0  0  0  0  0  0
    7.3691  -13.7987   25.8525 C   0  0  0  0  0  0  0  0  0  0  0  0
    7.4736  -16.4863   22.1609 C   0  0  0  0  0  0  0  0  0  0  0  0
    7.8048  -17.6639   21.8766 O   0  0  0  0  0  0  0  0  0  0  0  0
    7.9298  -15.4386   21.3304 N   0  0  0  0  0  0  0  0  0  0  0  0
    8.8110  -15.7515   20.1834 C   0  0  1  0  0  0  0  0  0  0  0  0
    8.8631  -14.5496   19.2805 C   0  0  0  0  0  0  0  0  0  0  0  0
    7.3056  -14.1393   18.4986 S   0  0  0  0  0  0  0  0  0  0  0  0
   10.1011  -16.2558   20.6525 C   0  0  0  0  0  0  0  0  0  0  0  0
   10.5343  -15.7049   21.7361 O   0  0  0  0  0  0  0  0  0  0  0  0
   10.9187  -17.2548   20.0812 N   0  0  0  0  0  0  0  0  0  0  0  0
   10.4207  -18.0199   18.9111 C   0  0  0  0  0  0  0  0  0  0  0  0
   11.1811  -19.3261   18.9859 C   0  0  0  0  0  0  0  0  0  0  0  0
   12.5193  -18.9561   19.5272 C   0  0  0  0  0  0  0  0  0  0  0  0
   12.2366  -17.7361   20.3823 C   0  0  1  0  0  0  0  0  0  0  0  0
   13.2931  -16.6959   20.1363 C   0  0  0  0  0  0  0  0  0  0  0  0
   14.3332  -16.7326   20.8233 O   0  0  0  0  0  0  0  0  0  0  0  0
   13.1343  -15.7216   19.1818 O   0  0  0  0  0  0  0  0  0  0  0  0
  2  3  1  0
  2  1  1  1
  3  4  1  0
  4 12  1  0
  4  5  2  0
  5  6  1  0
  7  6  1  0
  7  8  2  0
  9  8  1  0
 10  9  2  0
 11 12  2  0
 11 10  1  0
 12  7  1  0
 13  2  1  0
 13 15  1  0
 14 13  2  0
 16 15  1  0
 16 17  1  1
 18 17  1  0
 19 16  1  0
 20 19  2  0
 21 19  1  0
 21 25  1  0
 22 21  1  0
 23 22  1  0
 23 24  1  0
 24 25  1  0
 25 26  1  6
 26 28  1  0
 27 26  2  0
M  END
$$$$
