QHN.pdb
     RDKit          3D

 28 28  0  0  1  0  0  0  0  0999 V2000
    7.6787  -12.3017   17.4949 N   0  0  0  0  0  0  0  0  0  0  0  0
    7.4592  -13.6262   17.0107 C   0  0  0  0  0  0  0  0  0  0  0  0
    7.0502  -13.8002   15.8383 O   0  0  0  0  0  0  0  0  0  0  0  0
    7.7100  -14.7945   17.8724 C   0  0  0  0  0  0  0  0  0  0  0  0
    8.2005  -14.3738   19.2100 C   0  0  0  0  0  0  0  0  0  0  0  0
    8.7674  -15.5488   19.9527 C   0  0  2  0  0  0  0  0  0  0  0  0
    7.7563  -16.6081   19.8916 N   0  0  0  0  0  0  0  0  0  0  0  0
    8.9598  -15.2110   21.3955 C   0  0  0  0  0  0  0  0  0  0  0  0
    9.9972  -14.5134   21.6504 O   0  0  0  0  0  0  0  0  0  0  0  0
    8.0621  -15.6329   22.3917 N   0  0  0  0  0  0  0  0  0  0  0  0
    8.3432  -15.1534   23.7884 C   0  0  1  0  0  0  0  0  0  0  0  0
    6.9796  -14.8333   24.3051 C   0  0  0  0  0  0  0  0  0  0  0  0
    6.9504  -14.0891   25.5606 C   0  0  0  0  0  0  0  0  0  0  0  0
    8.1421  -13.7124   26.2325 C   0  0  0  0  0  0  0  0  0  0  0  0
    7.8509  -13.0419   27.3534 N   0  0  0  0  0  0  0  0  0  0  0  0
    6.5142  -12.9770   27.4211 C   0  0  0  0  0  0  0  0  0  0  0  0
    6.0000  -13.6003   26.3546 N   0  0  0  0  0  0  0  0  0  0  0  0
    9.0507  -16.2236   24.4867 C   0  0  0  0  0  0  0  0  0  0  0  0
    8.6356  -17.4174   24.2936 O   0  0  0  0  0  0  0  0  0  0  0  0
   11.8840  -19.3769   24.5305 N   0  0  0  0  0  0  0  0  0  0  0  0
   12.6545  -18.2467   24.8982 C   0  0  0  0  0  0  0  0  0  0  0  0
   13.8698  -18.1824   24.4947 O   0  0  0  0  0  0  0  0  0  0  0  0
   12.2060  -17.1137   25.7075 C   0  0  0  0  0  0  0  0  0  0  0  0
   10.7786  -17.1008   26.1024 C   0  0  2  0  0  0  0  0  0  0  0  0
   10.1383  -16.0257   25.3316 N   0  0  0  0  0  0  0  0  0  0  0  0
   10.5161  -16.8755   27.5385 C   0  0  0  0  0  0  0  0  0  0  0  0
   10.3989  -17.8693   28.4949 O   0  0  0  0  0  0  0  0  0  0  0  0
   10.3847  -15.6941   27.9478 O   0  0  0  0  0  0  0  0  0  0  0  0
  2  3  2  0
  2  1  1  0
  4  2  1  0
  5  4  1  0
  5  6  1  0
  6  7  1  1
  6  8  1  0
  8  9  2  0
 10  8  1  0
 10 11  1  0
 11 12  1  1
 13 12  1  0
 14 13  2  0
 15 16  1  0
 15 14  1  0
 16 17  2  0
 17 13  1  0
 18 11  1  0
 18 19  2  0
 20 21  1  0
 21 23  1  0
 21 22  2  0
 24 23  1  1
 24 25  1  0
 24 26  1  0
 25 18  1  0
 26 27  1  0
 28 26  2  0
M  END
$$$$
