QHN.pdb
     RDKit          3D

 28 28  0  0  1  0  0  0  0  0999 V2000
   12.4542  -14.7076   12.1074 N   0  0  0  0  0  0  0  0  0  0  0  0
   11.1731  -15.2147   12.4799 C   0  0  0  0  0  0  0  0  0  0  0  0
   10.3724  -15.5944   11.5930 O   0  0  0  0  0  0  0  0  0  0  0  0
   10.7797  -15.2999   13.8971 C   0  0  0  0  0  0  0  0  0  0  0  0
   11.8585  -14.7879   14.7807 C   0  0  0  0  0  0  0  0  0  0  0  0
   12.2116  -15.8103   15.8217 C   0  0  2  0  0  0  0  0  0  0  0  0
   11.1708  -16.8407   15.7641 N   0  0  0  0  0  0  0  0  0  0  0  0
   12.1538  -15.2065   17.1872 C   0  0  0  0  0  0  0  0  0  0  0  0
   12.9931  -14.2686   17.3961 O   0  0  0  0  0  0  0  0  0  0  0  0
   11.2413  -15.6434   18.1635 N   0  0  0  0  0  0  0  0  0  0  0  0
   11.3685  -15.0151   19.5232 C   0  0  1  0  0  0  0  0  0  0  0  0
   10.0232  -15.2581   20.1230 C   0  0  0  0  0  0  0  0  0  0  0  0
    8.9835  -14.3172   19.7171 C   0  0  0  0  0  0  0  0  0  0  0  0
    9.2496  -13.2548   18.8149 C   0  0  0  0  0  0  0  0  0  0  0  0
    8.1399  -12.5377   18.6019 N   0  0  0  0  0  0  0  0  0  0  0  0
    7.1737  -13.1052   19.3368 C   0  0  0  0  0  0  0  0  0  0  0  0
    7.6902  -14.1538   19.9881 N   0  0  0  0  0  0  0  0  0  0  0  0
   12.4908  -15.6584   20.2015 C   0  0  0  0  0  0  0  0  0  0  0  0
   12.6885  -16.8966   19.9517 O   0  0  0  0  0  0  0  0  0  0  0  0
   15.8840  -15.3222   19.2442 N   0  0  0  0  0  0  0  0  0  0  0  0
   16.2619  -14.6702   20.4435 C   0  0  0  0  0  0  0  0  0  0  0  0
   17.2702  -13.8788   20.4131 O   0  0  0  0  0  0  0  0  0  0  0  0
   15.6119  -14.8013   21.7473 C   0  0  0  0  0  0  0  0  0  0  0  0
   14.4296  -15.6906   21.8158 C   0  0  2  0  0  0  0  0  0  0  0  0
   13.3498  -15.0123   21.0850 N   0  0  0  0  0  0  0  0  0  0  0  0
   13.9517  -16.0129   23.1759 C   0  0  0  0  0  0  0  0  0  0  0  0
   13.2037  -15.1708   23.9805 O   0  0  0  0  0  0  0  0  0  0  0  0
   14.2354  -17.1368   23.6625 O   0  0  0  0  0  0  0  0  0  0  0  0
  2  3  2  0
  2  1  1  0
  4  2  1  0
  5  4  1  0
  5  6  1  0
  6  7  1  1
  6  8  1  0
  8  9  2  0
 10  8  1  0
 10 11  1  0
 11 12  1  1
 13 12  1  0
 14 13  2  0
 15 16  1  0
 15 14  1  0
 16 17  2  0
 17 13  1  0
 18 11  1  0
 18 19  2  0
 20 21  1  0
 21 23  1  0
 21 22  2  0
 24 23  1  1
 24 25  1  0
 24 26  1  0
 25 18  1  0
 26 27  1  0
 28 26  2  0
M  END
$$$$
