QHN.pdb
     RDKit          3D

 28 28  0  0  1  0  0  0  0  0999 V2000
   13.7124  -18.3502   12.6816 N   0  0  0  0  0  0  0  0  0  0  0  0
   13.8713  -18.6899   14.0587 C   0  0  0  0  0  0  0  0  0  0  0  0
   14.2490  -19.8428   14.3754 O   0  0  0  0  0  0  0  0  0  0  0  0
   13.5988  -17.7000   15.1151 C   0  0  0  0  0  0  0  0  0  0  0  0
   12.3689  -18.0523   15.8702 C   0  0  0  0  0  0  0  0  0  0  0  0
   11.4536  -16.8660   15.9623 C   0  0  2  0  0  0  0  0  0  0  0  0
   11.8993  -15.9151   14.9399 N   0  0  0  0  0  0  0  0  0  0  0  0
   11.6076  -16.1892   17.2855 C   0  0  0  0  0  0  0  0  0  0  0  0
   12.6212  -15.4203   17.3812 O   0  0  0  0  0  0  0  0  0  0  0  0
   10.7007  -16.3887   18.3410 N   0  0  0  0  0  0  0  0  0  0  0  0
   10.8802  -15.5116   19.5485 C   0  0  1  0  0  0  0  0  0  0  0  0
    9.5046  -15.4657   20.1269 C   0  0  0  0  0  0  0  0  0  0  0  0
    8.6280  -14.4435   19.5632 C   0  0  0  0  0  0  0  0  0  0  0  0
    9.0574  -13.5870   18.5165 C   0  0  0  0  0  0  0  0  0  0  0  0
    8.0767  -12.7426   18.1759 N   0  0  0  0  0  0  0  0  0  0  0  0
    7.0352  -13.0300   18.9687 C   0  0  0  0  0  0  0  0  0  0  0  0
    7.3792  -14.0362   19.7807 N   0  0  0  0  0  0  0  0  0  0  0  0
   11.9021  -16.1271   20.3912 C   0  0  0  0  0  0  0  0  0  0  0  0
   12.0508  -17.3932   20.2936 O   0  0  0  0  0  0  0  0  0  0  0  0
   16.2280  -16.6227   23.6750 N   0  0  0  0  0  0  0  0  0  0  0  0
   16.0460  -15.4146   22.9583 C   0  0  0  0  0  0  0  0  0  0  0  0
   16.9743  -14.5317   23.0102 O   0  0  0  0  0  0  0  0  0  0  0  0
   14.8870  -15.0529   22.1426 C   0  0  0  0  0  0  0  0  0  0  0  0
   13.7949  -16.0497   22.0577 C   0  0  2  0  0  0  0  0  0  0  0  0
   12.7170  -15.4277   21.2759 N   0  0  0  0  0  0  0  0  0  0  0  0
   13.2422  -16.5021   23.3508 C   0  0  0  0  0  0  0  0  0  0  0  0
   13.7049  -17.5813   24.0838 O   0  0  0  0  0  0  0  0  0  0  0  0
   12.2732  -15.8714   23.8444 O   0  0  0  0  0  0  0  0  0  0  0  0
  2  3  2  0
  2  1  1  0
  4  2  1  0
  5  4  1  0
  5  6  1  0
  6  7  1  6
  6  8  1  0
  8  9  2  0
 10  8  1  0
 10 11  1  0
 11 12  1  1
 13 12  1  0
 14 13  2  0
 15 16  1  0
 15 14  1  0
 16 17  2  0
 17 13  1  0
 18 11  1  0
 18 19  2  0
 20 21  1  0
 21 23  1  0
 21 22  2  0
 24 23  1  1
 24 25  1  0
 24 26  1  0
 25 18  1  0
 26 27  1  0
 28 26  2  0
M  END
$$$$
