QHN.pdb
     RDKit          3D

 28 28  0  0  1  0  0  0  0  0999 V2000
    7.5475  -12.7620   15.2480 N   0  0  0  0  0  0  0  0  0  0  0  0
    8.1939  -13.9702   14.8487 C   0  0  0  0  0  0  0  0  0  0  0  0
    8.2398  -14.2791   13.6344 O   0  0  0  0  0  0  0  0  0  0  0  0
    8.8113  -14.8599   15.8475 C   0  0  0  0  0  0  0  0  0  0  0  0
    8.6071  -14.3383   17.2234 C   0  0  0  0  0  0  0  0  0  0  0  0
    9.2094  -15.2729   18.2320 C   0  0  2  0  0  0  0  0  0  0  0  0
    8.4621  -16.5299   18.1342 N   0  0  0  0  0  0  0  0  0  0  0  0
    9.0048  -14.7494   19.6164 C   0  0  0  0  0  0  0  0  0  0  0  0
    9.7964  -13.8088   19.9578 O   0  0  0  0  0  0  0  0  0  0  0  0
    8.0133  -15.2589   20.4730 N   0  0  0  0  0  0  0  0  0  0  0  0
    7.9344  -14.6427   21.8419 C   0  0  1  0  0  0  0  0  0  0  0  0
    6.4823  -14.7573   22.1690 C   0  0  0  0  0  0  0  0  0  0  0  0
    5.9468  -16.1152   22.1491 C   0  0  0  0  0  0  0  0  0  0  0  0
    6.7564  -17.2316   21.8148 C   0  0  0  0  0  0  0  0  0  0  0  0
    6.0376  -18.3591   21.8691 N   0  0  0  0  0  0  0  0  0  0  0  0
    4.7965  -18.0019   22.2266 C   0  0  0  0  0  0  0  0  0  0  0  0
    4.7620  -16.6739   22.3873 N   0  0  0  0  0  0  0  0  0  0  0  0
    8.8410  -15.3871   22.7121 C   0  0  0  0  0  0  0  0  0  0  0  0
    8.4516  -15.6004   23.9111 O   0  0  0  0  0  0  0  0  0  0  0  0
   12.3423  -18.6578   24.8949 N   0  0  0  0  0  0  0  0  0  0  0  0
   10.9555  -18.6863   24.6079 C   0  0  0  0  0  0  0  0  0  0  0  0
   10.2539  -19.6427   25.0947 O   0  0  0  0  0  0  0  0  0  0  0  0
   10.2145  -17.7198   23.7977 C   0  0  0  0  0  0  0  0  0  0  0  0
   10.9936  -16.6038   23.2138 C   0  0  2  0  0  0  0  0  0  0  0  0
   10.0823  -15.8773   22.3184 N   0  0  0  0  0  0  0  0  0  0  0  0
   12.1956  -16.9961   22.4499 C   0  0  0  0  0  0  0  0  0  0  0  0
   12.4082  -16.7380   21.1067 O   0  0  0  0  0  0  0  0  0  0  0  0
   13.1123  -17.6152   23.0473 O   0  0  0  0  0  0  0  0  0  0  0  0
  2  3  2  0
  2  1  1  0
  4  2  1  0
  5  4  1  0
  5  6  1  0
  6  7  1  1
  6  8  1  0
  8  9  2  0
 10  8  1  0
 10 11  1  0
 11 12  1  1
 13 12  1  0
 14 13  2  0
 15 16  1  0
 15 14  1  0
 16 17  2  0
 17 13  1  0
 18 11  1  0
 18 19  2  0
 20 21  1  0
 21 23  1  0
 21 22  2  0
 24 23  1  6
 24 25  1  0
 24 26  1  0
 25 18  1  0
 26 27  1  0
 28 26  2  0
M  END
$$$$
