QHN.pdb
     RDKit          3D

 28 28  0  0  1  0  0  0  0  0999 V2000
   16.0306  -15.7476   15.6608 N   0  0  0  0  0  0  0  0  0  0  0  0
   16.4728  -15.9019   17.0091 C   0  0  0  0  0  0  0  0  0  0  0  0
   17.6961  -16.0302   17.2517 O   0  0  0  0  0  0  0  0  0  0  0  0
   15.5077  -15.9102   18.1221 C   0  0  0  0  0  0  0  0  0  0  0  0
   14.1203  -16.0894   17.6223 C   0  0  0  0  0  0  0  0  0  0  0  0
   13.3114  -14.8488   17.8675 C   0  0  2  0  0  0  0  0  0  0  0  0
   14.2691  -13.7492   18.0164 N   0  0  0  0  0  0  0  0  0  0  0  0
   12.5668  -14.9576   19.1584 C   0  0  0  0  0  0  0  0  0  0  0  0
   13.1947  -14.5210   20.1796 O   0  0  0  0  0  0  0  0  0  0  0  0
   11.2724  -15.5009   19.2351 N   0  0  0  0  0  0  0  0  0  0  0  0
   10.6185  -15.4762   20.5884 C   0  0  1  0  0  0  0  0  0  0  0  0
    9.1647  -15.5038   20.2499 C   0  0  0  0  0  0  0  0  0  0  0  0
    8.6546  -14.2977   19.6047 C   0  0  0  0  0  0  0  0  0  0  0  0
    9.5044  -13.2084   19.2809 C   0  0  0  0  0  0  0  0  0  0  0  0
    8.8024  -12.2290   18.6990 N   0  0  0  0  0  0  0  0  0  0  0  0
    7.5331  -12.6547   18.6396 C   0  0  0  0  0  0  0  0  0  0  0  0
    7.4653  -13.8774   19.1789 N   0  0  0  0  0  0  0  0  0  0  0  0
   11.1168  -16.6261   21.3386 C   0  0  0  0  0  0  0  0  0  0  0  0
   11.7771  -17.5046   20.6852 O   0  0  0  0  0  0  0  0  0  0  0  0
   14.2391  -18.2013   25.2771 N   0  0  0  0  0  0  0  0  0  0  0  0
   14.2787  -17.1791   24.2974 C   0  0  0  0  0  0  0  0  0  0  0  0
   15.3913  -16.5753   24.0940 O   0  0  0  0  0  0  0  0  0  0  0  0
   13.1625  -16.7244   23.4686 C   0  0  0  0  0  0  0  0  0  0  0  0
   11.8976  -17.4871   23.5780 C   0  0  2  0  0  0  0  0  0  0  0  0
   10.9250  -16.8169   22.7035 N   0  0  0  0  0  0  0  0  0  0  0  0
   11.3260  -17.5829   24.9367 C   0  0  0  0  0  0  0  0  0  0  0  0
   11.4965  -18.6500   25.8018 O   0  0  0  0  0  0  0  0  0  0  0  0
   10.6247  -16.6306   25.3628 O   0  0  0  0  0  0  0  0  0  0  0  0
  2  3  2  0
  2  1  1  0
  4  2  1  0
  5  4  1  0
  5  6  1  0
  6  7  1  1
  6  8  1  0
  8  9  2  0
 10  8  1  0
 10 11  1  0
 11 12  1  6
 13 12  1  0
 14 13  2  0
 15 16  1  0
 15 14  1  0
 16 17  2  0
 17 13  1  0
 18 11  1  0
 18 19  2  0
 20 21  1  0
 21 23  1  0
 21 22  2  0
 24 23  1  1
 24 25  1  0
 24 26  1  0
 25 18  1  0
 26 27  1  0
 28 26  2  0
M  END
$$$$
