QHN.pdb
     RDKit          3D

 28 28  0  0  1  0  0  0  0  0999 V2000
    9.0650  -17.2533   15.1028 N   0  0  0  0  0  0  0  0  0  0  0  0
    8.4579  -16.1661   14.4054 C   0  0  0  0  0  0  0  0  0  0  0  0
    8.1788  -16.2855   13.1889 O   0  0  0  0  0  0  0  0  0  0  0  0
    8.1521  -14.9029   15.0992 C   0  0  0  0  0  0  0  0  0  0  0  0
    8.5017  -14.9891   16.5404 C   0  0  0  0  0  0  0  0  0  0  0  0
    7.6205  -14.0807   17.3478 C   0  0  2  0  0  0  0  0  0  0  0  0
    7.8002  -12.7323   16.8021 N   0  0  0  0  0  0  0  0  0  0  0  0
    8.0758  -14.0406   18.7704 C   0  0  0  0  0  0  0  0  0  0  0  0
    9.2165  -13.4996   18.9547 O   0  0  0  0  0  0  0  0  0  0  0  0
    7.3011  -14.5614   19.8216 N   0  0  0  0  0  0  0  0  0  0  0  0
    7.9545  -14.6005   21.1749 C   0  0  1  0  0  0  0  0  0  0  0  0
    6.8505  -15.0812   22.0575 C   0  0  0  0  0  0  0  0  0  0  0  0
    7.1759  -15.1461   23.4791 C   0  0  0  0  0  0  0  0  0  0  0  0
    8.3579  -14.5601   24.0014 C   0  0  0  0  0  0  0  0  0  0  0  0
    8.4267  -14.7535   25.3238 N   0  0  0  0  0  0  0  0  0  0  0  0
    7.3294  -15.4429   25.6647 C   0  0  0  0  0  0  0  0  0  0  0  0
    6.6033  -15.6655   24.5631 N   0  0  0  0  0  0  0  0  0  0  0  0
    9.1165  -15.4801   21.0768 C   0  0  0  0  0  0  0  0  0  0  0  0
    9.9346  -15.2578   20.1198 O   0  0  0  0  0  0  0  0  0  0  0  0
   13.4402  -16.1085   24.3573 N   0  0  0  0  0  0  0  0  0  0  0  0
   12.8819  -15.8711   23.0774 C   0  0  0  0  0  0  0  0  0  0  0  0
   13.6771  -15.7726   22.0764 O   0  0  0  0  0  0  0  0  0  0  0  0
   11.4613  -15.7232   22.7615 C   0  0  0  0  0  0  0  0  0  0  0  0
   10.7442  -16.9451   22.3299 C   0  0  2  0  0  0  0  0  0  0  0  0
    9.3866  -16.5258   21.9540 N   0  0  0  0  0  0  0  0  0  0  0  0
   10.6461  -18.0178   23.3407 C   0  0  0  0  0  0  0  0  0  0  0  0
   11.5285  -19.0764   23.4706 O   0  0  0  0  0  0  0  0  0  0  0  0
    9.6925  -17.9875   24.1593 O   0  0  0  0  0  0  0  0  0  0  0  0
  2  3  2  0
  2  1  1  0
  4  2  1  0
  5  4  1  0
  5  6  1  0
  6  7  1  6
  6  8  1  0
  8  9  2  0
 10  8  1  0
 10 11  1  0
 11 12  1  1
 13 12  1  0
 14 13  2  0
 15 16  1  0
 15 14  1  0
 16 17  2  0
 17 13  1  0
 18 11  1  0
 18 19  2  0
 20 21  1  0
 21 23  1  0
 21 22  2  0
 24 23  1  1
 24 25  1  0
 24 26  1  0
 25 18  1  0
 26 27  1  0
 28 26  2  0
M  END
$$$$
