QHN.pdb
     RDKit          3D

 28 28  0  0  1  0  0  0  0  0999 V2000
    9.0646  -13.0377   16.5567 N   0  0  0  0  0  0  0  0  0  0  0  0
    8.3402  -14.2661   16.4980 C   0  0  0  0  0  0  0  0  0  0  0  0
    7.9783  -14.7224   15.3877 O   0  0  0  0  0  0  0  0  0  0  0  0
    8.0135  -15.0075   17.7284 C   0  0  0  0  0  0  0  0  0  0  0  0
    8.4842  -14.2751   18.9320 C   0  0  0  0  0  0  0  0  0  0  0  0
    9.1139  -15.2248   19.9094 C   0  0  2  0  0  0  0  0  0  0  0  0
    8.2929  -16.4389   19.8991 N   0  0  0  0  0  0  0  0  0  0  0  0
    9.0513  -14.6665   21.2940 C   0  0  0  0  0  0  0  0  0  0  0  0
    9.6985  -13.5805   21.4655 O   0  0  0  0  0  0  0  0  0  0  0  0
    8.3319  -15.2952   22.3253 N   0  0  0  0  0  0  0  0  0  0  0  0
    8.3337  -14.6006   23.6585 C   0  0  1  0  0  0  0  0  0  0  0  0
    6.8782  -14.4885   23.9710 C   0  0  0  0  0  0  0  0  0  0  0  0
    6.5564  -13.6919   25.1512 C   0  0  0  0  0  0  0  0  0  0  0  0
    7.5349  -12.9007   25.8068 C   0  0  0  0  0  0  0  0  0  0  0  0
    6.9944  -12.2684   26.8552 N   0  0  0  0  0  0  0  0  0  0  0  0
    5.7041  -12.6283   26.8922 C   0  0  0  0  0  0  0  0  0  0  0  0
    5.4640  -13.4686   25.8790 N   0  0  0  0  0  0  0  0  0  0  0  0
    9.1188  -15.4186   24.5794 C   0  0  0  0  0  0  0  0  0  0  0  0
    9.2895  -16.6462   24.2654 O   0  0  0  0  0  0  0  0  0  0  0  0
   10.6864  -15.6382   30.3537 N   0  0  0  0  0  0  0  0  0  0  0  0
   11.2742  -15.6086   29.0653 C   0  0  0  0  0  0  0  0  0  0  0  0
   12.3874  -16.2204   28.8912 O   0  0  0  0  0  0  0  0  0  0  0  0
   10.7378  -14.9414   27.8792 C   0  0  0  0  0  0  0  0  0  0  0  0
   10.3646  -15.8090   26.7384 C   0  0  2  0  0  0  0  0  0  0  0  0
    9.6900  -14.9473   25.7573 N   0  0  0  0  0  0  0  0  0  0  0  0
    9.4758  -16.9432   27.0635 C   0  0  0  0  0  0  0  0  0  0  0  0
    8.1009  -16.8663   27.2035 O   0  0  0  0  0  0  0  0  0  0  0  0
    9.9873  -18.0793   27.2310 O   0  0  0  0  0  0  0  0  0  0  0  0
  2  3  2  0
  2  1  1  0
  4  2  1  0
  5  4  1  0
  5  6  1  0
  6  7  1  1
  6  8  1  0
  8  9  2  0
 10  8  1  0
 10 11  1  0
 11 12  1  1
 13 12  1  0
 14 13  2  0
 15 16  1  0
 15 14  1  0
 16 17  2  0
 17 13  1  0
 18 11  1  0
 18 19  2  0
 20 21  1  0
 21 23  1  0
 21 22  2  0
 24 23  1  1
 24 25  1  0
 24 26  1  0
 25 18  1  0
 26 27  1  0
 28 26  2  0
M  END
$$$$
