QHN.pdb
     RDKit          3D

 28 28  0  0  1  0  0  0  0  0999 V2000
   10.3801  -22.1092   17.0494 N   0  0  0  0  0  0  0  0  0  0  0  0
   10.9306  -21.5072   15.8783 C   0  0  0  0  0  0  0  0  0  0  0  0
   11.0314  -22.1769   14.8232 O   0  0  0  0  0  0  0  0  0  0  0  0
   11.3811  -20.1046   15.8931 C   0  0  0  0  0  0  0  0  0  0  0  0
   11.1648  -19.4901   17.2282 C   0  0  0  0  0  0  0  0  0  0  0  0
   10.8362  -18.0322   17.0861 C   0  0  2  0  0  0  0  0  0  0  0  0
   11.8760  -17.4517   16.2317 N   0  0  0  0  0  0  0  0  0  0  0  0
   10.9249  -17.3456   18.4103 C   0  0  0  0  0  0  0  0  0  0  0  0
   12.1042  -17.0114   18.7645 O   0  0  0  0  0  0  0  0  0  0  0  0
    9.7910  -17.0901   19.2011 N   0  0  0  0  0  0  0  0  0  0  0  0
   10.0347  -16.3902   20.5090 C   0  0  1  0  0  0  0  0  0  0  0  0
    8.7068  -15.7745   20.8029 C   0  0  0  0  0  0  0  0  0  0  0  0
    8.4657  -14.4844   20.1637 C   0  0  0  0  0  0  0  0  0  0  0  0
    9.4664  -13.8329   19.3972 C   0  0  0  0  0  0  0  0  0  0  0  0
    9.0025  -12.6724   18.9186 N   0  0  0  0  0  0  0  0  0  0  0  0
    7.7397  -12.5598   19.3527 C   0  0  0  0  0  0  0  0  0  0  0  0
    7.4405  -13.6384   20.0859 N   0  0  0  0  0  0  0  0  0  0  0  0
   10.4941  -17.3937   21.4658 C   0  0  0  0  0  0  0  0  0  0  0  0
   10.5258  -18.6073   21.0650 O   0  0  0  0  0  0  0  0  0  0  0  0
   14.9018  -19.4796   22.9906 N   0  0  0  0  0  0  0  0  0  0  0  0
   14.4695  -18.1373   23.1236 C   0  0  0  0  0  0  0  0  0  0  0  0
   15.2326  -17.3114   23.7395 O   0  0  0  0  0  0  0  0  0  0  0  0
   13.2168  -17.5729   22.6218 C   0  0  0  0  0  0  0  0  0  0  0  0
   12.0063  -17.8028   23.4436 C   0  0  2  0  0  0  0  0  0  0  0  0
   10.9002  -17.1114   22.7663 N   0  0  0  0  0  0  0  0  0  0  0  0
   12.0817  -17.3230   24.8386 C   0  0  0  0  0  0  0  0  0  0  0  0
   11.9860  -16.0002   25.2349 O   0  0  0  0  0  0  0  0  0  0  0  0
   12.2459  -18.1661   25.7566 O   0  0  0  0  0  0  0  0  0  0  0  0
  2  3  2  0
  2  1  1  0
  4  2  1  0
  5  4  1  0
  5  6  1  0
  6  7  1  6
  6  8  1  0
  8  9  2  0
 10  8  1  0
 10 11  1  0
 11 12  1  1
 13 12  1  0
 14 13  2  0
 15 16  1  0
 15 14  1  0
 16 17  2  0
 17 13  1  0
 18 11  1  0
 18 19  2  0
 20 21  1  0
 21 23  1  0
 21 22  2  0
 24 23  1  6
 24 25  1  0
 24 26  1  0
 25 18  1  0
 26 27  1  0
 28 26  2  0
M  END
$$$$
