QHN.pdb
     RDKit          3D

 28 28  0  0  1  0  0  0  0  0999 V2000
   14.8942  -13.6842   18.3549 N   0  0  0  0  0  0  0  0  0  0  0  0
   14.2290  -14.4056   17.3185 C   0  0  0  0  0  0  0  0  0  0  0  0
   14.8468  -14.6949   16.2666 O   0  0  0  0  0  0  0  0  0  0  0  0
   12.8227  -14.8176   17.4706 C   0  0  0  0  0  0  0  0  0  0  0  0
   12.2796  -14.3827   18.7830 C   0  0  0  0  0  0  0  0  0  0  0  0
   11.2540  -15.3622   19.2754 C   0  0  2  0  0  0  0  0  0  0  0  0
   10.0988  -15.2414   18.3815 N   0  0  0  0  0  0  0  0  0  0  0  0
   10.7884  -14.9865   20.6446 C   0  0  0  0  0  0  0  0  0  0  0  0
   11.6193  -14.2975   21.3248 O   0  0  0  0  0  0  0  0  0  0  0  0
    9.5288  -15.3667   21.1401 N   0  0  0  0  0  0  0  0  0  0  0  0
    9.2400  -15.0089   22.5712 C   0  0  1  0  0  0  0  0  0  0  0  0
    7.7490  -14.9371   22.5960 C   0  0  0  0  0  0  0  0  0  0  0  0
    7.1620  -14.6717   23.9060 C   0  0  0  0  0  0  0  0  0  0  0  0
    7.1764  -13.3746   24.4811 C   0  0  0  0  0  0  0  0  0  0  0  0
    6.5790  -13.3910   25.6784 N   0  0  0  0  0  0  0  0  0  0  0  0
    6.1833  -14.6539   25.8885 C   0  0  0  0  0  0  0  0  0  0  0  0
    6.5360  -15.3952   24.8319 N   0  0  0  0  0  0  0  0  0  0  0  0
    9.8391  -16.0419   23.4122 C   0  0  0  0  0  0  0  0  0  0  0  0
    9.7844  -17.2450   22.9830 O   0  0  0  0  0  0  0  0  0  0  0  0
   14.1329  -16.0963   23.9635 N   0  0  0  0  0  0  0  0  0  0  0  0
   13.2681  -16.9779   24.6573 C   0  0  0  0  0  0  0  0  0  0  0  0
   13.2495  -18.2112   24.3074 O   0  0  0  0  0  0  0  0  0  0  0  0
   12.3710  -16.6291   25.7588 C   0  0  0  0  0  0  0  0  0  0  0  0
   10.9246  -16.8589   25.5382 C   0  0  2  0  0  0  0  0  0  0  0  0
   10.4633  -15.7981   24.6316 N   0  0  0  0  0  0  0  0  0  0  0  0
   10.0838  -16.8433   26.7527 C   0  0  0  0  0  0  0  0  0  0  0  0
    9.8530  -17.9297   27.5788 O   0  0  0  0  0  0  0  0  0  0  0  0
    9.5224  -15.7677   27.0817 O   0  0  0  0  0  0  0  0  0  0  0  0
  2  3  2  0
  2  1  1  0
  4  2  1  0
  5  4  1  0
  5  6  1  0
  6  7  1  6
  6  8  1  0
  8  9  2  0
 10  8  1  0
 10 11  1  0
 11 12  1  6
 13 12  1  0
 14 13  2  0
 15 16  1  0
 15 14  1  0
 16 17  2  0
 17 13  1  0
 18 11  1  0
 18 19  2  0
 20 21  1  0
 21 23  1  0
 21 22  2  0
 24 23  1  1
 24 25  1  0
 24 26  1  0
 25 18  1  0
 26 27  1  0
 28 26  2  0
M  END
$$$$
