QHN.pdb
     RDKit          3D

 28 28  0  0  1  0  0  0  0  0999 V2000
   17.4890  -14.1790   17.2940 N   0  0  0  0  0  0  0  0  0  0  0  0
   16.8785  -14.9307   18.3426 C   0  0  0  0  0  0  0  0  0  0  0  0
   17.5069  -15.1360   19.4079 O   0  0  0  0  0  0  0  0  0  0  0  0
   15.5153  -15.4677   18.1893 C   0  0  0  0  0  0  0  0  0  0  0  0
   14.6822  -14.5723   17.3460 C   0  0  0  0  0  0  0  0  0  0  0  0
   13.2696  -15.0766   17.2844 C   0  0  2  0  0  0  0  0  0  0  0  0
   12.6042  -14.3241   16.2171 N   0  0  0  0  0  0  0  0  0  0  0  0
   12.5479  -14.7641   18.5549 C   0  0  0  0  0  0  0  0  0  0  0  0
   12.8832  -13.6639   19.1069 O   0  0  0  0  0  0  0  0  0  0  0  0
   11.5740  -15.6217   19.0958 N   0  0  0  0  0  0  0  0  0  0  0  0
   11.0886  -15.2904   20.4794 C   0  0  1  0  0  0  0  0  0  0  0  0
    9.6147  -15.5000   20.3680 C   0  0  0  0  0  0  0  0  0  0  0  0
    8.8747  -14.3962   19.7637 C   0  0  0  0  0  0  0  0  0  0  0  0
    9.5184  -13.1959   19.3656 C   0  0  0  0  0  0  0  0  0  0  0  0
    8.6292  -12.3443   18.8413 N   0  0  0  0  0  0  0  0  0  0  0  0
    7.4394  -12.9588   18.8906 C   0  0  0  0  0  0  0  0  0  0  0  0
    7.6040  -14.1686   19.4380 N   0  0  0  0  0  0  0  0  0  0  0  0
   11.7857  -16.1717   21.4126 C   0  0  0  0  0  0  0  0  0  0  0  0
   12.2273  -17.2779   20.9479 O   0  0  0  0  0  0  0  0  0  0  0  0
   15.7848  -16.5931   25.6765 N   0  0  0  0  0  0  0  0  0  0  0  0
   15.0020  -17.0983   24.6096 C   0  0  0  0  0  0  0  0  0  0  0  0
   15.0684  -18.3516   24.3476 O   0  0  0  0  0  0  0  0  0  0  0  0
   14.1010  -16.3293   23.7513 C   0  0  0  0  0  0  0  0  0  0  0  0
   12.6933  -16.7848   23.6855 C   0  0  2  0  0  0  0  0  0  0  0  0
   12.0013  -15.8808   22.7560 N   0  0  0  0  0  0  0  0  0  0  0  0
   11.9645  -16.7922   24.9704 C   0  0  0  0  0  0  0  0  0  0  0  0
   11.9960  -17.8163   25.9010 O   0  0  0  0  0  0  0  0  0  0  0  0
   11.2518  -15.7988   25.2633 O   0  0  0  0  0  0  0  0  0  0  0  0
  2  3  2  0
  2  1  1  0
  4  2  1  0
  5  4  1  0
  5  6  1  0
  6  7  1  6
  6  8  1  0
  8  9  2  0
 10  8  1  0
 10 11  1  0
 11 12  1  6
 13 12  1  0
 14 13  2  0
 15 16  1  0
 15 14  1  0
 16 17  2  0
 17 13  1  0
 18 11  1  0
 18 19  2  0
 20 21  1  0
 21 23  1  0
 21 22  2  0
 24 23  1  1
 24 25  1  0
 24 26  1  0
 25 18  1  0
 26 27  1  0
 28 26  2  0
M  END
$$$$
