QHN.pdb
     RDKit          3D

 28 28  0  0  1  0  0  0  0  0999 V2000
   11.5051  -16.3058   14.5687 N   0  0  0  0  0  0  0  0  0  0  0  0
   10.8138  -17.5415   14.7488 C   0  0  0  0  0  0  0  0  0  0  0  0
   10.6822  -18.3275   13.7809 O   0  0  0  0  0  0  0  0  0  0  0  0
   10.2536  -17.9069   16.0614 C   0  0  0  0  0  0  0  0  0  0  0  0
   10.5389  -16.8569   17.0729 C   0  0  0  0  0  0  0  0  0  0  0  0
   10.8440  -17.4814   18.4035 C   0  0  2  0  0  0  0  0  0  0  0  0
    9.7243  -18.3757   18.7110 N   0  0  0  0  0  0  0  0  0  0  0  0
   10.8778  -16.4393   19.4738 C   0  0  0  0  0  0  0  0  0  0  0  0
   11.8578  -15.6257   19.4011 O   0  0  0  0  0  0  0  0  0  0  0  0
    9.9005  -16.3662   20.4818 N   0  0  0  0  0  0  0  0  0  0  0  0
   10.0287  -15.2259   21.4528 C   0  0  1  0  0  0  0  0  0  0  0  0
    8.6366  -14.6900   21.5138 C   0  0  0  0  0  0  0  0  0  0  0  0
    8.0782  -14.2656   20.2334 C   0  0  0  0  0  0  0  0  0  0  0  0
    8.5281  -13.0915   19.5758 C   0  0  0  0  0  0  0  0  0  0  0  0
    7.8656  -12.9210   18.4256 N   0  0  0  0  0  0  0  0  0  0  0  0
    7.0080  -13.9457   18.3253 C   0  0  0  0  0  0  0  0  0  0  0  0
    7.1477  -14.7287   19.4014 N   0  0  0  0  0  0  0  0  0  0  0  0
   10.5541  -15.7695   22.7026 C   0  0  0  0  0  0  0  0  0  0  0  0
   10.4684  -15.0279   23.7405 O   0  0  0  0  0  0  0  0  0  0  0  0
    9.3169  -20.0883   22.9251 N   0  0  0  0  0  0  0  0  0  0  0  0
    9.8297  -19.2252   23.9243 C   0  0  0  0  0  0  0  0  0  0  0  0
    8.9975  -18.6049   24.6769 O   0  0  0  0  0  0  0  0  0  0  0  0
   11.2407  -18.9567   24.2016 C   0  0  0  0  0  0  0  0  0  0  0  0
   11.6855  -17.5486   24.0884 C   0  0  2  0  0  0  0  0  0  0  0  0
   11.1276  -17.0306   22.8312 N   0  0  0  0  0  0  0  0  0  0  0  0
   13.1480  -17.3404   24.0792 C   0  0  0  0  0  0  0  0  0  0  0  0
   13.8677  -16.7719   23.0425 O   0  0  0  0  0  0  0  0  0  0  0  0
   13.8131  -17.7011   25.0832 O   0  0  0  0  0  0  0  0  0  0  0  0
  2  3  2  0
  2  1  1  0
  4  2  1  0
  5  4  1  0
  5  6  1  0
  6  7  1  1
  6  8  1  0
  8  9  2  0
 10  8  1  0
 10 11  1  0
 11 12  1  1
 13 12  1  0
 14 13  2  0
 15 16  1  0
 15 14  1  0
 16 17  2  0
 17 13  1  0
 18 11  1  0
 18 19  2  0
 20 21  1  0
 21 23  1  0
 21 22  2  0
 24 23  1  6
 24 25  1  0
 24 26  1  0
 25 18  1  0
 26 27  1  0
 28 26  2  0
M  END
$$$$
