QHN.pdb
     RDKit          3D

 28 28  0  0  1  0  0  0  0  0999 V2000
   16.0364  -14.9737   12.8363 N   0  0  0  0  0  0  0  0  0  0  0  0
   14.7737  -15.5639   12.5293 C   0  0  0  0  0  0  0  0  0  0  0  0
   14.2511  -15.3664   11.4069 O   0  0  0  0  0  0  0  0  0  0  0  0
   14.0759  -16.4061   13.5163 C   0  0  0  0  0  0  0  0  0  0  0  0
   14.1695  -15.8191   14.8778 C   0  0  0  0  0  0  0  0  0  0  0  0
   13.5220  -16.7256   15.8840 C   0  0  2  0  0  0  0  0  0  0  0  0
   12.5049  -17.4935   15.1601 N   0  0  0  0  0  0  0  0  0  0  0  0
   12.8074  -15.9254   16.9241 C   0  0  0  0  0  0  0  0  0  0  0  0
   13.5598  -15.1963   17.6522 O   0  0  0  0  0  0  0  0  0  0  0  0
   11.4116  -15.9764   17.0831 N   0  0  0  0  0  0  0  0  0  0  0  0
   10.8295  -15.0910   18.1495 C   0  0  1  0  0  0  0  0  0  0  0  0
    9.4037  -14.9628   17.7260 C   0  0  0  0  0  0  0  0  0  0  0  0
    8.5524  -14.2009   18.6348 C   0  0  0  0  0  0  0  0  0  0  0  0
    7.7253  -14.8402   19.5943 C   0  0  0  0  0  0  0  0  0  0  0  0
    7.0473  -13.9298   20.3030 N   0  0  0  0  0  0  0  0  0  0  0  0
    7.4126  -12.7305   19.8295 C   0  0  0  0  0  0  0  0  0  0  0  0
    8.3013  -12.9105   18.8455 N   0  0  0  0  0  0  0  0  0  0  0  0
   11.0525  -15.7468   19.4354 C   0  0  0  0  0  0  0  0  0  0  0  0
   11.6757  -16.8630   19.4184 O   0  0  0  0  0  0  0  0  0  0  0  0
   13.0896  -17.8244   22.7385 N   0  0  0  0  0  0  0  0  0  0  0  0
   13.4842  -16.5192   22.3552 C   0  0  0  0  0  0  0  0  0  0  0  0
   14.7366  -16.2466   22.3273 O   0  0  0  0  0  0  0  0  0  0  0  0
   12.5984  -15.4185   21.9761 C   0  0  0  0  0  0  0  0  0  0  0  0
   11.1462  -15.7086   21.9564 C   0  0  2  0  0  0  0  0  0  0  0  0
   10.6396  -15.2338   20.6611 N   0  0  0  0  0  0  0  0  0  0  0  0
   10.3553  -15.0798   23.0340 C   0  0  0  0  0  0  0  0  0  0  0  0
   10.0789  -15.6551   24.2622 O   0  0  0  0  0  0  0  0  0  0  0  0
    9.8854  -13.9296   22.8424 O   0  0  0  0  0  0  0  0  0  0  0  0
  2  3  2  0
  2  1  1  0
  4  2  1  0
  5  4  1  0
  5  6  1  0
  6  7  1  6
  6  8  1  0
  8  9  2  0
 10  8  1  0
 10 11  1  0
 11 12  1  6
 13 12  1  0
 14 13  2  0
 15 16  1  0
 15 14  1  0
 16 17  2  0
 17 13  1  0
 18 11  1  0
 18 19  2  0
 20 21  1  0
 21 23  1  0
 21 22  2  0
 24 23  1  1
 24 25  1  0
 24 26  1  0
 25 18  1  0
 26 27  1  0
 28 26  2  0
M  END
$$$$
