QHN.pdb
     RDKit          3D

 28 28  0  0  1  0  0  0  0  0999 V2000
   11.2807  -15.0234   13.3607 N   0  0  0  0  0  0  0  0  0  0  0  0
   10.8092  -16.3664   13.2553 C   0  0  0  0  0  0  0  0  0  0  0  0
   10.7107  -16.9044   12.1271 O   0  0  0  0  0  0  0  0  0  0  0  0
   10.4380  -17.1311   14.4585 C   0  0  0  0  0  0  0  0  0  0  0  0
   10.7011  -16.3447   15.6911 C   0  0  0  0  0  0  0  0  0  0  0  0
   10.9712  -17.2614   16.8489 C   0  0  2  0  0  0  0  0  0  0  0  0
    9.9309  -18.2934   16.8153 N   0  0  0  0  0  0  0  0  0  0  0  0
   10.8181  -16.5284   18.1419 C   0  0  0  0  0  0  0  0  0  0  0  0
   11.6912  -15.6222   18.3526 O   0  0  0  0  0  0  0  0  0  0  0  0
    9.7880  -16.8200   19.0530 N   0  0  0  0  0  0  0  0  0  0  0  0
    9.6987  -15.9338   20.2640 C   0  0  1  0  0  0  0  0  0  0  0  0
    8.2452  -15.5971   20.3165 C   0  0  0  0  0  0  0  0  0  0  0  0
    7.7798  -14.6911   19.2706 C   0  0  0  0  0  0  0  0  0  0  0  0
    8.1479  -13.3209   19.2524 C   0  0  0  0  0  0  0  0  0  0  0  0
    7.5974  -12.7064   18.1987 N   0  0  0  0  0  0  0  0  0  0  0  0
    6.8902  -13.6367   17.5428 C   0  0  0  0  0  0  0  0  0  0  0  0
    7.0097  -14.8016   18.1902 N   0  0  0  0  0  0  0  0  0  0  0  0
   10.2158  -16.6902   21.4015 C   0  0  0  0  0  0  0  0  0  0  0  0
    9.8340  -17.9052   21.5135 O   0  0  0  0  0  0  0  0  0  0  0  0
   13.6996  -17.6677   21.4979 N   0  0  0  0  0  0  0  0  0  0  0  0
   13.9704  -16.9057   22.6608 C   0  0  0  0  0  0  0  0  0  0  0  0
   15.1690  -16.4922   22.8508 O   0  0  0  0  0  0  0  0  0  0  0  0
   13.0091  -16.5265   23.6961 C   0  0  0  0  0  0  0  0  0  0  0  0
   11.6058  -16.9533   23.4906 C   0  0  2  0  0  0  0  0  0  0  0  0
   11.0922  -16.1775   22.3529 N   0  0  0  0  0  0  0  0  0  0  0  0
   10.7039  -16.7569   24.6439 C   0  0  0  0  0  0  0  0  0  0  0  0
   10.6133  -17.5978   25.7396 O   0  0  0  0  0  0  0  0  0  0  0  0
    9.9487  -15.7519   24.6526 O   0  0  0  0  0  0  0  0  0  0  0  0
  2  3  2  0
  2  1  1  0
  4  2  1  0
  5  4  1  0
  5  6  1  0
  6  7  1  1
  6  8  1  0
  8  9  2  0
 10  8  1  0
 10 11  1  0
 11 12  1  1
 13 12  1  0
 14 13  2  0
 15 16  1  0
 15 14  1  0
 16 17  2  0
 17 13  1  0
 18 11  1  0
 18 19  2  0
 20 21  1  0
 21 23  1  0
 21 22  2  0
 24 23  1  1
 24 25  1  0
 24 26  1  0
 25 18  1  0
 26 27  1  0
 28 26  2  0
M  END
$$$$
