QHN.pdb
     RDKit          3D

 28 28  0  0  1  0  0  0  0  0999 V2000
    9.2767  -15.8781   15.2601 N   0  0  0  0  0  0  0  0  0  0  0  0
    8.5262  -17.0341   15.6310 C   0  0  0  0  0  0  0  0  0  0  0  0
    7.3098  -17.1071   15.3362 O   0  0  0  0  0  0  0  0  0  0  0  0
    9.1651  -18.1463   16.3556 C   0  0  0  0  0  0  0  0  0  0  0  0
    8.6616  -18.2317   17.7506 C   0  0  0  0  0  0  0  0  0  0  0  0
    9.8023  -18.4218   18.7079 C   0  0  2  0  0  0  0  0  0  0  0  0
    9.3619  -19.4177   19.6889 N   0  0  0  0  0  0  0  0  0  0  0  0
   10.0702  -17.1578   19.4583 C   0  0  0  0  0  0  0  0  0  0  0  0
   11.2476  -16.6873   19.3157 O   0  0  0  0  0  0  0  0  0  0  0  0
    9.0946  -16.5387   20.2592 N   0  0  0  0  0  0  0  0  0  0  0  0
    9.5248  -15.3016   20.9969 C   0  0  1  0  0  0  0  0  0  0  0  0
    8.3808  -14.3701   20.7686 C   0  0  0  0  0  0  0  0  0  0  0  0
    8.1553  -13.9933   19.3763 C   0  0  0  0  0  0  0  0  0  0  0  0
    7.1165  -13.1016   19.0036 C   0  0  0  0  0  0  0  0  0  0  0  0
    7.1175  -12.9157   17.6783 N   0  0  0  0  0  0  0  0  0  0  0  0
    8.1213  -13.6579   17.1912 C   0  0  0  0  0  0  0  0  0  0  0  0
    8.7223  -14.2867   18.2079 N   0  0  0  0  0  0  0  0  0  0  0  0
    9.7667  -15.6802   22.3867 C   0  0  0  0  0  0  0  0  0  0  0  0
    8.7419  -15.8147   23.1393 O   0  0  0  0  0  0  0  0  0  0  0  0
   10.6347  -18.2851   26.7546 N   0  0  0  0  0  0  0  0  0  0  0  0
   10.7289  -18.6869   25.3996 C   0  0  0  0  0  0  0  0  0  0  0  0
   10.9878  -19.9170   25.1473 O   0  0  0  0  0  0  0  0  0  0  0  0
   10.5578  -17.8325   24.2247 C   0  0  0  0  0  0  0  0  0  0  0  0
   11.2477  -16.5222   24.2477 C   0  0  2  0  0  0  0  0  0  0  0  0
   11.0268  -15.9070   22.9314 N   0  0  0  0  0  0  0  0  0  0  0  0
   12.7005  -16.5708   24.5104 C   0  0  0  0  0  0  0  0  0  0  0  0
   13.6819  -16.0788   23.6672 O   0  0  0  0  0  0  0  0  0  0  0  0
   13.1012  -17.0969   25.5795 O   0  0  0  0  0  0  0  0  0  0  0  0
  2  3  2  0
  2  1  1  0
  4  2  1  0
  5  4  1  0
  5  6  1  0
  6  7  1  1
  6  8  1  0
  8  9  2  0
 10  8  1  0
 10 11  1  0
 11 12  1  1
 13 12  1  0
 14 13  2  0
 15 16  1  0
 15 14  1  0
 16 17  2  0
 17 13  1  0
 18 11  1  0
 18 19  2  0
 20 21  1  0
 21 23  1  0
 21 22  2  0
 24 23  1  6
 24 25  1  0
 24 26  1  0
 25 18  1  0
 26 27  1  0
 28 26  2  0
M  END
$$$$
