LLR.pdb
     RDKit          3D

 28 27  0  0  1  0  0  0  0  0999 V2000
   19.9670  -35.9690    5.4516 C   0  0  0  0  0  0  0  0  0  0  0  0
   20.1579  -34.6207    6.1147 C   0  0  1  0  0  0  0  0  0  0  0  0
   20.9362  -34.8957    7.4047 C   0  0  0  0  0  0  0  0  0  0  0  0
   20.9693  -33.7410    5.1873 C   0  0  0  0  0  0  0  0  0  0  0  0
   21.3299  -32.4238    5.8647 C   0  0  2  0  0  0  0  0  0  0  0  0
   20.1808  -31.5806    5.9479 N   0  0  0  0  0  0  0  0  0  0  0  0
   22.4627  -31.8527    5.1003 C   0  0  0  0  0  0  0  0  0  0  0  0
   22.1829  -31.0152    4.1973 O   0  0  0  0  0  0  0  0  0  0  0  0
   26.2453  -28.8956    7.1798 C   0  0  0  0  0  0  0  0  0  0  0  0
   25.2730  -29.4890    6.1472 C   0  0  1  0  0  0  0  0  0  0  0  0
   24.9252  -28.4466    5.1183 C   0  0  0  0  0  0  0  0  0  0  0  0
   25.8333  -30.7529    5.5821 C   0  0  0  0  0  0  0  0  0  0  0  0
   24.9149  -31.4811    4.6337 C   0  0  2  0  0  0  0  0  0  0  0  0
   23.8296  -32.1686    5.2996 N   0  0  0  0  0  0  0  0  0  0  0  0
   25.7456  -32.4174    3.8268 C   0  0  0  0  0  0  0  0  0  0  0  0
   26.6478  -31.8813    3.1165 O   0  0  0  0  0  0  0  0  0  0  0  0
   27.8035  -33.0912   -3.0732 N   0  0  0  0  0  0  0  0  0  0  0  0
   28.4737  -34.2710   -2.6387 C   0  0  0  0  0  0  0  0  0  0  0  0
   29.5853  -34.5841   -3.1898 N   0  0  0  0  0  0  0  0  0  0  0  0
   27.9607  -35.1112   -1.6245 N   0  0  0  0  0  0  0  0  0  0  0  0
   26.6730  -34.7550   -0.9216 C   0  0  0  0  0  0  0  0  0  0  0  0
   26.9916  -34.9068    0.5091 C   0  0  0  0  0  0  0  0  0  0  0  0
   26.1018  -34.5630    1.5914 C   0  0  0  0  0  0  0  0  0  0  0  0
   26.4834  -34.7041    3.0042 C   0  0  2  0  0  0  0  0  0  0  0  0
   25.5980  -33.7924    3.8060 N   0  0  0  0  0  0  0  0  0  0  0  0
   27.8277  -34.2482    3.3610 C   0  0  0  0  0  0  0  0  0  0  0  0
   28.8645  -35.1795    3.5163 O   0  0  0  0  0  0  0  0  0  0  0  0
   28.1299  -33.0716    3.5420 O   0  0  0  0  0  0  0  0  0  0  0  0
  2  4  1  0
  2  1  1  6
  2  3  1  0
  5  4  1  0
  5  6  1  6
  7  5  1  0
  8  7  2  0
 10  9  1  1
 10 11  1  0
 13 12  1  1
 12 10  1  0
 13 14  1  0
 14  7  1  0
 15 13  1  0
 15 16  2  0
 18 17  1  0
 18 20  1  0
 19 18  2  0
 20 21  1  0
 21 22  1  0
 22 23  1  0
 24 23  1  6
 24 25  1  0
 24 26  1  0
 25 15  1  0
 26 28  2  0
 26 27  1  0
M  END
$$$$
