LLR.pdb
     RDKit          3D

 28 27  0  0  1  0  0  0  0  0999 V2000
   33.8438  -23.1865   -9.5314 C   0  0  0  0  0  0  0  0  0  0  0  0
   32.8604  -22.3307  -10.3025 C   0  0  1  0  0  0  0  0  0  0  0  0
   33.2202  -22.5092  -11.7805 C   0  0  0  0  0  0  0  0  0  0  0  0
   31.4626  -22.8471  -10.0346 C   0  0  0  0  0  0  0  0  0  0  0  0
   30.4134  -21.8702  -10.5531 C   0  0  2  0  0  0  0  0  0  0  0  0
   31.0199  -20.6177  -10.8723 N   0  0  0  0  0  0  0  0  0  0  0  0
   29.3552  -21.7999   -9.5193 C   0  0  0  0  0  0  0  0  0  0  0  0
   28.6472  -22.8320   -9.3502 O   0  0  0  0  0  0  0  0  0  0  0  0
   27.6866  -18.9042   -4.2957 C   0  0  0  0  0  0  0  0  0  0  0  0
   27.2673  -19.8094   -5.4655 C   0  0  1  0  0  0  0  0  0  0  0  0
   25.8887  -19.4282   -5.9348 C   0  0  0  0  0  0  0  0  0  0  0  0
   28.3121  -19.7860   -6.5325 C   0  0  0  0  0  0  0  0  0  0  0  0
   27.9985  -20.6316   -7.7407 C   0  0  2  0  0  0  0  0  0  0  0  0
   29.0741  -20.6727   -8.7078 N   0  0  0  0  0  0  0  0  0  0  0  0
   26.7384  -20.1138   -8.3421 C   0  0  0  0  0  0  0  0  0  0  0  0
   26.6442  -18.8527   -8.4237 O   0  0  0  0  0  0  0  0  0  0  0  0
   22.0923  -23.2574  -13.9216 N   0  0  0  0  0  0  0  0  0  0  0  0
   22.4765  -22.1372  -14.7138 C   0  0  0  0  0  0  0  0  0  0  0  0
   21.6550  -21.6930  -15.5886 N   0  0  0  0  0  0  0  0  0  0  0  0
   23.7287  -21.4965  -14.5743 N   0  0  0  0  0  0  0  0  0  0  0  0
   24.7265  -21.9920  -13.5556 C   0  0  0  0  0  0  0  0  0  0  0  0
   24.3806  -21.2552  -12.3271 C   0  0  0  0  0  0  0  0  0  0  0  0
   25.1425  -21.2930  -11.1026 C   0  0  0  0  0  0  0  0  0  0  0  0
   24.7878  -20.4869   -9.9253 C   0  0  2  0  0  0  0  0  0  0  0  0
   25.6977  -20.8997   -8.8028 N   0  0  0  0  0  0  0  0  0  0  0  0
   23.4554  -20.7123   -9.3632 C   0  0  0  0  0  0  0  0  0  0  0  0
   22.3538  -20.0074   -9.8694 O   0  0  0  0  0  0  0  0  0  0  0  0
   23.2175  -21.4982   -8.4498 O   0  0  0  0  0  0  0  0  0  0  0  0
  2  4  1  0
  2  1  1  1
  2  3  1  0
  5  4  1  0
  5  6  1  1
  7  5  1  0
  8  7  2  0
 10  9  1  1
 10 11  1  0
 13 12  1  1
 12 10  1  0
 13 14  1  0
 14  7  1  0
 15 13  1  0
 15 16  2  0
 18 17  1  0
 18 20  1  0
 19 18  2  0
 20 21  1  0
 21 22  1  0
 22 23  1  0
 24 23  1  6
 24 25  1  0
 24 26  1  0
 25 15  1  0
 26 28  2  0
 26 27  1  0
M  END
$$$$
