LLR.pdb
     RDKit          3D

 28 27  0  0  1  0  0  0  0  0999 V2000
   29.8463  -20.2304  -17.0124 C   0  0  0  0  0  0  0  0  0  0  0  0
   29.1037  -19.2954  -16.0806 C   0  0  1  0  0  0  0  0  0  0  0  0
   28.1276  -18.5129  -16.9642 C   0  0  0  0  0  0  0  0  0  0  0  0
   28.3461  -20.1288  -15.0688 C   0  0  0  0  0  0  0  0  0  0  0  0
   27.5717  -19.2396  -14.1026 C   0  0  2  0  0  0  0  0  0  0  0  0
   28.4281  -18.2317  -13.5648 N   0  0  0  0  0  0  0  0  0  0  0  0
   26.9658  -20.1397  -13.0944 C   0  0  0  0  0  0  0  0  0  0  0  0
   26.4414  -21.2075  -13.5183 O   0  0  0  0  0  0  0  0  0  0  0  0
   28.2039  -19.9974   -7.6371 C   0  0  0  0  0  0  0  0  0  0  0  0
   27.9238  -20.4390   -9.0830 C   0  0  1  0  0  0  0  0  0  0  0  0
   28.6180  -21.7458   -9.3593 C   0  0  0  0  0  0  0  0  0  0  0  0
   26.4524  -20.4542   -9.3388 C   0  0  0  0  0  0  0  0  0  0  0  0
   26.0658  -20.6218  -10.7865 C   0  0  2  0  0  0  0  0  0  0  0  0
   26.9274  -19.9005  -11.6982 N   0  0  0  0  0  0  0  0  0  0  0  0
   24.6435  -20.2037  -10.9276 C   0  0  0  0  0  0  0  0  0  0  0  0
   24.4385  -18.9541  -10.9747 O   0  0  0  0  0  0  0  0  0  0  0  0
   20.6705  -25.0467  -15.3005 N   0  0  0  0  0  0  0  0  0  0  0  0
   19.9948  -23.9349  -15.8811 C   0  0  0  0  0  0  0  0  0  0  0  0
   18.8005  -24.0981  -16.3107 N   0  0  0  0  0  0  0  0  0  0  0  0
   20.5896  -22.6586  -16.0038 N   0  0  0  0  0  0  0  0  0  0  0  0
   21.9982  -22.4263  -15.5128 C   0  0  0  0  0  0  0  0  0  0  0  0
   21.8256  -21.5938  -14.3092 C   0  0  0  0  0  0  0  0  0  0  0  0
   22.5879  -21.7375  -13.0928 C   0  0  0  0  0  0  0  0  0  0  0  0
   22.4035  -20.8510  -11.9345 C   0  0  2  0  0  0  0  0  0  0  0  0
   23.5667  -21.0680  -11.0081 N   0  0  0  0  0  0  0  0  0  0  0  0
   21.2499  -21.1337  -11.0793 C   0  0  0  0  0  0  0  0  0  0  0  0
   19.9748  -20.6857  -11.4534 O   0  0  0  0  0  0  0  0  0  0  0  0
   21.3130  -21.7545  -10.0214 O   0  0  0  0  0  0  0  0  0  0  0  0
  2  4  1  0
  2  1  1  6
  2  3  1  0
  5  4  1  0
  5  6  1  1
  7  5  1  0
  8  7  2  0
 10  9  1  1
 10 11  1  0
 13 12  1  1
 12 10  1  0
 13 14  1  0
 14  7  1  0
 15 13  1  0
 15 16  2  0
 18 17  1  0
 18 20  1  0
 19 18  2  0
 20 21  1  0
 21 22  1  0
 22 23  1  0
 24 23  1  6
 24 25  1  0
 24 26  1  0
 25 15  1  0
 26 28  2  0
 26 27  1  0
M  END
$$$$
