LLR.pdb
     RDKit          3D

 28 27  0  0  1  0  0  0  0  0999 V2000
   29.4580  -20.7358  -17.8357 C   0  0  0  0  0  0  0  0  0  0  0  0
   28.6440  -19.6757  -17.1231 C   0  0  1  0  0  0  0  0  0  0  0  0
   27.7520  -19.0427  -18.1952 C   0  0  0  0  0  0  0  0  0  0  0  0
   27.7975  -20.3517  -16.0655 C   0  0  0  0  0  0  0  0  0  0  0  0
   26.8737  -19.3478  -15.3850 C   0  0  2  0  0  0  0  0  0  0  0  0
   27.6373  -18.2973  -14.7919 N   0  0  0  0  0  0  0  0  0  0  0  0
   26.0395  -20.1191  -14.4348 C   0  0  0  0  0  0  0  0  0  0  0  0
   25.5175  -21.1863  -14.8632 O   0  0  0  0  0  0  0  0  0  0  0  0
   26.2925  -19.6667   -8.7030 C   0  0  0  0  0  0  0  0  0  0  0  0
   26.3314  -20.1828  -10.1507 C   0  0  1  0  0  0  0  0  0  0  0  0
   26.9129  -21.5710  -10.1804 C   0  0  0  0  0  0  0  0  0  0  0  0
   24.9790  -20.0654  -10.7738 C   0  0  0  0  0  0  0  0  0  0  0  0
   24.9074  -20.5084  -12.2132 C   0  0  2  0  0  0  0  0  0  0  0  0
   25.7810  -19.7578  -13.0892 N   0  0  0  0  0  0  0  0  0  0  0  0
   23.4852  -20.4172  -12.6456 C   0  0  0  0  0  0  0  0  0  0  0  0
   23.0233  -19.2446  -12.7772 O   0  0  0  0  0  0  0  0  0  0  0  0
   21.2914  -25.9129  -15.9064 N   0  0  0  0  0  0  0  0  0  0  0  0
   20.5797  -26.1451  -14.6941 C   0  0  0  0  0  0  0  0  0  0  0  0
   20.8301  -27.2093  -14.0291 N   0  0  0  0  0  0  0  0  0  0  0  0
   19.6069  -25.2488  -14.1959 N   0  0  0  0  0  0  0  0  0  0  0  0
   19.0631  -24.1505  -15.0774 C   0  0  0  0  0  0  0  0  0  0  0  0
   19.4997  -22.9092  -14.4141 C   0  0  0  0  0  0  0  0  0  0  0  0
   20.8510  -22.6339  -13.9901 C   0  0  0  0  0  0  0  0  0  0  0  0
   21.2398  -21.3617  -13.3642 C   0  0  2  0  0  0  0  0  0  0  0  0
   22.6639  -21.4995  -12.9045 N   0  0  0  0  0  0  0  0  0  0  0  0
   20.5342  -21.0028  -12.1332 C   0  0  0  0  0  0  0  0  0  0  0  0
   19.3225  -20.3001  -12.2003 O   0  0  0  0  0  0  0  0  0  0  0  0
   20.9344  -21.2784  -11.0051 O   0  0  0  0  0  0  0  0  0  0  0  0
  2  4  1  0
  2  1  1  6
  2  3  1  0
  5  4  1  0
  5  6  1  1
  7  5  1  0
  8  7  2  0
 10  9  1  1
 10 11  1  0
 13 12  1  1
 12 10  1  0
 13 14  1  0
 14  7  1  0
 15 13  1  0
 15 16  2  0
 18 17  1  0
 18 20  1  0
 19 18  2  0
 20 21  1  0
 21 22  1  0
 22 23  1  0
 24 23  1  1
 24 25  1  0
 24 26  1  0
 25 15  1  0
 26 28  2  0
 26 27  1  0
M  END
$$$$
