LLR.pdb
     RDKit          3D

 28 27  0  0  1  0  0  0  0  0999 V2000
   26.3652  -23.2950  -21.0970 C   0  0  0  0  0  0  0  0  0  0  0  0
   27.2284  -22.6210  -20.0506 C   0  0  1  0  0  0  0  0  0  0  0  0
   27.8572  -21.4092  -20.7446 C   0  0  0  0  0  0  0  0  0  0  0  0
   26.3379  -22.1722  -18.9113 C   0  0  0  0  0  0  0  0  0  0  0  0
   27.1299  -21.3677  -17.8867 C   0  0  2  0  0  0  0  0  0  0  0  0
   27.9943  -22.2282  -17.1446 N   0  0  0  0  0  0  0  0  0  0  0  0
   26.1375  -20.6326  -17.0693 C   0  0  0  0  0  0  0  0  0  0  0  0
   25.6020  -21.2604  -16.1131 O   0  0  0  0  0  0  0  0  0  0  0  0
   26.4110  -15.1477  -15.9325 C   0  0  0  0  0  0  0  0  0  0  0  0
   26.2377  -16.6659  -15.7627 C   0  0  1  0  0  0  0  0  0  0  0  0
   26.3680  -17.0332  -14.3087 C   0  0  0  0  0  0  0  0  0  0  0  0
   24.9632  -17.1114  -16.4013 C   0  0  0  0  0  0  0  0  0  0  0  0
   24.7690  -18.6059  -16.4457 C   0  0  2  0  0  0  0  0  0  0  0  0
   25.7419  -19.2872  -17.2724 N   0  0  0  0  0  0  0  0  0  0  0  0
   23.3771  -18.8691  -16.9050 C   0  0  0  0  0  0  0  0  0  0  0  0
   23.1291  -18.5709  -18.1114 O   0  0  0  0  0  0  0  0  0  0  0  0
   16.9759  -24.1599  -13.5151 N   0  0  0  0  0  0  0  0  0  0  0  0
   17.1385  -22.7727  -13.2334 C   0  0  0  0  0  0  0  0  0  0  0  0
   16.5914  -22.2915  -12.1815 N   0  0  0  0  0  0  0  0  0  0  0  0
   17.8783  -21.9052  -14.0689 N   0  0  0  0  0  0  0  0  0  0  0  0
   18.4993  -22.4240  -15.3433 C   0  0  0  0  0  0  0  0  0  0  0  0
   19.0573  -21.2210  -15.9858 C   0  0  0  0  0  0  0  0  0  0  0  0
   20.4059  -20.7415  -15.8043 C   0  0  0  0  0  0  0  0  0  0  0  0
   20.9831  -19.6720  -16.6317 C   0  0  2  0  0  0  0  0  0  0  0  0
   22.3703  -19.4024  -16.1208 N   0  0  0  0  0  0  0  0  0  0  0  0
   20.3408  -18.3604  -16.5358 C   0  0  0  0  0  0  0  0  0  0  0  0
   19.4517  -17.9414  -17.5361 O   0  0  0  0  0  0  0  0  0  0  0  0
   20.5262  -17.5689  -15.6150 O   0  0  0  0  0  0  0  0  0  0  0  0
  2  4  1  0
  2  1  1  6
  2  3  1  0
  5  4  1  0
  5  6  1  1
  7  5  1  0
  8  7  2  0
 10  9  1  1
 10 11  1  0
 13 12  1  6
 12 10  1  0
 13 14  1  0
 14  7  1  0
 15 13  1  0
 15 16  2  0
 18 17  1  0
 18 20  1  0
 19 18  2  0
 20 21  1  0
 21 22  1  0
 22 23  1  0
 24 23  1  1
 24 25  1  0
 24 26  1  0
 25 15  1  0
 26 28  2  0
 26 27  1  0
M  END
$$$$
