LLR.pdb
     RDKit          3D

 28 27  0  0  1  0  0  0  0  0999 V2000
   29.7613  -22.6593  -16.8033 C   0  0  0  0  0  0  0  0  0  0  0  0
   29.0525  -21.3847  -16.3941 C   0  0  1  0  0  0  0  0  0  0  0  0
   28.3436  -20.8778  -17.6535 C   0  0  0  0  0  0  0  0  0  0  0  0
   28.0405  -21.7227  -15.3199 C   0  0  0  0  0  0  0  0  0  0  0  0
   27.1978  -20.5032  -14.9638 C   0  0  2  0  0  0  0  0  0  0  0  0
   28.0351  -19.4409  -14.5067 N   0  0  0  0  0  0  0  0  0  0  0  0
   26.1872  -20.9608  -13.9826 C   0  0  0  0  0  0  0  0  0  0  0  0
   25.4524  -21.9298  -14.3236 O   0  0  0  0  0  0  0  0  0  0  0  0
   26.3157  -19.9119   -8.3473 C   0  0  0  0  0  0  0  0  0  0  0  0
   26.2249  -20.6511   -9.6923 C   0  0  1  0  0  0  0  0  0  0  0  0
   26.3192  -22.1361   -9.4641 C   0  0  0  0  0  0  0  0  0  0  0  0
   25.0047  -20.2159  -10.4356 C   0  0  0  0  0  0  0  0  0  0  0  0
   24.8827  -20.7760  -11.8302 C   0  0  2  0  0  0  0  0  0  0  0  0
   25.9789  -20.4016  -12.6974 N   0  0  0  0  0  0  0  0  0  0  0  0
   23.5709  -20.3373  -12.3820 C   0  0  0  0  0  0  0  0  0  0  0  0
   23.4288  -19.0878  -12.5382 O   0  0  0  0  0  0  0  0  0  0  0  0
   18.1709  -25.4050  -16.7610 N   0  0  0  0  0  0  0  0  0  0  0  0
   18.9273  -25.2807  -15.5600 C   0  0  0  0  0  0  0  0  0  0  0  0
   19.3199  -26.3454  -14.9685 N   0  0  0  0  0  0  0  0  0  0  0  0
   19.2612  -24.0295  -14.9937 N   0  0  0  0  0  0  0  0  0  0  0  0
   18.8763  -22.7502  -15.6967 C   0  0  0  0  0  0  0  0  0  0  0  0
   19.4499  -21.6893  -14.8500 C   0  0  0  0  0  0  0  0  0  0  0  0
   20.7522  -21.7438  -14.2314 C   0  0  0  0  0  0  0  0  0  0  0  0
   21.2374  -20.7004  -13.3163 C   0  0  2  0  0  0  0  0  0  0  0  0
   22.5314  -21.1830  -12.7241 N   0  0  0  0  0  0  0  0  0  0  0  0
   20.4149  -20.4422  -12.1335 C   0  0  0  0  0  0  0  0  0  0  0  0
   19.4999  -19.3796  -12.1355 O   0  0  0  0  0  0  0  0  0  0  0  0
   20.4651  -21.1069  -11.1019 O   0  0  0  0  0  0  0  0  0  0  0  0
  2  4  1  0
  2  1  1  6
  2  3  1  0
  5  4  1  0
  5  6  1  1
  7  5  1  0
  8  7  2  0
 10  9  1  1
 10 11  1  0
 13 12  1  1
 12 10  1  0
 13 14  1  0
 14  7  1  0
 15 13  1  0
 15 16  2  0
 18 17  1  0
 18 20  1  0
 19 18  2  0
 20 21  1  0
 21 22  1  0
 22 23  1  0
 24 23  1  6
 24 25  1  0
 24 26  1  0
 25 15  1  0
 26 28  2  0
 26 27  1  0
M  END
$$$$
