LLR.pdb
     RDKit          3D

 28 27  0  0  1  0  0  0  0  0999 V2000
   30.0269  -23.7491  -17.0240 C   0  0  0  0  0  0  0  0  0  0  0  0
   29.2688  -22.4473  -16.8661 C   0  0  1  0  0  0  0  0  0  0  0  0
   29.1623  -21.8522  -18.2733 C   0  0  0  0  0  0  0  0  0  0  0  0
   27.8914  -22.7579  -16.3199 C   0  0  0  0  0  0  0  0  0  0  0  0
   27.0998  -21.4772  -16.0808 C   0  0  2  0  0  0  0  0  0  0  0  0
   27.9833  -20.3587  -15.9985 N   0  0  0  0  0  0  0  0  0  0  0  0
   26.2793  -21.7083  -14.8697 C   0  0  0  0  0  0  0  0  0  0  0  0
   25.4122  -22.6247  -14.9289 O   0  0  0  0  0  0  0  0  0  0  0  0
   25.1366  -22.0658   -9.5404 C   0  0  0  0  0  0  0  0  0  0  0  0
   25.0560  -20.6361  -10.1001 C   0  0  1  0  0  0  0  0  0  0  0  0
   25.2966  -19.6428   -8.9949 C   0  0  0  0  0  0  0  0  0  0  0  0
   25.9712  -20.4914  -11.2716 C   0  0  0  0  0  0  0  0  0  0  0  0
   25.5016  -21.1807  -12.5275 C   0  0  2  0  0  0  0  0  0  0  0  0
   26.3881  -20.9872  -13.6547 N   0  0  0  0  0  0  0  0  0  0  0  0
   24.1242  -20.6972  -12.8224 C   0  0  0  0  0  0  0  0  0  0  0  0
   24.0372  -19.5064  -13.2468 O   0  0  0  0  0  0  0  0  0  0  0  0
   19.0092  -24.7823  -17.8994 N   0  0  0  0  0  0  0  0  0  0  0  0
   20.2723  -24.2194  -17.5565 C   0  0  0  0  0  0  0  0  0  0  0  0
   21.2867  -24.4972  -18.2854 N   0  0  0  0  0  0  0  0  0  0  0  0
   20.4519  -23.3675  -16.4430 N   0  0  0  0  0  0  0  0  0  0  0  0
   19.2648  -22.9397  -15.6143 C   0  0  0  0  0  0  0  0  0  0  0  0
   19.8174  -21.9352  -14.6883 C   0  0  0  0  0  0  0  0  0  0  0  0
   21.1505  -21.9685  -14.1379 C   0  0  0  0  0  0  0  0  0  0  0  0
   21.6224  -20.9886  -13.1486 C   0  0  2  0  0  0  0  0  0  0  0  0
   22.9708  -21.4444  -12.6668 N   0  0  0  0  0  0  0  0  0  0  0  0
   20.8491  -20.8948  -11.9096 C   0  0  0  0  0  0  0  0  0  0  0  0
   19.6485  -20.1705  -11.8868 O   0  0  0  0  0  0  0  0  0  0  0  0
   21.1811  -21.4192  -10.8497 O   0  0  0  0  0  0  0  0  0  0  0  0
  2  4  1  0
  2  1  1  6
  2  3  1  0
  5  4  1  0
  5  6  1  1
  7  5  1  0
  8  7  2  0
 10  9  1  1
 10 11  1  0
 13 12  1  1
 12 10  1  0
 13 14  1  0
 14  7  1  0
 15 13  1  0
 15 16  2  0
 18 17  1  0
 18 20  1  0
 19 18  2  0
 20 21  1  0
 21 22  1  0
 22 23  1  0
 24 23  1  6
 24 25  1  0
 24 26  1  0
 25 15  1  0
 26 28  2  0
 26 27  1  0
M  END
$$$$
