LLR.pdb
     RDKit          3D

 28 27  0  0  1  0  0  0  0  0999 V2000
   32.4371  -22.7195  -18.5732 C   0  0  0  0  0  0  0  0  0  0  0  0
   30.9394  -22.8144  -18.7785 C   0  0  1  0  0  0  0  0  0  0  0  0
   30.5890  -24.2970  -18.6210 C   0  0  0  0  0  0  0  0  0  0  0  0
   30.2555  -21.9946  -17.7049 C   0  0  0  0  0  0  0  0  0  0  0  0
   28.7392  -22.0928  -17.8291 C   0  0  2  0  0  0  0  0  0  0  0  0
   28.3349  -21.8189  -19.1708 N   0  0  0  0  0  0  0  0  0  0  0  0
   28.1726  -21.1767  -16.8127 C   0  0  0  0  0  0  0  0  0  0  0  0
   28.4561  -21.4121  -15.6047 O   0  0  0  0  0  0  0  0  0  0  0  0
   26.5824  -15.6926  -17.6335 C   0  0  0  0  0  0  0  0  0  0  0  0
   27.2582  -16.9373  -17.0352 C   0  0  1  0  0  0  0  0  0  0  0  0
   28.2308  -16.5225  -15.9638 C   0  0  0  0  0  0  0  0  0  0  0  0
   26.2240  -17.9167  -16.5860 C   0  0  0  0  0  0  0  0  0  0  0  0
   26.7745  -19.2166  -16.0563 C   0  0  2  0  0  0  0  0  0  0  0  0
   27.3414  -20.0618  -17.0849 N   0  0  0  0  0  0  0  0  0  0  0  0
   25.6792  -19.9065  -15.3200 C   0  0  0  0  0  0  0  0  0  0  0  0
   24.8296  -20.5136  -16.0378 O   0  0  0  0  0  0  0  0  0  0  0  0
   23.6886  -21.5342   -6.4643 N   0  0  0  0  0  0  0  0  0  0  0  0
   22.6346  -21.8346   -7.3747 C   0  0  0  0  0  0  0  0  0  0  0  0
   21.5218  -22.2597   -6.9072 N   0  0  0  0  0  0  0  0  0  0  0  0
   22.7675  -21.6838   -8.7738 N   0  0  0  0  0  0  0  0  0  0  0  0
   24.0523  -21.1526   -9.3621 C   0  0  0  0  0  0  0  0  0  0  0  0
   23.8115  -21.1616  -10.8159 C   0  0  0  0  0  0  0  0  0  0  0  0
   24.7247  -20.6422  -11.8047 C   0  0  0  0  0  0  0  0  0  0  0  0
   24.4136  -20.6337  -13.2416 C   0  0  2  0  0  0  0  0  0  0  0  0
   25.5371  -19.9252  -13.9443 N   0  0  0  0  0  0  0  0  0  0  0  0
   23.2385  -19.8603  -13.6455 C   0  0  0  0  0  0  0  0  0  0  0  0
   22.0401  -20.5188  -13.9564 O   0  0  0  0  0  0  0  0  0  0  0  0
   23.2188  -18.6357  -13.7374 O   0  0  0  0  0  0  0  0  0  0  0  0
  2  4  1  0
  2  1  1  1
  2  3  1  0
  5  4  1  0
  5  6  1  6
  7  5  1  0
  8  7  2  0
 10  9  1  1
 10 11  1  0
 13 12  1  6
 12 10  1  0
 13 14  1  0
 14  7  1  0
 15 13  1  0
 15 16  2  0
 18 17  1  0
 18 20  1  0
 19 18  2  0
 20 21  1  0
 21 22  1  0
 22 23  1  0
 24 23  1  1
 24 25  1  0
 24 26  1  0
 25 15  1  0
 26 28  2  0
 26 27  1  0
M  END
$$$$
