LLR.pdb
     RDKit          3D

 28 27  0  0  1  0  0  0  0  0999 V2000
   18.5076  -23.4315   -9.7269 C   0  0  0  0  0  0  0  0  0  0  0  0
   19.4832  -23.2314   -8.5857 C   0  0  1  0  0  0  0  0  0  0  0  0
   20.1543  -24.5906   -8.3663 C   0  0  0  0  0  0  0  0  0  0  0  0
   20.5082  -22.1997   -9.0067 C   0  0  0  0  0  0  0  0  0  0  0  0
   21.6020  -22.0590   -7.9541 C   0  0  2  0  0  0  0  0  0  0  0  0
   21.0568  -21.5362   -6.7425 N   0  0  0  0  0  0  0  0  0  0  0  0
   22.6679  -21.2296   -8.5617 C   0  0  0  0  0  0  0  0  0  0  0  0
   22.3382  -20.0833   -8.9770 O   0  0  0  0  0  0  0  0  0  0  0  0
   27.9068  -20.6203   -6.7865 C   0  0  0  0  0  0  0  0  0  0  0  0
   26.5159  -20.3208   -7.3690 C   0  0  1  0  0  0  0  0  0  0  0  0
   26.2476  -18.8407   -7.3099 C   0  0  0  0  0  0  0  0  0  0  0  0
   26.3912  -20.9179   -8.7324 C   0  0  0  0  0  0  0  0  0  0  0  0
   25.0234  -20.7903   -9.3539 C   0  0  2  0  0  0  0  0  0  0  0  0
   24.0226  -21.6166   -8.7141 N   0  0  0  0  0  0  0  0  0  0  0  0
   25.1525  -21.1066  -10.8034 C   0  0  0  0  0  0  0  0  0  0  0  0
   25.2253  -22.3377  -11.0945 O   0  0  0  0  0  0  0  0  0  0  0  0
   26.3102  -19.7312  -18.4277 N   0  0  0  0  0  0  0  0  0  0  0  0
   24.9398  -19.3518  -18.5176 C   0  0  0  0  0  0  0  0  0  0  0  0
   24.2653  -19.7238  -19.5394 N   0  0  0  0  0  0  0  0  0  0  0  0
   24.2944  -18.5798  -17.5250 N   0  0  0  0  0  0  0  0  0  0  0  0
   25.0674  -18.0811  -16.3280 C   0  0  0  0  0  0  0  0  0  0  0  0
   25.2512  -19.2821  -15.4942 C   0  0  0  0  0  0  0  0  0  0  0  0
   25.0992  -19.3195  -14.0600 C   0  0  0  0  0  0  0  0  0  0  0  0
   25.3579  -20.5312  -13.2686 C   0  0  2  0  0  0  0  0  0  0  0  0
   25.1962  -20.1689  -11.8192 N   0  0  0  0  0  0  0  0  0  0  0  0
   26.7214  -21.0607  -13.3211 C   0  0  0  0  0  0  0  0  0  0  0  0
   27.0457  -22.0695  -14.2395 O   0  0  0  0  0  0  0  0  0  0  0  0
   27.6369  -20.6774  -12.5975 O   0  0  0  0  0  0  0  0  0  0  0  0
  2  4  1  0
  2  1  1  6
  2  3  1  0
  5  4  1  0
  5  6  1  1
  7  5  1  0
  8  7  2  0
 10  9  1  6
 10 11  1  0
 13 12  1  1
 12 10  1  0
 13 14  1  0
 14  7  1  0
 15 13  1  0
 15 16  2  0
 18 17  1  0
 18 20  1  0
 19 18  2  0
 20 21  1  0
 21 22  1  0
 22 23  1  0
 24 23  1  6
 24 25  1  0
 24 26  1  0
 25 15  1  0
 26 28  2  0
 26 27  1  0
M  END
$$$$
