LLR.pdb
     RDKit          3D

 28 27  0  0  1  0  0  0  0  0999 V2000
   29.4754  -20.3711  -19.3578 C   0  0  0  0  0  0  0  0  0  0  0  0
   28.6672  -19.3886  -18.5358 C   0  0  1  0  0  0  0  0  0  0  0  0
   27.8492  -18.5746  -19.5428 C   0  0  0  0  0  0  0  0  0  0  0  0
   27.7488  -20.1706  -17.6207 C   0  0  0  0  0  0  0  0  0  0  0  0
   26.8597  -19.2327  -16.8121 C   0  0  2  0  0  0  0  0  0  0  0  0
   27.5811  -18.0533  -16.4559 N   0  0  0  0  0  0  0  0  0  0  0  0
   26.3521  -20.0184  -15.6637 C   0  0  0  0  0  0  0  0  0  0  0  0
   25.8306  -21.1398  -15.9199 O   0  0  0  0  0  0  0  0  0  0  0  0
   26.0619  -21.9707  -10.5878 C   0  0  0  0  0  0  0  0  0  0  0  0
   25.4895  -20.5505  -10.7256 C   0  0  1  0  0  0  0  0  0  0  0  0
   25.5789  -19.8355   -9.4039 C   0  0  0  0  0  0  0  0  0  0  0  0
   26.1509  -19.8385  -11.8598 C   0  0  0  0  0  0  0  0  0  0  0  0
   25.7821  -20.3531  -13.2282 C   0  0  2  0  0  0  0  0  0  0  0  0
   26.4044  -19.6153  -14.3062 N   0  0  0  0  0  0  0  0  0  0  0  0
   24.2968  -20.3340  -13.3349 C   0  0  0  0  0  0  0  0  0  0  0  0
   23.7560  -19.1888  -13.2936 O   0  0  0  0  0  0  0  0  0  0  0  0
   20.1470  -26.9565  -16.1830 N   0  0  0  0  0  0  0  0  0  0  0  0
   20.6327  -26.6251  -14.8853 C   0  0  0  0  0  0  0  0  0  0  0  0
   20.9737  -27.5733  -14.0966 N   0  0  0  0  0  0  0  0  0  0  0  0
   20.7522  -25.2917  -14.4319 N   0  0  0  0  0  0  0  0  0  0  0  0
   19.5952  -24.3329  -14.5776 C   0  0  0  0  0  0  0  0  0  0  0  0
   20.1257  -23.0522  -14.0779 C   0  0  0  0  0  0  0  0  0  0  0  0
   21.5268  -22.7182  -13.9943 C   0  0  0  0  0  0  0  0  0  0  0  0
   21.9995  -21.3884  -13.5823 C   0  0  2  0  0  0  0  0  0  0  0  0
   23.4968  -21.4539  -13.4722 N   0  0  0  0  0  0  0  0  0  0  0  0
   21.5949  -20.9413  -12.2487 C   0  0  0  0  0  0  0  0  0  0  0  0
   20.6167  -19.9460  -12.1109 O   0  0  0  0  0  0  0  0  0  0  0  0
   22.0618  -21.3850  -11.2028 O   0  0  0  0  0  0  0  0  0  0  0  0
  2  4  1  0
  2  1  1  6
  2  3  1  0
  5  4  1  0
  5  6  1  1
  7  5  1  0
  8  7  2  0
 10  9  1  1
 10 11  1  0
 13 12  1  1
 12 10  1  0
 13 14  1  0
 14  7  1  0
 15 13  1  0
 15 16  2  0
 18 17  1  0
 18 20  1  0
 19 18  2  0
 20 21  1  0
 21 22  1  0
 22 23  1  0
 24 23  1  1
 24 25  1  0
 24 26  1  0
 25 15  1  0
 26 28  2  0
 26 27  1  0
M  END
$$$$
