LLR.pdb
     RDKit          3D

 28 27  0  0  1  0  0  0  0  0999 V2000
   25.8304  -15.8872  -17.1409 C   0  0  0  0  0  0  0  0  0  0  0  0
   26.9045  -16.6635  -16.4076 C   0  0  1  0  0  0  0  0  0  0  0  0
   27.3868  -15.7464  -15.2797 C   0  0  0  0  0  0  0  0  0  0  0  0
   26.2821  -17.9195  -15.8355 C   0  0  0  0  0  0  0  0  0  0  0  0
   27.2792  -18.6702  -14.9601 C   0  0  2  0  0  0  0  0  0  0  0  0
   28.3679  -19.1485  -15.7503 N   0  0  0  0  0  0  0  0  0  0  0  0
   26.5132  -19.7258  -14.2582 C   0  0  0  0  0  0  0  0  0  0  0  0
   26.4106  -20.8433  -14.8377 O   0  0  0  0  0  0  0  0  0  0  0  0
   25.9327  -20.1136   -8.6515 C   0  0  0  0  0  0  0  0  0  0  0  0
   26.2018  -20.4318  -10.1314 C   0  0  1  0  0  0  0  0  0  0  0  0
   27.0081  -21.6982  -10.2410 C   0  0  0  0  0  0  0  0  0  0  0  0
   24.9179  -20.4482  -10.8944 C   0  0  0  0  0  0  0  0  0  0  0  0
   25.0724  -20.6117  -12.3852 C   0  0  2  0  0  0  0  0  0  0  0  0
   25.8887  -19.5837  -12.9942 N   0  0  0  0  0  0  0  0  0  0  0  0
   23.7081  -20.6546  -12.9807 C   0  0  0  0  0  0  0  0  0  0  0  0
   23.1547  -19.5308  -13.1722 O   0  0  0  0  0  0  0  0  0  0  0  0
   21.0548  -27.4020  -15.6007 N   0  0  0  0  0  0  0  0  0  0  0  0
   19.8326  -26.8493  -15.1205 C   0  0  0  0  0  0  0  0  0  0  0  0
   19.1175  -27.5444  -14.3186 N   0  0  0  0  0  0  0  0  0  0  0  0
   19.3761  -25.5649  -15.4944 N   0  0  0  0  0  0  0  0  0  0  0  0
   20.2574  -24.6542  -16.3146 C   0  0  0  0  0  0  0  0  0  0  0  0
   20.3947  -23.4448  -15.4840 C   0  0  0  0  0  0  0  0  0  0  0  0
   21.6075  -23.0378  -14.8169 C   0  0  0  0  0  0  0  0  0  0  0  0
   21.6969  -21.8046  -14.0214 C   0  0  2  0  0  0  0  0  0  0  0  0
   23.0296  -21.8090  -13.3270 N   0  0  0  0  0  0  0  0  0  0  0  0
   20.7520  -21.6802  -12.9106 C   0  0  0  0  0  0  0  0  0  0  0  0
   19.5426  -20.9945  -13.0939 O   0  0  0  0  0  0  0  0  0  0  0  0
   20.9420  -22.1454  -11.7899 O   0  0  0  0  0  0  0  0  0  0  0  0
  2  4  1  0
  2  1  1  1
  2  3  1  0
  5  4  1  0
  5  6  1  6
  7  5  1  0
  8  7  2  0
 10  9  1  1
 10 11  1  0
 13 12  1  1
 12 10  1  0
 13 14  1  0
 14  7  1  0
 15 13  1  0
 15 16  2  0
 18 17  1  0
 18 20  1  0
 19 18  2  0
 20 21  1  0
 21 22  1  0
 22 23  1  0
 24 23  1  1
 24 25  1  0
 24 26  1  0
 25 15  1  0
 26 28  2  0
 26 27  1  0
M  END
$$$$
