LLR.pdb
     RDKit          3D

 28 27  0  0  1  0  0  0  0  0999 V2000
   27.8228  -27.9229  -18.9324 C   0  0  0  0  0  0  0  0  0  0  0  0
   28.8076  -26.8504  -18.5151 C   0  0  1  0  0  0  0  0  0  0  0  0
   29.2552  -26.1670  -19.8106 C   0  0  0  0  0  0  0  0  0  0  0  0
   28.0901  -25.8630  -17.6194 C   0  0  0  0  0  0  0  0  0  0  0  0
   29.0245  -24.7359  -17.1944 C   0  0  2  0  0  0  0  0  0  0  0  0
   29.9907  -25.2207  -16.2618 N   0  0  0  0  0  0  0  0  0  0  0  0
   28.1637  -23.6446  -16.6829 C   0  0  0  0  0  0  0  0  0  0  0  0
   27.4266  -23.9101  -15.6923 O   0  0  0  0  0  0  0  0  0  0  0  0
   29.3496  -18.1376  -17.4322 C   0  0  0  0  0  0  0  0  0  0  0  0
   29.0141  -19.4820  -16.7661 C   0  0  1  0  0  0  0  0  0  0  0  0
   29.2602  -19.3907  -15.2838 C   0  0  0  0  0  0  0  0  0  0  0  0
   27.6319  -19.9084  -17.1384 C   0  0  0  0  0  0  0  0  0  0  0  0
   27.2520  -21.2914  -16.6735 C   0  0  2  0  0  0  0  0  0  0  0  0
   28.1006  -22.3319  -17.2129 N   0  0  0  0  0  0  0  0  0  0  0  0
   25.8217  -21.5113  -17.0253 C   0  0  0  0  0  0  0  0  0  0  0  0
   25.5948  -21.8475  -18.2258 O   0  0  0  0  0  0  0  0  0  0  0  0
   20.2916  -20.0914  -11.1460 N   0  0  0  0  0  0  0  0  0  0  0  0
   19.5183  -20.6150  -12.2220 C   0  0  0  0  0  0  0  0  0  0  0  0
   18.2913  -20.2663  -12.3230 N   0  0  0  0  0  0  0  0  0  0  0  0
   20.0502  -21.5053  -13.1824 N   0  0  0  0  0  0  0  0  0  0  0  0
   21.4868  -21.9586  -13.0850 C   0  0  0  0  0  0  0  0  0  0  0  0
   22.1160  -21.4204  -14.3040 C   0  0  0  0  0  0  0  0  0  0  0  0
   22.6535  -22.2229  -15.3758 C   0  0  0  0  0  0  0  0  0  0  0  0
   23.3318  -21.6351  -16.5403 C   0  0  2  0  0  0  0  0  0  0  0  0
   24.7595  -21.3758  -16.1499 N   0  0  0  0  0  0  0  0  0  0  0  0
   22.8654  -20.3138  -16.9632 C   0  0  0  0  0  0  0  0  0  0  0  0
   21.7852  -20.2038  -17.8507 O   0  0  0  0  0  0  0  0  0  0  0  0
   23.3638  -19.2556  -16.5887 O   0  0  0  0  0  0  0  0  0  0  0  0
  2  4  1  0
  2  1  1  6
  2  3  1  0
  5  4  1  0
  5  6  1  1
  7  5  1  0
  8  7  2  0
 10  9  1  6
 10 11  1  0
 13 12  1  6
 12 10  1  0
 13 14  1  0
 14  7  1  0
 15 13  1  0
 15 16  2  0
 18 17  1  0
 18 20  1  0
 19 18  2  0
 20 21  1  0
 21 22  1  0
 22 23  1  0
 24 23  1  1
 24 25  1  0
 24 26  1  0
 25 15  1  0
 26 28  2  0
 26 27  1  0
M  END
$$$$
