LLR.pdb
     RDKit          3D

 28 27  0  0  1  0  0  0  0  0999 V2000
   29.0191  -24.6954  -17.3213 C   0  0  0  0  0  0  0  0  0  0  0  0
   28.6747  -23.2419  -17.0703 C   0  0  1  0  0  0  0  0  0  0  0  0
   28.2138  -22.6825  -18.4195 C   0  0  0  0  0  0  0  0  0  0  0  0
   27.5460  -23.1838  -16.0628 C   0  0  0  0  0  0  0  0  0  0  0  0
   27.2178  -21.7408  -15.6966 C   0  0  2  0  0  0  0  0  0  0  0  0
   28.4196  -20.9883  -15.5296 N   0  0  0  0  0  0  0  0  0  0  0  0
   26.3508  -21.7968  -14.4971 C   0  0  0  0  0  0  0  0  0  0  0  0
   25.2921  -22.4798  -14.5844 O   0  0  0  0  0  0  0  0  0  0  0  0
   25.0109  -21.8774   -9.1634 C   0  0  0  0  0  0  0  0  0  0  0  0
   25.3318  -20.4874   -9.7367 C   0  0  1  0  0  0  0  0  0  0  0  0
   25.7919  -19.5751   -8.6312 C   0  0  0  0  0  0  0  0  0  0  0  0
   26.2900  -20.6109  -10.8757 C   0  0  0  0  0  0  0  0  0  0  0  0
   25.6884  -21.1451  -12.1508 C   0  0  2  0  0  0  0  0  0  0  0  0
   26.6123  -21.1487  -13.2644 N   0  0  0  0  0  0  0  0  0  0  0  0
   24.4708  -20.3412  -12.4495 C   0  0  0  0  0  0  0  0  0  0  0  0
   24.6765  -19.1905  -12.9387 O   0  0  0  0  0  0  0  0  0  0  0  0
   19.1119  -22.5814  -18.5047 N   0  0  0  0  0  0  0  0  0  0  0  0
   18.8921  -21.2155  -18.1643 C   0  0  0  0  0  0  0  0  0  0  0  0
   18.0156  -20.5526  -18.8200 N   0  0  0  0  0  0  0  0  0  0  0  0
   19.6034  -20.5613  -17.1328 N   0  0  0  0  0  0  0  0  0  0  0  0
   20.6128  -21.3206  -16.3060 C   0  0  0  0  0  0  0  0  0  0  0  0
   21.1950  -20.2960  -15.4213 C   0  0  0  0  0  0  0  0  0  0  0  0
   22.1964  -20.5507  -14.4145 C   0  0  0  0  0  0  0  0  0  0  0  0
   21.9935  -20.2216  -12.9960 C   0  0  2  0  0  0  0  0  0  0  0  0
   23.1707  -20.7602  -12.2329 N   0  0  0  0  0  0  0  0  0  0  0  0
   20.8566  -20.8665  -12.3374 C   0  0  0  0  0  0  0  0  0  0  0  0
   20.9250  -22.2242  -11.9931 O   0  0  0  0  0  0  0  0  0  0  0  0
   19.8093  -20.2915  -12.0527 O   0  0  0  0  0  0  0  0  0  0  0  0
  2  4  1  0
  2  1  1  6
  2  3  1  0
  5  4  1  0
  5  6  1  1
  7  5  1  0
  8  7  2  0
 10  9  1  1
 10 11  1  0
 13 12  1  1
 12 10  1  0
 13 14  1  0
 14  7  1  0
 15 13  1  0
 15 16  2  0
 18 17  1  0
 18 20  1  0
 19 18  2  0
 20 21  1  0
 21 22  1  0
 22 23  1  0
 24 23  1  6
 24 25  1  0
 24 26  1  0
 25 15  1  0
 26 28  2  0
 26 27  1  0
M  END
$$$$
