LLR.pdb
     RDKit          3D

 28 27  0  0  1  0  0  0  0  0999 V2000
   18.2536  -27.3962  -11.0291 C   0  0  0  0  0  0  0  0  0  0  0  0
   18.4330  -26.1962  -10.1225 C   0  0  1  0  0  0  0  0  0  0  0  0
   17.8463  -25.0047  -10.8852 C   0  0  0  0  0  0  0  0  0  0  0  0
   17.6555  -26.4391   -8.8463 C   0  0  0  0  0  0  0  0  0  0  0  0
   17.7740  -25.2479   -7.9024 C   0  0  2  0  0  0  0  0  0  0  0  0
   19.1471  -24.9136   -7.6992 N   0  0  0  0  0  0  0  0  0  0  0  0
   17.0364  -25.6110   -6.6704 C   0  0  0  0  0  0  0  0  0  0  0  0
   15.8070  -25.8729   -6.7925 O   0  0  0  0  0  0  0  0  0  0  0  0
   18.9859  -28.0823   -1.9413 C   0  0  0  0  0  0  0  0  0  0  0  0
   18.1274  -27.6964   -3.1570 C   0  0  1  0  0  0  0  0  0  0  0  0
   17.0832  -28.7534   -3.3985 C   0  0  0  0  0  0  0  0  0  0  0  0
   17.5821  -26.3168   -2.9829 C   0  0  0  0  0  0  0  0  0  0  0  0
   16.8055  -25.7922   -4.1639 C   0  0  2  0  0  0  0  0  0  0  0  0
   17.5965  -25.6879   -5.3710 N   0  0  0  0  0  0  0  0  0  0  0  0
   16.2207  -24.4790   -3.7750 C   0  0  0  0  0  0  0  0  0  0  0  0
   16.8197  -23.4552   -4.2207 O   0  0  0  0  0  0  0  0  0  0  0  0
   11.5494  -19.0402   -6.9424 N   0  0  0  0  0  0  0  0  0  0  0  0
   12.8111  -19.6998   -6.9968 C   0  0  0  0  0  0  0  0  0  0  0  0
   13.6990  -19.2611   -7.8072 N   0  0  0  0  0  0  0  0  0  0  0  0
   13.1226  -20.8202   -6.1934 N   0  0  0  0  0  0  0  0  0  0  0  0
   12.0180  -21.6382   -5.5691 C   0  0  0  0  0  0  0  0  0  0  0  0
   12.5782  -22.0697   -4.2763 C   0  0  0  0  0  0  0  0  0  0  0  0
   13.9321  -22.5269   -4.0774 C   0  0  0  0  0  0  0  0  0  0  0  0
   14.4282  -22.9854   -2.7716 C   0  0  2  0  0  0  0  0  0  0  0  0
   15.0992  -24.3133   -2.9826 N   0  0  0  0  0  0  0  0  0  0  0  0
   13.4123  -23.2911   -1.7634 C   0  0  0  0  0  0  0  0  0  0  0  0
   13.0852  -24.6253   -1.4814 O   0  0  0  0  0  0  0  0  0  0  0  0
   12.8012  -22.4404   -1.1220 O   0  0  0  0  0  0  0  0  0  0  0  0
  2  4  1  0
  2  1  1  6
  2  3  1  0
  5  4  1  0
  5  6  1  1
  7  5  1  0
  8  7  2  0
 10  9  1  1
 10 11  1  0
 13 12  1  1
 12 10  1  0
 13 14  1  0
 14  7  1  0
 15 13  1  0
 15 16  2  0
 18 17  1  0
 18 20  1  0
 19 18  2  0
 20 21  1  0
 21 22  1  0
 22 23  1  0
 24 23  1  6
 24 25  1  0
 24 26  1  0
 25 15  1  0
 26 28  2  0
 26 27  1  0
M  END
$$$$
