KSP.pdb
     RDKit          3D

 23 23  0  0  1  0  0  0  0  0999 V2000
    8.2587  -14.9043   20.3498 N   0  0  0  0  0  0  0  0  0  0  0  0
    7.5106  -15.3230   21.5155 C   0  0  1  0  0  0  0  0  0  0  0  0
    7.4572  -16.8135   21.6177 C   0  0  0  0  0  0  0  0  0  0  0  0
    8.7403  -17.4457   21.1734 C   0  0  0  0  0  0  0  0  0  0  0  0
    8.7112  -18.9480   21.2312 C   0  0  0  0  0  0  0  0  0  0  0  0
   10.0570  -19.4523   20.7004 C   0  0  0  0  0  0  0  0  0  0  0  0
   10.0362  -20.8971   20.7400 N   0  0  0  0  0  0  0  0  0  0  0  0
    8.1091  -14.7123   22.7501 C   0  0  0  0  0  0  0  0  0  0  0  0
    9.3361  -14.5021   22.7546 O   0  0  0  0  0  0  0  0  0  0  0  0
    5.8418  -14.5789   26.4114 O   0  0  0  0  0  0  0  0  0  0  0  0
    6.7102  -13.5432   26.0679 C   0  0  0  0  0  0  0  0  0  0  0  0
    7.8444  -13.9920   25.1656 C   0  0  2  0  0  0  0  0  0  0  0  0
    7.3148  -14.3855   23.8693 N   0  0  0  0  0  0  0  0  0  0  0  0
    8.7229  -15.0046   25.7759 C   0  0  0  0  0  0  0  0  0  0  0  0
    8.9937  -16.1023   25.1555 O   0  0  0  0  0  0  0  0  0  0  0  0
    9.3197  -14.8715   27.0271 N   0  0  0  0  0  0  0  0  0  0  0  0
    8.8929  -13.9138   28.0650 C   0  0  0  0  0  0  0  0  0  0  0  0
   10.0712  -13.7825   29.0042 C   0  0  0  0  0  0  0  0  0  0  0  0
   11.2053  -14.3471   28.1409 C   0  0  0  0  0  0  0  0  0  0  0  0
   10.4470  -15.5677   27.5764 C   0  0  1  0  0  0  0  0  0  0  0  0
    9.9101  -16.3545   28.7550 C   0  0  0  0  0  0  0  0  0  0  0  0
    8.7266  -16.2406   29.1489 O   0  0  0  0  0  0  0  0  0  0  0  0
   10.7410  -17.2317   29.4289 O   0  0  0  0  0  0  0  0  0  0  0  0
  2  1  1  6
  3  2  1  0
  4  3  1  0
  5  4  1  0
  5  6  1  0
  7  6  1  0
  8 13  1  0
  8  2  1  0
  9  8  2  0
 11 10  1  0
 12 11  1  1
 12 14  1  0
 12 13  1  0
 14 15  2  0
 16 20  1  0
 16 14  1  0
 17 18  1  0
 17 16  1  0
 18 19  1  0
 20 19  1  0
 20 21  1  1
 22 21  2  0
 23 21  1  0
M  END
$$$$
