KSP.pdb
     RDKit          3D

 23 23  0  0  1  0  0  0  0  0999 V2000
    6.7554  -16.7430   20.5270 N   0  0  0  0  0  0  0  0  0  0  0  0
    7.2371  -15.5755   21.2333 C   0  0  1  0  0  0  0  0  0  0  0  0
    6.6089  -14.3260   20.7052 C   0  0  0  0  0  0  0  0  0  0  0  0
    7.6236  -13.4144   20.0866 C   0  0  0  0  0  0  0  0  0  0  0  0
    7.8714  -13.7044   18.6321 C   0  0  0  0  0  0  0  0  0  0  0  0
    9.0264  -12.8065   18.1770 C   0  0  0  0  0  0  0  0  0  0  0  0
    9.2713  -13.0740   16.7777 N   0  0  0  0  0  0  0  0  0  0  0  0
    6.9861  -15.7325   22.7056 C   0  0  0  0  0  0  0  0  0  0  0  0
    5.8655  -15.4070   23.1391 O   0  0  0  0  0  0  0  0  0  0  0  0
    7.8633  -18.5036   25.4445 O   0  0  0  0  0  0  0  0  0  0  0  0
    7.1944  -17.2918   25.6140 C   0  0  0  0  0  0  0  0  0  0  0  0
    7.9418  -16.1114   25.0222 C   0  0  2  0  0  0  0  0  0  0  0  0
    7.9808  -16.2310   23.5731 N   0  0  0  0  0  0  0  0  0  0  0  0
    9.2632  -15.8804   25.6307 C   0  0  0  0  0  0  0  0  0  0  0  0
   10.3437  -16.0814   24.9561 O   0  0  0  0  0  0  0  0  0  0  0  0
    9.4570  -15.4381   26.9369 N   0  0  0  0  0  0  0  0  0  0  0  0
    8.3758  -15.0523   27.8635 C   0  0  0  0  0  0  0  0  0  0  0  0
    9.0386  -14.2112   28.9317 C   0  0  0  0  0  0  0  0  0  0  0  0
   10.3578  -13.8410   28.2442 C   0  0  0  0  0  0  0  0  0  0  0  0
   10.6810  -15.2311   27.6555 C   0  0  1  0  0  0  0  0  0  0  0  0
   10.6598  -16.2254   28.7989 C   0  0  0  0  0  0  0  0  0  0  0  0
    9.6600  -16.9395   29.0427 O   0  0  0  0  0  0  0  0  0  0  0  0
   11.7727  -16.3615   29.6094 O   0  0  0  0  0  0  0  0  0  0  0  0
  2  1  1  6
  3  2  1  0
  4  3  1  0
  5  4  1  0
  5  6  1  0
  7  6  1  0
  8 13  1  0
  8  2  1  0
  9  8  2  0
 11 10  1  0
 12 11  1  1
 12 14  1  0
 12 13  1  0
 14 15  2  0
 16 20  1  0
 16 14  1  0
 17 18  1  0
 17 16  1  0
 18 19  1  0
 20 19  1  0
 20 21  1  1
 22 21  2  0
 23 21  1  0
M  END
$$$$
