KSP.pdb
     RDKit          3D

 23 23  0  0  1  0  0  0  0  0999 V2000
   11.5957  -17.6472   18.9423 N   0  0  0  0  0  0  0  0  0  0  0  0
   10.2189  -17.9690   19.2498 C   0  0  1  0  0  0  0  0  0  0  0  0
   10.0860  -19.3799   19.7255 C   0  0  0  0  0  0  0  0  0  0  0  0
   11.0218  -19.6735   20.8576 C   0  0  0  0  0  0  0  0  0  0  0  0
   10.3500  -19.6483   22.2027 C   0  0  0  0  0  0  0  0  0  0  0  0
   11.4176  -19.9709   23.2532 C   0  0  0  0  0  0  0  0  0  0  0  0
   10.7988  -19.8817   24.5565 N   0  0  0  0  0  0  0  0  0  0  0  0
    9.6841  -16.9985   20.2636 C   0  0  0  0  0  0  0  0  0  0  0  0
   10.5023  -16.4417   21.0186 O   0  0  0  0  0  0  0  0  0  0  0  0
    5.5362  -16.9201   21.2230 O   0  0  0  0  0  0  0  0  0  0  0  0
    6.2216  -15.7115   21.1040 C   0  0  0  0  0  0  0  0  0  0  0  0
    7.7114  -15.8446   21.3591 C   0  0  2  0  0  0  0  0  0  0  0  0
    8.3041  -16.7225   20.3623 N   0  0  0  0  0  0  0  0  0  0  0  0
    8.0452  -16.2155   22.7449 C   0  0  0  0  0  0  0  0  0  0  0  0
    8.8111  -17.2233   22.9912 O   0  0  0  0  0  0  0  0  0  0  0  0
    7.5849  -15.5358   23.8698 N   0  0  0  0  0  0  0  0  0  0  0  0
    6.6047  -14.4334   23.8439 C   0  0  0  0  0  0  0  0  0  0  0  0
    6.7741  -13.7097   25.1612 C   0  0  0  0  0  0  0  0  0  0  0  0
    8.1502  -14.2180   25.6061 C   0  0  0  0  0  0  0  0  0  0  0  0
    7.9468  -15.7057   25.2473 C   0  0  1  0  0  0  0  0  0  0  0  0
    6.6879  -16.1746   25.9484 C   0  0  0  0  0  0  0  0  0  0  0  0
    5.5567  -16.0846   25.4182 O   0  0  0  0  0  0  0  0  0  0  0  0
    6.7731  -16.7227   27.2159 O   0  0  0  0  0  0  0  0  0  0  0  0
  2  1  1  1
  3  2  1  0
  4  3  1  0
  5  4  1  0
  5  6  1  0
  7  6  1  0
  8 13  1  0
  8  2  1  0
  9  8  2  0
 11 10  1  0
 12 11  1  1
 12 14  1  0
 12 13  1  0
 14 15  2  0
 16 20  1  0
 16 14  1  0
 17 18  1  0
 17 16  1  0
 18 19  1  0
 20 19  1  0
 20 21  1  1
 22 21  2  0
 23 21  1  0
M  END
$$$$
