KSP.pdb
     RDKit          3D

 23 23  0  0  1  0  0  0  0  0999 V2000
    8.9053  -16.3528   20.8157 N   0  0  0  0  0  0  0  0  0  0  0  0
    9.0527  -14.9453   21.1177 C   0  0  1  0  0  0  0  0  0  0  0  0
    8.3151  -14.0997   20.1300 C   0  0  0  0  0  0  0  0  0  0  0  0
    8.6269  -14.4955   18.7195 C   0  0  0  0  0  0  0  0  0  0  0  0
    7.8216  -13.7380   17.7002 C   0  0  0  0  0  0  0  0  0  0  0  0
    8.1706  -14.3120   16.3232 C   0  0  0  0  0  0  0  0  0  0  0  0
    7.3271  -13.6627   15.3453 N   0  0  0  0  0  0  0  0  0  0  0  0
    8.5900  -14.6751   22.5207 C   0  0  0  0  0  0  0  0  0  0  0  0
    8.5806  -13.4923   22.9087 O   0  0  0  0  0  0  0  0  0  0  0  0
    7.1913  -17.8378   25.2313 O   0  0  0  0  0  0  0  0  0  0  0  0
    6.8637  -16.4829   25.2714 C   0  0  0  0  0  0  0  0  0  0  0  0
    7.9954  -15.5831   24.8110 C   0  0  2  0  0  0  0  0  0  0  0  0
    8.1788  -15.7202   23.3746 N   0  0  0  0  0  0  0  0  0  0  0  0
    9.2385  -15.7511   25.5829 C   0  0  0  0  0  0  0  0  0  0  0  0
   10.2624  -16.3387   25.0639 O   0  0  0  0  0  0  0  0  0  0  0  0
    9.4145  -15.3049   26.8904 N   0  0  0  0  0  0  0  0  0  0  0  0
    8.3535  -14.7127   27.7271 C   0  0  0  0  0  0  0  0  0  0  0  0
    9.0746  -13.9602   28.8232 C   0  0  0  0  0  0  0  0  0  0  0  0
   10.4816  -13.8397   28.2266 C   0  0  0  0  0  0  0  0  0  0  0  0
   10.6036  -15.2829   27.6922 C   0  0  1  0  0  0  0  0  0  0  0  0
   10.3353  -16.2214   28.8514 C   0  0  0  0  0  0  0  0  0  0  0  0
   11.1980  -16.4631   29.7267 O   0  0  0  0  0  0  0  0  0  0  0  0
    9.1025  -16.8395   28.9614 O   0  0  0  0  0  0  0  0  0  0  0  0
  2  1  1  6
  3  2  1  0
  4  3  1  0
  5  4  1  0
  5  6  1  0
  7  6  1  0
  8 13  1  0
  8  2  1  0
  9  8  2  0
 11 10  1  0
 12 11  1  1
 12 14  1  0
 12 13  1  0
 14 15  2  0
 16 20  1  0
 16 14  1  0
 17 18  1  0
 17 16  1  0
 18 19  1  0
 20 19  1  0
 20 21  1  1
 22 21  2  0
 23 21  1  0
M  END
$$$$
