KSP.pdb
     RDKit          3D

 23 23  0  0  1  0  0  0  0  0999 V2000
    8.8054  -15.6152   19.7630 N   0  0  0  0  0  0  0  0  0  0  0  0
    8.6640  -14.2349   20.1738 C   0  0  1  0  0  0  0  0  0  0  0  0
    7.8199  -13.4667   19.2083 C   0  0  0  0  0  0  0  0  0  0  0  0
    8.4466  -13.4077   17.8493 C   0  0  0  0  0  0  0  0  0  0  0  0
    7.6161  -14.0699   16.7850 C   0  0  0  0  0  0  0  0  0  0  0  0
    8.3307  -13.8543   15.4470 C   0  0  0  0  0  0  0  0  0  0  0  0
    7.6076  -14.5900   14.4343 N   0  0  0  0  0  0  0  0  0  0  0  0
    8.0974  -14.1734   21.5633 C   0  0  0  0  0  0  0  0  0  0  0  0
    7.8710  -13.0486   22.0461 O   0  0  0  0  0  0  0  0  0  0  0  0
    7.7983  -17.7029   24.1001 O   0  0  0  0  0  0  0  0  0  0  0  0
    6.7941  -16.7402   24.0023 C   0  0  0  0  0  0  0  0  0  0  0  0
    7.3243  -15.3590   23.6657 C   0  0  2  0  0  0  0  0  0  0  0  0
    7.8285  -15.3453   22.3014 N   0  0  0  0  0  0  0  0  0  0  0  0
    8.2823  -14.8342   24.6538 C   0  0  0  0  0  0  0  0  0  0  0  0
    9.5528  -14.9215   24.4509 O   0  0  0  0  0  0  0  0  0  0  0  0
    7.9167  -14.2175   25.8477 N   0  0  0  0  0  0  0  0  0  0  0  0
    6.5264  -13.9965   26.2889 C   0  0  0  0  0  0  0  0  0  0  0  0
    6.6024  -12.9108   27.3393 C   0  0  0  0  0  0  0  0  0  0  0  0
    7.9884  -12.3194   27.0574 C   0  0  0  0  0  0  0  0  0  0  0  0
    8.7470  -13.6510   26.8709 C   0  0  1  0  0  0  0  0  0  0  0  0
    8.5039  -14.4902   28.1092 C   0  0  0  0  0  0  0  0  0  0  0  0
    7.5318  -15.2744   28.2026 O   0  0  0  0  0  0  0  0  0  0  0  0
    9.3747  -14.3992   29.1803 O   0  0  0  0  0  0  0  0  0  0  0  0
  2  1  1  6
  3  2  1  0
  4  3  1  0
  5  4  1  0
  5  6  1  0
  7  6  1  0
  8 13  1  0
  8  2  1  0
  9  8  2  0
 11 10  1  0
 12 11  1  1
 12 14  1  0
 12 13  1  0
 14 15  2  0
 16 20  1  0
 16 14  1  0
 17 18  1  0
 17 16  1  0
 18 19  1  0
 20 19  1  0
 20 21  1  1
 22 21  2  0
 23 21  1  0
M  END
$$$$
