KSP.pdb
     RDKit          3D

 23 23  0  0  1  0  0  0  0  0999 V2000
    6.0468  -14.4532   20.6993 N   0  0  0  0  0  0  0  0  0  0  0  0
    7.2232  -15.1253   21.2074 C   0  0  1  0  0  0  0  0  0  0  0  0
    8.4559  -14.6733   20.4928 C   0  0  0  0  0  0  0  0  0  0  0  0
    8.1259  -13.9158   19.2435 C   0  0  0  0  0  0  0  0  0  0  0  0
    8.9296  -14.3593   18.0524 C   0  0  0  0  0  0  0  0  0  0  0  0
    8.5672  -13.4342   16.8861 C   0  0  0  0  0  0  0  0  0  0  0  0
    9.2388  -13.9263   15.7045 N   0  0  0  0  0  0  0  0  0  0  0  0
    7.3373  -14.9009   22.6880 C   0  0  0  0  0  0  0  0  0  0  0  0
    7.2768  -13.7282   23.1014 O   0  0  0  0  0  0  0  0  0  0  0  0
    7.2774  -18.1659   25.5925 O   0  0  0  0  0  0  0  0  0  0  0  0
    6.7864  -16.8678   25.7286 C   0  0  0  0  0  0  0  0  0  0  0  0
    7.6426  -15.8309   25.0258 C   0  0  2  0  0  0  0  0  0  0  0  0
    7.5071  -15.9765   23.5850 N   0  0  0  0  0  0  0  0  0  0  0  0
    9.0412  -15.8049   25.4871 C   0  0  0  0  0  0  0  0  0  0  0  0
   10.0000  -16.1690   24.7052 O   0  0  0  0  0  0  0  0  0  0  0  0
    9.4390  -15.3975   26.7580 N   0  0  0  0  0  0  0  0  0  0  0  0
    8.5178  -15.0331   27.8512 C   0  0  0  0  0  0  0  0  0  0  0  0
    9.3445  -14.2221   28.8242 C   0  0  0  0  0  0  0  0  0  0  0  0
   10.5431  -13.8377   27.9492 C   0  0  0  0  0  0  0  0  0  0  0  0
   10.7613  -15.2128   27.2822 C   0  0  1  0  0  0  0  0  0  0  0  0
   10.9115  -16.2366   28.3892 C   0  0  0  0  0  0  0  0  0  0  0  0
   11.9673  -16.3500   29.0536 O   0  0  0  0  0  0  0  0  0  0  0  0
    9.8576  -17.0814   28.6889 O   0  0  0  0  0  0  0  0  0  0  0  0
  2  1  1  6
  3  2  1  0
  4  3  1  0
  5  4  1  0
  5  6  1  0
  7  6  1  0
  8 13  1  0
  8  2  1  0
  9  8  2  0
 11 10  1  0
 12 11  1  1
 12 14  1  0
 12 13  1  0
 14 15  2  0
 16 20  1  0
 16 14  1  0
 17 18  1  0
 17 16  1  0
 18 19  1  0
 20 19  1  0
 20 21  1  1
 22 21  2  0
 23 21  1  0
M  END
$$$$
