KSP.pdb
     RDKit          3D

 23 23  0  0  1  0  0  0  0  0999 V2000
    7.6623  -15.7114   20.4144 N   0  0  0  0  0  0  0  0  0  0  0  0
    8.1206  -14.4577   20.9731 C   0  0  1  0  0  0  0  0  0  0  0  0
    7.4536  -13.2946   20.3121 C   0  0  0  0  0  0  0  0  0  0  0  0
    7.4909  -13.4095   18.8192 C   0  0  0  0  0  0  0  0  0  0  0  0
    8.8388  -13.8150   18.2900 C   0  0  0  0  0  0  0  0  0  0  0  0
    8.7437  -13.8316   16.7609 C   0  0  0  0  0  0  0  0  0  0  0  0
   10.0275  -14.2454   16.2412 N   0  0  0  0  0  0  0  0  0  0  0  0
    7.8901  -14.4480   22.4571 C   0  0  0  0  0  0  0  0  0  0  0  0
    7.6859  -13.3481   23.0033 O   0  0  0  0  0  0  0  0  0  0  0  0
    7.3803  -18.0849   24.8618 O   0  0  0  0  0  0  0  0  0  0  0  0
    6.8327  -16.8163   25.0505 C   0  0  0  0  0  0  0  0  0  0  0  0
    7.7784  -15.6958   24.6603 C   0  0  2  0  0  0  0  0  0  0  0  0
    7.9028  -15.6397   23.2122 N   0  0  0  0  0  0  0  0  0  0  0  0
    9.0726  -15.7404   25.3621 C   0  0  0  0  0  0  0  0  0  0  0  0
   10.1356  -16.1519   24.7591 O   0  0  0  0  0  0  0  0  0  0  0  0
    9.2584  -15.3538   26.6871 N   0  0  0  0  0  0  0  0  0  0  0  0
    8.1717  -15.0038   27.6215 C   0  0  0  0  0  0  0  0  0  0  0  0
    8.8292  -14.2104   28.7287 C   0  0  0  0  0  0  0  0  0  0  0  0
   10.1544  -13.8159   28.0666 C   0  0  0  0  0  0  0  0  0  0  0  0
   10.4778  -15.1811   27.4223 C   0  0  1  0  0  0  0  0  0  0  0  0
   10.4455  -16.2224   28.5227 C   0  0  0  0  0  0  0  0  0  0  0  0
   11.3739  -16.3415   29.3552 O   0  0  0  0  0  0  0  0  0  0  0  0
    9.3627  -17.0773   28.6256 O   0  0  0  0  0  0  0  0  0  0  0  0
  2  1  1  6
  3  2  1  0
  4  3  1  0
  5  4  1  0
  5  6  1  0
  7  6  1  0
  8 13  1  0
  8  2  1  0
  9  8  2  0
 11 10  1  0
 12 11  1  6
 12 14  1  0
 12 13  1  0
 14 15  2  0
 16 20  1  0
 16 14  1  0
 17 18  1  0
 17 16  1  0
 18 19  1  0
 20 19  1  0
 20 21  1  1
 22 21  2  0
 23 21  1  0
M  END
$$$$
