KSP.pdb
     RDKit          3D

 23 23  0  0  1  0  0  0  0  0999 V2000
    6.8506  -15.9539   19.5391 N   0  0  0  0  0  0  0  0  0  0  0  0
    7.6059  -15.0121   20.3368 C   0  0  1  0  0  0  0  0  0  0  0  0
    7.4317  -13.6151   19.8341 C   0  0  0  0  0  0  0  0  0  0  0  0
    8.2592  -13.3586   18.6123 C   0  0  0  0  0  0  0  0  0  0  0  0
    7.7611  -14.0890   17.3958 C   0  0  0  0  0  0  0  0  0  0  0  0
    8.6886  -13.7247   16.2320 C   0  0  0  0  0  0  0  0  0  0  0  0
    8.1595  -14.3377   15.0346 N   0  0  0  0  0  0  0  0  0  0  0  0
    7.2017  -15.1278   21.7785 C   0  0  0  0  0  0  0  0  0  0  0  0
    6.0023  -14.9476   22.0590 O   0  0  0  0  0  0  0  0  0  0  0  0
    7.9471  -17.9277   24.2817 O   0  0  0  0  0  0  0  0  0  0  0  0
    7.1389  -16.8149   24.5124 C   0  0  0  0  0  0  0  0  0  0  0  0
    7.8329  -15.5012   24.2046 C   0  0  2  0  0  0  0  0  0  0  0  0
    8.1428  -15.4300   22.7852 N   0  0  0  0  0  0  0  0  0  0  0  0
    8.9877  -15.2221   25.0752 C   0  0  0  0  0  0  0  0  0  0  0  0
   10.1925  -15.3505   24.6334 O   0  0  0  0  0  0  0  0  0  0  0  0
    8.8867  -14.8071   26.4007 N   0  0  0  0  0  0  0  0  0  0  0  0
    7.6187  -14.6472   27.1377 C   0  0  0  0  0  0  0  0  0  0  0  0
    7.9430  -13.7508   28.3120 C   0  0  0  0  0  0  0  0  0  0  0  0
    9.2725  -13.1359   27.8598 C   0  0  0  0  0  0  0  0  0  0  0  0
    9.9228  -14.4265   27.3167 C   0  0  1  0  0  0  0  0  0  0  0  0
    9.8877  -15.4560   28.4281 C   0  0  0  0  0  0  0  0  0  0  0  0
    8.9435  -16.2693   28.5537 O   0  0  0  0  0  0  0  0  0  0  0  0
   10.9246  -15.5130   29.3422 O   0  0  0  0  0  0  0  0  0  0  0  0
  2  1  1  6
  3  2  1  0
  4  3  1  0
  5  4  1  0
  5  6  1  0
  7  6  1  0
  8 13  1  0
  8  2  1  0
  9  8  2  0
 11 10  1  0
 12 11  1  1
 12 14  1  0
 12 13  1  0
 14 15  2  0
 16 20  1  0
 16 14  1  0
 17 18  1  0
 17 16  1  0
 18 19  1  0
 20 19  1  0
 20 21  1  1
 22 21  2  0
 23 21  1  0
M  END
$$$$
