KSP.pdb
     RDKit          3D

 23 23  0  0  1  0  0  0  0  0999 V2000
    6.3506  -15.5704   20.6075 N   0  0  0  0  0  0  0  0  0  0  0  0
    7.3898  -14.7798   21.2311 C   0  0  1  0  0  0  0  0  0  0  0  0
    7.4021  -13.3838   20.6967 C   0  0  0  0  0  0  0  0  0  0  0  0
    7.6689  -13.3568   19.2231 C   0  0  0  0  0  0  0  0  0  0  0  0
    8.9382  -14.0654   18.8382 C   0  0  0  0  0  0  0  0  0  0  0  0
    9.1507  -13.8401   17.3377 C   0  0  0  0  0  0  0  0  0  0  0  0
   10.3806  -14.4990   16.9601 N   0  0  0  0  0  0  0  0  0  0  0  0
    7.2120  -14.7918   22.7224 C   0  0  0  0  0  0  0  0  0  0  0  0
    6.3292  -14.0589   23.2053 O   0  0  0  0  0  0  0  0  0  0  0  0
    7.2874  -17.8739   25.1963 O   0  0  0  0  0  0  0  0  0  0  0  0
    6.9883  -16.5560   25.5404 C   0  0  0  0  0  0  0  0  0  0  0  0
    7.9986  -15.5576   25.0067 C   0  0  2  0  0  0  0  0  0  0  0  0
    8.0135  -15.6030   23.5530 N   0  0  0  0  0  0  0  0  0  0  0  0
    9.3344  -15.6828   25.6145 C   0  0  0  0  0  0  0  0  0  0  0  0
   10.3341  -16.1170   24.9252 O   0  0  0  0  0  0  0  0  0  0  0  0
    9.6276  -15.3531   26.9354 N   0  0  0  0  0  0  0  0  0  0  0  0
    8.6380  -14.8877   27.9257 C   0  0  0  0  0  0  0  0  0  0  0  0
    9.4414  -14.2101   29.0135 C   0  0  0  0  0  0  0  0  0  0  0  0
   10.7755  -13.9741   28.2962 C   0  0  0  0  0  0  0  0  0  0  0  0
   10.8907  -15.3547   27.6149 C   0  0  1  0  0  0  0  0  0  0  0  0
   10.7735  -16.4077   28.6984 C   0  0  0  0  0  0  0  0  0  0  0  0
    9.6864  -16.9686   28.9679 O   0  0  0  0  0  0  0  0  0  0  0  0
   11.8940  -16.7732   29.4228 O   0  0  0  0  0  0  0  0  0  0  0  0
  2  1  1  6
  3  2  1  0
  4  3  1  0
  5  4  1  0
  5  6  1  0
  7  6  1  0
  8 13  1  0
  8  2  1  0
  9  8  2  0
 11 10  1  0
 12 11  1  1
 12 14  1  0
 12 13  1  0
 14 15  2  0
 16 20  1  0
 16 14  1  0
 17 18  1  0
 17 16  1  0
 18 19  1  0
 20 19  1  0
 20 21  1  1
 22 21  2  0
 23 21  1  0
M  END
$$$$
