KSP.pdb
     RDKit          3D

 23 23  0  0  1  0  0  0  0  0999 V2000
    8.9616  -15.4207   19.6986 N   0  0  0  0  0  0  0  0  0  0  0  0
    8.5359  -14.0717   20.0031 C   0  0  1  0  0  0  0  0  0  0  0  0
    7.6633  -13.5221   18.9209 C   0  0  0  0  0  0  0  0  0  0  0  0
    8.3486  -13.5487   17.5894 C   0  0  0  0  0  0  0  0  0  0  0  0
    7.6851  -14.4665   16.6002 C   0  0  0  0  0  0  0  0  0  0  0  0
    8.4513  -14.3458   15.2789 C   0  0  0  0  0  0  0  0  0  0  0  0
    7.8087  -15.2082   14.3131 N   0  0  0  0  0  0  0  0  0  0  0  0
    7.8379  -14.0467   21.3326 C   0  0  0  0  0  0  0  0  0  0  0  0
    7.3344  -12.9695   21.7011 O   0  0  0  0  0  0  0  0  0  0  0  0
    7.7021  -17.5516   23.9639 O   0  0  0  0  0  0  0  0  0  0  0  0
    6.6925  -16.6001   23.8220 C   0  0  0  0  0  0  0  0  0  0  0  0
    7.2208  -15.2159   23.4950 C   0  0  2  0  0  0  0  0  0  0  0  0
    7.7517  -15.1998   22.1409 N   0  0  0  0  0  0  0  0  0  0  0  0
    8.1559  -14.6847   24.5014 C   0  0  0  0  0  0  0  0  0  0  0  0
    9.4283  -14.7010   24.2924 O   0  0  0  0  0  0  0  0  0  0  0  0
    7.7654  -14.1352   25.7200 N   0  0  0  0  0  0  0  0  0  0  0  0
    6.3713  -14.0461   26.1943 C   0  0  0  0  0  0  0  0  0  0  0  0
    6.3779  -12.9879   27.2750 C   0  0  0  0  0  0  0  0  0  0  0  0
    7.7024  -12.2728   26.9844 C   0  0  0  0  0  0  0  0  0  0  0  0
    8.5668  -13.5291   26.7436 C   0  0  1  0  0  0  0  0  0  0  0  0
    8.4226  -14.4205   27.9606 C   0  0  0  0  0  0  0  0  0  0  0  0
    7.5168  -15.2807   28.0532 O   0  0  0  0  0  0  0  0  0  0  0  0
    9.3121  -14.2931   29.0125 O   0  0  0  0  0  0  0  0  0  0  0  0
  2  1  1  6
  3  2  1  0
  4  3  1  0
  5  4  1  0
  5  6  1  0
  7  6  1  0
  8 13  1  0
  8  2  1  0
  9  8  2  0
 11 10  1  0
 12 11  1  1
 12 14  1  0
 12 13  1  0
 14 15  2  0
 16 20  1  0
 16 14  1  0
 17 18  1  0
 17 16  1  0
 18 19  1  0
 20 19  1  0
 20 21  1  1
 22 21  2  0
 23 21  1  0
M  END
$$$$
