KSP.pdb
     RDKit          3D

 23 23  0  0  1  0  0  0  0  0999 V2000
    7.8344  -15.8926   20.0227 N   0  0  0  0  0  0  0  0  0  0  0  0
    8.2294  -14.7288   20.7864 C   0  0  1  0  0  0  0  0  0  0  0  0
    7.6542  -13.4781   20.2036 C   0  0  0  0  0  0  0  0  0  0  0  0
    8.3497  -13.0865   18.9362 C   0  0  0  0  0  0  0  0  0  0  0  0
    7.6552  -13.5881   17.7004 C   0  0  0  0  0  0  0  0  0  0  0  0
    8.4676  -13.1091   16.4930 C   0  0  0  0  0  0  0  0  0  0  0  0
    7.7862  -13.5500   15.2968 N   0  0  0  0  0  0  0  0  0  0  0  0
    7.8215  -14.9000   22.2216 C   0  0  0  0  0  0  0  0  0  0  0  0
    6.8264  -14.2666   22.6194 O   0  0  0  0  0  0  0  0  0  0  0  0
    7.0952  -17.4023   26.0503 O   0  0  0  0  0  0  0  0  0  0  0  0
    7.3469  -17.1231   24.7074 C   0  0  0  0  0  0  0  0  0  0  0  0
    8.2373  -15.9108   24.5083 C   0  0  2  0  0  0  0  0  0  0  0  0
    8.5361  -15.7476   23.0942 N   0  0  0  0  0  0  0  0  0  0  0  0
    9.4331  -15.9053   25.3683 C   0  0  0  0  0  0  0  0  0  0  0  0
   10.5394  -16.4289   24.9622 O   0  0  0  0  0  0  0  0  0  0  0  0
    9.4761  -15.3526   26.6458 N   0  0  0  0  0  0  0  0  0  0  0  0
    8.3454  -14.6736   27.3070 C   0  0  0  0  0  0  0  0  0  0  0  0
    8.9612  -13.8429   28.4109 C   0  0  0  0  0  0  0  0  0  0  0  0
   10.4279  -13.7972   27.9672 C   0  0  0  0  0  0  0  0  0  0  0  0
   10.5701  -15.2826   27.5708 C   0  0  1  0  0  0  0  0  0  0  0  0
   10.1516  -16.1144   28.7663 C   0  0  0  0  0  0  0  0  0  0  0  0
    9.0050  -16.6087   28.8659 O   0  0  0  0  0  0  0  0  0  0  0  0
   11.0533  -16.3451   29.7899 O   0  0  0  0  0  0  0  0  0  0  0  0
  2  1  1  6
  3  2  1  0
  4  3  1  0
  5  4  1  0
  5  6  1  0
  7  6  1  0
  8 13  1  0
  8  2  1  0
  9  8  2  0
 11 10  1  0
 12 11  1  6
 12 14  1  0
 12 13  1  0
 14 15  2  0
 16 20  1  0
 16 14  1  0
 17 18  1  0
 17 16  1  0
 18 19  1  0
 20 19  1  0
 20 21  1  1
 22 21  2  0
 23 21  1  0
M  END
$$$$
