VES.pdb
     RDKit          3D

 23 22  0  0  1  0  0  0  0  0999 V2000
    7.6670  -13.4498   21.0417 C   0  0  0  0  0  0  0  0  0  0  0  0
    8.8225  -13.1803   20.1098 C   0  0  2  0  0  0  0  0  0  0  0  0
    8.3874  -12.0327   19.2044 C   0  0  0  0  0  0  0  0  0  0  0  0
    8.9948  -14.4057   19.2257 C   0  0  2  0  0  0  0  0  0  0  0  0
    7.7858  -14.5522   18.4493 N   0  0  0  0  0  0  0  0  0  0  0  0
    9.3308  -15.6162   20.0169 C   0  0  0  0  0  0  0  0  0  0  0  0
    8.4009  -16.4458   20.3025 O   0  0  0  0  0  0  0  0  0  0  0  0
   10.6650  -15.8241   20.4349 N   0  0  0  0  0  0  0  0  0  0  0  0
   11.0615  -16.9574   21.2077 C   0  0  1  0  0  0  0  0  0  0  0  0
   12.3286  -17.5719   20.6448 C   0  0  0  0  0  0  0  0  0  0  0  0
   12.6968  -18.8241   21.3850 C   0  0  0  0  0  0  0  0  0  0  0  0
   13.8996  -19.4062   20.7810 C   0  0  0  0  0  0  0  0  0  0  0  0
   14.9972  -18.8231   20.8530 O   0  0  0  0  0  0  0  0  0  0  0  0
   11.3374  -16.6110   22.6313 C   0  0  0  0  0  0  0  0  0  0  0  0
   12.2142  -15.7434   22.8809 O   0  0  0  0  0  0  0  0  0  0  0  0
   13.8556  -20.6211   20.1120 O   0  0  0  0  0  0  0  0  0  0  0  0
    8.6244  -17.6907   25.5027 O   0  0  0  0  0  0  0  0  0  0  0  0
    9.5725  -16.7476   25.8638 C   0  0  0  0  0  0  0  0  0  0  0  0
   10.8439  -16.8540   25.0746 C   0  0  2  0  0  0  0  0  0  0  0  0
   10.6464  -17.2253   23.7062 N   0  0  0  0  0  0  0  0  0  0  0  0
   11.7609  -17.7691   25.7966 C   0  0  0  0  0  0  0  0  0  0  0  0
   12.1110  -17.4246   27.0951 O   0  0  0  0  0  0  0  0  0  0  0  0
   12.2304  -18.8217   25.3057 O   0  0  0  0  0  0  0  0  0  0  0  0
  2  1  1  1
  2  3  1  0
  4  2  1  0
  4  6  1  0
  4  5  1  1
  6  8  1  0
  6  7  2  0
  8  9  1  0
  9 14  1  0
 10 11  1  0
  9 10  1  6
 12 11  1  0
 13 12  2  0
 14 20  1  0
 14 15  2  0
 16 12  1  0
 17 18  1  0
 19 18  1  1
 19 21  1  0
 20 19  1  0
 21 22  1  0
 23 21  2  0
M  END
$$$$
