VES.pdb
     RDKit          3D

 23 22  0  0  1  0  0  0  0  0999 V2000
    5.9772  -12.8104   24.7397 C   0  0  0  0  0  0  0  0  0  0  0  0
    6.4168  -12.8251   26.1828 C   0  0  2  0  0  0  0  0  0  0  0  0
    6.3067  -11.3880   26.6815 C   0  0  0  0  0  0  0  0  0  0  0  0
    7.8916  -13.1953   26.2099 C   0  0  2  0  0  0  0  0  0  0  0  0
    8.5946  -12.2300   25.3973 N   0  0  0  0  0  0  0  0  0  0  0  0
    8.1183  -14.5975   25.7780 C   0  0  0  0  0  0  0  0  0  0  0  0
    7.6569  -15.5482   26.4975 O   0  0  0  0  0  0  0  0  0  0  0  0
    8.8357  -14.8496   24.5864 N   0  0  0  0  0  0  0  0  0  0  0  0
    9.1380  -16.1701   24.1349 C   0  0  1  0  0  0  0  0  0  0  0  0
    9.4390  -16.1713   22.6485 C   0  0  0  0  0  0  0  0  0  0  0  0
    9.7836  -17.5505   22.1682 C   0  0  0  0  0  0  0  0  0  0  0  0
   10.0543  -17.5067   20.7277 C   0  0  0  0  0  0  0  0  0  0  0  0
    9.3274  -16.8488   19.9604 O   0  0  0  0  0  0  0  0  0  0  0  0
   10.3256  -16.7521   24.8231 C   0  0  0  0  0  0  0  0  0  0  0  0
   11.4645  -16.2892   24.5538 O   0  0  0  0  0  0  0  0  0  0  0  0
   11.1248  -18.1938   20.1733 O   0  0  0  0  0  0  0  0  0  0  0  0
   10.0720  -18.7987   28.4348 O   0  0  0  0  0  0  0  0  0  0  0  0
   11.2667  -18.3176   27.9249 C   0  0  0  0  0  0  0  0  0  0  0  0
   11.3412  -18.3845   26.4281 C   0  0  2  0  0  0  0  0  0  0  0  0
   10.2120  -17.8049   25.7659 N   0  0  0  0  0  0  0  0  0  0  0  0
   11.5791  -19.7959   26.0398 C   0  0  0  0  0  0  0  0  0  0  0  0
   10.6704  -20.3769   25.1656 O   0  0  0  0  0  0  0  0  0  0  0  0
   12.5420  -20.4833   26.4516 O   0  0  0  0  0  0  0  0  0  0  0  0
  2  1  1  6
  2  3  1  0
  4  2  1  0
  4  6  1  0
  4  5  1  6
  6  8  1  0
  6  7  2  0
  8  9  1  0
  9 14  1  0
 10 11  1  0
  9 10  1  6
 12 11  1  0
 13 12  2  0
 14 20  1  0
 14 15  2  0
 16 12  1  0
 17 18  1  0
 19 18  1  1
 19 21  1  0
 20 19  1  0
 21 22  1  0
 23 21  2  0
M  END
$$$$
