VES.pdb
     RDKit          3D

 23 22  0  0  1  0  0  0  0  0999 V2000
    7.7073  -13.5087   21.1079 C   0  0  0  0  0  0  0  0  0  0  0  0
    8.7187  -13.4606   19.9895 C   0  0  2  0  0  0  0  0  0  0  0  0
    8.1804  -12.4683   18.9640 C   0  0  0  0  0  0  0  0  0  0  0  0
    8.7322  -14.8277   19.3235 C   0  0  2  0  0  0  0  0  0  0  0  0
    7.4731  -14.9850   18.6335 N   0  0  0  0  0  0  0  0  0  0  0  0
    9.0042  -15.9151   20.2971 C   0  0  0  0  0  0  0  0  0  0  0  0
    8.0320  -16.3968   20.9733 O   0  0  0  0  0  0  0  0  0  0  0  0
   10.3256  -16.3918   20.4542 N   0  0  0  0  0  0  0  0  0  0  0  0
   10.6811  -17.3636   21.4381 C   0  0  1  0  0  0  0  0  0  0  0  0
   11.9382  -18.1058   21.0271 C   0  0  0  0  0  0  0  0  0  0  0  0
   12.6073  -17.4328   19.8649 C   0  0  0  0  0  0  0  0  0  0  0  0
   13.6885  -18.2896   19.3677 C   0  0  0  0  0  0  0  0  0  0  0  0
   13.4552  -19.2126   18.5655 O   0  0  0  0  0  0  0  0  0  0  0  0
   10.9479  -16.7553   22.7728 C   0  0  0  0  0  0  0  0  0  0  0  0
   11.8197  -15.8517   22.8594 O   0  0  0  0  0  0  0  0  0  0  0  0
   15.0025  -18.1015   19.7723 O   0  0  0  0  0  0  0  0  0  0  0  0
    8.2018  -15.7202   24.8651 O   0  0  0  0  0  0  0  0  0  0  0  0
    9.1825  -15.9782   25.8087 C   0  0  0  0  0  0  0  0  0  0  0  0
   10.4416  -16.5383   25.2160 C   0  0  2  0  0  0  0  0  0  0  0  0
   10.2538  -17.1610   23.9406 N   0  0  0  0  0  0  0  0  0  0  0  0
   11.0615  -17.4411   26.2160 C   0  0  0  0  0  0  0  0  0  0  0  0
   11.3313  -16.9113   27.4705 O   0  0  0  0  0  0  0  0  0  0  0  0
   11.3510  -18.6395   25.9937 O   0  0  0  0  0  0  0  0  0  0  0  0
  2  1  1  1
  2  3  1  0
  4  2  1  0
  4  6  1  0
  4  5  1  1
  6  8  1  0
  6  7  2  0
  8  9  1  0
  9 14  1  0
 10 11  1  0
  9 10  1  6
 12 11  1  0
 13 12  2  0
 14 20  1  0
 14 15  2  0
 16 12  1  0
 17 18  1  0
 19 18  1  1
 19 21  1  0
 20 19  1  0
 21 22  1  0
 23 21  2  0
M  END
$$$$
