VES.pdb
     RDKit          3D

 23 22  0  0  1  0  0  0  0  0999 V2000
    7.3199  -14.6167   19.6281 C   0  0  0  0  0  0  0  0  0  0  0  0
    7.6997  -13.2974   20.2536 C   0  0  2  0  0  0  0  0  0  0  0  0
    8.0386  -12.3562   19.1023 C   0  0  0  0  0  0  0  0  0  0  0  0
    8.9807  -13.5156   21.0437 C   0  0  2  0  0  0  0  0  0  0  0  0
    9.9537  -14.0851   20.1410 N   0  0  0  0  0  0  0  0  0  0  0  0
    8.7505  -14.3454   22.2531 C   0  0  0  0  0  0  0  0  0  0  0  0
    7.7894  -14.0396   23.0388 O   0  0  0  0  0  0  0  0  0  0  0  0
    9.5947  -15.4501   22.5081 N   0  0  0  0  0  0  0  0  0  0  0  0
    9.5181  -16.2155   23.7111 C   0  0  1  0  0  0  0  0  0  0  0  0
   10.2223  -17.5481   23.5429 C   0  0  0  0  0  0  0  0  0  0  0  0
    9.5518  -18.3847   22.4931 C   0  0  0  0  0  0  0  0  0  0  0  0
   10.2974  -19.6360   22.3238 C   0  0  0  0  0  0  0  0  0  0  0  0
    9.7062  -20.7046   22.0815 O   0  0  0  0  0  0  0  0  0  0  0  0
   10.1555  -15.5262   24.8692 C   0  0  0  0  0  0  0  0  0  0  0  0
   11.3976  -15.3255   24.8415 O   0  0  0  0  0  0  0  0  0  0  0  0
   11.6807  -19.6716   22.4273 O   0  0  0  0  0  0  0  0  0  0  0  0
    7.8323  -13.3712   27.4186 O   0  0  0  0  0  0  0  0  0  0  0  0
    9.2007  -13.1920   27.5376 C   0  0  0  0  0  0  0  0  0  0  0  0
    9.9948  -14.3844   27.0926 C   0  0  2  0  0  0  0  0  0  0  0  0
    9.4097  -15.0924   25.9943 N   0  0  0  0  0  0  0  0  0  0  0  0
   10.2362  -15.2465   28.2749 C   0  0  0  0  0  0  0  0  0  0  0  0
   10.7041  -14.6293   29.4272 O   0  0  0  0  0  0  0  0  0  0  0  0
   10.0436  -16.4842   28.2908 O   0  0  0  0  0  0  0  0  0  0  0  0
  2  1  1  6
  2  3  1  0
  4  2  1  0
  4  6  1  0
  4  5  1  6
  6  8  1  0
  6  7  2  0
  8  9  1  0
  9 14  1  0
 10 11  1  0
  9 10  1  6
 12 11  1  0
 13 12  2  0
 14 20  1  0
 14 15  2  0
 16 12  1  0
 17 18  1  0
 19 18  1  1
 19 21  1  0
 20 19  1  0
 21 22  1  0
 23 21  2  0
M  END
$$$$
