VES.pdb
     RDKit          3D

 23 22  0  0  1  0  0  0  0  0999 V2000
    7.5540  -13.4479   21.2408 C   0  0  0  0  0  0  0  0  0  0  0  0
    8.5414  -13.3970   20.1012 C   0  0  2  0  0  0  0  0  0  0  0  0
    7.9785  -12.4066   19.0871 C   0  0  0  0  0  0  0  0  0  0  0  0
    8.5450  -14.7642   19.4353 C   0  0  2  0  0  0  0  0  0  0  0  0
    7.2372  -14.9668   18.8567 N   0  0  0  0  0  0  0  0  0  0  0  0
    8.9380  -15.8393   20.3808 C   0  0  0  0  0  0  0  0  0  0  0  0
    8.0242  -16.4666   21.0180 O   0  0  0  0  0  0  0  0  0  0  0  0
   10.3072  -16.1446   20.5547 N   0  0  0  0  0  0  0  0  0  0  0  0
   10.7656  -17.1138   21.4978 C   0  0  1  0  0  0  0  0  0  0  0  0
   12.1405  -17.6256   21.1132 C   0  0  0  0  0  0  0  0  0  0  0  0
   12.0574  -18.5863   19.9637 C   0  0  0  0  0  0  0  0  0  0  0  0
   13.3918  -19.1293   19.6905 C   0  0  0  0  0  0  0  0  0  0  0  0
   14.1518  -18.5769   18.8735 O   0  0  0  0  0  0  0  0  0  0  0  0
   10.8738  -16.5620   22.8785 C   0  0  0  0  0  0  0  0  0  0  0  0
   11.5639  -15.5254   23.0605 O   0  0  0  0  0  0  0  0  0  0  0  0
   13.8510  -20.2719   20.3302 O   0  0  0  0  0  0  0  0  0  0  0  0
    8.2713  -15.2882   24.9037 O   0  0  0  0  0  0  0  0  0  0  0  0
    8.9079  -16.1423   25.7891 C   0  0  0  0  0  0  0  0  0  0  0  0
   10.2498  -16.6053   25.3036 C   0  0  2  0  0  0  0  0  0  0  0  0
   10.2270  -17.1657   23.9864 N   0  0  0  0  0  0  0  0  0  0  0  0
   10.8141  -17.5297   26.3168 C   0  0  0  0  0  0  0  0  0  0  0  0
   10.8819  -17.0736   27.6263 O   0  0  0  0  0  0  0  0  0  0  0  0
   11.2274  -18.6839   26.0592 O   0  0  0  0  0  0  0  0  0  0  0  0
  2  1  1  1
  2  3  1  0
  4  2  1  0
  4  6  1  0
  4  5  1  1
  6  8  1  0
  6  7  2  0
  8  9  1  0
  9 14  1  0
 10 11  1  0
  9 10  1  6
 12 11  1  0
 13 12  2  0
 14 20  1  0
 14 15  2  0
 16 12  1  0
 17 18  1  0
 19 18  1  1
 19 21  1  0
 20 19  1  0
 21 22  1  0
 23 21  2  0
M  END
$$$$
