VES.pdb
     RDKit          3D

 23 22  0  0  1  0  0  0  0  0999 V2000
    7.3470  -12.7888   21.4280 C   0  0  0  0  0  0  0  0  0  0  0  0
    8.4608  -13.1875   20.4917 C   0  0  2  0  0  0  0  0  0  0  0  0
    8.1245  -12.5745   19.1362 C   0  0  0  0  0  0  0  0  0  0  0  0
    8.4023  -14.6980   20.3254 C   0  0  2  0  0  0  0  0  0  0  0  0
    7.1935  -15.0064   19.5975 N   0  0  0  0  0  0  0  0  0  0  0  0
    8.4944  -15.4024   21.6291 C   0  0  0  0  0  0  0  0  0  0  0  0
    7.4294  -15.5751   22.3150 O   0  0  0  0  0  0  0  0  0  0  0  0
    9.7514  -15.8644   22.0813 N   0  0  0  0  0  0  0  0  0  0  0  0
    9.9325  -16.4752   23.3592 C   0  0  1  0  0  0  0  0  0  0  0  0
   11.1269  -17.4096   23.3410 C   0  0  0  0  0  0  0  0  0  0  0  0
   10.8809  -18.5835   22.4395 C   0  0  0  0  0  0  0  0  0  0  0  0
   10.1798  -19.6303   23.1900 C   0  0  0  0  0  0  0  0  0  0  0  0
   10.7308  -20.2112   24.1434 O   0  0  0  0  0  0  0  0  0  0  0  0
   10.1726  -15.4780   24.4411 C   0  0  0  0  0  0  0  0  0  0  0  0
   11.2539  -14.8340   24.4373 O   0  0  0  0  0  0  0  0  0  0  0  0
    8.8846  -20.0071   22.8647 O   0  0  0  0  0  0  0  0  0  0  0  0
    7.0369  -14.0798   26.7140 O   0  0  0  0  0  0  0  0  0  0  0  0
    8.2395  -13.3941   26.7630 C   0  0  0  0  0  0  0  0  0  0  0  0
    9.4306  -14.2688   26.5050 C   0  0  2  0  0  0  0  0  0  0  0  0
    9.2259  -15.2343   25.4680 N   0  0  0  0  0  0  0  0  0  0  0  0
    9.8432  -14.8794   27.7919 C   0  0  0  0  0  0  0  0  0  0  0  0
   10.1154  -14.0182   28.8463 O   0  0  0  0  0  0  0  0  0  0  0  0
    9.9580  -16.1130   27.9774 O   0  0  0  0  0  0  0  0  0  0  0  0
  2  1  1  1
  2  3  1  0
  4  2  1  0
  4  6  1  0
  4  5  1  1
  6  8  1  0
  6  7  2  0
  8  9  1  0
  9 14  1  0
 10 11  1  0
  9 10  1  6
 12 11  1  0
 13 12  2  0
 14 20  1  0
 14 15  2  0
 16 12  1  0
 17 18  1  0
 19 18  1  1
 19 21  1  0
 20 19  1  0
 21 22  1  0
 23 21  2  0
M  END
$$$$
