VES.pdb
     RDKit          3D

 23 22  0  0  1  0  0  0  0  0999 V2000
    7.6793  -13.4972   21.5955 C   0  0  0  0  0  0  0  0  0  0  0  0
    8.4119  -13.5082   20.2767 C   0  0  2  0  0  0  0  0  0  0  0  0
    7.6339  -12.5859   19.3438 C   0  0  0  0  0  0  0  0  0  0  0  0
    8.3068  -14.9135   19.7047 C   0  0  2  0  0  0  0  0  0  0  0  0
    6.9023  -15.2307   19.5926 N   0  0  0  0  0  0  0  0  0  0  0  0
    9.0651  -15.8992   20.5157 C   0  0  0  0  0  0  0  0  0  0  0  0
    8.4684  -16.5021   21.4723 O   0  0  0  0  0  0  0  0  0  0  0  0
   10.4233  -16.1484   20.2138 N   0  0  0  0  0  0  0  0  0  0  0  0
   11.2126  -17.0908   20.9404 C   0  0  1  0  0  0  0  0  0  0  0  0
   12.5960  -17.2124   20.3310 C   0  0  0  0  0  0  0  0  0  0  0  0
   13.3838  -18.3046   20.9927 C   0  0  0  0  0  0  0  0  0  0  0  0
   13.8310  -19.2618   19.9758 C   0  0  0  0  0  0  0  0  0  0  0  0
   13.9842  -20.4655   20.2544 O   0  0  0  0  0  0  0  0  0  0  0  0
   11.3952  -16.7038   22.3685 C   0  0  0  0  0  0  0  0  0  0  0  0
   11.5296  -15.4844   22.6494 O   0  0  0  0  0  0  0  0  0  0  0  0
   14.0972  -18.8605   18.6744 O   0  0  0  0  0  0  0  0  0  0  0  0
    9.8895  -16.7827   26.6447 O   0  0  0  0  0  0  0  0  0  0  0  0
    9.9464  -17.1416   25.3080 C   0  0  0  0  0  0  0  0  0  0  0  0
   11.3477  -17.3073   24.7987 C   0  0  2  0  0  0  0  0  0  0  0  0
   11.4221  -17.6615   23.4136 N   0  0  0  0  0  0  0  0  0  0  0  0
   12.0496  -18.2703   25.6814 C   0  0  0  0  0  0  0  0  0  0  0  0
   12.2228  -17.9060   27.0099 O   0  0  0  0  0  0  0  0  0  0  0  0
   12.4887  -19.3797   25.2994 O   0  0  0  0  0  0  0  0  0  0  0  0
  2  1  1  1
  2  3  1  0
  4  2  1  0
  4  6  1  0
  4  5  1  1
  6  8  1  0
  6  7  2  0
  8  9  1  0
  9 14  1  0
 10 11  1  0
  9 10  1  6
 12 11  1  0
 13 12  2  0
 14 20  1  0
 14 15  2  0
 16 12  1  0
 17 18  1  0
 19 18  1  1
 19 21  1  0
 20 19  1  0
 21 22  1  0
 23 21  2  0
M  END
$$$$
