VES.pdb
     RDKit          3D

 23 22  0  0  1  0  0  0  0  0999 V2000
    9.0159  -13.4714   17.5316 C   0  0  0  0  0  0  0  0  0  0  0  0
    8.0453  -13.4437   18.6863 C   0  0  2  0  0  0  0  0  0  0  0  0
    7.3197  -12.1046   18.6073 C   0  0  0  0  0  0  0  0  0  0  0  0
    8.8598  -13.4350   19.9706 C   0  0  2  0  0  0  0  0  0  0  0  0
    9.6775  -12.2445   19.9560 N   0  0  0  0  0  0  0  0  0  0  0  0
    9.6478  -14.6825   20.1347 C   0  0  0  0  0  0  0  0  0  0  0  0
    9.0352  -15.8046   20.1387 O   0  0  0  0  0  0  0  0  0  0  0  0
   11.0514  -14.6027   20.2821 N   0  0  0  0  0  0  0  0  0  0  0  0
   11.8799  -15.7599   20.3980 C   0  0  1  0  0  0  0  0  0  0  0  0
   13.1426  -15.5983   19.5737 C   0  0  0  0  0  0  0  0  0  0  0  0
   12.8416  -15.6661   18.1053 C   0  0  0  0  0  0  0  0  0  0  0  0
   14.0972  -15.5953   17.3511 C   0  0  0  0  0  0  0  0  0  0  0  0
   14.2398  -16.2247   16.2864 O   0  0  0  0  0  0  0  0  0  0  0  0
   12.3042  -16.0214   21.8030 C   0  0  0  0  0  0  0  0  0  0  0  0
   13.1061  -15.2196   22.3491 O   0  0  0  0  0  0  0  0  0  0  0  0
   15.1642  -14.8279   17.7962 O   0  0  0  0  0  0  0  0  0  0  0  0
   10.0128  -16.6614   24.7179 O   0  0  0  0  0  0  0  0  0  0  0  0
   10.9868  -17.6438   24.7886 C   0  0  0  0  0  0  0  0  0  0  0  0
   12.1718  -17.3668   23.9113 C   0  0  2  0  0  0  0  0  0  0  0  0
   11.8350  -17.1389   22.5386 N   0  0  0  0  0  0  0  0  0  0  0  0
   13.1489  -18.4674   24.0932 C   0  0  0  0  0  0  0  0  0  0  0  0
   13.6450  -18.6726   25.3735 O   0  0  0  0  0  0  0  0  0  0  0  0
   13.5459  -19.2122   23.1673 O   0  0  0  0  0  0  0  0  0  0  0  0
  2  1  1  6
  2  3  1  0
  4  2  1  0
  4  6  1  0
  4  5  1  6
  6  8  1  0
  6  7  2  0
  8  9  1  0
  9 14  1  0
 10 11  1  0
  9 10  1  6
 12 11  1  0
 13 12  2  0
 14 20  1  0
 14 15  2  0
 16 12  1  0
 17 18  1  0
 19 18  1  1
 19 21  1  0
 20 19  1  0
 21 22  1  0
 23 21  2  0
M  END
$$$$
