VES.pdb
     RDKit          3D

 23 22  0  0  1  0  0  0  0  0999 V2000
    7.1408  -12.3668   18.4224 C   0  0  0  0  0  0  0  0  0  0  0  0
    7.6723  -13.4380   19.3423 C   0  0  2  0  0  0  0  0  0  0  0  0
    8.4555  -12.7180   20.4351 C   0  0  0  0  0  0  0  0  0  0  0  0
    8.6706  -14.2688   18.5512 C   0  0  2  0  0  0  0  0  0  0  0  0
    7.9754  -14.8024   17.4031 N   0  0  0  0  0  0  0  0  0  0  0  0
    9.3048  -15.3177   19.3890 C   0  0  0  0  0  0  0  0  0  0  0  0
    8.6654  -16.4024   19.6105 O   0  0  0  0  0  0  0  0  0  0  0  0
   10.5955  -15.0952   19.9207 N   0  0  0  0  0  0  0  0  0  0  0  0
   11.2317  -16.0163   20.8072 C   0  0  1  0  0  0  0  0  0  0  0  0
   12.6970  -16.1767   20.4503 C   0  0  0  0  0  0  0  0  0  0  0  0
   13.3370  -14.8461   20.1839 C   0  0  0  0  0  0  0  0  0  0  0  0
   14.7202  -15.0548   19.7439 C   0  0  0  0  0  0  0  0  0  0  0  0
   15.1917  -16.2024   19.6401 O   0  0  0  0  0  0  0  0  0  0  0  0
   11.1730  -15.5745   22.2299 C   0  0  0  0  0  0  0  0  0  0  0  0
   11.6635  -14.4561   22.5339 O   0  0  0  0  0  0  0  0  0  0  0  0
   15.5468  -13.9854   19.4297 O   0  0  0  0  0  0  0  0  0  0  0  0
    8.0946  -16.2721   24.5625 O   0  0  0  0  0  0  0  0  0  0  0  0
    9.1205  -15.4432   24.9858 C   0  0  0  0  0  0  0  0  0  0  0  0
   10.4823  -15.9466   24.6083 C   0  0  2  0  0  0  0  0  0  0  0  0
   10.5850  -16.3709   23.2449 N   0  0  0  0  0  0  0  0  0  0  0  0
   10.8688  -17.0032   25.5746 C   0  0  0  0  0  0  0  0  0  0  0  0
   11.3087  -18.2122   25.0529 O   0  0  0  0  0  0  0  0  0  0  0  0
   10.8209  -16.8663   26.8189 O   0  0  0  0  0  0  0  0  0  0  0  0
  2  1  1  6
  2  3  1  0
  4  2  1  0
  4  6  1  0
  4  5  1  6
  6  8  1  0
  6  7  2  0
  8  9  1  0
  9 14  1  0
 10 11  1  0
  9 10  1  6
 12 11  1  0
 13 12  2  0
 14 20  1  0
 14 15  2  0
 16 12  1  0
 17 18  1  0
 19 18  1  1
 19 21  1  0
 20 19  1  0
 21 22  1  0
 23 21  2  0
M  END
$$$$
