VES.pdb
     RDKit          3D

 23 22  0  0  1  0  0  0  0  0999 V2000
    7.6531  -14.3469   19.0777 C   0  0  0  0  0  0  0  0  0  0  0  0
    8.2724  -13.3578   20.0338 C   0  0  2  0  0  0  0  0  0  0  0  0
    8.1045  -11.9814   19.3986 C   0  0  0  0  0  0  0  0  0  0  0  0
    9.7648  -13.6450   20.0890 C   0  0  2  0  0  0  0  0  0  0  0  0
   10.2633  -13.6040   18.7341 N   0  0  0  0  0  0  0  0  0  0  0  0
   10.0566  -14.9263   20.7799 C   0  0  0  0  0  0  0  0  0  0  0  0
    9.3716  -15.2419   21.8122 O   0  0  0  0  0  0  0  0  0  0  0  0
   11.0803  -15.7652   20.2836 N   0  0  0  0  0  0  0  0  0  0  0  0
   11.4611  -16.9798   20.9306 C   0  0  1  0  0  0  0  0  0  0  0  0
   12.6333  -17.6225   20.2145 C   0  0  0  0  0  0  0  0  0  0  0  0
   12.9373  -18.9772   20.7836 C   0  0  0  0  0  0  0  0  0  0  0  0
   14.0550  -19.5722   20.0440 C   0  0  0  0  0  0  0  0  0  0  0  0
   15.2253  -19.4576   20.4530 O   0  0  0  0  0  0  0  0  0  0  0  0
   11.8754  -16.7681   22.3469 C   0  0  0  0  0  0  0  0  0  0  0  0
   12.8029  -15.9521   22.5876 O   0  0  0  0  0  0  0  0  0  0  0  0
   13.8473  -20.2799   18.8686 O   0  0  0  0  0  0  0  0  0  0  0  0
    9.3894  -17.6746   25.5633 O   0  0  0  0  0  0  0  0  0  0  0  0
   10.4935  -16.8461   25.6786 C   0  0  0  0  0  0  0  0  0  0  0  0
   11.6336  -17.2524   24.7922 C   0  0  2  0  0  0  0  0  0  0  0  0
   11.2604  -17.4537   23.4248 N   0  0  0  0  0  0  0  0  0  0  0  0
   12.2875  -18.4391   25.3950 C   0  0  0  0  0  0  0  0  0  0  0  0
   12.7931  -18.3024   26.6808 O   0  0  0  0  0  0  0  0  0  0  0  0
   12.4071  -19.5433   24.8155 O   0  0  0  0  0  0  0  0  0  0  0  0
  2  1  1  6
  2  3  1  0
  4  2  1  0
  4  6  1  0
  4  5  1  6
  6  8  1  0
  6  7  2  0
  8  9  1  0
  9 14  1  0
 10 11  1  0
  9 10  1  6
 12 11  1  0
 13 12  2  0
 14 20  1  0
 14 15  2  0
 16 12  1  0
 17 18  1  0
 19 18  1  1
 19 21  1  0
 20 19  1  0
 21 22  1  0
 23 21  2  0
M  END
$$$$
