VES.pdb
     RDKit          3D

 23 22  0  0  1  0  0  0  0  0999 V2000
    6.8994  -13.9281   20.1249 C   0  0  0  0  0  0  0  0  0  0  0  0
    8.1361  -13.1147   20.4164 C   0  0  2  0  0  0  0  0  0  0  0  0
    8.5109  -12.4178   19.1125 C   0  0  0  0  0  0  0  0  0  0  0  0
    9.2593  -14.0871   20.7416 C   0  0  2  0  0  0  0  0  0  0  0  0
    9.3502  -15.0245   19.6467 N   0  0  0  0  0  0  0  0  0  0  0  0
    9.0585  -14.7443   22.0577 C   0  0  0  0  0  0  0  0  0  0  0  0
    8.1834  -14.2686   22.8591 O   0  0  0  0  0  0  0  0  0  0  0  0
    9.8354  -15.8763   22.3941 N   0  0  0  0  0  0  0  0  0  0  0  0
    9.7336  -16.5312   23.6589 C   0  0  1  0  0  0  0  0  0  0  0  0
   10.3315  -17.9232   23.5901 C   0  0  0  0  0  0  0  0  0  0  0  0
   10.1681  -18.6465   24.8945 C   0  0  0  0  0  0  0  0  0  0  0  0
   10.8501  -19.9423   24.8170 C   0  0  0  0  0  0  0  0  0  0  0  0
   11.5316  -20.2475   23.8208 O   0  0  0  0  0  0  0  0  0  0  0  0
   10.4509  -15.7991   24.7416 C   0  0  0  0  0  0  0  0  0  0  0  0
   11.6352  -15.4270   24.5346 O   0  0  0  0  0  0  0  0  0  0  0  0
   10.7596  -20.8682   25.8466 O   0  0  0  0  0  0  0  0  0  0  0  0
    8.4075  -13.6328   27.4287 O   0  0  0  0  0  0  0  0  0  0  0  0
    9.7856  -13.4967   27.3955 C   0  0  0  0  0  0  0  0  0  0  0  0
   10.4966  -14.7637   27.0215 C   0  0  2  0  0  0  0  0  0  0  0  0
    9.8434  -15.5111   25.9898 N   0  0  0  0  0  0  0  0  0  0  0  0
   10.7164  -15.5526   28.2579 C   0  0  0  0  0  0  0  0  0  0  0  0
   11.3085  -14.9011   29.3313 O   0  0  0  0  0  0  0  0  0  0  0  0
   10.4013  -16.7584   28.3850 O   0  0  0  0  0  0  0  0  0  0  0  0
  2  1  1  6
  2  3  1  0
  4  2  1  0
  4  6  1  0
  4  5  1  6
  6  8  1  0
  6  7  2  0
  8  9  1  0
  9 14  1  0
 10 11  1  0
  9 10  1  6
 12 11  1  0
 13 12  2  0
 14 20  1  0
 14 15  2  0
 16 12  1  0
 17 18  1  0
 19 18  1  1
 19 21  1  0
 20 19  1  0
 21 22  1  0
 23 21  2  0
M  END
$$$$
