VES.pdb
     RDKit          3D

 23 22  0  0  1  0  0  0  0  0999 V2000
    7.4778  -13.4862   22.1758 C   0  0  0  0  0  0  0  0  0  0  0  0
    8.3086  -13.4806   20.9165 C   0  0  2  0  0  0  0  0  0  0  0  0
    7.6329  -12.5047   19.9588 C   0  0  0  0  0  0  0  0  0  0  0  0
    8.2047  -14.8633   20.2917 C   0  0  2  0  0  0  0  0  0  0  0  0
    6.8152  -15.0884   19.9684 N   0  0  0  0  0  0  0  0  0  0  0  0
    8.7767  -15.9129   21.1723 C   0  0  0  0  0  0  0  0  0  0  0  0
    7.9873  -16.6058   21.9012 O   0  0  0  0  0  0  0  0  0  0  0  0
   10.1745  -16.1223   21.1853 N   0  0  0  0  0  0  0  0  0  0  0  0
   10.8013  -17.0796   22.0394 C   0  0  1  0  0  0  0  0  0  0  0  0
   12.2534  -17.2757   21.6484 C   0  0  0  0  0  0  0  0  0  0  0  0
   12.9114  -18.3092   22.5145 C   0  0  0  0  0  0  0  0  0  0  0  0
   14.2959  -18.5009   22.0708 C   0  0  0  0  0  0  0  0  0  0  0  0
   14.6871  -18.0430   20.9812 O   0  0  0  0  0  0  0  0  0  0  0  0
   10.7851  -16.6657   23.4716 C   0  0  0  0  0  0  0  0  0  0  0  0
   10.8411  -15.4384   23.7444 O   0  0  0  0  0  0  0  0  0  0  0  0
   15.2127  -19.1959   22.8467 O   0  0  0  0  0  0  0  0  0  0  0  0
    8.2667  -16.0118   25.4926 O   0  0  0  0  0  0  0  0  0  0  0  0
    8.8094  -17.1697   26.0250 C   0  0  0  0  0  0  0  0  0  0  0  0
   10.2974  -17.2584   25.8556 C   0  0  2  0  0  0  0  0  0  0  0  0
   10.7092  -17.6067   24.5294 N   0  0  0  0  0  0  0  0  0  0  0  0
   10.8259  -18.1827   26.8879 C   0  0  0  0  0  0  0  0  0  0  0  0
   10.5381  -17.8873   28.2135 O   0  0  0  0  0  0  0  0  0  0  0  0
   11.5085  -19.2017   26.6327 O   0  0  0  0  0  0  0  0  0  0  0  0
  2  1  1  1
  2  3  1  0
  4  2  1  0
  4  6  1  0
  4  5  1  1
  6  8  1  0
  6  7  2  0
  8  9  1  0
  9 14  1  0
 10 11  1  0
  9 10  1  6
 12 11  1  0
 13 12  2  0
 14 20  1  0
 14 15  2  0
 16 12  1  0
 17 18  1  0
 19 18  1  6
 19 21  1  0
 20 19  1  0
 21 22  1  0
 23 21  2  0
M  END
$$$$
