VES.pdb
     RDKit          3D

 23 22  0  0  1  0  0  0  0  0999 V2000
    8.4514  -14.6266   19.1262 C   0  0  0  0  0  0  0  0  0  0  0  0
    7.4151  -14.0916   20.0833 C   0  0  2  0  0  0  0  0  0  0  0  0
    7.2032  -12.6270   19.7144 C   0  0  0  0  0  0  0  0  0  0  0  0
    8.0213  -14.1175   21.4778 C   0  0  2  0  0  0  0  0  0  0  0  0
    9.1281  -13.1897   21.4855 N   0  0  0  0  0  0  0  0  0  0  0  0
    8.4080  -15.4911   21.8878 C   0  0  0  0  0  0  0  0  0  0  0  0
    7.4901  -16.3246   22.1996 O   0  0  0  0  0  0  0  0  0  0  0  0
    9.7759  -15.8456   21.9239 N   0  0  0  0  0  0  0  0  0  0  0  0
   10.2307  -17.1093   22.4087 C   0  0  1  0  0  0  0  0  0  0  0  0
   11.2719  -17.6969   21.4755 C   0  0  0  0  0  0  0  0  0  0  0  0
   10.6339  -18.2568   20.2382 C   0  0  0  0  0  0  0  0  0  0  0  0
   11.6779  -18.7778   19.3499 C   0  0  0  0  0  0  0  0  0  0  0  0
   12.8765  -18.7466   19.6851 O   0  0  0  0  0  0  0  0  0  0  0  0
   10.8565  -17.0128   23.7584 C   0  0  0  0  0  0  0  0  0  0  0  0
   11.6091  -16.0346   24.0046 O   0  0  0  0  0  0  0  0  0  0  0  0
   11.3669  -19.3208   18.1115 O   0  0  0  0  0  0  0  0  0  0  0  0
   10.8831  -18.0172   28.4388 O   0  0  0  0  0  0  0  0  0  0  0  0
   10.2717  -17.9552   27.1974 C   0  0  0  0  0  0  0  0  0  0  0  0
   11.2471  -17.9246   26.0580 C   0  0  2  0  0  0  0  0  0  0  0  0
   10.6312  -17.9833   24.7670 N   0  0  0  0  0  0  0  0  0  0  0  0
   12.2441  -19.0011   26.2739 C   0  0  0  0  0  0  0  0  0  0  0  0
   13.0242  -18.9252   27.4198 O   0  0  0  0  0  0  0  0  0  0  0  0
   12.4185  -19.9622   25.4896 O   0  0  0  0  0  0  0  0  0  0  0  0
  2  1  1  6
  2  3  1  0
  4  2  1  0
  4  6  1  0
  4  5  1  6
  6  8  1  0
  6  7  2  0
  8  9  1  0
  9 14  1  0
 10 11  1  0
  9 10  1  6
 12 11  1  0
 13 12  2  0
 14 20  1  0
 14 15  2  0
 16 12  1  0
 17 18  1  0
 19 18  1  1
 19 21  1  0
 20 19  1  0
 21 22  1  0
 23 21  2  0
M  END
$$$$
