FFR.pdb
     RDKit          3D

 34 35  0  0  1  0  0  0  0  0999 V2000
   26.3701  -18.6482   -8.3479 N   0  0  0  0  0  0  0  0  0  0  0  0
   26.6273  -20.0259   -8.7540 C   0  0  1  0  0  0  0  0  0  0  0  0
   26.4348  -20.8639   -7.5084 C   0  0  0  0  0  0  0  0  0  0  0  0
   27.4299  -20.4551   -6.4546 C   0  0  0  0  0  0  0  0  0  0  0  0
   28.7623  -20.7094   -6.6944 C   0  0  0  0  0  0  0  0  0  0  0  0
   29.6895  -20.3440   -5.7433 C   0  0  0  0  0  0  0  0  0  0  0  0
   29.2877  -19.7353   -4.5747 C   0  0  0  0  0  0  0  0  0  0  0  0
   27.9465  -19.4811   -4.3371 C   0  0  0  0  0  0  0  0  0  0  0  0
   27.0331  -19.8524   -5.2969 C   0  0  0  0  0  0  0  0  0  0  0  0
   25.7009  -20.3702   -9.8373 C   0  0  0  0  0  0  0  0  0  0  0  0
   24.4649  -20.0428   -9.7883 O   0  0  0  0  0  0  0  0  0  0  0  0
   26.0757  -21.0818  -11.0163 N   0  0  0  0  0  0  0  0  0  0  0  0
   25.3135  -21.0136  -12.2399 C   0  0  1  0  0  0  0  0  0  0  0  0
   26.2923  -21.2525  -13.4006 C   0  0  0  0  0  0  0  0  0  0  0  0
   27.1076  -20.0512  -13.5990 C   0  0  0  0  0  0  0  0  0  0  0  0
   28.4678  -20.0814  -13.3151 C   0  0  0  0  0  0  0  0  0  0  0  0
   29.2505  -18.9507  -13.4977 C   0  0  0  0  0  0  0  0  0  0  0  0
   28.6979  -17.7820  -13.9614 C   0  0  0  0  0  0  0  0  0  0  0  0
   27.3466  -17.7676  -14.2386 C   0  0  0  0  0  0  0  0  0  0  0  0
   26.5454  -18.8993  -14.0596 C   0  0  0  0  0  0  0  0  0  0  0  0
   24.3143  -22.1053  -12.3450 C   0  0  0  0  0  0  0  0  0  0  0  0
   24.4307  -23.0978  -11.5668 O   0  0  0  0  0  0  0  0  0  0  0  0
   17.4599  -23.7567   -9.7836 N   0  0  0  0  0  0  0  0  0  0  0  0
   18.4871  -23.7725   -8.7997 C   0  0  0  0  0  0  0  0  0  0  0  0
   18.4200  -24.6528   -7.8489 N   0  0  0  0  0  0  0  0  0  0  0  0
   19.5592  -22.8521   -8.8537 N   0  0  0  0  0  0  0  0  0  0  0  0
   19.6157  -21.8333   -9.9277 C   0  0  0  0  0  0  0  0  0  0  0  0
   20.1107  -22.4780  -11.1788 C   0  0  0  0  0  0  0  0  0  0  0  0
   21.4130  -22.1794  -11.7211 C   0  0  0  0  0  0  0  0  0  0  0  0
   21.9412  -22.7969  -12.9569 C   0  0  2  0  0  0  0  0  0  0  0  0
   23.2479  -22.1143  -13.2481 N   0  0  0  0  0  0  0  0  0  0  0  0
   21.1561  -22.4912  -14.1787 C   0  0  0  0  0  0  0  0  0  0  0  0
   21.3816  -21.2623  -14.8568 O   0  0  0  0  0  0  0  0  0  0  0  0
   20.2844  -23.1879  -14.7242 O   0  0  0  0  0  0  0  0  0  0  0  0
  2  1  1  1
  3  2  1  0
  4  3  1  0
  4  5  2  0
  6  5  1  0
  7  6  2  0
  8  9  2  0
  8  7  1  0
  9  4  1  0
 10  2  1  0
 11 10  2  0
 12 10  1  0
 13 12  1  0
 13 14  1  6
 15 14  1  0
 16 15  2  0
 17 16  1  0
 18 17  2  0
 18 19  1  0
 19 20  2  0
 20 15  1  0
 21 22  2  0
 21 13  1  0
 23 24  1  0
 24 25  2  0
 26 27  1  0
 26 24  1  0
 27 28  1  0
 30 29  1  1
 29 28  1  0
 30 31  1  0
 31 21  1  0
 32 30  1  0
 33 32  1  0
 34 32  2  0
M  END
$$$$
