FFR.pdb
     RDKit          3D

 34 35  0  0  1  0  0  0  0  0999 V2000
   28.4156  -21.7407  -16.0856 N   0  0  0  0  0  0  0  0  0  0  0  0
   27.8353  -20.5481  -15.4775 C   0  0  1  0  0  0  0  0  0  0  0  0
   26.9855  -19.9097  -16.5550 C   0  0  0  0  0  0  0  0  0  0  0  0
   27.8632  -19.1795  -17.5371 C   0  0  0  0  0  0  0  0  0  0  0  0
   28.3991  -17.9720  -17.1473 C   0  0  0  0  0  0  0  0  0  0  0  0
   29.2046  -17.2871  -18.0304 C   0  0  0  0  0  0  0  0  0  0  0  0
   29.4671  -17.8038  -19.2801 C   0  0  0  0  0  0  0  0  0  0  0  0
   28.9261  -19.0188  -19.6686 C   0  0  0  0  0  0  0  0  0  0  0  0
   28.1237  -19.6902  -18.7749 C   0  0  0  0  0  0  0  0  0  0  0  0
   27.0687  -20.9567  -14.2960 C   0  0  0  0  0  0  0  0  0  0  0  0
   26.4586  -22.0806  -14.2518 O   0  0  0  0  0  0  0  0  0  0  0  0
   26.9328  -20.1655  -13.1160 N   0  0  0  0  0  0  0  0  0  0  0  0
   26.0875  -20.5550  -12.0131 C   0  0  1  0  0  0  0  0  0  0  0  0
   26.2898  -19.5191  -10.8958 C   0  0  0  0  0  0  0  0  0  0  0  0
   26.9018  -20.1736   -9.7364 C   0  0  0  0  0  0  0  0  0  0  0  0
   28.0982  -20.8659   -9.8820 C   0  0  0  0  0  0  0  0  0  0  0  0
   28.6873  -21.4908   -8.7926 C   0  0  0  0  0  0  0  0  0  0  0  0
   28.1013  -21.4376   -7.5516 C   0  0  0  0  0  0  0  0  0  0  0  0
   26.9142  -20.7469   -7.4229 C   0  0  0  0  0  0  0  0  0  0  0  0
   26.3089  -20.1122   -8.5118 C   0  0  0  0  0  0  0  0  0  0  0  0
   24.6452  -20.4812  -12.3529 C   0  0  0  0  0  0  0  0  0  0  0  0
   24.2399  -19.4853  -13.0223 O   0  0  0  0  0  0  0  0  0  0  0  0
   20.2690  -25.3111  -15.6504 N   0  0  0  0  0  0  0  0  0  0  0  0
   19.0019  -25.1232  -15.0318 C   0  0  0  0  0  0  0  0  0  0  0  0
   18.1225  -26.0730  -15.1213 N   0  0  0  0  0  0  0  0  0  0  0  0
   18.7040  -23.9303  -14.3335 N   0  0  0  0  0  0  0  0  0  0  0  0
   19.7401  -22.8852  -14.1641 C   0  0  0  0  0  0  0  0  0  0  0  0
   20.4170  -23.0854  -12.8496 C   0  0  0  0  0  0  0  0  0  0  0  0
   21.7988  -22.7271  -12.6465 C   0  0  0  0  0  0  0  0  0  0  0  0
   22.2498  -21.3451  -12.3745 C   0  0  2  0  0  0  0  0  0  0  0  0
   23.6976  -21.4397  -11.9834 N   0  0  0  0  0  0  0  0  0  0  0  0
   21.6452  -20.7296  -11.1669 C   0  0  0  0  0  0  0  0  0  0  0  0
   20.4686  -19.9441  -11.3056 O   0  0  0  0  0  0  0  0  0  0  0  0
   22.0375  -20.8035   -9.9906 O   0  0  0  0  0  0  0  0  0  0  0  0
  2  1  1  6
  3  2  1  0
  4  3  1  0
  4  5  2  0
  6  5  1  0
  7  6  2  0
  8  9  2  0
  8  7  1  0
  9  4  1  0
 10  2  1  0
 11 10  2  0
 12 10  1  0
 13 12  1  0
 13 14  1  1
 15 14  1  0
 16 15  2  0
 17 16  1  0
 18 17  2  0
 18 19  1  0
 19 20  2  0
 20 15  1  0
 21 22  2  0
 21 13  1  0
 23 24  1  0
 24 25  2  0
 26 27  1  0
 26 24  1  0
 27 28  1  0
 30 29  1  1
 29 28  1  0
 30 31  1  0
 31 21  1  0
 32 30  1  0
 33 32  1  0
 34 32  2  0
M  END
$$$$
