FFR.pdb
     RDKit          3D

 34 35  0  0  1  0  0  0  0  0999 V2000
   27.1438  -21.7741  -14.5280 N   0  0  0  0  0  0  0  0  0  0  0  0
   26.2076  -20.8062  -13.9663 C   0  0  1  0  0  0  0  0  0  0  0  0
   25.0766  -20.7006  -14.9665 C   0  0  0  0  0  0  0  0  0  0  0  0
   25.5485  -19.9810  -16.2025 C   0  0  0  0  0  0  0  0  0  0  0  0
   25.7009  -20.7168  -17.3569 C   0  0  0  0  0  0  0  0  0  0  0  0
   26.1321  -20.0785  -18.4990 C   0  0  0  0  0  0  0  0  0  0  0  0
   26.4050  -18.7283  -18.4829 C   0  0  0  0  0  0  0  0  0  0  0  0
   26.2505  -17.9915  -17.3197 C   0  0  0  0  0  0  0  0  0  0  0  0
   25.8191  -18.6441  -16.1877 C   0  0  0  0  0  0  0  0  0  0  0  0
   25.7782  -21.2874  -12.6493 C   0  0  0  0  0  0  0  0  0  0  0  0
   25.7331  -22.5368  -12.3770 O   0  0  0  0  0  0  0  0  0  0  0  0
   25.3813  -20.4354  -11.5752 N   0  0  0  0  0  0  0  0  0  0  0  0
   24.8751  -20.9472  -10.3244 C   0  0  1  0  0  0  0  0  0  0  0  0
   24.9328  -19.7984   -9.3051 C   0  0  0  0  0  0  0  0  0  0  0  0
   26.2399  -19.8067   -8.6427 C   0  0  0  0  0  0  0  0  0  0  0  0
   26.7238  -18.6471   -8.0486 C   0  0  0  0  0  0  0  0  0  0  0  0
   27.9601  -18.6415   -7.4194 C   0  0  0  0  0  0  0  0  0  0  0  0
   28.7282  -19.7788   -7.3711 C   0  0  0  0  0  0  0  0  0  0  0  0
   28.2345  -20.9218   -7.9652 C   0  0  0  0  0  0  0  0  0  0  0  0
   26.9905  -20.9425   -8.6029 C   0  0  0  0  0  0  0  0  0  0  0  0
   23.4416  -21.3213  -10.4055 C   0  0  0  0  0  0  0  0  0  0  0  0
   22.8277  -21.1004  -11.4911 O   0  0  0  0  0  0  0  0  0  0  0  0
   16.8049  -24.8645   -5.5253 N   0  0  0  0  0  0  0  0  0  0  0  0
   18.0659  -25.4797   -5.7598 C   0  0  0  0  0  0  0  0  0  0  0  0
   18.1721  -26.7607   -5.5828 N   0  0  0  0  0  0  0  0  0  0  0  0
   19.1805  -24.7162   -6.1771 N   0  0  0  0  0  0  0  0  0  0  0  0
   19.0570  -23.2510   -6.3573 C   0  0  0  0  0  0  0  0  0  0  0  0
   19.4516  -22.9014   -7.7530 C   0  0  0  0  0  0  0  0  0  0  0  0
   20.8258  -22.6541   -8.1127 C   0  0  0  0  0  0  0  0  0  0  0  0
   21.2457  -22.1898   -9.4526 C   0  0  2  0  0  0  0  0  0  0  0  0
   22.7180  -21.9035   -9.3612 N   0  0  0  0  0  0  0  0  0  0  0  0
   20.6991  -20.8659   -9.8416 C   0  0  0  0  0  0  0  0  0  0  0  0
   21.2262  -19.6938   -9.2339 O   0  0  0  0  0  0  0  0  0  0  0  0
   19.8008  -20.6186  -10.6630 O   0  0  0  0  0  0  0  0  0  0  0  0
  2  1  1  6
  3  2  1  0
  4  3  1  0
  4  5  2  0
  6  5  1  0
  7  6  2  0
  8  9  2  0
  8  7  1  0
  9  4  1  0
 10  2  1  0
 11 10  2  0
 12 10  1  0
 13 12  1  0
 13 14  1  1
 15 14  1  0
 16 15  2  0
 17 16  1  0
 18 17  2  0
 18 19  1  0
 19 20  2  0
 20 15  1  0
 21 22  2  0
 21 13  1  0
 23 24  1  0
 24 25  2  0
 26 27  1  0
 26 24  1  0
 27 28  1  0
 30 29  1  1
 29 28  1  0
 30 31  1  0
 31 21  1  0
 32 30  1  0
 33 32  1  0
 34 32  2  0
M  END
$$$$
