FFR.pdb
     RDKit          3D

 34 35  0  0  1  0  0  0  0  0999 V2000
   25.2722  -19.6813   -7.4579 N   0  0  0  0  0  0  0  0  0  0  0  0
   26.5337  -19.9076   -8.1552 C   0  0  1  0  0  0  0  0  0  0  0  0
   27.2159  -21.0372   -7.4140 C   0  0  0  0  0  0  0  0  0  0  0  0
   27.9703  -20.4934   -6.2294 C   0  0  0  0  0  0  0  0  0  0  0  0
   29.1437  -19.8136   -6.4706 C   0  0  0  0  0  0  0  0  0  0  0  0
   29.8500  -19.3083   -5.4012 C   0  0  0  0  0  0  0  0  0  0  0  0
   29.3878  -19.4815   -4.1152 C   0  0  0  0  0  0  0  0  0  0  0  0
   28.2069  -20.1660   -3.8766 C   0  0  0  0  0  0  0  0  0  0  0  0
   27.5135  -20.6645   -4.9554 C   0  0  0  0  0  0  0  0  0  0  0  0
   26.2383  -20.2242   -9.5563 C   0  0  0  0  0  0  0  0  0  0  0  0
   25.0984  -20.6852   -9.9107 O   0  0  0  0  0  0  0  0  0  0  0  0
   27.1644  -20.0538  -10.6287 N   0  0  0  0  0  0  0  0  0  0  0  0
   26.7514  -19.6753  -11.9587 C   0  0  1  0  0  0  0  0  0  0  0  0
   28.0253  -19.5183  -12.8042 C   0  0  0  0  0  0  0  0  0  0  0  0
   27.6528  -19.1612  -14.1757 C   0  0  0  0  0  0  0  0  0  0  0  0
   27.1833  -17.8835  -14.4567 C   0  0  0  0  0  0  0  0  0  0  0  0
   26.8264  -17.5333  -15.7507 C   0  0  0  0  0  0  0  0  0  0  0  0
   26.9297  -18.4400  -16.7770 C   0  0  0  0  0  0  0  0  0  0  0  0
   27.3971  -19.7040  -16.4825 C   0  0  0  0  0  0  0  0  0  0  0  0
   27.7607  -20.0712  -15.1834 C   0  0  0  0  0  0  0  0  0  0  0  0
   25.9685  -20.7405  -12.6322 C   0  0  0  0  0  0  0  0  0  0  0  0
   26.3297  -21.9429  -12.4649 O   0  0  0  0  0  0  0  0  0  0  0  0
   18.6097  -24.0756  -13.9906 N   0  0  0  0  0  0  0  0  0  0  0  0
   18.6285  -22.7801  -14.5779 C   0  0  0  0  0  0  0  0  0  0  0  0
   17.8874  -22.5622  -15.6203 N   0  0  0  0  0  0  0  0  0  0  0  0
   19.4347  -21.7502  -14.0403 N   0  0  0  0  0  0  0  0  0  0  0  0
   20.2008  -21.9756  -12.7926 C   0  0  0  0  0  0  0  0  0  0  0  0
   21.5908  -22.3858  -13.1473 C   0  0  0  0  0  0  0  0  0  0  0  0
   22.6943  -21.4601  -13.0813 C   0  0  0  0  0  0  0  0  0  0  0  0
   23.9271  -21.6045  -13.8855 C   0  0  2  0  0  0  0  0  0  0  0  0
   24.8542  -20.5078  -13.4428 N   0  0  0  0  0  0  0  0  0  0  0  0
   23.7572  -21.2993  -15.3279 C   0  0  0  0  0  0  0  0  0  0  0  0
   23.7022  -22.3710  -16.2603 O   0  0  0  0  0  0  0  0  0  0  0  0
   23.6511  -20.1861  -15.8687 O   0  0  0  0  0  0  0  0  0  0  0  0
  2  1  1  1
  3  2  1  0
  4  3  1  0
  4  5  2  0
  6  5  1  0
  7  6  2  0
  8  9  2  0
  8  7  1  0
  9  4  1  0
 10  2  1  0
 11 10  2  0
 12 10  1  0
 13 12  1  0
 13 14  1  6
 15 14  1  0
 16 15  2  0
 17 16  1  0
 18 17  2  0
 18 19  1  0
 19 20  2  0
 20 15  1  0
 21 22  2  0
 21 13  1  0
 23 24  1  0
 24 25  2  0
 26 27  1  0
 26 24  1  0
 27 28  1  0
 30 29  1  1
 29 28  1  0
 30 31  1  0
 31 21  1  0
 32 30  1  0
 33 32  1  0
 34 32  2  0
M  END
$$$$
