FFR.pdb
     RDKit          3D

 34 35  0  0  1  0  0  0  0  0999 V2000
   28.0552  -21.8419  -16.2295 N   0  0  0  0  0  0  0  0  0  0  0  0
   28.0730  -20.6255  -15.4239 C   0  0  1  0  0  0  0  0  0  0  0  0
   27.0145  -19.7227  -16.0199 C   0  0  0  0  0  0  0  0  0  0  0  0
   27.5218  -19.1102  -17.2988 C   0  0  0  0  0  0  0  0  0  0  0  0
   28.2921  -17.9721  -17.2061 C   0  0  0  0  0  0  0  0  0  0  0  0
   28.7660  -17.3951  -18.3638 C   0  0  0  0  0  0  0  0  0  0  0  0
   28.4728  -17.9493  -19.5904 C   0  0  0  0  0  0  0  0  0  0  0  0
   27.6975  -19.0942  -19.6796 C   0  0  0  0  0  0  0  0  0  0  0  0
   27.2318  -19.6581  -18.5140 C   0  0  0  0  0  0  0  0  0  0  0  0
   27.8097  -20.9903  -14.0282 C   0  0  0  0  0  0  0  0  0  0  0  0
   26.9101  -21.8466  -13.7201 O   0  0  0  0  0  0  0  0  0  0  0  0
   28.5098  -20.4433  -12.9112 N   0  0  0  0  0  0  0  0  0  0  0  0
   28.1300  -20.7181  -11.5463 C   0  0  1  0  0  0  0  0  0  0  0  0
   29.1093  -19.9570  -10.6386 C   0  0  0  0  0  0  0  0  0  0  0  0
   28.6328  -20.0209   -9.2544 C   0  0  0  0  0  0  0  0  0  0  0  0
   27.8129  -19.0154   -8.7559 C   0  0  0  0  0  0  0  0  0  0  0  0
   27.3560  -19.0636   -7.4470 C   0  0  0  0  0  0  0  0  0  0  0  0
   27.7040  -20.1034   -6.6200 C   0  0  0  0  0  0  0  0  0  0  0  0
   28.5183  -21.0937   -7.1290 C   0  0  0  0  0  0  0  0  0  0  0  0
   28.9864  -21.0585   -8.4460 C   0  0  0  0  0  0  0  0  0  0  0  0
   26.7904  -20.1750  -11.2121 C   0  0  0  0  0  0  0  0  0  0  0  0
   26.5042  -19.0066  -11.6084 O   0  0  0  0  0  0  0  0  0  0  0  0
   19.9526  -21.0818  -15.3060 N   0  0  0  0  0  0  0  0  0  0  0  0
   21.3116  -20.6635  -15.3456 C   0  0  0  0  0  0  0  0  0  0  0  0
   21.6933  -19.8904  -16.3152 N   0  0  0  0  0  0  0  0  0  0  0  0
   22.2287  -21.0780  -14.3523 N   0  0  0  0  0  0  0  0  0  0  0  0
   21.7460  -21.7508  -13.1240 C   0  0  0  0  0  0  0  0  0  0  0  0
   22.3346  -21.0666  -11.9360 C   0  0  0  0  0  0  0  0  0  0  0  0
   23.7409  -21.1548  -11.6302 C   0  0  0  0  0  0  0  0  0  0  0  0
   24.3687  -20.4673  -10.4810 C   0  0  2  0  0  0  0  0  0  0  0  0
   25.8172  -20.8672  -10.4861 N   0  0  0  0  0  0  0  0  0  0  0  0
   23.9197  -20.9573   -9.1539 C   0  0  0  0  0  0  0  0  0  0  0  0
   22.8228  -20.3178   -8.5148 O   0  0  0  0  0  0  0  0  0  0  0  0
   24.3868  -21.8933   -8.4841 O   0  0  0  0  0  0  0  0  0  0  0  0
  2  1  1  6
  3  2  1  0
  4  3  1  0
  4  5  2  0
  6  5  1  0
  7  6  2  0
  8  9  2  0
  8  7  1  0
  9  4  1  0
 10  2  1  0
 11 10  2  0
 12 10  1  0
 13 12  1  0
 13 14  1  1
 15 14  1  0
 16 15  2  0
 17 16  1  0
 18 17  2  0
 18 19  1  0
 19 20  2  0
 20 15  1  0
 21 22  2  0
 21 13  1  0
 23 24  1  0
 24 25  2  0
 26 27  1  0
 26 24  1  0
 27 28  1  0
 30 29  1  6
 29 28  1  0
 30 31  1  0
 31 21  1  0
 32 30  1  0
 33 32  1  0
 34 32  2  0
M  END
$$$$
