FFR.pdb
     RDKit          3D

 34 35  0  0  1  0  0  0  0  0999 V2000
   26.2882  -21.8590  -13.1976 N   0  0  0  0  0  0  0  0  0  0  0  0
   25.9592  -20.6438  -12.4600 C   0  0  1  0  0  0  0  0  0  0  0  0
   24.5316  -20.3094  -12.8354 C   0  0  0  0  0  0  0  0  0  0  0  0
   24.4802  -19.7855  -14.2464 C   0  0  0  0  0  0  0  0  0  0  0  0
   25.0467  -18.5553  -14.4971 C   0  0  0  0  0  0  0  0  0  0  0  0
   25.0103  -18.0569  -15.7809 C   0  0  0  0  0  0  0  0  0  0  0  0
   24.4170  -18.7788  -16.7931 C   0  0  0  0  0  0  0  0  0  0  0  0
   23.8481  -20.0160  -16.5369 C   0  0  0  0  0  0  0  0  0  0  0  0
   23.8928  -20.4995  -15.2494 C   0  0  0  0  0  0  0  0  0  0  0  0
   26.1392  -20.9076  -11.0287 C   0  0  0  0  0  0  0  0  0  0  0  0
   25.6984  -21.9796  -10.4867 O   0  0  0  0  0  0  0  0  0  0  0  0
   26.8038  -20.0220  -10.1282 N   0  0  0  0  0  0  0  0  0  0  0  0
   26.8868  -20.2752   -8.7098 C   0  0  1  0  0  0  0  0  0  0  0  0
   27.7007  -19.1288   -8.0890 C   0  0  0  0  0  0  0  0  0  0  0  0
   27.8527  -19.3686   -6.6514 C   0  0  0  0  0  0  0  0  0  0  0  0
   28.5351  -20.4938   -6.2042 C   0  0  0  0  0  0  0  0  0  0  0  0
   28.6850  -20.7328   -4.8460 C   0  0  0  0  0  0  0  0  0  0  0  0
   28.1632  -19.8645   -3.9188 C   0  0  0  0  0  0  0  0  0  0  0  0
   27.4885  -18.7523   -4.3780 C   0  0  0  0  0  0  0  0  0  0  0  0
   27.3297  -18.4983   -5.7436 C   0  0  0  0  0  0  0  0  0  0  0  0
   25.5614  -20.2128   -8.0460 C   0  0  0  0  0  0  0  0  0  0  0  0
   24.7546  -19.3061   -8.4083 O   0  0  0  0  0  0  0  0  0  0  0  0
   19.3810  -25.0094   -7.4452 N   0  0  0  0  0  0  0  0  0  0  0  0
   18.6270  -23.8051   -7.5145 C   0  0  0  0  0  0  0  0  0  0  0  0
   17.3756  -23.8378   -7.1732 N   0  0  0  0  0  0  0  0  0  0  0  0
   19.2243  -22.5976   -7.9442 N   0  0  0  0  0  0  0  0  0  0  0  0
   20.6370  -22.5801   -8.3895 C   0  0  0  0  0  0  0  0  0  0  0  0
   21.4677  -21.9306   -7.3340 C   0  0  0  0  0  0  0  0  0  0  0  0
   22.8926  -21.7687   -7.4838 C   0  0  0  0  0  0  0  0  0  0  0  0
   23.7426  -21.0797   -6.4887 C   0  0  2  0  0  0  0  0  0  0  0  0
   25.1393  -21.0898   -7.0431 N   0  0  0  0  0  0  0  0  0  0  0  0
   23.9135  -21.8179   -5.2126 C   0  0  0  0  0  0  0  0  0  0  0  0
   23.0313  -21.5454   -4.1317 O   0  0  0  0  0  0  0  0  0  0  0  0
   24.7594  -22.6844   -4.9355 O   0  0  0  0  0  0  0  0  0  0  0  0
  2  1  1  6
  3  2  1  0
  4  3  1  0
  4  5  2  0
  6  5  1  0
  7  6  2  0
  8  9  2  0
  8  7  1  0
  9  4  1  0
 10  2  1  0
 11 10  2  0
 12 10  1  0
 13 12  1  0
 13 14  1  1
 15 14  1  0
 16 15  2  0
 17 16  1  0
 18 17  2  0
 18 19  1  0
 19 20  2  0
 20 15  1  0
 21 22  2  0
 21 13  1  0
 23 24  1  0
 24 25  2  0
 26 27  1  0
 26 24  1  0
 27 28  1  0
 30 29  1  6
 29 28  1  0
 30 31  1  0
 31 21  1  0
 32 30  1  0
 33 32  1  0
 34 32  2  0
M  END
$$$$
