FFR.pdb
     RDKit          3D

 34 35  0  0  1  0  0  0  0  0999 V2000
   25.0389  -19.5891   -7.3040 N   0  0  0  0  0  0  0  0  0  0  0  0
   26.2715  -20.0070   -7.9637 C   0  0  1  0  0  0  0  0  0  0  0  0
   26.8047  -21.1622   -7.1441 C   0  0  0  0  0  0  0  0  0  0  0  0
   27.6835  -20.6443   -6.0362 C   0  0  0  0  0  0  0  0  0  0  0  0
   27.1334  -20.5296   -4.7786 C   0  0  0  0  0  0  0  0  0  0  0  0
   27.9195  -20.0574   -3.7506 C   0  0  0  0  0  0  0  0  0  0  0  0
   29.2319  -19.7073   -3.9800 C   0  0  0  0  0  0  0  0  0  0  0  0
   29.7818  -19.8241   -5.2464 C   0  0  0  0  0  0  0  0  0  0  0  0
   28.9833  -20.2972   -6.2623 C   0  0  0  0  0  0  0  0  0  0  0  0
   25.9552  -20.3715   -9.3485 C   0  0  0  0  0  0  0  0  0  0  0  0
   24.7540  -20.6128   -9.7177 O   0  0  0  0  0  0  0  0  0  0  0  0
   26.9261  -20.4888  -10.3879 N   0  0  0  0  0  0  0  0  0  0  0  0
   26.6887  -20.0130  -11.7296 C   0  0  1  0  0  0  0  0  0  0  0  0
   28.0464  -19.9821  -12.4492 C   0  0  0  0  0  0  0  0  0  0  0  0
   27.8611  -19.4619  -13.8065 C   0  0  0  0  0  0  0  0  0  0  0  0
   27.6374  -18.1045  -14.0045 C   0  0  0  0  0  0  0  0  0  0  0  0
   27.4594  -17.5996  -15.2843 C   0  0  0  0  0  0  0  0  0  0  0  0
   27.5006  -18.4290  -16.3780 C   0  0  0  0  0  0  0  0  0  0  0  0
   27.7235  -19.7737  -16.1654 C   0  0  0  0  0  0  0  0  0  0  0  0
   27.9047  -20.2969  -14.8816 C   0  0  0  0  0  0  0  0  0  0  0  0
   25.8521  -20.9482  -12.5212 C   0  0  0  0  0  0  0  0  0  0  0  0
   25.9227  -22.1843  -12.2541 O   0  0  0  0  0  0  0  0  0  0  0  0
   18.0710  -22.3710  -11.3626 N   0  0  0  0  0  0  0  0  0  0  0  0
   19.2039  -23.2195  -11.2209 C   0  0  0  0  0  0  0  0  0  0  0  0
   19.0098  -24.4657  -10.9164 N   0  0  0  0  0  0  0  0  0  0  0  0
   20.5136  -22.7201  -11.4075 N   0  0  0  0  0  0  0  0  0  0  0  0
   20.7371  -21.2715  -11.6226 C   0  0  0  0  0  0  0  0  0  0  0  0
   21.6045  -21.0901  -12.8230 C   0  0  0  0  0  0  0  0  0  0  0  0
   22.9504  -21.6052  -12.8701 C   0  0  0  0  0  0  0  0  0  0  0  0
   23.8531  -21.4191  -14.0268 C   0  0  2  0  0  0  0  0  0  0  0  0
   24.9869  -20.5576  -13.5468 N   0  0  0  0  0  0  0  0  0  0  0  0
   23.2839  -20.5952  -15.1221 C   0  0  0  0  0  0  0  0  0  0  0  0
   23.1006  -19.2007  -14.9157 O   0  0  0  0  0  0  0  0  0  0  0  0
   22.9244  -20.9648  -16.2522 O   0  0  0  0  0  0  0  0  0  0  0  0
  2  1  1  1
  3  2  1  0
  4  3  1  0
  4  5  2  0
  6  5  1  0
  7  6  2  0
  8  9  2  0
  8  7  1  0
  9  4  1  0
 10  2  1  0
 11 10  2  0
 12 10  1  0
 13 12  1  0
 13 14  1  6
 15 14  1  0
 16 15  2  0
 17 16  1  0
 18 17  2  0
 18 19  1  0
 19 20  2  0
 20 15  1  0
 21 22  2  0
 21 13  1  0
 23 24  1  0
 24 25  2  0
 26 27  1  0
 26 24  1  0
 27 28  1  0
 30 29  1  1
 29 28  1  0
 30 31  1  0
 31 21  1  0
 32 30  1  0
 33 32  1  0
 34 32  2  0
M  END
$$$$
