FFR.pdb
     RDKit          3D

 34 35  0  0  1  0  0  0  0  0999 V2000
   26.2549  -12.7293  -20.2001 N   0  0  0  0  0  0  0  0  0  0  0  0
   25.5343  -11.4606  -20.1873 C   0  0  1  0  0  0  0  0  0  0  0  0
   24.3689  -11.6407  -21.1362 C   0  0  0  0  0  0  0  0  0  0  0  0
   24.8534  -11.5896  -22.5612 C   0  0  0  0  0  0  0  0  0  0  0  0
   25.3573  -10.3954  -23.0272 C   0  0  0  0  0  0  0  0  0  0  0  0
   25.8055  -10.3265  -24.3281 C   0  0  0  0  0  0  0  0  0  0  0  0
   25.7492  -11.4341  -25.1451 C   0  0  0  0  0  0  0  0  0  0  0  0
   25.2416  -12.6337  -24.6727 C   0  0  0  0  0  0  0  0  0  0  0  0
   24.7979  -12.6859  -23.3712 C   0  0  0  0  0  0  0  0  0  0  0  0
   25.1248  -11.1744  -18.8086 C   0  0  0  0  0  0  0  0  0  0  0  0
   24.5812  -12.0699  -18.0738 O   0  0  0  0  0  0  0  0  0  0  0  0
   25.2878   -9.9080  -18.1708 N   0  0  0  0  0  0  0  0  0  0  0  0
   24.8629   -9.6616  -16.8138 C   0  0  1  0  0  0  0  0  0  0  0  0
   26.1039   -9.2226  -16.0203 C   0  0  0  0  0  0  0  0  0  0  0  0
   27.0289  -10.3534  -15.9074 C   0  0  0  0  0  0  0  0  0  0  0  0
   26.7960  -11.3488  -14.9657 C   0  0  0  0  0  0  0  0  0  0  0  0
   27.6648  -12.4239  -14.8480 C   0  0  0  0  0  0  0  0  0  0  0  0
   28.7693  -12.5256  -15.6578 C   0  0  0  0  0  0  0  0  0  0  0  0
   28.9871  -11.5300  -16.5874 C   0  0  0  0  0  0  0  0  0  0  0  0
   28.1203  -10.4407  -16.7175 C   0  0  0  0  0  0  0  0  0  0  0  0
   23.9176   -8.5223  -16.7156 C   0  0  0  0  0  0  0  0  0  0  0  0
   23.9398   -7.6477  -17.6315 O   0  0  0  0  0  0  0  0  0  0  0  0
   16.2549   -8.3371  -19.3863 N   0  0  0  0  0  0  0  0  0  0  0  0
   16.3244   -7.1083  -18.6729 C   0  0  0  0  0  0  0  0  0  0  0  0
   15.3359   -6.2746  -18.7785 N   0  0  0  0  0  0  0  0  0  0  0  0
   17.4433   -6.7993  -17.8654 N   0  0  0  0  0  0  0  0  0  0  0  0
   18.5742   -7.7503  -17.7603 C   0  0  0  0  0  0  0  0  0  0  0  0
   19.6222   -7.1583  -16.8787 C   0  0  0  0  0  0  0  0  0  0  0  0
   20.8802   -7.8230  -16.6452 C   0  0  0  0  0  0  0  0  0  0  0  0
   21.9125   -7.3096  -15.7189 C   0  0  2  0  0  0  0  0  0  0  0  0
   22.9994   -8.3464  -15.6768 N   0  0  0  0  0  0  0  0  0  0  0  0
   21.4873   -7.2528  -14.2981 C   0  0  0  0  0  0  0  0  0  0  0  0
   20.8624   -6.0733  -13.8092 O   0  0  0  0  0  0  0  0  0  0  0  0
   21.6042   -8.1307  -13.4272 O   0  0  0  0  0  0  0  0  0  0  0  0
  2  1  1  1
  3  2  1  0
  4  3  1  0
  4  5  2  0
  6  5  1  0
  7  6  2  0
  8  9  2  0
  8  7  1  0
  9  4  1  0
 10  2  1  0
 11 10  2  0
 12 10  1  0
 13 12  1  0
 13 14  1  1
 15 14  1  0
 16 15  2  0
 17 16  1  0
 18 17  2  0
 18 19  1  0
 19 20  2  0
 20 15  1  0
 21 22  2  0
 21 13  1  0
 23 24  1  0
 24 25  2  0
 26 27  1  0
 26 24  1  0
 27 28  1  0
 30 29  1  6
 29 28  1  0
 30 31  1  0
 31 21  1  0
 32 30  1  0
 33 32  1  0
 34 32  2  0
M  END
$$$$
