FFR.pdb
     RDKit          3D

 34 35  0  0  1  0  0  0  0  0999 V2000
   27.2051  -21.6643  -17.6157 N   0  0  0  0  0  0  0  0  0  0  0  0
   26.9581  -20.5091  -16.7594 C   0  0  1  0  0  0  0  0  0  0  0  0
   25.5477  -20.0589  -17.0738 C   0  0  0  0  0  0  0  0  0  0  0  0
   25.5355  -19.2597  -18.3502 C   0  0  0  0  0  0  0  0  0  0  0  0
   25.7478  -17.9017  -18.2613 C   0  0  0  0  0  0  0  0  0  0  0  0
   25.7402  -17.1514  -19.4167 C   0  0  0  0  0  0  0  0  0  0  0  0
   25.5239  -17.7522  -20.6373 C   0  0  0  0  0  0  0  0  0  0  0  0
   25.3107  -19.1187  -20.7227 C   0  0  0  0  0  0  0  0  0  0  0  0
   25.3213  -19.8536  -19.5594 C   0  0  0  0  0  0  0  0  0  0  0  0
   27.1416  -20.9194  -15.3635 C   0  0  0  0  0  0  0  0  0  0  0  0
   26.6177  -21.9948  -14.9092 O   0  0  0  0  0  0  0  0  0  0  0  0
   27.8997  -20.1825  -14.4048 N   0  0  0  0  0  0  0  0  0  0  0  0
   27.9464  -20.5434  -13.0082 C   0  0  1  0  0  0  0  0  0  0  0  0
   28.9931  -19.6390  -12.3384 C   0  0  0  0  0  0  0  0  0  0  0  0
   28.9976  -19.8934  -10.8953 C   0  0  0  0  0  0  0  0  0  0  0  0
   28.1765  -19.1485  -10.0571 C   0  0  0  0  0  0  0  0  0  0  0  0
   28.1722  -19.3788   -8.6891 C   0  0  0  0  0  0  0  0  0  0  0  0
   28.9773  -20.3451   -8.1376 C   0  0  0  0  0  0  0  0  0  0  0  0
   29.7867  -21.0760   -8.9823 C   0  0  0  0  0  0  0  0  0  0  0  0
   29.8016  -20.8552  -10.3628 C   0  0  0  0  0  0  0  0  0  0  0  0
   26.6735  -20.2488  -12.3054 C   0  0  0  0  0  0  0  0  0  0  0  0
   26.1066  -19.1401  -12.5371 O   0  0  0  0  0  0  0  0  0  0  0  0
   20.5882  -24.5271  -14.7010 N   0  0  0  0  0  0  0  0  0  0  0  0
   21.9890  -24.3880  -14.4962 C   0  0  0  0  0  0  0  0  0  0  0  0
   22.7951  -25.0856  -15.2359 N   0  0  0  0  0  0  0  0  0  0  0  0
   22.4956  -23.5097  -13.5105 N   0  0  0  0  0  0  0  0  0  0  0  0
   21.5688  -22.7439  -12.6450 C   0  0  0  0  0  0  0  0  0  0  0  0
   22.3679  -21.8787  -11.7290 C   0  0  0  0  0  0  0  0  0  0  0  0
   23.8024  -21.7817  -11.8376 C   0  0  0  0  0  0  0  0  0  0  0  0
   24.6307  -20.9373  -10.9498 C   0  0  2  0  0  0  0  0  0  0  0  0
   26.0533  -21.1145  -11.4005 N   0  0  0  0  0  0  0  0  0  0  0  0
   24.6939  -21.4052   -9.5428 C   0  0  0  0  0  0  0  0  0  0  0  0
   23.7966  -20.8526   -8.5886 O   0  0  0  0  0  0  0  0  0  0  0  0
   25.4564  -22.2531   -9.0503 O   0  0  0  0  0  0  0  0  0  0  0  0
  2  1  1  6
  3  2  1  0
  4  3  1  0
  4  5  2  0
  6  5  1  0
  7  6  2  0
  8  9  2  0
  8  7  1  0
  9  4  1  0
 10  2  1  0
 11 10  2  0
 12 10  1  0
 13 12  1  0
 13 14  1  1
 15 14  1  0
 16 15  2  0
 17 16  1  0
 18 17  2  0
 18 19  1  0
 19 20  2  0
 20 15  1  0
 21 22  2  0
 21 13  1  0
 23 24  1  0
 24 25  2  0
 26 27  1  0
 26 24  1  0
 27 28  1  0
 30 29  1  6
 29 28  1  0
 30 31  1  0
 31 21  1  0
 32 30  1  0
 33 32  1  0
 34 32  2  0
M  END
$$$$
