FFR.pdb
     RDKit          3D

 34 35  0  0  1  0  0  0  0  0999 V2000
   15.7763  -19.9354    3.0582 N   0  0  0  0  0  0  0  0  0  0  0  0
   15.1688  -18.6728    3.4651 C   0  0  1  0  0  0  0  0  0  0  0  0
   14.2350  -19.0152    4.6060 C   0  0  0  0  0  0  0  0  0  0  0  0
   13.0219  -19.7354    4.0791 C   0  0  0  0  0  0  0  0  0  0  0  0
   12.2695  -19.1064    3.1120 C   0  0  0  0  0  0  0  0  0  0  0  0
   11.1552  -19.7473    2.6165 C   0  0  0  0  0  0  0  0  0  0  0  0
   10.8030  -20.9949    3.0823 C   0  0  0  0  0  0  0  0  0  0  0  0
   11.5624  -21.6245    4.0554 C   0  0  0  0  0  0  0  0  0  0  0  0
   12.6721  -20.9709    4.5399 C   0  0  0  0  0  0  0  0  0  0  0  0
   16.2389  -17.7452    3.8459 C   0  0  0  0  0  0  0  0  0  0  0  0
   17.3184  -18.1598    4.3937 O   0  0  0  0  0  0  0  0  0  0  0  0
   16.1831  -16.3329    3.6482 N   0  0  0  0  0  0  0  0  0  0  0  0
   17.2160  -15.4415    4.1186 C   0  0  1  0  0  0  0  0  0  0  0  0
   17.1709  -14.1848    3.2349 C   0  0  0  0  0  0  0  0  0  0  0  0
   18.2635  -13.2866    3.6177 C   0  0  0  0  0  0  0  0  0  0  0  0
   18.0220  -12.2341    4.4928 C   0  0  0  0  0  0  0  0  0  0  0  0
   19.0476  -11.3761    4.8622 C   0  0  0  0  0  0  0  0  0  0  0  0
   20.3185  -11.5493    4.3717 C   0  0  0  0  0  0  0  0  0  0  0  0
   20.5426  -12.5982    3.5041 C   0  0  0  0  0  0  0  0  0  0  0  0
   19.5190  -13.4710    3.1229 C   0  0  0  0  0  0  0  0  0  0  0  0
   16.9587  -14.9554    5.4966 C   0  0  0  0  0  0  0  0  0  0  0  0
   15.7963  -14.5358    5.7740 O   0  0  0  0  0  0  0  0  0  0  0  0
   14.7925  -19.3565   11.3505 N   0  0  0  0  0  0  0  0  0  0  0  0
   14.9063  -18.9675    9.9870 C   0  0  0  0  0  0  0  0  0  0  0  0
   14.3966  -19.7405    9.0781 N   0  0  0  0  0  0  0  0  0  0  0  0
   15.5587  -17.7659    9.6262 N   0  0  0  0  0  0  0  0  0  0  0  0
   16.1124  -16.8737   10.6711 C   0  0  0  0  0  0  0  0  0  0  0  0
   16.7086  -15.6738   10.0147 C   0  0  0  0  0  0  0  0  0  0  0  0
   17.0385  -15.6632    8.6111 C   0  0  0  0  0  0  0  0  0  0  0  0
   17.5996  -14.4847    7.9157 C   0  0  2  0  0  0  0  0  0  0  0  0
   17.9153  -14.9282    6.5150 N   0  0  0  0  0  0  0  0  0  0  0  0
   18.9324  -14.0584    8.4104 C   0  0  0  0  0  0  0  0  0  0  0  0
   20.0855  -14.3507    7.6321 O   0  0  0  0  0  0  0  0  0  0  0  0
   19.2025  -13.4521    9.4603 O   0  0  0  0  0  0  0  0  0  0  0  0
  2  1  1  1
  3  2  1  0
  4  3  1  0
  4  5  2  0
  6  5  1  0
  7  6  2  0
  8  9  2  0
  8  7  1  0
  9  4  1  0
 10  2  1  0
 11 10  2  0
 12 10  1  0
 13 12  1  0
 13 14  1  6
 15 14  1  0
 16 15  2  0
 17 16  1  0
 18 17  2  0
 18 19  1  0
 19 20  2  0
 20 15  1  0
 21 22  2  0
 21 13  1  0
 23 24  1  0
 24 25  2  0
 26 27  1  0
 26 24  1  0
 27 28  1  0
 30 29  1  1
 29 28  1  0
 30 31  1  0
 31 21  1  0
 32 30  1  0
 33 32  1  0
 34 32  2  0
M  END
$$$$
