FFR.pdb
     RDKit          3D

 34 35  0  0  1  0  0  0  0  0999 V2000
   24.7954  -16.6160  -17.7592 N   0  0  0  0  0  0  0  0  0  0  0  0
   24.7462  -17.5466  -16.6366 C   0  0  1  0  0  0  0  0  0  0  0  0
   25.7063  -16.9960  -15.6042 C   0  0  0  0  0  0  0  0  0  0  0  0
   27.1232  -17.1296  -16.0967 C   0  0  0  0  0  0  0  0  0  0  0  0
   27.7787  -15.9838  -16.4898 C   0  0  0  0  0  0  0  0  0  0  0  0
   29.0754  -16.0834  -16.9442 C   0  0  0  0  0  0  0  0  0  0  0  0
   29.7020  -17.3087  -17.0028 C   0  0  0  0  0  0  0  0  0  0  0  0
   29.0393  -18.4592  -16.6064 C   0  0  0  0  0  0  0  0  0  0  0  0
   27.7446  -18.3426  -16.1553 C   0  0  0  0  0  0  0  0  0  0  0  0
   23.3613  -17.6261  -16.1610 C   0  0  0  0  0  0  0  0  0  0  0  0
   22.8671  -16.7310  -15.3917 O   0  0  0  0  0  0  0  0  0  0  0  0
   22.4568  -18.6769  -16.4998 N   0  0  0  0  0  0  0  0  0  0  0  0
   21.0839  -18.6932  -16.0552 C   0  0  1  0  0  0  0  0  0  0  0  0
   20.2057  -18.3752  -17.2758 C   0  0  0  0  0  0  0  0  0  0  0  0
   20.3179  -16.9488  -17.5922 C   0  0  0  0  0  0  0  0  0  0  0  0
   21.2814  -16.5120  -18.4936 C   0  0  0  0  0  0  0  0  0  0  0  0
   21.3986  -15.1642  -18.8007 C   0  0  0  0  0  0  0  0  0  0  0  0
   20.5668  -14.2375  -18.2216 C   0  0  0  0  0  0  0  0  0  0  0  0
   19.6157  -14.6864  -17.3290 C   0  0  0  0  0  0  0  0  0  0  0  0
   19.4858  -16.0414  -17.0098 C   0  0  0  0  0  0  0  0  0  0  0  0
   20.6510  -20.0396  -15.6068 C   0  0  0  0  0  0  0  0  0  0  0  0
   21.0513  -21.0451  -16.2648 O   0  0  0  0  0  0  0  0  0  0  0  0
   19.5730  -22.5374   -7.5921 N   0  0  0  0  0  0  0  0  0  0  0  0
   20.4153  -21.9395   -8.5701 C   0  0  0  0  0  0  0  0  0  0  0  0
   21.4061  -21.2047   -8.1677 N   0  0  0  0  0  0  0  0  0  0  0  0
   20.1820  -22.1396   -9.9503 N   0  0  0  0  0  0  0  0  0  0  0  0
   18.9847  -22.8839  -10.4053 C   0  0  0  0  0  0  0  0  0  0  0  0
   18.9411  -22.8624  -11.8965 C   0  0  0  0  0  0  0  0  0  0  0  0
   19.4017  -21.7239  -12.6518 C   0  0  0  0  0  0  0  0  0  0  0  0
   19.3448  -21.6492  -14.1278 C   0  0  2  0  0  0  0  0  0  0  0  0
   19.8275  -20.2764  -14.5029 N   0  0  0  0  0  0  0  0  0  0  0  0
   17.9710  -21.6556  -14.6892 C   0  0  0  0  0  0  0  0  0  0  0  0
   17.2762  -20.4237  -14.8328 O   0  0  0  0  0  0  0  0  0  0  0  0
   17.3036  -22.6309  -15.0717 O   0  0  0  0  0  0  0  0  0  0  0  0
  2  1  1  6
  3  2  1  0
  4  3  1  0
  4  5  2  0
  6  5  1  0
  7  6  2  0
  8  9  2  0
  8  7  1  0
  9  4  1  0
 10  2  1  0
 11 10  2  0
 12 10  1  0
 13 12  1  0
 13 14  1  6
 15 14  1  0
 16 15  2  0
 17 16  1  0
 18 17  2  0
 18 19  1  0
 19 20  2  0
 20 15  1  0
 21 22  2  0
 21 13  1  0
 23 24  1  0
 24 25  2  0
 26 27  1  0
 26 24  1  0
 27 28  1  0
 30 29  1  1
 29 28  1  0
 30 31  1  0
 31 21  1  0
 32 30  1  0
 33 32  1  0
 34 32  2  0
M  END
$$$$
