FFR.pdb
     RDKit          3D

 34 35  0  0  1  0  0  0  0  0999 V2000
   28.9481  -20.1221  -14.9339 N   0  0  0  0  0  0  0  0  0  0  0  0
   27.7319  -19.7047  -14.2442 C   0  0  1  0  0  0  0  0  0  0  0  0
   26.8702  -19.0410  -15.2967 C   0  0  0  0  0  0  0  0  0  0  0  0
   27.4757  -17.7225  -15.7005 C   0  0  0  0  0  0  0  0  0  0  0  0
   27.2965  -16.6472  -14.8585 C   0  0  0  0  0  0  0  0  0  0  0  0
   27.8416  -15.4316  -15.2089 C   0  0  0  0  0  0  0  0  0  0  0  0
   28.5525  -15.2976  -16.3812 C   0  0  0  0  0  0  0  0  0  0  0  0
   28.7306  -16.3816  -17.2257 C   0  0  0  0  0  0  0  0  0  0  0  0
   28.1797  -17.5887  -16.8612 C   0  0  0  0  0  0  0  0  0  0  0  0
   27.1101  -20.8893  -13.6437 C   0  0  0  0  0  0  0  0  0  0  0  0
   26.9127  -21.9562  -14.3220 O   0  0  0  0  0  0  0  0  0  0  0  0
   26.6781  -20.9660  -12.2857 N   0  0  0  0  0  0  0  0  0  0  0  0
   25.6278  -21.8566  -11.8540 C   0  0  1  0  0  0  0  0  0  0  0  0
   25.8728  -22.1640  -10.3681 C   0  0  0  0  0  0  0  0  0  0  0  0
   26.3816  -20.9608   -9.7043 C   0  0  0  0  0  0  0  0  0  0  0  0
   27.7507  -20.7296   -9.6417 C   0  0  0  0  0  0  0  0  0  0  0  0
   28.2452  -19.5950   -9.0152 C   0  0  0  0  0  0  0  0  0  0  0  0
   27.3938  -18.6801   -8.4459 C   0  0  0  0  0  0  0  0  0  0  0  0
   26.0377  -18.9235   -8.5161 C   0  0  0  0  0  0  0  0  0  0  0  0
   25.5248  -20.0624   -9.1442 C   0  0  0  0  0  0  0  0  0  0  0  0
   24.2896  -21.2176  -11.9017 C   0  0  0  0  0  0  0  0  0  0  0  0
   24.2085  -19.9821  -11.6350 O   0  0  0  0  0  0  0  0  0  0  0  0
   20.7053  -26.0529  -15.4620 N   0  0  0  0  0  0  0  0  0  0  0  0
   19.6054  -25.1837  -15.7033 C   0  0  0  0  0  0  0  0  0  0  0  0
   18.4078  -25.6827  -15.6913 N   0  0  0  0  0  0  0  0  0  0  0  0
   19.8084  -23.8062  -15.9500 N   0  0  0  0  0  0  0  0  0  0  0  0
   21.1661  -23.2218  -15.8517 C   0  0  0  0  0  0  0  0  0  0  0  0
   21.4495  -22.8974  -14.4232 C   0  0  0  0  0  0  0  0  0  0  0  0
   21.4956  -21.5362  -13.9499 C   0  0  0  0  0  0  0  0  0  0  0  0
   21.8293  -21.1698  -12.5565 C   0  0  2  0  0  0  0  0  0  0  0  0
   23.1062  -21.8881  -12.2222 N   0  0  0  0  0  0  0  0  0  0  0  0
   20.8956  -21.7142  -11.5393 C   0  0  0  0  0  0  0  0  0  0  0  0
   21.3472  -22.7382  -10.6628 O   0  0  0  0  0  0  0  0  0  0  0  0
   19.7148  -21.3897  -11.3309 O   0  0  0  0  0  0  0  0  0  0  0  0
  2  1  1  6
  3  2  1  0
  4  3  1  0
  4  5  2  0
  6  5  1  0
  7  6  2  0
  8  9  2  0
  8  7  1  0
  9  4  1  0
 10  2  1  0
 11 10  2  0
 12 10  1  0
 13 12  1  0
 13 14  1  1
 15 14  1  0
 16 15  2  0
 17 16  1  0
 18 17  2  0
 18 19  1  0
 19 20  2  0
 20 15  1  0
 21 22  2  0
 21 13  1  0
 23 24  1  0
 24 25  2  0
 26 27  1  0
 26 24  1  0
 27 28  1  0
 30 29  1  6
 29 28  1  0
 30 31  1  0
 31 21  1  0
 32 30  1  0
 33 32  1  0
 34 32  2  0
M  END
$$$$
