FFR.pdb
     RDKit          3D

 34 35  0  0  1  0  0  0  0  0999 V2000
   28.4800  -21.4137  -15.3728 N   0  0  0  0  0  0  0  0  0  0  0  0
   27.7692  -20.3112  -14.7340 C   0  0  1  0  0  0  0  0  0  0  0  0
   27.0485  -19.5858  -15.8500 C   0  0  0  0  0  0  0  0  0  0  0  0
   28.0209  -18.7324  -16.6207 C   0  0  0  0  0  0  0  0  0  0  0  0
   28.3722  -17.5131  -16.0847 C   0  0  0  0  0  0  0  0  0  0  0  0
   29.2600  -16.7161  -16.7736 C   0  0  0  0  0  0  0  0  0  0  0  0
   29.7850  -17.1345  -17.9765 C   0  0  0  0  0  0  0  0  0  0  0  0
   29.4291  -18.3617  -18.5124 C   0  0  0  0  0  0  0  0  0  0  0  0
   28.5413  -19.1456  -17.8120 C   0  0  0  0  0  0  0  0  0  0  0  0
   26.8659  -20.8672  -13.7213 C   0  0  0  0  0  0  0  0  0  0  0  0
   26.3180  -22.0136  -13.8724 O   0  0  0  0  0  0  0  0  0  0  0  0
   26.5207  -20.2047  -12.5053 N   0  0  0  0  0  0  0  0  0  0  0  0
   25.4725  -20.6781  -11.6335 C   0  0  1  0  0  0  0  0  0  0  0  0
   25.6169  -19.9297  -10.2989 C   0  0  0  0  0  0  0  0  0  0  0  0
   26.7903  -20.4395   -9.5845 C   0  0  0  0  0  0  0  0  0  0  0  0
   27.9423  -20.7687  -10.2890 C   0  0  0  0  0  0  0  0  0  0  0  0
   29.0596  -21.2534   -9.6247 C   0  0  0  0  0  0  0  0  0  0  0  0
   29.0493  -21.4169   -8.2612 C   0  0  0  0  0  0  0  0  0  0  0  0
   27.8987  -21.0859   -7.5759 C   0  0  0  0  0  0  0  0  0  0  0  0
   26.7652  -20.5964   -8.2318 C   0  0  0  0  0  0  0  0  0  0  0  0
   24.1204  -20.3246  -12.1315 C   0  0  0  0  0  0  0  0  0  0  0  0
   24.0014  -19.2894  -12.8514 O   0  0  0  0  0  0  0  0  0  0  0  0
   23.2535  -24.4902  -15.8850 N   0  0  0  0  0  0  0  0  0  0  0  0
   23.0557  -25.1963  -14.6661 C   0  0  0  0  0  0  0  0  0  0  0  0
   23.8763  -26.1554  -14.3661 N   0  0  0  0  0  0  0  0  0  0  0  0
   21.9906  -24.8627  -13.7978 N   0  0  0  0  0  0  0  0  0  0  0  0
   21.1592  -23.6652  -14.0611 C   0  0  0  0  0  0  0  0  0  0  0  0
   22.0561  -22.4906  -14.2654 C   0  0  0  0  0  0  0  0  0  0  0  0
   21.6677  -21.1615  -13.8634 C   0  0  0  0  0  0  0  0  0  0  0  0
   21.6251  -20.7175  -12.4533 C   0  0  2  0  0  0  0  0  0  0  0  0
   22.9627  -21.0587  -11.8596 N   0  0  0  0  0  0  0  0  0  0  0  0
   20.6998  -21.4965  -11.5932 C   0  0  0  0  0  0  0  0  0  0  0  0
   19.3018  -21.2554  -11.6844 O   0  0  0  0  0  0  0  0  0  0  0  0
   20.9826  -22.3741  -10.7609 O   0  0  0  0  0  0  0  0  0  0  0  0
  2  1  1  6
  3  2  1  0
  4  3  1  0
  4  5  2  0
  6  5  1  0
  7  6  2  0
  8  9  2  0
  8  7  1  0
  9  4  1  0
 10  2  1  0
 11 10  2  0
 12 10  1  0
 13 12  1  0
 13 14  1  1
 15 14  1  0
 16 15  2  0
 17 16  1  0
 18 17  2  0
 18 19  1  0
 19 20  2  0
 20 15  1  0
 21 22  2  0
 21 13  1  0
 23 24  1  0
 24 25  2  0
 26 27  1  0
 26 24  1  0
 27 28  1  0
 30 29  1  6
 29 28  1  0
 30 31  1  0
 31 21  1  0
 32 30  1  0
 33 32  1  0
 34 32  2  0
M  END
$$$$
