YSA.pdb
     RDKit          3D

 24 24  0  0  1  0  0  0  0  0999 V2000
    7.9785  -11.7461   18.2021 O   0  0  0  0  0  0  0  0  0  0  0  0
    8.0296  -12.7204   19.2039 C   0  0  0  0  0  0  0  0  0  0  0  0
    9.2369  -13.3423   19.4623 C   0  0  0  0  0  0  0  0  0  0  0  0
    9.3370  -14.3107   20.4421 C   0  0  0  0  0  0  0  0  0  0  0  0
    8.2356  -14.6806   21.1860 C   0  0  0  0  0  0  0  0  0  0  0  0
    8.3651  -15.7244   22.2352 C   0  0  0  0  0  0  0  0  0  0  0  0
    8.2103  -17.0809   21.5846 C   0  0  2  0  0  0  0  0  0  0  0  0
    6.8114  -17.3863   21.5026 N   0  0  0  0  0  0  0  0  0  0  0  0
    8.9891  -18.1258   22.2875 C   0  0  0  0  0  0  0  0  0  0  0  0
    8.5125  -18.6435   23.3296 O   0  0  0  0  0  0  0  0  0  0  0  0
    7.0339  -14.0543   20.9213 C   0  0  0  0  0  0  0  0  0  0  0  0
    6.9209  -13.0800   19.9395 C   0  0  0  0  0  0  0  0  0  0  0  0
   11.5782  -20.7217   20.4473 O   0  0  0  0  0  0  0  0  0  0  0  0
   12.0735  -20.1802   21.6159 C   0  0  0  0  0  0  0  0  0  0  0  0
   10.9834  -19.6582   22.5308 C   0  0  2  0  0  0  0  0  0  0  0  0
   10.2598  -18.5911   21.8571 N   0  0  0  0  0  0  0  0  0  0  0  0
   11.5338  -19.2062   23.8298 C   0  0  0  0  0  0  0  0  0  0  0  0
   11.9929  -18.0225   23.9070 O   0  0  0  0  0  0  0  0  0  0  0  0
   11.0722  -19.6214   27.3715 C   0  0  0  0  0  0  0  0  0  0  0  0
   12.0961  -19.5135   26.2752 C   0  0  2  0  0  0  0  0  0  0  0  0
   11.5918  -19.9862   25.0009 N   0  0  0  0  0  0  0  0  0  0  0  0
   13.2504  -20.3776   26.6384 C   0  0  0  0  0  0  0  0  0  0  0  0
   13.5581  -21.4161   25.9782 O   0  0  0  0  0  0  0  0  0  0  0  0
   14.0370  -20.0538   27.7407 O   0  0  0  0  0  0  0  0  0  0  0  0
  1  2  1  0
  2  3  2  0
  2 12  1  0
  3  4  1  0
  4  5  2  0
  5  6  1  0
  7  6  1  0
  7  8  1  1
  9 16  1  0
  9  7  1  0
 10  9  2  0
 11  5  1  0
 12 11  2  0
 13 14  1  0
 15 14  1  6
 15 17  1  0
 15 16  1  0
 17 21  1  0
 18 17  2  0
 20 19  1  1
 20 22  1  0
 21 20  1  0
 22 23  2  0
 22 24  1  0
M  END
$$$$
