YSA.pdb
     RDKit          3D

 24 24  0  0  1  0  0  0  0  0999 V2000
    6.0159  -10.2922   26.7225 O   0  0  0  0  0  0  0  0  0  0  0  0
    6.3897  -11.6317   26.5751 C   0  0  0  0  0  0  0  0  0  0  0  0
    7.4448  -11.9365   25.7355 C   0  0  0  0  0  0  0  0  0  0  0  0
    7.8506  -13.2447   25.5576 C   0  0  0  0  0  0  0  0  0  0  0  0
    7.2134  -14.2781   26.2129 C   0  0  0  0  0  0  0  0  0  0  0  0
    7.6659  -15.6782   26.0076 C   0  0  0  0  0  0  0  0  0  0  0  0
    6.7106  -16.3561   25.0509 C   0  0  2  0  0  0  0  0  0  0  0  0
    6.1975  -17.5361   25.6843 N   0  0  0  0  0  0  0  0  0  0  0  0
    7.3407  -16.6322   23.7398 C   0  0  0  0  0  0  0  0  0  0  0  0
    7.9286  -17.7299   23.5653 O   0  0  0  0  0  0  0  0  0  0  0  0
    6.1607  -13.9646   27.0494 C   0  0  0  0  0  0  0  0  0  0  0  0
    5.7438  -12.6541   27.2362 C   0  0  0  0  0  0  0  0  0  0  0  0
    8.2102  -15.0989   19.1495 O   0  0  0  0  0  0  0  0  0  0  0  0
    7.6683  -14.8842   20.4002 C   0  0  0  0  0  0  0  0  0  0  0  0
    7.9551  -16.0154   21.3677 C   0  0  2  0  0  0  0  0  0  0  0  0
    7.3258  -15.7257   22.6468 N   0  0  0  0  0  0  0  0  0  0  0  0
    9.4107  -16.2467   21.5178 C   0  0  0  0  0  0  0  0  0  0  0  0
   10.0783  -15.4264   22.2243 O   0  0  0  0  0  0  0  0  0  0  0  0
   12.0113  -18.8074   20.4559 C   0  0  0  0  0  0  0  0  0  0  0  0
   11.5442  -17.5452   21.1271 C   0  0  2  0  0  0  0  0  0  0  0  0
   10.1260  -17.3118   20.9373 N   0  0  0  0  0  0  0  0  0  0  0  0
   12.2644  -16.4017   20.5069 C   0  0  0  0  0  0  0  0  0  0  0  0
   11.7526  -15.6920   19.5885 O   0  0  0  0  0  0  0  0  0  0  0  0
   13.5496  -16.0797   20.9345 O   0  0  0  0  0  0  0  0  0  0  0  0
  1  2  1  0
  2  3  2  0
  2 12  1  0
  3  4  1  0
  4  5  2  0
  5  6  1  0
  7  6  1  0
  7  8  1  1
  9 16  1  0
  9  7  1  0
 10  9  2  0
 11  5  1  0
 12 11  2  0
 13 14  1  0
 15 14  1  6
 15 17  1  0
 15 16  1  0
 17 21  1  0
 18 17  2  0
 20 19  1  6
 20 22  1  0
 21 20  1  0
 22 23  2  0
 22 24  1  0
M  END
$$$$
