YSA.pdb
     RDKit          3D

 24 24  0  0  1  0  0  0  0  0999 V2000
    5.9188  -10.5954   28.1534 O   0  0  0  0  0  0  0  0  0  0  0  0
    6.3919  -11.6652   27.3871 C   0  0  0  0  0  0  0  0  0  0  0  0
    7.5340  -12.3239   27.8027 C   0  0  0  0  0  0  0  0  0  0  0  0
    8.0394  -13.3863   27.0791 C   0  0  0  0  0  0  0  0  0  0  0  0
    7.4174  -13.8155   25.9249 C   0  0  0  0  0  0  0  0  0  0  0  0
    7.9777  -14.9603   25.1615 C   0  0  0  0  0  0  0  0  0  0  0  0
    6.8335  -15.7253   24.5347 C   0  0  2  0  0  0  0  0  0  0  0  0
    6.3242  -16.6520   25.5037 N   0  0  0  0  0  0  0  0  0  0  0  0
    7.2306  -16.3770   23.2658 C   0  0  0  0  0  0  0  0  0  0  0  0
    7.4778  -17.6098   23.2652 O   0  0  0  0  0  0  0  0  0  0  0  0
    6.2773  -13.1520   25.5172 C   0  0  0  0  0  0  0  0  0  0  0  0
    5.7600  -12.0833   26.2358 C   0  0  0  0  0  0  0  0  0  0  0  0
    8.6509  -14.5195   19.5020 O   0  0  0  0  0  0  0  0  0  0  0  0
    7.5864  -15.3875   19.6351 C   0  0  0  0  0  0  0  0  0  0  0  0
    7.7537  -16.3503   20.7939 C   0  0  2  0  0  0  0  0  0  0  0  0
    7.3535  -15.6921   22.0279 N   0  0  0  0  0  0  0  0  0  0  0  0
    9.1403  -16.8653   20.8773 C   0  0  0  0  0  0  0  0  0  0  0  0
    9.9867  -16.2009   21.5555 O   0  0  0  0  0  0  0  0  0  0  0  0
   11.1630  -19.8269   19.6165 C   0  0  0  0  0  0  0  0  0  0  0  0
   10.9772  -18.5094   20.3178 C   0  0  2  0  0  0  0  0  0  0  0  0
    9.6056  -18.0432   20.2616 N   0  0  0  0  0  0  0  0  0  0  0  0
   11.8142  -17.4967   19.6217 C   0  0  0  0  0  0  0  0  0  0  0  0
   11.3361  -16.6868   18.7704 O   0  0  0  0  0  0  0  0  0  0  0  0
   13.1762  -17.4161   19.8989 O   0  0  0  0  0  0  0  0  0  0  0  0
  1  2  1  0
  2  3  2  0
  2 12  1  0
  3  4  1  0
  4  5  2  0
  5  6  1  0
  7  6  1  0
  7  8  1  1
  9 16  1  0
  9  7  1  0
 10  9  2  0
 11  5  1  0
 12 11  2  0
 13 14  1  0
 15 14  1  6
 15 17  1  0
 15 16  1  0
 17 21  1  0
 18 17  2  0
 20 19  1  6
 20 22  1  0
 21 20  1  0
 22 23  2  0
 22 24  1  0
M  END
$$$$
