YSA.pdb
     RDKit          3D

 24 24  0  0  1  0  0  0  0  0999 V2000
    5.5026  -10.5895   27.7318 O   0  0  0  0  0  0  0  0  0  0  0  0
    6.2441  -11.6033   27.1169 C   0  0  0  0  0  0  0  0  0  0  0  0
    5.7362  -12.1968   25.9763 C   0  0  0  0  0  0  0  0  0  0  0  0
    6.4320  -13.2022   25.3338 C   0  0  0  0  0  0  0  0  0  0  0  0
    7.6496  -13.6382   25.8141 C   0  0  0  0  0  0  0  0  0  0  0  0
    8.3816  -14.7209   25.1077 C   0  0  0  0  0  0  0  0  0  0  0  0
    7.3754  -15.7318   24.6047 C   0  0  2  0  0  0  0  0  0  0  0  0
    6.8257  -16.4234   25.7345 N   0  0  0  0  0  0  0  0  0  0  0  0
    7.9622  -16.6454   23.5981 C   0  0  0  0  0  0  0  0  0  0  0  0
    8.2761  -17.8127   23.9442 O   0  0  0  0  0  0  0  0  0  0  0  0
    8.1493  -13.0399   26.9537 C   0  0  0  0  0  0  0  0  0  0  0  0
    7.4595  -12.0289   27.6081 C   0  0  0  0  0  0  0  0  0  0  0  0
    9.1032  -15.2920   19.8161 O   0  0  0  0  0  0  0  0  0  0  0  0
    8.6738  -16.6013   19.8893 C   0  0  0  0  0  0  0  0  0  0  0  0
    8.8094  -17.1882   21.2803 C   0  0  2  0  0  0  0  0  0  0  0  0
    8.1986  -16.2866   22.2446 N   0  0  0  0  0  0  0  0  0  0  0  0
   10.2249  -17.4670   21.6173 C   0  0  0  0  0  0  0  0  0  0  0  0
   10.9216  -16.5223   22.1072 O   0  0  0  0  0  0  0  0  0  0  0  0
   12.6955  -20.3468   21.3999 C   0  0  0  0  0  0  0  0  0  0  0  0
   12.2475  -18.9711   21.8105 C   0  0  2  0  0  0  0  0  0  0  0  0
   10.8717  -18.7051   21.4390 N   0  0  0  0  0  0  0  0  0  0  0  0
   13.0948  -17.9799   21.0959 C   0  0  0  0  0  0  0  0  0  0  0  0
   12.7387  -17.4409   20.0042 O   0  0  0  0  0  0  0  0  0  0  0  0
   14.3292  -17.6148   21.6265 O   0  0  0  0  0  0  0  0  0  0  0  0
  1  2  1  0
  2  3  2  0
  2 12  1  0
  3  4  1  0
  4  5  2  0
  5  6  1  0
  7  6  1  0
  7  8  1  1
  9 16  1  0
  9  7  1  0
 10  9  2  0
 11  5  1  0
 12 11  2  0
 13 14  1  0
 15 14  1  6
 15 17  1  0
 15 16  1  0
 17 21  1  0
 18 17  2  0
 20 19  1  6
 20 22  1  0
 21 20  1  0
 22 23  2  0
 22 24  1  0
M  END
$$$$
