YSA.pdb
     RDKit          3D

 24 24  0  0  1  0  0  0  0  0999 V2000
   20.1435  -18.1388   11.2257 O   0  0  0  0  0  0  0  0  0  0  0  0
   19.1961  -18.3078   12.2404 C   0  0  0  0  0  0  0  0  0  0  0  0
   18.6627  -19.5665   12.4456 C   0  0  0  0  0  0  0  0  0  0  0  0
   17.7241  -19.7829   13.4356 C   0  0  0  0  0  0  0  0  0  0  0  0
   17.2965  -18.7490   14.2428 C   0  0  0  0  0  0  0  0  0  0  0  0
   16.2860  -19.0034   15.3018 C   0  0  0  0  0  0  0  0  0  0  0  0
   14.9348  -19.1757   14.6447 C   0  0  2  0  0  0  0  0  0  0  0  0
   14.6235  -17.9729   13.9284 N   0  0  0  0  0  0  0  0  0  0  0  0
   13.8873  -19.5541   15.6204 C   0  0  0  0  0  0  0  0  0  0  0  0
   13.2269  -18.6470   16.1879 O   0  0  0  0  0  0  0  0  0  0  0  0
   17.8345  -17.4953   14.0308 C   0  0  0  0  0  0  0  0  0  0  0  0
   18.7781  -17.2656   13.0394 C   0  0  0  0  0  0  0  0  0  0  0  0
   13.0044  -23.5604   16.4316 O   0  0  0  0  0  0  0  0  0  0  0  0
   12.0080  -22.6251   16.6228 C   0  0  0  0  0  0  0  0  0  0  0  0
   12.5493  -21.2448   16.9380 C   0  0  2  0  0  0  0  0  0  0  0  0
   13.5723  -20.8953   15.9647 N   0  0  0  0  0  0  0  0  0  0  0  0
   13.0679  -21.1673   18.3236 C   0  0  0  0  0  0  0  0  0  0  0  0
   14.3026  -21.4047   18.5156 O   0  0  0  0  0  0  0  0  0  0  0  0
   11.7913  -20.3045   21.7984 C   0  0  0  0  0  0  0  0  0  0  0  0
   12.8307  -20.7452   20.8048 C   0  0  2  0  0  0  0  0  0  0  0  0
   12.2995  -20.8486   19.4598 N   0  0  0  0  0  0  0  0  0  0  0  0
   13.2965  -22.1013   21.1985 C   0  0  0  0  0  0  0  0  0  0  0  0
   12.7747  -23.1613   20.7369 O   0  0  0  0  0  0  0  0  0  0  0  0
   14.3434  -22.2366   22.1064 O   0  0  0  0  0  0  0  0  0  0  0  0
  1  2  1  0
  2  3  2  0
  2 12  1  0
  3  4  1  0
  4  5  2  0
  5  6  1  0
  7  6  1  0
  7  8  1  1
  9 16  1  0
  9  7  1  0
 10  9  2  0
 11  5  1  0
 12 11  2  0
 13 14  1  0
 15 14  1  6
 15 17  1  0
 15 16  1  0
 17 21  1  0
 18 17  2  0
 20 19  1  1
 20 22  1  0
 21 20  1  0
 22 23  2  0
 22 24  1  0
M  END
$$$$
