YSA.pdb
     RDKit          3D

 24 24  0  0  1  0  0  0  0  0999 V2000
   -2.3297  -23.4470   23.7443 O   0  0  0  0  0  0  0  0  0  0  0  0
   -0.9742  -23.3608   24.0771 C   0  0  0  0  0  0  0  0  0  0  0  0
   -0.1984  -22.4019   23.4528 C   0  0  0  0  0  0  0  0  0  0  0  0
    1.1451  -22.2783   23.7484 C   0  0  0  0  0  0  0  0  0  0  0  0
    1.7451  -23.1081   24.6731 C   0  0  0  0  0  0  0  0  0  0  0  0
    3.1917  -22.9582   24.9764 C   0  0  0  0  0  0  0  0  0  0  0  0
    3.9790  -23.2543   23.7195 C   0  0  2  0  0  0  0  0  0  0  0  0
    3.7646  -24.6272   23.3644 N   0  0  0  0  0  0  0  0  0  0  0  0
    5.4122  -22.9137   23.8691 C   0  0  0  0  0  0  0  0  0  0  0  0
    6.1875  -23.7557   24.3896 O   0  0  0  0  0  0  0  0  0  0  0  0
    0.9628  -24.0629   25.2917 C   0  0  0  0  0  0  0  0  0  0  0  0
   -0.3881  -24.1967   25.0030 C   0  0  0  0  0  0  0  0  0  0  0  0
    6.9618  -19.0865   22.9947 O   0  0  0  0  0  0  0  0  0  0  0  0
    7.7258  -20.1906   22.6762 C   0  0  0  0  0  0  0  0  0  0  0  0
    7.4051  -21.3962   23.5372 C   0  0  2  0  0  0  0  0  0  0  0  0
    5.9804  -21.6791   23.4575 N   0  0  0  0  0  0  0  0  0  0  0  0
    7.8420  -21.1955   24.9385 C   0  0  0  0  0  0  0  0  0  0  0  0
    7.1222  -20.4665   25.6922 O   0  0  0  0  0  0  0  0  0  0  0  0
    9.7442  -22.8186   27.5947 C   0  0  0  0  0  0  0  0  0  0  0  0
    9.4206  -21.5333   26.8839 C   0  0  2  0  0  0  0  0  0  0  0  0
    9.0013  -21.7512   25.5134 N   0  0  0  0  0  0  0  0  0  0  0  0
   10.6577  -20.7095   26.8390 C   0  0  0  0  0  0  0  0  0  0  0  0
   11.2591  -20.3261   27.8880 O   0  0  0  0  0  0  0  0  0  0  0  0
   11.1938  -20.3330   25.6104 O   0  0  0  0  0  0  0  0  0  0  0  0
  1  2  1  0
  2  3  2  0
  2 12  1  0
  3  4  1  0
  4  5  2  0
  5  6  1  0
  7  6  1  0
  7  8  1  1
  9 16  1  0
  9  7  1  0
 10  9  2  0
 11  5  1  0
 12 11  2  0
 13 14  1  0
 15 14  1  6
 15 17  1  0
 15 16  1  0
 17 21  1  0
 18 17  2  0
 20 19  1  6
 20 22  1  0
 21 20  1  0
 22 23  2  0
 22 24  1  0
M  END
$$$$
