YSA.pdb
     RDKit          3D

 24 24  0  0  1  0  0  0  0  0999 V2000
    8.3010  -13.0906   16.6498 O   0  0  0  0  0  0  0  0  0  0  0  0
    8.1281  -13.3801   18.0069 C   0  0  0  0  0  0  0  0  0  0  0  0
    9.2237  -13.7953   18.7406 C   0  0  0  0  0  0  0  0  0  0  0  0
    9.1025  -14.0928   20.0840 C   0  0  0  0  0  0  0  0  0  0  0  0
    7.8862  -13.9828   20.7257 C   0  0  0  0  0  0  0  0  0  0  0  0
    7.7777  -14.3076   22.1714 C   0  0  0  0  0  0  0  0  0  0  0  0
    7.6870  -15.8099   22.3205 C   0  0  2  0  0  0  0  0  0  0  0  0
    6.3926  -16.2318   21.8694 N   0  0  0  0  0  0  0  0  0  0  0  0
    7.9888  -16.2498   23.7016 C   0  0  0  0  0  0  0  0  0  0  0  0
    7.1273  -16.0717   24.5999 O   0  0  0  0  0  0  0  0  0  0  0  0
    6.7973  -13.5675   19.9853 C   0  0  0  0  0  0  0  0  0  0  0  0
    6.9067  -13.2658   18.6351 C   0  0  0  0  0  0  0  0  0  0  0  0
   11.6075  -18.2360   24.8010 O   0  0  0  0  0  0  0  0  0  0  0  0
   10.4078  -18.4870   25.4349 C   0  0  0  0  0  0  0  0  0  0  0  0
    9.4889  -17.2816   25.4538 C   0  0  2  0  0  0  0  0  0  0  0  0
    9.2066  -16.8702   24.0874 N   0  0  0  0  0  0  0  0  0  0  0  0
   10.0645  -16.1714   26.2481 C   0  0  0  0  0  0  0  0  0  0  0  0
   10.9921  -15.4772   25.7234 O   0  0  0  0  0  0  0  0  0  0  0  0
    9.4882  -13.6203   28.6340 C   0  0  0  0  0  0  0  0  0  0  0  0
   10.3413  -14.8312   28.3736 C   0  0  2  0  0  0  0  0  0  0  0  0
    9.6658  -15.8154   27.5509 N   0  0  0  0  0  0  0  0  0  0  0  0
   10.6329  -15.4772   29.6808 C   0  0  0  0  0  0  0  0  0  0  0  0
   10.2405  -16.6498   29.9636 O   0  0  0  0  0  0  0  0  0  0  0  0
   11.3625  -14.7877   30.6456 O   0  0  0  0  0  0  0  0  0  0  0  0
  1  2  1  0
  2  3  2  0
  2 12  1  0
  3  4  1  0
  4  5  2  0
  5  6  1  0
  7  6  1  0
  7  8  1  1
  9 16  1  0
  9  7  1  0
 10  9  2  0
 11  5  1  0
 12 11  2  0
 13 14  1  0
 15 14  1  6
 15 17  1  0
 15 16  1  0
 17 21  1  0
 18 17  2  0
 20 19  1  1
 20 22  1  0
 21 20  1  0
 22 23  2  0
 22 24  1  0
M  END
$$$$
