YSA.pdb
     RDKit          3D

 24 24  0  0  1  0  0  0  0  0999 V2000
    8.3771  -12.6441   16.9252 O   0  0  0  0  0  0  0  0  0  0  0  0
    8.0984  -13.0564   18.2321 C   0  0  0  0  0  0  0  0  0  0  0  0
    9.1553  -13.3369   19.0779 C   0  0  0  0  0  0  0  0  0  0  0  0
    8.9302  -13.7474   20.3773 C   0  0  0  0  0  0  0  0  0  0  0  0
    7.6463  -13.8876   20.8623 C   0  0  0  0  0  0  0  0  0  0  0  0
    7.4263  -14.3305   22.2633 C   0  0  0  0  0  0  0  0  0  0  0  0
    7.6166  -15.8294   22.3285 C   0  0  2  0  0  0  0  0  0  0  0  0
    6.4941  -16.4559   21.6926 N   0  0  0  0  0  0  0  0  0  0  0  0
    7.8324  -16.3018   23.7150 C   0  0  0  0  0  0  0  0  0  0  0  0
    6.9252  -16.1244   24.5674 O   0  0  0  0  0  0  0  0  0  0  0  0
    6.5968  -13.6054   20.0108 C   0  0  0  0  0  0  0  0  0  0  0  0
    6.8103  -13.1921   18.7032 C   0  0  0  0  0  0  0  0  0  0  0  0
   11.2500  -18.5180   24.9497 O   0  0  0  0  0  0  0  0  0  0  0  0
   10.0518  -18.5706   25.6321 C   0  0  0  0  0  0  0  0  0  0  0  0
    9.2709  -17.2740   25.5509 C   0  0  2  0  0  0  0  0  0  0  0  0
    9.0151  -16.9530   24.1553 N   0  0  0  0  0  0  0  0  0  0  0  0
    9.9766  -16.1699   26.2422 C   0  0  0  0  0  0  0  0  0  0  0  0
   10.8652  -15.5290   25.5962 O   0  0  0  0  0  0  0  0  0  0  0  0
    9.9221  -13.5833   28.6798 C   0  0  0  0  0  0  0  0  0  0  0  0
   10.6069  -14.8726   28.3183 C   0  0  2  0  0  0  0  0  0  0  0  0
    9.7432  -15.7652   27.5707 N   0  0  0  0  0  0  0  0  0  0  0  0
   10.9708  -15.5688   29.5808 C   0  0  0  0  0  0  0  0  0  0  0  0
   10.5029  -16.7065   29.8904 O   0  0  0  0  0  0  0  0  0  0  0  0
   11.8567  -14.9683   30.4714 O   0  0  0  0  0  0  0  0  0  0  0  0
  1  2  1  0
  2  3  2  0
  2 12  1  0
  3  4  1  0
  4  5  2  0
  5  6  1  0
  7  6  1  0
  7  8  1  1
  9 16  1  0
  9  7  1  0
 10  9  2  0
 11  5  1  0
 12 11  2  0
 13 14  1  0
 15 14  1  6
 15 17  1  0
 15 16  1  0
 17 21  1  0
 18 17  2  0
 20 19  1  1
 20 22  1  0
 21 20  1  0
 22 23  2  0
 22 24  1  0
M  END
$$$$
