YSA.pdb
     RDKit          3D

 24 24  0  0  1  0  0  0  0  0999 V2000
    9.5491  -13.9141   30.5463 O   0  0  0  0  0  0  0  0  0  0  0  0
    9.9843  -14.6226   29.4219 C   0  0  0  0  0  0  0  0  0  0  0  0
    9.8937  -14.0182   28.1820 C   0  0  0  0  0  0  0  0  0  0  0  0
   10.3107  -14.6780   27.0425 C   0  0  0  0  0  0  0  0  0  0  0  0
   10.8275  -15.9552   27.1140 C   0  0  0  0  0  0  0  0  0  0  0  0
   11.2704  -16.6471   25.8760 C   0  0  0  0  0  0  0  0  0  0  0  0
   10.0468  -17.0069   25.0632 C   0  0  2  0  0  0  0  0  0  0  0  0
    9.2223  -17.8788   25.8487 N   0  0  0  0  0  0  0  0  0  0  0  0
   10.4045  -17.5818   23.7464 C   0  0  0  0  0  0  0  0  0  0  0  0
   10.4793  -18.8312   23.6270 O   0  0  0  0  0  0  0  0  0  0  0  0
   10.9144  -16.5512   28.3563 C   0  0  0  0  0  0  0  0  0  0  0  0
   10.4986  -15.8984   29.5083 C   0  0  0  0  0  0  0  0  0  0  0  0
   11.3025  -15.1572   20.4184 O   0  0  0  0  0  0  0  0  0  0  0  0
   10.7877  -16.4186   20.1993 C   0  0  0  0  0  0  0  0  0  0  0  0
   11.0990  -17.3848   21.3249 C   0  0  2  0  0  0  0  0  0  0  0  0
   10.6734  -16.8042   22.5890 N   0  0  0  0  0  0  0  0  0  0  0  0
   12.5354  -17.7470   21.3492 C   0  0  0  0  0  0  0  0  0  0  0  0
   13.3113  -17.0715   22.0970 O   0  0  0  0  0  0  0  0  0  0  0  0
   14.8906  -20.1278   19.5563 C   0  0  0  0  0  0  0  0  0  0  0  0
   14.5429  -19.0687   20.5659 C   0  0  2  0  0  0  0  0  0  0  0  0
   13.1209  -18.7893   20.6049 N   0  0  0  0  0  0  0  0  0  0  0  0
   15.2269  -17.8106   20.1655 C   0  0  0  0  0  0  0  0  0  0  0  0
   14.6981  -16.9691   19.3771 O   0  0  0  0  0  0  0  0  0  0  0  0
   16.4957  -17.5246   20.6623 O   0  0  0  0  0  0  0  0  0  0  0  0
  1  2  1  0
  2  3  2  0
  2 12  1  0
  3  4  1  0
  4  5  2  0
  5  6  1  0
  7  6  1  0
  7  8  1  1
  9 16  1  0
  9  7  1  0
 10  9  2  0
 11  5  1  0
 12 11  2  0
 13 14  1  0
 15 14  1  6
 15 17  1  0
 15 16  1  0
 17 21  1  0
 18 17  2  0
 20 19  1  6
 20 22  1  0
 21 20  1  0
 22 23  2  0
 22 24  1  0
M  END
$$$$
