YSA.pdb
     RDKit          3D

 24 24  0  0  1  0  0  0  0  0999 V2000
   10.2126  -12.9456   17.3375 O   0  0  0  0  0  0  0  0  0  0  0  0
    9.3941  -13.2835   18.4199 C   0  0  0  0  0  0  0  0  0  0  0  0
    9.9537  -13.9597   19.4879 C   0  0  0  0  0  0  0  0  0  0  0  0
    9.1857  -14.3149   20.5795 C   0  0  0  0  0  0  0  0  0  0  0  0
    7.8426  -14.0037   20.6306 C   0  0  0  0  0  0  0  0  0  0  0  0
    7.0345  -14.3949   21.8143 C   0  0  0  0  0  0  0  0  0  0  0  0
    7.1392  -15.8931   21.9932 C   0  0  2  0  0  0  0  0  0  0  0  0
    6.1743  -16.5194   21.1367 N   0  0  0  0  0  0  0  0  0  0  0  0
    6.9985  -16.2940   23.4116 C   0  0  0  0  0  0  0  0  0  0  0  0
    5.8822  -16.1606   23.9746 O   0  0  0  0  0  0  0  0  0  0  0  0
    7.2920  -13.3282   19.5596 C   0  0  0  0  0  0  0  0  0  0  0  0
    8.0535  -12.9661   18.4573 C   0  0  0  0  0  0  0  0  0  0  0  0
    9.0464  -19.0929   25.5673 O   0  0  0  0  0  0  0  0  0  0  0  0
    7.9743  -18.3749   26.0565 C   0  0  0  0  0  0  0  0  0  0  0  0
    8.0053  -16.9167   25.6439 C   0  0  2  0  0  0  0  0  0  0  0  0
    8.0572  -16.8281   24.1929 N   0  0  0  0  0  0  0  0  0  0  0  0
    9.1372  -16.1973   26.2733 C   0  0  0  0  0  0  0  0  0  0  0  0
   10.2585  -16.2020   25.6731 O   0  0  0  0  0  0  0  0  0  0  0  0
    9.9319  -13.6394   28.8471 C   0  0  0  0  0  0  0  0  0  0  0  0
   10.2277  -14.9587   28.1884 C   0  0  2  0  0  0  0  0  0  0  0  0
    9.0752  -15.5000   27.4952 N   0  0  0  0  0  0  0  0  0  0  0  0
   10.5969  -15.9303   29.2517 C   0  0  0  0  0  0  0  0  0  0  0  0
    9.9198  -16.9780   29.4819 O   0  0  0  0  0  0  0  0  0  0  0  0
   11.7242  -15.7018   30.0364 O   0  0  0  0  0  0  0  0  0  0  0  0
  1  2  1  0
  2  3  2  0
  2 12  1  0
  3  4  1  0
  4  5  2  0
  5  6  1  0
  7  6  1  0
  7  8  1  6
  9 16  1  0
  9  7  1  0
 10  9  2  0
 11  5  1  0
 12 11  2  0
 13 14  1  0
 15 14  1  6
 15 17  1  0
 15 16  1  0
 17 21  1  0
 18 17  2  0
 20 19  1  1
 20 22  1  0
 21 20  1  0
 22 23  2  0
 22 24  1  0
M  END
$$$$
