YSA.pdb
     RDKit          3D

 24 24  0  0  1  0  0  0  0  0999 V2000
    5.1556  -10.5251   27.3752 O   0  0  0  0  0  0  0  0  0  0  0  0
    5.9552  -11.5571   26.8741 C   0  0  0  0  0  0  0  0  0  0  0  0
    6.6979  -12.3112   27.7634 C   0  0  0  0  0  0  0  0  0  0  0  0
    7.5024  -13.3409   27.3161 C   0  0  0  0  0  0  0  0  0  0  0  0
    7.5843  -13.6418   25.9721 C   0  0  0  0  0  0  0  0  0  0  0  0
    8.4557  -14.7537   25.5122 C   0  0  0  0  0  0  0  0  0  0  0  0
    7.6301  -15.6884   24.6566 C   0  0  2  0  0  0  0  0  0  0  0  0
    6.6943  -16.3692   25.5039 N   0  0  0  0  0  0  0  0  0  0  0  0
    8.4765  -16.6143   23.8702 C   0  0  0  0  0  0  0  0  0  0  0  0
    8.6292  -17.7944   24.2765 O   0  0  0  0  0  0  0  0  0  0  0  0
    6.8391  -12.8836   25.0911 C   0  0  0  0  0  0  0  0  0  0  0  0
    6.0273  -11.8465   25.5285 C   0  0  0  0  0  0  0  0  0  0  0  0
   10.8975  -15.5684   20.3692 O   0  0  0  0  0  0  0  0  0  0  0  0
   10.1011  -16.6893   20.4859 C   0  0  0  0  0  0  0  0  0  0  0  0
    9.9765  -17.1762   21.9159 C   0  0  2  0  0  0  0  0  0  0  0  0
    9.1392  -16.2538   22.6671 N   0  0  0  0  0  0  0  0  0  0  0  0
   11.3044  -17.3452   22.5506 C   0  0  0  0  0  0  0  0  0  0  0  0
   11.7905  -16.3620   23.1946 O   0  0  0  0  0  0  0  0  0  0  0  0
   13.9729  -20.0277   22.9143 C   0  0  0  0  0  0  0  0  0  0  0  0
   13.4249  -18.6326   23.0376 C   0  0  2  0  0  0  0  0  0  0  0  0
   12.0832  -18.5175   22.5005 N   0  0  0  0  0  0  0  0  0  0  0  0
   14.2952  -17.7255   22.2434 C   0  0  0  0  0  0  0  0  0  0  0  0
   14.0051  -17.3648   21.0624 O   0  0  0  0  0  0  0  0  0  0  0  0
   15.4776  -17.2415   22.7967 O   0  0  0  0  0  0  0  0  0  0  0  0
  1  2  1  0
  2  3  2  0
  2 12  1  0
  3  4  1  0
  4  5  2  0
  5  6  1  0
  7  6  1  0
  7  8  1  1
  9 16  1  0
  9  7  1  0
 10  9  2  0
 11  5  1  0
 12 11  2  0
 13 14  1  0
 15 14  1  6
 15 17  1  0
 15 16  1  0
 17 21  1  0
 18 17  2  0
 20 19  1  6
 20 22  1  0
 21 20  1  0
 22 23  2  0
 22 24  1  0
M  END
$$$$
