YYM.pdb
     RDKit          3D

 33 34  0  0  1  0  0  0  0  0999 V2000
   35.5295  -27.1215  -20.4292 O   0  0  0  0  0  0  0  0  0  0  0  0
   34.3892  -27.9081  -20.2311 C   0  0  0  0  0  0  0  0  0  0  0  0
   33.4727  -27.5645  -19.2741 C   0  0  0  0  0  0  0  0  0  0  0  0
   32.3252  -28.3198  -19.0449 C   0  0  0  0  0  0  0  0  0  0  0  0
   32.1078  -29.4418  -19.8019 C   0  0  0  0  0  0  0  0  0  0  0  0
   30.9107  -30.2959  -19.6190 C   0  0  0  0  0  0  0  0  0  0  0  0
   30.9466  -30.9930  -18.2819 C   0  0  2  0  0  0  0  0  0  0  0  0
   32.0190  -31.9651  -18.3315 N   0  0  0  0  0  0  0  0  0  0  0  0
   29.6855  -31.5985  -17.8677 C   0  0  0  0  0  0  0  0  0  0  0  0
   29.4469  -32.8174  -18.1799 O   0  0  0  0  0  0  0  0  0  0  0  0
   33.0370  -29.7747  -20.7596 C   0  0  0  0  0  0  0  0  0  0  0  0
   34.1720  -29.0290  -20.9872 C   0  0  0  0  0  0  0  0  0  0  0  0
   21.7177  -32.5386  -14.0758 O   0  0  0  0  0  0  0  0  0  0  0  0
   22.9911  -32.1108  -14.4258 C   0  0  0  0  0  0  0  0  0  0  0  0
   24.0949  -32.8850  -14.0509 C   0  0  0  0  0  0  0  0  0  0  0  0
   25.3672  -32.4730  -14.3913 C   0  0  0  0  0  0  0  0  0  0  0  0
   25.5828  -31.3047  -15.0997 C   0  0  0  0  0  0  0  0  0  0  0  0
   26.9120  -30.8413  -15.4773 C   0  0  0  0  0  0  0  0  0  0  0  0
   27.4464  -31.4245  -16.7631 C   0  0  2  0  0  0  0  0  0  0  0  0
   28.7200  -30.8613  -17.1232 N   0  0  0  0  0  0  0  0  0  0  0  0
   26.5031  -31.4071  -17.8832 C   0  0  0  0  0  0  0  0  0  0  0  0
   26.5777  -30.4762  -18.7229 O   0  0  0  0  0  0  0  0  0  0  0  0
   24.4793  -30.5653  -15.4540 C   0  0  0  0  0  0  0  0  0  0  0  0
   23.1903  -30.9430  -15.1326 C   0  0  0  0  0  0  0  0  0  0  0  0
   25.5070  -32.6665  -24.7154 C   0  0  0  0  0  0  0  0  0  0  0  0
   26.1715  -32.6224  -23.0508 S   0  0  0  0  0  0  0  0  0  0  0  0
   24.9230  -32.4353  -21.7902 C   0  0  0  0  0  0  0  0  0  0  0  0
   25.4871  -32.2917  -20.4309 C   0  0  0  0  0  0  0  0  0  0  0  0
   24.5780  -32.3297  -19.2576 C   0  0  2  0  0  0  0  0  0  0  0  0
   25.4996  -32.3868  -18.0855 N   0  0  0  0  0  0  0  0  0  0  0  0
   23.5856  -33.3842  -19.1732 C   0  0  0  0  0  0  0  0  0  0  0  0
   23.6611  -34.2654  -18.2507 O   0  0  0  0  0  0  0  0  0  0  0  0
   22.5115  -33.5281  -20.0358 O   0  0  0  0  0  0  0  0  0  0  0  0
  2  3  2  0
  2  1  1  0
  4  3  1  0
  5  4  2  0
  6  5  1  0
  7  6  1  0
  7  8  1  6
  9 20  1  0
  9  7  1  0
 10  9  2  0
 11  5  1  0
 11 12  2  0
 12  2  1  0
 14 13  1  0
 14 15  2  0
 16 15  1  0
 17 16  2  0
 18 17  1  0
 19 18  1  1
 19 20  1  0
 21 19  1  0
 21 30  1  0
 22 21  2  0
 23 24  2  0
 23 17  1  0
 24 14  1  0
 25 26  1  0
 26 27  1  0
 27 28  1  0
 29 28  1  6
 29 30  1  0
 29 31  1  0
 31 32  2  0
 31 33  1  0
M  END
$$$$
