YYM.pdb
     RDKit          3D

 33 34  0  0  1  0  0  0  0  0999 V2000
   16.7213  -18.6311  -15.1073 O   0  0  0  0  0  0  0  0  0  0  0  0
   18.1103  -18.8013  -15.0969 C   0  0  0  0  0  0  0  0  0  0  0  0
   18.9251  -17.7916  -14.6604 C   0  0  0  0  0  0  0  0  0  0  0  0
   20.3117  -17.9202  -14.6339 C   0  0  0  0  0  0  0  0  0  0  0  0
   20.8768  -19.0947  -15.0585 C   0  0  0  0  0  0  0  0  0  0  0  0
   22.3432  -19.3083  -15.0593 C   0  0  0  0  0  0  0  0  0  0  0  0
   23.0029  -18.5072  -16.1538 C   0  0  2  0  0  0  0  0  0  0  0  0
   22.4975  -19.0050  -17.4165 N   0  0  0  0  0  0  0  0  0  0  0  0
   24.4614  -18.4995  -16.1195 C   0  0  0  0  0  0  0  0  0  0  0  0
   25.1047  -19.4118  -16.7472 O   0  0  0  0  0  0  0  0  0  0  0  0
   20.0459  -20.1002  -15.4944 C   0  0  0  0  0  0  0  0  0  0  0  0
   18.6750  -19.9745  -15.5211 C   0  0  0  0  0  0  0  0  0  0  0  0
   27.0407  -14.7115  -20.9330 O   0  0  0  0  0  0  0  0  0  0  0  0
   27.0920  -15.0921  -19.5991 C   0  0  0  0  0  0  0  0  0  0  0  0
   28.2121  -15.7905  -19.1344 C   0  0  0  0  0  0  0  0  0  0  0  0
   28.2780  -16.1757  -17.8109 C   0  0  0  0  0  0  0  0  0  0  0  0
   27.2573  -15.8874  -16.9230 C   0  0  0  0  0  0  0  0  0  0  0  0
   27.2950  -16.2772  -15.5192 C   0  0  0  0  0  0  0  0  0  0  0  0
   26.6012  -17.5801  -15.2030 C   0  0  2  0  0  0  0  0  0  0  0  0
   25.1794  -17.4977  -15.4048 N   0  0  0  0  0  0  0  0  0  0  0  0
   26.9371  -18.1528  -13.8976 C   0  0  0  0  0  0  0  0  0  0  0  0
   26.6572  -17.5016  -12.8608 O   0  0  0  0  0  0  0  0  0  0  0  0
   26.1700  -15.2003  -17.4085 C   0  0  0  0  0  0  0  0  0  0  0  0
   26.0660  -14.7973  -18.7253 C   0  0  0  0  0  0  0  0  0  0  0  0
   25.6783  -21.1871   -7.7898 C   0  0  0  0  0  0  0  0  0  0  0  0
   26.1292  -21.3760   -9.5147 S   0  0  0  0  0  0  0  0  0  0  0  0
   25.9661  -19.8733  -10.4623 C   0  0  0  0  0  0  0  0  0  0  0  0
   26.2342  -20.0637  -11.9039 C   0  0  0  0  0  0  0  0  0  0  0  0
   27.6376  -20.0709  -12.3888 C   0  0  2  0  0  0  0  0  0  0  0  0
   27.5636  -19.4120  -13.7255 N   0  0  0  0  0  0  0  0  0  0  0  0
   28.3393  -21.3366  -12.4863 C   0  0  0  0  0  0  0  0  0  0  0  0
   29.3967  -21.5399  -11.7982 O   0  0  0  0  0  0  0  0  0  0  0  0
   27.9486  -22.3958  -13.2887 O   0  0  0  0  0  0  0  0  0  0  0  0
  2  3  2  0
  2  1  1  0
  4  3  1  0
  5  4  2  0
  6  5  1  0
  7  6  1  0
  7  8  1  6
  9 20  1  0
  9  7  1  0
 10  9  2  0
 11  5  1  0
 11 12  2  0
 12  2  1  0
 14 13  1  0
 14 15  2  0
 16 15  1  0
 17 16  2  0
 18 17  1  0
 19 18  1  1
 19 20  1  0
 21 19  1  0
 21 30  1  0
 22 21  2  0
 23 24  2  0
 23 17  1  0
 24 14  1  0
 25 26  1  0
 26 27  1  0
 27 28  1  0
 29 28  1  6
 29 30  1  0
 29 31  1  0
 31 32  2  0
 31 33  1  0
M  END
$$$$
