YYM.pdb
     RDKit          3D

 33 34  0  0  1  0  0  0  0  0999 V2000
   27.0985  -18.7940  -16.5761 O   0  0  0  0  0  0  0  0  0  0  0  0
   27.6779  -17.5827  -16.9704 C   0  0  0  0  0  0  0  0  0  0  0  0
   28.6336  -17.5626  -17.9501 C   0  0  0  0  0  0  0  0  0  0  0  0
   29.2350  -16.3791  -18.3716 C   0  0  0  0  0  0  0  0  0  0  0  0
   28.8572  -15.1985  -17.7863 C   0  0  0  0  0  0  0  0  0  0  0  0
   29.4494  -13.8986  -18.1808 C   0  0  0  0  0  0  0  0  0  0  0  0
   28.3889  -12.9597  -18.6994 C   0  0  2  0  0  0  0  0  0  0  0  0
   27.8030  -13.5767  -19.8714 N   0  0  0  0  0  0  0  0  0  0  0  0
   28.8474  -11.6022  -18.9739 C   0  0  0  0  0  0  0  0  0  0  0  0
   29.5128  -11.3733  -20.0439 O   0  0  0  0  0  0  0  0  0  0  0  0
   27.8960  -15.2340  -16.8034 C   0  0  0  0  0  0  0  0  0  0  0  0
   27.3006  -16.4033  -16.3857 C   0  0  0  0  0  0  0  0  0  0  0  0
   24.2792   -8.7375  -22.6025 O   0  0  0  0  0  0  0  0  0  0  0  0
   25.1691   -8.6084  -21.5449 C   0  0  0  0  0  0  0  0  0  0  0  0
   26.3710   -7.9212  -21.7485 C   0  0  0  0  0  0  0  0  0  0  0  0
   27.2660   -7.7844  -20.7070 C   0  0  0  0  0  0  0  0  0  0  0  0
   27.0046   -8.3130  -19.4558 C   0  0  0  0  0  0  0  0  0  0  0  0
   27.9260   -8.1853  -18.3338 C   0  0  0  0  0  0  0  0  0  0  0  0
   29.0472   -9.1960  -18.3147 C   0  0  2  0  0  0  0  0  0  0  0  0
   28.5669  -10.5310  -18.0774 N   0  0  0  0  0  0  0  0  0  0  0  0
   30.1676   -8.8525  -17.4364 C   0  0  0  0  0  0  0  0  0  0  0  0
   29.9550   -8.7268  -16.2050 O   0  0  0  0  0  0  0  0  0  0  0  0
   25.8159   -8.9825  -19.2862 C   0  0  0  0  0  0  0  0  0  0  0  0
   24.8943   -9.1411  -20.3025 C   0  0  0  0  0  0  0  0  0  0  0  0
   35.8917  -12.4385  -18.5162 C   0  0  0  0  0  0  0  0  0  0  0  0
   35.0189  -11.5952  -17.1967 S   0  0  0  0  0  0  0  0  0  0  0  0
   34.1561  -10.1298  -17.7362 C   0  0  0  0  0  0  0  0  0  0  0  0
   33.3028   -9.5376  -16.6838 C   0  0  0  0  0  0  0  0  0  0  0  0
   32.5901   -8.2637  -16.9555 C   0  0  2  0  0  0  0  0  0  0  0  0
   31.4946   -8.6526  -17.8910 N   0  0  0  0  0  0  0  0  0  0  0  0
   33.3381   -7.1419  -17.4901 C   0  0  0  0  0  0  0  0  0  0  0  0
   33.2117   -6.8119  -18.7182 O   0  0  0  0  0  0  0  0  0  0  0  0
   34.2125   -6.3556  -16.7583 O   0  0  0  0  0  0  0  0  0  0  0  0
  2  3  2  0
  2  1  1  0
  4  3  1  0
  5  4  2  0
  6  5  1  0
  7  6  1  0
  7  8  1  6
  9 20  1  0
  9  7  1  0
 10  9  2  0
 11  5  1  0
 11 12  2  0
 12  2  1  0
 14 13  1  0
 14 15  2  0
 16 15  1  0
 17 16  2  0
 18 17  1  0
 19 18  1  1
 19 20  1  0
 21 19  1  0
 21 30  1  0
 22 21  2  0
 23 24  2  0
 23 17  1  0
 24 14  1  0
 25 26  1  0
 26 27  1  0
 27 28  1  0
 29 28  1  6
 29 30  1  0
 29 31  1  0
 31 32  2  0
 31 33  1  0
M  END
$$$$
