YYM.pdb
     RDKit          3D

 33 34  0  0  1  0  0  0  0  0999 V2000
   21.4372   -7.0350  -23.7566 O   0  0  0  0  0  0  0  0  0  0  0  0
   20.8491   -7.0296  -22.4868 C   0  0  0  0  0  0  0  0  0  0  0  0
   20.6335   -5.8469  -21.8322 C   0  0  0  0  0  0  0  0  0  0  0  0
   20.0512   -5.7976  -20.5679 C   0  0  0  0  0  0  0  0  0  0  0  0
   19.6830   -6.9704  -19.9613 C   0  0  0  0  0  0  0  0  0  0  0  0
   19.0569   -7.0003  -18.6185 C   0  0  0  0  0  0  0  0  0  0  0  0
   20.0731   -7.3464  -17.5589 C   0  0  2  0  0  0  0  0  0  0  0  0
   19.9344   -8.7597  -17.2743 N   0  0  0  0  0  0  0  0  0  0  0  0
   19.9986   -6.5397  -16.3455 C   0  0  0  0  0  0  0  0  0  0  0  0
   19.0896   -6.7967  -15.4808 O   0  0  0  0  0  0  0  0  0  0  0  0
   19.9057   -8.1509  -20.6308 C   0  0  0  0  0  0  0  0  0  0  0  0
   20.4812   -8.2012  -21.8807 C   0  0  0  0  0  0  0  0  0  0  0  0
   22.2708  -10.0318  -11.6169 O   0  0  0  0  0  0  0  0  0  0  0  0
   22.2174   -8.7729  -12.1993 C   0  0  0  0  0  0  0  0  0  0  0  0
   22.8233   -8.5743  -13.4449 C   0  0  0  0  0  0  0  0  0  0  0  0
   22.7788   -7.3285  -14.0369 C   0  0  0  0  0  0  0  0  0  0  0  0
   22.1455   -6.2610  -13.4265 C   0  0  0  0  0  0  0  0  0  0  0  0
   22.0779   -4.9333  -14.0239 C   0  0  0  0  0  0  0  0  0  0  0  0
   20.8733   -4.6923  -14.9013 C   0  0  2  0  0  0  0  0  0  0  0  0
   20.9169   -5.4771  -16.1059 N   0  0  0  0  0  0  0  0  0  0  0  0
   20.5866   -3.2826  -15.1757 C   0  0  0  0  0  0  0  0  0  0  0  0
   21.2173   -2.7046  -16.0952 O   0  0  0  0  0  0  0  0  0  0  0  0
   21.5594   -6.4865  -12.2035 C   0  0  0  0  0  0  0  0  0  0  0  0
   21.5819   -7.7176  -11.5781 C   0  0  0  0  0  0  0  0  0  0  0  0
   17.7172    1.0378  -19.7459 C   0  0  0  0  0  0  0  0  0  0  0  0
   18.3193   -0.3817  -18.8311 S   0  0  0  0  0  0  0  0  0  0  0  0
   18.5467   -0.0632  -17.0905 C   0  0  0  0  0  0  0  0  0  0  0  0
   19.0065   -1.2501  -16.3381 C   0  0  0  0  0  0  0  0  0  0  0  0
   19.2697   -1.1319  -14.8816 C   0  0  2  0  0  0  0  0  0  0  0  0
   19.6293   -2.5185  -14.4636 N   0  0  0  0  0  0  0  0  0  0  0  0
   18.2306   -0.5975  -14.0223 C   0  0  0  0  0  0  0  0  0  0  0  0
   17.3233   -1.3672  -13.5559 O   0  0  0  0  0  0  0  0  0  0  0  0
   18.1289    0.7294  -13.6382 O   0  0  0  0  0  0  0  0  0  0  0  0
  2  3  2  0
  2  1  1  0
  4  3  1  0
  5  4  2  0
  6  5  1  0
  7  6  1  0
  7  8  1  1
  9 20  1  0
  9  7  1  0
 10  9  2  0
 11  5  1  0
 11 12  2  0
 12  2  1  0
 14 13  1  0
 14 15  2  0
 16 15  1  0
 17 16  2  0
 18 17  1  0
 19 18  1  6
 19 20  1  0
 21 19  1  0
 21 30  1  0
 22 21  2  0
 23 24  2  0
 23 17  1  0
 24 14  1  0
 25 26  1  0
 26 27  1  0
 27 28  1  0
 29 28  1  6
 29 30  1  0
 29 31  1  0
 31 32  2  0
 31 33  1  0
M  END
$$$$
