YYM.pdb
     RDKit          3D

 33 34  0  0  1  0  0  0  0  0999 V2000
   13.6351  -21.5112    0.1595 O   0  0  0  0  0  0  0  0  0  0  0  0
   14.2037  -20.6286    1.0848 C   0  0  0  0  0  0  0  0  0  0  0  0
   13.7729  -19.3312    1.1544 C   0  0  0  0  0  0  0  0  0  0  0  0
   14.3120  -18.4211    2.0605 C   0  0  0  0  0  0  0  0  0  0  0  0
   15.3047  -18.8389    2.9084 C   0  0  0  0  0  0  0  0  0  0  0  0
   15.9272  -17.9310    3.9006 C   0  0  0  0  0  0  0  0  0  0  0  0
   15.1178  -17.8882    5.1725 C   0  0  2  0  0  0  0  0  0  0  0  0
   13.8999  -17.1594    4.8838 N   0  0  0  0  0  0  0  0  0  0  0  0
   15.8159  -17.3393    6.3301 C   0  0  0  0  0  0  0  0  0  0  0  0
   15.8938  -16.0683    6.4662 O   0  0  0  0  0  0  0  0  0  0  0  0
   15.7275  -20.1450    2.8272 C   0  0  0  0  0  0  0  0  0  0  0  0
   15.1954  -21.0458    1.9319 C   0  0  0  0  0  0  0  0  0  0  0  0
   19.6848  -16.7081   14.2523 O   0  0  0  0  0  0  0  0  0  0  0  0
   18.9817  -17.1315   13.1329 C   0  0  0  0  0  0  0  0  0  0  0  0
   19.4900  -18.1898   12.3714 C   0  0  0  0  0  0  0  0  0  0  0  0
   18.8025  -18.6222   11.2556 C   0  0  0  0  0  0  0  0  0  0  0  0
   17.6136  -18.0323   10.8662 C   0  0  0  0  0  0  0  0  0  0  0  0
   16.8611  -18.4649    9.6954 C   0  0  0  0  0  0  0  0  0  0  0  0
   17.1178  -17.6618    8.4431 C   0  0  2  0  0  0  0  0  0  0  0  0
   16.4079  -18.1890    7.3085 N   0  0  0  0  0  0  0  0  0  0  0  0
   18.5322  -17.4275    8.1440 C   0  0  0  0  0  0  0  0  0  0  0  0
   19.1270  -18.2199    7.3723 O   0  0  0  0  0  0  0  0  0  0  0  0
   17.1392  -16.9952   11.6338 C   0  0  0  0  0  0  0  0  0  0  0  0
   17.7969  -16.5331   12.7569 C   0  0  0  0  0  0  0  0  0  0  0  0
   21.6593  -11.0816    6.1785 C   0  0  0  0  0  0  0  0  0  0  0  0
   21.3522  -12.0922    7.6271 S   0  0  0  0  0  0  0  0  0  0  0  0
   21.3020  -13.8410    7.2780 C   0  0  0  0  0  0  0  0  0  0  0  0
   20.8907  -14.6542    8.4425 C   0  0  0  0  0  0  0  0  0  0  0  0
   20.7032  -16.1180    8.2786 C   0  0  2  0  0  0  0  0  0  0  0  0
   19.2829  -16.3488    8.6736 N   0  0  0  0  0  0  0  0  0  0  0  0
   21.5815  -17.0221    8.9961 C   0  0  0  0  0  0  0  0  0  0  0  0
   21.2903  -17.3937   10.1836 O   0  0  0  0  0  0  0  0  0  0  0  0
   22.7577  -17.5486    8.4883 O   0  0  0  0  0  0  0  0  0  0  0  0
  2  3  2  0
  2  1  1  0
  4  3  1  0
  5  4  2  0
  6  5  1  0
  7  6  1  0
  7  8  1  6
  9 20  1  0
  9  7  1  0
 10  9  2  0
 11  5  1  0
 11 12  2  0
 12  2  1  0
 14 13  1  0
 14 15  2  0
 16 15  1  0
 17 16  2  0
 18 17  1  0
 19 18  1  1
 19 20  1  0
 21 19  1  0
 21 30  1  0
 22 21  2  0
 23 24  2  0
 23 17  1  0
 24 14  1  0
 25 26  1  0
 26 27  1  0
 27 28  1  0
 29 28  1  1
 29 30  1  0
 29 31  1  0
 31 32  2  0
 31 33  1  0
M  END
$$$$
