YYM.pdb
     RDKit          3D

 33 34  0  0  1  0  0  0  0  0999 V2000
   23.7706   -1.7971  -15.5051 O   0  0  0  0  0  0  0  0  0  0  0  0
   22.7278   -2.4827  -14.8722 C   0  0  0  0  0  0  0  0  0  0  0  0
   21.6126   -1.8076  -14.4544 C   0  0  0  0  0  0  0  0  0  0  0  0
   20.5528   -2.4520  -13.8208 C   0  0  0  0  0  0  0  0  0  0  0  0
   20.6299   -3.8042  -13.6096 C   0  0  0  0  0  0  0  0  0  0  0  0
   19.5435   -4.5609  -12.9440 C   0  0  0  0  0  0  0  0  0  0  0  0
   18.9788   -5.6136  -13.8649 C   0  0  2  0  0  0  0  0  0  0  0  0
   18.5875   -4.9487  -15.0906 N   0  0  0  0  0  0  0  0  0  0  0  0
   17.8871   -6.4025  -13.3044 C   0  0  0  0  0  0  0  0  0  0  0  0
   16.6878   -6.1680  -13.6876 O   0  0  0  0  0  0  0  0  0  0  0  0
   21.7562   -4.4693  -14.0346 C   0  0  0  0  0  0  0  0  0  0  0  0
   22.8047   -3.8336  -14.6611 C   0  0  0  0  0  0  0  0  0  0  0  0
   13.5242  -13.3843  -10.2418 O   0  0  0  0  0  0  0  0  0  0  0  0
   14.5210  -12.4733  -10.5630 C   0  0  0  0  0  0  0  0  0  0  0  0
   14.6842  -12.0874  -11.8982 C   0  0  0  0  0  0  0  0  0  0  0  0
   15.6707  -11.1826  -12.2335 C   0  0  0  0  0  0  0  0  0  0  0  0
   16.5103  -10.6417  -11.2765 C   0  0  0  0  0  0  0  0  0  0  0  0
   17.5605   -9.6828  -11.5951 C   0  0  0  0  0  0  0  0  0  0  0  0
   17.0784   -8.2760  -11.8553 C   0  0  2  0  0  0  0  0  0  0  0  0
   18.1311   -7.4262  -12.3440 N   0  0  0  0  0  0  0  0  0  0  0  0
   16.3501   -7.6618  -10.7431 C   0  0  0  0  0  0  0  0  0  0  0  0
   17.0036   -7.1566   -9.7970 O   0  0  0  0  0  0  0  0  0  0  0  0
   16.3259  -11.0396   -9.9735 C   0  0  0  0  0  0  0  0  0  0  0  0
   15.3508  -11.9423   -9.5973 C   0  0  0  0  0  0  0  0  0  0  0  0
   13.5643   -3.7567   -5.7924 C   0  0  0  0  0  0  0  0  0  0  0  0
   14.2217   -5.0086   -6.8947 S   0  0  0  0  0  0  0  0  0  0  0  0
   14.1240   -4.5616   -8.6190 C   0  0  0  0  0  0  0  0  0  0  0  0
   14.7476   -5.5599   -9.5141 C   0  0  0  0  0  0  0  0  0  0  0  0
   14.2476   -6.9579   -9.5059 C   0  0  2  0  0  0  0  0  0  0  0  0
   14.9368   -7.5970  -10.6648 N   0  0  0  0  0  0  0  0  0  0  0  0
   12.8179   -7.1918   -9.5754 C   0  0  0  0  0  0  0  0  0  0  0  0
   12.2315   -7.2564  -10.7090 O   0  0  0  0  0  0  0  0  0  0  0  0
   11.9921   -7.3650   -8.4769 O   0  0  0  0  0  0  0  0  0  0  0  0
  2  3  2  0
  2  1  1  0
  4  3  1  0
  5  4  2  0
  6  5  1  0
  7  6  1  0
  7  8  1  6
  9 20  1  0
  9  7  1  0
 10  9  2  0
 11  5  1  0
 11 12  2  0
 12  2  1  0
 14 13  1  0
 14 15  2  0
 16 15  1  0
 17 16  2  0
 18 17  1  0
 19 18  1  1
 19 20  1  0
 21 19  1  0
 21 30  1  0
 22 21  2  0
 23 24  2  0
 23 17  1  0
 24 14  1  0
 25 26  1  0
 26 27  1  0
 27 28  1  0
 29 28  1  6
 29 30  1  0
 29 31  1  0
 31 32  2  0
 31 33  1  0
M  END
$$$$
