YYM.pdb
     RDKit          3D

 33 34  0  0  1  0  0  0  0  0999 V2000
   28.6795  -29.1595  -17.6231 O   0  0  0  0  0  0  0  0  0  0  0  0
   27.8372  -28.0847  -17.3169 C   0  0  0  0  0  0  0  0  0  0  0  0
   28.3477  -26.9495  -16.7473 C   0  0  0  0  0  0  0  0  0  0  0  0
   27.5442  -25.8578  -16.4271 C   0  0  0  0  0  0  0  0  0  0  0  0
   26.2007  -25.9234  -16.6912 C   0  0  0  0  0  0  0  0  0  0  0  0
   25.2812  -24.8034  -16.3809 C   0  0  0  0  0  0  0  0  0  0  0  0
   25.1167  -24.6397  -14.8906 C   0  0  2  0  0  0  0  0  0  0  0  0
   24.4402  -25.8223  -14.3993 N   0  0  0  0  0  0  0  0  0  0  0  0
   24.4390  -23.4163  -14.4753 C   0  0  0  0  0  0  0  0  0  0  0  0
   23.2139  -23.4765  -14.1070 O   0  0  0  0  0  0  0  0  0  0  0  0
   25.7019  -27.0701  -17.2635 C   0  0  0  0  0  0  0  0  0  0  0  0
   26.4950  -28.1501  -17.5806 C   0  0  0  0  0  0  0  0  0  0  0  0
   25.0218  -20.9784   -7.6390 O   0  0  0  0  0  0  0  0  0  0  0  0
   25.1172  -20.7690   -9.0079 C   0  0  0  0  0  0  0  0  0  0  0  0
   24.3296  -19.7752   -9.5998 C   0  0  0  0  0  0  0  0  0  0  0  0
   24.4131  -19.5550  -10.9595 C   0  0  0  0  0  0  0  0  0  0  0  0
   25.2621  -20.2970  -11.7606 C   0  0  0  0  0  0  0  0  0  0  0  0
   25.3767  -20.0897  -13.1987 C   0  0  0  0  0  0  0  0  0  0  0  0
   24.4661  -20.9519  -14.0391 C   0  0  2  0  0  0  0  0  0  0  0  0
   25.1140  -22.1617  -14.4701 N   0  0  0  0  0  0  0  0  0  0  0  0
   23.8134  -20.2544  -15.1492 C   0  0  0  0  0  0  0  0  0  0  0  0
   24.3131  -20.3443  -16.2980 O   0  0  0  0  0  0  0  0  0  0  0  0
   26.0233  -21.2660  -11.1510 C   0  0  0  0  0  0  0  0  0  0  0  0
   25.9688  -21.5173   -9.7940 C   0  0  0  0  0  0  0  0  0  0  0  0
   22.0074  -23.4004  -18.5473 C   0  0  0  0  0  0  0  0  0  0  0  0
   20.4186  -22.6253  -18.2489 S   0  0  0  0  0  0  0  0  0  0  0  0
   20.5408  -20.9093  -17.7764 C   0  0  0  0  0  0  0  0  0  0  0  0
   21.4109  -20.6910  -16.6010 C   0  0  0  0  0  0  0  0  0  0  0  0
   21.6769  -19.3051  -16.1393 C   0  0  2  0  0  0  0  0  0  0  0  0
   22.6376  -19.4762  -15.0104 N   0  0  0  0  0  0  0  0  0  0  0  0
   20.5595  -18.4751  -15.7318 C   0  0  0  0  0  0  0  0  0  0  0  0
   20.1624  -18.4829  -14.5171 O   0  0  0  0  0  0  0  0  0  0  0  0
   19.8539  -17.6320  -16.5743 O   0  0  0  0  0  0  0  0  0  0  0  0
  2  3  2  0
  2  1  1  0
  4  3  1  0
  5  4  2  0
  6  5  1  0
  7  6  1  0
  7  8  1  6
  9 20  1  0
  9  7  1  0
 10  9  2  0
 11  5  1  0
 11 12  2  0
 12  2  1  0
 14 13  1  0
 14 15  2  0
 16 15  1  0
 17 16  2  0
 18 17  1  0
 19 18  1  6
 19 20  1  0
 21 19  1  0
 21 30  1  0
 22 21  2  0
 23 24  2  0
 23 17  1  0
 24 14  1  0
 25 26  1  0
 26 27  1  0
 27 28  1  0
 29 28  1  1
 29 30  1  0
 29 31  1  0
 31 32  2  0
 31 33  1  0
M  END
$$$$
