YYM.pdb
     RDKit          3D

 33 34  0  0  1  0  0  0  0  0999 V2000
   16.1691    1.5126  -16.1589 O   0  0  0  0  0  0  0  0  0  0  0  0
   16.7941    0.3130  -16.5177 C   0  0  0  0  0  0  0  0  0  0  0  0
   16.7116   -0.7795  -15.6971 C   0  0  0  0  0  0  0  0  0  0  0  0
   17.3188   -1.9915  -16.0168 C   0  0  0  0  0  0  0  0  0  0  0  0
   18.0205   -2.0922  -17.1901 C   0  0  0  0  0  0  0  0  0  0  0  0
   18.6928   -3.3474  -17.6007 C   0  0  0  0  0  0  0  0  0  0  0  0
   20.0050   -3.5164  -16.8765 C   0  0  2  0  0  0  0  0  0  0  0  0
   20.9039   -2.4931  -17.3690 N   0  0  0  0  0  0  0  0  0  0  0  0
   20.5954   -4.8472  -16.9716 C   0  0  0  0  0  0  0  0  0  0  0  0
   21.1817   -5.1931  -18.0563 O   0  0  0  0  0  0  0  0  0  0  0  0
   18.0950   -0.9866  -18.0046 C   0  0  0  0  0  0  0  0  0  0  0  0
   17.4952    0.2122  -17.6898 C   0  0  0  0  0  0  0  0  0  0  0  0
   26.8081   -4.1877  -16.8471 O   0  0  0  0  0  0  0  0  0  0  0  0
   25.7179   -4.9315  -16.4170 C   0  0  0  0  0  0  0  0  0  0  0  0
   24.8092   -4.3515  -15.5247 C   0  0  0  0  0  0  0  0  0  0  0  0
   23.7204   -5.0782  -15.0878 C   0  0  0  0  0  0  0  0  0  0  0  0
   23.5010   -6.3763  -15.5121 C   0  0  0  0  0  0  0  0  0  0  0  0
   22.3612   -7.1712  -15.0726 C   0  0  0  0  0  0  0  0  0  0  0  0
   21.1379   -7.0672  -15.9511 C   0  0  2  0  0  0  0  0  0  0  0  0
   20.5332   -5.7638  -15.8827 N   0  0  0  0  0  0  0  0  0  0  0  0
   20.1558   -8.1374  -15.7642 C   0  0  0  0  0  0  0  0  0  0  0  0
   19.3553   -8.0627  -14.7994 O   0  0  0  0  0  0  0  0  0  0  0  0
   24.4105   -6.9191  -16.3885 C   0  0  0  0  0  0  0  0  0  0  0  0
   25.5124   -6.2254  -16.8490 C   0  0  0  0  0  0  0  0  0  0  0  0
   15.9875  -13.2540  -20.0518 C   0  0  0  0  0  0  0  0  0  0  0  0
   17.1922  -11.9561  -19.7717 S   0  0  0  0  0  0  0  0  0  0  0  0
   17.5310  -11.6591  -18.0456 C   0  0  0  0  0  0  0  0  0  0  0  0
   18.5782  -10.6384  -17.8264 C   0  0  0  0  0  0  0  0  0  0  0  0
   18.9597  -10.2729  -16.4388 C   0  0  2  0  0  0  0  0  0  0  0  0
   20.0467   -9.2659  -16.6141 N   0  0  0  0  0  0  0  0  0  0  0  0
   19.3818  -11.3204  -15.5286 C   0  0  0  0  0  0  0  0  0  0  0  0
   20.6151  -11.6462  -15.4514 O   0  0  0  0  0  0  0  0  0  0  0  0
   18.5343  -12.0289  -14.6931 O   0  0  0  0  0  0  0  0  0  0  0  0
  2  3  2  0
  2  1  1  0
  4  3  1  0
  5  4  2  0
  6  5  1  0
  7  6  1  0
  7  8  1  6
  9 20  1  0
  9  7  1  0
 10  9  2  0
 11  5  1  0
 11 12  2  0
 12  2  1  0
 14 13  1  0
 14 15  2  0
 16 15  1  0
 17 16  2  0
 18 17  1  0
 19 18  1  1
 19 20  1  0
 21 19  1  0
 21 30  1  0
 22 21  2  0
 23 24  2  0
 23 17  1  0
 24 14  1  0
 25 26  1  0
 26 27  1  0
 27 28  1  0
 29 28  1  6
 29 30  1  0
 29 31  1  0
 31 32  2  0
 31 33  1  0
M  END
$$$$
