YYM.pdb
     RDKit          3D

 33 34  0  0  1  0  0  0  0  0999 V2000
   27.2419  -35.3971  -17.3147 O   0  0  0  0  0  0  0  0  0  0  0  0
   26.9718  -34.7921  -16.0820 C   0  0  0  0  0  0  0  0  0  0  0  0
   27.6584  -35.1748  -14.9613 C   0  0  0  0  0  0  0  0  0  0  0  0
   27.4202  -34.5983  -13.7160 C   0  0  0  0  0  0  0  0  0  0  0  0
   26.4686  -33.6174  -13.6106 C   0  0  0  0  0  0  0  0  0  0  0  0
   26.1588  -32.9554  -12.3214 C   0  0  0  0  0  0  0  0  0  0  0  0
   25.1770  -33.7727  -11.5195 C   0  0  2  0  0  0  0  0  0  0  0  0
   23.8850  -33.6457  -12.1615 N   0  0  0  0  0  0  0  0  0  0  0  0
   25.1116  -33.4404  -10.1004 C   0  0  0  0  0  0  0  0  0  0  0  0
   24.1170  -32.7617   -9.6642 O   0  0  0  0  0  0  0  0  0  0  0  0
   25.7867  -33.2431  -14.7448 C   0  0  0  0  0  0  0  0  0  0  0  0
   26.0210  -33.8121  -15.9766 C   0  0  0  0  0  0  0  0  0  0  0  0
   24.1868  -33.6804   -1.6279 O   0  0  0  0  0  0  0  0  0  0  0  0
   24.3016  -33.7393   -3.0100 C   0  0  0  0  0  0  0  0  0  0  0  0
   24.2773  -32.5488   -3.7451 C   0  0  0  0  0  0  0  0  0  0  0  0
   24.3903  -32.5908   -5.1198 C   0  0  0  0  0  0  0  0  0  0  0  0
   24.5280  -33.7891   -5.7969 C   0  0  0  0  0  0  0  0  0  0  0  0
   24.6517  -33.8697   -7.2469 C   0  0  0  0  0  0  0  0  0  0  0  0
   26.0387  -33.6066   -7.7816 C   0  0  2  0  0  0  0  0  0  0  0  0
   26.1293  -33.8580   -9.1950 N   0  0  0  0  0  0  0  0  0  0  0  0
   27.1171  -34.2619   -7.0383 C   0  0  0  0  0  0  0  0  0  0  0  0
   27.2334  -35.5100   -7.1147 O   0  0  0  0  0  0  0  0  0  0  0  0
   24.5486  -34.9417   -5.0480 C   0  0  0  0  0  0  0  0  0  0  0  0
   24.4384  -34.9422   -3.6714 C   0  0  0  0  0  0  0  0  0  0  0  0
   34.6514  -33.7948   -5.5049 C   0  0  0  0  0  0  0  0  0  0  0  0
   33.0649  -33.1549   -6.0414 S   0  0  0  0  0  0  0  0  0  0  0  0
   31.6728  -34.0210   -5.3380 C   0  0  0  0  0  0  0  0  0  0  0  0
   30.3733  -33.5682   -5.8791 C   0  0  0  0  0  0  0  0  0  0  0  0
   29.1337  -34.2901   -5.4959 C   0  0  2  0  0  0  0  0  0  0  0  0
   28.0523  -33.5698   -6.2295 N   0  0  0  0  0  0  0  0  0  0  0  0
   28.7984  -34.4105   -4.0899 C   0  0  0  0  0  0  0  0  0  0  0  0
   29.2588  -35.3831   -3.4004 O   0  0  0  0  0  0  0  0  0  0  0  0
   27.9933  -33.5257   -3.3919 O   0  0  0  0  0  0  0  0  0  0  0  0
  2  3  2  0
  2  1  1  0
  4  3  1  0
  5  4  2  0
  6  5  1  0
  7  6  1  0
  7  8  1  6
  9 20  1  0
  9  7  1  0
 10  9  2  0
 11  5  1  0
 11 12  2  0
 12  2  1  0
 14 13  1  0
 14 15  2  0
 16 15  1  0
 17 16  2  0
 18 17  1  0
 19 18  1  1
 19 20  1  0
 21 19  1  0
 21 30  1  0
 22 21  2  0
 23 24  2  0
 23 17  1  0
 24 14  1  0
 25 26  1  0
 26 27  1  0
 27 28  1  0
 29 28  1  1
 29 30  1  0
 29 31  1  0
 31 32  2  0
 31 33  1  0
M  END
$$$$
