YYM.pdb
     RDKit          3D

 33 34  0  0  1  0  0  0  0  0999 V2000
   30.8683  -15.9021  -20.5654 O   0  0  0  0  0  0  0  0  0  0  0  0
   29.9341  -16.6251  -19.8151 C   0  0  0  0  0  0  0  0  0  0  0  0
   29.1601  -17.5815  -20.4150 C   0  0  0  0  0  0  0  0  0  0  0  0
   28.2192  -18.3232  -19.7047 C   0  0  0  0  0  0  0  0  0  0  0  0
   28.0643  -18.0871  -18.3633 C   0  0  0  0  0  0  0  0  0  0  0  0
   27.0858  -18.8353  -17.5394 C   0  0  0  0  0  0  0  0  0  0  0  0
   27.7563  -19.9703  -16.8065 C   0  0  2  0  0  0  0  0  0  0  0  0
   28.1182  -20.9664  -17.7937 N   0  0  0  0  0  0  0  0  0  0  0  0
   26.9769  -20.5467  -15.7162 C   0  0  0  0  0  0  0  0  0  0  0  0
   26.0295  -21.3634  -15.9909 O   0  0  0  0  0  0  0  0  0  0  0  0
   28.8487  -17.1233  -17.7741 C   0  0  0  0  0  0  0  0  0  0  0  0
   29.7793  -16.3893  -18.4750 C   0  0  0  0  0  0  0  0  0  0  0  0
   23.5793  -21.3912   -7.5598 O   0  0  0  0  0  0  0  0  0  0  0  0
   24.4152  -21.1241   -8.6353 C   0  0  0  0  0  0  0  0  0  0  0  0
   25.2718  -22.1300   -9.0963 C   0  0  0  0  0  0  0  0  0  0  0  0
   26.1089  -21.8798  -10.1646 C   0  0  0  0  0  0  0  0  0  0  0  0
   26.1240  -20.6501  -10.7977 C   0  0  0  0  0  0  0  0  0  0  0  0
   26.9932  -20.3526  -11.9291 C   0  0  0  0  0  0  0  0  0  0  0  0
   26.3986  -20.6547  -13.2835 C   0  0  2  0  0  0  0  0  0  0  0  0
   27.2518  -20.2200  -14.3569 N   0  0  0  0  0  0  0  0  0  0  0  0
   25.0180  -20.2001  -13.4624 C   0  0  0  0  0  0  0  0  0  0  0  0
   24.8140  -19.0282  -13.8651 O   0  0  0  0  0  0  0  0  0  0  0  0
   25.2716  -19.6818  -10.3226 C   0  0  0  0  0  0  0  0  0  0  0  0
   24.4191  -19.8924   -9.2567 C   0  0  0  0  0  0  0  0  0  0  0  0
   22.2702  -17.6459  -17.2822 C   0  0  0  0  0  0  0  0  0  0  0  0
   21.1546  -19.0054  -16.9333 S   0  0  0  0  0  0  0  0  0  0  0  0
   21.1063  -19.4628  -15.2096 C   0  0  0  0  0  0  0  0  0  0  0  0
   22.4002  -19.9734  -14.7077 C   0  0  0  0  0  0  0  0  0  0  0  0
   22.4972  -20.4609  -13.3086 C   0  0  2  0  0  0  0  0  0  0  0  0
   23.8819  -21.0081  -13.2097 N   0  0  0  0  0  0  0  0  0  0  0  0
   21.5325  -21.4362  -12.8374 C   0  0  0  0  0  0  0  0  0  0  0  0
   20.3062  -21.1080  -12.6903 O   0  0  0  0  0  0  0  0  0  0  0  0
   21.8296  -22.7520  -12.5230 O   0  0  0  0  0  0  0  0  0  0  0  0
  2  3  2  0
  2  1  1  0
  4  3  1  0
  5  4  2  0
  6  5  1  0
  7  6  1  0
  7  8  1  6
  9 20  1  0
  9  7  1  0
 10  9  2  0
 11  5  1  0
 11 12  2  0
 12  2  1  0
 14 13  1  0
 14 15  2  0
 16 15  1  0
 17 16  2  0
 18 17  1  0
 19 18  1  1
 19 20  1  0
 21 19  1  0
 21 30  1  0
 22 21  2  0
 23 24  2  0
 23 17  1  0
 24 14  1  0
 25 26  1  0
 26 27  1  0
 27 28  1  0
 29 28  1  6
 29 30  1  0
 29 31  1  0
 31 32  2  0
 31 33  1  0
M  END
$$$$
