FWR.pdb
     RDKit          3D

 37 39  0  0  1  0  0  0  0  0999 V2000
   26.5190  -19.8533  -18.2652 N   0  0  0  0  0  0  0  0  0  0  0  0
   26.5309  -18.9019  -17.1891 C   0  0  1  0  0  0  0  0  0  0  0  0
   25.3090  -18.0192  -17.1281 C   0  0  0  0  0  0  0  0  0  0  0  0
   25.2070  -17.1127  -18.2957 C   0  0  0  0  0  0  0  0  0  0  0  0
   25.7274  -15.8547  -18.2016 C   0  0  0  0  0  0  0  0  0  0  0  0
   25.6340  -14.9940  -19.2988 C   0  0  0  0  0  0  0  0  0  0  0  0
   25.0169  -15.4494  -20.4411 C   0  0  0  0  0  0  0  0  0  0  0  0
   24.5008  -16.7211  -20.5104 C   0  0  0  0  0  0  0  0  0  0  0  0
   24.5918  -17.5722  -19.4286 C   0  0  0  0  0  0  0  0  0  0  0  0
   26.6296  -19.6189  -15.8934 C   0  0  0  0  0  0  0  0  0  0  0  0
   25.9515  -20.6631  -15.7479 O   0  0  0  0  0  0  0  0  0  0  0  0
   27.4422  -19.1841  -14.8267 N   0  0  0  0  0  0  0  0  0  0  0  0
   27.5510  -19.9727  -13.6450 C   0  0  1  0  0  0  0  0  0  0  0  0
   28.6916  -19.6810  -12.7442 C   0  0  0  0  0  0  0  0  0  0  0  0
   28.8214  -20.5084  -11.5488 C   0  0  0  0  0  0  0  0  0  0  0  0
   29.3829  -21.7500  -11.4151 C   0  0  0  0  0  0  0  0  0  0  0  0
   29.2637  -22.1158  -10.1188 N   0  0  0  0  0  0  0  0  0  0  0  0
   28.6465  -21.1610   -9.4050 C   0  0  0  0  0  0  0  0  0  0  0  0
   28.2787  -21.0135   -8.0986 C   0  0  0  0  0  0  0  0  0  0  0  0
   27.6382  -19.8685   -7.6878 C   0  0  0  0  0  0  0  0  0  0  0  0
   27.3471  -18.8441   -8.5597 C   0  0  0  0  0  0  0  0  0  0  0  0
   27.7172  -18.9914   -9.8762 C   0  0  0  0  0  0  0  0  0  0  0  0
   28.3611  -20.1373  -10.2999 C   0  0  0  0  0  0  0  0  0  0  0  0
   26.3015  -19.6778  -12.8432 C   0  0  0  0  0  0  0  0  0  0  0  0
   25.8219  -18.5144  -12.8984 O   0  0  0  0  0  0  0  0  0  0  0  0
   18.7341  -22.4830  -12.7934 N   0  0  0  0  0  0  0  0  0  0  0  0
   19.8236  -23.3847  -12.7278 C   0  0  0  0  0  0  0  0  0  0  0  0
   19.6314  -24.6555  -12.7341 N   0  0  0  0  0  0  0  0  0  0  0  0
   21.1441  -22.8725  -12.6495 N   0  0  0  0  0  0  0  0  0  0  0  0
   21.3992  -21.4752  -12.9455 C   0  0  0  0  0  0  0  0  0  0  0  0
   22.8753  -21.1930  -12.9362 C   0  0  0  0  0  0  0  0  0  0  0  0
   23.2782  -20.0729  -12.0592 C   0  0  0  0  0  0  0  0  0  0  0  0
   24.4809  -20.3255  -11.2120 C   0  0  2  0  0  0  0  0  0  0  0  0
   25.6576  -20.6318  -12.0454 N   0  0  0  0  0  0  0  0  0  0  0  0
   24.3173  -21.4634  -10.2893 C   0  0  0  0  0  0  0  0  0  0  0  0
   24.9027  -22.5345  -10.5139 O   0  0  0  0  0  0  0  0  0  0  0  0
   23.5180  -21.3457   -9.1781 O   0  0  0  0  0  0  0  0  0  0  0  0
  2  1  1  6
  2  3  1  0
  3  4  1  0
  4  5  2  0
  5  6  1  0
  7  6  2  0
  8  7  1  0
  9  4  1  0
  9  8  2  0
 10 11  2  0
 10  2  1  0
 12 10  1  0
 13 12  1  0
 13 14  1  1
 15 16  2  0
 15 14  1  0
 17 16  1  0
 18 23  2  0
 18 17  1  0
 19 18  1  0
 20 19  2  0
 20 21  1  0
 21 22  2  0
 22 23  1  0
 23 15  1  0
 24 25  2  0
 24 13  1  0
 27 26  1  0
 27 28  2  0
 29 30  1  0
 29 27  1  0
 31 30  1  0
 32 31  1  0
 33 34  1  0
 33 32  1  6
 34 24  1  0
 35 33  1  0
 36 35  2  0
 37 35  1  0
M  END
$$$$
