FWR.pdb
     RDKit          3D

 37 39  0  0  1  0  0  0  0  0999 V2000
   27.1596  -21.3525  -14.3432 N   0  0  0  0  0  0  0  0  0  0  0  0
   27.1328  -20.1980  -13.4890 C   0  0  1  0  0  0  0  0  0  0  0  0
   26.1955  -19.1086  -13.9478 C   0  0  0  0  0  0  0  0  0  0  0  0
   26.7671  -18.2962  -15.0472 C   0  0  0  0  0  0  0  0  0  0  0  0
   26.5151  -18.6621  -16.3375 C   0  0  0  0  0  0  0  0  0  0  0  0
   27.0517  -17.9009  -17.3796 C   0  0  0  0  0  0  0  0  0  0  0  0
   27.8193  -16.8034  -17.0645 C   0  0  0  0  0  0  0  0  0  0  0  0
   28.0583  -16.4560  -15.7566 C   0  0  0  0  0  0  0  0  0  0  0  0
   27.5296  -17.2060  -14.7265 C   0  0  0  0  0  0  0  0  0  0  0  0
   26.7156  -20.6006  -12.1228 C   0  0  0  0  0  0  0  0  0  0  0  0
   25.8649  -21.5150  -12.0151 O   0  0  0  0  0  0  0  0  0  0  0  0
   27.2256  -20.0076  -10.9500 N   0  0  0  0  0  0  0  0  0  0  0  0
   26.8496  -20.5143   -9.6724 C   0  0  1  0  0  0  0  0  0  0  0  0
   27.6205  -20.0290   -8.5029 C   0  0  0  0  0  0  0  0  0  0  0  0
   27.1394  -20.4217   -7.1820 C   0  0  0  0  0  0  0  0  0  0  0  0
   26.0162  -21.1298   -6.8477 C   0  0  0  0  0  0  0  0  0  0  0  0
   25.9887  -21.2416   -5.5004 N   0  0  0  0  0  0  0  0  0  0  0  0
   27.0495  -20.6337   -4.9461 C   0  0  0  0  0  0  0  0  0  0  0  0
   27.5019  -20.4461   -3.6718 C   0  0  0  0  0  0  0  0  0  0  0  0
   28.6665  -19.7502   -3.4492 C   0  0  0  0  0  0  0  0  0  0  0  0
   29.4094  -19.2244   -4.4816 C   0  0  0  0  0  0  0  0  0  0  0  0
   28.9547  -19.4128   -5.7660 C   0  0  0  0  0  0  0  0  0  0  0  0
   27.7861  -20.1102   -6.0013 C   0  0  0  0  0  0  0  0  0  0  0  0
   25.4257  -20.0498   -9.4541 C   0  0  0  0  0  0  0  0  0  0  0  0
   25.1215  -18.8809   -9.8112 O   0  0  0  0  0  0  0  0  0  0  0  0
   20.0758  -22.1560  -14.3963 N   0  0  0  0  0  0  0  0  0  0  0  0
   19.0809  -21.5517  -13.5905 C   0  0  0  0  0  0  0  0  0  0  0  0
   17.8362  -21.6405  -13.8989 N   0  0  0  0  0  0  0  0  0  0  0  0
   19.4693  -20.8350  -12.4296 N   0  0  0  0  0  0  0  0  0  0  0  0
   20.8765  -20.6555  -12.1247 C   0  0  0  0  0  0  0  0  0  0  0  0
   21.2334  -21.3530  -10.8421 C   0  0  0  0  0  0  0  0  0  0  0  0
   22.6722  -21.3124  -10.5040 C   0  0  0  0  0  0  0  0  0  0  0  0
   23.0002  -20.7102   -9.1781 C   0  0  2  0  0  0  0  0  0  0  0  0
   24.4358  -20.8535   -8.8751 N   0  0  0  0  0  0  0  0  0  0  0  0
   22.2743  -21.3342   -8.0572 C   0  0  0  0  0  0  0  0  0  0  0  0
   22.8270  -22.2053   -7.3671 O   0  0  0  0  0  0  0  0  0  0  0  0
   20.9849  -20.9564   -7.7701 O   0  0  0  0  0  0  0  0  0  0  0  0
  2  1  1  6
  2  3  1  0
  3  4  1  0
  4  5  2  0
  5  6  1  0
  7  6  2  0
  8  7  1  0
  9  4  1  0
  9  8  2  0
 10 11  2  0
 10  2  1  0
 12 10  1  0
 13 12  1  0
 13 14  1  1
 15 16  2  0
 15 14  1  0
 17 16  1  0
 18 23  2  0
 18 17  1  0
 19 18  1  0
 20 19  2  0
 20 21  1  0
 21 22  2  0
 22 23  1  0
 23 15  1  0
 24 25  2  0
 24 13  1  0
 27 26  1  0
 27 28  2  0
 29 30  1  0
 29 27  1  0
 31 30  1  0
 32 31  1  0
 33 34  1  0
 33 32  1  6
 34 24  1  0
 35 33  1  0
 36 35  2  0
 37 35  1  0
M  END
$$$$
