FWR.pdb
     RDKit          3D

 37 39  0  0  1  0  0  0  0  0999 V2000
   25.1888  -21.2733  -13.9499 N   0  0  0  0  0  0  0  0  0  0  0  0
   24.6363  -20.3150  -13.0336 C   0  0  1  0  0  0  0  0  0  0  0  0
   23.1695  -20.0309  -13.2428 C   0  0  0  0  0  0  0  0  0  0  0  0
   22.9042  -19.3424  -14.5278 C   0  0  0  0  0  0  0  0  0  0  0  0
   23.2816  -18.0385  -14.6676 C   0  0  0  0  0  0  0  0  0  0  0  0
   23.0337  -17.3825  -15.8766 C   0  0  0  0  0  0  0  0  0  0  0  0
   22.4144  -18.0798  -16.8881 C   0  0  0  0  0  0  0  0  0  0  0  0
   22.0441  -19.3927  -16.7220 C   0  0  0  0  0  0  0  0  0  0  0  0
   22.2878  -20.0420  -15.5295 C   0  0  0  0  0  0  0  0  0  0  0  0
   24.8028  -20.8046  -11.6425 C   0  0  0  0  0  0  0  0  0  0  0  0
   24.3238  -21.9267  -11.3546 O   0  0  0  0  0  0  0  0  0  0  0  0
   25.4676  -20.0732  -10.6374 N   0  0  0  0  0  0  0  0  0  0  0  0
   25.5754  -20.6057   -9.3202 C   0  0  1  0  0  0  0  0  0  0  0  0
   26.4650  -19.8889   -8.3756 C   0  0  0  0  0  0  0  0  0  0  0  0
   26.6056  -20.4547   -7.0376 C   0  0  0  0  0  0  0  0  0  0  0  0
   26.0638  -21.6027   -6.5244 C   0  0  0  0  0  0  0  0  0  0  0  0
   26.4711  -21.7087   -5.2393 N   0  0  0  0  0  0  0  0  0  0  0  0
   27.2559  -20.6747   -4.8972 C   0  0  0  0  0  0  0  0  0  0  0  0
   27.9159  -20.2929   -3.7649 C   0  0  0  0  0  0  0  0  0  0  0  0
   28.6557  -19.1341   -3.7557 C   0  0  0  0  0  0  0  0  0  0  0  0
   28.7591  -18.3274   -4.8661 C   0  0  0  0  0  0  0  0  0  0  0  0
   28.0947  -18.7111   -6.0077 C   0  0  0  0  0  0  0  0  0  0  0  0
   27.3487  -19.8731   -6.0281 C   0  0  0  0  0  0  0  0  0  0  0  0
   24.1841  -20.5165   -8.7307 C   0  0  0  0  0  0  0  0  0  0  0  0
   23.5328  -19.4526   -8.9053 O   0  0  0  0  0  0  0  0  0  0  0  0
   17.0722  -25.2671   -6.4101 N   0  0  0  0  0  0  0  0  0  0  0  0
   17.6661  -25.2545   -7.6952 C   0  0  0  0  0  0  0  0  0  0  0  0
   17.1226  -25.8749   -8.6809 N   0  0  0  0  0  0  0  0  0  0  0  0
   18.8811  -24.5490   -7.8909 N   0  0  0  0  0  0  0  0  0  0  0  0
   19.5413  -23.9147   -6.7652 C   0  0  0  0  0  0  0  0  0  0  0  0
   20.0310  -22.5447   -7.1420 C   0  0  0  0  0  0  0  0  0  0  0  0
   21.3578  -22.5276   -7.7942 C   0  0  0  0  0  0  0  0  0  0  0  0
   22.2729  -21.4341   -7.3523 C   0  0  2  0  0  0  0  0  0  0  0  0
   23.5904  -21.5549   -8.0024 N   0  0  0  0  0  0  0  0  0  0  0  0
   22.5244  -21.4337   -5.8998 C   0  0  0  0  0  0  0  0  0  0  0  0
   23.5879  -21.8921   -5.4533 O   0  0  0  0  0  0  0  0  0  0  0  0
   21.5857  -20.9273   -5.0338 O   0  0  0  0  0  0  0  0  0  0  0  0
  2  1  1  6
  2  3  1  0
  3  4  1  0
  4  5  2  0
  5  6  1  0
  7  6  2  0
  8  7  1  0
  9  4  1  0
  9  8  2  0
 10 11  2  0
 10  2  1  0
 12 10  1  0
 13 12  1  0
 13 14  1  1
 15 16  2  0
 15 14  1  0
 17 16  1  0
 18 23  2  0
 18 17  1  0
 19 18  1  0
 20 19  2  0
 20 21  1  0
 21 22  2  0
 22 23  1  0
 23 15  1  0
 24 25  2  0
 24 13  1  0
 27 26  1  0
 27 28  2  0
 29 30  1  0
 29 27  1  0
 31 30  1  0
 32 31  1  0
 33 34  1  0
 33 32  1  1
 34 24  1  0
 35 33  1  0
 36 35  2  0
 37 35  1  0
M  END
$$$$
