FWR.pdb
     RDKit          3D

 37 39  0  0  1  0  0  0  0  0999 V2000
   28.0081  -21.8082  -15.3202 N   0  0  0  0  0  0  0  0  0  0  0  0
   27.4123  -20.6936  -14.6376 C   0  0  1  0  0  0  0  0  0  0  0  0
   26.6151  -19.7743  -15.5294 C   0  0  0  0  0  0  0  0  0  0  0  0
   27.4729  -19.0086  -16.4639 C   0  0  0  0  0  0  0  0  0  0  0  0
   27.3641  -19.2450  -17.8034 C   0  0  0  0  0  0  0  0  0  0  0  0
   28.1706  -18.5269  -18.6907 C   0  0  0  0  0  0  0  0  0  0  0  0
   29.0505  -17.6018  -18.1779 C   0  0  0  0  0  0  0  0  0  0  0  0
   29.1410  -17.3824  -16.8243 C   0  0  0  0  0  0  0  0  0  0  0  0
   28.3459  -18.0901  -15.9469 C   0  0  0  0  0  0  0  0  0  0  0  0
   26.4997  -21.1904  -13.5778 C   0  0  0  0  0  0  0  0  0  0  0  0
   25.9588  -22.3086  -13.7466 O   0  0  0  0  0  0  0  0  0  0  0  0
   26.2137  -20.4698  -12.4005 N   0  0  0  0  0  0  0  0  0  0  0  0
   25.3421  -21.0236  -11.4187 C   0  0  1  0  0  0  0  0  0  0  0  0
   25.5143  -20.5523  -10.0239 C   0  0  0  0  0  0  0  0  0  0  0  0
   26.8189  -20.7698   -9.4065 C   0  0  0  0  0  0  0  0  0  0  0  0
   27.9047  -21.4440   -9.8975 C   0  0  0  0  0  0  0  0  0  0  0  0
   28.8812  -21.3826   -8.9640 N   0  0  0  0  0  0  0  0  0  0  0  0
   28.4724  -20.6954   -7.8857 C   0  0  0  0  0  0  0  0  0  0  0  0
   29.0332  -20.3426   -6.6921 C   0  0  0  0  0  0  0  0  0  0  0  0
   28.3100  -19.6113   -5.7799 C   0  0  0  0  0  0  0  0  0  0  0  0
   27.0161  -19.2126   -6.0279 C   0  0  0  0  0  0  0  0  0  0  0  0
   26.4499  -19.5673   -7.2301 C   0  0  0  0  0  0  0  0  0  0  0  0
   27.1673  -20.3019   -8.1537 C   0  0  0  0  0  0  0  0  0  0  0  0
   23.9473  -20.6040  -11.8306 C   0  0  0  0  0  0  0  0  0  0  0  0
   23.7581  -19.3983  -12.1420 O   0  0  0  0  0  0  0  0  0  0  0  0
   19.6261  -27.1275  -11.3352 N   0  0  0  0  0  0  0  0  0  0  0  0
   19.0281  -26.2587  -12.2796 C   0  0  0  0  0  0  0  0  0  0  0  0
   18.2665  -26.7154  -13.2087 N   0  0  0  0  0  0  0  0  0  0  0  0
   19.2803  -24.8652  -12.1970 N   0  0  0  0  0  0  0  0  0  0  0  0
   20.0814  -24.3359  -11.1092 C   0  0  0  0  0  0  0  0  0  0  0  0
   20.0950  -22.8335  -11.1441 C   0  0  0  0  0  0  0  0  0  0  0  0
   20.6025  -22.2558  -12.4069 C   0  0  0  0  0  0  0  0  0  0  0  0
   21.4984  -21.0717  -12.2533 C   0  0  2  0  0  0  0  0  0  0  0  0
   22.8623  -21.4880  -11.8798 N   0  0  0  0  0  0  0  0  0  0  0  0
   21.0504  -20.1313  -11.2102 C   0  0  0  0  0  0  0  0  0  0  0  0
   21.7908  -19.8711  -10.2488 O   0  0  0  0  0  0  0  0  0  0  0  0
   19.8138  -19.5387  -11.2957 O   0  0  0  0  0  0  0  0  0  0  0  0
  2  1  1  6
  2  3  1  0
  3  4  1  0
  4  5  2  0
  5  6  1  0
  7  6  2  0
  8  7  1  0
  9  4  1  0
  9  8  2  0
 10 11  2  0
 10  2  1  0
 12 10  1  0
 13 12  1  0
 13 14  1  1
 15 16  2  0
 15 14  1  0
 17 16  1  0
 18 23  2  0
 18 17  1  0
 19 18  1  0
 20 19  2  0
 20 21  1  0
 21 22  2  0
 22 23  1  0
 23 15  1  0
 24 25  2  0
 24 13  1  0
 27 26  1  0
 27 28  2  0
 29 30  1  0
 29 27  1  0
 31 30  1  0
 32 31  1  0
 33 34  1  0
 33 32  1  1
 34 24  1  0
 35 33  1  0
 36 35  2  0
 37 35  1  0
M  END
$$$$
