FWR.pdb
     RDKit          3D

 37 39  0  0  1  0  0  0  0  0999 V2000
   29.1883  -21.2264  -14.9940 N   0  0  0  0  0  0  0  0  0  0  0  0
   28.3920  -20.2183  -14.3514 C   0  0  1  0  0  0  0  0  0  0  0  0
   27.5133  -19.4299  -15.2906 C   0  0  0  0  0  0  0  0  0  0  0  0
   28.2888  -18.4989  -16.1434 C   0  0  0  0  0  0  0  0  0  0  0  0
   28.3703  -17.1856  -15.7816 C   0  0  0  0  0  0  0  0  0  0  0  0
   29.0994  -16.3016  -16.5818 C   0  0  0  0  0  0  0  0  0  0  0  0
   29.7124  -16.7908  -17.7122 C   0  0  0  0  0  0  0  0  0  0  0  0
   29.6151  -18.1180  -18.0547 C   0  0  0  0  0  0  0  0  0  0  0  0
   28.8958  -18.9923  -17.2663 C   0  0  0  0  0  0  0  0  0  0  0  0
   27.5099  -20.8521  -13.3400 C   0  0  0  0  0  0  0  0  0  0  0  0
   27.1345  -22.0303  -13.5453 O   0  0  0  0  0  0  0  0  0  0  0  0
   27.0766  -20.1968  -12.1696 N   0  0  0  0  0  0  0  0  0  0  0  0
   26.2804  -20.8931  -11.2148 C   0  0  1  0  0  0  0  0  0  0  0  0
   26.3179  -20.3976   -9.8182 C   0  0  0  0  0  0  0  0  0  0  0  0
   27.5259  -20.6759   -9.0478 C   0  0  0  0  0  0  0  0  0  0  0  0
   28.6572  -21.3469   -9.4284 C   0  0  0  0  0  0  0  0  0  0  0  0
   29.5022  -21.3564   -8.3728 N   0  0  0  0  0  0  0  0  0  0  0  0
   28.9644  -20.7184   -7.3211 C   0  0  0  0  0  0  0  0  0  0  0  0
   29.3675  -20.4416   -6.0465 C   0  0  0  0  0  0  0  0  0  0  0  0
   28.5406  -19.7439   -5.1983 C   0  0  0  0  0  0  0  0  0  0  0  0
   27.2971  -19.3044   -5.5916 C   0  0  0  0  0  0  0  0  0  0  0  0
   26.8898  -19.5825   -6.8756 C   0  0  0  0  0  0  0  0  0  0  0  0
   27.7122  -20.2828   -7.7362 C   0  0  0  0  0  0  0  0  0  0  0  0
   24.8495  -20.7239  -11.6782 C   0  0  0  0  0  0  0  0  0  0  0  0
   24.4464  -19.5613  -11.9470 O   0  0  0  0  0  0  0  0  0  0  0  0
   19.4643  -26.7305  -15.5148 N   0  0  0  0  0  0  0  0  0  0  0  0
   18.6904  -25.5461  -15.4652 C   0  0  0  0  0  0  0  0  0  0  0  0
   17.4972  -25.5154  -15.9421 N   0  0  0  0  0  0  0  0  0  0  0  0
   19.2466  -24.3779  -14.8836 N   0  0  0  0  0  0  0  0  0  0  0  0
   20.5443  -24.4365  -14.2372 C   0  0  0  0  0  0  0  0  0  0  0  0
   20.9560  -23.0749  -13.7520 C   0  0  0  0  0  0  0  0  0  0  0  0
   22.2756  -23.0363  -13.0863 C   0  0  0  0  0  0  0  0  0  0  0  0
   22.6959  -21.6971  -12.5783 C   0  0  2  0  0  0  0  0  0  0  0  0
   23.9564  -21.7932  -11.8198 N   0  0  0  0  0  0  0  0  0  0  0  0
   21.7109  -21.0806  -11.6713 C   0  0  0  0  0  0  0  0  0  0  0  0
   20.7656  -20.4234  -12.1348 O   0  0  0  0  0  0  0  0  0  0  0  0
   21.8329  -21.2292  -10.3109 O   0  0  0  0  0  0  0  0  0  0  0  0
  2  1  1  6
  2  3  1  0
  3  4  1  0
  4  5  2  0
  5  6  1  0
  7  6  2  0
  8  7  1  0
  9  4  1  0
  9  8  2  0
 10 11  2  0
 10  2  1  0
 12 10  1  0
 13 12  1  0
 13 14  1  1
 15 16  2  0
 15 14  1  0
 17 16  1  0
 18 23  2  0
 18 17  1  0
 19 18  1  0
 20 19  2  0
 20 21  1  0
 21 22  2  0
 22 23  1  0
 23 15  1  0
 24 25  2  0
 24 13  1  0
 27 26  1  0
 27 28  2  0
 29 30  1  0
 29 27  1  0
 31 30  1  0
 32 31  1  0
 33 34  1  0
 33 32  1  1
 34 24  1  0
 35 33  1  0
 36 35  2  0
 37 35  1  0
M  END
$$$$
