FWR.pdb
     RDKit          3D

 37 39  0  0  1  0  0  0  0  0999 V2000
   26.8757  -21.6876  -14.9148 N   0  0  0  0  0  0  0  0  0  0  0  0
   27.1408  -20.5812  -14.0379 C   0  0  1  0  0  0  0  0  0  0  0  0
   26.4596  -19.2959  -14.4377 C   0  0  0  0  0  0  0  0  0  0  0  0
   27.0770  -18.6766  -15.6338 C   0  0  0  0  0  0  0  0  0  0  0  0
   28.2618  -18.0136  -15.4961 C   0  0  0  0  0  0  0  0  0  0  0  0
   28.8495  -17.4264  -16.6200 C   0  0  0  0  0  0  0  0  0  0  0  0
   28.2080  -17.5388  -17.8319 C   0  0  0  0  0  0  0  0  0  0  0  0
   27.0152  -18.2119  -17.9441 C   0  0  0  0  0  0  0  0  0  0  0  0
   26.4334  -18.7922  -16.8360 C   0  0  0  0  0  0  0  0  0  0  0  0
   26.6907  -20.9172  -12.6642 C   0  0  0  0  0  0  0  0  0  0  0  0
   25.6665  -21.6292  -12.5405 O   0  0  0  0  0  0  0  0  0  0  0  0
   27.3543  -20.4761  -11.5013 N   0  0  0  0  0  0  0  0  0  0  0  0
   26.8586  -20.8391  -10.2157 C   0  0  1  0  0  0  0  0  0  0  0  0
   27.6486  -20.3985   -9.0412 C   0  0  0  0  0  0  0  0  0  0  0  0
   27.1060  -20.7093   -7.7224 C   0  0  0  0  0  0  0  0  0  0  0  0
   25.9476  -21.3631   -7.3976 C   0  0  0  0  0  0  0  0  0  0  0  0
   25.8667  -21.4070   -6.0485 N   0  0  0  0  0  0  0  0  0  0  0  0
   26.9267  -20.8071   -5.4839 C   0  0  0  0  0  0  0  0  0  0  0  0
   27.3381  -20.5714   -4.2037 C   0  0  0  0  0  0  0  0  0  0  0  0
   28.5169  -19.9035   -3.9704 C   0  0  0  0  0  0  0  0  0  0  0  0
   29.3149  -19.4541   -4.9978 C   0  0  0  0  0  0  0  0  0  0  0  0
   28.9016  -19.6910   -6.2881 C   0  0  0  0  0  0  0  0  0  0  0  0
   27.7192  -20.3608   -6.5341 C   0  0  0  0  0  0  0  0  0  0  0  0
   25.5129  -20.1575  -10.0916 C   0  0  0  0  0  0  0  0  0  0  0  0
   25.4917  -18.9038   -9.9720 O   0  0  0  0  0  0  0  0  0  0  0  0
   21.9264  -17.7615  -15.8485 N   0  0  0  0  0  0  0  0  0  0  0  0
   20.6605  -18.1630  -15.3579 C   0  0  0  0  0  0  0  0  0  0  0  0
   19.6045  -18.0492  -16.0816 N   0  0  0  0  0  0  0  0  0  0  0  0
   20.5615  -18.6938  -14.0461 N   0  0  0  0  0  0  0  0  0  0  0  0
   21.7619  -18.9268  -13.2651 C   0  0  0  0  0  0  0  0  0  0  0  0
   21.9986  -20.4000  -13.0850 C   0  0  0  0  0  0  0  0  0  0  0  0
   23.1926  -20.7334  -12.2792 C   0  0  0  0  0  0  0  0  0  0  0  0
   23.1051  -20.3810  -10.8313 C   0  0  2  0  0  0  0  0  0  0  0  0
   24.2965  -20.8513  -10.1016 N   0  0  0  0  0  0  0  0  0  0  0  0
   21.9400  -20.9783  -10.1539 C   0  0  0  0  0  0  0  0  0  0  0  0
   20.7936  -20.5965  -10.4370 O   0  0  0  0  0  0  0  0  0  0  0  0
   22.1156  -21.9587   -9.2075 O   0  0  0  0  0  0  0  0  0  0  0  0
  2  1  1  6
  2  3  1  0
  3  4  1  0
  4  5  2  0
  5  6  1  0
  7  6  2  0
  8  7  1  0
  9  4  1  0
  9  8  2  0
 10 11  2  0
 10  2  1  0
 12 10  1  0
 13 12  1  0
 13 14  1  1
 15 16  2  0
 15 14  1  0
 17 16  1  0
 18 23  2  0
 18 17  1  0
 19 18  1  0
 20 19  2  0
 20 21  1  0
 21 22  2  0
 22 23  1  0
 23 15  1  0
 24 25  2  0
 24 13  1  0
 27 26  1  0
 27 28  2  0
 29 30  1  0
 29 27  1  0
 31 30  1  0
 32 31  1  0
 33 34  1  0
 33 32  1  6
 34 24  1  0
 35 33  1  0
 36 35  2  0
 37 35  1  0
M  END
$$$$
