FWR.pdb
     RDKit          3D

 37 39  0  0  1  0  0  0  0  0999 V2000
   27.4832  -21.3889  -15.0375 N   0  0  0  0  0  0  0  0  0  0  0  0
   27.7726  -20.4296  -14.0083 C   0  0  1  0  0  0  0  0  0  0  0  0
   27.2237  -19.0498  -14.2745 C   0  0  0  0  0  0  0  0  0  0  0  0
   27.7662  -18.4554  -15.5186 C   0  0  0  0  0  0  0  0  0  0  0  0
   26.9070  -18.1552  -16.5354 C   0  0  0  0  0  0  0  0  0  0  0  0
   27.4118  -17.5950  -17.7121 C   0  0  0  0  0  0  0  0  0  0  0  0
   28.7653  -17.3650  -17.8029 C   0  0  0  0  0  0  0  0  0  0  0  0
   29.6096  -17.6764  -16.7644 C   0  0  0  0  0  0  0  0  0  0  0  0
   29.1133  -18.2294  -15.6020 C   0  0  0  0  0  0  0  0  0  0  0  0
   27.2029  -20.8965  -12.7198 C   0  0  0  0  0  0  0  0  0  0  0  0
   26.1608  -21.5921  -12.7573 O   0  0  0  0  0  0  0  0  0  0  0  0
   27.7729  -20.5961  -11.4660 N   0  0  0  0  0  0  0  0  0  0  0  0
   27.1453  -21.0493  -10.2697 C   0  0  1  0  0  0  0  0  0  0  0  0
   27.8660  -20.8045   -8.9977 C   0  0  0  0  0  0  0  0  0  0  0  0
   27.0699  -20.8007   -7.7743 C   0  0  0  0  0  0  0  0  0  0  0  0
   25.7636  -21.1688   -7.5933 C   0  0  0  0  0  0  0  0  0  0  0  0
   25.4644  -20.9874   -6.2871 N   0  0  0  0  0  0  0  0  0  0  0  0
   26.5247  -20.5154   -5.6124 C   0  0  0  0  0  0  0  0  0  0  0  0
   26.7702  -20.1651   -4.3160 C   0  0  0  0  0  0  0  0  0  0  0  0
   28.0115  -19.7007   -3.9507 C   0  0  0  0  0  0  0  0  0  0  0  0
   29.0375  -19.5724   -4.8591 C   0  0  0  0  0  0  0  0  0  0  0  0
   28.7915  -19.9251   -6.1656 C   0  0  0  0  0  0  0  0  0  0  0  0
   27.5483  -20.3928   -6.5437 C   0  0  0  0  0  0  0  0  0  0  0  0
   25.8503  -20.2719  -10.1707 C   0  0  0  0  0  0  0  0  0  0  0  0
   25.9102  -19.0140  -10.1929 O   0  0  0  0  0  0  0  0  0  0  0  0
   23.6960  -17.8275  -16.2187 N   0  0  0  0  0  0  0  0  0  0  0  0
   22.3996  -18.3953  -16.2518 C   0  0  0  0  0  0  0  0  0  0  0  0
   21.7368  -18.4666  -17.3508 N   0  0  0  0  0  0  0  0  0  0  0  0
   21.8268  -18.8869  -15.0508 N   0  0  0  0  0  0  0  0  0  0  0  0
   22.6088  -18.9066  -13.8288 C   0  0  0  0  0  0  0  0  0  0  0  0
   22.5048  -20.2461  -13.1553 C   0  0  0  0  0  0  0  0  0  0  0  0
   23.6549  -20.5868  -12.2909 C   0  0  0  0  0  0  0  0  0  0  0  0
   23.4140  -20.4516  -10.8240 C   0  0  2  0  0  0  0  0  0  0  0  0
   24.5952  -20.8820  -10.0542 N   0  0  0  0  0  0  0  0  0  0  0  0
   22.2835  -21.2644  -10.3400 C   0  0  0  0  0  0  0  0  0  0  0  0
   22.2757  -22.4914  -10.5266 O   0  0  0  0  0  0  0  0  0  0  0  0
   21.2343  -20.6704   -9.6812 O   0  0  0  0  0  0  0  0  0  0  0  0
  2  1  1  6
  2  3  1  0
  3  4  1  0
  4  5  2  0
  5  6  1  0
  7  6  2  0
  8  7  1  0
  9  4  1  0
  9  8  2  0
 10 11  2  0
 10  2  1  0
 12 10  1  0
 13 12  1  0
 13 14  1  1
 15 16  2  0
 15 14  1  0
 17 16  1  0
 18 23  2  0
 18 17  1  0
 19 18  1  0
 20 19  2  0
 20 21  1  0
 21 22  2  0
 22 23  1  0
 23 15  1  0
 24 25  2  0
 24 13  1  0
 27 26  1  0
 27 28  2  0
 29 30  1  0
 29 27  1  0
 31 30  1  0
 32 31  1  0
 33 34  1  0
 33 32  1  6
 34 24  1  0
 35 33  1  0
 36 35  2  0
 37 35  1  0
M  END
$$$$
