FWR.pdb
     RDKit          3D

 37 39  0  0  1  0  0  0  0  0999 V2000
   28.0122  -21.0553  -14.7494 N   0  0  0  0  0  0  0  0  0  0  0  0
   27.6279  -19.9962  -13.8584 C   0  0  1  0  0  0  0  0  0  0  0  0
   26.4854  -19.1479  -14.3596 C   0  0  0  0  0  0  0  0  0  0  0  0
   26.9139  -18.1733  -15.3901 C   0  0  0  0  0  0  0  0  0  0  0  0
   27.4075  -16.9654  -14.9909 C   0  0  0  0  0  0  0  0  0  0  0  0
   27.8128  -16.0409  -15.9576 C   0  0  0  0  0  0  0  0  0  0  0  0
   27.6988  -16.3848  -17.2849 C   0  0  0  0  0  0  0  0  0  0  0  0
   27.1984  -17.6081  -17.6609 C   0  0  0  0  0  0  0  0  0  0  0  0
   26.7977  -18.5220  -16.7084 C   0  0  0  0  0  0  0  0  0  0  0  0
   27.2192  -20.5698  -12.5521 C   0  0  0  0  0  0  0  0  0  0  0  0
   26.5181  -21.6089  -12.5615 O   0  0  0  0  0  0  0  0  0  0  0  0
   27.5782  -20.0055  -11.3112 N   0  0  0  0  0  0  0  0  0  0  0  0
   27.1002  -20.5830  -10.0995 C   0  0  1  0  0  0  0  0  0  0  0  0
   27.7570  -20.1502   -8.8430 C   0  0  0  0  0  0  0  0  0  0  0  0
   27.0898  -20.4970   -7.5920 C   0  0  0  0  0  0  0  0  0  0  0  0
   25.9310  -21.1999   -7.3977 C   0  0  0  0  0  0  0  0  0  0  0  0
   25.7083  -21.2619   -6.0654 N   0  0  0  0  0  0  0  0  0  0  0  0
   26.6766  -20.6268   -5.3864 C   0  0  0  0  0  0  0  0  0  0  0  0
   26.9390  -20.3892   -4.0679 C   0  0  0  0  0  0  0  0  0  0  0  0
   28.0580  -19.6777   -3.7051 C   0  0  0  0  0  0  0  0  0  0  0  0
   28.9422  -19.1854   -4.6379 C   0  0  0  0  0  0  0  0  0  0  0  0
   28.6790  -19.4242   -5.9667 C   0  0  0  0  0  0  0  0  0  0  0  0
   27.5579  -20.1377   -6.3425 C   0  0  0  0  0  0  0  0  0  0  0  0
   25.6549  -20.1484   -9.9846 C   0  0  0  0  0  0  0  0  0  0  0  0
   25.4060  -18.9138   -9.9693 O   0  0  0  0  0  0  0  0  0  0  0  0
   22.5512  -22.6770  -16.8321 N   0  0  0  0  0  0  0  0  0  0  0  0
   21.3034  -22.6085  -16.1667 C   0  0  0  0  0  0  0  0  0  0  0  0
   20.2034  -22.5485  -16.8288 N   0  0  0  0  0  0  0  0  0  0  0  0
   21.2730  -22.6019  -14.7485 N   0  0  0  0  0  0  0  0  0  0  0  0
   22.5103  -22.5074  -13.9966 C   0  0  0  0  0  0  0  0  0  0  0  0
   22.2291  -22.4251  -12.5226 C   0  0  0  0  0  0  0  0  0  0  0  0
   23.4313  -22.2530  -11.6794 C   0  0  0  0  0  0  0  0  0  0  0  0
   23.4374  -21.0352  -10.8162 C   0  0  2  0  0  0  0  0  0  0  0  0
   24.5867  -21.0494   -9.8932 N   0  0  0  0  0  0  0  0  0  0  0  0
   22.2320  -20.9073   -9.9774 C   0  0  0  0  0  0  0  0  0  0  0  0
   21.2748  -20.2195  -10.3660 O   0  0  0  0  0  0  0  0  0  0  0  0
   22.1609  -21.5471   -8.7636 O   0  0  0  0  0  0  0  0  0  0  0  0
  2  1  1  6
  2  3  1  0
  3  4  1  0
  4  5  2  0
  5  6  1  0
  7  6  2  0
  8  7  1  0
  9  4  1  0
  9  8  2  0
 10 11  2  0
 10  2  1  0
 12 10  1  0
 13 12  1  0
 13 14  1  1
 15 16  2  0
 15 14  1  0
 17 16  1  0
 18 23  2  0
 18 17  1  0
 19 18  1  0
 20 19  2  0
 20 21  1  0
 21 22  2  0
 22 23  1  0
 23 15  1  0
 24 25  2  0
 24 13  1  0
 27 26  1  0
 27 28  2  0
 29 30  1  0
 29 27  1  0
 31 30  1  0
 32 31  1  0
 33 34  1  0
 33 32  1  1
 34 24  1  0
 35 33  1  0
 36 35  2  0
 37 35  1  0
M  END
$$$$
