FWR.pdb
     RDKit          3D

 37 39  0  0  1  0  0  0  0  0999 V2000
   26.6891  -22.0462  -11.0277 N   0  0  0  0  0  0  0  0  0  0  0  0
   25.9685  -20.8560  -10.6709 C   0  0  1  0  0  0  0  0  0  0  0  0
   26.8379  -19.7348  -10.1581 C   0  0  0  0  0  0  0  0  0  0  0  0
   27.7969  -20.1901   -9.1243 C   0  0  0  0  0  0  0  0  0  0  0  0
   27.4562  -20.0673   -7.8086 C   0  0  0  0  0  0  0  0  0  0  0  0
   28.3562  -20.4939   -6.8282 C   0  0  0  0  0  0  0  0  0  0  0  0
   29.5606  -21.0256   -7.2278 C   0  0  0  0  0  0  0  0  0  0  0  0
   29.8799  -21.1384   -8.5596 C   0  0  0  0  0  0  0  0  0  0  0  0
   28.9930  -20.7179   -9.5290 C   0  0  0  0  0  0  0  0  0  0  0  0
   25.2341  -20.3460  -11.8555 C   0  0  0  0  0  0  0  0  0  0  0  0
   24.5211  -19.3255  -11.7088 O   0  0  0  0  0  0  0  0  0  0  0  0
   25.2989  -20.9506  -13.1273 N   0  0  0  0  0  0  0  0  0  0  0  0
   24.5519  -20.4099  -14.2135 C   0  0  1  0  0  0  0  0  0  0  0  0
   25.0755  -20.6558  -15.5784 C   0  0  0  0  0  0  0  0  0  0  0  0
   24.3918  -19.9880  -16.6815 C   0  0  0  0  0  0  0  0  0  0  0  0
   24.4747  -18.6821  -17.0846 C   0  0  0  0  0  0  0  0  0  0  0  0
   23.6537  -18.5290  -18.1481 N   0  0  0  0  0  0  0  0  0  0  0  0
   23.0403  -19.6838  -18.4517 C   0  0  0  0  0  0  0  0  0  0  0  0
   22.1397  -20.0829  -19.3968 C   0  0  0  0  0  0  0  0  0  0  0  0
   21.7025  -21.3860  -19.4257 C   0  0  0  0  0  0  0  0  0  0  0  0
   22.1462  -22.3232  -18.5206 C   0  0  0  0  0  0  0  0  0  0  0  0
   23.0537  -21.9224  -17.5679 C   0  0  0  0  0  0  0  0  0  0  0  0
   23.4996  -20.6159  -17.5296 C   0  0  0  0  0  0  0  0  0  0  0  0
   23.2014  -21.0910  -14.1569 C   0  0  0  0  0  0  0  0  0  0  0  0
   23.1666  -22.3165  -13.8681 O   0  0  0  0  0  0  0  0  0  0  0  0
   20.2910  -22.7054   -8.4668 N   0  0  0  0  0  0  0  0  0  0  0  0
   19.2428  -23.3468   -9.1698 C   0  0  0  0  0  0  0  0  0  0  0  0
   18.2671  -23.8998   -8.5419 N   0  0  0  0  0  0  0  0  0  0  0  0
   19.2774  -23.3806  -10.5875 N   0  0  0  0  0  0  0  0  0  0  0  0
   20.2613  -22.5947  -11.3083 C   0  0  0  0  0  0  0  0  0  0  0  0
   19.7741  -21.1864  -11.5035 C   0  0  0  0  0  0  0  0  0  0  0  0
   20.6253  -20.3620  -12.3876 C   0  0  0  0  0  0  0  0  0  0  0  0
   20.7115  -20.8243  -13.8043 C   0  0  2  0  0  0  0  0  0  0  0  0
   21.9949  -20.4269  -14.4110 N   0  0  0  0  0  0  0  0  0  0  0  0
   19.6538  -20.2668  -14.6664 C   0  0  0  0  0  0  0  0  0  0  0  0
   18.9357  -21.0245  -15.3377 O   0  0  0  0  0  0  0  0  0  0  0  0
   19.4568  -18.9086  -14.7320 O   0  0  0  0  0  0  0  0  0  0  0  0
  2  1  1  6
  2  3  1  0
  3  4  1  0
  4  5  2  0
  5  6  1  0
  7  6  2  0
  8  7  1  0
  9  4  1  0
  9  8  2  0
 10 11  2  0
 10  2  1  0
 12 10  1  0
 13 12  1  0
 13 14  1  6
 15 16  2  0
 15 14  1  0
 17 16  1  0
 18 23  2  0
 18 17  1  0
 19 18  1  0
 20 19  2  0
 20 21  1  0
 21 22  2  0
 22 23  1  0
 23 15  1  0
 24 25  2  0
 24 13  1  0
 27 26  1  0
 27 28  2  0
 29 30  1  0
 29 27  1  0
 31 30  1  0
 32 31  1  0
 33 34  1  0
 33 32  1  1
 34 24  1  0
 35 33  1  0
 36 35  2  0
 37 35  1  0
M  END
$$$$
