FWR.pdb
     RDKit          3D

 37 39  0  0  1  0  0  0  0  0999 V2000
   21.4238  -31.7512  -10.6205 N   0  0  0  0  0  0  0  0  0  0  0  0
   21.2940  -30.3674  -10.9831 C   0  0  1  0  0  0  0  0  0  0  0  0
   20.5013  -30.1285  -12.2443 C   0  0  0  0  0  0  0  0  0  0  0  0
   21.1870  -30.6483  -13.4506 C   0  0  0  0  0  0  0  0  0  0  0  0
   22.2532  -29.9595  -13.9515 C   0  0  0  0  0  0  0  0  0  0  0  0
   22.9043  -30.4436  -15.0895 C   0  0  0  0  0  0  0  0  0  0  0  0
   22.4436  -31.6043  -15.6669 C   0  0  0  0  0  0  0  0  0  0  0  0
   21.3674  -32.2794  -15.1429 C   0  0  0  0  0  0  0  0  0  0  0  0
   20.7233  -31.8033  -14.0197 C   0  0  0  0  0  0  0  0  0  0  0  0
   20.6222  -29.6273   -9.8860 C   0  0  0  0  0  0  0  0  0  0  0  0
   19.7697  -30.2403   -9.2013 O   0  0  0  0  0  0  0  0  0  0  0  0
   20.8943  -28.2783   -9.5806 N   0  0  0  0  0  0  0  0  0  0  0  0
   20.3496  -27.2395  -10.3896 C   0  0  1  0  0  0  0  0  0  0  0  0
   20.1747  -27.5321  -11.8323 C   0  0  0  0  0  0  0  0  0  0  0  0
   20.2559  -26.4024  -12.7529 C   0  0  0  0  0  0  0  0  0  0  0  0
   21.1836  -26.1477  -13.7272 C   0  0  0  0  0  0  0  0  0  0  0  0
   20.8474  -24.9781  -14.3167 N   0  0  0  0  0  0  0  0  0  0  0  0
   19.7382  -24.4625  -13.7636 C   0  0  0  0  0  0  0  0  0  0  0  0
   18.9871  -23.3405  -13.9648 C   0  0  0  0  0  0  0  0  0  0  0  0
   17.8729  -23.1093  -13.1934 C   0  0  0  0  0  0  0  0  0  0  0  0
   17.4768  -23.9825  -12.2060 C   0  0  0  0  0  0  0  0  0  0  0  0
   18.2326  -25.1135  -12.0024 C   0  0  0  0  0  0  0  0  0  0  0  0
   19.3538  -25.3557  -12.7714 C   0  0  0  0  0  0  0  0  0  0  0  0
   18.9603  -26.9863   -9.8449 C   0  0  0  0  0  0  0  0  0  0  0  0
   17.9949  -27.5982  -10.3741 O   0  0  0  0  0  0  0  0  0  0  0  0
   17.3238  -28.1249   -3.7460 N   0  0  0  0  0  0  0  0  0  0  0  0
   18.0047  -26.9757   -3.2768 C   0  0  0  0  0  0  0  0  0  0  0  0
   18.3364  -26.8626   -2.0402 N   0  0  0  0  0  0  0  0  0  0  0  0
   18.3189  -25.9352   -4.1882 N   0  0  0  0  0  0  0  0  0  0  0  0
   17.4879  -25.7196   -5.3579 C   0  0  0  0  0  0  0  0  0  0  0  0
   18.0813  -24.6577   -6.2405 C   0  0  0  0  0  0  0  0  0  0  0  0
   17.3829  -24.4744   -7.5307 C   0  0  0  0  0  0  0  0  0  0  0  0
   17.3388  -25.6796   -8.4103 C   0  0  2  0  0  0  0  0  0  0  0  0
   18.6984  -26.1070   -8.7869 N   0  0  0  0  0  0  0  0  0  0  0  0
   16.6088  -25.4564   -9.6713 C   0  0  0  0  0  0  0  0  0  0  0  0
   17.1326  -24.7989  -10.5844 O   0  0  0  0  0  0  0  0  0  0  0  0
   15.3475  -25.9734   -9.8432 O   0  0  0  0  0  0  0  0  0  0  0  0
  2  1  1  1
  2  3  1  0
  3  4  1  0
  4  5  2  0
  5  6  1  0
  7  6  2  0
  8  7  1  0
  9  4  1  0
  9  8  2  0
 10 11  2  0
 10  2  1  0
 12 10  1  0
 13 12  1  0
 13 14  1  6
 15 16  2  0
 15 14  1  0
 17 16  1  0
 18 23  2  0
 18 17  1  0
 19 18  1  0
 20 19  2  0
 20 21  1  0
 21 22  2  0
 22 23  1  0
 23 15  1  0
 24 25  2  0
 24 13  1  0
 27 26  1  0
 27 28  2  0
 29 30  1  0
 29 27  1  0
 31 30  1  0
 32 31  1  0
 33 34  1  0
 33 32  1  6
 34 24  1  0
 35 33  1  0
 36 35  2  0
 37 35  1  0
M  END
$$$$
