FWR.pdb
     RDKit          3D

 37 39  0  0  1  0  0  0  0  0999 V2000
   26.8533  -17.0607  -18.6558 N   0  0  0  0  0  0  0  0  0  0  0  0
   26.2154  -16.6726  -17.4286 C   0  0  1  0  0  0  0  0  0  0  0  0
   24.8111  -16.1482  -17.5985 C   0  0  0  0  0  0  0  0  0  0  0  0
   24.7801  -14.8085  -18.2309 C   0  0  0  0  0  0  0  0  0  0  0  0
   24.5335  -14.7167  -19.5698 C   0  0  0  0  0  0  0  0  0  0  0  0
   24.5035  -13.4563  -20.1731 C   0  0  0  0  0  0  0  0  0  0  0  0
   24.7251  -12.3470  -19.3899 C   0  0  0  0  0  0  0  0  0  0  0  0
   24.9714  -12.4665  -18.0432 C   0  0  0  0  0  0  0  0  0  0  0  0
   25.0015  -13.7096  -17.4458 C   0  0  0  0  0  0  0  0  0  0  0  0
   26.1494  -17.8386  -16.5128 C   0  0  0  0  0  0  0  0  0  0  0  0
   25.9965  -18.9747  -17.0201 O   0  0  0  0  0  0  0  0  0  0  0  0
   26.2484  -17.7299  -15.1109 N   0  0  0  0  0  0  0  0  0  0  0  0
   26.2743  -18.9041  -14.3040 C   0  0  1  0  0  0  0  0  0  0  0  0
   26.8943  -18.7850  -12.9628 C   0  0  0  0  0  0  0  0  0  0  0  0
   26.9037  -19.9820  -12.1276 C   0  0  0  0  0  0  0  0  0  0  0  0
   27.1911  -21.2749  -12.4751 C   0  0  0  0  0  0  0  0  0  0  0  0
   27.0620  -22.0356  -11.3646 N   0  0  0  0  0  0  0  0  0  0  0  0
   26.7017  -21.2880  -10.3094 C   0  0  0  0  0  0  0  0  0  0  0  0
   26.4411  -21.5337   -8.9921 C   0  0  0  0  0  0  0  0  0  0  0  0
   26.0835  -20.5026   -8.1561 C   0  0  0  0  0  0  0  0  0  0  0  0
   25.9758  -19.2057   -8.6042 C   0  0  0  0  0  0  0  0  0  0  0  0
   26.2381  -18.9568   -9.9312 C   0  0  0  0  0  0  0  0  0  0  0  0
   26.5980  -19.9850  -10.7800 C   0  0  0  0  0  0  0  0  0  0  0  0
   24.8239  -19.2628  -14.0617 C   0  0  0  0  0  0  0  0  0  0  0  0
   24.0252  -18.3356  -13.7636 O   0  0  0  0  0  0  0  0  0  0  0  0
   22.2922  -27.0226  -14.1024 N   0  0  0  0  0  0  0  0  0  0  0  0
   21.4834  -26.0041  -14.6616 C   0  0  0  0  0  0  0  0  0  0  0  0
   20.2100  -26.1496  -14.7588 N   0  0  0  0  0  0  0  0  0  0  0  0
   22.0930  -24.8096  -15.1239 N   0  0  0  0  0  0  0  0  0  0  0  0
   23.5096  -24.5856  -14.9035 C   0  0  0  0  0  0  0  0  0  0  0  0
   23.7865  -23.1249  -14.6832 C   0  0  0  0  0  0  0  0  0  0  0  0
   22.7460  -22.4154  -13.9087 C   0  0  0  0  0  0  0  0  0  0  0  0
   22.9703  -20.9505  -13.7296 C   0  0  2  0  0  0  0  0  0  0  0  0
   24.3308  -20.5705  -14.1510 N   0  0  0  0  0  0  0  0  0  0  0  0
   22.8279  -20.5041  -12.3320 C   0  0  0  0  0  0  0  0  0  0  0  0
   23.8203  -20.4670  -11.5875 O   0  0  0  0  0  0  0  0  0  0  0  0
   21.5992  -20.1273  -11.8461 O   0  0  0  0  0  0  0  0  0  0  0  0
  2  1  1  6
  2  3  1  0
  3  4  1  0
  4  5  2  0
  5  6  1  0
  7  6  2  0
  8  7  1  0
  9  4  1  0
  9  8  2  0
 10 11  2  0
 10  2  1  0
 12 10  1  0
 13 12  1  0
 13 14  1  1
 15 16  2  0
 15 14  1  0
 17 16  1  0
 18 23  2  0
 18 17  1  0
 19 18  1  0
 20 19  2  0
 20 21  1  0
 21 22  2  0
 22 23  1  0
 23 15  1  0
 24 25  2  0
 24 13  1  0
 27 26  1  0
 27 28  2  0
 29 30  1  0
 29 27  1  0
 31 30  1  0
 32 31  1  0
 33 34  1  0
 33 32  1  1
 34 24  1  0
 35 33  1  0
 36 35  2  0
 37 35  1  0
M  END
$$$$
