FWR.pdb
     RDKit          3D

 37 39  0  0  1  0  0  0  0  0999 V2000
   28.8884  -25.8448  -17.2402 N   0  0  0  0  0  0  0  0  0  0  0  0
   27.7945  -25.0421  -17.7117 C   0  0  1  0  0  0  0  0  0  0  0  0
   26.8840  -25.7461  -18.6870 C   0  0  0  0  0  0  0  0  0  0  0  0
   27.2534  -25.4824  -20.0975 C   0  0  0  0  0  0  0  0  0  0  0  0
   28.1263  -26.3267  -20.7197 C   0  0  0  0  0  0  0  0  0  0  0  0
   28.4798  -26.0835  -22.0498 C   0  0  0  0  0  0  0  0  0  0  0  0
   27.9312  -24.9948  -22.6875 C   0  0  0  0  0  0  0  0  0  0  0  0
   27.0541  -24.1594  -22.0384 C   0  0  0  0  0  0  0  0  0  0  0  0
   26.7039  -24.3976  -20.7255 C   0  0  0  0  0  0  0  0  0  0  0  0
   26.9654  -24.6070  -16.5603 C   0  0  0  0  0  0  0  0  0  0  0  0
   26.9139  -25.3578  -15.5578 O   0  0  0  0  0  0  0  0  0  0  0  0
   26.2379  -23.3997  -16.5411 N   0  0  0  0  0  0  0  0  0  0  0  0
   25.6226  -22.9562  -15.3348 C   0  0  1  0  0  0  0  0  0  0  0  0
   25.5642  -21.4924  -15.1082 C   0  0  0  0  0  0  0  0  0  0  0  0
   26.4087  -20.9511  -14.0479 C   0  0  0  0  0  0  0  0  0  0  0  0
   27.6616  -20.4058  -14.1359 C   0  0  0  0  0  0  0  0  0  0  0  0
   28.0414  -20.0494  -12.8880 N   0  0  0  0  0  0  0  0  0  0  0  0
   27.0850  -20.3420  -11.9926 C   0  0  0  0  0  0  0  0  0  0  0  0
   26.9474  -20.2023  -10.6416 C   0  0  0  0  0  0  0  0  0  0  0  0
   25.7966  -20.6236  -10.0186 C   0  0  0  0  0  0  0  0  0  0  0  0
   24.7564  -21.1923  -10.7178 C   0  0  0  0  0  0  0  0  0  0  0  0
   24.8936  -21.3335  -12.0791 C   0  0  0  0  0  0  0  0  0  0  0  0
   26.0453  -20.9139  -12.7152 C   0  0  0  0  0  0  0  0  0  0  0  0
   24.1849  -23.4224  -15.4168 C   0  0  0  0  0  0  0  0  0  0  0  0
   23.5742  -23.2733  -16.5082 O   0  0  0  0  0  0  0  0  0  0  0  0
   19.0521  -28.4787  -10.0782 N   0  0  0  0  0  0  0  0  0  0  0  0
   18.1681  -27.9701  -11.0602 C   0  0  0  0  0  0  0  0  0  0  0  0
   16.9158  -28.2582  -11.0353 N   0  0  0  0  0  0  0  0  0  0  0  0
   18.6783  -27.1347  -12.0868 N   0  0  0  0  0  0  0  0  0  0  0  0
   20.0971  -26.8356  -12.1411 C   0  0  0  0  0  0  0  0  0  0  0  0
   20.4014  -25.9203  -13.2936 C   0  0  0  0  0  0  0  0  0  0  0  0
   21.8059  -25.4625  -13.3563 C   0  0  0  0  0  0  0  0  0  0  0  0
   22.1050  -24.4628  -14.4237 C   0  0  2  0  0  0  0  0  0  0  0  0
   23.5045  -24.0070  -14.3415 N   0  0  0  0  0  0  0  0  0  0  0  0
   21.2679  -23.2522  -14.3417 C   0  0  0  0  0  0  0  0  0  0  0  0
   21.6066  -22.3113  -13.6066 O   0  0  0  0  0  0  0  0  0  0  0  0
   20.1108  -23.1582  -15.0765 O   0  0  0  0  0  0  0  0  0  0  0  0
  2  1  1  1
  2  3  1  0
  3  4  1  0
  4  5  2  0
  5  6  1  0
  7  6  2  0
  8  7  1  0
  9  4  1  0
  9  8  2  0
 10 11  2  0
 10  2  1  0
 12 10  1  0
 13 12  1  0
 13 14  1  6
 15 16  2  0
 15 14  1  0
 17 16  1  0
 18 23  2  0
 18 17  1  0
 19 18  1  0
 20 19  2  0
 20 21  1  0
 21 22  2  0
 22 23  1  0
 23 15  1  0
 24 25  2  0
 24 13  1  0
 27 26  1  0
 27 28  2  0
 29 30  1  0
 29 27  1  0
 31 30  1  0
 32 31  1  0
 33 34  1  0
 33 32  1  1
 34 24  1  0
 35 33  1  0
 36 35  2  0
 37 35  1  0
M  END
$$$$
