FWR.pdb
     RDKit          3D

 37 39  0  0  1  0  0  0  0  0999 V2000
   28.2868  -21.0019  -15.0437 N   0  0  0  0  0  0  0  0  0  0  0  0
   27.8054  -19.9020  -14.2550 C   0  0  1  0  0  0  0  0  0  0  0  0
   26.7447  -19.0704  -14.9326 C   0  0  0  0  0  0  0  0  0  0  0  0
   27.2961  -18.2237  -16.0164 C   0  0  0  0  0  0  0  0  0  0  0  0
   27.1850  -18.6500  -17.3079 C   0  0  0  0  0  0  0  0  0  0  0  0
   27.7035  -17.8568  -18.3352 C   0  0  0  0  0  0  0  0  0  0  0  0
   28.3110  -16.6673  -18.0047 C   0  0  0  0  0  0  0  0  0  0  0  0
   28.4101  -16.2604  -16.6959 C   0  0  0  0  0  0  0  0  0  0  0  0
   27.8990  -17.0419  -15.6804 C   0  0  0  0  0  0  0  0  0  0  0  0
   27.2293  -20.4148  -12.9871 C   0  0  0  0  0  0  0  0  0  0  0  0
   26.6450  -21.5235  -13.0146 O   0  0  0  0  0  0  0  0  0  0  0  0
   27.3062  -19.7192  -11.7634 N   0  0  0  0  0  0  0  0  0  0  0  0
   26.7705  -20.2998  -10.5775 C   0  0  1  0  0  0  0  0  0  0  0  0
   27.1503  -19.6711   -9.2899 C   0  0  0  0  0  0  0  0  0  0  0  0
   26.5599  -20.2315   -8.0784 C   0  0  0  0  0  0  0  0  0  0  0  0
   25.4174  -20.9730   -7.9381 C   0  0  0  0  0  0  0  0  0  0  0  0
   25.2744  -21.2601   -6.6245 N   0  0  0  0  0  0  0  0  0  0  0  0
   26.2786  -20.7339   -5.9056 C   0  0  0  0  0  0  0  0  0  0  0  0
   26.6178  -20.7164   -4.5834 C   0  0  0  0  0  0  0  0  0  0  0  0
   27.7534  -20.0600   -4.1716 C   0  0  0  0  0  0  0  0  0  0  0  0
   28.5787  -19.4065   -5.0581 C   0  0  0  0  0  0  0  0  0  0  0  0
   28.2382  -19.4234   -6.3907 C   0  0  0  0  0  0  0  0  0  0  0  0
   27.0997  -20.0796   -6.8155 C   0  0  0  0  0  0  0  0  0  0  0  0
   25.2693  -20.1427  -10.6905 C   0  0  0  0  0  0  0  0  0  0  0  0
   24.7920  -18.9771  -10.6772 O   0  0  0  0  0  0  0  0  0  0  0  0
   17.9919  -21.5604  -11.6097 N   0  0  0  0  0  0  0  0  0  0  0  0
   17.9514  -22.7733  -12.3388 C   0  0  0  0  0  0  0  0  0  0  0  0
   16.9615  -23.0475  -13.1115 N   0  0  0  0  0  0  0  0  0  0  0  0
   19.0193  -23.6976  -12.2073 N   0  0  0  0  0  0  0  0  0  0  0  0
   20.1954  -23.3427  -11.4352 C   0  0  0  0  0  0  0  0  0  0  0  0
   21.0328  -22.3394  -12.1774 C   0  0  0  0  0  0  0  0  0  0  0  0
   22.4654  -22.3488  -11.8117 C   0  0  0  0  0  0  0  0  0  0  0  0
   22.9803  -21.0822  -11.2127 C   0  0  2  0  0  0  0  0  0  0  0  0
   24.3901  -21.2265  -10.8067 N   0  0  0  0  0  0  0  0  0  0  0  0
   22.2415  -20.6629  -10.0080 C   0  0  0  0  0  0  0  0  0  0  0  0
   21.5076  -19.6627  -10.0460 O   0  0  0  0  0  0  0  0  0  0  0  0
   22.3605  -21.3746   -8.8389 O   0  0  0  0  0  0  0  0  0  0  0  0
  2  1  1  6
  2  3  1  0
  3  4  1  0
  4  5  2  0
  5  6  1  0
  7  6  2  0
  8  7  1  0
  9  4  1  0
  9  8  2  0
 10 11  2  0
 10  2  1  0
 12 10  1  0
 13 12  1  0
 13 14  1  1
 15 16  2  0
 15 14  1  0
 17 16  1  0
 18 23  2  0
 18 17  1  0
 19 18  1  0
 20 19  2  0
 20 21  1  0
 21 22  2  0
 22 23  1  0
 23 15  1  0
 24 25  2  0
 24 13  1  0
 27 26  1  0
 27 28  2  0
 29 30  1  0
 29 27  1  0
 31 30  1  0
 32 31  1  0
 33 34  1  0
 33 32  1  1
 34 24  1  0
 35 33  1  0
 36 35  2  0
 37 35  1  0
M  END
$$$$
