HMA.pdb
     RDKit          3D

 24 24  0  0  1  0  0  0  0  0999 V2000
   22.4671  -15.6483  -17.9394 N   0  0  0  0  0  0  0  0  0  0  0  0
   21.9469  -14.3517  -18.2076 C   0  0  1  0  0  0  0  0  0  0  0  0
   20.5337  -14.2907  -18.6674 C   0  0  0  0  0  0  0  0  0  0  0  0
   20.2082  -15.0861  -19.8696 C   0  0  0  0  0  0  0  0  0  0  0  0
   20.0330  -14.6712  -21.1648 C   0  0  0  0  0  0  0  0  0  0  0  0
   19.7757  -15.7987  -21.8865 N   0  0  0  0  0  0  0  0  0  0  0  0
   19.7897  -16.8677  -21.0831 C   0  0  0  0  0  0  0  0  0  0  0  0
   20.0526  -16.4585  -19.8423 N   0  0  0  0  0  0  0  0  0  0  0  0
   22.2309  -13.4337  -17.0795 C   0  0  0  0  0  0  0  0  0  0  0  0
   21.7852  -13.6969  -15.9031 O   0  0  0  0  0  0  0  0  0  0  0  0
   27.1536   -9.4167  -17.3726 C   0  0  0  0  0  0  0  0  0  0  0  0
   27.0571   -9.8898  -15.6191 S   0  0  0  0  0  0  0  0  0  0  0  0
   25.2907  -10.1645  -15.1849 C   0  0  0  0  0  0  0  0  0  0  0  0
   24.7351  -11.1192  -16.1728 C   0  0  0  0  0  0  0  0  0  0  0  0
   23.2648  -11.4168  -16.0591 C   0  0  2  0  0  0  0  0  0  0  0  0
   22.9785  -12.2662  -17.2481 N   0  0  0  0  0  0  0  0  0  0  0  0
   22.4031  -10.2111  -16.1410 C   0  0  0  0  0  0  0  0  0  0  0  0
   22.3027   -9.6394  -17.2564 O   0  0  0  0  0  0  0  0  0  0  0  0
   19.9607   -8.1655  -14.1831 C   0  0  0  0  0  0  0  0  0  0  0  0
   20.9939   -8.3857  -15.2336 C   0  0  2  0  0  0  0  0  0  0  0  0
   21.6877   -9.6629  -15.0590 N   0  0  0  0  0  0  0  0  0  0  0  0
   21.9690   -7.2499  -15.1491 C   0  0  0  0  0  0  0  0  0  0  0  0
   23.1516   -7.4181  -14.7766 O   0  0  0  0  0  0  0  0  0  0  0  0
   21.5113   -5.9892  -15.5021 O   0  0  0  0  0  0  0  0  0  0  0  0
  2  1  1  1
  2  9  1  0
  3  2  1  0
  4  3  1  0
  5  4  2  0
  6  7  1  0
  6  5  1  0
  7  8  2  0
  8  4  1  0
  9 10  2  0
 11 12  1  0
 13 12  1  0
 13 14  1  0
 15 14  1  6
 15 17  1  0
 16 15  1  0
 16  9  1  0
 17 21  1  0
 17 18  2  0
 20 19  1  1
 20 22  1  0
 21 20  1  0
 22 23  2  0
 22 24  1  0
M  END
$$$$
