HMA.pdb
     RDKit          3D

 24 24  0  0  1  0  0  0  0  0999 V2000
   23.6940  -14.2469  -17.8942 N   0  0  0  0  0  0  0  0  0  0  0  0
   23.7473  -13.1169  -17.0316 C   0  0  1  0  0  0  0  0  0  0  0  0
   25.0788  -12.4744  -16.8685 C   0  0  0  0  0  0  0  0  0  0  0  0
   26.1647  -13.3487  -16.3781 C   0  0  0  0  0  0  0  0  0  0  0  0
   26.1220  -14.6736  -16.0270 C   0  0  0  0  0  0  0  0  0  0  0  0
   27.3948  -15.0063  -15.6695 N   0  0  0  0  0  0  0  0  0  0  0  0
   28.1957  -13.9423  -15.7913 C   0  0  0  0  0  0  0  0  0  0  0  0
   27.4668  -12.9139  -16.2240 N   0  0  0  0  0  0  0  0  0  0  0  0
   22.6746  -12.1524  -17.3708 C   0  0  0  0  0  0  0  0  0  0  0  0
   22.3583  -11.9418  -18.5986 O   0  0  0  0  0  0  0  0  0  0  0  0
   17.1305  -13.0497  -16.2750 C   0  0  0  0  0  0  0  0  0  0  0  0
   17.0422  -11.3626  -15.6012 S   0  0  0  0  0  0  0  0  0  0  0  0
   18.3942  -10.3639  -16.3489 C   0  0  0  0  0  0  0  0  0  0  0  0
   19.6496  -11.1376  -16.2019 C   0  0  0  0  0  0  0  0  0  0  0  0
   20.8855  -10.5237  -16.8009 C   0  0  2  0  0  0  0  0  0  0  0  0
   21.9795  -11.4454  -16.3873 N   0  0  0  0  0  0  0  0  0  0  0  0
   21.2002   -9.1741  -16.2693 C   0  0  0  0  0  0  0  0  0  0  0  0
   21.7038   -9.1018  -15.1194 O   0  0  0  0  0  0  0  0  0  0  0  0
   21.2703   -5.5610  -17.2937 C   0  0  0  0  0  0  0  0  0  0  0  0
   21.3770   -6.7033  -16.3433 C   0  0  2  0  0  0  0  0  0  0  0  0
   20.9769   -7.9685  -16.9619 N   0  0  0  0  0  0  0  0  0  0  0  0
   20.4932   -6.3965  -15.1718 C   0  0  0  0  0  0  0  0  0  0  0  0
   19.4602   -7.0596  -14.9292 O   0  0  0  0  0  0  0  0  0  0  0  0
   20.8630   -5.3390  -14.3540 O   0  0  0  0  0  0  0  0  0  0  0  0
  2  1  1  6
  2  9  1  0
  3  2  1  0
  4  3  1  0
  5  4  2  0
  6  7  1  0
  6  5  1  0
  7  8  2  0
  8  4  1  0
  9 10  2  0
 11 12  1  0
 13 12  1  0
 13 14  1  0
 15 14  1  1
 15 17  1  0
 16 15  1  0
 16  9  1  0
 17 21  1  0
 17 18  2  0
 20 19  1  6
 20 22  1  0
 21 20  1  0
 22 23  2  0
 22 24  1  0
M  END
$$$$
