HMA.pdb
     RDKit          3D

 24 24  0  0  1  0  0  0  0  0999 V2000
   17.7141  -25.2949   -4.9614 N   0  0  0  0  0  0  0  0  0  0  0  0
   17.1248  -26.0690   -3.9236 C   0  0  1  0  0  0  0  0  0  0  0  0
   16.2670  -27.2051   -4.3547 C   0  0  0  0  0  0  0  0  0  0  0  0
   15.1244  -26.8604   -5.2262 C   0  0  0  0  0  0  0  0  0  0  0  0
   14.9466  -27.1054   -6.5636 C   0  0  0  0  0  0  0  0  0  0  0  0
   13.7156  -26.6087   -6.8739 N   0  0  0  0  0  0  0  0  0  0  0  0
   13.1495  -26.0790   -5.7842 C   0  0  0  0  0  0  0  0  0  0  0  0
   13.9918  -26.2205   -4.7611 N   0  0  0  0  0  0  0  0  0  0  0  0
   18.1449  -26.4590   -2.9220 C   0  0  0  0  0  0  0  0  0  0  0  0
   19.3571  -26.6822   -3.2862 O   0  0  0  0  0  0  0  0  0  0  0  0
   22.6666  -24.8084    1.9260 C   0  0  0  0  0  0  0  0  0  0  0  0
   21.3663  -24.8908    0.6570 S   0  0  0  0  0  0  0  0  0  0  0  0
   19.8436  -25.5800    1.4255 C   0  0  0  0  0  0  0  0  0  0  0  0
   18.8129  -25.6679    0.3643 C   0  0  0  0  0  0  0  0  0  0  0  0
   18.9392  -26.8202   -0.5946 C   0  0  2  0  0  0  0  0  0  0  0  0
   17.8340  -26.5990   -1.5677 N   0  0  0  0  0  0  0  0  0  0  0  0
   18.7333  -28.1478    0.0362 C   0  0  0  0  0  0  0  0  0  0  0  0
   17.5907  -28.4069    0.4928 O   0  0  0  0  0  0  0  0  0  0  0  0
   20.5089  -31.3874    0.7282 C   0  0  0  0  0  0  0  0  0  0  0  0
   19.4034  -30.3948    0.8385 C   0  0  2  0  0  0  0  0  0  0  0  0
   19.7258  -29.1394    0.1578 N   0  0  0  0  0  0  0  0  0  0  0  0
   19.1663  -30.1474    2.2981 C   0  0  0  0  0  0  0  0  0  0  0  0
   19.4956  -29.0740    2.8504 O   0  0  0  0  0  0  0  0  0  0  0  0
   18.5617  -31.1611    3.0265 O   0  0  0  0  0  0  0  0  0  0  0  0
  2  1  1  6
  2  9  1  0
  3  2  1  0
  4  3  1  0
  5  4  2  0
  6  7  1  0
  6  5  1  0
  7  8  2  0
  8  4  1  0
  9 10  2  0
 11 12  1  0
 13 12  1  0
 13 14  1  0
 15 14  1  1
 15 17  1  0
 16 15  1  0
 16  9  1  0
 17 21  1  0
 17 18  2  0
 20 19  1  1
 20 22  1  0
 21 20  1  0
 22 23  2  0
 22 24  1  0
M  END
$$$$
