HMA.pdb
     RDKit          3D

 24 24  0  0  1  0  0  0  0  0999 V2000
   17.9312  -12.0938  -19.3749 N   0  0  0  0  0  0  0  0  0  0  0  0
   17.6576  -12.4334  -18.0207 C   0  0  1  0  0  0  0  0  0  0  0  0
   17.5223  -13.8836  -17.7193 C   0  0  0  0  0  0  0  0  0  0  0  0
   16.3849  -14.5756  -18.3608 C   0  0  0  0  0  0  0  0  0  0  0  0
   15.8960  -14.4463  -19.6354 C   0  0  0  0  0  0  0  0  0  0  0  0
   14.8583  -15.3254  -19.7283 N   0  0  0  0  0  0  0  0  0  0  0  0
   14.7050  -15.9743  -18.5690 C   0  0  0  0  0  0  0  0  0  0  0  0
   15.6279  -15.5336  -17.7146 N   0  0  0  0  0  0  0  0  0  0  0  0
   18.5955  -11.7359  -17.1098 C   0  0  0  0  0  0  0  0  0  0  0  0
   18.5364  -11.9375  -15.8418 O   0  0  0  0  0  0  0  0  0  0  0  0
   24.4482  -10.2941  -13.7823 C   0  0  0  0  0  0  0  0  0  0  0  0
   23.0519  -10.9203  -14.7653 S   0  0  0  0  0  0  0  0  0  0  0  0
   22.9991   -9.9995  -16.3570 C   0  0  0  0  0  0  0  0  0  0  0  0
   21.8536  -10.5265  -17.1357 C   0  0  0  0  0  0  0  0  0  0  0  0
   20.4826  -10.1967  -16.6116 C   0  0  2  0  0  0  0  0  0  0  0  0
   19.5616  -10.8462  -17.5848 N   0  0  0  0  0  0  0  0  0  0  0  0
   20.1816   -8.7434  -16.5982 C   0  0  0  0  0  0  0  0  0  0  0  0
   20.2120   -8.1302  -17.6955 O   0  0  0  0  0  0  0  0  0  0  0  0
   18.6007   -6.0388  -14.7056 C   0  0  0  0  0  0  0  0  0  0  0  0
   19.7222   -6.5484  -15.5435 C   0  0  2  0  0  0  0  0  0  0  0  0
   19.8621   -8.0023  -15.4442 N   0  0  0  0  0  0  0  0  0  0  0  0
   20.9759   -5.8734  -15.0739 C   0  0  0  0  0  0  0  0  0  0  0  0
   21.8975   -6.5051  -14.5107 O   0  0  0  0  0  0  0  0  0  0  0  0
   21.0824   -4.5071  -15.2870 O   0  0  0  0  0  0  0  0  0  0  0  0
  2  1  1  6
  2  9  1  0
  3  2  1  0
  4  3  1  0
  5  4  2  0
  6  7  1  0
  6  5  1  0
  7  8  2  0
  8  4  1  0
  9 10  2  0
 11 12  1  0
 13 12  1  0
 13 14  1  0
 15 14  1  6
 15 17  1  0
 16 15  1  0
 16  9  1  0
 17 21  1  0
 17 18  2  0
 20 19  1  1
 20 22  1  0
 21 20  1  0
 22 23  2  0
 22 24  1  0
M  END
$$$$
