HMA.pdb
     RDKit          3D

 24 24  0  0  1  0  0  0  0  0999 V2000
   28.1285  -21.3197  -15.7540 N   0  0  0  0  0  0  0  0  0  0  0  0
   27.4998  -20.2929  -14.9962 C   0  0  1  0  0  0  0  0  0  0  0  0
   26.7883  -19.2425  -15.7726 C   0  0  0  0  0  0  0  0  0  0  0  0
   27.6094  -18.4808  -16.7366 C   0  0  0  0  0  0  0  0  0  0  0  0
   27.8688  -18.7455  -18.0569 C   0  0  0  0  0  0  0  0  0  0  0  0
   28.6561  -17.7225  -18.4952 N   0  0  0  0  0  0  0  0  0  0  0  0
   28.8785  -16.8589  -17.4986 C   0  0  0  0  0  0  0  0  0  0  0  0
   28.2482  -17.3002  -16.4105 N   0  0  0  0  0  0  0  0  0  0  0  0
   26.6719  -20.8770  -13.9149 C   0  0  0  0  0  0  0  0  0  0  0  0
   25.9990  -21.9518  -14.1239 O   0  0  0  0  0  0  0  0  0  0  0  0
   25.8693  -20.8873   -6.1143 C   0  0  0  0  0  0  0  0  0  0  0  0
   26.6743  -20.3369   -7.6495 S   0  0  0  0  0  0  0  0  0  0  0  0
   25.6445  -20.8774   -9.0748 C   0  0  0  0  0  0  0  0  0  0  0  0
   26.3678  -20.5002  -10.3120 C   0  0  0  0  0  0  0  0  0  0  0  0
   25.7461  -20.9411  -11.6090 C   0  0  2  0  0  0  0  0  0  0  0  0
   26.5900  -20.2914  -12.6497 N   0  0  0  0  0  0  0  0  0  0  0  0
   24.3507  -20.4702  -11.7933 C   0  0  0  0  0  0  0  0  0  0  0  0
   24.1563  -19.2296  -11.8577 O   0  0  0  0  0  0  0  0  0  0  0  0
   21.1440  -21.6241  -13.1487 C   0  0  0  0  0  0  0  0  0  0  0  0
   21.9288  -20.7346  -12.2473 C   0  0  2  0  0  0  0  0  0  0  0  0
   23.2286  -21.3139  -11.9036 N   0  0  0  0  0  0  0  0  0  0  0  0
   21.1130  -20.5191  -11.0080 C   0  0  0  0  0  0  0  0  0  0  0  0
   20.0033  -19.9417  -11.0371 O   0  0  0  0  0  0  0  0  0  0  0  0
   21.6355  -20.9871   -9.8115 O   0  0  0  0  0  0  0  0  0  0  0  0
  2  1  1  6
  2  9  1  0
  3  2  1  0
  4  3  1  0
  5  4  2  0
  6  7  1  0
  6  5  1  0
  7  8  2  0
  8  4  1  0
  9 10  2  0
 11 12  1  0
 13 12  1  0
 13 14  1  0
 15 14  1  1
 15 17  1  0
 16 15  1  0
 16  9  1  0
 17 21  1  0
 17 18  2  0
 20 19  1  6
 20 22  1  0
 21 20  1  0
 22 23  2  0
 22 24  1  0
M  END
$$$$
