HMA.pdb
     RDKit          3D

 24 24  0  0  1  0  0  0  0  0999 V2000
   27.3314  -32.5955  -13.9121 N   0  0  0  0  0  0  0  0  0  0  0  0
   26.2789  -33.0426  -13.0659 C   0  0  1  0  0  0  0  0  0  0  0  0
   25.2832  -33.9604  -13.6813 C   0  0  0  0  0  0  0  0  0  0  0  0
   24.4045  -33.3672  -14.7108 C   0  0  0  0  0  0  0  0  0  0  0  0
   24.7287  -32.8613  -15.9434 C   0  0  0  0  0  0  0  0  0  0  0  0
   23.5519  -32.4640  -16.5054 N   0  0  0  0  0  0  0  0  0  0  0  0
   22.5400  -32.7097  -15.6663 C   0  0  0  0  0  0  0  0  0  0  0  0
   23.0353  -33.2631  -14.5598 N   0  0  0  0  0  0  0  0  0  0  0  0
   26.8219  -33.5501  -11.7839 C   0  0  0  0  0  0  0  0  0  0  0  0
   27.9977  -34.0670  -11.7386 O   0  0  0  0  0  0  0  0  0  0  0  0
   26.2623  -32.2723   -4.1103 C   0  0  0  0  0  0  0  0  0  0  0  0
   25.7864  -31.9758   -5.8405 S   0  0  0  0  0  0  0  0  0  0  0  0
   26.5091  -33.3094   -6.8814 C   0  0  0  0  0  0  0  0  0  0  0  0
   26.1732  -33.0017   -8.2916 C   0  0  0  0  0  0  0  0  0  0  0  0
   26.7334  -33.9351   -9.3298 C   0  0  2  0  0  0  0  0  0  0  0  0
   26.0893  -33.4899  -10.5964 N   0  0  0  0  0  0  0  0  0  0  0  0
   26.3737  -35.3582   -9.1104 C   0  0  0  0  0  0  0  0  0  0  0  0
   25.2036  -35.7165   -9.3996 O   0  0  0  0  0  0  0  0  0  0  0  0
   27.8708  -38.6838   -8.2886 C   0  0  0  0  0  0  0  0  0  0  0  0
   26.7574  -37.6996   -8.3945 C   0  0  2  0  0  0  0  0  0  0  0  0
   27.2501  -36.3369   -8.6032 N   0  0  0  0  0  0  0  0  0  0  0  0
   25.9679  -37.7765   -7.1222 C   0  0  0  0  0  0  0  0  0  0  0  0
   25.3872  -38.8256   -6.7650 O   0  0  0  0  0  0  0  0  0  0  0  0
   25.9013  -36.6309   -6.3431 O   0  0  0  0  0  0  0  0  0  0  0  0
  2  1  1  6
  2  9  1  0
  3  2  1  0
  4  3  1  0
  5  4  2  0
  6  7  1  0
  6  5  1  0
  7  8  2  0
  8  4  1  0
  9 10  2  0
 11 12  1  0
 13 12  1  0
 13 14  1  0
 15 14  1  1
 15 17  1  0
 16 15  1  0
 16  9  1  0
 17 21  1  0
 17 18  2  0
 20 19  1  1
 20 22  1  0
 21 20  1  0
 22 23  2  0
 22 24  1  0
M  END
$$$$
