HMA.pdb
     RDKit          3D

 24 24  0  0  1  0  0  0  0  0999 V2000
   28.3756  -20.4838  -15.3093 N   0  0  0  0  0  0  0  0  0  0  0  0
   27.3521  -19.7177  -14.6852 C   0  0  1  0  0  0  0  0  0  0  0  0
   26.6151  -18.7665  -15.5593 C   0  0  0  0  0  0  0  0  0  0  0  0
   27.4361  -17.7467  -16.2448 C   0  0  0  0  0  0  0  0  0  0  0  0
   27.9700  -16.5846  -15.7500 C   0  0  0  0  0  0  0  0  0  0  0  0
   28.6612  -16.0222  -16.7817 N   0  0  0  0  0  0  0  0  0  0  0  0
   28.5656  -16.7944  -17.8693 C   0  0  0  0  0  0  0  0  0  0  0  0
   27.8206  -17.8572  -17.5671 N   0  0  0  0  0  0  0  0  0  0  0  0
   26.4558  -20.5935  -13.8942 C   0  0  0  0  0  0  0  0  0  0  0  0
   26.0124  -21.6896  -14.3978 O   0  0  0  0  0  0  0  0  0  0  0  0
   26.0636  -19.3695   -7.8895 C   0  0  0  0  0  0  0  0  0  0  0  0
   26.7345  -21.0464   -8.1031 S   0  0  0  0  0  0  0  0  0  0  0  0
   26.6490  -21.4864   -9.8873 C   0  0  0  0  0  0  0  0  0  0  0  0
   25.3956  -20.9083  -10.4264 C   0  0  0  0  0  0  0  0  0  0  0  0
   25.1140  -21.1658  -11.8816 C   0  0  2  0  0  0  0  0  0  0  0  0
   26.0630  -20.2666  -12.5944 N   0  0  0  0  0  0  0  0  0  0  0  0
   23.7374  -20.7990  -12.2979 C   0  0  0  0  0  0  0  0  0  0  0  0
   23.4431  -19.5770  -12.3314 O   0  0  0  0  0  0  0  0  0  0  0  0
   20.7976  -22.0828  -14.1090 C   0  0  0  0  0  0  0  0  0  0  0  0
   21.4180  -21.2282  -13.0582 C   0  0  2  0  0  0  0  0  0  0  0  0
   22.7375  -21.7220  -12.6604 N   0  0  0  0  0  0  0  0  0  0  0  0
   20.4904  -21.2206  -11.8803 C   0  0  0  0  0  0  0  0  0  0  0  0
   20.8186  -21.7068  -10.7751 O   0  0  0  0  0  0  0  0  0  0  0  0
   19.2392  -20.6491  -12.0580 O   0  0  0  0  0  0  0  0  0  0  0  0
  2  1  1  6
  2  9  1  0
  3  2  1  0
  4  3  1  0
  5  4  2  0
  6  7  1  0
  6  5  1  0
  7  8  2  0
  8  4  1  0
  9 10  2  0
 11 12  1  0
 13 12  1  0
 13 14  1  0
 15 14  1  1
 15 17  1  0
 16 15  1  0
 16  9  1  0
 17 21  1  0
 17 18  2  0
 20 19  1  6
 20 22  1  0
 21 20  1  0
 22 23  2  0
 22 24  1  0
M  END
$$$$
