HMA.pdb
     RDKit          3D

 24 24  0  0  1  0  0  0  0  0999 V2000
   28.2179  -21.5916  -16.4221 N   0  0  0  0  0  0  0  0  0  0  0  0
   27.5699  -20.5635  -15.6826 C   0  0  1  0  0  0  0  0  0  0  0  0
   26.9068  -19.4967  -16.4791 C   0  0  0  0  0  0  0  0  0  0  0  0
   27.7891  -18.6999  -17.3569 C   0  0  0  0  0  0  0  0  0  0  0  0
   29.1445  -18.7935  -17.5424 C   0  0  0  0  0  0  0  0  0  0  0  0
   29.4600  -17.8498  -18.4743 N   0  0  0  0  0  0  0  0  0  0  0  0
   28.3562  -17.1974  -18.8545 C   0  0  0  0  0  0  0  0  0  0  0  0
   27.3188  -17.6991  -18.1850 N   0  0  0  0  0  0  0  0  0  0  0  0
   26.6878  -21.1464  -14.6443 C   0  0  0  0  0  0  0  0  0  0  0  0
   26.1326  -22.2899  -14.8343 O   0  0  0  0  0  0  0  0  0  0  0  0
   25.3543  -20.9132   -6.9414 C   0  0  0  0  0  0  0  0  0  0  0  0
   26.2400  -20.4061   -8.4468 S   0  0  0  0  0  0  0  0  0  0  0  0
   25.3580  -21.0998   -9.9046 C   0  0  0  0  0  0  0  0  0  0  0  0
   26.1079  -20.6861  -11.1140 C   0  0  0  0  0  0  0  0  0  0  0  0
   25.5509  -21.1452  -12.4339 C   0  0  2  0  0  0  0  0  0  0  0  0
   26.4279  -20.4867  -13.4411 N   0  0  0  0  0  0  0  0  0  0  0  0
   24.1568  -20.7000  -12.6816 C   0  0  0  0  0  0  0  0  0  0  0  0
   23.9524  -19.4665  -12.8153 O   0  0  0  0  0  0  0  0  0  0  0  0
   20.8381  -22.0412  -13.7198 C   0  0  0  0  0  0  0  0  0  0  0  0
   21.7413  -21.0062  -13.1432 C   0  0  2  0  0  0  0  0  0  0  0  0
   23.0466  -21.5607  -12.7798 N   0  0  0  0  0  0  0  0  0  0  0  0
   21.0618  -20.4424  -11.9315 C   0  0  0  0  0  0  0  0  0  0  0  0
   21.4851  -20.6577  -10.7739 O   0  0  0  0  0  0  0  0  0  0  0  0
   19.9330  -19.6634  -12.1382 O   0  0  0  0  0  0  0  0  0  0  0  0
  2  1  1  6
  2  9  1  0
  3  2  1  0
  4  3  1  0
  5  4  2  0
  6  7  1  0
  6  5  1  0
  7  8  2  0
  8  4  1  0
  9 10  2  0
 11 12  1  0
 13 12  1  0
 13 14  1  0
 15 14  1  1
 15 17  1  0
 16 15  1  0
 16  9  1  0
 17 21  1  0
 17 18  2  0
 20 19  1  1
 20 22  1  0
 21 20  1  0
 22 23  2  0
 22 24  1  0
M  END
$$$$
