HMA.pdb
     RDKit          3D

 24 24  0  0  1  0  0  0  0  0999 V2000
   25.2389  -34.3792  -11.6612 N   0  0  0  0  0  0  0  0  0  0  0  0
   25.9639  -33.2085  -11.3036 C   0  0  1  0  0  0  0  0  0  0  0  0
   25.8569  -32.0560  -12.2377 C   0  0  0  0  0  0  0  0  0  0  0  0
   26.2801  -32.3092  -13.6308 C   0  0  0  0  0  0  0  0  0  0  0  0
   27.5273  -32.6002  -14.1209 C   0  0  0  0  0  0  0  0  0  0  0  0
   27.3707  -32.7683  -15.4646 N   0  0  0  0  0  0  0  0  0  0  0  0
   26.0881  -32.5920  -15.7999 C   0  0  0  0  0  0  0  0  0  0  0  0
   25.3989  -32.3099  -14.6947 N   0  0  0  0  0  0  0  0  0  0  0  0
   25.6949  -32.8404   -9.8937 C   0  0  0  0  0  0  0  0  0  0  0  0
   26.2855  -31.8288   -9.3649 O   0  0  0  0  0  0  0  0  0  0  0  0
   21.8649  -35.7143   -4.3585 C   0  0  0  0  0  0  0  0  0  0  0  0
   21.3351  -34.5656   -5.6652 S   0  0  0  0  0  0  0  0  0  0  0  0
   22.7079  -33.3873   -5.9985 C   0  0  0  0  0  0  0  0  0  0  0  0
   23.2156  -33.6728   -7.3612 C   0  0  0  0  0  0  0  0  0  0  0  0
   24.5807  -33.1334   -7.6911 C   0  0  2  0  0  0  0  0  0  0  0  0
   24.8065  -33.5668   -9.0977 N   0  0  0  0  0  0  0  0  0  0  0  0
   25.6670  -33.7054   -6.8571 C   0  0  0  0  0  0  0  0  0  0  0  0
   26.0048  -34.8969   -7.0745 O   0  0  0  0  0  0  0  0  0  0  0  0
   28.4078  -32.7199   -4.5497 C   0  0  0  0  0  0  0  0  0  0  0  0
   27.4147  -33.6844   -5.1003 C   0  0  2  0  0  0  0  0  0  0  0  0
   26.3481  -33.0082   -5.8407 N   0  0  0  0  0  0  0  0  0  0  0  0
   26.8407  -34.4466   -3.9439 C   0  0  0  0  0  0  0  0  0  0  0  0
   27.5376  -35.2170   -3.2464 O   0  0  0  0  0  0  0  0  0  0  0  0
   25.4931  -34.2676   -3.6683 O   0  0  0  0  0  0  0  0  0  0  0  0
  2  1  1  6
  2  9  1  0
  3  2  1  0
  4  3  1  0
  5  4  2  0
  6  7  1  0
  6  5  1  0
  7  8  2  0
  8  4  1  0
  9 10  2  0
 11 12  1  0
 13 12  1  0
 13 14  1  0
 15 14  1  1
 15 17  1  0
 16 15  1  0
 16  9  1  0
 17 21  1  0
 17 18  2  0
 20 19  1  1
 20 22  1  0
 21 20  1  0
 22 23  2  0
 22 24  1  0
M  END
$$$$
