HMA.pdb
     RDKit          3D

 24 24  0  0  1  0  0  0  0  0999 V2000
   16.0634  -12.3631  -10.4012 N   0  0  0  0  0  0  0  0  0  0  0  0
   15.6162  -11.1094  -10.9033 C   0  0  1  0  0  0  0  0  0  0  0  0
   14.2087  -10.7401  -10.5952 C   0  0  0  0  0  0  0  0  0  0  0  0
   13.1823  -11.7400  -10.9564 C   0  0  0  0  0  0  0  0  0  0  0  0
   12.3562  -12.4707  -10.1415 C   0  0  0  0  0  0  0  0  0  0  0  0
   11.5825  -13.2244  -10.9732 N   0  0  0  0  0  0  0  0  0  0  0  0
   11.9075  -12.9776  -12.2468 C   0  0  0  0  0  0  0  0  0  0  0  0
   12.8848  -12.0717  -12.2640 N   0  0  0  0  0  0  0  0  0  0  0  0
   16.5844  -10.0391  -10.5670 C   0  0  0  0  0  0  0  0  0  0  0  0
   17.1681  -10.0309   -9.4220 O   0  0  0  0  0  0  0  0  0  0  0  0
   22.2817   -5.7634  -13.4558 C   0  0  0  0  0  0  0  0  0  0  0  0
   21.0161   -7.0683  -13.5155 S   0  0  0  0  0  0  0  0  0  0  0  0
   19.9194   -6.8853  -12.0499 C   0  0  0  0  0  0  0  0  0  0  0  0
   18.8627   -7.9188  -12.1556 C   0  0  0  0  0  0  0  0  0  0  0  0
   17.8498   -7.9535  -11.0439 C   0  0  2  0  0  0  0  0  0  0  0  0
   16.8931   -9.0144  -11.4642 N   0  0  0  0  0  0  0  0  0  0  0  0
   17.0894   -6.6884  -10.8887 C   0  0  0  0  0  0  0  0  0  0  0  0
   16.3651   -6.3204  -11.8485 O   0  0  0  0  0  0  0  0  0  0  0  0
   16.2444   -4.0562   -8.3522 C   0  0  0  0  0  0  0  0  0  0  0  0
   16.3292   -4.6391   -9.7206 C   0  0  2  0  0  0  0  0  0  0  0  0
   17.1192   -5.8715   -9.7421 N   0  0  0  0  0  0  0  0  0  0  0  0
   16.9542   -3.6068  -10.6102 C   0  0  0  0  0  0  0  0  0  0  0  0
   18.0970   -3.7561  -11.0975 O   0  0  0  0  0  0  0  0  0  0  0  0
   16.2144   -2.4650  -10.8794 O   0  0  0  0  0  0  0  0  0  0  0  0
  2  1  1  1
  2  9  1  0
  3  2  1  0
  4  3  1  0
  5  4  2  0
  6  7  1  0
  6  5  1  0
  7  8  2  0
  8  4  1  0
  9 10  2  0
 11 12  1  0
 13 12  1  0
 13 14  1  0
 15 14  1  6
 15 17  1  0
 16 15  1  0
 16  9  1  0
 17 21  1  0
 17 18  2  0
 20 19  1  1
 20 22  1  0
 21 20  1  0
 22 23  2  0
 22 24  1  0
M  END
$$$$
