DFT.pdb
     RDKit          3D

 27 27  0  0  1  0  0  0  0  0999 V2000
   28.6515  -21.1642  -14.7947 N   0  0  0  0  0  0  0  0  0  0  0  0
   27.7042  -20.2299  -14.2592 C   0  0  1  0  0  0  0  0  0  0  0  0
   27.1927  -19.2228  -15.2324 C   0  0  0  0  0  0  0  0  0  0  0  0
   28.2399  -18.2838  -15.6667 C   0  0  0  0  0  0  0  0  0  0  0  0
   29.2450  -18.7230  -16.2767 O   0  0  0  0  0  0  0  0  0  0  0  0
   26.6511  -20.8993  -13.4759 C   0  0  0  0  0  0  0  0  0  0  0  0
   26.1559  -22.0137  -13.8018 O   0  0  0  0  0  0  0  0  0  0  0  0
   28.1503  -16.9464  -15.4252 O   0  0  0  0  0  0  0  0  0  0  0  0
   26.1456  -20.3075  -12.3118 N   0  0  0  0  0  0  0  0  0  0  0  0
   25.1174  -20.8837  -11.4806 C   0  0  1  0  0  0  0  0  0  0  0  0
   25.1850  -20.5825  -10.0371 C   0  0  0  0  0  0  0  0  0  0  0  0
   26.4998  -20.6984   -9.3969 C   0  0  0  0  0  0  0  0  0  0  0  0
   26.8491  -20.0639   -8.2268 C   0  0  0  0  0  0  0  0  0  0  0  0
   28.1077  -20.2106   -7.6820 C   0  0  0  0  0  0  0  0  0  0  0  0
   29.0631  -21.0028   -8.2959 C   0  0  0  0  0  0  0  0  0  0  0  0
   28.7203  -21.6314   -9.4529 C   0  0  0  0  0  0  0  0  0  0  0  0
   27.4717  -21.4856   -9.9930 C   0  0  0  0  0  0  0  0  0  0  0  0
   23.8155  -20.4070  -12.0222 C   0  0  0  0  0  0  0  0  0  0  0  0
   23.5273  -19.1851  -12.0148 O   0  0  0  0  0  0  0  0  0  0  0  0
   22.6001  -20.6617  -15.4062 C   0  0  0  0  0  0  0  0  0  0  0  0
   21.5755  -21.3739  -14.5621 C   0  0  1  0  0  0  0  0  0  0  0  0
   21.8849  -22.7510  -14.5463 O   0  0  0  0  0  0  0  0  0  0  0  0
   21.5986  -20.8770  -13.1227 C   0  0  2  0  0  0  0  0  0  0  0  0
   22.8730  -21.3169  -12.5575 N   0  0  0  0  0  0  0  0  0  0  0  0
   20.5280  -21.4759  -12.3147 C   0  0  0  0  0  0  0  0  0  0  0  0
   19.1936  -21.1194  -12.4160 O   0  0  0  0  0  0  0  0  0  0  0  0
   20.8359  -22.3660  -11.4792 O   0  0  0  0  0  0  0  0  0  0  0  0
  2  1  1  6
  2  3  1  0
  4  8  1  0
  4  3  1  0
  5  4  2  0
  6  2  1  0
  7  6  2  0
  9  6  1  0
 10 11  1  1
 10  9  1  0
 11 12  1  0
 12 17  2  0
 13 14  2  0
 13 12  1  0
 14 15  1  0
 15 16  2  0
 17 16  1  0
 18 24  1  0
 18 10  1  0
 19 18  2  0
 21 20  1  6
 21 22  1  0
 23 21  1  0
 23 24  1  1
 25 23  1  0
 25 26  1  0
 27 25  2  0
M  END
$$$$
