DFT.pdb
     RDKit          3D

 27 27  0  0  1  0  0  0  0  0999 V2000
   19.1829  -10.6838  -16.5541 N   0  0  0  0  0  0  0  0  0  0  0  0
   19.3580   -9.3496  -17.0503 C   0  0  1  0  0  0  0  0  0  0  0  0
   18.3886   -8.9369  -18.1054 C   0  0  0  0  0  0  0  0  0  0  0  0
   18.4177   -9.8340  -19.2721 C   0  0  0  0  0  0  0  0  0  0  0  0
   19.4816   -9.9578  -19.9263 O   0  0  0  0  0  0  0  0  0  0  0  0
   19.5136   -8.3712  -15.9598 C   0  0  0  0  0  0  0  0  0  0  0  0
   18.9232   -8.4802  -14.8495 O   0  0  0  0  0  0  0  0  0  0  0  0
   17.3193  -10.5370  -19.6649 O   0  0  0  0  0  0  0  0  0  0  0  0
   20.3421   -7.2536  -16.1198 N   0  0  0  0  0  0  0  0  0  0  0  0
   20.5374   -6.2299  -15.1228 C   0  0  1  0  0  0  0  0  0  0  0  0
   21.8268   -6.2409  -14.4043 C   0  0  0  0  0  0  0  0  0  0  0  0
   22.1638   -7.4631  -13.6663 C   0  0  0  0  0  0  0  0  0  0  0  0
   22.9678   -8.4663  -14.1570 C   0  0  0  0  0  0  0  0  0  0  0  0
   23.2386   -9.5948  -13.4115 C   0  0  0  0  0  0  0  0  0  0  0  0
   22.7093   -9.7554  -12.1422 C   0  0  0  0  0  0  0  0  0  0  0  0
   21.9141   -8.7649  -11.6545 C   0  0  0  0  0  0  0  0  0  0  0  0
   21.6456   -7.6458  -12.3944 C   0  0  0  0  0  0  0  0  0  0  0  0
   20.3718   -4.9233  -15.8163 C   0  0  0  0  0  0  0  0  0  0  0  0
   21.0567   -4.6453  -16.8311 O   0  0  0  0  0  0  0  0  0  0  0  0
   16.9869   -3.5430  -16.8932 C   0  0  0  0  0  0  0  0  0  0  0  0
   17.6847   -2.5059  -16.0523 C   0  0  1  0  0  0  0  0  0  0  0  0
   17.2385   -2.6337  -14.7193 O   0  0  0  0  0  0  0  0  0  0  0  0
   19.1939   -2.7095  -16.0576 C   0  0  2  0  0  0  0  0  0  0  0  0
   19.4407   -3.9648  -15.3503 N   0  0  0  0  0  0  0  0  0  0  0  0
   19.8969   -1.6466  -15.3272 C   0  0  0  0  0  0  0  0  0  0  0  0
   20.5145   -1.8313  -14.1014 O   0  0  0  0  0  0  0  0  0  0  0  0
   19.9438   -0.4981  -15.8409 O   0  0  0  0  0  0  0  0  0  0  0  0
  2  1  1  1
  2  3  1  0
  4  8  1  0
  4  3  1  0
  5  4  2  0
  6  2  1  0
  7  6  2  0
  9  6  1  0
 10 11  1  6
 10  9  1  0
 11 12  1  0
 12 17  2  0
 13 14  2  0
 13 12  1  0
 14 15  1  0
 15 16  2  0
 17 16  1  0
 18 24  1  0
 18 10  1  0
 19 18  2  0
 21 20  1  6
 21 22  1  0
 23 21  1  0
 23 24  1  1
 25 23  1  0
 25 26  1  0
 27 25  2  0
M  END
$$$$
