DFT.pdb
     RDKit          3D

 27 27  0  0  1  0  0  0  0  0999 V2000
   22.3789  -11.5335  -18.4145 N   0  0  0  0  0  0  0  0  0  0  0  0
   21.9321  -10.1974  -18.6835 C   0  0  1  0  0  0  0  0  0  0  0  0
   20.7217  -10.0994  -19.5485 C   0  0  0  0  0  0  0  0  0  0  0  0
   20.9529  -10.6443  -20.8963 C   0  0  0  0  0  0  0  0  0  0  0  0
   20.0891  -11.3938  -21.4131 O   0  0  0  0  0  0  0  0  0  0  0  0
   21.8647   -9.3809  -17.4589 C   0  0  0  0  0  0  0  0  0  0  0  0
   21.4397   -9.8280  -16.3577 O   0  0  0  0  0  0  0  0  0  0  0  0
   22.0818  -10.3581  -21.6026 O   0  0  0  0  0  0  0  0  0  0  0  0
   22.2782   -8.0431  -17.4723 N   0  0  0  0  0  0  0  0  0  0  0  0
   22.2315   -7.1604  -16.3327 C   0  0  1  0  0  0  0  0  0  0  0  0
   23.5251   -6.7955  -15.7226 C   0  0  0  0  0  0  0  0  0  0  0  0
   24.4377   -7.8966  -15.3958 C   0  0  0  0  0  0  0  0  0  0  0  0
   25.5863   -8.1835  -16.0972 C   0  0  0  0  0  0  0  0  0  0  0  0
   26.3972   -9.2405  -15.7398 C   0  0  0  0  0  0  0  0  0  0  0  0
   26.0814  -10.0492  -14.6612 C   0  0  0  0  0  0  0  0  0  0  0  0
   24.9463   -9.7676  -13.9659 C   0  0  0  0  0  0  0  0  0  0  0  0
   24.1421   -8.7191  -14.3208 C   0  0  0  0  0  0  0  0  0  0  0  0
   21.5326   -5.9247  -16.7800 C   0  0  0  0  0  0  0  0  0  0  0  0
   22.0854   -5.1294  -17.5789 O   0  0  0  0  0  0  0  0  0  0  0  0
   18.6706   -5.5464  -18.8562 C   0  0  0  0  0  0  0  0  0  0  0  0
   18.2829   -4.9505  -17.5280 C   0  0  1  0  0  0  0  0  0  0  0  0
   17.6842   -5.9579  -16.7412 O   0  0  0  0  0  0  0  0  0  0  0  0
   19.5009   -4.4350  -16.7732 C   0  0  2  0  0  0  0  0  0  0  0  0
   20.2311   -5.6166  -16.3174 N   0  0  0  0  0  0  0  0  0  0  0  0
   19.1256   -3.6621  -15.5817 C   0  0  0  0  0  0  0  0  0  0  0  0
   18.6380   -2.3666  -15.6246 O   0  0  0  0  0  0  0  0  0  0  0  0
   19.2529   -4.2043  -14.4526 O   0  0  0  0  0  0  0  0  0  0  0  0
  2  1  1  1
  2  3  1  0
  4  8  1  0
  4  3  1  0
  5  4  2  0
  6  2  1  0
  7  6  2  0
  9  6  1  0
 10 11  1  6
 10  9  1  0
 11 12  1  0
 12 17  2  0
 13 14  2  0
 13 12  1  0
 14 15  1  0
 15 16  2  0
 17 16  1  0
 18 24  1  0
 18 10  1  0
 19 18  2  0
 21 20  1  6
 21 22  1  0
 23 21  1  0
 23 24  1  1
 25 23  1  0
 25 26  1  0
 27 25  2  0
M  END
$$$$
