DFT.pdb
     RDKit          3D

 27 27  0  0  1  0  0  0  0  0999 V2000
   27.6151  -20.9803  -18.9767 N   0  0  0  0  0  0  0  0  0  0  0  0
   26.9953  -20.0151  -18.1156 C   0  0  1  0  0  0  0  0  0  0  0  0
   25.9914  -19.1330  -18.7767 C   0  0  0  0  0  0  0  0  0  0  0  0
   26.5950  -18.2779  -19.8118 C   0  0  0  0  0  0  0  0  0  0  0  0
   27.5142  -17.4844  -19.4947 O   0  0  0  0  0  0  0  0  0  0  0  0
   26.5289  -20.6190  -16.8552 C   0  0  0  0  0  0  0  0  0  0  0  0
   25.8442  -21.6785  -16.8131 O   0  0  0  0  0  0  0  0  0  0  0  0
   26.1838  -18.3223  -21.1095 O   0  0  0  0  0  0  0  0  0  0  0  0
   26.8338  -20.0229  -15.6254 N   0  0  0  0  0  0  0  0  0  0  0  0
   26.3286  -20.4707  -14.3509 C   0  0  1  0  0  0  0  0  0  0  0  0
   27.0906  -20.0623  -13.1545 C   0  0  0  0  0  0  0  0  0  0  0  0
   26.5322  -20.4410  -11.8520 C   0  0  0  0  0  0  0  0  0  0  0  0
   26.6766  -21.6844  -11.2804 C   0  0  0  0  0  0  0  0  0  0  0  0
   26.1183  -21.9766  -10.0534 C   0  0  0  0  0  0  0  0  0  0  0  0
   25.3927  -21.0263   -9.3551 C   0  0  0  0  0  0  0  0  0  0  0  0
   25.2485  -19.7960   -9.9180 C   0  0  0  0  0  0  0  0  0  0  0  0
   25.8024  -19.5066  -11.1351 C   0  0  0  0  0  0  0  0  0  0  0  0
   24.9340  -19.9617  -14.2434 C   0  0  0  0  0  0  0  0  0  0  0  0
   24.6855  -18.7391  -14.3838 O   0  0  0  0  0  0  0  0  0  0  0  0
   22.1693  -19.9329  -16.1886 C   0  0  0  0  0  0  0  0  0  0  0  0
   21.6954  -20.7127  -14.9900 C   0  0  1  0  0  0  0  0  0  0  0  0
   21.8831  -22.0881  -15.2457 O   0  0  0  0  0  0  0  0  0  0  0  0
   22.4968  -20.3591  -13.7443 C   0  0  2  0  0  0  0  0  0  0  0  0
   23.8565  -20.8410  -13.9810 N   0  0  0  0  0  0  0  0  0  0  0  0
   21.9887  -21.0438  -12.5481 C   0  0  0  0  0  0  0  0  0  0  0  0
   20.8760  -20.6287  -11.8357 O   0  0  0  0  0  0  0  0  0  0  0  0
   22.5968  -22.0687  -12.1420 O   0  0  0  0  0  0  0  0  0  0  0  0
  2  1  1  6
  2  3  1  0
  4  8  1  0
  4  3  1  0
  5  4  2  0
  6  2  1  0
  7  6  2  0
  9  6  1  0
 10 11  1  1
 10  9  1  0
 11 12  1  0
 12 17  2  0
 13 14  2  0
 13 12  1  0
 14 15  1  0
 15 16  2  0
 17 16  1  0
 18 24  1  0
 18 10  1  0
 19 18  2  0
 21 20  1  6
 21 22  1  0
 23 21  1  0
 23 24  1  6
 25 23  1  0
 25 26  1  0
 27 25  2  0
M  END
$$$$
