DFT.pdb
     RDKit          3D

 27 27  0  0  1  0  0  0  0  0999 V2000
   26.2066  -18.4698  -17.8301 N   0  0  0  0  0  0  0  0  0  0  0  0
   25.6548  -19.4022  -16.8904 C   0  0  1  0  0  0  0  0  0  0  0  0
   26.6583  -20.2159  -16.1461 C   0  0  0  0  0  0  0  0  0  0  0  0
   27.5224  -20.9968  -17.0464 C   0  0  0  0  0  0  0  0  0  0  0  0
   27.4381  -20.8202  -18.2860 O   0  0  0  0  0  0  0  0  0  0  0  0
   24.6289  -18.7813  -16.0344 C   0  0  0  0  0  0  0  0  0  0  0  0
   24.6011  -17.5448  -15.7820 O   0  0  0  0  0  0  0  0  0  0  0  0
   28.4148  -21.9098  -16.5719 O   0  0  0  0  0  0  0  0  0  0  0  0
   23.6216  -19.5605  -15.4520 N   0  0  0  0  0  0  0  0  0  0  0  0
   22.5393  -19.0372  -14.6552 C   0  0  1  0  0  0  0  0  0  0  0  0
   21.3307  -18.6018  -15.3821 C   0  0  0  0  0  0  0  0  0  0  0  0
   20.2098  -18.1133  -14.5715 C   0  0  0  0  0  0  0  0  0  0  0  0
   19.1533  -18.8941  -14.1619 C   0  0  0  0  0  0  0  0  0  0  0  0
   18.1264  -18.3683  -13.4059 C   0  0  0  0  0  0  0  0  0  0  0  0
   18.1251  -17.0348  -13.0334 C   0  0  0  0  0  0  0  0  0  0  0  0
   19.1687  -16.2605  -13.4369 C   0  0  0  0  0  0  0  0  0  0  0  0
   20.1870  -16.7825  -14.1869 C   0  0  0  0  0  0  0  0  0  0  0  0
   22.1718  -20.1035  -13.6838 C   0  0  0  0  0  0  0  0  0  0  0  0
   21.8700  -21.2556  -14.0809 O   0  0  0  0  0  0  0  0  0  0  0  0
   24.1497  -20.7468  -10.3806 C   0  0  0  0  0  0  0  0  0  0  0  0
   22.6815  -20.5860  -10.0838 C   0  0  1  0  0  0  0  0  0  0  0  0
   22.4432  -19.2468   -9.7069 O   0  0  0  0  0  0  0  0  0  0  0  0
   21.8306  -20.8806  -11.3118 C   0  0  2  0  0  0  0  0  0  0  0  0
   22.1537  -19.8457  -12.2924 N   0  0  0  0  0  0  0  0  0  0  0  0
   20.3934  -20.7818  -11.0243 C   0  0  0  0  0  0  0  0  0  0  0  0
   19.7049  -21.6730  -10.2182 O   0  0  0  0  0  0  0  0  0  0  0  0
   19.7445  -19.8334  -11.5384 O   0  0  0  0  0  0  0  0  0  0  0  0
  2  1  1  1
  2  3  1  0
  4  8  1  0
  4  3  1  0
  5  4  2  0
  6  2  1  0
  7  6  2  0
  9  6  1  0
 10 11  1  6
 10  9  1  0
 11 12  1  0
 12 17  2  0
 13 14  2  0
 13 12  1  0
 14 15  1  0
 15 16  2  0
 17 16  1  0
 18 24  1  0
 18 10  1  0
 19 18  2  0
 21 20  1  6
 21 22  1  0
 23 21  1  0
 23 24  1  6
 25 23  1  0
 25 26  1  0
 27 25  2  0
M  END
$$$$
