DFT.pdb
     RDKit          3D

 27 27  0  0  1  0  0  0  0  0999 V2000
   14.6128  -22.0912    0.5900 N   0  0  0  0  0  0  0  0  0  0  0  0
   14.4248  -21.5684    1.9123 C   0  0  1  0  0  0  0  0  0  0  0  0
   14.0397  -22.5772    2.9404 C   0  0  0  0  0  0  0  0  0  0  0  0
   12.9948  -22.0777    3.8490 C   0  0  0  0  0  0  0  0  0  0  0  0
   12.4211  -20.9922    3.5888 O   0  0  0  0  0  0  0  0  0  0  0  0
   15.5322  -20.6861    2.3195 C   0  0  0  0  0  0  0  0  0  0  0  0
   16.7409  -21.0496    2.3055 O   0  0  0  0  0  0  0  0  0  0  0  0
   12.6303  -22.7616    4.9691 O   0  0  0  0  0  0  0  0  0  0  0  0
   15.2781  -19.3784    2.7508 N   0  0  0  0  0  0  0  0  0  0  0  0
   16.2970  -18.4156    3.0898 C   0  0  1  0  0  0  0  0  0  0  0  0
   16.4307  -17.2485    2.1959 C   0  0  0  0  0  0  0  0  0  0  0  0
   17.3700  -16.2007    2.6102 C   0  0  0  0  0  0  0  0  0  0  0  0
   17.0031  -15.0482    3.2664 C   0  0  0  0  0  0  0  0  0  0  0  0
   17.9385  -14.0986    3.6212 C   0  0  0  0  0  0  0  0  0  0  0  0
   19.2802  -14.2743    3.3280 C   0  0  0  0  0  0  0  0  0  0  0  0
   19.6458  -15.4131    2.6793 C   0  0  0  0  0  0  0  0  0  0  0  0
   18.7176  -16.3547    2.3275 C   0  0  0  0  0  0  0  0  0  0  0  0
   15.9967  -17.9462    4.4701 C   0  0  0  0  0  0  0  0  0  0  0  0
   14.8217  -17.6620    4.8087 O   0  0  0  0  0  0  0  0  0  0  0  0
   17.2742  -18.1283    9.1567 C   0  0  0  0  0  0  0  0  0  0  0  0
   17.4985  -18.4124    7.6944 C   0  0  1  0  0  0  0  0  0  0  0  0
   16.9992  -19.7006    7.4051 O   0  0  0  0  0  0  0  0  0  0  0  0
   16.7535  -17.4179    6.8142 C   0  0  2  0  0  0  0  0  0  0  0  0
   17.0254  -17.8093    5.4322 N   0  0  0  0  0  0  0  0  0  0  0  0
   17.2492  -16.0462    6.9893 C   0  0  0  0  0  0  0  0  0  0  0  0
   16.5775  -15.0685    7.7042 O   0  0  0  0  0  0  0  0  0  0  0  0
   18.3486  -15.7355    6.4603 O   0  0  0  0  0  0  0  0  0  0  0  0
  2  1  1  6
  2  3  1  0
  4  8  1  0
  4  3  1  0
  5  4  2  0
  6  2  1  0
  7  6  2  0
  9  6  1  0
 10 11  1  6
 10  9  1  0
 11 12  1  0
 12 17  2  0
 13 14  2  0
 13 12  1  0
 14 15  1  0
 15 16  2  0
 17 16  1  0
 18 24  1  0
 18 10  1  0
 19 18  2  0
 21 20  1  1
 21 22  1  0
 23 21  1  0
 23 24  1  6
 25 23  1  0
 25 26  1  0
 27 25  2  0
M  END
$$$$
