DFT.pdb
     RDKit          3D

 27 27  0  0  1  0  0  0  0  0999 V2000
   21.0143  -20.0886  -10.9798 N   0  0  0  0  0  0  0  0  0  0  0  0
   21.6402  -20.8267  -12.0384 C   0  0  1  0  0  0  0  0  0  0  0  0
   20.8873  -20.8451  -13.3251 C   0  0  0  0  0  0  0  0  0  0  0  0
   19.4826  -21.2466  -13.1446 C   0  0  0  0  0  0  0  0  0  0  0  0
   19.2221  -22.3971  -12.7161 O   0  0  0  0  0  0  0  0  0  0  0  0
   23.0666  -20.4861  -12.1802 C   0  0  0  0  0  0  0  0  0  0  0  0
   23.4778  -19.3038  -12.3422 O   0  0  0  0  0  0  0  0  0  0  0  0
   18.4523  -20.4028  -13.4299 O   0  0  0  0  0  0  0  0  0  0  0  0
   24.0443  -21.4879  -12.1419 N   0  0  0  0  0  0  0  0  0  0  0  0
   25.4658  -21.2461  -12.1739 C   0  0  1  0  0  0  0  0  0  0  0  0
   26.2909  -22.0136  -11.2205 C   0  0  0  0  0  0  0  0  0  0  0  0
   26.6727  -21.3340   -9.9778 C   0  0  0  0  0  0  0  0  0  0  0  0
   27.9618  -21.2575   -9.5024 C   0  0  0  0  0  0  0  0  0  0  0  0
   28.2507  -20.6080   -8.3204 C   0  0  0  0  0  0  0  0  0  0  0  0
   27.2509  -20.0104   -7.5718 C   0  0  0  0  0  0  0  0  0  0  0  0
   25.9754  -20.0845   -8.0396 C   0  0  0  0  0  0  0  0  0  0  0  0
   25.6893  -20.7289   -9.2121 C   0  0  0  0  0  0  0  0  0  0  0  0
   25.9163  -21.5397  -13.5618 C   0  0  0  0  0  0  0  0  0  0  0  0
   25.4314  -22.5045  -14.2022 O   0  0  0  0  0  0  0  0  0  0  0  0
   28.3483  -19.6928  -17.4763 C   0  0  0  0  0  0  0  0  0  0  0  0
   27.6971  -19.5816  -16.1224 C   0  0  1  0  0  0  0  0  0  0  0  0
   26.5208  -18.8122  -16.2514 O   0  0  0  0  0  0  0  0  0  0  0  0
   27.2998  -20.9491  -15.5827 C   0  0  2  0  0  0  0  0  0  0  0  0
   26.8996  -20.7406  -14.1922 N   0  0  0  0  0  0  0  0  0  0  0  0
   28.4274  -21.8905  -15.5802 C   0  0  0  0  0  0  0  0  0  0  0  0
   28.7261  -22.7393  -16.6330 O   0  0  0  0  0  0  0  0  0  0  0  0
   29.1691  -21.9327  -14.5637 O   0  0  0  0  0  0  0  0  0  0  0  0
  2  1  1  1
  2  3  1  0
  4  8  1  0
  4  3  1  0
  5  4  2  0
  6  2  1  0
  7  6  2  0
  9  6  1  0
 10 11  1  1
 10  9  1  0
 11 12  1  0
 12 17  2  0
 13 14  2  0
 13 12  1  0
 14 15  1  0
 15 16  2  0
 17 16  1  0
 18 24  1  0
 18 10  1  0
 19 18  2  0
 21 20  1  6
 21 22  1  0
 23 21  1  0
 23 24  1  1
 25 23  1  0
 25 26  1  0
 27 25  2  0
M  END
$$$$
