DFT.pdb
     RDKit          3D

 27 27  0  0  1  0  0  0  0  0999 V2000
   23.6508  -13.9325  -16.8527 N   0  0  0  0  0  0  0  0  0  0  0  0
   22.7887  -12.8394  -17.1978 C   0  0  1  0  0  0  0  0  0  0  0  0
   21.5321  -13.2252  -17.9015 C   0  0  0  0  0  0  0  0  0  0  0  0
   21.7810  -14.1395  -19.0281 C   0  0  0  0  0  0  0  0  0  0  0  0
   22.4799  -13.7484  -19.9944 O   0  0  0  0  0  0  0  0  0  0  0  0
   22.5865  -11.9175  -16.0665 C   0  0  0  0  0  0  0  0  0  0  0  0
   22.1671  -12.2965  -14.9379 O   0  0  0  0  0  0  0  0  0  0  0  0
   21.2731  -15.4030  -19.0532 O   0  0  0  0  0  0  0  0  0  0  0  0
   22.8569  -10.5506  -16.2057 N   0  0  0  0  0  0  0  0  0  0  0  0
   22.6674   -9.5686  -15.1666 C   0  0  1  0  0  0  0  0  0  0  0  0
   23.8641   -9.1803  -14.3946 C   0  0  0  0  0  0  0  0  0  0  0  0
   25.1657   -9.5633  -14.9524 C   0  0  0  0  0  0  0  0  0  0  0  0
   25.8806  -10.6711  -14.5581 C   0  0  0  0  0  0  0  0  0  0  0  0
   27.1044  -10.9695  -15.1201 C   0  0  0  0  0  0  0  0  0  0  0  0
   27.6548  -10.1626  -16.1014 C   0  0  0  0  0  0  0  0  0  0  0  0
   26.9500   -9.0667  -16.4932 C   0  0  0  0  0  0  0  0  0  0  0  0
   25.7361   -8.7710  -15.9355 C   0  0  0  0  0  0  0  0  0  0  0  0
   22.0913   -8.3623  -15.8210 C   0  0  0  0  0  0  0  0  0  0  0  0
   22.7648   -7.6977  -16.6461 O   0  0  0  0  0  0  0  0  0  0  0  0
   18.0619   -8.2089  -16.2982 C   0  0  0  0  0  0  0  0  0  0  0  0
   19.0588   -7.4268  -17.1130 C   0  0  1  0  0  0  0  0  0  0  0  0
   18.3822   -6.3669  -17.7543 O   0  0  0  0  0  0  0  0  0  0  0  0
   20.1425   -6.8196  -16.2321 C   0  0  2  0  0  0  0  0  0  0  0  0
   20.7736   -7.9359  -15.5302 N   0  0  0  0  0  0  0  0  0  0  0  0
   19.5861   -5.9175  -15.2150 C   0  0  0  0  0  0  0  0  0  0  0  0
   19.6082   -6.1806  -13.8555 O   0  0  0  0  0  0  0  0  0  0  0  0
   19.0567   -4.8407  -15.5960 O   0  0  0  0  0  0  0  0  0  0  0  0
  2  1  1  1
  2  3  1  0
  4  8  1  0
  4  3  1  0
  5  4  2  0
  6  2  1  0
  7  6  2  0
  9  6  1  0
 10 11  1  6
 10  9  1  0
 11 12  1  0
 12 17  2  0
 13 14  2  0
 13 12  1  0
 14 15  1  0
 15 16  2  0
 17 16  1  0
 18 24  1  0
 18 10  1  0
 19 18  2  0
 21 20  1  1
 21 22  1  0
 23 21  1  0
 23 24  1  1
 25 23  1  0
 25 26  1  0
 27 25  2  0
M  END
$$$$
