DFT.pdb
     RDKit          3D

 27 27  0  0  1  0  0  0  0  0999 V2000
   17.2771   -4.7128  -14.8215 N   0  0  0  0  0  0  0  0  0  0  0  0
   18.2813   -4.4251  -15.8043 C   0  0  1  0  0  0  0  0  0  0  0  0
   19.1235   -3.2296  -15.5141 C   0  0  0  0  0  0  0  0  0  0  0  0
   18.3430   -1.9815  -15.5215 C   0  0  0  0  0  0  0  0  0  0  0  0
   17.1127   -2.0270  -15.7652 O   0  0  0  0  0  0  0  0  0  0  0  0
   19.0488   -5.6262  -16.1771 C   0  0  0  0  0  0  0  0  0  0  0  0
   19.8929   -5.6383  -17.1155 O   0  0  0  0  0  0  0  0  0  0  0  0
   18.9188   -0.7730  -15.2705 O   0  0  0  0  0  0  0  0  0  0  0  0
   18.8638   -6.8310  -15.4877 N   0  0  0  0  0  0  0  0  0  0  0  0
   19.7119   -7.9897  -15.6221 C   0  0  1  0  0  0  0  0  0  0  0  0
   20.7477   -8.1773  -14.5873 C   0  0  0  0  0  0  0  0  0  0  0  0
   21.9009   -7.2717  -14.6321 C   0  0  0  0  0  0  0  0  0  0  0  0
   23.0406   -7.5063  -15.3668 C   0  0  0  0  0  0  0  0  0  0  0  0
   24.0930   -6.6147  -15.3582 C   0  0  0  0  0  0  0  0  0  0  0  0
   24.0370   -5.4519  -14.6086 C   0  0  0  0  0  0  0  0  0  0  0  0
   22.9112   -5.2175  -13.8814 C   0  0  0  0  0  0  0  0  0  0  0  0
   21.8676   -6.1022  -13.8901 C   0  0  0  0  0  0  0  0  0  0  0  0
   18.8127   -9.1757  -15.6388 C   0  0  0  0  0  0  0  0  0  0  0  0
   17.7922   -9.2163  -14.9086 O   0  0  0  0  0  0  0  0  0  0  0  0
   17.6339  -13.3246  -18.1141 C   0  0  0  0  0  0  0  0  0  0  0  0
   18.5226  -12.1304  -17.8825 C   0  0  1  0  0  0  0  0  0  0  0  0
   18.3215  -11.2101  -18.9337 O   0  0  0  0  0  0  0  0  0  0  0  0
   18.1781  -11.4259  -16.5771 C   0  0  2  0  0  0  0  0  0  0  0  0
   19.0849  -10.2837  -16.4760 N   0  0  0  0  0  0  0  0  0  0  0  0
   18.4163  -12.2826  -15.4079 C   0  0  0  0  0  0  0  0  0  0  0  0
   17.4107  -12.9221  -14.7023 O   0  0  0  0  0  0  0  0  0  0  0  0
   19.6025  -12.4486  -15.0199 O   0  0  0  0  0  0  0  0  0  0  0  0
  2  1  1  1
  2  3  1  0
  4  8  1  0
  4  3  1  0
  5  4  2  0
  6  2  1  0
  7  6  2  0
  9  6  1  0
 10 11  1  1
 10  9  1  0
 11 12  1  0
 12 17  2  0
 13 14  2  0
 13 12  1  0
 14 15  1  0
 15 16  2  0
 17 16  1  0
 18 24  1  0
 18 10  1  0
 19 18  2  0
 21 20  1  6
 21 22  1  0
 23 21  1  0
 23 24  1  1
 25 23  1  0
 25 26  1  0
 27 25  2  0
M  END
$$$$
