DFT.pdb
     RDKit          3D

 27 27  0  0  1  0  0  0  0  0999 V2000
   21.3287   -9.2009  -21.7074 N   0  0  0  0  0  0  0  0  0  0  0  0
   22.0285   -8.1469  -21.0319 C   0  0  1  0  0  0  0  0  0  0  0  0
   22.1191   -6.8648  -21.7875 C   0  0  0  0  0  0  0  0  0  0  0  0
   22.6785   -7.0499  -23.1365 C   0  0  0  0  0  0  0  0  0  0  0  0
   23.9186   -7.1848  -23.2747 O   0  0  0  0  0  0  0  0  0  0  0  0
   21.5810   -7.9932  -19.6366 C   0  0  0  0  0  0  0  0  0  0  0  0
   20.6187   -8.6475  -19.1476 O   0  0  0  0  0  0  0  0  0  0  0  0
   21.8868   -7.0793  -24.2443 O   0  0  0  0  0  0  0  0  0  0  0  0
   22.2219   -7.0901  -18.7795 N   0  0  0  0  0  0  0  0  0  0  0  0
   21.8974   -6.9134  -17.3854 C   0  0  1  0  0  0  0  0  0  0  0  0
   22.9699   -7.2011  -16.4129 C   0  0  0  0  0  0  0  0  0  0  0  0
   22.6356   -7.0470  -14.9929 C   0  0  0  0  0  0  0  0  0  0  0  0
   22.5019   -5.8341  -14.3568 C   0  0  0  0  0  0  0  0  0  0  0  0
   22.1927   -5.7608  -13.0145 C   0  0  0  0  0  0  0  0  0  0  0  0
   22.0062   -6.9077  -12.2616 C   0  0  0  0  0  0  0  0  0  0  0  0
   22.1377   -8.1083  -12.8882 C   0  0  0  0  0  0  0  0  0  0  0  0
   22.4445   -8.1806  -14.2196 C   0  0  0  0  0  0  0  0  0  0  0  0
   21.4555   -5.5009  -17.2270 C   0  0  0  0  0  0  0  0  0  0  0  0
   22.1895   -4.5541  -17.6022 O   0  0  0  0  0  0  0  0  0  0  0  0
   18.6559   -3.8471  -18.7847 C   0  0  0  0  0  0  0  0  0  0  0  0
   18.4155   -3.7431  -17.3011 C   0  0  1  0  0  0  0  0  0  0  0  0
   17.6120   -4.8316  -16.8987 O   0  0  0  0  0  0  0  0  0  0  0  0
   19.7206   -3.8165  -16.5200 C   0  0  2  0  0  0  0  0  0  0  0  0
   20.2003   -5.1912  -16.6513 N   0  0  0  0  0  0  0  0  0  0  0  0
   19.5228   -3.5537  -15.0883 C   0  0  0  0  0  0  0  0  0  0  0  0
   19.3906   -2.2855  -14.5479 O   0  0  0  0  0  0  0  0  0  0  0  0
   19.4696   -4.5354  -14.3019 O   0  0  0  0  0  0  0  0  0  0  0  0
  2  1  1  6
  2  3  1  0
  4  8  1  0
  4  3  1  0
  5  4  2  0
  6  2  1  0
  7  6  2  0
  9  6  1  0
 10 11  1  1
 10  9  1  0
 11 12  1  0
 12 17  2  0
 13 14  2  0
 13 12  1  0
 14 15  1  0
 15 16  2  0
 17 16  1  0
 18 24  1  0
 18 10  1  0
 19 18  2  0
 21 20  1  6
 21 22  1  0
 23 21  1  0
 23 24  1  1
 25 23  1  0
 25 26  1  0
 27 25  2  0
M  END
$$$$
