DFT.pdb
     RDKit          3D

 27 27  0  0  1  0  0  0  0  0999 V2000
   19.5087  -12.4611  -17.0027 N   0  0  0  0  0  0  0  0  0  0  0  0
   18.3696  -12.0190  -16.2517 C   0  0  1  0  0  0  0  0  0  0  0  0
   17.7818  -13.0400  -15.3379 C   0  0  0  0  0  0  0  0  0  0  0  0
   17.5393  -14.3234  -16.0169 C   0  0  0  0  0  0  0  0  0  0  0  0
   17.9490  -14.4844  -17.1922 O   0  0  0  0  0  0  0  0  0  0  0  0
   18.5997  -10.7076  -15.6208 C   0  0  0  0  0  0  0  0  0  0  0  0
   17.7437  -10.1377  -14.8888 O   0  0  0  0  0  0  0  0  0  0  0  0
   16.8803  -15.3462  -15.4048 O   0  0  0  0  0  0  0  0  0  0  0  0
   19.8071  -10.0259  -15.8169 N   0  0  0  0  0  0  0  0  0  0  0  0
   20.1640   -8.7893  -15.1663 C   0  0  1  0  0  0  0  0  0  0  0  0
   21.5887   -8.6054  -14.8267 C   0  0  0  0  0  0  0  0  0  0  0  0
   22.0046   -7.2588  -14.4200 C   0  0  0  0  0  0  0  0  0  0  0  0
   21.8278   -6.7429  -13.1566 C   0  0  0  0  0  0  0  0  0  0  0  0
   22.2366   -5.4635  -12.8429 C   0  0  0  0  0  0  0  0  0  0  0  0
   22.8396   -4.6544  -13.7910 C   0  0  0  0  0  0  0  0  0  0  0  0
   23.0157   -5.1620  -15.0411 C   0  0  0  0  0  0  0  0  0  0  0  0
   22.6100   -6.4312  -15.3518 C   0  0  0  0  0  0  0  0  0  0  0  0
   19.7284   -7.6909  -16.0714 C   0  0  0  0  0  0  0  0  0  0  0  0
   20.0405   -7.7010  -17.2875 O   0  0  0  0  0  0  0  0  0  0  0  0
   16.4008   -4.2869  -17.0297 C   0  0  0  0  0  0  0  0  0  0  0  0
   16.9809   -5.4797  -16.3154 C   0  0  1  0  0  0  0  0  0  0  0  0
   16.4600   -6.6525  -16.9030 O   0  0  0  0  0  0  0  0  0  0  0  0
   18.4969   -5.5264  -16.4522 C   0  0  2  0  0  0  0  0  0  0  0  0
   18.9536   -6.6111  -15.5851 N   0  0  0  0  0  0  0  0  0  0  0  0
   19.1322   -4.2885  -15.9812 C   0  0  0  0  0  0  0  0  0  0  0  0
   19.6346   -3.3105  -16.8232 O   0  0  0  0  0  0  0  0  0  0  0  0
   19.2284   -4.1005  -14.7400 O   0  0  0  0  0  0  0  0  0  0  0  0
  2  1  1  1
  2  3  1  0
  4  8  1  0
  4  3  1  0
  5  4  2  0
  6  2  1  0
  7  6  2  0
  9  6  1  0
 10 11  1  6
 10  9  1  0
 11 12  1  0
 12 17  2  0
 13 14  2  0
 13 12  1  0
 14 15  1  0
 15 16  2  0
 17 16  1  0
 18 24  1  0
 18 10  1  0
 19 18  2  0
 21 20  1  6
 21 22  1  0
 23 21  1  0
 23 24  1  1
 25 23  1  0
 25 26  1  0
 27 25  2  0
M  END
$$$$
