GII.pdb
     RDKit          3D

 21 20  0  0  1  0  0  0  0  0999 V2000
    6.5768  -20.1650   22.3120 N   0  0  0  0  0  0  0  0  0  0  0  0
    6.2879  -18.8645   22.8746 C   0  0  0  0  0  0  0  0  0  0  0  0
    7.3048  -17.8563   22.4754 C   0  0  0  0  0  0  0  0  0  0  0  0
    8.5240  -18.1615   22.4989 O   0  0  0  0  0  0  0  0  0  0  0  0
    7.8236  -12.0914   19.9467 C   0  0  0  0  0  0  0  0  0  0  0  0
    8.4108  -13.3396   20.5517 C   0  0  0  0  0  0  0  0  0  0  0  0
    7.3908  -14.3062   21.0716 C   0  0  2  0  0  0  0  0  0  0  0  0
    6.3078  -13.6605   21.8675 C   0  0  0  0  0  0  0  0  0  0  0  0
    7.9349  -15.5367   21.7247 C   0  0  2  0  0  0  0  0  0  0  0  0
    6.9735  -16.5431   22.0611 N   0  0  0  0  0  0  0  0  0  0  0  0
    8.6398  -15.1005   22.9687 C   0  0  0  0  0  0  0  0  0  0  0  0
    9.5856  -14.2482   22.8860 O   0  0  0  0  0  0  0  0  0  0  0  0
    7.0313  -11.7439   27.0137 C   0  0  0  0  0  0  0  0  0  0  0  0
    8.0764  -12.7137   26.6270 C   0  0  0  0  0  0  0  0  0  0  0  0
    7.8122  -13.7507   25.6288 C   0  0  2  0  0  0  0  0  0  0  0  0
    6.3766  -14.3073   25.7735 C   0  0  0  0  0  0  0  0  0  0  0  0
    8.7846  -14.8729   25.4922 C   0  0  2  0  0  0  0  0  0  0  0  0
    8.3076  -15.5905   24.2466 N   0  0  0  0  0  0  0  0  0  0  0  0
    8.7593  -15.8248   26.5916 C   0  0  0  0  0  0  0  0  0  0  0  0
    9.5417  -15.7925   27.7161 O   0  0  0  0  0  0  0  0  0  0  0  0
    7.9403  -16.8101   26.5312 O   0  0  0  0  0  0  0  0  0  0  0  0
  1  2  1  0
  2  3  1  0
  3 10  1  0
  4  3  2  0
  5  6  1  0
  7  8  1  1
  7  6  1  0
  9  7  1  0
  9 10  1  1
 11  9  1  0
 12 11  2  0
 13 14  1  0
 15 17  1  0
 15 14  1  0
 15 16  1  1
 17 18  1  6
 18 11  1  0
 19 17  1  0
 20 19  1  0
 21 19  2  0
M  END
$$$$
