GII.pdb
     RDKit          3D

 21 20  0  0  1  0  0  0  0  0999 V2000
    7.0091  -14.5070   19.9549 N   0  0  0  0  0  0  0  0  0  0  0  0
    6.3255  -14.6757   21.2181 C   0  0  0  0  0  0  0  0  0  0  0  0
    7.2495  -14.4991   22.3692 C   0  0  0  0  0  0  0  0  0  0  0  0
    8.4912  -14.5603   22.1836 O   0  0  0  0  0  0  0  0  0  0  0  0
    5.9473  -11.1341   26.6097 C   0  0  0  0  0  0  0  0  0  0  0  0
    6.6027  -11.9107   25.4979 C   0  0  0  0  0  0  0  0  0  0  0  0
    7.1616  -13.2344   25.9225 C   0  0  2  0  0  0  0  0  0  0  0  0
    8.1082  -13.1419   27.0709 C   0  0  0  0  0  0  0  0  0  0  0  0
    7.6707  -14.1086   24.8210 C   0  0  2  0  0  0  0  0  0  0  0  0
    6.8031  -14.2608   23.6921 N   0  0  0  0  0  0  0  0  0  0  0  0
    7.9395  -15.4540   25.4144 C   0  0  0  0  0  0  0  0  0  0  0  0
    6.9656  -16.1474   25.8600 O   0  0  0  0  0  0  0  0  0  0  0  0
   12.7380  -17.8815   23.9607 C   0  0  0  0  0  0  0  0  0  0  0  0
   11.7373  -17.3849   24.9273 C   0  0  0  0  0  0  0  0  0  0  0  0
   10.4040  -17.9829   25.0085 C   0  0  2  0  0  0  0  0  0  0  0  0
    9.7514  -18.0756   23.6095 C   0  0  0  0  0  0  0  0  0  0  0  0
    9.4310  -17.4248   25.9909 C   0  0  2  0  0  0  0  0  0  0  0  0
    9.2331  -16.0030   25.5079 N   0  0  0  0  0  0  0  0  0  0  0  0
    9.9261  -17.3659   27.3572 C   0  0  0  0  0  0  0  0  0  0  0  0
   10.0152  -18.4120   28.2379 O   0  0  0  0  0  0  0  0  0  0  0  0
   10.3191  -16.2356   27.8191 O   0  0  0  0  0  0  0  0  0  0  0  0
  1  2  1  0
  2  3  1  0
  3 10  1  0
  4  3  2  0
  5  6  1  0
  7  8  1  1
  7  6  1  0
  9  7  1  0
  9 10  1  6
 11  9  1  0
 12 11  2  0
 13 14  1  0
 15 17  1  0
 15 14  1  0
 15 16  1  6
 17 18  1  6
 18 11  1  0
 19 17  1  0
 20 19  1  0
 21 19  2  0
M  END
$$$$
