GII.pdb
     RDKit          3D

 21 20  0  0  1  0  0  0  0  0999 V2000
    5.7960  -19.6346   24.5021 N   0  0  0  0  0  0  0  0  0  0  0  0
    5.9639  -18.5749   25.4718 C   0  0  0  0  0  0  0  0  0  0  0  0
    6.6608  -17.4003   24.8849 C   0  0  0  0  0  0  0  0  0  0  0  0
    7.2790  -17.5247   23.7975 O   0  0  0  0  0  0  0  0  0  0  0  0
    5.1366  -12.4081   26.6573 C   0  0  0  0  0  0  0  0  0  0  0  0
    5.5512  -13.3812   25.5848 C   0  0  0  0  0  0  0  0  0  0  0  0
    7.0219  -13.6654   25.5513 C   0  0  2  0  0  0  0  0  0  0  0  0
    7.8330  -12.5482   24.9880 C   0  0  0  0  0  0  0  0  0  0  0  0
    7.4137  -15.0001   25.0020 C   0  0  2  0  0  0  0  0  0  0  0  0
    6.6695  -16.1209   25.4924 N   0  0  0  0  0  0  0  0  0  0  0  0
    8.8610  -15.1996   25.3185 C   0  0  0  0  0  0  0  0  0  0  0  0
    9.7424  -14.8457   24.4666 O   0  0  0  0  0  0  0  0  0  0  0  0
   10.3780  -14.3890   30.3787 C   0  0  0  0  0  0  0  0  0  0  0  0
   10.1768  -15.2120   29.1686 C   0  0  0  0  0  0  0  0  0  0  0  0
   11.0042  -15.0182   27.9771 C   0  0  2  0  0  0  0  0  0  0  0  0
   10.9858  -13.5399   27.5233 C   0  0  0  0  0  0  0  0  0  0  0  0
   10.7886  -15.9155   26.8059 C   0  0  2  0  0  0  0  0  0  0  0  0
    9.3072  -15.7669   26.5279 N   0  0  0  0  0  0  0  0  0  0  0  0
   11.0529  -17.3209   27.0711 C   0  0  0  0  0  0  0  0  0  0  0  0
   12.2841  -17.9097   27.1951 O   0  0  0  0  0  0  0  0  0  0  0  0
   10.0569  -18.1189   27.1994 O   0  0  0  0  0  0  0  0  0  0  0  0
  1  2  1  0
  2  3  1  0
  3 10  1  0
  4  3  2  0
  5  6  1  0
  7  8  1  6
  7  6  1  0
  9  7  1  0
  9 10  1  1
 11  9  1  0
 12 11  2  0
 13 14  1  0
 15 17  1  0
 15 14  1  0
 15 16  1  6
 17 18  1  1
 18 11  1  0
 19 17  1  0
 20 19  1  0
 21 19  2  0
M  END
$$$$
