GII.pdb
     RDKit          3D

 21 20  0  0  1  0  0  0  0  0999 V2000
    6.1700  -15.8491   20.5897 N   0  0  0  0  0  0  0  0  0  0  0  0
    5.8097  -15.8401   21.9903 C   0  0  0  0  0  0  0  0  0  0  0  0
    6.8977  -15.2772   22.8325 C   0  0  0  0  0  0  0  0  0  0  0  0
    8.0782  -15.2731   22.4006 O   0  0  0  0  0  0  0  0  0  0  0  0
    5.7365  -11.6212   26.9602 C   0  0  0  0  0  0  0  0  0  0  0  0
    6.4237  -12.2629   25.7834 C   0  0  0  0  0  0  0  0  0  0  0  0
    7.2904  -13.4310   26.1429 C   0  0  2  0  0  0  0  0  0  0  0  0
    8.4152  -13.0808   27.0570 C   0  0  0  0  0  0  0  0  0  0  0  0
    7.7195  -14.2976   25.0019 C   0  0  2  0  0  0  0  0  0  0  0  0
    6.6776  -14.7333   24.1216 N   0  0  0  0  0  0  0  0  0  0  0  0
    8.3955  -15.4952   25.5879 C   0  0  0  0  0  0  0  0  0  0  0  0
    7.7016  -16.3576   26.2224 O   0  0  0  0  0  0  0  0  0  0  0  0
   11.8958  -17.2869   22.1807 C   0  0  0  0  0  0  0  0  0  0  0  0
   10.9274  -17.2243   23.2944 C   0  0  0  0  0  0  0  0  0  0  0  0
   11.3745  -17.2666   24.6873 C   0  0  2  0  0  0  0  0  0  0  0  0
   12.2252  -18.5293   24.9588 C   0  0  0  0  0  0  0  0  0  0  0  0
   10.3611  -17.0907   25.7668 C   0  0  2  0  0  0  0  0  0  0  0  0
    9.7806  -15.7230   25.4729 N   0  0  0  0  0  0  0  0  0  0  0  0
   10.9164  -17.0591   27.1107 C   0  0  0  0  0  0  0  0  0  0  0  0
   11.0091  -18.1148   27.9795 O   0  0  0  0  0  0  0  0  0  0  0  0
   11.3660  -15.9461   27.5627 O   0  0  0  0  0  0  0  0  0  0  0  0
  1  2  1  0
  2  3  1  0
  3 10  1  0
  4  3  2  0
  5  6  1  0
  7  8  1  6
  7  6  1  0
  9  7  1  0
  9 10  1  1
 11  9  1  0
 12 11  2  0
 13 14  1  0
 15 17  1  0
 15 14  1  0
 15 16  1  1
 17 18  1  6
 18 11  1  0
 19 17  1  0
 20 19  1  0
 21 19  2  0
M  END
$$$$
