GII.pdb
     RDKit          3D

 21 20  0  0  1  0  0  0  0  0999 V2000
    3.6541  -18.6820   21.0886 N   0  0  0  0  0  0  0  0  0  0  0  0
    4.0486  -17.7095   22.0836 C   0  0  0  0  0  0  0  0  0  0  0  0
    5.4663  -17.2958   21.9139 C   0  0  0  0  0  0  0  0  0  0  0  0
    6.3631  -18.1726   21.8301 O   0  0  0  0  0  0  0  0  0  0  0  0
    6.9856  -12.3631   19.5958 C   0  0  0  0  0  0  0  0  0  0  0  0
    6.9402  -13.8222   19.9672 C   0  0  0  0  0  0  0  0  0  0  0  0
    7.4858  -14.1245   21.3295 C   0  0  2  0  0  0  0  0  0  0  0  0
    8.8970  -13.6818   21.5190 C   0  0  0  0  0  0  0  0  0  0  0  0
    7.2404  -15.5104   21.8352 C   0  0  2  0  0  0  0  0  0  0  0  0
    5.8750  -15.9417   21.8393 N   0  0  0  0  0  0  0  0  0  0  0  0
    7.7756  -15.5721   23.2296 C   0  0  0  0  0  0  0  0  0  0  0  0
    7.2614  -14.8296   24.1307 O   0  0  0  0  0  0  0  0  0  0  0  0
    7.0152  -19.1278   26.3590 C   0  0  0  0  0  0  0  0  0  0  0  0
    7.5256  -17.8637   25.7899 C   0  0  0  0  0  0  0  0  0  0  0  0
    8.9611  -17.6397   25.6144 C   0  0  2  0  0  0  0  0  0  0  0  0
    9.7283  -17.8984   26.9321 C   0  0  0  0  0  0  0  0  0  0  0  0
    9.4129  -16.3570   25.0028 C   0  0  2  0  0  0  0  0  0  0  0  0
    8.8348  -16.4214   23.6043 N   0  0  0  0  0  0  0  0  0  0  0  0
   10.8564  -16.2263   24.8822 C   0  0  0  0  0  0  0  0  0  0  0  0
   11.6140  -16.5363   23.7831 O   0  0  0  0  0  0  0  0  0  0  0  0
   11.5190  -15.7878   25.8891 O   0  0  0  0  0  0  0  0  0  0  0  0
  1  2  1  0
  2  3  1  0
  3 10  1  0
  4  3  2  0
  5  6  1  0
  7  8  1  6
  7  6  1  0
  9  7  1  0
  9 10  1  1
 11  9  1  0
 12 11  2  0
 13 14  1  0
 15 17  1  0
 15 14  1  0
 15 16  1  1
 17 18  1  6
 18 11  1  0
 19 17  1  0
 20 19  1  0
 21 19  2  0
M  END
$$$$
