GII.pdb
     RDKit          3D

 21 20  0  0  1  0  0  0  0  0999 V2000
    5.6712  -19.5992   24.3413 N   0  0  0  0  0  0  0  0  0  0  0  0
    5.8623  -18.5498   25.3180 C   0  0  0  0  0  0  0  0  0  0  0  0
    6.6113  -17.3996   24.7473 C   0  0  0  0  0  0  0  0  0  0  0  0
    7.2213  -17.5356   23.6566 O   0  0  0  0  0  0  0  0  0  0  0  0
    5.2821  -12.2749   26.3896 C   0  0  0  0  0  0  0  0  0  0  0  0
    5.6788  -13.3504   25.4124 C   0  0  0  0  0  0  0  0  0  0  0  0
    7.1371  -13.6933   25.4383 C   0  0  2  0  0  0  0  0  0  0  0  0
    8.0136  -12.6148   24.8980 C   0  0  0  0  0  0  0  0  0  0  0  0
    7.4958  -15.0478   24.9153 C   0  0  2  0  0  0  0  0  0  0  0  0
    6.6796  -16.1313   25.3740 N   0  0  0  0  0  0  0  0  0  0  0  0
    8.9156  -15.3085   25.3034 C   0  0  0  0  0  0  0  0  0  0  0  0
    9.8545  -14.9615   24.5123 O   0  0  0  0  0  0  0  0  0  0  0  0
   10.0794  -14.2422   30.3144 C   0  0  0  0  0  0  0  0  0  0  0  0
    9.9417  -15.1416   29.1505 C   0  0  0  0  0  0  0  0  0  0  0  0
   10.8653  -15.0583   28.0183 C   0  0  2  0  0  0  0  0  0  0  0  0
   10.9065  -13.6245   27.4402 C   0  0  0  0  0  0  0  0  0  0  0  0
   10.7308  -16.0514   26.9142 C   0  0  2  0  0  0  0  0  0  0  0  0
    9.2745  -15.9273   26.5167 N   0  0  0  0  0  0  0  0  0  0  0  0
   10.9667  -17.4293   27.3155 C   0  0  0  0  0  0  0  0  0  0  0  0
   12.1847  -18.0157   27.5404 O   0  0  0  0  0  0  0  0  0  0  0  0
    9.9565  -18.2030   27.4762 O   0  0  0  0  0  0  0  0  0  0  0  0
  1  2  1  0
  2  3  1  0
  3 10  1  0
  4  3  2  0
  5  6  1  0
  7  8  1  6
  7  6  1  0
  9  7  1  0
  9 10  1  1
 11  9  1  0
 12 11  2  0
 13 14  1  0
 15 17  1  0
 15 14  1  0
 15 16  1  6
 17 18  1  1
 18 11  1  0
 19 17  1  0
 20 19  1  0
 21 19  2  0
M  END
$$$$
