GII.pdb
     RDKit          3D

 21 20  0  0  1  0  0  0  0  0999 V2000
    5.6080  -19.3206   23.6632 N   0  0  0  0  0  0  0  0  0  0  0  0
    5.8517  -18.4004   24.7519 C   0  0  0  0  0  0  0  0  0  0  0  0
    6.4719  -17.1370   24.2733 C   0  0  0  0  0  0  0  0  0  0  0  0
    6.9391  -17.0774   23.1078 O   0  0  0  0  0  0  0  0  0  0  0  0
    5.1597  -12.2445   26.6128 C   0  0  0  0  0  0  0  0  0  0  0  0
    5.5184  -13.2073   25.5113 C   0  0  0  0  0  0  0  0  0  0  0  0
    6.9751  -13.5522   25.4499 C   0  0  2  0  0  0  0  0  0  0  0  0
    7.8456  -12.4016   25.0732 C   0  0  0  0  0  0  0  0  0  0  0  0
    7.3159  -14.8043   24.7063 C   0  0  2  0  0  0  0  0  0  0  0  0
    6.5695  -15.9706   25.0708 N   0  0  0  0  0  0  0  0  0  0  0  0
    8.7706  -15.0670   24.9287 C   0  0  0  0  0  0  0  0  0  0  0  0
    9.6333  -14.4555   24.2149 O   0  0  0  0  0  0  0  0  0  0  0  0
   10.8634  -13.8809   30.0198 C   0  0  0  0  0  0  0  0  0  0  0  0
   11.2079  -14.6153   28.7852 C   0  0  0  0  0  0  0  0  0  0  0  0
   10.1651  -15.1376   27.9011 C   0  0  2  0  0  0  0  0  0  0  0  0
    9.2335  -16.1130   28.6577 C   0  0  0  0  0  0  0  0  0  0  0  0
   10.5695  -15.7275   26.5927 C   0  0  2  0  0  0  0  0  0  0  0  0
    9.2438  -15.9693   25.9011 N   0  0  0  0  0  0  0  0  0  0  0  0
   11.2561  -17.0052   26.6981 C   0  0  0  0  0  0  0  0  0  0  0  0
   12.6056  -17.1961   26.8413 O   0  0  0  0  0  0  0  0  0  0  0  0
   10.5604  -18.0816   26.6474 O   0  0  0  0  0  0  0  0  0  0  0  0
  1  2  1  0
  2  3  1  0
  3 10  1  0
  4  3  2  0
  5  6  1  0
  7  8  1  6
  7  6  1  0
  9  7  1  0
  9 10  1  1
 11  9  1  0
 12 11  2  0
 13 14  1  0
 15 17  1  0
 15 14  1  0
 15 16  1  1
 17 18  1  6
 18 11  1  0
 19 17  1  0
 20 19  1  0
 21 19  2  0
M  END
$$$$
