GII.pdb
     RDKit          3D

 21 20  0  0  1  0  0  0  0  0999 V2000
    7.5028  -15.3254   20.3871 N   0  0  0  0  0  0  0  0  0  0  0  0
    6.7708  -15.3428   21.6343 C   0  0  0  0  0  0  0  0  0  0  0  0
    7.6421  -14.9911   22.7862 C   0  0  0  0  0  0  0  0  0  0  0  0
    8.8892  -15.1085   22.6799 O   0  0  0  0  0  0  0  0  0  0  0  0
    5.8203  -11.3414   26.6284 C   0  0  0  0  0  0  0  0  0  0  0  0
    6.6855  -12.0689   25.6328 C   0  0  0  0  0  0  0  0  0  0  0  0
    7.3390  -13.3028   26.1762 C   0  0  2  0  0  0  0  0  0  0  0  0
    8.2389  -13.0404   27.3358 C   0  0  0  0  0  0  0  0  0  0  0  0
    7.9526  -14.2141   25.1613 C   0  0  2  0  0  0  0  0  0  0  0  0
    7.1388  -14.5212   24.0239 N   0  0  0  0  0  0  0  0  0  0  0  0
    8.3055  -15.4844   25.8657 C   0  0  0  0  0  0  0  0  0  0  0  0
    7.3731  -16.2542   26.2729 O   0  0  0  0  0  0  0  0  0  0  0  0
   12.5604  -19.6493   24.9747 C   0  0  0  0  0  0  0  0  0  0  0  0
   11.5817  -19.0730   25.9193 C   0  0  0  0  0  0  0  0  0  0  0  0
   10.9364  -17.7879   25.6478 C   0  0  2  0  0  0  0  0  0  0  0  0
   11.9850  -16.6970   25.3279 C   0  0  0  0  0  0  0  0  0  0  0  0
    9.9411  -17.2686   26.6292 C   0  0  2  0  0  0  0  0  0  0  0  0
    9.6356  -15.8804   26.1061 N   0  0  0  0  0  0  0  0  0  0  0  0
   10.4512  -17.1313   27.9843 C   0  0  0  0  0  0  0  0  0  0  0  0
   10.5260  -18.1192   28.9311 O   0  0  0  0  0  0  0  0  0  0  0  0
   10.8738  -15.9825   28.3673 O   0  0  0  0  0  0  0  0  0  0  0  0
  1  2  1  0
  2  3  1  0
  3 10  1  0
  4  3  2  0
  5  6  1  0
  7  8  1  1
  7  6  1  0
  9  7  1  0
  9 10  1  6
 11  9  1  0
 12 11  2  0
 13 14  1  0
 15 17  1  0
 15 14  1  0
 15 16  1  1
 17 18  1  6
 18 11  1  0
 19 17  1  0
 20 19  1  0
 21 19  2  0
M  END
$$$$
