GII.pdb
     RDKit          3D

 21 20  0  0  1  0  0  0  0  0999 V2000
    6.2828  -17.7982   22.0883 N   0  0  0  0  0  0  0  0  0  0  0  0
    5.9263  -17.2729   23.3877 C   0  0  0  0  0  0  0  0  0  0  0  0
    6.9731  -16.3589   23.9154 C   0  0  0  0  0  0  0  0  0  0  0  0
    8.1339  -16.4012   23.4349 O   0  0  0  0  0  0  0  0  0  0  0  0
    5.6047  -11.6043   26.5988 C   0  0  0  0  0  0  0  0  0  0  0  0
    6.3187  -12.5644   25.6838 C   0  0  0  0  0  0  0  0  0  0  0  0
    7.2850  -13.4718   26.3822 C   0  0  2  0  0  0  0  0  0  0  0  0
    8.3987  -12.7490   27.0609 C   0  0  0  0  0  0  0  0  0  0  0  0
    7.7561  -14.6513   25.5925 C   0  0  2  0  0  0  0  0  0  0  0  0
    6.7343  -15.4224   24.9508 N   0  0  0  0  0  0  0  0  0  0  0  0
    8.5171  -15.5334   26.5291 C   0  0  0  0  0  0  0  0  0  0  0  0
    7.8793  -16.2642   27.3580 O   0  0  0  0  0  0  0  0  0  0  0  0
   14.0638  -16.1630   25.5179 C   0  0  0  0  0  0  0  0  0  0  0  0
   12.8810  -15.9634   26.3802 C   0  0  0  0  0  0  0  0  0  0  0  0
   11.8303  -16.9783   26.4676 C   0  0  2  0  0  0  0  0  0  0  0  0
   11.3889  -17.4429   25.0601 C   0  0  0  0  0  0  0  0  0  0  0  0
   10.6339  -16.6948   27.3113 C   0  0  2  0  0  0  0  0  0  0  0  0
    9.9239  -15.5996   26.5428 N   0  0  0  0  0  0  0  0  0  0  0  0
   10.9431  -16.1803   28.6361 C   0  0  0  0  0  0  0  0  0  0  0  0
   11.4152  -16.9019   29.7011 O   0  0  0  0  0  0  0  0  0  0  0  0
   10.7595  -14.9322   28.8677 O   0  0  0  0  0  0  0  0  0  0  0  0
  1  2  1  0
  2  3  1  0
  3 10  1  0
  4  3  2  0
  5  6  1  0
  7  8  1  6
  7  6  1  0
  9  7  1  0
  9 10  1  1
 11  9  1  0
 12 11  2  0
 13 14  1  0
 15 17  1  0
 15 14  1  0
 15 16  1  6
 17 18  1  6
 18 11  1  0
 19 17  1  0
 20 19  1  0
 21 19  2  0
M  END
$$$$
