GII.pdb
     RDKit          3D

 21 20  0  0  1  0  0  0  0  0999 V2000
    5.6651  -18.6333   22.6134 N   0  0  0  0  0  0  0  0  0  0  0  0
    5.6345  -17.9293   23.8763 C   0  0  0  0  0  0  0  0  0  0  0  0
    6.6799  -16.8745   23.9413 C   0  0  0  0  0  0  0  0  0  0  0  0
    7.6208  -16.8807   23.1078 O   0  0  0  0  0  0  0  0  0  0  0  0
    5.5254  -11.9608   26.1457 C   0  0  0  0  0  0  0  0  0  0  0  0
    6.1409  -12.9640   25.2056 C   0  0  0  0  0  0  0  0  0  0  0  0
    7.3883  -13.6082   25.7289 C   0  0  2  0  0  0  0  0  0  0  0  0
    8.5450  -12.6730   25.8321 C   0  0  0  0  0  0  0  0  0  0  0  0
    7.7551  -14.9168   25.1044 C   0  0  2  0  0  0  0  0  0  0  0  0
    6.6780  -15.8398   24.9085 N   0  0  0  0  0  0  0  0  0  0  0  0
    8.7866  -15.5502   25.9817 C   0  0  0  0  0  0  0  0  0  0  0  0
    8.4136  -16.2648   26.9706 O   0  0  0  0  0  0  0  0  0  0  0  0
   10.4275  -13.7079   29.6138 C   0  0  0  0  0  0  0  0  0  0  0  0
   10.8181  -14.2299   28.2882 C   0  0  0  0  0  0  0  0  0  0  0  0
   10.8218  -15.6674   28.0137 C   0  0  2  0  0  0  0  0  0  0  0  0
   11.6688  -16.4298   29.0591 C   0  0  0  0  0  0  0  0  0  0  0  0
   11.1684  -16.1297   26.6390 C   0  0  2  0  0  0  0  0  0  0  0  0
   10.1701  -15.3954   25.7682 N   0  0  0  0  0  0  0  0  0  0  0  0
   10.9838  -17.5559   26.4221 C   0  0  0  0  0  0  0  0  0  0  0  0
    9.7888  -18.2101   26.2739 O   0  0  0  0  0  0  0  0  0  0  0  0
   12.0218  -18.3075   26.3669 O   0  0  0  0  0  0  0  0  0  0  0  0
  1  2  1  0
  2  3  1  0
  3 10  1  0
  4  3  2  0
  5  6  1  0
  7  8  1  6
  7  6  1  0
  9  7  1  0
  9 10  1  1
 11  9  1  0
 12 11  2  0
 13 14  1  0
 15 17  1  0
 15 14  1  0
 15 16  1  1
 17 18  1  6
 18 11  1  0
 19 17  1  0
 20 19  1  0
 21 19  2  0
M  END
$$$$
