GII.pdb
     RDKit          3D

 21 20  0  0  1  0  0  0  0  0999 V2000
    5.3041  -19.6225   25.4746 N   0  0  0  0  0  0  0  0  0  0  0  0
    5.9718  -18.5699   26.2079 C   0  0  0  0  0  0  0  0  0  0  0  0
    6.0160  -17.3035   25.4306 C   0  0  0  0  0  0  0  0  0  0  0  0
    5.6000  -17.2882   24.2445 O   0  0  0  0  0  0  0  0  0  0  0  0
    6.4210  -12.1481   27.8534 C   0  0  0  0  0  0  0  0  0  0  0  0
    5.9891  -13.2198   26.8870 C   0  0  0  0  0  0  0  0  0  0  0  0
    7.0673  -13.6681   25.9482 C   0  0  2  0  0  0  0  0  0  0  0  0
    7.6071  -12.5728   25.0924 C   0  0  0  0  0  0  0  0  0  0  0  0
    6.7802  -14.9174   25.1776 C   0  0  2  0  0  0  0  0  0  0  0  0
    6.5103  -16.0861   25.9596 N   0  0  0  0  0  0  0  0  0  0  0  0
    7.9644  -15.1782   24.3035 C   0  0  0  0  0  0  0  0  0  0  0  0
    8.8444  -16.0229   24.6776 O   0  0  0  0  0  0  0  0  0  0  0  0
    7.3499  -12.5179   19.6251 C   0  0  0  0  0  0  0  0  0  0  0  0
    7.4910  -13.7204   20.4714 C   0  0  0  0  0  0  0  0  0  0  0  0
    8.8109  -14.2444   20.8250 C   0  0  2  0  0  0  0  0  0  0  0  0
    9.5412  -14.7958   19.5783 C   0  0  0  0  0  0  0  0  0  0  0  0
    8.9135  -15.2177   21.9501 C   0  0  2  0  0  0  0  0  0  0  0  0
    8.1607  -14.5288   23.0693 N   0  0  0  0  0  0  0  0  0  0  0  0
   10.2716  -15.4603   22.4106 C   0  0  0  0  0  0  0  0  0  0  0  0
   11.0226  -16.5829   22.1790 O   0  0  0  0  0  0  0  0  0  0  0  0
   10.8516  -14.5575   23.1132 O   0  0  0  0  0  0  0  0  0  0  0  0
  1  2  1  0
  2  3  1  0
  3 10  1  0
  4  3  2  0
  5  6  1  0
  7  8  1  6
  7  6  1  0
  9  7  1  0
  9 10  1  1
 11  9  1  0
 12 11  2  0
 13 14  1  0
 15 17  1  0
 15 14  1  0
 15 16  1  6
 17 18  1  1
 18 11  1  0
 19 17  1  0
 20 19  1  0
 21 19  2  0
M  END
$$$$
