DQG.pdb
     RDKit          3D

 22 21  0  0  1  0  0  0  0  0999 V2000
   17.8891  -12.8312  -15.9137 N   0  0  0  0  0  0  0  0  0  0  0  0
   18.0490  -11.4205  -16.0273 C   0  0  1  0  0  0  0  0  0  0  0  0
   16.9923  -10.7143  -15.1842 C   0  0  0  0  0  0  0  0  0  0  0  0
   15.6583  -11.1025  -15.6794 C   0  0  0  0  0  0  0  0  0  0  0  0
   15.3379  -10.9288  -16.8764 O   0  0  0  0  0  0  0  0  0  0  0  0
   19.3808  -11.0321  -15.4458 C   0  0  0  0  0  0  0  0  0  0  0  0
   20.0308  -11.9182  -14.8467 O   0  0  0  0  0  0  0  0  0  0  0  0
   14.7518  -11.6633  -14.8043 O   0  0  0  0  0  0  0  0  0  0  0  0
   23.2137  -12.3285  -15.2063 N   0  0  0  0  0  0  0  0  0  0  0  0
   24.0512  -11.2252  -15.4149 C   0  0  0  0  0  0  0  0  0  0  0  0
   25.2325  -11.2192  -15.0556 O   0  0  0  0  0  0  0  0  0  0  0  0
   23.5198   -9.9893  -16.1023 C   0  0  0  0  0  0  0  0  0  0  0  0
   22.0578  -10.1826  -16.4042 C   0  0  0  0  0  0  0  0  0  0  0  0
   21.2072   -9.3430  -15.4936 C   0  0  2  0  0  0  0  0  0  0  0  0
   19.8043   -9.6948  -15.6155 N   0  0  0  0  0  0  0  0  0  0  0  0
   21.4429   -7.9116  -15.6217 C   0  0  0  0  0  0  0  0  0  0  0  0
   21.4130   -7.3460  -16.7391 O   0  0  0  0  0  0  0  0  0  0  0  0
   21.7212   -7.0867  -14.4620 N   0  0  0  0  0  0  0  0  0  0  0  0
   21.9595   -5.6757  -14.6683 C   0  0  0  0  0  0  0  0  0  0  0  0
   22.3749   -5.0025  -13.4227 C   0  0  0  0  0  0  0  0  0  0  0  0
   22.3831   -5.6664  -12.2060 O   0  0  0  0  0  0  0  0  0  0  0  0
   22.7377   -3.7961  -13.4239 O   0  0  0  0  0  0  0  0  0  0  0  0
  2  1  1  1
  3  2  1  0
  4  3  1  0
  4  8  1  0
  5  4  2  0
  6 15  1  0
  6  2  1  0
  7  6  2  0
  9 10  1  0
 10 12  1  0
 11 10  2  0
 12 13  1  0
 14 13  1  6
 14 16  1  0
 14 15  1  0
 16 18  1  0
 17 16  2  0
 18 19  1  0
 20 19  1  0
 20 21  1  0
 22 20  2  0
M  END
$$$$
