DQG.pdb
     RDKit          3D

 22 21  0  0  1  0  0  0  0  0999 V2000
   19.6342  -13.0241  -20.6092 N   0  0  0  0  0  0  0  0  0  0  0  0
   20.2904  -12.1559  -19.6903 C   0  0  1  0  0  0  0  0  0  0  0  0
   21.1817  -11.1807  -20.4523 C   0  0  0  0  0  0  0  0  0  0  0  0
   22.3957  -11.8954  -20.8892 C   0  0  0  0  0  0  0  0  0  0  0  0
   22.5823  -13.0955  -20.5881 O   0  0  0  0  0  0  0  0  0  0  0  0
   19.2570  -11.3201  -18.9859 C   0  0  0  0  0  0  0  0  0  0  0  0
   18.3218  -10.8544  -19.6753 O   0  0  0  0  0  0  0  0  0  0  0  0
   23.3389  -11.2249  -21.6395 O   0  0  0  0  0  0  0  0  0  0  0  0
   16.6590  -13.0315  -13.9598 N   0  0  0  0  0  0  0  0  0  0  0  0
   15.8356  -12.6327  -15.0206 C   0  0  0  0  0  0  0  0  0  0  0  0
   14.6628  -13.0065  -15.1190 O   0  0  0  0  0  0  0  0  0  0  0  0
   16.3720  -11.7132  -16.0925 C   0  0  0  0  0  0  0  0  0  0  0  0
   17.8070  -11.3796  -15.7836 C   0  0  0  0  0  0  0  0  0  0  0  0
   18.3785  -10.4579  -16.8235 C   0  0  2  0  0  0  0  0  0  0  0  0
   19.4145  -11.1183  -17.5963 N   0  0  0  0  0  0  0  0  0  0  0  0
   18.8030   -9.1679  -16.2977 C   0  0  0  0  0  0  0  0  0  0  0  0
   19.9772   -8.9823  -15.9026 O   0  0  0  0  0  0  0  0  0  0  0  0
   17.8837   -8.0497  -16.2108 N   0  0  0  0  0  0  0  0  0  0  0  0
   18.3905   -6.7842  -15.7293 C   0  0  0  0  0  0  0  0  0  0  0  0
   17.3400   -5.7484  -15.7014 C   0  0  0  0  0  0  0  0  0  0  0  0
   16.0697   -5.9883  -16.2015 O   0  0  0  0  0  0  0  0  0  0  0  0
   17.5639   -4.6061  -15.2196 O   0  0  0  0  0  0  0  0  0  0  0  0
  2  1  1  6
  3  2  1  0
  4  3  1  0
  4  8  1  0
  5  4  2  0
  6 15  1  0
  6  2  1  0
  7  6  2  0
  9 10  1  0
 10 12  1  0
 11 10  2  0
 12 13  1  0
 14 13  1  1
 14 16  1  0
 14 15  1  0
 16 18  1  0
 17 16  2  0
 18 19  1  0
 20 19  1  0
 20 21  1  0
 22 20  2  0
M  END
$$$$
