DQG.pdb
     RDKit          3D

 22 21  0  0  1  0  0  0  0  0999 V2000
   19.6631  -21.6555  -11.6249 N   0  0  0  0  0  0  0  0  0  0  0  0
   19.8976  -21.7078  -13.0289 C   0  0  1  0  0  0  0  0  0  0  0  0
   18.7063  -21.1112  -13.7711 C   0  0  0  0  0  0  0  0  0  0  0  0
   17.6250  -22.1137  -13.8088 C   0  0  0  0  0  0  0  0  0  0  0  0
   17.8483  -23.2915  -14.1675 O   0  0  0  0  0  0  0  0  0  0  0  0
   21.0789  -20.8370  -13.3590 C   0  0  0  0  0  0  0  0  0  0  0  0
   21.1932  -19.7572  -12.7364 O   0  0  0  0  0  0  0  0  0  0  0  0
   16.3481  -21.7412  -13.4443 O   0  0  0  0  0  0  0  0  0  0  0  0
   27.7598  -21.0864  -16.4139 N   0  0  0  0  0  0  0  0  0  0  0  0
   26.6770  -21.5752  -15.6716 C   0  0  0  0  0  0  0  0  0  0  0  0
   26.5868  -22.7624  -15.3443 O   0  0  0  0  0  0  0  0  0  0  0  0
   25.5701  -20.6418  -15.2409 C   0  0  0  0  0  0  0  0  0  0  0  0
   24.2956  -21.4270  -15.0834 C   0  0  0  0  0  0  0  0  0  0  0  0
   23.1574  -20.5280  -14.6913 C   0  0  2  0  0  0  0  0  0  0  0  0
   21.9758  -21.2981  -14.3487 N   0  0  0  0  0  0  0  0  0  0  0  0
   22.8822  -19.4719  -15.6554 C   0  0  0  0  0  0  0  0  0  0  0  0
   22.1325  -19.6700  -16.6394 O   0  0  0  0  0  0  0  0  0  0  0  0
   23.4650  -18.1515  -15.5141 N   0  0  0  0  0  0  0  0  0  0  0  0
   23.1459  -17.1534  -16.5102 C   0  0  0  0  0  0  0  0  0  0  0  0
   23.8681  -17.3913  -17.7747 C   0  0  0  0  0  0  0  0  0  0  0  0
   23.1952  -17.6576  -18.9568 O   0  0  0  0  0  0  0  0  0  0  0  0
   25.1267  -17.3600  -17.8220 O   0  0  0  0  0  0  0  0  0  0  0  0
  2  1  1  1
  3  2  1  0
  4  3  1  0
  4  8  1  0
  5  4  2  0
  6 15  1  0
  6  2  1  0
  7  6  2  0
  9 10  1  0
 10 12  1  0
 11 10  2  0
 12 13  1  0
 14 13  1  6
 14 16  1  0
 14 15  1  0
 16 18  1  0
 17 16  2  0
 18 19  1  0
 20 19  1  0
 20 21  1  0
 22 20  2  0
M  END
$$$$
