DQG.pdb
     RDKit          3D

 22 21  0  0  1  0  0  0  0  0999 V2000
   15.9696  -10.9401  -14.3736 N   0  0  0  0  0  0  0  0  0  0  0  0
   16.3937  -10.0126  -15.3679 C   0  0  1  0  0  0  0  0  0  0  0  0
   15.5822   -8.7266  -15.2501 C   0  0  0  0  0  0  0  0  0  0  0  0
   14.2763   -8.9325  -15.9043 C   0  0  0  0  0  0  0  0  0  0  0  0
   14.0956   -9.8795  -16.7019 O   0  0  0  0  0  0  0  0  0  0  0  0
   17.8250   -9.6334  -15.1025 C   0  0  0  0  0  0  0  0  0  0  0  0
   18.1651   -9.4566  -13.9110 O   0  0  0  0  0  0  0  0  0  0  0  0
   13.2415   -8.0627  -15.6312 O   0  0  0  0  0  0  0  0  0  0  0  0
   22.2725  -11.5320  -18.8660 N   0  0  0  0  0  0  0  0  0  0  0  0
   21.7020  -12.2448  -17.8035 C   0  0  0  0  0  0  0  0  0  0  0  0
   21.8213  -13.4689  -17.6938 O   0  0  0  0  0  0  0  0  0  0  0  0
   20.9121  -11.5180  -16.7405 C   0  0  0  0  0  0  0  0  0  0  0  0
   20.9101  -10.0444  -17.0481 C   0  0  0  0  0  0  0  0  0  0  0  0
   20.1077   -9.2856  -16.0294 C   0  0  2  0  0  0  0  0  0  0  0  0
   18.6848   -9.5025  -16.2161 N   0  0  0  0  0  0  0  0  0  0  0  0
   20.4558   -7.8745  -15.9380 C   0  0  0  0  0  0  0  0  0  0  0  0
   20.1926   -7.0790  -16.8692 O   0  0  0  0  0  0  0  0  0  0  0  0
   21.1202   -7.3363  -14.7666 N   0  0  0  0  0  0  0  0  0  0  0  0
   21.4400   -5.9264  -14.7497 C   0  0  0  0  0  0  0  0  0  0  0  0
   22.1739   -5.5459  -13.5275 C   0  0  0  0  0  0  0  0  0  0  0  0
   22.7157   -4.2799  -13.3699 O   0  0  0  0  0  0  0  0  0  0  0  0
   22.3330   -6.3632  -12.5821 O   0  0  0  0  0  0  0  0  0  0  0  0
  2  1  1  1
  3  2  1  0
  4  3  1  0
  4  8  1  0
  5  4  2  0
  6 15  1  0
  6  2  1  0
  7  6  2  0
  9 10  1  0
 10 12  1  0
 11 10  2  0
 12 13  1  0
 14 13  1  6
 14 16  1  0
 14 15  1  0
 16 18  1  0
 17 16  2  0
 18 19  1  0
 20 19  1  0
 20 21  1  0
 22 20  2  0
M  END
$$$$
