DQG.pdb
     RDKit          3D

 22 21  0  0  1  0  0  0  0  0999 V2000
   16.9391   -9.7071  -15.0503 N   0  0  0  0  0  0  0  0  0  0  0  0
   17.5104   -9.7656  -13.7468 C   0  0  1  0  0  0  0  0  0  0  0  0
   18.8942   -9.1247  -13.7634 C   0  0  0  0  0  0  0  0  0  0  0  0
   19.8282  -10.0388  -14.4471 C   0  0  0  0  0  0  0  0  0  0  0  0
   21.0438   -9.7611  -14.5513 O   0  0  0  0  0  0  0  0  0  0  0  0
   16.6738   -8.9380  -12.8099 C   0  0  0  0  0  0  0  0  0  0  0  0
   16.3242   -7.8006  -13.1982 O   0  0  0  0  0  0  0  0  0  0  0  0
   19.3486  -11.2165  -14.9809 O   0  0  0  0  0  0  0  0  0  0  0  0
   12.7543  -11.6918   -9.0662 N   0  0  0  0  0  0  0  0  0  0  0  0
   12.4096  -11.1431  -10.3081 C   0  0  0  0  0  0  0  0  0  0  0  0
   11.3762  -11.4623  -10.9038 O   0  0  0  0  0  0  0  0  0  0  0  0
   13.3111  -10.1229  -10.9627 C   0  0  0  0  0  0  0  0  0  0  0  0
   14.4610   -9.8167  -10.0407 C   0  0  0  0  0  0  0  0  0  0  0  0
   15.4062   -8.8337  -10.6714 C   0  0  2  0  0  0  0  0  0  0  0  0
   16.3421   -9.5015  -11.5573 N   0  0  0  0  0  0  0  0  0  0  0  0
   16.0642   -7.9535   -9.7159 C   0  0  0  0  0  0  0  0  0  0  0  0
   17.0638   -8.3341   -9.0638 O   0  0  0  0  0  0  0  0  0  0  0  0
   15.5881   -6.6037   -9.4825 N   0  0  0  0  0  0  0  0  0  0  0  0
   16.2812   -5.7939   -8.5057 C   0  0  0  0  0  0  0  0  0  0  0  0
   15.6996   -4.4417   -8.4034 C   0  0  0  0  0  0  0  0  0  0  0  0
   16.0999   -3.5512   -7.4196 O   0  0  0  0  0  0  0  0  0  0  0  0
   14.8154   -4.0500   -9.2108 O   0  0  0  0  0  0  0  0  0  0  0  0
  2  1  1  6
  3  2  1  0
  4  3  1  0
  4  8  1  0
  5  4  2  0
  6 15  1  0
  6  2  1  0
  7  6  2  0
  9 10  1  0
 10 12  1  0
 11 10  2  0
 12 13  1  0
 14 13  1  1
 14 16  1  0
 14 15  1  0
 16 18  1  0
 17 16  2  0
 18 19  1  0
 20 19  1  0
 20 21  1  0
 22 20  2  0
M  END
$$$$
