DQG.pdb
     RDKit          3D

 22 21  0  0  1  0  0  0  0  0999 V2000
   17.8509  -11.8964  -15.3884 N   0  0  0  0  0  0  0  0  0  0  0  0
   17.8773  -10.6355  -16.0503 C   0  0  1  0  0  0  0  0  0  0  0  0
   16.6424   -9.8275  -15.6653 C   0  0  0  0  0  0  0  0  0  0  0  0
   15.4455  -10.5303  -16.1645 C   0  0  0  0  0  0  0  0  0  0  0  0
   15.3154  -10.8017  -17.3790 O   0  0  0  0  0  0  0  0  0  0  0  0
   19.0637   -9.8516  -15.5597 C   0  0  0  0  0  0  0  0  0  0  0  0
   19.2111   -9.7399  -14.3218 O   0  0  0  0  0  0  0  0  0  0  0  0
   14.4551  -10.8895  -15.2745 O   0  0  0  0  0  0  0  0  0  0  0  0
   22.5988  -11.4807  -16.3777 N   0  0  0  0  0  0  0  0  0  0  0  0
   23.6228  -10.6093  -15.9846 C   0  0  0  0  0  0  0  0  0  0  0  0
   24.6111  -10.9980  -15.3545 O   0  0  0  0  0  0  0  0  0  0  0  0
   23.5438   -9.1412  -16.3317 C   0  0  0  0  0  0  0  0  0  0  0  0
   22.2645   -8.8792  -17.0805 C   0  0  0  0  0  0  0  0  0  0  0  0
   21.1355   -8.5975  -16.1300 C   0  0  2  0  0  0  0  0  0  0  0  0
   19.9276   -9.2958  -16.5298 N   0  0  0  0  0  0  0  0  0  0  0  0
   20.9122   -7.1795  -15.8848 C   0  0  0  0  0  0  0  0  0  0  0  0
   20.1903   -6.4946  -16.6458 O   0  0  0  0  0  0  0  0  0  0  0  0
   21.5163   -6.5061  -14.7514 N   0  0  0  0  0  0  0  0  0  0  0  0
   21.2902   -5.0861  -14.6001 C   0  0  0  0  0  0  0  0  0  0  0  0
   21.9069   -4.5617  -13.3664 C   0  0  0  0  0  0  0  0  0  0  0  0
   21.9753   -3.2013  -13.1100 O   0  0  0  0  0  0  0  0  0  0  0  0
   22.3939   -5.3370  -12.5011 O   0  0  0  0  0  0  0  0  0  0  0  0
  2  1  1  1
  3  2  1  0
  4  3  1  0
  4  8  1  0
  5  4  2  0
  6 15  1  0
  6  2  1  0
  7  6  2  0
  9 10  1  0
 10 12  1  0
 11 10  2  0
 12 13  1  0
 14 13  1  6
 14 16  1  0
 14 15  1  0
 16 18  1  0
 17 16  2  0
 18 19  1  0
 20 19  1  0
 20 21  1  0
 22 20  2  0
M  END
$$$$
