DQG.pdb
     RDKit          3D

 22 21  0  0  1  0  0  0  0  0999 V2000
   19.5456  -13.7633  -18.4197 N   0  0  0  0  0  0  0  0  0  0  0  0
   19.1415  -13.4687  -17.0860 C   0  0  1  0  0  0  0  0  0  0  0  0
   20.1322  -14.0820  -16.1019 C   0  0  0  0  0  0  0  0  0  0  0  0
   19.8479  -15.5246  -15.9852 C   0  0  0  0  0  0  0  0  0  0  0  0
   18.7644  -16.0040  -16.3876 O   0  0  0  0  0  0  0  0  0  0  0  0
   19.2041  -11.9806  -16.8748 C   0  0  0  0  0  0  0  0  0  0  0  0
   20.1698  -11.3650  -17.3797 O   0  0  0  0  0  0  0  0  0  0  0  0
   20.7938  -16.3540  -15.4201 O   0  0  0  0  0  0  0  0  0  0  0  0
   14.3003   -8.8971  -14.5104 N   0  0  0  0  0  0  0  0  0  0  0  0
   14.3457   -9.6486  -15.6917 C   0  0  0  0  0  0  0  0  0  0  0  0
   13.3228   -9.9915  -16.2924 O   0  0  0  0  0  0  0  0  0  0  0  0
   15.6757  -10.0648  -16.2748 C   0  0  0  0  0  0  0  0  0  0  0  0
   16.7844   -9.5017  -15.4266 C   0  0  0  0  0  0  0  0  0  0  0  0
   18.1267   -9.9433  -15.9371 C   0  0  2  0  0  0  0  0  0  0  0  0
   18.1696  -11.3824  -16.1209 N   0  0  0  0  0  0  0  0  0  0  0  0
   19.2483   -9.4410  -15.1557 C   0  0  0  0  0  0  0  0  0  0  0  0
   19.7617  -10.1265  -14.2415 O   0  0  0  0  0  0  0  0  0  0  0  0
   19.8134   -8.1289  -15.4053 N   0  0  0  0  0  0  0  0  0  0  0  0
   20.8630   -7.6590  -14.5291 C   0  0  0  0  0  0  0  0  0  0  0  0
   21.3573   -6.3281  -14.9313 C   0  0  0  0  0  0  0  0  0  0  0  0
   22.2952   -5.6425  -14.1755 O   0  0  0  0  0  0  0  0  0  0  0  0
   20.9411   -5.7683  -15.9804 O   0  0  0  0  0  0  0  0  0  0  0  0
  2  1  1  6
  3  2  1  0
  4  3  1  0
  4  8  1  0
  5  4  2  0
  6 15  1  0
  6  2  1  0
  7  6  2  0
  9 10  1  0
 10 12  1  0
 11 10  2  0
 12 13  1  0
 14 13  1  1
 14 16  1  0
 14 15  1  0
 16 18  1  0
 17 16  2  0
 18 19  1  0
 20 19  1  0
 20 21  1  0
 22 20  2  0
M  END
$$$$
