DQG.pdb
     RDKit          3D

 22 21  0  0  1  0  0  0  0  0999 V2000
   14.5263  -11.2377  -12.8192 N   0  0  0  0  0  0  0  0  0  0  0  0
   15.7276  -10.8145  -12.1816 C   0  0  1  0  0  0  0  0  0  0  0  0
   16.8617  -10.7705  -13.2004 C   0  0  0  0  0  0  0  0  0  0  0  0
   17.1455  -12.1468  -13.6486 C   0  0  0  0  0  0  0  0  0  0  0  0
   17.4100  -13.0523  -12.8265 O   0  0  0  0  0  0  0  0  0  0  0  0
   15.5481   -9.4044  -11.6895 C   0  0  0  0  0  0  0  0  0  0  0  0
   14.9217   -8.6101  -12.4266 O   0  0  0  0  0  0  0  0  0  0  0  0
   17.1203  -12.4348  -14.9971 O   0  0  0  0  0  0  0  0  0  0  0  0
   12.8546   -7.3591   -8.0913 N   0  0  0  0  0  0  0  0  0  0  0  0
   13.7264   -6.3554   -7.6496 C   0  0  0  0  0  0  0  0  0  0  0  0
   13.3185   -5.3129   -7.1286 O   0  0  0  0  0  0  0  0  0  0  0  0
   15.2196   -6.5282   -7.7999 C   0  0  0  0  0  0  0  0  0  0  0  0
   15.5026   -7.8832   -8.3912 C   0  0  0  0  0  0  0  0  0  0  0  0
   15.8706   -7.7679   -9.8433 C   0  0  2  0  0  0  0  0  0  0  0  0
   16.0997   -9.0751  -10.4310 N   0  0  0  0  0  0  0  0  0  0  0  0
   16.9578   -6.8345  -10.1029 C   0  0  0  0  0  0  0  0  0  0  0  0
   18.0607   -6.9435   -9.5188 O   0  0  0  0  0  0  0  0  0  0  0  0
   16.8059   -5.7437  -11.0464 N   0  0  0  0  0  0  0  0  0  0  0  0
   17.9468   -4.8912  -11.2949 C   0  0  0  0  0  0  0  0  0  0  0  0
   17.7013   -3.9597  -12.4126 C   0  0  0  0  0  0  0  0  0  0  0  0
   18.6491   -3.0262  -12.8019 O   0  0  0  0  0  0  0  0  0  0  0  0
   16.6168   -3.9821  -13.0532 O   0  0  0  0  0  0  0  0  0  0  0  0
  2  1  1  6
  3  2  1  0
  4  3  1  0
  4  8  1  0
  5  4  2  0
  6 15  1  0
  6  2  1  0
  7  6  2  0
  9 10  1  0
 10 12  1  0
 11 10  2  0
 12 13  1  0
 14 13  1  1
 14 16  1  0
 14 15  1  0
 16 18  1  0
 17 16  2  0
 18 19  1  0
 20 19  1  0
 20 21  1  0
 22 20  2  0
M  END
$$$$
