DQG.pdb
     RDKit          3D

 22 21  0  0  1  0  0  0  0  0999 V2000
   21.8865  -11.2348  -19.6324 N   0  0  0  0  0  0  0  0  0  0  0  0
   22.5866  -10.6707  -18.5276 C   0  0  1  0  0  0  0  0  0  0  0  0
   23.9024  -10.0671  -19.0075 C   0  0  0  0  0  0  0  0  0  0  0  0
   24.7986  -11.1622  -19.4237 C   0  0  0  0  0  0  0  0  0  0  0  0
   24.7775  -12.2703  -18.8428 O   0  0  0  0  0  0  0  0  0  0  0  0
   21.7792   -9.5311  -17.9689 C   0  0  0  0  0  0  0  0  0  0  0  0
   21.4317   -8.6259  -18.7605 O   0  0  0  0  0  0  0  0  0  0  0  0
   25.6742  -10.9557  -20.4691 O   0  0  0  0  0  0  0  0  0  0  0  0
   17.1163  -10.1920  -14.2680 N   0  0  0  0  0  0  0  0  0  0  0  0
   17.1646   -8.7979  -14.3965 C   0  0  0  0  0  0  0  0  0  0  0  0
   16.2155   -8.0751  -14.0781 O   0  0  0  0  0  0  0  0  0  0  0  0
   18.4068   -8.1290  -14.9364 C   0  0  0  0  0  0  0  0  0  0  0  0
   19.3562   -9.1833  -15.4393 C   0  0  0  0  0  0  0  0  0  0  0  0
   20.5994   -8.5583  -16.0061 C   0  0  2  0  0  0  0  0  0  0  0  0
   21.4704   -9.5616  -16.5904 N   0  0  0  0  0  0  0  0  0  0  0  0
   21.2950   -7.6814  -15.0744 C   0  0  0  0  0  0  0  0  0  0  0  0
   22.1271   -8.1339  -14.2546 O   0  0  0  0  0  0  0  0  0  0  0  0
   21.0511   -6.2519  -15.0595 N   0  0  0  0  0  0  0  0  0  0  0  0
   21.7846   -5.4434  -14.1116 C   0  0  0  0  0  0  0  0  0  0  0  0
   21.4785   -4.0080  -14.2637 C   0  0  0  0  0  0  0  0  0  0  0  0
   21.9897   -3.0597  -13.3916 O   0  0  0  0  0  0  0  0  0  0  0  0
   20.7388   -3.5948  -15.1961 O   0  0  0  0  0  0  0  0  0  0  0  0
  2  1  1  6
  3  2  1  0
  4  3  1  0
  4  8  1  0
  5  4  2  0
  6 15  1  0
  6  2  1  0
  7  6  2  0
  9 10  1  0
 10 12  1  0
 11 10  2  0
 12 13  1  0
 14 13  1  1
 14 16  1  0
 14 15  1  0
 16 18  1  0
 17 16  2  0
 18 19  1  0
 20 19  1  0
 20 21  1  0
 22 20  2  0
M  END
$$$$
