DQG.pdb
     RDKit          3D

 22 21  0  0  1  0  0  0  0  0999 V2000
   16.2360   -9.5648  -15.1235 N   0  0  0  0  0  0  0  0  0  0  0  0
   16.9281   -8.3673  -15.4640 C   0  0  1  0  0  0  0  0  0  0  0  0
   16.3080   -7.1874  -14.7229 C   0  0  0  0  0  0  0  0  0  0  0  0
   14.9163   -7.0215  -15.1825 C   0  0  0  0  0  0  0  0  0  0  0  0
   14.6325   -7.0357  -16.4011 O   0  0  0  0  0  0  0  0  0  0  0  0
   18.3484   -8.4700  -14.9795 C   0  0  0  0  0  0  0  0  0  0  0  0
   18.5407   -8.9930  -13.8587 O   0  0  0  0  0  0  0  0  0  0  0  0
   13.9154   -6.8455  -14.2502 O   0  0  0  0  0  0  0  0  0  0  0  0
   22.1578  -11.0235  -15.7055 N   0  0  0  0  0  0  0  0  0  0  0  0
   23.2376  -10.1312  -15.6938 C   0  0  0  0  0  0  0  0  0  0  0  0
   24.3668  -10.4704  -15.3268 O   0  0  0  0  0  0  0  0  0  0  0  0
   23.0446   -8.7016  -16.1422 C   0  0  0  0  0  0  0  0  0  0  0  0
   21.6172   -8.5101  -16.5801 C   0  0  0  0  0  0  0  0  0  0  0  0
   20.7604   -8.0589  -15.4314 C   0  0  2  0  0  0  0  0  0  0  0  0
   19.3655   -7.9684  -15.8223 N   0  0  0  0  0  0  0  0  0  0  0  0
   21.2420   -6.8506  -14.7765 C   0  0  0  0  0  0  0  0  0  0  0  0
   22.3580   -6.8209  -14.2081 O   0  0  0  0  0  0  0  0  0  0  0  0
   20.4492   -5.6365  -14.7571 N   0  0  0  0  0  0  0  0  0  0  0  0
   20.9903   -4.4777  -14.0829 C   0  0  0  0  0  0  0  0  0  0  0  0
   21.8631   -3.6855  -14.9707 C   0  0  0  0  0  0  0  0  0  0  0  0
   22.4092   -2.4783  -14.5641 O   0  0  0  0  0  0  0  0  0  0  0  0
   22.1421   -4.0824  -16.1334 O   0  0  0  0  0  0  0  0  0  0  0  0
  2  1  1  1
  3  2  1  0
  4  3  1  0
  4  8  1  0
  5  4  2  0
  6 15  1  0
  6  2  1  0
  7  6  2  0
  9 10  1  0
 10 12  1  0
 11 10  2  0
 12 13  1  0
 14 13  1  6
 14 16  1  0
 14 15  1  0
 16 18  1  0
 17 16  2  0
 18 19  1  0
 20 19  1  0
 20 21  1  0
 22 20  2  0
M  END
$$$$
