DQG.pdb
     RDKit          3D

 22 21  0  0  1  0  0  0  0  0999 V2000
   17.3848  -10.9177  -14.9282 N   0  0  0  0  0  0  0  0  0  0  0  0
   17.9328   -9.9079  -15.7701 C   0  0  1  0  0  0  0  0  0  0  0  0
   17.0437   -8.6693  -15.7320 C   0  0  0  0  0  0  0  0  0  0  0  0
   15.7356   -9.0105  -16.3219 C   0  0  0  0  0  0  0  0  0  0  0  0
   15.6577   -9.6594  -17.3890 O   0  0  0  0  0  0  0  0  0  0  0  0
   19.2676   -9.4855  -15.2201 C   0  0  0  0  0  0  0  0  0  0  0  0
   19.3269   -9.1977  -14.0034 O   0  0  0  0  0  0  0  0  0  0  0  0
   14.5823   -8.6031  -15.6847 O   0  0  0  0  0  0  0  0  0  0  0  0
   24.1328  -12.3183  -16.4592 N   0  0  0  0  0  0  0  0  0  0  0  0
   24.7761  -11.2293  -15.8570 C   0  0  0  0  0  0  0  0  0  0  0  0
   25.9151  -11.3158  -15.3882 O   0  0  0  0  0  0  0  0  0  0  0  0
   24.0789   -9.8922  -15.7668 C   0  0  0  0  0  0  0  0  0  0  0  0
   22.7151  -10.0033  -16.3942 C   0  0  0  0  0  0  0  0  0  0  0  0
   21.7053   -9.1976  -15.6272 C   0  0  2  0  0  0  0  0  0  0  0  0
   20.3603   -9.4423  -16.1149 N   0  0  0  0  0  0  0  0  0  0  0  0
   22.0251   -7.7793  -15.5425 C   0  0  0  0  0  0  0  0  0  0  0  0
   21.9214   -7.0295  -16.5407 O   0  0  0  0  0  0  0  0  0  0  0  0
   22.4756   -7.1809  -14.3008 N   0  0  0  0  0  0  0  0  0  0  0  0
   22.8958   -5.7977  -14.3218 C   0  0  0  0  0  0  0  0  0  0  0  0
   21.7970   -4.8858  -13.9497 C   0  0  0  0  0  0  0  0  0  0  0  0
   20.6947   -5.3296  -13.2362 O   0  0  0  0  0  0  0  0  0  0  0  0
   21.8245   -3.6677  -14.2700 O   0  0  0  0  0  0  0  0  0  0  0  0
  2  1  1  1
  3  2  1  0
  4  3  1  0
  4  8  1  0
  5  4  2  0
  6 15  1  0
  6  2  1  0
  7  6  2  0
  9 10  1  0
 10 12  1  0
 11 10  2  0
 12 13  1  0
 14 13  1  6
 14 16  1  0
 14 15  1  0
 16 18  1  0
 17 16  2  0
 18 19  1  0
 20 19  1  0
 20 21  1  0
 22 20  2  0
M  END
$$$$
