DQG.pdb
     RDKit          3D

 22 21  0  0  1  0  0  0  0  0999 V2000
   16.9836  -14.3219  -17.2940 N   0  0  0  0  0  0  0  0  0  0  0  0
   17.4274  -13.6303  -16.1306 C   0  0  1  0  0  0  0  0  0  0  0  0
   18.6399  -14.3431  -15.5407 C   0  0  0  0  0  0  0  0  0  0  0  0
   18.1756  -15.5424  -14.8183 C   0  0  0  0  0  0  0  0  0  0  0  0
   16.9650  -15.7041  -14.5461 O   0  0  0  0  0  0  0  0  0  0  0  0
   17.8976  -12.2580  -16.5284 C   0  0  0  0  0  0  0  0  0  0  0  0
   18.4329  -12.1335  -17.6530 O   0  0  0  0  0  0  0  0  0  0  0  0
   19.0950  -16.4968  -14.4366 O   0  0  0  0  0  0  0  0  0  0  0  0
   14.7626   -7.2161  -15.9097 N   0  0  0  0  0  0  0  0  0  0  0  0
   15.9728   -6.6971  -16.3878 C   0  0  0  0  0  0  0  0  0  0  0  0
   16.0831   -5.5262  -16.7637 O   0  0  0  0  0  0  0  0  0  0  0  0
   17.2005   -7.5749  -16.4541 C   0  0  0  0  0  0  0  0  0  0  0  0
   16.8561   -8.9453  -15.9352 C   0  0  0  0  0  0  0  0  0  0  0  0
   18.0608   -9.8430  -15.9523 C   0  0  2  0  0  0  0  0  0  0  0  0
   17.7032  -11.2062  -15.6052 N   0  0  0  0  0  0  0  0  0  0  0  0
   19.1824   -9.3382  -15.1725 C   0  0  0  0  0  0  0  0  0  0  0  0
   19.1690   -9.3695  -13.9202 O   0  0  0  0  0  0  0  0  0  0  0  0
   20.3568   -8.7802  -15.8149 N   0  0  0  0  0  0  0  0  0  0  0  0
   21.4530   -8.3474  -14.9775 C   0  0  0  0  0  0  0  0  0  0  0  0
   21.1852   -7.0344  -14.3599 C   0  0  0  0  0  0  0  0  0  0  0  0
   22.0751   -6.4556  -13.4688 O   0  0  0  0  0  0  0  0  0  0  0  0
   20.1336   -6.3927  -14.6236 O   0  0  0  0  0  0  0  0  0  0  0  0
  2  1  1  6
  3  2  1  0
  4  3  1  0
  4  8  1  0
  5  4  2  0
  6 15  1  0
  6  2  1  0
  7  6  2  0
  9 10  1  0
 10 12  1  0
 11 10  2  0
 12 13  1  0
 14 13  1  1
 14 16  1  0
 14 15  1  0
 16 18  1  0
 17 16  2  0
 18 19  1  0
 20 19  1  0
 20 21  1  0
 22 20  2  0
M  END
$$$$
