WHR.pdb
     RDKit          3D

 36 38  0  0  1  0  0  0  0  0999 V2000
   27.5200  -20.8151  -15.6760 N   0  0  0  0  0  0  0  0  0  0  0  0
   26.4996  -20.6113  -14.6803 C   0  0  1  0  0  0  0  0  0  0  0  0
   26.8669  -19.4625  -13.7920 C   0  0  0  0  0  0  0  0  0  0  0  0
   28.0799  -19.6787  -12.9771 C   0  0  0  0  0  0  0  0  0  0  0  0
   29.3811  -19.3393  -13.3612 C   0  0  0  0  0  0  0  0  0  0  0  0
   30.2019  -19.6546  -12.3680 N   0  0  0  0  0  0  0  0  0  0  0  0
   29.5312  -20.1894  -11.3320 C   0  0  0  0  0  0  0  0  0  0  0  0
   29.8968  -20.6794  -10.0910 C   0  0  0  0  0  0  0  0  0  0  0  0
   28.9806  -21.1885   -9.2104 C   0  0  0  0  0  0  0  0  0  0  0  0
   27.6511  -21.2134   -9.5732 C   0  0  0  0  0  0  0  0  0  0  0  0
   27.2661  -20.7220  -10.8229 C   0  0  0  0  0  0  0  0  0  0  0  0
   28.1882  -20.2106  -11.7047 C   0  0  0  0  0  0  0  0  0  0  0  0
   25.1979  -20.2733  -15.3622 C   0  0  0  0  0  0  0  0  0  0  0  0
   25.2025  -19.5523  -16.3931 O   0  0  0  0  0  0  0  0  0  0  0  0
   23.9594  -20.7379  -14.8863 N   0  0  0  0  0  0  0  0  0  0  0  0
   22.6878  -20.4661  -15.5049 C   0  0  1  0  0  0  0  0  0  0  0  0
   22.6477  -20.9365  -16.9302 C   0  0  0  0  0  0  0  0  0  0  0  0
   21.3734  -20.6220  -17.6005 C   0  0  0  0  0  0  0  0  0  0  0  0
   20.8717  -19.3642  -17.8393 C   0  0  0  0  0  0  0  0  0  0  0  0
   19.6903  -19.5113  -18.4708 N   0  0  0  0  0  0  0  0  0  0  0  0
   19.4333  -20.8185  -18.6364 C   0  0  0  0  0  0  0  0  0  0  0  0
   20.4795  -21.4786  -18.0947 N   0  0  0  0  0  0  0  0  0  0  0  0
   21.5787  -21.2061  -14.7938 C   0  0  0  0  0  0  0  0  0  0  0  0
   21.7844  -22.3481  -14.3105 O   0  0  0  0  0  0  0  0  0  0  0  0
   24.5726  -21.0878  -10.0823 N   0  0  0  0  0  0  0  0  0  0  0  0
   23.6034  -20.8371   -9.0894 C   0  0  0  0  0  0  0  0  0  0  0  0
   23.7790  -21.3240   -7.9063 N   0  0  0  0  0  0  0  0  0  0  0  0
   22.4318  -20.0679   -9.3221 N   0  0  0  0  0  0  0  0  0  0  0  0
   22.0411  -19.5352  -10.5869 C   0  0  0  0  0  0  0  0  0  0  0  0
   20.9086  -20.2961  -11.2136 C   0  0  0  0  0  0  0  0  0  0  0  0
   20.4988  -19.6995  -12.4999 C   0  0  0  0  0  0  0  0  0  0  0  0
   19.5945  -20.6104  -13.3525 C   0  0  2  0  0  0  0  0  0  0  0  0
   20.2946  -20.6437  -14.6535 N   0  0  0  0  0  0  0  0  0  0  0  0
   18.2958  -19.9277  -13.4872 C   0  0  0  0  0  0  0  0  0  0  0  0
   17.0871  -20.3696  -13.0155 O   0  0  0  0  0  0  0  0  0  0  0  0
   18.2959  -18.8068  -14.1103 O   0  0  0  0  0  0  0  0  0  0  0  0
  2  3  1  0
  2  1  1  6
  4  3  1  0
  5  4  2  0
  6  5  1  0
  7  6  1  0
  7 12  2  0
  8  9  2  0
  8  7  1  0
  9 10  1  0
 10 11  2  0
 12 11  1  0
 12  4  1  0
 13 14  2  0
 13  2  1  0
 15 13  1  0
 16 15  1  0
 16 17  1  6
 18 22  1  0
 18 17  1  0
 19 18  2  0
 20 19  1  0
 20 21  1  0
 21 22  2  0
 23 24  2  0
 23 16  1  0
 25 26  1  0
 26 27  2  0
 28 29  1  0
 28 26  1  0
 30 29  1  0
 31 30  1  0
 32 31  1  1
 32 33  1  0
 33 23  1  0
 34 32  1  0
 35 34  1  0
 36 34  2  0
M  END
$$$$
