WHR.pdb
     RDKit          3D

 36 38  0  0  1  0  0  0  0  0999 V2000
   26.7857  -20.0671  -12.1043 N   0  0  0  0  0  0  0  0  0  0  0  0
   26.1409  -21.3486  -12.2313 C   0  0  1  0  0  0  0  0  0  0  0  0
   25.9223  -21.9531  -10.8783 C   0  0  0  0  0  0  0  0  0  0  0  0
   26.1983  -21.0442   -9.7469 C   0  0  0  0  0  0  0  0  0  0  0  0
   25.2814  -20.1465   -9.1908 C   0  0  0  0  0  0  0  0  0  0  0  0
   25.8728  -19.5230   -8.1803 N   0  0  0  0  0  0  0  0  0  0  0  0
   27.1393  -19.9463   -8.0199 C   0  0  0  0  0  0  0  0  0  0  0  0
   28.1637  -19.6273   -7.1466 C   0  0  0  0  0  0  0  0  0  0  0  0
   29.3928  -20.2260   -7.2163 C   0  0  0  0  0  0  0  0  0  0  0  0
   29.6158  -21.1772   -8.1885 C   0  0  0  0  0  0  0  0  0  0  0  0
   28.5912  -21.5106   -9.0776 C   0  0  0  0  0  0  0  0  0  0  0  0
   27.3578  -20.9084   -9.0047 C   0  0  0  0  0  0  0  0  0  0  0  0
   24.7927  -21.1662  -12.8816 C   0  0  0  0  0  0  0  0  0  0  0  0
   24.0739  -20.1843  -12.5626 O   0  0  0  0  0  0  0  0  0  0  0  0
   24.2976  -22.0621  -13.8452 N   0  0  0  0  0  0  0  0  0  0  0  0
   23.0072  -21.9591  -14.4758 C   0  0  1  0  0  0  0  0  0  0  0  0
   23.1177  -21.9252  -15.9728 C   0  0  0  0  0  0  0  0  0  0  0  0
   23.6695  -20.6551  -16.4767 C   0  0  0  0  0  0  0  0  0  0  0  0
   24.0159  -19.5631  -15.7162 C   0  0  0  0  0  0  0  0  0  0  0  0
   24.4781  -18.6145  -16.5544 N   0  0  0  0  0  0  0  0  0  0  0  0
   24.4335  -19.0737  -17.8151 C   0  0  0  0  0  0  0  0  0  0  0  0
   23.9344  -20.3264  -17.7412 N   0  0  0  0  0  0  0  0  0  0  0  0
   22.1562  -23.1649  -14.1511 C   0  0  0  0  0  0  0  0  0  0  0  0
   22.6844  -24.2971  -14.0128 O   0  0  0  0  0  0  0  0  0  0  0  0
   21.0378  -20.5596   -9.6326 N   0  0  0  0  0  0  0  0  0  0  0  0
   20.8967  -20.2084  -10.9908 C   0  0  0  0  0  0  0  0  0  0  0  0
   21.6426  -19.2725  -11.4760 N   0  0  0  0  0  0  0  0  0  0  0  0
   19.9691  -20.8363  -11.8648 N   0  0  0  0  0  0  0  0  0  0  0  0
   18.9121  -21.7010  -11.4509 C   0  0  0  0  0  0  0  0  0  0  0  0
   19.2587  -23.1544  -11.5977 C   0  0  0  0  0  0  0  0  0  0  0  0
   18.7807  -23.7003  -12.8830 C   0  0  0  0  0  0  0  0  0  0  0  0
   19.9030  -24.2425  -13.7889 C   0  0  2  0  0  0  0  0  0  0  0  0
   20.7601  -23.0566  -13.9960 N   0  0  0  0  0  0  0  0  0  0  0  0
   19.2761  -24.6493  -15.0587 C   0  0  0  0  0  0  0  0  0  0  0  0
   18.6242  -25.8290  -15.3076 O   0  0  0  0  0  0  0  0  0  0  0  0
   19.3491  -23.8156  -16.0304 O   0  0  0  0  0  0  0  0  0  0  0  0
  2  3  1  0
  2  1  1  1
  4  3  1  0
  5  4  2  0
  6  5  1  0
  7  6  1  0
  7 12  2  0
  8  9  2  0
  8  7  1  0
  9 10  1  0
 10 11  2  0
 12 11  1  0
 12  4  1  0
 13 14  2  0
 13  2  1  0
 15 13  1  0
 16 15  1  0
 16 17  1  6
 18 22  1  0
 18 17  1  0
 19 18  2  0
 20 19  1  0
 20 21  1  0
 21 22  2  0
 23 24  2  0
 23 16  1  0
 25 26  1  0
 26 27  2  0
 28 29  1  0
 28 26  1  0
 30 29  1  0
 31 30  1  0
 32 31  1  1
 32 33  1  0
 33 23  1  0
 34 32  1  0
 35 34  1  0
 36 34  2  0
M  END
$$$$
