WHR.pdb
     RDKit          3D

 36 38  0  0  1  0  0  0  0  0999 V2000
   28.5011  -19.3989  -13.1650 N   0  0  0  0  0  0  0  0  0  0  0  0
   28.0984  -20.7664  -13.3698 C   0  0  1  0  0  0  0  0  0  0  0  0
   27.2571  -21.2344  -12.2223 C   0  0  0  0  0  0  0  0  0  0  0  0
   27.9082  -21.1315  -10.9002 C   0  0  0  0  0  0  0  0  0  0  0  0
   27.3244  -20.5836   -9.7536 C   0  0  0  0  0  0  0  0  0  0  0  0
   28.1926  -20.6883   -8.7562 N   0  0  0  0  0  0  0  0  0  0  0  0
   29.3327  -21.2755   -9.1615 C   0  0  0  0  0  0  0  0  0  0  0  0
   30.5239  -21.6084   -8.5417 C   0  0  0  0  0  0  0  0  0  0  0  0
   31.5519  -22.2109   -9.2158 C   0  0  0  0  0  0  0  0  0  0  0  0
   31.3938  -22.4944  -10.5554 C   0  0  0  0  0  0  0  0  0  0  0  0
   30.1967  -22.1647  -11.1953 C   0  0  0  0  0  0  0  0  0  0  0  0
   29.1659  -21.5605  -10.5158 C   0  0  0  0  0  0  0  0  0  0  0  0
   27.2661  -20.8586  -14.6238 C   0  0  0  0  0  0  0  0  0  0  0  0
   26.4500  -19.9418  -14.8998 O   0  0  0  0  0  0  0  0  0  0  0  0
   27.3656  -21.9439  -15.5117 N   0  0  0  0  0  0  0  0  0  0  0  0
   26.5279  -22.1395  -16.6665 C   0  0  1  0  0  0  0  0  0  0  0  0
   27.0719  -23.2011  -17.5783 C   0  0  0  0  0  0  0  0  0  0  0  0
   28.1979  -22.7256  -18.4016 C   0  0  0  0  0  0  0  0  0  0  0  0
   28.7075  -21.4486  -18.4183 C   0  0  0  0  0  0  0  0  0  0  0  0
   29.7262  -21.4293  -19.3004 N   0  0  0  0  0  0  0  0  0  0  0  0
   29.8733  -22.6506  -19.8379 C   0  0  0  0  0  0  0  0  0  0  0  0
   28.9251  -23.4273  -19.2710 N   0  0  0  0  0  0  0  0  0  0  0  0
   25.1529  -22.6125  -16.2551 C   0  0  0  0  0  0  0  0  0  0  0  0
   25.0208  -23.4604  -15.3365 O   0  0  0  0  0  0  0  0  0  0  0  0
   19.0720  -23.0738  -13.5050 N   0  0  0  0  0  0  0  0  0  0  0  0
   19.4970  -22.4698  -12.3039 C   0  0  0  0  0  0  0  0  0  0  0  0
   19.0326  -22.9117  -11.1828 N   0  0  0  0  0  0  0  0  0  0  0  0
   20.4199  -21.3906  -12.2594 N   0  0  0  0  0  0  0  0  0  0  0  0
   20.9658  -20.7339  -13.4026 C   0  0  0  0  0  0  0  0  0  0  0  0
   21.0942  -21.6441  -14.5898 C   0  0  0  0  0  0  0  0  0  0  0  0
   22.4104  -21.5034  -15.2428 C   0  0  0  0  0  0  0  0  0  0  0  0
   22.6374  -22.4823  -16.4109 C   0  0  2  0  0  0  0  0  0  0  0  0
   23.9908  -22.1226  -16.8829 N   0  0  0  0  0  0  0  0  0  0  0  0
   21.6343  -22.1656  -17.4426 C   0  0  0  0  0  0  0  0  0  0  0  0
   20.4099  -22.7606  -17.6023 O   0  0  0  0  0  0  0  0  0  0  0  0
   21.9381  -21.2401  -18.2768 O   0  0  0  0  0  0  0  0  0  0  0  0
  2  3  1  0
  2  1  1  1
  4  3  1  0
  5  4  2  0
  6  5  1  0
  7  6  1  0
  7 12  2  0
  8  9  2  0
  8  7  1  0
  9 10  1  0
 10 11  2  0
 12 11  1  0
 12  4  1  0
 13 14  2  0
 13  2  1  0
 15 13  1  0
 16 15  1  0
 16 17  1  6
 18 22  1  0
 18 17  1  0
 19 18  2  0
 20 19  1  0
 20 21  1  0
 21 22  2  0
 23 24  2  0
 23 16  1  0
 25 26  1  0
 26 27  2  0
 28 29  1  0
 28 26  1  0
 30 29  1  0
 31 30  1  0
 32 31  1  1
 32 33  1  0
 33 23  1  0
 34 32  1  0
 35 34  1  0
 36 34  2  0
M  END
$$$$
