WHR.pdb
     RDKit          3D

 36 38  0  0  1  0  0  0  0  0999 V2000
   27.5582  -21.4979  -15.8964 N   0  0  0  0  0  0  0  0  0  0  0  0
   26.2789  -20.8760  -16.1222 C   0  0  1  0  0  0  0  0  0  0  0  0
   25.8271  -21.1203  -17.5292 C   0  0  0  0  0  0  0  0  0  0  0  0
   25.9259  -19.9456  -18.4196 C   0  0  0  0  0  0  0  0  0  0  0  0
   27.0588  -19.5840  -19.1557 C   0  0  0  0  0  0  0  0  0  0  0  0
   26.7675  -18.4963  -19.8568 N   0  0  0  0  0  0  0  0  0  0  0  0
   25.5014  -18.0989  -19.6374 C   0  0  0  0  0  0  0  0  0  0  0  0
   24.7210  -17.0535  -20.0977 C   0  0  0  0  0  0  0  0  0  0  0  0
   23.4261  -16.8773  -19.6903 C   0  0  0  0  0  0  0  0  0  0  0  0
   22.8833  -17.7710  -18.7922 C   0  0  0  0  0  0  0  0  0  0  0  0
   23.6585  -18.8321  -18.3184 C   0  0  0  0  0  0  0  0  0  0  0  0
   24.9582  -19.0070  -18.7299 C   0  0  0  0  0  0  0  0  0  0  0  0
   25.2579  -21.4845  -15.1943 C   0  0  0  0  0  0  0  0  0  0  0  0
   25.1268  -22.7347  -15.1447 O   0  0  0  0  0  0  0  0  0  0  0  0
   24.4332  -20.7004  -14.3690 N   0  0  0  0  0  0  0  0  0  0  0  0
   23.5156  -21.2235  -13.3904 C   0  0  1  0  0  0  0  0  0  0  0  0
   23.7480  -20.6281  -12.0317 C   0  0  0  0  0  0  0  0  0  0  0  0
   25.0100  -21.0787  -11.4183 C   0  0  0  0  0  0  0  0  0  0  0  0
   25.9301  -21.9277  -11.9869 C   0  0  0  0  0  0  0  0  0  0  0  0
   26.9367  -22.0854  -11.1049 N   0  0  0  0  0  0  0  0  0  0  0  0
   26.6797  -21.3645  -10.0020 C   0  0  0  0  0  0  0  0  0  0  0  0
   25.4933  -20.7567  -10.2184 N   0  0  0  0  0  0  0  0  0  0  0  0
   22.0907  -20.8774  -13.7553 C   0  0  0  0  0  0  0  0  0  0  0  0
   21.7857  -19.7027  -14.0825 O   0  0  0  0  0  0  0  0  0  0  0  0
   17.9559  -27.9542  -12.4600 N   0  0  0  0  0  0  0  0  0  0  0  0
   19.2741  -27.5299  -12.1946 C   0  0  0  0  0  0  0  0  0  0  0  0
   20.1276  -28.3859  -11.7403 N   0  0  0  0  0  0  0  0  0  0  0  0
   19.7197  -26.1972  -12.4038 N   0  0  0  0  0  0  0  0  0  0  0  0
   18.9631  -25.1738  -13.0491 C   0  0  0  0  0  0  0  0  0  0  0  0
   19.7280  -23.8902  -13.1960 C   0  0  0  0  0  0  0  0  0  0  0  0
   18.9624  -22.8854  -13.9594 C   0  0  0  0  0  0  0  0  0  0  0  0
   19.6758  -21.5266  -14.0966 C   0  0  2  0  0  0  0  0  0  0  0  0
   21.0726  -21.8511  -13.7392 N   0  0  0  0  0  0  0  0  0  0  0  0
   19.0865  -20.6245  -13.0918 C   0  0  0  0  0  0  0  0  0  0  0  0
   17.9886  -19.8210  -13.2583 O   0  0  0  0  0  0  0  0  0  0  0  0
   19.6597  -20.5860  -11.9452 O   0  0  0  0  0  0  0  0  0  0  0  0
  2  3  1  0
  2  1  1  6
  4  3  1  0
  5  4  2  0
  6  5  1  0
  7  6  1  0
  7 12  2  0
  8  9  2  0
  8  7  1  0
  9 10  1  0
 10 11  2  0
 12 11  1  0
 12  4  1  0
 13 14  2  0
 13  2  1  0
 15 13  1  0
 16 15  1  0
 16 17  1  1
 18 22  1  0
 18 17  1  0
 19 18  2  0
 20 19  1  0
 20 21  1  0
 21 22  2  0
 23 24  2  0
 23 16  1  0
 25 26  1  0
 26 27  2  0
 28 29  1  0
 28 26  1  0
 30 29  1  0
 31 30  1  0
 32 31  1  1
 32 33  1  0
 33 23  1  0
 34 32  1  0
 35 34  1  0
 36 34  2  0
M  END
$$$$
