WHR.pdb
     RDKit          3D

 36 38  0  0  1  0  0  0  0  0999 V2000
   28.1543  -22.0260  -10.1840 N   0  0  0  0  0  0  0  0  0  0  0  0
   27.0069  -21.2357   -9.8192 C   0  0  1  0  0  0  0  0  0  0  0  0
   27.4369  -19.8629   -9.4020 C   0  0  0  0  0  0  0  0  0  0  0  0
   28.2645  -19.8229   -8.1789 C   0  0  0  0  0  0  0  0  0  0  0  0
   29.6407  -19.5769   -8.1436 C   0  0  0  0  0  0  0  0  0  0  0  0
   30.0317  -19.5909   -6.8762 N   0  0  0  0  0  0  0  0  0  0  0  0
   28.9987  -19.8332   -6.0496 C   0  0  0  0  0  0  0  0  0  0  0  0
   28.8639  -19.9557   -4.6782 C   0  0  0  0  0  0  0  0  0  0  0  0
   27.6585  -20.2207   -4.0859 C   0  0  0  0  0  0  0  0  0  0  0  0
   26.5438  -20.3703   -4.8827 C   0  0  0  0  0  0  0  0  0  0  0  0
   26.6637  -20.2491   -6.2692 C   0  0  0  0  0  0  0  0  0  0  0  0
   27.8751  -19.9821   -6.8611 C   0  0  0  0  0  0  0  0  0  0  0  0
   26.0983  -21.0945  -11.0143 C   0  0  0  0  0  0  0  0  0  0  0  0
   26.5938  -20.9287  -12.1586 O   0  0  0  0  0  0  0  0  0  0  0  0
   24.6978  -21.1413  -10.9012 N   0  0  0  0  0  0  0  0  0  0  0  0
   23.7847  -21.1702  -12.0142 C   0  0  1  0  0  0  0  0  0  0  0  0
   22.4548  -21.7524  -11.6311 C   0  0  0  0  0  0  0  0  0  0  0  0
   21.5375  -21.8855  -12.7768 C   0  0  0  0  0  0  0  0  0  0  0  0
   21.6874  -22.7446  -13.8400 C   0  0  0  0  0  0  0  0  0  0  0  0
   20.6389  -22.5562  -14.6654 N   0  0  0  0  0  0  0  0  0  0  0  0
   19.8361  -21.6081  -14.1567 C   0  0  0  0  0  0  0  0  0  0  0  0
   20.4083  -21.2128  -12.9991 N   0  0  0  0  0  0  0  0  0  0  0  0
   23.4972  -19.7706  -12.5060 C   0  0  0  0  0  0  0  0  0  0  0  0
   22.9463  -18.9316  -11.7493 O   0  0  0  0  0  0  0  0  0  0  0  0
   27.9445  -20.0833  -16.0371 N   0  0  0  0  0  0  0  0  0  0  0  0
   27.8946  -18.8435  -16.7069 C   0  0  0  0  0  0  0  0  0  0  0  0
   28.0459  -18.8184  -17.9891 N   0  0  0  0  0  0  0  0  0  0  0  0
   27.6829  -17.6068  -16.0403 N   0  0  0  0  0  0  0  0  0  0  0  0
   27.0434  -17.4599  -14.7732 C   0  0  0  0  0  0  0  0  0  0  0  0
   25.6925  -16.8125  -14.8754 C   0  0  0  0  0  0  0  0  0  0  0  0
   24.6654  -17.7675  -15.3352 C   0  0  0  0  0  0  0  0  0  0  0  0
   23.5364  -18.0116  -14.3153 C   0  0  2  0  0  0  0  0  0  0  0  0
   23.8344  -19.3694  -13.8137 N   0  0  0  0  0  0  0  0  0  0  0  0
   22.2678  -18.0095  -15.0647 C   0  0  0  0  0  0  0  0  0  0  0  0
   21.5579  -19.1084  -15.4734 O   0  0  0  0  0  0  0  0  0  0  0  0
   21.7787  -16.8631  -15.3664 O   0  0  0  0  0  0  0  0  0  0  0  0
  2  3  1  0
  2  1  1  6
  4  3  1  0
  5  4  2  0
  6  5  1  0
  7  6  1  0
  7 12  2  0
  8  9  2  0
  8  7  1  0
  9 10  1  0
 10 11  2  0
 12 11  1  0
 12  4  1  0
 13 14  2  0
 13  2  1  0
 15 13  1  0
 16 15  1  0
 16 17  1  1
 18 22  1  0
 18 17  1  0
 19 18  2  0
 20 19  1  0
 20 21  1  0
 21 22  2  0
 23 24  2  0
 23 16  1  0
 25 26  1  0
 26 27  2  0
 28 29  1  0
 28 26  1  0
 30 29  1  0
 31 30  1  0
 32 31  1  6
 32 33  1  0
 33 23  1  0
 34 32  1  0
 35 34  1  0
 36 34  2  0
M  END
$$$$
