WHR.pdb
     RDKit          3D

 36 38  0  0  1  0  0  0  0  0999 V2000
   27.5867  -20.3133  -10.8086 N   0  0  0  0  0  0  0  0  0  0  0  0
   26.5460  -21.3023  -10.6948 C   0  0  1  0  0  0  0  0  0  0  0  0
   26.2408  -21.5672   -9.2525 C   0  0  0  0  0  0  0  0  0  0  0  0
   26.6720  -20.5000   -8.3266 C   0  0  0  0  0  0  0  0  0  0  0  0
   26.0711  -19.2427   -8.2085 C   0  0  0  0  0  0  0  0  0  0  0  0
   26.7082  -18.5662   -7.2620 N   0  0  0  0  0  0  0  0  0  0  0  0
   27.7079  -19.2931   -6.7317 C   0  0  0  0  0  0  0  0  0  0  0  0
   28.6550  -19.0658   -5.7493 C   0  0  0  0  0  0  0  0  0  0  0  0
   29.5877  -20.0069   -5.4053 C   0  0  0  0  0  0  0  0  0  0  0  0
   29.5821  -21.2200   -6.0598 C   0  0  0  0  0  0  0  0  0  0  0  0
   28.6318  -21.4648   -7.0539 C   0  0  0  0  0  0  0  0  0  0  0  0
   27.6959  -20.5183   -7.3966 C   0  0  0  0  0  0  0  0  0  0  0  0
   25.2902  -20.7821  -11.3474 C   0  0  0  0  0  0  0  0  0  0  0  0
   24.7653  -19.7176  -10.9301 O   0  0  0  0  0  0  0  0  0  0  0  0
   24.6714  -21.4476  -12.4199 N   0  0  0  0  0  0  0  0  0  0  0  0
   23.4391  -21.0358  -13.0406 C   0  0  1  0  0  0  0  0  0  0  0  0
   23.5808  -20.9012  -14.5293 C   0  0  0  0  0  0  0  0  0  0  0  0
   24.1809  -19.6171  -14.9328 C   0  0  0  0  0  0  0  0  0  0  0  0
   24.5093  -18.5770  -14.0955 C   0  0  0  0  0  0  0  0  0  0  0  0
   25.0305  -17.5932  -14.8549 N   0  0  0  0  0  0  0  0  0  0  0  0
   25.0404  -17.9803  -16.1403 C   0  0  0  0  0  0  0  0  0  0  0  0
   24.5147  -19.2241  -16.1621 N   0  0  0  0  0  0  0  0  0  0  0  0
   22.3584  -22.0686  -12.8198 C   0  0  0  0  0  0  0  0  0  0  0  0
   22.6202  -23.1460  -12.2274 O   0  0  0  0  0  0  0  0  0  0  0  0
   17.3375  -24.6039   -7.0280 N   0  0  0  0  0  0  0  0  0  0  0  0
   18.5931  -24.7950   -7.6404 C   0  0  0  0  0  0  0  0  0  0  0  0
   19.5960  -25.1575   -6.9121 N   0  0  0  0  0  0  0  0  0  0  0  0
   18.8169  -24.6098   -9.0312 N   0  0  0  0  0  0  0  0  0  0  0  0
   18.1592  -23.6379   -9.8429 C   0  0  0  0  0  0  0  0  0  0  0  0
   18.5141  -23.7584  -11.2968 C   0  0  0  0  0  0  0  0  0  0  0  0
   19.5959  -22.8267  -11.6714 C   0  0  0  0  0  0  0  0  0  0  0  0
   19.9999  -22.9014  -13.1565 C   0  0  2  0  0  0  0  0  0  0  0  0
   21.0394  -21.8568  -13.2672 N   0  0  0  0  0  0  0  0  0  0  0  0
   18.8138  -22.5293  -13.9473 C   0  0  0  0  0  0  0  0  0  0  0  0
   18.3703  -21.2588  -14.2075 O   0  0  0  0  0  0  0  0  0  0  0  0
   18.1254  -23.4920  -14.4413 O   0  0  0  0  0  0  0  0  0  0  0  0
  2  3  1  0
  2  1  1  1
  4  3  1  0
  5  4  2  0
  6  5  1  0
  7  6  1  0
  7 12  2  0
  8  9  2  0
  8  7  1  0
  9 10  1  0
 10 11  2  0
 12 11  1  0
 12  4  1  0
 13 14  2  0
 13  2  1  0
 15 13  1  0
 16 15  1  0
 16 17  1  6
 18 22  1  0
 18 17  1  0
 19 18  2  0
 20 19  1  0
 20 21  1  0
 21 22  2  0
 23 24  2  0
 23 16  1  0
 25 26  1  0
 26 27  2  0
 28 29  1  0
 28 26  1  0
 30 29  1  0
 31 30  1  0
 32 31  1  1
 32 33  1  0
 33 23  1  0
 34 32  1  0
 35 34  1  0
 36 34  2  0
M  END
$$$$
