WHR.pdb
     RDKit          3D

 36 38  0  0  1  0  0  0  0  0999 V2000
   25.9278  -22.5043  -12.4965 N   0  0  0  0  0  0  0  0  0  0  0  0
   25.3782  -21.5799  -11.5386 C   0  0  1  0  0  0  0  0  0  0  0  0
   26.2965  -20.4094  -11.3648 C   0  0  0  0  0  0  0  0  0  0  0  0
   27.5082  -20.6913  -10.5682 C   0  0  0  0  0  0  0  0  0  0  0  0
   28.7409  -21.0962  -11.0901 C   0  0  0  0  0  0  0  0  0  0  0  0
   29.5947  -21.2256  -10.0833 N   0  0  0  0  0  0  0  0  0  0  0  0
   29.0109  -20.9323   -8.9077 C   0  0  0  0  0  0  0  0  0  0  0  0
   29.4381  -20.9144   -7.5920 C   0  0  0  0  0  0  0  0  0  0  0  0
   28.6050  -20.5742   -6.5605 C   0  0  0  0  0  0  0  0  0  0  0  0
   27.2982  -20.2389   -6.8431 C   0  0  0  0  0  0  0  0  0  0  0  0
   26.8518  -20.2519   -8.1666 C   0  0  0  0  0  0  0  0  0  0  0  0
   27.6909  -20.5931   -9.2005 C   0  0  0  0  0  0  0  0  0  0  0  0
   24.0565  -21.0618  -12.0471 C   0  0  0  0  0  0  0  0  0  0  0  0
   23.6031  -19.9731  -11.6093 O   0  0  0  0  0  0  0  0  0  0  0  0
   23.2978  -21.7559  -13.0056 N   0  0  0  0  0  0  0  0  0  0  0  0
   22.0203  -21.3244  -13.5110 C   0  0  1  0  0  0  0  0  0  0  0  0
   22.0581  -21.0821  -14.9923 C   0  0  0  0  0  0  0  0  0  0  0  0
   22.8783  -19.9142  -15.3599 C   0  0  0  0  0  0  0  0  0  0  0  0
   22.7771  -18.6517  -14.8248 C   0  0  0  0  0  0  0  0  0  0  0  0
   23.7019  -17.8794  -15.4284 N   0  0  0  0  0  0  0  0  0  0  0  0
   24.3802  -18.6141  -16.3242 C   0  0  0  0  0  0  0  0  0  0  0  0
   23.8568  -19.8575  -16.2635 N   0  0  0  0  0  0  0  0  0  0  0  0
   20.9717  -22.3904  -13.2929 C   0  0  0  0  0  0  0  0  0  0  0  0
   20.9842  -23.4440  -13.9784 O   0  0  0  0  0  0  0  0  0  0  0  0
   16.1329  -24.5308   -6.8253 N   0  0  0  0  0  0  0  0  0  0  0  0
   16.9923  -25.5829   -7.2031 C   0  0  0  0  0  0  0  0  0  0  0  0
   16.6659  -26.7959   -6.9038 N   0  0  0  0  0  0  0  0  0  0  0  0
   18.2108  -25.3787   -7.9046 N   0  0  0  0  0  0  0  0  0  0  0  0
   18.7174  -24.1080   -8.3108 C   0  0  0  0  0  0  0  0  0  0  0  0
   18.2506  -23.7067   -9.6802 C   0  0  0  0  0  0  0  0  0  0  0  0
   19.3366  -23.8045  -10.6751 C   0  0  0  0  0  0  0  0  0  0  0  0
   18.9517  -23.2874  -12.0747 C   0  0  2  0  0  0  0  0  0  0  0  0
   19.9595  -22.2360  -12.3253 N   0  0  0  0  0  0  0  0  0  0  0  0
   17.6084  -22.6928  -11.9625 C   0  0  0  0  0  0  0  0  0  0  0  0
   17.2772  -21.5405  -11.2984 O   0  0  0  0  0  0  0  0  0  0  0  0
   16.6513  -23.3176  -12.5441 O   0  0  0  0  0  0  0  0  0  0  0  0
  2  3  1  0
  2  1  1  6
  4  3  1  0
  5  4  2  0
  6  5  1  0
  7  6  1  0
  7 12  2  0
  8  9  2  0
  8  7  1  0
  9 10  1  0
 10 11  2  0
 12 11  1  0
 12  4  1  0
 13 14  2  0
 13  2  1  0
 15 13  1  0
 16 15  1  0
 16 17  1  6
 18 22  1  0
 18 17  1  0
 19 18  2  0
 20 19  1  0
 20 21  1  0
 21 22  2  0
 23 24  2  0
 23 16  1  0
 25 26  1  0
 26 27  2  0
 28 29  1  0
 28 26  1  0
 30 29  1  0
 31 30  1  0
 32 31  1  1
 32 33  1  0
 33 23  1  0
 34 32  1  0
 35 34  1  0
 36 34  2  0
M  END
$$$$
