WHR.pdb
     RDKit          3D

 36 38  0  0  1  0  0  0  0  0999 V2000
   27.6126  -21.3310  -12.0914 N   0  0  0  0  0  0  0  0  0  0  0  0
   26.3222  -21.5303  -11.4837 C   0  0  1  0  0  0  0  0  0  0  0  0
   26.3110  -20.9632  -10.0974 C   0  0  0  0  0  0  0  0  0  0  0  0
   27.6172  -20.9983   -9.4081 C   0  0  0  0  0  0  0  0  0  0  0  0
   28.8052  -21.4936   -9.9552 C   0  0  0  0  0  0  0  0  0  0  0  0
   29.7710  -21.3359   -9.0597 N   0  0  0  0  0  0  0  0  0  0  0  0
   29.3053  -20.7624   -7.9358 C   0  0  0  0  0  0  0  0  0  0  0  0
   29.8737  -20.3932   -6.7298 C   0  0  0  0  0  0  0  0  0  0  0  0
   29.1421  -19.8180   -5.7258 C   0  0  0  0  0  0  0  0  0  0  0  0
   27.7956  -19.6005   -5.9239 C   0  0  0  0  0  0  0  0  0  0  0  0
   27.2070  -19.9676   -7.1364 C   0  0  0  0  0  0  0  0  0  0  0  0
   27.9442  -20.5441   -8.1431 C   0  0  0  0  0  0  0  0  0  0  0  0
   25.2739  -20.8060  -12.2902 C   0  0  0  0  0  0  0  0  0  0  0  0
   24.1963  -20.4574  -11.7428 O   0  0  0  0  0  0  0  0  0  0  0  0
   25.4537  -20.4991  -13.6502 N   0  0  0  0  0  0  0  0  0  0  0  0
   24.4676  -19.8647  -14.4861 C   0  0  1  0  0  0  0  0  0  0  0  0
   25.0789  -19.2806  -15.7269 C   0  0  0  0  0  0  0  0  0  0  0  0
   26.0535  -18.2140  -15.4365 C   0  0  0  0  0  0  0  0  0  0  0  0
   27.4196  -18.3081  -15.5614 C   0  0  0  0  0  0  0  0  0  0  0  0
   27.9433  -17.1201  -15.2000 N   0  0  0  0  0  0  0  0  0  0  0  0
   26.9525  -16.2836  -14.8525 C   0  0  0  0  0  0  0  0  0  0  0  0
   25.8040  -16.9774  -15.0059 N   0  0  0  0  0  0  0  0  0  0  0  0
   23.4447  -20.8698  -14.9626 C   0  0  0  0  0  0  0  0  0  0  0  0
   23.8104  -21.9185  -15.5512 O   0  0  0  0  0  0  0  0  0  0  0  0
   17.1475  -20.8564  -11.4765 N   0  0  0  0  0  0  0  0  0  0  0  0
   16.7549  -22.2075  -11.5694 C   0  0  0  0  0  0  0  0  0  0  0  0
   15.5144  -22.5131  -11.3814 N   0  0  0  0  0  0  0  0  0  0  0  0
   17.6599  -23.2625  -11.8636 N   0  0  0  0  0  0  0  0  0  0  0  0
   19.0494  -23.0943  -12.1409 C   0  0  0  0  0  0  0  0  0  0  0  0
   19.3018  -22.4123  -13.4545 C   0  0  0  0  0  0  0  0  0  0  0  0
   20.7436  -22.3423  -13.7626 C   0  0  0  0  0  0  0  0  0  0  0  0
   21.0624  -21.6875  -15.1205 C   0  0  2  0  0  0  0  0  0  0  0  0
   22.0655  -20.6626  -14.7637 N   0  0  0  0  0  0  0  0  0  0  0  0
   19.8228  -21.0476  -15.5945 C   0  0  0  0  0  0  0  0  0  0  0  0
   18.8402  -21.6300  -16.3521 O   0  0  0  0  0  0  0  0  0  0  0  0
   19.6457  -19.8207  -15.2661 O   0  0  0  0  0  0  0  0  0  0  0  0
  2  3  1  0
  2  1  1  6
  4  3  1  0
  5  4  2  0
  6  5  1  0
  7  6  1  0
  7 12  2  0
  8  9  2  0
  8  7  1  0
  9 10  1  0
 10 11  2  0
 12 11  1  0
 12  4  1  0
 13 14  2  0
 13  2  1  0
 15 13  1  0
 16 15  1  0
 16 17  1  6
 18 22  1  0
 18 17  1  0
 19 18  2  0
 20 19  1  0
 20 21  1  0
 21 22  2  0
 23 24  2  0
 23 16  1  0
 25 26  1  0
 26 27  2  0
 28 29  1  0
 28 26  1  0
 30 29  1  0
 31 30  1  0
 32 31  1  1
 32 33  1  0
 33 23  1  0
 34 32  1  0
 35 34  1  0
 36 34  2  0
M  END
$$$$
