WHR.pdb
     RDKit          3D

 36 38  0  0  1  0  0  0  0  0999 V2000
   24.9178  -20.8227  -20.5478 N   0  0  0  0  0  0  0  0  0  0  0  0
   24.4211  -20.0288  -19.4536 C   0  0  1  0  0  0  0  0  0  0  0  0
   22.9715  -20.3233  -19.2182 C   0  0  0  0  0  0  0  0  0  0  0  0
   22.0499  -19.6810  -20.1776 C   0  0  0  0  0  0  0  0  0  0  0  0
   21.4728  -20.3089  -21.2861 C   0  0  0  0  0  0  0  0  0  0  0  0
   20.6846  -19.4327  -21.8948 N   0  0  0  0  0  0  0  0  0  0  0  0
   20.6949  -18.2456  -21.2626 C   0  0  0  0  0  0  0  0  0  0  0  0
   20.0743  -17.0282  -21.4782 C   0  0  0  0  0  0  0  0  0  0  0  0
   20.2767  -15.9521  -20.6565 C   0  0  0  0  0  0  0  0  0  0  0  0
   21.1268  -16.0871  -19.5800 C   0  0  0  0  0  0  0  0  0  0  0  0
   21.7607  -17.3102  -19.3487 C   0  0  0  0  0  0  0  0  0  0  0  0
   21.5549  -18.3893  -20.1749 C   0  0  0  0  0  0  0  0  0  0  0  0
   25.1768  -20.3826  -18.1975 C   0  0  0  0  0  0  0  0  0  0  0  0
   25.6771  -21.5301  -18.0729 O   0  0  0  0  0  0  0  0  0  0  0  0
   25.3481  -19.4690  -17.1430 N   0  0  0  0  0  0  0  0  0  0  0  0
   26.0562  -19.7490  -15.9209 C   0  0  1  0  0  0  0  0  0  0  0  0
   26.7492  -18.5298  -15.3846 C   0  0  0  0  0  0  0  0  0  0  0  0
   27.9117  -18.1290  -16.1968 C   0  0  0  0  0  0  0  0  0  0  0  0
   28.4094  -18.8023  -17.2876 C   0  0  0  0  0  0  0  0  0  0  0  0
   29.4717  -18.1090  -17.7428 N   0  0  0  0  0  0  0  0  0  0  0  0
   29.6577  -17.0237  -16.9749 C   0  0  0  0  0  0  0  0  0  0  0  0
   28.6891  -17.0583  -16.0346 N   0  0  0  0  0  0  0  0  0  0  0  0
   25.0992  -20.1907  -14.8381 C   0  0  0  0  0  0  0  0  0  0  0  0
   23.9441  -19.6995  -14.7715 O   0  0  0  0  0  0  0  0  0  0  0  0
   28.7991  -20.9330   -7.6900 N   0  0  0  0  0  0  0  0  0  0  0  0
   27.4512  -20.5429   -7.8281 C   0  0  0  0  0  0  0  0  0  0  0  0
   26.8019  -20.1538   -6.7819 N   0  0  0  0  0  0  0  0  0  0  0  0
   26.7613  -20.5534   -9.0701 N   0  0  0  0  0  0  0  0  0  0  0  0
   27.3862  -20.5334  -10.3527 C   0  0  0  0  0  0  0  0  0  0  0  0
   26.4009  -20.3971  -11.4774 C   0  0  0  0  0  0  0  0  0  0  0  0
   25.5013  -21.5645  -11.5565 C   0  0  0  0  0  0  0  0  0  0  0  0
   24.5661  -21.5523  -12.7811 C   0  0  2  0  0  0  0  0  0  0  0  0
   25.4700  -21.1557  -13.8810 N   0  0  0  0  0  0  0  0  0  0  0  0
   23.5569  -20.5052  -12.5450 C   0  0  0  0  0  0  0  0  0  0  0  0
   22.4355  -20.6118  -11.7641 O   0  0  0  0  0  0  0  0  0  0  0  0
   23.7459  -19.3801  -13.1307 O   0  0  0  0  0  0  0  0  0  0  0  0
  2  3  1  0
  2  1  1  6
  4  3  1  0
  5  4  2  0
  6  5  1  0
  7  6  1  0
  7 12  2  0
  8  9  2  0
  8  7  1  0
  9 10  1  0
 10 11  2  0
 12 11  1  0
 12  4  1  0
 13 14  2  0
 13  2  1  0
 15 13  1  0
 16 15  1  0
 16 17  1  1
 18 22  1  0
 18 17  1  0
 19 18  2  0
 20 19  1  0
 20 21  1  0
 21 22  2  0
 23 24  2  0
 23 16  1  0
 25 26  1  0
 26 27  2  0
 28 29  1  0
 28 26  1  0
 30 29  1  0
 31 30  1  0
 32 31  1  1
 32 33  1  0
 33 23  1  0
 34 32  1  0
 35 34  1  0
 36 34  2  0
M  END
$$$$
