WHR.pdb
     RDKit          3D

 36 38  0  0  1  0  0  0  0  0999 V2000
   28.1338  -21.6705  -15.4493 N   0  0  0  0  0  0  0  0  0  0  0  0
   27.2719  -21.5639  -14.3004 C   0  0  1  0  0  0  0  0  0  0  0  0
   27.5236  -20.2727  -13.5840 C   0  0  0  0  0  0  0  0  0  0  0  0
   27.9170  -20.4217  -12.1679 C   0  0  0  0  0  0  0  0  0  0  0  0
   29.2265  -20.5943  -11.7080 C   0  0  0  0  0  0  0  0  0  0  0  0
   29.1949  -20.6629  -10.3838 N   0  0  0  0  0  0  0  0  0  0  0  0
   27.9380  -20.5475   -9.9191 C   0  0  0  0  0  0  0  0  0  0  0  0
   27.3664  -20.5585   -8.6593 C   0  0  0  0  0  0  0  0  0  0  0  0
   26.0171  -20.4247   -8.4708 C   0  0  0  0  0  0  0  0  0  0  0  0
   25.2026  -20.2746   -9.5725 C   0  0  0  0  0  0  0  0  0  0  0  0
   25.7648  -20.2611  -10.8512 C   0  0  0  0  0  0  0  0  0  0  0  0
   27.1201  -20.3947  -11.0375 C   0  0  0  0  0  0  0  0  0  0  0  0
   25.8338  -21.5709  -14.7535 C   0  0  0  0  0  0  0  0  0  0  0  0
   25.5066  -20.9551  -15.8006 O   0  0  0  0  0  0  0  0  0  0  0  0
   24.8270  -22.2477  -14.0431 N   0  0  0  0  0  0  0  0  0  0  0  0
   23.4695  -22.4087  -14.4956 C   0  0  1  0  0  0  0  0  0  0  0  0
   23.0709  -23.8547  -14.5636 C   0  0  0  0  0  0  0  0  0  0  0  0
   23.7063  -24.5709  -15.6839 C   0  0  0  0  0  0  0  0  0  0  0  0
   24.4509  -25.7232  -15.5915 C   0  0  0  0  0  0  0  0  0  0  0  0
   24.8485  -26.0509  -16.8367 N   0  0  0  0  0  0  0  0  0  0  0  0
   24.3790  -25.1435  -17.7076 C   0  0  0  0  0  0  0  0  0  0  0  0
   23.6822  -24.2468  -16.9768 N   0  0  0  0  0  0  0  0  0  0  0  0
   22.5044  -21.7585  -13.5316 C   0  0  0  0  0  0  0  0  0  0  0  0
   22.4298  -22.1563  -12.3416 O   0  0  0  0  0  0  0  0  0  0  0  0
   20.3302  -14.6054  -17.0848 N   0  0  0  0  0  0  0  0  0  0  0  0
   19.9745  -15.8565  -17.6292 C   0  0  0  0  0  0  0  0  0  0  0  0
   19.6996  -15.9357  -18.8885 N   0  0  0  0  0  0  0  0  0  0  0  0
   19.9028  -17.0483  -16.8592 N   0  0  0  0  0  0  0  0  0  0  0  0
   20.2244  -17.1465  -15.4725 C   0  0  0  0  0  0  0  0  0  0  0  0
   20.1485  -18.5543  -14.9562 C   0  0  0  0  0  0  0  0  0  0  0  0
   20.5794  -18.6407  -13.5472 C   0  0  0  0  0  0  0  0  0  0  0  0
   20.6905  -20.0820  -13.0138 C   0  0  2  0  0  0  0  0  0  0  0  0
   21.6681  -20.6988  -13.9346 N   0  0  0  0  0  0  0  0  0  0  0  0
   19.3668  -20.7079  -13.1782 C   0  0  0  0  0  0  0  0  0  0  0  0
   18.2800  -20.5493  -12.3582 O   0  0  0  0  0  0  0  0  0  0  0  0
   19.2165  -21.4808  -14.1904 O   0  0  0  0  0  0  0  0  0  0  0  0
  2  3  1  0
  2  1  1  6
  4  3  1  0
  5  4  2  0
  6  5  1  0
  7  6  1  0
  7 12  2  0
  8  9  2  0
  8  7  1  0
  9 10  1  0
 10 11  2  0
 12 11  1  0
 12  4  1  0
 13 14  2  0
 13  2  1  0
 15 13  1  0
 16 15  1  0
 16 17  1  1
 18 22  1  0
 18 17  1  0
 19 18  2  0
 20 19  1  0
 20 21  1  0
 21 22  2  0
 23 24  2  0
 23 16  1  0
 25 26  1  0
 26 27  2  0
 28 29  1  0
 28 26  1  0
 30 29  1  0
 31 30  1  0
 32 31  1  6
 32 33  1  0
 33 23  1  0
 34 32  1  0
 35 34  1  0
 36 34  2  0
M  END
$$$$
