WHR.pdb
     RDKit          3D

 36 38  0  0  1  0  0  0  0  0999 V2000
   28.5695  -12.0145  -23.5867 N   0  0  0  0  0  0  0  0  0  0  0  0
   28.1284  -10.7449  -23.0693 C   0  0  1  0  0  0  0  0  0  0  0  0
   27.1942  -10.0885  -24.0389 C   0  0  0  0  0  0  0  0  0  0  0  0
   27.8596   -9.3990  -25.1632 C   0  0  0  0  0  0  0  0  0  0  0  0
   29.0915   -9.7621  -25.7171 C   0  0  0  0  0  0  0  0  0  0  0  0
   29.3540   -8.9359  -26.7210 N   0  0  0  0  0  0  0  0  0  0  0  0
   28.3704   -8.0323  -26.8792 C   0  0  0  0  0  0  0  0  0  0  0  0
   28.1561   -6.9758  -27.7463 C   0  0  0  0  0  0  0  0  0  0  0  0
   27.0363   -6.1915  -27.6757 C   0  0  0  0  0  0  0  0  0  0  0  0
   26.0926   -6.4641  -26.7088 C   0  0  0  0  0  0  0  0  0  0  0  0
   26.2943   -7.5277  -25.8260 C   0  0  0  0  0  0  0  0  0  0  0  0
   27.4192   -8.3141  -25.8999 C   0  0  0  0  0  0  0  0  0  0  0  0
   27.3792  -10.9652  -21.7793 C   0  0  0  0  0  0  0  0  0  0  0  0
   26.5513  -11.9083  -21.6920 O   0  0  0  0  0  0  0  0  0  0  0  0
   27.5706  -10.1474  -20.6521 N   0  0  0  0  0  0  0  0  0  0  0  0
   26.8414  -10.2688  -19.4163 C   0  0  1  0  0  0  0  0  0  0  0  0
   27.7427  -10.1493  -18.2214 C   0  0  0  0  0  0  0  0  0  0  0  0
   27.0301  -10.3429  -16.9460 C   0  0  0  0  0  0  0  0  0  0  0  0
   25.7165  -10.7224  -16.8008 C   0  0  0  0  0  0  0  0  0  0  0  0
   25.4555  -10.7849  -15.4801 N   0  0  0  0  0  0  0  0  0  0  0  0
   26.5604  -10.4574  -14.7915 C   0  0  0  0  0  0  0  0  0  0  0  0
   27.5116  -10.1907  -15.7123 N   0  0  0  0  0  0  0  0  0  0  0  0
   25.8276   -9.1562  -19.2826 C   0  0  0  0  0  0  0  0  0  0  0  0
   26.1409   -7.9730  -19.5689 O   0  0  0  0  0  0  0  0  0  0  0  0
   17.0457  -10.2502  -17.4460 N   0  0  0  0  0  0  0  0  0  0  0  0
   17.2769   -8.9056  -17.8020 C   0  0  0  0  0  0  0  0  0  0  0  0
   16.2685   -8.1083  -17.9243 N   0  0  0  0  0  0  0  0  0  0  0  0
   18.5738   -8.3740  -18.0346 N   0  0  0  0  0  0  0  0  0  0  0  0
   19.7831   -9.1312  -18.0168 C   0  0  0  0  0  0  0  0  0  0  0  0
   20.9892   -8.3088  -18.3678 C   0  0  0  0  0  0  0  0  0  0  0  0
   22.2217   -9.1208  -18.3606 C   0  0  0  0  0  0  0  0  0  0  0  0
   23.4755   -8.3597  -18.8330 C   0  0  2  0  0  0  0  0  0  0  0  0
   24.5153   -9.4098  -18.8372 N   0  0  0  0  0  0  0  0  0  0  0  0
   23.7773   -7.3443  -17.8090 C   0  0  0  0  0  0  0  0  0  0  0  0
   24.3942   -7.5570  -16.6037 O   0  0  0  0  0  0  0  0  0  0  0  0
   23.4257   -6.1392  -18.0712 O   0  0  0  0  0  0  0  0  0  0  0  0
  2  3  1  0
  2  1  1  6
  4  3  1  0
  5  4  2  0
  6  5  1  0
  7  6  1  0
  7 12  2  0
  8  9  2  0
  8  7  1  0
  9 10  1  0
 10 11  2  0
 12 11  1  0
 12  4  1  0
 13 14  2  0
 13  2  1  0
 15 13  1  0
 16 15  1  0
 16 17  1  1
 18 22  1  0
 18 17  1  0
 19 18  2  0
 20 19  1  0
 20 21  1  0
 21 22  2  0
 23 24  2  0
 23 16  1  0
 25 26  1  0
 26 27  2  0
 28 29  1  0
 28 26  1  0
 30 29  1  0
 31 30  1  0
 32 31  1  1
 32 33  1  0
 33 23  1  0
 34 32  1  0
 35 34  1  0
 36 34  2  0
M  END
$$$$
