WHR.pdb
     RDKit          3D

 36 38  0  0  1  0  0  0  0  0999 V2000
   26.8783  -21.8128  -13.9573 N   0  0  0  0  0  0  0  0  0  0  0  0
   25.9325  -21.0615  -13.1730 C   0  0  1  0  0  0  0  0  0  0  0  0
   26.6384  -19.9913  -12.3985 C   0  0  0  0  0  0  0  0  0  0  0  0
   27.6232  -20.4905  -11.4170 C   0  0  0  0  0  0  0  0  0  0  0  0
   28.9055  -20.9557  -11.7257 C   0  0  0  0  0  0  0  0  0  0  0  0
   29.5079  -21.2922  -10.5929 N   0  0  0  0  0  0  0  0  0  0  0  0
   28.7067  -21.0825   -9.5332 C   0  0  0  0  0  0  0  0  0  0  0  0
   28.8381  -21.2664   -8.1683 C   0  0  0  0  0  0  0  0  0  0  0  0
   27.8290  -20.9673   -7.2928 C   0  0  0  0  0  0  0  0  0  0  0  0
   26.6441  -20.4671   -7.7885 C   0  0  0  0  0  0  0  0  0  0  0  0
   26.4962  -20.2754   -9.1642 C   0  0  0  0  0  0  0  0  0  0  0  0
   27.5114  -20.5758  -10.0408 C   0  0  0  0  0  0  0  0  0  0  0  0
   24.9420  -20.3928  -14.0925 C   0  0  0  0  0  0  0  0  0  0  0  0
   24.5152  -19.2415  -13.8184 O   0  0  0  0  0  0  0  0  0  0  0  0
   24.4680  -21.0121  -15.2620 N   0  0  0  0  0  0  0  0  0  0  0  0
   23.2892  -21.8358  -15.3350 C   0  0  1  0  0  0  0  0  0  0  0  0
   23.5000  -23.1723  -14.6842 C   0  0  0  0  0  0  0  0  0  0  0  0
   24.4333  -24.0322  -15.4334 C   0  0  0  0  0  0  0  0  0  0  0  0
   25.1300  -25.1051  -14.9289 C   0  0  0  0  0  0  0  0  0  0  0  0
   25.8678  -25.6186  -15.9330 N   0  0  0  0  0  0  0  0  0  0  0  0
   25.6581  -24.9046  -17.0503 C   0  0  0  0  0  0  0  0  0  0  0  0
   24.7753  -23.9381  -16.7184 N   0  0  0  0  0  0  0  0  0  0  0  0
   22.1406  -21.1915  -14.5939 C   0  0  0  0  0  0  0  0  0  0  0  0
   22.1822  -21.0639  -13.3441 O   0  0  0  0  0  0  0  0  0  0  0  0
   18.9691  -14.3902  -14.9507 N   0  0  0  0  0  0  0  0  0  0  0  0
   19.6009  -14.9153  -16.0967 C   0  0  0  0  0  0  0  0  0  0  0  0
   20.6693  -14.3414  -16.5407 N   0  0  0  0  0  0  0  0  0  0  0  0
   19.1216  -16.0551  -16.7964 N   0  0  0  0  0  0  0  0  0  0  0  0
   18.6033  -17.2338  -16.1815 C   0  0  0  0  0  0  0  0  0  0  0  0
   19.5216  -18.4135  -16.3197 C   0  0  0  0  0  0  0  0  0  0  0  0
   18.9536  -19.6214  -15.6896 C   0  0  0  0  0  0  0  0  0  0  0  0
   19.8195  -20.2015  -14.5547 C   0  0  2  0  0  0  0  0  0  0  0  0
   21.0009  -20.7203  -15.2751 N   0  0  0  0  0  0  0  0  0  0  0  0
   19.0587  -21.3106  -13.9531 C   0  0  0  0  0  0  0  0  0  0  0  0
   18.2301  -21.2374  -12.8638 O   0  0  0  0  0  0  0  0  0  0  0  0
   19.1857  -22.4619  -14.5037 O   0  0  0  0  0  0  0  0  0  0  0  0
  2  3  1  0
  2  1  1  6
  4  3  1  0
  5  4  2  0
  6  5  1  0
  7  6  1  0
  7 12  2  0
  8  9  2  0
  8  7  1  0
  9 10  1  0
 10 11  2  0
 12 11  1  0
 12  4  1  0
 13 14  2  0
 13  2  1  0
 15 13  1  0
 16 15  1  0
 16 17  1  1
 18 22  1  0
 18 17  1  0
 19 18  2  0
 20 19  1  0
 20 21  1  0
 21 22  2  0
 23 24  2  0
 23 16  1  0
 25 26  1  0
 26 27  2  0
 28 29  1  0
 28 26  1  0
 30 29  1  0
 31 30  1  0
 32 31  1  6
 32 33  1  0
 33 23  1  0
 34 32  1  0
 35 34  1  0
 36 34  2  0
M  END
$$$$
