WHR.pdb
     RDKit          3D

 36 38  0  0  1  0  0  0  0  0999 V2000
   24.8542  -18.5848  -16.9774 N   0  0  0  0  0  0  0  0  0  0  0  0
   23.4990  -18.6396  -16.4929 C   0  0  1  0  0  0  0  0  0  0  0  0
   22.5406  -18.3420  -17.6049 C   0  0  0  0  0  0  0  0  0  0  0  0
   22.5451  -16.9369  -18.0610 C   0  0  0  0  0  0  0  0  0  0  0  0
   23.2770  -16.4428  -19.1455 C   0  0  0  0  0  0  0  0  0  0  0  0
   23.0107  -15.1494  -19.2702 N   0  0  0  0  0  0  0  0  0  0  0  0
   22.1402  -14.7377  -18.3313 C   0  0  0  0  0  0  0  0  0  0  0  0
   21.5543  -13.5239  -18.0195 C   0  0  0  0  0  0  0  0  0  0  0  0
   20.6832  -13.3833  -16.9728 C   0  0  0  0  0  0  0  0  0  0  0  0
   20.3811  -14.4876  -16.2052 C   0  0  0  0  0  0  0  0  0  0  0  0
   20.9644  -15.7204  -16.5077 C   0  0  0  0  0  0  0  0  0  0  0  0
   21.8380  -15.8587  -17.5598 C   0  0  0  0  0  0  0  0  0  0  0  0
   23.2062  -20.0295  -15.9870 C   0  0  0  0  0  0  0  0  0  0  0  0
   24.1057  -20.9083  -16.0214 O   0  0  0  0  0  0  0  0  0  0  0  0
   21.9496  -20.3901  -15.4702 N   0  0  0  0  0  0  0  0  0  0  0  0
   21.7399  -21.0531  -14.2092 C   0  0  1  0  0  0  0  0  0  0  0  0
   22.2562  -20.2399  -13.0575 C   0  0  0  0  0  0  0  0  0  0  0  0
   23.6306  -20.6047  -12.6706 C   0  0  0  0  0  0  0  0  0  0  0  0
   24.4099  -21.5709  -13.2620 C   0  0  0  0  0  0  0  0  0  0  0  0
   25.5923  -21.5908  -12.6157 N   0  0  0  0  0  0  0  0  0  0  0  0
   25.5817  -20.6701  -11.6388 C   0  0  0  0  0  0  0  0  0  0  0  0
   24.3686  -20.0791  -11.6927 N   0  0  0  0  0  0  0  0  0  0  0  0
   20.2646  -21.2500  -13.9481 C   0  0  0  0  0  0  0  0  0  0  0  0
   19.5227  -20.2622  -13.7162 O   0  0  0  0  0  0  0  0  0  0  0  0
   18.5217  -29.3566  -14.9216 N   0  0  0  0  0  0  0  0  0  0  0  0
   19.5334  -28.4425  -14.5623 C   0  0  0  0  0  0  0  0  0  0  0  0
   20.7173  -28.8890  -14.3040 N   0  0  0  0  0  0  0  0  0  0  0  0
   19.3190  -27.0411  -14.4696 N   0  0  0  0  0  0  0  0  0  0  0  0
   18.1732  -26.3543  -14.9712 C   0  0  0  0  0  0  0  0  0  0  0  0
   18.3450  -24.8628  -14.9752 C   0  0  0  0  0  0  0  0  0  0  0  0
   18.1388  -24.2882  -13.6313 C   0  0  0  0  0  0  0  0  0  0  0  0
   18.2718  -22.7540  -13.5794 C   0  0  2  0  0  0  0  0  0  0  0  0
   19.6836  -22.5334  -13.9562 N   0  0  0  0  0  0  0  0  0  0  0  0
   18.0451  -22.3466  -12.1817 C   0  0  0  0  0  0  0  0  0  0  0  0
   19.0044  -22.0082  -11.2630 O   0  0  0  0  0  0  0  0  0  0  0  0
   16.8267  -22.3059  -11.7837 O   0  0  0  0  0  0  0  0  0  0  0  0
  2  3  1  0
  2  1  1  6
  4  3  1  0
  5  4  2  0
  6  5  1  0
  7  6  1  0
  7 12  2  0
  8  9  2  0
  8  7  1  0
  9 10  1  0
 10 11  2  0
 12 11  1  0
 12  4  1  0
 13 14  2  0
 13  2  1  0
 15 13  1  0
 16 15  1  0
 16 17  1  1
 18 22  1  0
 18 17  1  0
 19 18  2  0
 20 19  1  0
 20 21  1  0
 21 22  2  0
 23 24  2  0
 23 16  1  0
 25 26  1  0
 26 27  2  0
 28 29  1  0
 28 26  1  0
 30 29  1  0
 31 30  1  0
 32 31  1  1
 32 33  1  0
 33 23  1  0
 34 32  1  0
 35 34  1  0
 36 34  2  0
M  END
$$$$
