WHR.pdb
     RDKit          3D

 36 38  0  0  1  0  0  0  0  0999 V2000
   28.7700  -20.7290  -16.1917 N   0  0  0  0  0  0  0  0  0  0  0  0
   28.1450  -21.6799  -15.3088 C   0  0  1  0  0  0  0  0  0  0  0  0
   27.3774  -20.9649  -14.2396 C   0  0  0  0  0  0  0  0  0  0  0  0
   28.2107  -20.3944  -13.1614 C   0  0  0  0  0  0  0  0  0  0  0  0
   28.1034  -19.0927  -12.6616 C   0  0  0  0  0  0  0  0  0  0  0  0
   28.9910  -18.9488  -11.6864 N   0  0  0  0  0  0  0  0  0  0  0  0
   29.6950  -20.0790  -11.4968 C   0  0  0  0  0  0  0  0  0  0  0  0
   30.7143  -20.4527  -10.6394 C   0  0  0  0  0  0  0  0  0  0  0  0
   31.2692  -21.7037  -10.6695 C   0  0  0  0  0  0  0  0  0  0  0  0
   30.7964  -22.6199  -11.5844 C   0  0  0  0  0  0  0  0  0  0  0  0
   29.7673  -22.2577  -12.4568 C   0  0  0  0  0  0  0  0  0  0  0  0
   29.2114  -21.0011  -12.4237 C   0  0  0  0  0  0  0  0  0  0  0  0
   27.1724  -22.5240  -16.0931 C   0  0  0  0  0  0  0  0  0  0  0  0
   26.5514  -22.0205  -17.0643 O   0  0  0  0  0  0  0  0  0  0  0  0
   26.9268  -23.8721  -15.7792 N   0  0  0  0  0  0  0  0  0  0  0  0
   25.9637  -24.7085  -16.4474 C   0  0  1  0  0  0  0  0  0  0  0  0
   26.2235  -26.1666  -16.2013 C   0  0  0  0  0  0  0  0  0  0  0  0
   27.4250  -26.6590  -16.8984 C   0  0  0  0  0  0  0  0  0  0  0  0
   28.1262  -25.9917  -17.8750 C   0  0  0  0  0  0  0  0  0  0  0  0
   29.1522  -26.7812  -18.2495 N   0  0  0  0  0  0  0  0  0  0  0  0
   29.1187  -27.9212  -17.5414 C   0  0  0  0  0  0  0  0  0  0  0  0
   28.0512  -27.8223  -16.7204 N   0  0  0  0  0  0  0  0  0  0  0  0
   24.5711  -24.4424  -15.9245 C   0  0  0  0  0  0  0  0  0  0  0  0
   24.4024  -24.0132  -14.7552 O   0  0  0  0  0  0  0  0  0  0  0  0
   20.6361  -19.2444  -12.2577 N   0  0  0  0  0  0  0  0  0  0  0  0
   21.7119  -20.1532  -12.1871 C   0  0  0  0  0  0  0  0  0  0  0  0
   22.2723  -20.3719  -11.0444 N   0  0  0  0  0  0  0  0  0  0  0  0
   22.2173  -20.8502  -13.3171 N   0  0  0  0  0  0  0  0  0  0  0  0
   21.8104  -20.6249  -14.6661 C   0  0  0  0  0  0  0  0  0  0  0  0
   21.3687  -21.8821  -15.3579 C   0  0  0  0  0  0  0  0  0  0  0  0
   22.5187  -22.7232  -15.7434 C   0  0  0  0  0  0  0  0  0  0  0  0
   22.1242  -24.0566  -16.4072 C   0  0  2  0  0  0  0  0  0  0  0  0
   23.4328  -24.6660  -16.7239 N   0  0  0  0  0  0  0  0  0  0  0  0
   21.4000  -23.7258  -17.6469 C   0  0  0  0  0  0  0  0  0  0  0  0
   20.0604  -23.8967  -17.8816 O   0  0  0  0  0  0  0  0  0  0  0  0
   22.0935  -23.2287  -18.6043 O   0  0  0  0  0  0  0  0  0  0  0  0
  2  3  1  0
  2  1  1  6
  4  3  1  0
  5  4  2  0
  6  5  1  0
  7  6  1  0
  7 12  2  0
  8  9  2  0
  8  7  1  0
  9 10  1  0
 10 11  2  0
 12 11  1  0
 12  4  1  0
 13 14  2  0
 13  2  1  0
 15 13  1  0
 16 15  1  0
 16 17  1  1
 18 22  1  0
 18 17  1  0
 19 18  2  0
 20 19  1  0
 20 21  1  0
 21 22  2  0
 23 24  2  0
 23 16  1  0
 25 26  1  0
 26 27  2  0
 28 29  1  0
 28 26  1  0
 30 29  1  0
 31 30  1  0
 32 31  1  6
 32 33  1  0
 33 23  1  0
 34 32  1  0
 35 34  1  0
 36 34  2  0
M  END
$$$$
