WHR.pdb
     RDKit          3D

 36 38  0  0  1  0  0  0  0  0999 V2000
   15.4738  -23.7294  -27.2330 N   0  0  0  0  0  0  0  0  0  0  0  0
   16.5118  -22.7351  -27.1435 C   0  0  1  0  0  0  0  0  0  0  0  0
   16.7091  -22.0735  -28.4728 C   0  0  0  0  0  0  0  0  0  0  0  0
   16.0029  -22.7250  -29.5949 C   0  0  0  0  0  0  0  0  0  0  0  0
   15.2891  -23.9247  -29.5113 C   0  0  0  0  0  0  0  0  0  0  0  0
   14.7708  -24.1825  -30.7048 N   0  0  0  0  0  0  0  0  0  0  0  0
   15.0932  -23.2259  -31.5936 C   0  0  0  0  0  0  0  0  0  0  0  0
   14.8242  -23.0198  -32.9349 C   0  0  0  0  0  0  0  0  0  0  0  0
   15.3001  -21.9306  -33.6140 C   0  0  0  0  0  0  0  0  0  0  0  0
   16.0725  -21.0102  -32.9385 C   0  0  0  0  0  0  0  0  0  0  0  0
   16.3526  -21.2041  -31.5838 C   0  0  0  0  0  0  0  0  0  0  0  0
   15.8727  -22.2982  -30.9043 C   0  0  0  0  0  0  0  0  0  0  0  0
   16.1023  -21.6744  -26.1531 C   0  0  0  0  0  0  0  0  0  0  0  0
   15.2756  -20.7893  -26.4931 O   0  0  0  0  0  0  0  0  0  0  0  0
   16.6141  -21.6328  -24.8445 N   0  0  0  0  0  0  0  0  0  0  0  0
   16.0576  -20.8526  -23.7696 C   0  0  1  0  0  0  0  0  0  0  0  0
   15.0661  -21.6400  -22.9626 C   0  0  0  0  0  0  0  0  0  0  0  0
   13.7543  -21.7561  -23.6239 C   0  0  0  0  0  0  0  0  0  0  0  0
   13.4960  -21.5378  -24.9567 C   0  0  0  0  0  0  0  0  0  0  0  0
   12.1797  -21.7479  -25.1551 N   0  0  0  0  0  0  0  0  0  0  0  0
   11.6030  -22.0906  -23.9922 C   0  0  0  0  0  0  0  0  0  0  0  0
   12.5886  -22.0887  -23.0691 N   0  0  0  0  0  0  0  0  0  0  0  0
   17.1379  -20.4311  -22.8007 C   0  0  0  0  0  0  0  0  0  0  0  0
   18.0287  -21.2449  -22.4484 O   0  0  0  0  0  0  0  0  0  0  0  0
   16.4519  -12.4271  -23.4678 N   0  0  0  0  0  0  0  0  0  0  0  0
   16.2492  -13.4666  -24.3987 C   0  0  0  0  0  0  0  0  0  0  0  0
   15.7424  -13.1836  -25.5523 N   0  0  0  0  0  0  0  0  0  0  0  0
   16.5774  -14.8233  -24.1342 N   0  0  0  0  0  0  0  0  0  0  0  0
   17.6460  -15.2572  -23.2940 C   0  0  0  0  0  0  0  0  0  0  0  0
   17.6463  -16.7424  -23.0739 C   0  0  0  0  0  0  0  0  0  0  0  0
   18.2968  -17.1029  -21.7989 C   0  0  0  0  0  0  0  0  0  0  0  0
   18.3536  -18.6195  -21.5322 C   0  0  2  0  0  0  0  0  0  0  0  0
   17.1774  -19.1271  -22.2688 N   0  0  0  0  0  0  0  0  0  0  0  0
   18.1722  -18.8114  -20.0827 C   0  0  0  0  0  0  0  0  0  0  0  0
   19.1615  -18.8749  -19.1362 O   0  0  0  0  0  0  0  0  0  0  0  0
   16.9661  -18.9328  -19.6641 O   0  0  0  0  0  0  0  0  0  0  0  0
  2  3  1  0
  2  1  1  6
  4  3  1  0
  5  4  2  0
  6  5  1  0
  7  6  1  0
  7 12  2  0
  8  9  2  0
  8  7  1  0
  9 10  1  0
 10 11  2  0
 12 11  1  0
 12  4  1  0
 13 14  2  0
 13  2  1  0
 15 13  1  0
 16 15  1  0
 16 17  1  1
 18 22  1  0
 18 17  1  0
 19 18  2  0
 20 19  1  0
 20 21  1  0
 21 22  2  0
 23 24  2  0
 23 16  1  0
 25 26  1  0
 26 27  2  0
 28 29  1  0
 28 26  1  0
 30 29  1  0
 31 30  1  0
 32 31  1  1
 32 33  1  0
 33 23  1  0
 34 32  1  0
 35 34  1  0
 36 34  2  0
M  END
$$$$
