AGM.pdb
     RDKit          3D

 18 17  0  0  1  0  0  0  0  0999 V2000
    9.7448  -18.6571   17.7288 C   0  0  0  0  0  0  0  0  0  0  0  0
   10.1303  -18.5239   19.1836 C   0  0  2  0  0  0  0  0  0  0  0  0
    9.7306  -19.7070   19.8799 N   0  0  0  0  0  0  0  0  0  0  0  0
    9.4735  -17.3063   19.7184 C   0  0  0  0  0  0  0  0  0  0  0  0
    9.8827  -16.1887   19.3120 O   0  0  0  0  0  0  0  0  0  0  0  0
    8.4198  -17.3292   20.6537 N   0  0  0  0  0  0  0  0  0  0  0  0
    7.7397  -16.1751   21.1506 C   0  0  0  0  0  0  0  0  0  0  0  0
    8.3641  -15.6555   22.4144 C   0  0  0  0  0  0  0  0  0  0  0  0
    9.5928  -15.7716   22.5990 O   0  0  0  0  0  0  0  0  0  0  0  0
    6.3895  -10.1875   26.4697 C   0  0  0  0  0  0  0  0  0  0  0  0
    5.9846  -11.8877   26.9852 S   0  0  0  0  0  0  0  0  0  0  0  0
    7.3625  -12.9881   26.5254 C   0  0  0  0  0  0  0  0  0  0  0  0
    7.0152  -13.6220   25.2189 C   0  0  0  0  0  0  0  0  0  0  0  0
    8.0936  -14.4737   24.6254 C   0  0  2  0  0  0  0  0  0  0  0  0
    7.5740  -15.0387   23.3917 N   0  0  0  0  0  0  0  0  0  0  0  0
    8.5317  -15.5782   25.5144 C   0  0  0  0  0  0  0  0  0  0  0  0
    9.5372  -15.4339   26.4600 O   0  0  0  0  0  0  0  0  0  0  0  0
    7.9917  -16.7150   25.4391 O   0  0  0  0  0  0  0  0  0  0  0  0
  2  1  1  6
  3  2  1  0
  4  6  1  0
  4  2  1  0
  5  4  2  0
  7  6  1  0
  8  9  2  0
  8  7  1  0
 10 11  1  0
 12 13  1  0
 12 11  1  0
 14 13  1  1
 14 16  1  0
 14 15  1  0
 15  8  1  0
 16 17  1  0
 18 16  2  0
M  END
$$$$
