AGM.pdb
     RDKit          3D

 18 17  0  0  1  0  0  0  0  0999 V2000
   -1.3168  -28.4989   30.0310 C   0  0  0  0  0  0  0  0  0  0  0  0
   -1.5317  -27.8718   28.6733 C   0  0  2  0  0  0  0  0  0  0  0  0
   -0.7414  -26.6839   28.5805 N   0  0  0  0  0  0  0  0  0  0  0  0
   -2.9815  -27.5970   28.5237 C   0  0  0  0  0  0  0  0  0  0  0  0
   -3.7526  -28.5757   28.3520 O   0  0  0  0  0  0  0  0  0  0  0  0
   -3.5440  -26.3056   28.5626 N   0  0  0  0  0  0  0  0  0  0  0  0
   -4.9324  -26.0111   28.3992 C   0  0  0  0  0  0  0  0  0  0  0  0
   -5.2267  -24.5535   28.6136 C   0  0  0  0  0  0  0  0  0  0  0  0
   -4.5807  -23.9025   29.4599 O   0  0  0  0  0  0  0  0  0  0  0  0
   -4.6791  -18.6412   25.1251 C   0  0  0  0  0  0  0  0  0  0  0  0
   -4.9792  -20.4216   25.3715 S   0  0  0  0  0  0  0  0  0  0  0  0
   -6.6216  -20.6443   26.1289 C   0  0  0  0  0  0  0  0  0  0  0  0
   -6.7800  -22.0959   26.4406 C   0  0  0  0  0  0  0  0  0  0  0  0
   -6.4385  -22.4794   27.8466 C   0  0  2  0  0  0  0  0  0  0  0  0
   -6.2253  -23.9166   27.8674 N   0  0  0  0  0  0  0  0  0  0  0  0
   -7.4973  -22.1349   28.8276 C   0  0  0  0  0  0  0  0  0  0  0  0
   -7.4654  -20.9831   29.6010 O   0  0  0  0  0  0  0  0  0  0  0  0
   -8.4877  -22.8965   28.9966 O   0  0  0  0  0  0  0  0  0  0  0  0
  2  1  1  1
  3  2  1  0
  4  6  1  0
  4  2  1  0
  5  4  2  0
  7  6  1  0
  8  9  2  0
  8  7  1  0
 10 11  1  0
 12 13  1  0
 12 11  1  0
 14 13  1  6
 14 16  1  0
 14 15  1  0
 15  8  1  0
 16 17  1  0
 18 16  2  0
M  END
$$$$
