AGM.pdb
     RDKit          3D

 18 17  0  0  1  0  0  0  0  0999 V2000
    7.5776  -12.7106   18.4035 C   0  0  0  0  0  0  0  0  0  0  0  0
    8.6691  -13.5469   19.0297 C   0  0  2  0  0  0  0  0  0  0  0  0
    9.0313  -14.5915   18.1231 N   0  0  0  0  0  0  0  0  0  0  0  0
    8.1567  -14.0720   20.3187 C   0  0  0  0  0  0  0  0  0  0  0  0
    7.8273  -13.2422   21.2044 O   0  0  0  0  0  0  0  0  0  0  0  0
    8.0179  -15.4441   20.6078 N   0  0  0  0  0  0  0  0  0  0  0  0
    7.5656  -15.9776   21.8537 C   0  0  0  0  0  0  0  0  0  0  0  0
    8.4644  -15.5860   22.9921 C   0  0  0  0  0  0  0  0  0  0  0  0
    9.6622  -15.3096   22.7773 O   0  0  0  0  0  0  0  0  0  0  0  0
    5.8338  -10.5925   26.4564 C   0  0  0  0  0  0  0  0  0  0  0  0
    6.2190  -12.2980   26.9695 S   0  0  0  0  0  0  0  0  0  0  0  0
    7.4860  -12.9793   25.8508 C   0  0  0  0  0  0  0  0  0  0  0  0
    7.8473  -14.3376   26.3547 C   0  0  0  0  0  0  0  0  0  0  0  0
    8.7483  -15.1244   25.4548 C   0  0  2  0  0  0  0  0  0  0  0  0
    7.9659  -15.5286   24.2990 N   0  0  0  0  0  0  0  0  0  0  0  0
    9.3177  -16.3342   26.0985 C   0  0  0  0  0  0  0  0  0  0  0  0
    8.9778  -17.6244   25.7169 O   0  0  0  0  0  0  0  0  0  0  0  0
   10.1512  -16.2287   27.0385 O   0  0  0  0  0  0  0  0  0  0  0  0
  2  1  1  6
  3  2  1  0
  4  6  1  0
  4  2  1  0
  5  4  2  0
  7  6  1  0
  8  9  2  0
  8  7  1  0
 10 11  1  0
 12 13  1  0
 12 11  1  0
 14 13  1  1
 14 16  1  0
 14 15  1  0
 15  8  1  0
 16 17  1  0
 18 16  2  0
M  END
$$$$
