AGM.pdb
     RDKit          3D

 18 17  0  0  1  0  0  0  0  0999 V2000
    6.3482  -17.9393   18.8140 C   0  0  0  0  0  0  0  0  0  0  0  0
    7.1643  -18.6516   19.8672 C   0  0  2  0  0  0  0  0  0  0  0  0
    6.4442  -18.6349   21.1023 N   0  0  0  0  0  0  0  0  0  0  0  0
    8.4745  -17.9639   19.9695 C   0  0  0  0  0  0  0  0  0  0  0  0
    9.2371  -17.9962   18.9700 O   0  0  0  0  0  0  0  0  0  0  0  0
    8.9132  -17.2778   21.1194 N   0  0  0  0  0  0  0  0  0  0  0  0
   10.1994  -16.6751   21.2733 C   0  0  0  0  0  0  0  0  0  0  0  0
   10.3405  -15.9826   22.5991 C   0  0  0  0  0  0  0  0  0  0  0  0
   11.4448  -15.5179   22.9481 O   0  0  0  0  0  0  0  0  0  0  0  0
    6.0675  -11.5882   27.4045 C   0  0  0  0  0  0  0  0  0  0  0  0
    6.2939  -12.5893   25.8988 S   0  0  0  0  0  0  0  0  0  0  0  0
    7.8481  -13.5298   26.0431 C   0  0  0  0  0  0  0  0  0  0  0  0
    8.0656  -14.2405   24.7481 C   0  0  0  0  0  0  0  0  0  0  0  0
    9.2604  -15.1417   24.7169 C   0  0  2  0  0  0  0  0  0  0  0  0
    9.2367  -15.8539   23.4506 N   0  0  0  0  0  0  0  0  0  0  0  0
    9.2861  -16.1287   25.8247 C   0  0  0  0  0  0  0  0  0  0  0  0
    9.6769  -15.8052   27.1164 O   0  0  0  0  0  0  0  0  0  0  0  0
    8.9451  -17.3259   25.6252 O   0  0  0  0  0  0  0  0  0  0  0  0
  2  1  1  6
  3  2  1  0
  4  6  1  0
  4  2  1  0
  5  4  2  0
  7  6  1  0
  8  9  2  0
  8  7  1  0
 10 11  1  0
 12 13  1  0
 12 11  1  0
 14 13  1  1
 14 16  1  0
 14 15  1  0
 15  8  1  0
 16 17  1  0
 18 16  2  0
M  END
$$$$
