AGM.pdb
     RDKit          3D

 18 17  0  0  1  0  0  0  0  0999 V2000
    5.7938  -19.8082   19.1203 C   0  0  0  0  0  0  0  0  0  0  0  0
    7.0346  -19.3993   19.8793 C   0  0  2  0  0  0  0  0  0  0  0  0
    7.7227  -20.5755   20.3119 N   0  0  0  0  0  0  0  0  0  0  0  0
    6.6118  -18.5440   21.0150 C   0  0  0  0  0  0  0  0  0  0  0  0
    6.1921  -17.3868   20.7574 O   0  0  0  0  0  0  0  0  0  0  0  0
    6.6531  -18.9523   22.3630 N   0  0  0  0  0  0  0  0  0  0  0  0
    6.3753  -18.1102   23.4833 C   0  0  0  0  0  0  0  0  0  0  0  0
    7.4864  -17.1323   23.7405 C   0  0  0  0  0  0  0  0  0  0  0  0
    8.6070  -17.3072   23.2200 O   0  0  0  0  0  0  0  0  0  0  0  0
    6.8278  -10.9613   27.0672 C   0  0  0  0  0  0  0  0  0  0  0  0
    5.7336  -12.3209   26.5430 S   0  0  0  0  0  0  0  0  0  0  0  0
    6.5416  -13.2427   25.1945 C   0  0  0  0  0  0  0  0  0  0  0  0
    7.6658  -14.0220   25.7930 C   0  0  0  0  0  0  0  0  0  0  0  0
    8.2894  -15.0309   24.8798 C   0  0  2  0  0  0  0  0  0  0  0  0
    7.2733  -16.0204   24.5640 N   0  0  0  0  0  0  0  0  0  0  0  0
    9.4640  -15.7182   25.4715 C   0  0  0  0  0  0  0  0  0  0  0  0
    9.3552  -16.8432   26.2767 O   0  0  0  0  0  0  0  0  0  0  0  0
   10.6313  -15.2926   25.2575 O   0  0  0  0  0  0  0  0  0  0  0  0
  2  1  1  1
  3  2  1  0
  4  6  1  0
  4  2  1  0
  5  4  2  0
  7  6  1  0
  8  9  2  0
  8  7  1  0
 10 11  1  0
 12 13  1  0
 12 11  1  0
 14 13  1  1
 14 16  1  0
 14 15  1  0
 15  8  1  0
 16 17  1  0
 18 16  2  0
M  END
$$$$
