AGM.pdb
     RDKit          3D

 18 17  0  0  1  0  0  0  0  0999 V2000
    7.7959  -12.7132   18.1504 C   0  0  0  0  0  0  0  0  0  0  0  0
    8.7269  -13.7351   18.7602 C   0  0  2  0  0  0  0  0  0  0  0  0
    8.9309  -14.7950   17.8226 N   0  0  0  0  0  0  0  0  0  0  0  0
    8.1144  -14.2112   20.0244 C   0  0  0  0  0  0  0  0  0  0  0  0
    7.8996  -13.3659   20.9305 O   0  0  0  0  0  0  0  0  0  0  0  0
    7.7598  -15.5529   20.2683 N   0  0  0  0  0  0  0  0  0  0  0  0
    7.2800  -16.0603   21.5148 C   0  0  0  0  0  0  0  0  0  0  0  0
    8.1511  -15.6413   22.6649 C   0  0  0  0  0  0  0  0  0  0  0  0
    9.3914  -15.7524   22.5834 O   0  0  0  0  0  0  0  0  0  0  0  0
    5.4180  -11.9186   27.4661 C   0  0  0  0  0  0  0  0  0  0  0  0
    7.0987  -11.3182   27.0981 S   0  0  0  0  0  0  0  0  0  0  0  0
    8.1540  -12.7414   26.6717 C   0  0  0  0  0  0  0  0  0  0  0  0
    7.5552  -13.4026   25.4744 C   0  0  0  0  0  0  0  0  0  0  0  0
    8.3400  -14.5567   24.9334 C   0  0  2  0  0  0  0  0  0  0  0  0
    7.5791  -15.1245   23.8334 N   0  0  0  0  0  0  0  0  0  0  0  0
    8.6003  -15.6177   25.9377 C   0  0  0  0  0  0  0  0  0  0  0  0
    9.6489  -15.5590   26.8449 O   0  0  0  0  0  0  0  0  0  0  0  0
    7.8587  -16.6352   26.0029 O   0  0  0  0  0  0  0  0  0  0  0  0
  2  1  1  6
  3  2  1  0
  4  6  1  0
  4  2  1  0
  5  4  2  0
  7  6  1  0
  8  9  2  0
  8  7  1  0
 10 11  1  0
 12 13  1  0
 12 11  1  0
 14 13  1  1
 14 16  1  0
 14 15  1  0
 15  8  1  0
 16 17  1  0
 18 16  2  0
M  END
$$$$
