AGM.pdb
     RDKit          3D

 18 17  0  0  1  0  0  0  0  0999 V2000
    7.8735  -12.1747   19.3080 C   0  0  0  0  0  0  0  0  0  0  0  0
    8.0113  -13.6343   18.9427 C   0  0  2  0  0  0  0  0  0  0  0  0
    6.7152  -14.1649   18.6544 N   0  0  0  0  0  0  0  0  0  0  0  0
    8.6640  -14.3280   20.0797 C   0  0  0  0  0  0  0  0  0  0  0  0
    9.8798  -14.0901   20.2962 O   0  0  0  0  0  0  0  0  0  0  0  0
    8.0020  -15.2364   20.9295 N   0  0  0  0  0  0  0  0  0  0  0  0
    8.6220  -15.9701   21.9872 C   0  0  0  0  0  0  0  0  0  0  0  0
    8.4054  -15.3201   23.3242 C   0  0  0  0  0  0  0  0  0  0  0  0
    7.4099  -14.5915   23.5120 O   0  0  0  0  0  0  0  0  0  0  0  0
    5.6783  -11.7478   27.0943 C   0  0  0  0  0  0  0  0  0  0  0  0
    7.4374  -12.0651   26.7398 S   0  0  0  0  0  0  0  0  0  0  0  0
    7.5585  -13.1797   25.3031 C   0  0  0  0  0  0  0  0  0  0  0  0
    7.6975  -14.5719   25.8244 C   0  0  0  0  0  0  0  0  0  0  0  0
    9.0808  -15.1385   25.7469 C   0  0  2  0  0  0  0  0  0  0  0  0
    9.3168  -15.5266   24.3666 N   0  0  0  0  0  0  0  0  0  0  0  0
    9.2862  -16.3196   26.6215 C   0  0  0  0  0  0  0  0  0  0  0  0
    9.5813  -16.2168   27.9736 O   0  0  0  0  0  0  0  0  0  0  0  0
    9.1976  -17.4871   26.1541 O   0  0  0  0  0  0  0  0  0  0  0  0
  2  1  1  1
  3  2  1  0
  4  6  1  0
  4  2  1  0
  5  4  2  0
  7  6  1  0
  8  9  2  0
  8  7  1  0
 10 11  1  0
 12 13  1  0
 12 11  1  0
 14 13  1  6
 14 16  1  0
 14 15  1  0
 15  8  1  0
 16 17  1  0
 18 16  2  0
M  END
$$$$
