AGM.pdb
     RDKit          3D

 18 17  0  0  1  0  0  0  0  0999 V2000
    5.9947  -20.3260   20.6219 C   0  0  0  0  0  0  0  0  0  0  0  0
    6.3538  -19.5370   21.8594 C   0  0  2  0  0  0  0  0  0  0  0  0
    5.1638  -18.9619   22.4047 N   0  0  0  0  0  0  0  0  0  0  0  0
    7.3493  -18.5086   21.4700 C   0  0  0  0  0  0  0  0  0  0  0  0
    8.4989  -18.8964   21.1387 O   0  0  0  0  0  0  0  0  0  0  0  0
    7.0820  -17.1253   21.4498 N   0  0  0  0  0  0  0  0  0  0  0  0
    8.0406  -16.1096   21.1483 C   0  0  0  0  0  0  0  0  0  0  0  0
    8.5856  -15.4646   22.3908 C   0  0  0  0  0  0  0  0  0  0  0  0
    9.4446  -14.5636   22.3030 O   0  0  0  0  0  0  0  0  0  0  0  0
    6.2935  -10.6242   26.4223 C   0  0  0  0  0  0  0  0  0  0  0  0
    6.2175  -12.4441   26.4746 S   0  0  0  0  0  0  0  0  0  0  0  0
    7.6263  -13.1212   25.5377 C   0  0  0  0  0  0  0  0  0  0  0  0
    7.5172  -14.6098   25.5746 C   0  0  0  0  0  0  0  0  0  0  0  0
    8.6410  -15.3407   24.9088 C   0  0  2  0  0  0  0  0  0  0  0  0
    8.1350  -15.8686   23.6531 N   0  0  0  0  0  0  0  0  0  0  0  0
    9.1813  -16.4601   25.7194 C   0  0  0  0  0  0  0  0  0  0  0  0
   10.1973  -16.2974   26.6507 O   0  0  0  0  0  0  0  0  0  0  0  0
    8.7242  -17.6275   25.5865 O   0  0  0  0  0  0  0  0  0  0  0  0
  2  1  1  6
  3  2  1  0
  4  6  1  0
  4  2  1  0
  5  4  2  0
  7  6  1  0
  8  9  2  0
  8  7  1  0
 10 11  1  0
 12 13  1  0
 12 11  1  0
 14 13  1  1
 14 16  1  0
 14 15  1  0
 15  8  1  0
 16 17  1  0
 18 16  2  0
M  END
$$$$
