AGM.pdb
     RDKit          3D

 18 17  0  0  1  0  0  0  0  0999 V2000
    7.2919  -18.7052   17.7092 C   0  0  0  0  0  0  0  0  0  0  0  0
    8.5112  -18.3812   18.5404 C   0  0  2  0  0  0  0  0  0  0  0  0
    8.7565  -19.4609   19.4451 N   0  0  0  0  0  0  0  0  0  0  0  0
    8.2538  -17.1022   19.2460 C   0  0  0  0  0  0  0  0  0  0  0  0
    8.2042  -16.0496   18.5596 O   0  0  0  0  0  0  0  0  0  0  0  0
    8.0620  -16.9985   20.6381 N   0  0  0  0  0  0  0  0  0  0  0  0
    7.7577  -15.7893   21.3357 C   0  0  0  0  0  0  0  0  0  0  0  0
    8.6480  -15.5899   22.5294 C   0  0  0  0  0  0  0  0  0  0  0  0
    9.7921  -16.0879   22.5470 O   0  0  0  0  0  0  0  0  0  0  0  0
    5.0629  -11.6961   27.3048 C   0  0  0  0  0  0  0  0  0  0  0  0
    6.7727  -11.6687   26.6750 S   0  0  0  0  0  0  0  0  0  0  0  0
    7.1147  -13.2446   25.8262 C   0  0  0  0  0  0  0  0  0  0  0  0
    8.5079  -13.1754   25.2936 C   0  0  0  0  0  0  0  0  0  0  0  0
    9.0401  -14.4654   24.7520 C   0  0  2  0  0  0  0  0  0  0  0  0
    8.2017  -14.8457   23.6279 N   0  0  0  0  0  0  0  0  0  0  0  0
    9.0433  -15.5677   25.7456 C   0  0  0  0  0  0  0  0  0  0  0  0
    8.1418  -16.6220   25.7078 O   0  0  0  0  0  0  0  0  0  0  0  0
    9.8869  -15.5845   26.6824 O   0  0  0  0  0  0  0  0  0  0  0  0
  2  1  1  1
  3  2  1  0
  4  6  1  0
  4  2  1  0
  5  4  2  0
  7  6  1  0
  8  9  2  0
  8  7  1  0
 10 11  1  0
 12 13  1  0
 12 11  1  0
 14 13  1  1
 14 16  1  0
 14 15  1  0
 15  8  1  0
 16 17  1  0
 18 16  2  0
M  END
$$$$
