AGM.pdb
     RDKit          3D

 18 17  0  0  1  0  0  0  0  0999 V2000
    5.9680  -19.3791   19.4549 C   0  0  0  0  0  0  0  0  0  0  0  0
    6.6068  -19.1117   20.7977 C   0  0  2  0  0  0  0  0  0  0  0  0
    5.5882  -18.7443   21.7313 N   0  0  0  0  0  0  0  0  0  0  0  0
    7.6170  -18.0410   20.6156 C   0  0  0  0  0  0  0  0  0  0  0  0
    8.6559  -18.3154   19.9621 O   0  0  0  0  0  0  0  0  0  0  0  0
    7.4802  -16.7368   21.1312 N   0  0  0  0  0  0  0  0  0  0  0  0
    8.4588  -15.7023   21.0142 C   0  0  0  0  0  0  0  0  0  0  0  0
    8.9230  -15.2133   22.3567 C   0  0  0  0  0  0  0  0  0  0  0  0
    9.8092  -14.3381   22.4318 O   0  0  0  0  0  0  0  0  0  0  0  0
    6.3996  -10.6880   26.5239 C   0  0  0  0  0  0  0  0  0  0  0  0
    6.3009  -12.5070   26.4776 S   0  0  0  0  0  0  0  0  0  0  0  0
    7.6668  -13.1467   25.4548 C   0  0  0  0  0  0  0  0  0  0  0  0
    7.6003  -14.6377   25.4972 C   0  0  0  0  0  0  0  0  0  0  0  0
    8.7649  -15.3385   24.8703 C   0  0  2  0  0  0  0  0  0  0  0  0
    8.3660  -15.7348   23.5304 N   0  0  0  0  0  0  0  0  0  0  0  0
    9.2036  -16.5426   25.6186 C   0  0  0  0  0  0  0  0  0  0  0  0
   10.0968  -16.4895   26.6793 O   0  0  0  0  0  0  0  0  0  0  0  0
    8.7688  -17.6845   25.3082 O   0  0  0  0  0  0  0  0  0  0  0  0
  2  1  1  6
  3  2  1  0
  4  6  1  0
  4  2  1  0
  5  4  2  0
  7  6  1  0
  8  9  2  0
  8  7  1  0
 10 11  1  0
 12 13  1  0
 12 11  1  0
 14 13  1  1
 14 16  1  0
 14 15  1  0
 15  8  1  0
 16 17  1  0
 18 16  2  0
M  END
$$$$
