AGM.pdb
     RDKit          3D

 18 17  0  0  1  0  0  0  0  0999 V2000
    3.9576  -19.3610   21.1904 C   0  0  0  0  0  0  0  0  0  0  0  0
    5.3763  -19.6161   21.6432 C   0  0  2  0  0  0  0  0  0  0  0  0
    5.4241  -19.5643   23.0713 N   0  0  0  0  0  0  0  0  0  0  0  0
    6.2457  -18.5929   21.0129 C   0  0  0  0  0  0  0  0  0  0  0  0
    6.2969  -18.5553   19.7569 O   0  0  0  0  0  0  0  0  0  0  0  0
    7.0160  -17.6625   21.7384 N   0  0  0  0  0  0  0  0  0  0  0  0
    7.8394  -16.6498   21.1573 C   0  0  0  0  0  0  0  0  0  0  0  0
    8.4794  -15.7785   22.2006 C   0  0  0  0  0  0  0  0  0  0  0  0
    9.4126  -15.0111   21.8886 O   0  0  0  0  0  0  0  0  0  0  0  0
    6.1983  -10.7142   26.6929 C   0  0  0  0  0  0  0  0  0  0  0  0
    6.2500  -12.5345   26.6259 S   0  0  0  0  0  0  0  0  0  0  0  0
    7.6219  -13.0469   25.5414 C   0  0  0  0  0  0  0  0  0  0  0  0
    7.6193  -14.5390   25.4873 C   0  0  0  0  0  0  0  0  0  0  0  0
    8.6897  -15.1403   24.6311 C   0  0  2  0  0  0  0  0  0  0  0  0
    8.0345  -15.8213   23.5273 N   0  0  0  0  0  0  0  0  0  0  0  0
    9.5499  -16.1102   25.3533 C   0  0  0  0  0  0  0  0  0  0  0  0
    9.3498  -17.4825   25.3020 O   0  0  0  0  0  0  0  0  0  0  0  0
   10.5170  -15.7105   26.0565 O   0  0  0  0  0  0  0  0  0  0  0  0
  2  1  1  1
  3  2  1  0
  4  6  1  0
  4  2  1  0
  5  4  2  0
  7  6  1  0
  8  9  2  0
  8  7  1  0
 10 11  1  0
 12 13  1  0
 12 11  1  0
 14 13  1  1
 14 16  1  0
 14 15  1  0
 15  8  1  0
 16 17  1  0
 18 16  2  0
M  END
$$$$
