WCL.pdb
     RDKit          3D

 29 30  0  0  1  0  0  0  0  0999 V2000
    7.8189  -17.2895   20.7421 N   0  0  0  0  0  0  0  0  0  0  0  0
    8.2262  -16.5093   21.8782 C   0  0  1  0  0  0  0  0  0  0  0  0
    7.0595  -15.8429   22.5080 C   0  0  0  0  0  0  0  0  0  0  0  0
    7.1921  -14.3769   22.6732 C   0  0  0  0  0  0  0  0  0  0  0  0
    7.5067  -13.4370   21.7207 C   0  0  0  0  0  0  0  0  0  0  0  0
    7.4731  -12.2432   22.3135 N   0  0  0  0  0  0  0  0  0  0  0  0
    7.1509  -12.3442   23.6194 C   0  0  0  0  0  0  0  0  0  0  0  0
    6.9945  -11.4597   24.6455 C   0  0  0  0  0  0  0  0  0  0  0  0
    6.6658  -11.8843   25.9008 C   0  0  0  0  0  0  0  0  0  0  0  0
    6.4874  -13.2197   26.1474 C   0  0  0  0  0  0  0  0  0  0  0  0
    6.6372  -14.1273   25.1388 C   0  0  0  0  0  0  0  0  0  0  0  0
    6.9731  -13.7009   23.8471 C   0  0  0  0  0  0  0  0  0  0  0  0
    8.9606  -17.4035   22.8070 C   0  0  0  0  0  0  0  0  0  0  0  0
    8.3770  -18.3065   23.4529 O   0  0  0  0  0  0  0  0  0  0  0  0
   10.3476  -17.2641   22.9935 N   0  0  0  0  0  0  0  0  0  0  0  0
   11.0812  -18.0209   24.0042 C   0  0  1  0  0  0  0  0  0  0  0  0
   12.2867  -18.6819   23.3939 C   0  0  0  0  0  0  0  0  0  0  0  0
   13.2921  -19.4883   24.6544 S   0  0  0  0  0  0  0  0  0  0  0  0
   11.3612  -17.1116   25.1220 C   0  0  0  0  0  0  0  0  0  0  0  0
   12.0223  -16.0628   24.8828 O   0  0  0  0  0  0  0  0  0  0  0  0
    9.9837  -13.4528   27.3885 C   0  0  0  0  0  0  0  0  0  0  0  0
   10.2049  -14.8861   27.6929 C   0  0  2  0  0  0  0  0  0  0  0  0
    9.5266  -15.2389   29.0457 C   0  0  0  0  0  0  0  0  0  0  0  0
   11.5908  -15.3729   27.7079 C   0  0  0  0  0  0  0  0  0  0  0  0
   11.8169  -16.8233   27.5940 C   0  0  2  0  0  0  0  0  0  0  0  0
   10.9521  -17.3065   26.4473 N   0  0  0  0  0  0  0  0  0  0  0  0
   11.4477  -17.6578   28.7169 C   0  0  0  0  0  0  0  0  0  0  0  0
   12.0056  -17.5879   29.9694 O   0  0  0  0  0  0  0  0  0  0  0  0
   10.5327  -18.5621   28.5787 O   0  0  0  0  0  0  0  0  0  0  0  0
  2  1  1  6
  2  3  1  0
  2 13  1  0
  3  4  1  0
  4  5  2  0
  5  6  1  0
  7  8  2  0
  7  6  1  0
  9  8  1  0
 10  9  2  0
 11 10  1  0
 11 12  2  0
 12  4  1  0
 12  7  1  0
 13 15  1  0
 13 14  2  0
 15 16  1  0
 16 17  1  6
 18 17  1  0
 19 16  1  0
 19 20  2  0
 22 21  1  1
 23 22  1  0
 24 22  1  0
 25 24  1  1
 25 26  1  0
 26 19  1  0
 27 28  1  0
 27 25  1  0
 29 27  2  0
M  END
$$$$
