WCL.pdb
     RDKit          3D

 29 30  0  0  1  0  0  0  0  0999 V2000
    6.2503  -16.9890   24.3613 N   0  0  0  0  0  0  0  0  0  0  0  0
    7.5747  -16.5299   24.0440 C   0  0  1  0  0  0  0  0  0  0  0  0
    7.8094  -15.1716   24.5935 C   0  0  0  0  0  0  0  0  0  0  0  0
    7.1271  -14.0770   23.8652 C   0  0  0  0  0  0  0  0  0  0  0  0
    6.0533  -13.3219   24.2731 C   0  0  0  0  0  0  0  0  0  0  0  0
    5.8064  -12.4303   23.3130 N   0  0  0  0  0  0  0  0  0  0  0  0
    6.6667  -12.5571   22.2819 C   0  0  0  0  0  0  0  0  0  0  0  0
    6.8399  -11.9239   21.0866 C   0  0  0  0  0  0  0  0  0  0  0  0
    7.8269  -12.3025   20.2225 C   0  0  0  0  0  0  0  0  0  0  0  0
    8.6648  -13.3355   20.5499 C   0  0  0  0  0  0  0  0  0  0  0  0
    8.5146  -13.9868   21.7401 C   0  0  0  0  0  0  0  0  0  0  0  0
    7.5055  -13.6045   22.6337 C   0  0  0  0  0  0  0  0  0  0  0  0
    8.5404  -17.5385   24.5454 C   0  0  0  0  0  0  0  0  0  0  0  0
    8.2832  -18.2622   25.5369 O   0  0  0  0  0  0  0  0  0  0  0  0
    9.7866  -17.7154   23.9177 N   0  0  0  0  0  0  0  0  0  0  0  0
   10.9427  -18.2705   24.6161 C   0  0  1  0  0  0  0  0  0  0  0  0
   12.1045  -18.4209   23.6727 C   0  0  0  0  0  0  0  0  0  0  0  0
   13.5070  -19.2047   24.4904 S   0  0  0  0  0  0  0  0  0  0  0  0
   11.1937  -17.4313   25.7939 C   0  0  0  0  0  0  0  0  0  0  0  0
   11.5890  -16.2469   25.6056 O   0  0  0  0  0  0  0  0  0  0  0  0
   11.4552  -13.7269   27.8361 C   0  0  0  0  0  0  0  0  0  0  0  0
   10.3924  -14.7210   27.5566 C   0  0  2  0  0  0  0  0  0  0  0  0
    9.0057  -14.0205   27.5924 C   0  0  0  0  0  0  0  0  0  0  0  0
   10.3461  -15.9234   28.3992 C   0  0  0  0  0  0  0  0  0  0  0  0
   11.4298  -16.9101   28.2586 C   0  0  2  0  0  0  0  0  0  0  0  0
   11.0291  -17.8331   27.1254 N   0  0  0  0  0  0  0  0  0  0  0  0
   11.6978  -17.7877   29.3774 C   0  0  0  0  0  0  0  0  0  0  0  0
   11.4613  -19.1399   29.3942 O   0  0  0  0  0  0  0  0  0  0  0  0
   12.1897  -17.3078   30.4737 O   0  0  0  0  0  0  0  0  0  0  0  0
  2  1  1  1
  2  3  1  0
  2 13  1  0
  3  4  1  0
  4  5  2  0
  5  6  1  0
  7  8  2  0
  7  6  1  0
  9  8  1  0
 10  9  2  0
 11 10  1  0
 11 12  2  0
 12  4  1  0
 12  7  1  0
 13 15  1  0
 13 14  2  0
 15 16  1  0
 16 17  1  6
 18 17  1  0
 19 16  1  0
 19 20  2  0
 22 21  1  1
 23 22  1  0
 24 22  1  0
 25 24  1  1
 25 26  1  0
 26 19  1  0
 27 28  1  0
 27 25  1  0
 29 27  2  0
M  END
$$$$
