WCL.pdb
     RDKit          3D

 29 30  0  0  1  0  0  0  0  0999 V2000
    6.4961  -17.9823   24.8599 N   0  0  0  0  0  0  0  0  0  0  0  0
    7.7072  -17.3651   24.3932 C   0  0  1  0  0  0  0  0  0  0  0  0
    8.1564  -16.3062   25.3307 C   0  0  0  0  0  0  0  0  0  0  0  0
    7.1249  -15.3017   25.6787 C   0  0  0  0  0  0  0  0  0  0  0  0
    5.9331  -15.4966   26.3355 C   0  0  0  0  0  0  0  0  0  0  0  0
    5.3492  -14.3047   26.4621 N   0  0  0  0  0  0  0  0  0  0  0  0
    6.0976  -13.3228   25.9184 C   0  0  0  0  0  0  0  0  0  0  0  0
    5.9617  -11.9736   25.7748 C   0  0  0  0  0  0  0  0  0  0  0  0
    6.9184  -11.2298   25.1457 C   0  0  0  0  0  0  0  0  0  0  0  0
    8.0392  -11.8375   24.6451 C   0  0  0  0  0  0  0  0  0  0  0  0
    8.2014  -13.1866   24.7751 C   0  0  0  0  0  0  0  0  0  0  0  0
    7.2258  -13.9579   25.4203 C   0  0  0  0  0  0  0  0  0  0  0  0
    8.7163  -18.4338   24.1912 C   0  0  0  0  0  0  0  0  0  0  0  0
    9.0018  -19.2516   25.0983 O   0  0  0  0  0  0  0  0  0  0  0  0
    9.3905  -18.5636   22.9637 N   0  0  0  0  0  0  0  0  0  0  0  0
   10.3917  -17.5999   22.5151 C   0  0  1  0  0  0  0  0  0  0  0  0
    9.7607  -16.5590   21.6314 C   0  0  0  0  0  0  0  0  0  0  0  0
   11.0048  -15.4485   20.9467 S   0  0  0  0  0  0  0  0  0  0  0  0
   11.0740  -17.0826   23.7072 C   0  0  0  0  0  0  0  0  0  0  0  0
   12.2529  -16.6498   23.5756 O   0  0  0  0  0  0  0  0  0  0  0  0
    9.5249  -14.9614   29.3220 C   0  0  0  0  0  0  0  0  0  0  0  0
   10.5125  -15.0562   28.2214 C   0  0  2  0  0  0  0  0  0  0  0  0
   10.9500  -13.6277   27.7936 C   0  0  0  0  0  0  0  0  0  0  0  0
   10.1294  -15.8203   27.0267 C   0  0  0  0  0  0  0  0  0  0  0  0
   11.1875  -16.1905   26.0722 C   0  0  2  0  0  0  0  0  0  0  0  0
   10.5245  -17.0240   24.9942 N   0  0  0  0  0  0  0  0  0  0  0  0
   12.2813  -17.0060   26.5544 C   0  0  0  0  0  0  0  0  0  0  0  0
   12.1508  -18.2594   27.0990 O   0  0  0  0  0  0  0  0  0  0  0  0
   13.4948  -16.5605   26.4990 O   0  0  0  0  0  0  0  0  0  0  0  0
  2  1  1  1
  2  3  1  0
  2 13  1  0
  3  4  1  0
  4  5  2  0
  5  6  1  0
  7  8  2  0
  7  6  1  0
  9  8  1  0
 10  9  2  0
 11 10  1  0
 11 12  2  0
 12  4  1  0
 12  7  1  0
 13 15  1  0
 13 14  2  0
 15 16  1  0
 16 17  1  1
 18 17  1  0
 19 16  1  0
 19 20  2  0
 22 21  1  1
 23 22  1  0
 24 22  1  0
 25 24  1  1
 25 26  1  0
 26 19  1  0
 27 28  1  0
 27 25  1  0
 29 27  2  0
M  END
$$$$
