WCL.pdb
     RDKit          3D

 29 30  0  0  1  0  0  0  0  0999 V2000
    6.3110  -18.5779   24.0667 N   0  0  0  0  0  0  0  0  0  0  0  0
    7.1172  -17.3972   23.9196 C   0  0  1  0  0  0  0  0  0  0  0  0
    7.3783  -16.7674   25.2376 C   0  0  0  0  0  0  0  0  0  0  0  0
    6.4825  -15.6379   25.5782 C   0  0  0  0  0  0  0  0  0  0  0  0
    5.2119  -15.6858   26.1005 C   0  0  0  0  0  0  0  0  0  0  0  0
    4.8082  -14.4278   26.2805 N   0  0  0  0  0  0  0  0  0  0  0  0
    5.7523  -13.5423   25.9009 C   0  0  0  0  0  0  0  0  0  0  0  0
    5.8417  -12.1820   25.8690 C   0  0  0  0  0  0  0  0  0  0  0  0
    6.9629  -11.5580   25.4023 C   0  0  0  0  0  0  0  0  0  0  0  0
    8.0238  -12.3000   24.9549 C   0  0  0  0  0  0  0  0  0  0  0  0
    7.9617  -13.6635   24.9757 C   0  0  0  0  0  0  0  0  0  0  0  0
    6.8159  -14.3127   25.4541 C   0  0  0  0  0  0  0  0  0  0  0  0
    8.3563  -17.7770   23.1972 C   0  0  0  0  0  0  0  0  0  0  0  0
    8.8259  -18.9384   23.2584 O   0  0  0  0  0  0  0  0  0  0  0  0
    9.0492  -16.8365   22.4140 N   0  0  0  0  0  0  0  0  0  0  0  0
   10.4900  -16.9147   22.1895 C   0  0  1  0  0  0  0  0  0  0  0  0
   10.9010  -15.9832   21.0823 C   0  0  0  0  0  0  0  0  0  0  0  0
   10.1365  -14.3627   21.2806 S   0  0  0  0  0  0  0  0  0  0  0  0
   11.1522  -16.6885   23.4798 C   0  0  0  0  0  0  0  0  0  0  0  0
   12.4146  -16.6857   23.5067 O   0  0  0  0  0  0  0  0  0  0  0  0
    9.9152  -14.3608   29.0756 C   0  0  0  0  0  0  0  0  0  0  0  0
   10.8977  -14.9423   28.1310 C   0  0  2  0  0  0  0  0  0  0  0  0
   12.1160  -13.9868   27.9974 C   0  0  0  0  0  0  0  0  0  0  0  0
   10.4207  -15.3045   26.7897 C   0  0  0  0  0  0  0  0  0  0  0  0
   11.2939  -16.1360   25.9449 C   0  0  2  0  0  0  0  0  0  0  0  0
   10.4985  -16.4705   24.6991 N   0  0  0  0  0  0  0  0  0  0  0  0
   11.7250  -17.4149   26.4667 C   0  0  0  0  0  0  0  0  0  0  0  0
   12.9910  -17.6978   26.9161 O   0  0  0  0  0  0  0  0  0  0  0  0
   10.8929  -18.4040   26.5262 O   0  0  0  0  0  0  0  0  0  0  0  0
  2  1  1  1
  2  3  1  0
  2 13  1  0
  3  4  1  0
  4  5  2  0
  5  6  1  0
  7  8  2  0
  7  6  1  0
  9  8  1  0
 10  9  2  0
 11 10  1  0
 11 12  2  0
 12  4  1  0
 12  7  1  0
 13 15  1  0
 13 14  2  0
 15 16  1  0
 16 17  1  6
 18 17  1  0
 19 16  1  0
 19 20  2  0
 22 21  1  1
 23 22  1  0
 24 22  1  0
 25 24  1  1
 25 26  1  0
 26 19  1  0
 27 28  1  0
 27 25  1  0
 29 27  2  0
M  END
$$$$
