WCL.pdb
     RDKit          3D

 29 30  0  0  1  0  0  0  0  0999 V2000
   12.8043  -22.3542   15.2528 N   0  0  0  0  0  0  0  0  0  0  0  0
   13.1253  -22.8600   16.5592 C   0  0  1  0  0  0  0  0  0  0  0  0
   13.8885  -24.1288   16.4623 C   0  0  0  0  0  0  0  0  0  0  0  0
   13.1322  -25.2708   15.8982 C   0  0  0  0  0  0  0  0  0  0  0  0
   13.0001  -25.6374   14.5799 C   0  0  0  0  0  0  0  0  0  0  0  0
   12.2642  -26.7487   14.5480 N   0  0  0  0  0  0  0  0  0  0  0  0
   11.8983  -27.1399   15.7860 C   0  0  0  0  0  0  0  0  0  0  0  0
   11.1606  -28.1681   16.2940 C   0  0  0  0  0  0  0  0  0  0  0  0
   10.9511  -28.2915   17.6376 C   0  0  0  0  0  0  0  0  0  0  0  0
   11.4857  -27.3726   18.5014 C   0  0  0  0  0  0  0  0  0  0  0  0
   12.2287  -26.3334   18.0204 C   0  0  0  0  0  0  0  0  0  0  0  0
   12.4501  -26.1993   16.6434 C   0  0  0  0  0  0  0  0  0  0  0  0
   13.8510  -21.7958   17.2956 C   0  0  0  0  0  0  0  0  0  0  0  0
   14.4963  -20.9021   16.6973 O   0  0  0  0  0  0  0  0  0  0  0  0
   13.8373  -21.7566   18.7014 N   0  0  0  0  0  0  0  0  0  0  0  0
   14.5642  -20.7447   19.4631 C   0  0  1  0  0  0  0  0  0  0  0  0
   13.7010  -20.1960   20.5660 C   0  0  0  0  0  0  0  0  0  0  0  0
   14.6365  -19.0783   21.6270 S   0  0  0  0  0  0  0  0  0  0  0  0
   15.8329  -21.3426   19.8961 C   0  0  0  0  0  0  0  0  0  0  0  0
   15.8171  -22.5368   20.3057 O   0  0  0  0  0  0  0  0  0  0  0  0
   21.3321  -22.5361   18.2891 C   0  0  0  0  0  0  0  0  0  0  0  0
   20.3793  -22.4493   19.4207 C   0  0  2  0  0  0  0  0  0  0  0  0
   19.8751  -23.8738   19.7837 C   0  0  0  0  0  0  0  0  0  0  0  0
   19.2246  -21.5536   19.2714 C   0  0  0  0  0  0  0  0  0  0  0  0
   18.3085  -21.4076   20.4147 C   0  0  2  0  0  0  0  0  0  0  0  0
   17.0759  -20.6972   19.8926 N   0  0  0  0  0  0  0  0  0  0  0  0
   18.7492  -20.6117   21.5399 C   0  0  0  0  0  0  0  0  0  0  0  0
   19.2995  -21.1125   22.6936 O   0  0  0  0  0  0  0  0  0  0  0  0
   18.6277  -19.3239   21.5095 O   0  0  0  0  0  0  0  0  0  0  0  0
  2  1  1  6
  2  3  1  0
  2 13  1  0
  3  4  1  0
  4  5  2  0
  5  6  1  0
  7  8  2  0
  7  6  1  0
  9  8  1  0
 10  9  2  0
 11 10  1  0
 11 12  2  0
 12  4  1  0
 12  7  1  0
 13 15  1  0
 13 14  2  0
 15 16  1  0
 16 17  1  1
 18 17  1  0
 19 16  1  0
 19 20  2  0
 22 21  1  6
 23 22  1  0
 24 22  1  0
 25 24  1  6
 25 26  1  0
 26 19  1  0
 27 28  1  0
 27 25  1  0
 29 27  2  0
M  END
$$$$
