WCL.pdb
     RDKit          3D

 29 30  0  0  1  0  0  0  0  0999 V2000
    8.2600  -17.9243   21.0540 N   0  0  0  0  0  0  0  0  0  0  0  0
    8.6939  -16.8575   21.9137 C   0  0  1  0  0  0  0  0  0  0  0  0
    7.5842  -15.9095   22.1816 C   0  0  0  0  0  0  0  0  0  0  0  0
    7.0791  -15.1871   20.9911 C   0  0  0  0  0  0  0  0  0  0  0  0
    5.8989  -15.3815   20.3136 C   0  0  0  0  0  0  0  0  0  0  0  0
    5.8489  -14.4779   19.3344 N   0  0  0  0  0  0  0  0  0  0  0  0
    6.9434  -13.6895   19.3275 C   0  0  0  0  0  0  0  0  0  0  0  0
    7.3803  -12.6525   18.5572 C   0  0  0  0  0  0  0  0  0  0  0  0
    8.5793  -12.0467   18.8014 C   0  0  0  0  0  0  0  0  0  0  0  0
    9.3671  -12.4788   19.8352 C   0  0  0  0  0  0  0  0  0  0  0  0
    8.9543  -13.5146   20.6227 C   0  0  0  0  0  0  0  0  0  0  0  0
    7.7250  -14.1416   20.3806 C   0  0  0  0  0  0  0  0  0  0  0  0
    9.2556  -17.4635   23.1461 C   0  0  0  0  0  0  0  0  0  0  0  0
    8.6113  -18.3004   23.8224 O   0  0  0  0  0  0  0  0  0  0  0  0
   10.5408  -17.1140   23.5980 N   0  0  0  0  0  0  0  0  0  0  0  0
   11.1264  -17.6835   24.8085 C   0  0  1  0  0  0  0  0  0  0  0  0
   12.5464  -18.1100   24.5551 C   0  0  0  0  0  0  0  0  0  0  0  0
   13.3302  -17.0555   23.3208 S   0  0  0  0  0  0  0  0  0  0  0  0
   10.9466  -16.7069   25.8894 C   0  0  0  0  0  0  0  0  0  0  0  0
   11.5390  -15.5962   25.7905 O   0  0  0  0  0  0  0  0  0  0  0  0
    9.9754  -12.8958   27.0380 C   0  0  0  0  0  0  0  0  0  0  0  0
    9.0590  -14.0554   26.9314 C   0  0  2  0  0  0  0  0  0  0  0  0
    7.6085  -13.5494   26.6969 C   0  0  0  0  0  0  0  0  0  0  0  0
    9.0578  -15.0258   28.0342 C   0  0  0  0  0  0  0  0  0  0  0  0
   10.2258  -15.9103   28.1802 C   0  0  2  0  0  0  0  0  0  0  0  0
   10.1637  -16.9003   27.0345 N   0  0  0  0  0  0  0  0  0  0  0  0
   10.3152  -16.7250   29.3726 C   0  0  0  0  0  0  0  0  0  0  0  0
   10.5941  -16.2536   30.6315 O   0  0  0  0  0  0  0  0  0  0  0  0
   10.1361  -18.0042   29.2981 O   0  0  0  0  0  0  0  0  0  0  0  0
  2  1  1  6
  2  3  1  0
  2 13  1  0
  3  4  1  0
  4  5  2  0
  5  6  1  0
  7  8  2  0
  7  6  1  0
  9  8  1  0
 10  9  2  0
 11 10  1  0
 11 12  2  0
 12  4  1  0
 12  7  1  0
 13 15  1  0
 13 14  2  0
 15 16  1  0
 16 17  1  6
 18 17  1  0
 19 16  1  0
 19 20  2  0
 22 21  1  1
 23 22  1  0
 24 22  1  0
 25 24  1  1
 25 26  1  0
 26 19  1  0
 27 28  1  0
 27 25  1  0
 29 27  2  0
M  END
$$$$
