WCL.pdb
     RDKit          3D

 29 30  0  0  1  0  0  0  0  0999 V2000
    6.4153  -18.3745   24.2275 N   0  0  0  0  0  0  0  0  0  0  0  0
    7.1853  -17.1615   24.1942 C   0  0  1  0  0  0  0  0  0  0  0  0
    7.3333  -16.5913   25.5561 C   0  0  0  0  0  0  0  0  0  0  0  0
    6.4883  -15.4065   25.8322 C   0  0  0  0  0  0  0  0  0  0  0  0
    5.1961  -15.3718   26.2999 C   0  0  0  0  0  0  0  0  0  0  0  0
    4.8559  -14.0896   26.4338 N   0  0  0  0  0  0  0  0  0  0  0  0
    5.8629  -13.2668   26.0756 C   0  0  0  0  0  0  0  0  0  0  0  0
    6.0292  -11.9145   26.0171 C   0  0  0  0  0  0  0  0  0  0  0  0
    7.2019  -11.3645   25.5855 C   0  0  0  0  0  0  0  0  0  0  0  0
    8.2377  -12.1743   25.2012 C   0  0  0  0  0  0  0  0  0  0  0  0
    8.0991  -13.5314   25.2501 C   0  0  0  0  0  0  0  0  0  0  0  0
    6.8998  -14.1049   25.6928 C   0  0  0  0  0  0  0  0  0  0  0  0
    8.4836  -17.4622   23.5418 C   0  0  0  0  0  0  0  0  0  0  0  0
    9.0218  -18.5914   23.6331 O   0  0  0  0  0  0  0  0  0  0  0  0
    9.1572  -16.4799   22.7938 N   0  0  0  0  0  0  0  0  0  0  0  0
   10.5608  -16.6119   22.4131 C   0  0  1  0  0  0  0  0  0  0  0  0
   10.9067  -15.6272   21.3300 C   0  0  0  0  0  0  0  0  0  0  0  0
   12.5324  -15.9743   20.6326 S   0  0  0  0  0  0  0  0  0  0  0  0
   11.3636  -16.5076   23.6375 C   0  0  0  0  0  0  0  0  0  0  0  0
   12.6209  -16.5475   23.5282 O   0  0  0  0  0  0  0  0  0  0  0  0
   11.6362  -13.2955   26.8947 C   0  0  0  0  0  0  0  0  0  0  0  0
   10.5861  -14.3147   27.1281 C   0  0  2  0  0  0  0  0  0  0  0  0
    9.7666  -13.9339   28.3923 C   0  0  0  0  0  0  0  0  0  0  0  0
   11.0101  -15.7172   27.2336 C   0  0  0  0  0  0  0  0  0  0  0  0
   11.7869  -16.2917   26.1227 C   0  0  2  0  0  0  0  0  0  0  0  0
   10.8510  -16.3634   24.9329 N   0  0  0  0  0  0  0  0  0  0  0  0
   12.2982  -17.6365   26.2765 C   0  0  0  0  0  0  0  0  0  0  0  0
   13.3545  -17.9925   27.0779 O   0  0  0  0  0  0  0  0  0  0  0  0
   11.7587  -18.6135   25.6219 O   0  0  0  0  0  0  0  0  0  0  0  0
  2  1  1  1
  2  3  1  0
  2 13  1  0
  3  4  1  0
  4  5  2  0
  5  6  1  0
  7  8  2  0
  7  6  1  0
  9  8  1  0
 10  9  2  0
 11 10  1  0
 11 12  2  0
 12  4  1  0
 12  7  1  0
 13 15  1  0
 13 14  2  0
 15 16  1  0
 16 17  1  6
 18 17  1  0
 19 16  1  0
 19 20  2  0
 22 21  1  1
 23 22  1  0
 24 22  1  0
 25 24  1  1
 25 26  1  0
 26 19  1  0
 27 28  1  0
 27 25  1  0
 29 27  2  0
M  END
$$$$
