WCL.pdb
     RDKit          3D

 29 30  0  0  1  0  0  0  0  0999 V2000
    6.3681  -17.5950   25.1486 N   0  0  0  0  0  0  0  0  0  0  0  0
    7.2707  -16.6622   24.5315 C   0  0  1  0  0  0  0  0  0  0  0  0
    7.6605  -15.5938   25.4847 C   0  0  0  0  0  0  0  0  0  0  0  0
    6.5869  -14.6272   25.8121 C   0  0  0  0  0  0  0  0  0  0  0  0
    5.3777  -14.8701   26.4193 C   0  0  0  0  0  0  0  0  0  0  0  0
    4.7539  -13.6986   26.5461 N   0  0  0  0  0  0  0  0  0  0  0  0
    5.4922  -12.6845   26.0499 C   0  0  0  0  0  0  0  0  0  0  0  0
    5.3213  -11.3372   25.9266 C   0  0  0  0  0  0  0  0  0  0  0  0
    6.2779  -10.5533   25.3484 C   0  0  0  0  0  0  0  0  0  0  0  0
    7.4345  -11.1176   24.8794 C   0  0  0  0  0  0  0  0  0  0  0  0
    7.6323  -12.4637   24.9900 C   0  0  0  0  0  0  0  0  0  0  0  0
    6.6569  -13.2761   25.5830 C   0  0  0  0  0  0  0  0  0  0  0  0
    8.4281  -17.4266   24.0047 C   0  0  0  0  0  0  0  0  0  0  0  0
    8.8259  -18.4824   24.5526 O   0  0  0  0  0  0  0  0  0  0  0  0
    9.1218  -16.9858   22.8633 N   0  0  0  0  0  0  0  0  0  0  0  0
   10.5650  -17.1497   22.7129 C   0  0  1  0  0  0  0  0  0  0  0  0
   11.0425  -16.4754   21.4560 C   0  0  0  0  0  0  0  0  0  0  0  0
   12.7971  -16.7845   21.1803 S   0  0  0  0  0  0  0  0  0  0  0  0
   11.1954  -16.6848   23.9542 C   0  0  0  0  0  0  0  0  0  0  0  0
   10.8596  -15.5534   24.4029 O   0  0  0  0  0  0  0  0  0  0  0  0
   11.6554  -14.2591   27.1784 C   0  0  0  0  0  0  0  0  0  0  0  0
   10.8909  -15.5269   27.1154 C   0  0  2  0  0  0  0  0  0  0  0  0
    9.9794  -15.6450   28.3685 C   0  0  0  0  0  0  0  0  0  0  0  0
   11.6515  -16.7734   26.9543 C   0  0  0  0  0  0  0  0  0  0  0  0
   12.7355  -16.7997   25.9584 C   0  0  2  0  0  0  0  0  0  0  0  0
   12.1474  -17.3961   24.6955 N   0  0  0  0  0  0  0  0  0  0  0  0
   13.9007  -17.6083   26.2451 C   0  0  0  0  0  0  0  0  0  0  0  0
   14.0809  -18.9063   25.8358 O   0  0  0  0  0  0  0  0  0  0  0  0
   14.8720  -17.1193   26.9463 O   0  0  0  0  0  0  0  0  0  0  0  0
  2  1  1  1
  2  3  1  0
  2 13  1  0
  3  4  1  0
  4  5  2  0
  5  6  1  0
  7  8  2  0
  7  6  1  0
  9  8  1  0
 10  9  2  0
 11 10  1  0
 11 12  2  0
 12  4  1  0
 12  7  1  0
 13 15  1  0
 13 14  2  0
 15 16  1  0
 16 17  1  6
 18 17  1  0
 19 16  1  0
 19 20  2  0
 22 21  1  1
 23 22  1  0
 24 22  1  0
 25 24  1  1
 25 26  1  0
 26 19  1  0
 27 28  1  0
 27 25  1  0
 29 27  2  0
M  END
$$$$
