WCL.pdb
     RDKit          3D

 29 30  0  0  1  0  0  0  0  0999 V2000
    6.2740  -17.4929   24.6464 N   0  0  0  0  0  0  0  0  0  0  0  0
    7.2931  -16.5879   24.1905 C   0  0  1  0  0  0  0  0  0  0  0  0
    7.6679  -15.6309   25.2607 C   0  0  0  0  0  0  0  0  0  0  0  0
    6.6657  -14.5746   25.5328 C   0  0  0  0  0  0  0  0  0  0  0  0
    5.4831  -14.6803   26.2258 C   0  0  0  0  0  0  0  0  0  0  0  0
    4.9280  -13.4683   26.2522 N   0  0  0  0  0  0  0  0  0  0  0  0
    5.6867  -12.5585   25.6071 C   0  0  0  0  0  0  0  0  0  0  0  0
    5.5775  -11.2253   25.3421 C   0  0  0  0  0  0  0  0  0  0  0  0
    6.5374  -10.5651   24.6302 C   0  0  0  0  0  0  0  0  0  0  0  0
    7.6346  -11.2424   24.1679 C   0  0  0  0  0  0  0  0  0  0  0  0
    7.7699  -12.5774   24.4190 C   0  0  0  0  0  0  0  0  0  0  0  0
    6.7907  -13.2630   25.1497 C   0  0  0  0  0  0  0  0  0  0  0  0
    8.4372  -17.3966   23.7022 C   0  0  0  0  0  0  0  0  0  0  0  0
    8.6371  -18.5674   24.1052 O   0  0  0  0  0  0  0  0  0  0  0  0
    9.3418  -16.8694   22.7631 N   0  0  0  0  0  0  0  0  0  0  0  0
   10.7828  -17.0863   22.8574 C   0  0  1  0  0  0  0  0  0  0  0  0
   11.4959  -16.3741   21.7408 C   0  0  0  0  0  0  0  0  0  0  0  0
   13.2614  -16.7382   21.7622 S   0  0  0  0  0  0  0  0  0  0  0  0
   11.2001  -16.7073   24.2126 C   0  0  0  0  0  0  0  0  0  0  0  0
   10.7991  -15.6006   24.6695 O   0  0  0  0  0  0  0  0  0  0  0  0
   11.6852  -14.4765   27.7778 C   0  0  0  0  0  0  0  0  0  0  0  0
   10.5770  -15.3709   27.3683 C   0  0  2  0  0  0  0  0  0  0  0  0
    9.4600  -15.3395   28.4482 C   0  0  0  0  0  0  0  0  0  0  0  0
   10.9084  -16.7682   27.0593 C   0  0  0  0  0  0  0  0  0  0  0  0
   12.2370  -17.0564   26.4940 C   0  0  2  0  0  0  0  0  0  0  0  0
   12.0126  -17.4763   25.0553 N   0  0  0  0  0  0  0  0  0  0  0  0
   13.0053  -18.1330   27.0811 C   0  0  0  0  0  0  0  0  0  0  0  0
   13.0903  -19.4075   26.5782 O   0  0  0  0  0  0  0  0  0  0  0  0
   13.6739  -17.9324   28.1706 O   0  0  0  0  0  0  0  0  0  0  0  0
  2  1  1  1
  2  3  1  0
  2 13  1  0
  3  4  1  0
  4  5  2  0
  5  6  1  0
  7  8  2  0
  7  6  1  0
  9  8  1  0
 10  9  2  0
 11 10  1  0
 11 12  2  0
 12  4  1  0
 12  7  1  0
 13 15  1  0
 13 14  2  0
 15 16  1  0
 16 17  1  6
 18 17  1  0
 19 16  1  0
 19 20  2  0
 22 21  1  1
 23 22  1  0
 24 22  1  0
 25 24  1  1
 25 26  1  0
 26 19  1  0
 27 28  1  0
 27 25  1  0
 29 27  2  0
M  END
$$$$
