WCL.pdb
     RDKit          3D

 29 30  0  0  1  0  0  0  0  0999 V2000
    6.4038  -17.7480   24.2872 N   0  0  0  0  0  0  0  0  0  0  0  0
    7.3860  -16.7192   24.0814 C   0  0  1  0  0  0  0  0  0  0  0  0
    7.5990  -15.9354   25.3232 C   0  0  0  0  0  0  0  0  0  0  0  0
    6.5546  -14.9250   25.6106 C   0  0  0  0  0  0  0  0  0  0  0  0
    5.3079  -15.1197   26.1562 C   0  0  0  0  0  0  0  0  0  0  0  0
    4.7311  -13.9227   26.2673 N   0  0  0  0  0  0  0  0  0  0  0  0
    5.5366  -12.9378   25.8195 C   0  0  0  0  0  0  0  0  0  0  0  0
    5.4316  -11.5830   25.7047 C   0  0  0  0  0  0  0  0  0  0  0  0
    6.4488  -10.8368   25.1827 C   0  0  0  0  0  0  0  0  0  0  0  0
    7.6007  -11.4477   24.7627 C   0  0  0  0  0  0  0  0  0  0  0  0
    7.7332  -12.8023   24.8662 C   0  0  0  0  0  0  0  0  0  0  0  0
    6.6952  -13.5761   25.4018 C   0  0  0  0  0  0  0  0  0  0  0  0
    8.6237  -17.3633   23.5769 C   0  0  0  0  0  0  0  0  0  0  0  0
    8.6272  -18.5435   23.1523 O   0  0  0  0  0  0  0  0  0  0  0  0
    9.8433  -16.6630   23.5596 N   0  0  0  0  0  0  0  0  0  0  0  0
   11.1046  -17.2972   23.1866 C   0  0  1  0  0  0  0  0  0  0  0  0
   11.3771  -17.1036   21.7201 C   0  0  0  0  0  0  0  0  0  0  0  0
   10.5702  -15.6149   21.1014 S   0  0  0  0  0  0  0  0  0  0  0  0
   12.1416  -16.7870   24.0915 C   0  0  0  0  0  0  0  0  0  0  0  0
   13.3484  -17.0227   23.8044 O   0  0  0  0  0  0  0  0  0  0  0  0
   11.3579  -13.8875   27.7562 C   0  0  0  0  0  0  0  0  0  0  0  0
   10.6326  -15.1732   27.6270 C   0  0  2  0  0  0  0  0  0  0  0  0
    9.5820  -15.2919   28.7659 C   0  0  0  0  0  0  0  0  0  0  0  0
   11.4325  -16.4044   27.5799 C   0  0  0  0  0  0  0  0  0  0  0  0
   12.5075  -16.4943   26.5779 C   0  0  2  0  0  0  0  0  0  0  0  0
   11.9072  -16.0501   25.2593 N   0  0  0  0  0  0  0  0  0  0  0  0
   13.0769  -17.7970   26.3085 C   0  0  0  0  0  0  0  0  0  0  0  0
   12.3863  -18.8714   25.8051 O   0  0  0  0  0  0  0  0  0  0  0  0
   14.3276  -18.0205   26.5531 O   0  0  0  0  0  0  0  0  0  0  0  0
  2  1  1  1
  2  3  1  0
  2 13  1  0
  3  4  1  0
  4  5  2  0
  5  6  1  0
  7  8  2  0
  7  6  1  0
  9  8  1  0
 10  9  2  0
 11 10  1  0
 11 12  2  0
 12  4  1  0
 12  7  1  0
 13 15  1  0
 13 14  2  0
 15 16  1  0
 16 17  1  6
 18 17  1  0
 19 16  1  0
 19 20  2  0
 22 21  1  1
 23 22  1  0
 24 22  1  0
 25 24  1  1
 25 26  1  0
 26 19  1  0
 27 28  1  0
 27 25  1  0
 29 27  2  0
M  END
$$$$
