WCL.pdb
     RDKit          3D

 29 30  0  0  1  0  0  0  0  0999 V2000
    5.6609  -18.0153   21.9572 N   0  0  0  0  0  0  0  0  0  0  0  0
    6.7178  -17.1883   22.4715 C   0  0  1  0  0  0  0  0  0  0  0  0
    6.1759  -15.9275   23.0359 C   0  0  0  0  0  0  0  0  0  0  0  0
    7.1960  -14.9163   23.3979 C   0  0  0  0  0  0  0  0  0  0  0  0
    8.3937  -14.6538   22.7764 C   0  0  0  0  0  0  0  0  0  0  0  0
    8.9626  -13.6359   23.4228 N   0  0  0  0  0  0  0  0  0  0  0  0
    8.1986  -13.2077   24.4487 C   0  0  0  0  0  0  0  0  0  0  0  0
    8.3161  -12.2369   25.3992 C   0  0  0  0  0  0  0  0  0  0  0  0
    7.3465  -12.0499   26.3422 C   0  0  0  0  0  0  0  0  0  0  0  0
    6.2311  -12.8449   26.3448 C   0  0  0  0  0  0  0  0  0  0  0  0
    6.0872  -13.8242   25.4047 C   0  0  0  0  0  0  0  0  0  0  0  0
    7.0762  -14.0227   24.4323 C   0  0  0  0  0  0  0  0  0  0  0  0
    7.4852  -17.9882   23.4578 C   0  0  0  0  0  0  0  0  0  0  0  0
    6.9223  -18.8037   24.2267 O   0  0  0  0  0  0  0  0  0  0  0  0
    8.8815  -17.8549   23.5616 N   0  0  0  0  0  0  0  0  0  0  0  0
    9.6780  -18.6596   24.4838 C   0  0  1  0  0  0  0  0  0  0  0  0
   10.4656  -19.6967   23.7309 C   0  0  0  0  0  0  0  0  0  0  0  0
   11.5426  -20.6245   24.8396 S   0  0  0  0  0  0  0  0  0  0  0  0
   10.4741  -17.7375   25.3025 C   0  0  0  0  0  0  0  0  0  0  0  0
   10.8647  -16.6598   24.7731 O   0  0  0  0  0  0  0  0  0  0  0  0
   11.0864  -13.8384   28.2489 C   0  0  0  0  0  0  0  0  0  0  0  0
    9.8977  -14.7169   28.3551 C   0  0  2  0  0  0  0  0  0  0  0  0
    9.6426  -15.0649   29.8480 C   0  0  0  0  0  0  0  0  0  0  0  0
    9.8934  -15.9551   27.5647 C   0  0  0  0  0  0  0  0  0  0  0  0
   11.1177  -16.7727   27.5513 C   0  0  2  0  0  0  0  0  0  0  0  0
   10.8412  -17.9495   26.6374 N   0  0  0  0  0  0  0  0  0  0  0  0
   11.5529  -17.3633   28.7985 C   0  0  0  0  0  0  0  0  0  0  0  0
   10.8969  -18.3662   29.4682 O   0  0  0  0  0  0  0  0  0  0  0  0
   12.6331  -16.9418   29.3727 O   0  0  0  0  0  0  0  0  0  0  0  0
  2  1  1  1
  2  3  1  0
  2 13  1  0
  3  4  1  0
  4  5  2  0
  5  6  1  0
  7  8  2  0
  7  6  1  0
  9  8  1  0
 10  9  2  0
 11 10  1  0
 11 12  2  0
 12  4  1  0
 12  7  1  0
 13 15  1  0
 13 14  2  0
 15 16  1  0
 16 17  1  6
 18 17  1  0
 19 16  1  0
 19 20  2  0
 22 21  1  1
 23 22  1  0
 24 22  1  0
 25 24  1  1
 25 26  1  0
 26 19  1  0
 27 28  1  0
 27 25  1  0
 29 27  2  0
M  END
$$$$
