PLR.pdb
     RDKit          3D

 27 27  0  0  1  0  0  0  0  0999 V2000
   31.0951  -21.2524  -10.0142 N   0  0  0  0  0  0  0  0  0  0  0  0
   32.5163  -21.3753   -9.7418 C   0  0  0  0  0  0  0  0  0  0  0  0
   32.7146  -22.8917   -9.6072 C   0  0  0  0  0  0  0  0  0  0  0  0
   31.4710  -23.2312   -8.7694 C   0  0  0  0  0  0  0  0  0  0  0  0
   30.4409  -22.3719   -9.4126 C   0  0  1  0  0  0  0  0  0  0  0  0
   29.3087  -21.9880   -8.5449 C   0  0  0  0  0  0  0  0  0  0  0  0
   28.4991  -22.8919   -8.2272 O   0  0  0  0  0  0  0  0  0  0  0  0
   29.4284  -18.4284   -4.3419 C   0  0  0  0  0  0  0  0  0  0  0  0
   29.2544  -19.6899   -5.2213 C   0  0  1  0  0  0  0  0  0  0  0  0
   28.8740  -20.7881   -4.2560 C   0  0  0  0  0  0  0  0  0  0  0  0
   28.1982  -19.3356   -6.1953 C   0  0  0  0  0  0  0  0  0  0  0  0
   27.9453  -20.2121   -7.3447 C   0  0  2  0  0  0  0  0  0  0  0  0
   29.0897  -20.6801   -8.0596 N   0  0  0  0  0  0  0  0  0  0  0  0
   26.7776  -19.8421   -8.1985 C   0  0  0  0  0  0  0  0  0  0  0  0
   26.4105  -18.6217   -8.2746 O   0  0  0  0  0  0  0  0  0  0  0  0
   24.9205  -22.5428  -15.9873 N   0  0  0  0  0  0  0  0  0  0  0  0
   25.1828  -23.3500  -14.8421 C   0  0  0  0  0  0  0  0  0  0  0  0
   24.8437  -24.5740  -14.8652 N   0  0  0  0  0  0  0  0  0  0  0  0
   25.8103  -22.7937  -13.7015 N   0  0  0  0  0  0  0  0  0  0  0  0
   26.1819  -21.3898  -13.7065 C   0  0  0  0  0  0  0  0  0  0  0  0
   25.3647  -20.6189  -12.6744 C   0  0  0  0  0  0  0  0  0  0  0  0
   25.9432  -20.9741  -11.3303 C   0  0  0  0  0  0  0  0  0  0  0  0
   25.2816  -20.3155  -10.1666 C   0  0  2  0  0  0  0  0  0  0  0  0
   26.0053  -20.7500   -8.9558 N   0  0  0  0  0  0  0  0  0  0  0  0
   23.9008  -20.8288  -10.0328 C   0  0  0  0  0  0  0  0  0  0  0  0
   23.4196  -21.4877   -8.9058 O   0  0  0  0  0  0  0  0  0  0  0  0
   23.0730  -20.6868  -10.9668 O   0  0  0  0  0  0  0  0  0  0  0  0
  2  1  1  0
  3  2  1  0
  4  3  1  0
  4  5  1  0
  5  1  1  0
  5  6  1  1
  6  7  2  0
  9  8  1  1
 10  9  1  0
 11  9  1  0
 12 11  1  6
 13  6  1  0
 13 12  1  0
 14 12  1  0
 14 15  2  0
 16 17  1  0
 17 19  1  0
 17 18  2  0
 19 20  1  0
 20 21  1  0
 21 22  1  0
 23 22  1  6
 23 24  1  0
 24 14  1  0
 25 23  1  0
 25 26  1  0
 27 25  2  0
M  END
$$$$
