PLR.pdb
     RDKit          3D

 27 27  0  0  1  0  0  0  0  0999 V2000
   21.5527  -16.4303  -17.3419 N   0  0  0  0  0  0  0  0  0  0  0  0
   21.5538  -17.8332  -16.9665 C   0  0  0  0  0  0  0  0  0  0  0  0
   20.3091  -17.9557  -16.0762 C   0  0  0  0  0  0  0  0  0  0  0  0
   20.4659  -16.6675  -15.2517 C   0  0  0  0  0  0  0  0  0  0  0  0
   20.9045  -15.7029  -16.2959 C   0  0  1  0  0  0  0  0  0  0  0  0
   21.6982  -14.5585  -15.8035 C   0  0  0  0  0  0  0  0  0  0  0  0
   21.2140  -13.8906  -14.8587 O   0  0  0  0  0  0  0  0  0  0  0  0
   27.2739  -14.3047  -16.4743 C   0  0  0  0  0  0  0  0  0  0  0  0
   25.8516  -14.4705  -15.8875 C   0  0  1  0  0  0  0  0  0  0  0  0
   26.0684  -14.8221  -14.4342 C   0  0  0  0  0  0  0  0  0  0  0  0
   25.1899  -13.1660  -16.1114 C   0  0  0  0  0  0  0  0  0  0  0  0
   23.7368  -13.0493  -15.9437 C   0  0  2  0  0  0  0  0  0  0  0  0
   22.9531  -14.1796  -16.3286 N   0  0  0  0  0  0  0  0  0  0  0  0
   23.1469  -11.7242  -16.2981 C   0  0  0  0  0  0  0  0  0  0  0  0
   23.2534  -11.2825  -17.4912 O   0  0  0  0  0  0  0  0  0  0  0  0
   15.6109  -10.4884  -16.6132 N   0  0  0  0  0  0  0  0  0  0  0  0
   16.7050  -10.8091  -17.4688 C   0  0  0  0  0  0  0  0  0  0  0  0
   16.5234  -11.6461  -18.4070 N   0  0  0  0  0  0  0  0  0  0  0  0
   17.9695  -10.2034  -17.2733 N   0  0  0  0  0  0  0  0  0  0  0  0
   18.0976   -9.1130  -16.3227 C   0  0  0  0  0  0  0  0  0  0  0  0
   19.5453   -8.6374  -16.2497 C   0  0  0  0  0  0  0  0  0  0  0  0
   20.3757   -9.8616  -15.9677 C   0  0  0  0  0  0  0  0  0  0  0  0
   21.8433   -9.6157  -15.8618 C   0  0  2  0  0  0  0  0  0  0  0  0
   22.4601  -10.8755  -15.4025 N   0  0  0  0  0  0  0  0  0  0  0  0
   22.0977   -8.6167  -14.8010 C   0  0  0  0  0  0  0  0  0  0  0  0
   21.8197   -7.2591  -14.9256 O   0  0  0  0  0  0  0  0  0  0  0  0
   22.5950   -8.9649  -13.7013 O   0  0  0  0  0  0  0  0  0  0  0  0
  2  1  1  0
  3  2  1  0
  4  3  1  0
  4  5  1  0
  5  1  1  0
  5  6  1  1
  6  7  2  0
  9  8  1  6
 10  9  1  0
 11  9  1  0
 12 11  1  6
 13  6  1  0
 13 12  1  0
 14 12  1  0
 14 15  2  0
 16 17  1  0
 17 19  1  0
 17 18  2  0
 19 20  1  0
 20 21  1  0
 21 22  1  0
 23 22  1  1
 23 24  1  0
 24 14  1  0
 25 23  1  0
 25 26  1  0
 27 25  2  0
M  END
$$$$
