PLR.pdb
     RDKit          3D

 27 27  0  0  1  0  0  0  0  0999 V2000
   31.3967  -21.0276   -9.5513 N   0  0  0  0  0  0  0  0  0  0  0  0
   32.7489  -21.3275   -9.1146 C   0  0  0  0  0  0  0  0  0  0  0  0
   32.8299  -22.8539   -9.2573 C   0  0  0  0  0  0  0  0  0  0  0  0
   31.4539  -23.2301   -8.6839 C   0  0  0  0  0  0  0  0  0  0  0  0
   30.5898  -22.1761   -9.2802 C   0  0  1  0  0  0  0  0  0  0  0  0
   29.3640  -21.8603   -8.5189 C   0  0  0  0  0  0  0  0  0  0  0  0
   28.4785  -22.7472   -8.4666 O   0  0  0  0  0  0  0  0  0  0  0  0
   29.0567  -18.3623   -4.1537 C   0  0  0  0  0  0  0  0  0  0  0  0
   29.0555  -19.6064   -5.0741 C   0  0  1  0  0  0  0  0  0  0  0  0
   28.7470  -20.7679   -4.1583 C   0  0  0  0  0  0  0  0  0  0  0  0
   28.0144  -19.3316   -6.0891 C   0  0  0  0  0  0  0  0  0  0  0  0
   27.9096  -20.1903   -7.2743 C   0  0  2  0  0  0  0  0  0  0  0  0
   29.1360  -20.6344   -7.8562 N   0  0  0  0  0  0  0  0  0  0  0  0
   26.8468  -19.8170   -8.2543 C   0  0  0  0  0  0  0  0  0  0  0  0
   26.7704  -18.6151   -8.6781 O   0  0  0  0  0  0  0  0  0  0  0  0
   23.3453  -23.5116  -14.7171 N   0  0  0  0  0  0  0  0  0  0  0  0
   23.9652  -22.3861  -15.3344 C   0  0  0  0  0  0  0  0  0  0  0  0
   23.5214  -21.9802  -16.4533 N   0  0  0  0  0  0  0  0  0  0  0  0
   25.0553  -21.7351  -14.7083 N   0  0  0  0  0  0  0  0  0  0  0  0
   25.4034  -22.0833  -13.3420 C   0  0  0  0  0  0  0  0  0  0  0  0
   24.7782  -21.0930  -12.3643 C   0  0  0  0  0  0  0  0  0  0  0  0
   25.5388  -21.2407  -11.0731 C   0  0  0  0  0  0  0  0  0  0  0  0
   25.0816  -20.3490   -9.9679 C   0  0  2  0  0  0  0  0  0  0  0  0
   25.8748  -20.7000   -8.7738 N   0  0  0  0  0  0  0  0  0  0  0  0
   23.6734  -20.6596   -9.6383 C   0  0  0  0  0  0  0  0  0  0  0  0
   22.5850  -20.2478  -10.4009 O   0  0  0  0  0  0  0  0  0  0  0  0
   23.3899  -21.3332   -8.6167 O   0  0  0  0  0  0  0  0  0  0  0  0
  2  1  1  0
  3  2  1  0
  4  3  1  0
  4  5  1  0
  5  1  1  0
  5  6  1  1
  6  7  2  0
  9  8  1  1
 10  9  1  0
 11  9  1  0
 12 11  1  6
 13  6  1  0
 13 12  1  0
 14 12  1  0
 14 15  2  0
 16 17  1  0
 17 19  1  0
 17 18  2  0
 19 20  1  0
 20 21  1  0
 21 22  1  0
 23 22  1  6
 23 24  1  0
 24 14  1  0
 25 23  1  0
 25 26  1  0
 27 25  2  0
M  END
$$$$
