PLR.pdb
     RDKit          3D

 27 27  0  0  1  0  0  0  0  0999 V2000
   27.4895  -21.6681  -18.0251 N   0  0  0  0  0  0  0  0  0  0  0  0
   28.9141  -21.5514  -18.2817 C   0  0  0  0  0  0  0  0  0  0  0  0
   29.5260  -22.5789  -17.3190 C   0  0  0  0  0  0  0  0  0  0  0  0
   28.6756  -22.2875  -16.0717 C   0  0  0  0  0  0  0  0  0  0  0  0
   27.3275  -22.1024  -16.6729 C   0  0  1  0  0  0  0  0  0  0  0  0
   26.4014  -21.2540  -15.8954 C   0  0  0  0  0  0  0  0  0  0  0  0
   26.2495  -21.5351  -14.6824 O   0  0  0  0  0  0  0  0  0  0  0  0
   26.0133  -15.7742  -16.4344 C   0  0  0  0  0  0  0  0  0  0  0  0
   26.2472  -17.2268  -15.9543 C   0  0  1  0  0  0  0  0  0  0  0  0
   26.8385  -17.0892  -14.5708 C   0  0  0  0  0  0  0  0  0  0  0  0
   24.9113  -17.8623  -15.9905 C   0  0  0  0  0  0  0  0  0  0  0  0
   24.7837  -19.3018  -15.7356 C   0  0  2  0  0  0  0  0  0  0  0  0
   25.6880  -20.1601  -16.4325 N   0  0  0  0  0  0  0  0  0  0  0  0
   23.3879  -19.8191  -15.6196 C   0  0  0  0  0  0  0  0  0  0  0  0
   22.7411  -20.1375  -16.6732 O   0  0  0  0  0  0  0  0  0  0  0  0
   18.9864  -24.5782   -9.3369 N   0  0  0  0  0  0  0  0  0  0  0  0
   19.0359  -24.1491  -10.6953 C   0  0  0  0  0  0  0  0  0  0  0  0
   18.2277  -24.6635  -11.5295 N   0  0  0  0  0  0  0  0  0  0  0  0
   19.9704  -23.1670  -11.1034 N   0  0  0  0  0  0  0  0  0  0  0  0
   19.5305  -21.7939  -11.2767 C   0  0  0  0  0  0  0  0  0  0  0  0
   19.5991  -21.3943  -12.7475 C   0  0  0  0  0  0  0  0  0  0  0  0
   21.0165  -20.9509  -12.9964 C   0  0  0  0  0  0  0  0  0  0  0  0
   21.3009  -20.5064  -14.3919 C   0  0  2  0  0  0  0  0  0  0  0  0
   22.6839  -19.9913  -14.4076 N   0  0  0  0  0  0  0  0  0  0  0  0
   20.4266  -19.3620  -14.7295 C   0  0  0  0  0  0  0  0  0  0  0  0
   20.7818  -18.0291  -14.5473 O   0  0  0  0  0  0  0  0  0  0  0  0
   19.2828  -19.5523  -15.2124 O   0  0  0  0  0  0  0  0  0  0  0  0
  2  1  1  0
  3  2  1  0
  4  3  1  0
  4  5  1  0
  5  1  1  0
  5  6  1  1
  6  7  2  0
  9  8  1  1
 10  9  1  0
 11  9  1  0
 12 11  1  6
 13  6  1  0
 13 12  1  0
 14 12  1  0
 14 15  2  0
 16 17  1  0
 17 19  1  0
 17 18  2  0
 19 20  1  0
 20 21  1  0
 21 22  1  0
 23 22  1  1
 23 24  1  0
 24 14  1  0
 25 23  1  0
 25 26  1  0
 27 25  2  0
M  END
$$$$
