PLR.pdb
     RDKit          3D

 27 27  0  0  1  0  0  0  0  0999 V2000
   30.0030  -19.9950  -12.1716 N   0  0  0  0  0  0  0  0  0  0  0  0
   31.3813  -20.2791  -12.5306 C   0  0  0  0  0  0  0  0  0  0  0  0
   31.2635  -21.5507  -13.3827 C   0  0  0  0  0  0  0  0  0  0  0  0
   30.2383  -22.3227  -12.5361 C   0  0  0  0  0  0  0  0  0  0  0  0
   29.2953  -21.2369  -12.1558 C   0  0  1  0  0  0  0  0  0  0  0  0
   28.5444  -21.4636  -10.9041 C   0  0  0  0  0  0  0  0  0  0  0  0
   27.7114  -22.4015  -10.8984 O   0  0  0  0  0  0  0  0  0  0  0  0
   28.6596  -20.4245   -4.9159 C   0  0  0  0  0  0  0  0  0  0  0  0
   27.6415  -20.3136   -6.0762 C   0  0  1  0  0  0  0  0  0  0  0  0
   26.8966  -19.0246   -5.8187 C   0  0  0  0  0  0  0  0  0  0  0  0
   28.4621  -20.3129   -7.3076 C   0  0  0  0  0  0  0  0  0  0  0  0
   27.8498  -20.6795   -8.5898 C   0  0  2  0  0  0  0  0  0  0  0  0
   28.7090  -20.6956   -9.7306 N   0  0  0  0  0  0  0  0  0  0  0  0
   26.4843  -20.1286   -8.8379 C   0  0  0  0  0  0  0  0  0  0  0  0
   26.2742  -18.8759   -8.7099 O   0  0  0  0  0  0  0  0  0  0  0  0
   20.3521  -22.0839  -12.9821 N   0  0  0  0  0  0  0  0  0  0  0  0
   20.6179  -21.1550  -14.0302 C   0  0  0  0  0  0  0  0  0  0  0  0
   19.6504  -20.7430  -14.7429 N   0  0  0  0  0  0  0  0  0  0  0  0
   21.9377  -20.7022  -14.2693 N   0  0  0  0  0  0  0  0  0  0  0  0
   23.0085  -21.1305  -13.3866 C   0  0  0  0  0  0  0  0  0  0  0  0
   22.8888  -20.4415  -12.0308 C   0  0  0  0  0  0  0  0  0  0  0  0
   24.0819  -20.8863  -11.2269 C   0  0  0  0  0  0  0  0  0  0  0  0
   24.1946  -20.2686   -9.8736 C   0  0  2  0  0  0  0  0  0  0  0  0
   25.3560  -20.8921   -9.2097 N   0  0  0  0  0  0  0  0  0  0  0  0
   23.0090  -20.6339   -9.0679 C   0  0  0  0  0  0  0  0  0  0  0  0
   21.7416  -20.0914   -9.2553 O   0  0  0  0  0  0  0  0  0  0  0  0
   23.1001  -21.4810   -8.1449 O   0  0  0  0  0  0  0  0  0  0  0  0
  2  1  1  0
  3  2  1  0
  4  3  1  0
  4  5  1  0
  5  1  1  0
  5  6  1  1
  6  7  2  0
  9  8  1  1
 10  9  1  0
 11  9  1  0
 12 11  1  1
 13  6  1  0
 13 12  1  0
 14 12  1  0
 14 15  2  0
 16 17  1  0
 17 19  1  0
 17 18  2  0
 19 20  1  0
 20 21  1  0
 21 22  1  0
 23 22  1  6
 23 24  1  0
 24 14  1  0
 25 23  1  0
 25 26  1  0
 27 25  2  0
M  END
$$$$
