PLR.pdb
     RDKit          3D

 27 27  0  0  1  0  0  0  0  0999 V2000
   27.4931  -18.1260  -16.6383 N   0  0  0  0  0  0  0  0  0  0  0  0
   28.5539  -17.3714  -17.2821 C   0  0  0  0  0  0  0  0  0  0  0  0
   29.0719  -18.3431  -18.3517 C   0  0  0  0  0  0  0  0  0  0  0  0
   29.0841  -19.6391  -17.5247 C   0  0  0  0  0  0  0  0  0  0  0  0
   27.8113  -19.5139  -16.7650 C   0  0  1  0  0  0  0  0  0  0  0  0
   27.7700  -20.2407  -15.4797 C   0  0  0  0  0  0  0  0  0  0  0  0
   27.2828  -21.3966  -15.4914 O   0  0  0  0  0  0  0  0  0  0  0  0
   31.1312  -21.2296  -10.7000 C   0  0  0  0  0  0  0  0  0  0  0  0
   29.6360  -21.3154  -11.0898 C   0  0  1  0  0  0  0  0  0  0  0  0
   28.8851  -20.8924   -9.8488 C   0  0  0  0  0  0  0  0  0  0  0  0
   29.4864  -20.3974  -12.2407 C   0  0  0  0  0  0  0  0  0  0  0  0
   28.2209  -20.3614  -12.9825 C   0  0  2  0  0  0  0  0  0  0  0  0
   28.2413  -19.7158  -14.2564 N   0  0  0  0  0  0  0  0  0  0  0  0
   26.9972  -20.1048  -12.1664 C   0  0  0  0  0  0  0  0  0  0  0  0
   26.8985  -19.0226  -11.4964 O   0  0  0  0  0  0  0  0  0  0  0  0
   20.3197  -24.2470  -14.1075 N   0  0  0  0  0  0  0  0  0  0  0  0
   21.7217  -24.4023  -13.9022 C   0  0  0  0  0  0  0  0  0  0  0  0
   22.2516  -25.5345  -14.1280 N   0  0  0  0  0  0  0  0  0  0  0  0
   22.5058  -23.3119  -13.4547 N   0  0  0  0  0  0  0  0  0  0  0  0
   21.8884  -22.0065  -13.3006 C   0  0  0  0  0  0  0  0  0  0  0  0
   22.9341  -20.9652  -12.9133 C   0  0  0  0  0  0  0  0  0  0  0  0
   23.5964  -21.4803  -11.6629 C   0  0  0  0  0  0  0  0  0  0  0  0
   24.7502  -20.6664  -11.1810 C   0  0  2  0  0  0  0  0  0  0  0  0
   25.8966  -20.9827  -12.0551 N   0  0  0  0  0  0  0  0  0  0  0  0
   25.1287  -21.1095   -9.8214 C   0  0  0  0  0  0  0  0  0  0  0  0
   24.7268  -20.4700   -8.6529 O   0  0  0  0  0  0  0  0  0  0  0  0
   25.8572  -22.1196   -9.6582 O   0  0  0  0  0  0  0  0  0  0  0  0
  2  1  1  0
  3  2  1  0
  4  3  1  0
  4  5  1  0
  5  1  1  0
  5  6  1  1
  6  7  2  0
  9  8  1  1
 10  9  1  0
 11  9  1  0
 12 11  1  1
 13  6  1  0
 13 12  1  0
 14 12  1  0
 14 15  2  0
 16 17  1  0
 17 19  1  0
 17 18  2  0
 19 20  1  0
 20 21  1  0
 21 22  1  0
 23 22  1  6
 23 24  1  0
 24 14  1  0
 25 23  1  0
 25 26  1  0
 27 25  2  0
M  END
$$$$
