PLR.pdb
     RDKit          3D

 27 27  0  0  1  0  0  0  0  0999 V2000
   26.8687  -18.3804  -15.3880 N   0  0  0  0  0  0  0  0  0  0  0  0
   28.0566  -17.5893  -15.1194 C   0  0  0  0  0  0  0  0  0  0  0  0
   29.1953  -18.4944  -15.6104 C   0  0  0  0  0  0  0  0  0  0  0  0
   28.7032  -19.8387  -15.0497 C   0  0  0  0  0  0  0  0  0  0  0  0
   27.2451  -19.7584  -15.3335 C   0  0  1  0  0  0  0  0  0  0  0  0
   26.3841  -20.5627  -14.4426 C   0  0  0  0  0  0  0  0  0  0  0  0
   26.3146  -21.7939  -14.6725 O   0  0  0  0  0  0  0  0  0  0  0  0
   25.9555  -20.1387   -8.9672 C   0  0  0  0  0  0  0  0  0  0  0  0
   26.1900  -20.5875  -10.4295 C   0  0  1  0  0  0  0  0  0  0  0  0
   26.7490  -21.9871  -10.3224 C   0  0  0  0  0  0  0  0  0  0  0  0
   24.8604  -20.5052  -11.0738 C   0  0  0  0  0  0  0  0  0  0  0  0
   24.7361  -20.7378  -12.5173 C   0  0  2  0  0  0  0  0  0  0  0  0
   25.6458  -20.0318  -13.3623 N   0  0  0  0  0  0  0  0  0  0  0  0
   23.3414  -20.8404  -13.0404 C   0  0  0  0  0  0  0  0  0  0  0  0
   22.7174  -19.7833  -13.3910 O   0  0  0  0  0  0  0  0  0  0  0  0
   21.5883  -27.0923  -14.6808 N   0  0  0  0  0  0  0  0  0  0  0  0
   20.5904  -27.0151  -13.6658 C   0  0  0  0  0  0  0  0  0  0  0  0
   20.5867  -27.8885  -12.7434 N   0  0  0  0  0  0  0  0  0  0  0  0
   19.6227  -25.9821  -13.6889 N   0  0  0  0  0  0  0  0  0  0  0  0
   19.4440  -25.2006  -14.8999 C   0  0  0  0  0  0  0  0  0  0  0  0
   19.5377  -23.7097  -14.5901 C   0  0  0  0  0  0  0  0  0  0  0  0
   20.9556  -23.4610  -14.1481 C   0  0  0  0  0  0  0  0  0  0  0  0
   21.2563  -22.0517  -13.7618 C   0  0  2  0  0  0  0  0  0  0  0  0
   22.6147  -22.0426  -13.1848 N   0  0  0  0  0  0  0  0  0  0  0  0
   20.3406  -21.6347  -12.6775 C   0  0  0  0  0  0  0  0  0  0  0  0
   19.0992  -21.0433  -12.8896 O   0  0  0  0  0  0  0  0  0  0  0  0
   20.6575  -21.8025  -11.4737 O   0  0  0  0  0  0  0  0  0  0  0  0
  2  1  1  0
  3  2  1  0
  4  3  1  0
  4  5  1  0
  5  1  1  0
  5  6  1  1
  6  7  2  0
  9  8  1  1
 10  9  1  0
 11  9  1  0
 12 11  1  1
 13  6  1  0
 13 12  1  0
 14 12  1  0
 14 15  2  0
 16 17  1  0
 17 19  1  0
 17 18  2  0
 19 20  1  0
 20 21  1  0
 21 22  1  0
 23 22  1  1
 23 24  1  0
 24 14  1  0
 25 23  1  0
 25 26  1  0
 27 25  2  0
M  END
$$$$
