PLR.pdb
     RDKit          3D

 27 27  0  0  1  0  0  0  0  0999 V2000
   26.3718  -18.7984  -15.5661 N   0  0  0  0  0  0  0  0  0  0  0  0
   27.6899  -18.1909  -15.6207 C   0  0  0  0  0  0  0  0  0  0  0  0
   28.3988  -18.9969  -16.7183 C   0  0  0  0  0  0  0  0  0  0  0  0
   27.9294  -20.4090  -16.3317 C   0  0  0  0  0  0  0  0  0  0  0  0
   26.5049  -20.1591  -15.9833 C   0  0  1  0  0  0  0  0  0  0  0  0
   25.9104  -21.1208  -15.0327 C   0  0  0  0  0  0  0  0  0  0  0  0
   25.8929  -22.3274  -15.3750 O   0  0  0  0  0  0  0  0  0  0  0  0
   24.8913  -19.9951   -9.9185 C   0  0  0  0  0  0  0  0  0  0  0  0
   25.9862  -20.4925  -10.8926 C   0  0  1  0  0  0  0  0  0  0  0  0
   27.2020  -20.7246  -10.0261 C   0  0  0  0  0  0  0  0  0  0  0  0
   25.4264  -21.7175  -11.5056 C   0  0  0  0  0  0  0  0  0  0  0  0
   24.7773  -21.6418  -12.8194 C   0  0  2  0  0  0  0  0  0  0  0  0
   25.3686  -20.7638  -13.7784 N   0  0  0  0  0  0  0  0  0  0  0  0
   23.2842  -21.6464  -12.8070 C   0  0  0  0  0  0  0  0  0  0  0  0
   22.6610  -21.8912  -11.7200 O   0  0  0  0  0  0  0  0  0  0  0  0
   18.9694  -24.4054   -8.4218 N   0  0  0  0  0  0  0  0  0  0  0  0
   18.7676  -25.0304   -9.6869 C   0  0  0  0  0  0  0  0  0  0  0  0
   18.5535  -26.2820   -9.7241 N   0  0  0  0  0  0  0  0  0  0  0  0
   18.8058  -24.2665  -10.8782 N   0  0  0  0  0  0  0  0  0  0  0  0
   19.1254  -22.8516  -10.8070 C   0  0  0  0  0  0  0  0  0  0  0  0
   19.2122  -22.2541  -12.2080 C   0  0  0  0  0  0  0  0  0  0  0  0
   20.6797  -22.1469  -12.5285 C   0  0  0  0  0  0  0  0  0  0  0  0
   20.9924  -21.5037  -13.8378 C   0  0  2  0  0  0  0  0  0  0  0  0
   22.4620  -21.4022  -13.9288 N   0  0  0  0  0  0  0  0  0  0  0  0
   20.4785  -20.1166  -13.8376 C   0  0  0  0  0  0  0  0  0  0  0  0
   19.1854  -19.7642  -14.2109 O   0  0  0  0  0  0  0  0  0  0  0  0
   21.2162  -19.1620  -13.4879 O   0  0  0  0  0  0  0  0  0  0  0  0
  2  1  1  0
  3  2  1  0
  4  3  1  0
  4  5  1  0
  5  1  1  0
  5  6  1  1
  6  7  2  0
  9  8  1  1
 10  9  1  0
 11  9  1  0
 12 11  1  1
 13  6  1  0
 13 12  1  0
 14 12  1  0
 14 15  2  0
 16 17  1  0
 17 19  1  0
 17 18  2  0
 19 20  1  0
 20 21  1  0
 21 22  1  0
 23 22  1  1
 23 24  1  0
 24 14  1  0
 25 23  1  0
 25 26  1  0
 27 25  2  0
M  END
$$$$
