PLR.pdb
     RDKit          3D

 27 27  0  0  1  0  0  0  0  0999 V2000
   27.3700  -19.0640  -15.2737 N   0  0  0  0  0  0  0  0  0  0  0  0
   28.7914  -18.8315  -15.0873 C   0  0  0  0  0  0  0  0  0  0  0  0
   29.4368  -20.0078  -15.8333 C   0  0  0  0  0  0  0  0  0  0  0  0
   28.5068  -21.1390  -15.3649 C   0  0  0  0  0  0  0  0  0  0  0  0
   27.1786  -20.4720  -15.4293 C   0  0  1  0  0  0  0  0  0  0  0  0
   26.1512  -21.0241  -14.5230 C   0  0  0  0  0  0  0  0  0  0  0  0
   25.6824  -22.1519  -14.8088 O   0  0  0  0  0  0  0  0  0  0  0  0
   25.9572  -20.2176   -8.9829 C   0  0  0  0  0  0  0  0  0  0  0  0
   26.1082  -20.7748  -10.4188 C   0  0  1  0  0  0  0  0  0  0  0  0
   26.4422  -22.2369  -10.2360 C   0  0  0  0  0  0  0  0  0  0  0  0
   24.8033  -20.5197  -11.0683 C   0  0  0  0  0  0  0  0  0  0  0  0
   24.6337  -20.8073  -12.4972 C   0  0  2  0  0  0  0  0  0  0  0  0
   25.6740  -20.3638  -13.3695 N   0  0  0  0  0  0  0  0  0  0  0  0
   23.2498  -20.6416  -13.0327 C   0  0  0  0  0  0  0  0  0  0  0  0
   22.8893  -19.5172  -13.5182 O   0  0  0  0  0  0  0  0  0  0  0  0
   17.2928  -26.6998  -14.6586 N   0  0  0  0  0  0  0  0  0  0  0  0
   17.0297  -25.6492  -15.5855 C   0  0  0  0  0  0  0  0  0  0  0  0
   16.3524  -25.9084  -16.6284 N   0  0  0  0  0  0  0  0  0  0  0  0
   17.5161  -24.3418  -15.3442 N   0  0  0  0  0  0  0  0  0  0  0  0
   18.2644  -24.0732  -14.1289 C   0  0  0  0  0  0  0  0  0  0  0  0
   18.7798  -22.6373  -14.1272 C   0  0  0  0  0  0  0  0  0  0  0  0
   20.2106  -22.7053  -13.6627 C   0  0  0  0  0  0  0  0  0  0  0  0
   20.9167  -21.3923  -13.6055 C   0  0  2  0  0  0  0  0  0  0  0  0
   22.2594  -21.6481  -13.0489 N   0  0  0  0  0  0  0  0  0  0  0  0
   20.2279  -20.5071  -12.6411 C   0  0  0  0  0  0  0  0  0  0  0  0
   20.5429  -20.4334  -11.2879 O   0  0  0  0  0  0  0  0  0  0  0  0
   19.2935  -19.7566  -13.0172 O   0  0  0  0  0  0  0  0  0  0  0  0
  2  1  1  0
  3  2  1  0
  4  3  1  0
  4  5  1  0
  5  1  1  0
  5  6  1  1
  6  7  2  0
  9  8  1  1
 10  9  1  0
 11  9  1  0
 12 11  1  1
 13  6  1  0
 13 12  1  0
 14 12  1  0
 14 15  2  0
 16 17  1  0
 17 19  1  0
 17 18  2  0
 19 20  1  0
 20 21  1  0
 21 22  1  0
 23 22  1  1
 23 24  1  0
 24 14  1  0
 25 23  1  0
 25 26  1  0
 27 25  2  0
M  END
$$$$
