PLR.pdb
     RDKit          3D

 27 27  0  0  1  0  0  0  0  0999 V2000
   16.6784  -11.0394  -12.0289 N   0  0  0  0  0  0  0  0  0  0  0  0
   16.5394  -12.3320  -11.3816 C   0  0  0  0  0  0  0  0  0  0  0  0
   15.2563  -12.8975  -12.0066 C   0  0  0  0  0  0  0  0  0  0  0  0
   14.3862  -11.6304  -11.9765 C   0  0  0  0  0  0  0  0  0  0  0  0
   15.3687  -10.5905  -12.3845 C   0  0  1  0  0  0  0  0  0  0  0  0
   15.0729   -9.2231  -11.9108 C   0  0  0  0  0  0  0  0  0  0  0  0
   14.1218   -8.6195  -12.4626 O   0  0  0  0  0  0  0  0  0  0  0  0
   14.9835   -6.7525   -6.7755 C   0  0  0  0  0  0  0  0  0  0  0  0
   14.5349   -7.1341   -8.2067 C   0  0  1  0  0  0  0  0  0  0  0  0
   13.3772   -6.2121   -8.5107 C   0  0  0  0  0  0  0  0  0  0  0  0
   15.7295   -6.9193   -9.0531 C   0  0  0  0  0  0  0  0  0  0  0  0
   15.6614   -7.1998  -10.4918 C   0  0  2  0  0  0  0  0  0  0  0  0
   15.7896   -8.5664  -10.8865 N   0  0  0  0  0  0  0  0  0  0  0  0
   16.3586   -6.2207  -11.3777 C   0  0  0  0  0  0  0  0  0  0  0  0
   17.6309   -6.2519  -11.4779 O   0  0  0  0  0  0  0  0  0  0  0  0
   15.0366   -4.7230  -19.4666 N   0  0  0  0  0  0  0  0  0  0  0  0
   15.9964   -3.6942  -19.2383 C   0  0  0  0  0  0  0  0  0  0  0  0
   16.5004   -3.0944  -20.2382 N   0  0  0  0  0  0  0  0  0  0  0  0
   16.3784   -3.3499  -17.9193 N   0  0  0  0  0  0  0  0  0  0  0  0
   15.8094   -4.0794  -16.7997 C   0  0  0  0  0  0  0  0  0  0  0  0
   16.4992   -3.6807  -15.4987 C   0  0  0  0  0  0  0  0  0  0  0  0
   15.9213   -4.5681  -14.4280 C   0  0  0  0  0  0  0  0  0  0  0  0
   16.4841   -4.3553  -13.0628 C   0  0  2  0  0  0  0  0  0  0  0  0
   15.7203   -5.2190  -12.1415 N   0  0  0  0  0  0  0  0  0  0  0  0
   16.2258   -2.9622  -12.6379 C   0  0  0  0  0  0  0  0  0  0  0  0
   17.0105   -1.8752  -13.0101 O   0  0  0  0  0  0  0  0  0  0  0  0
   15.2505   -2.6915  -11.8941 O   0  0  0  0  0  0  0  0  0  0  0  0
  2  1  1  0
  3  2  1  0
  4  3  1  0
  4  5  1  0
  5  1  1  0
  5  6  1  1
  6  7  2  0
  9  8  1  1
 10  9  1  0
 11  9  1  0
 12 11  1  1
 13  6  1  0
 13 12  1  0
 14 12  1  0
 14 15  2  0
 16 17  1  0
 17 19  1  0
 17 18  2  0
 19 20  1  0
 20 21  1  0
 21 22  1  0
 23 22  1  6
 23 24  1  0
 24 14  1  0
 25 23  1  0
 25 26  1  0
 27 25  2  0
M  END
$$$$
