PLR.pdb
     RDKit          3D

 27 27  0  0  1  0  0  0  0  0999 V2000
   27.4134  -19.3457  -15.3061 N   0  0  0  0  0  0  0  0  0  0  0  0
   28.8173  -19.0014  -15.1660 C   0  0  0  0  0  0  0  0  0  0  0  0
   29.5354  -20.2874  -15.5987 C   0  0  0  0  0  0  0  0  0  0  0  0
   28.6502  -21.3194  -14.8810 C   0  0  0  0  0  0  0  0  0  0  0  0
   27.2934  -20.7578  -15.1191 C   0  0  1  0  0  0  0  0  0  0  0  0
   26.2730  -21.1283  -14.1175 C   0  0  0  0  0  0  0  0  0  0  0  0
   25.6667  -22.2124  -14.2922 O   0  0  0  0  0  0  0  0  0  0  0  0
   26.3170  -19.6612   -8.6776 C   0  0  0  0  0  0  0  0  0  0  0  0
   26.4110  -20.3609  -10.0548 C   0  0  1  0  0  0  0  0  0  0  0  0
   26.7225  -21.8048   -9.7374 C   0  0  0  0  0  0  0  0  0  0  0  0
   25.0910  -20.1422  -10.6869 C   0  0  0  0  0  0  0  0  0  0  0  0
   24.8714  -20.5618  -12.0758 C   0  0  2  0  0  0  0  0  0  0  0  0
   25.9462  -20.3425  -12.9905 N   0  0  0  0  0  0  0  0  0  0  0  0
   23.5104  -20.2927  -12.6276 C   0  0  0  0  0  0  0  0  0  0  0  0
   23.2240  -19.1286  -13.0666 O   0  0  0  0  0  0  0  0  0  0  0  0
   16.3882  -22.4568  -15.4236 N   0  0  0  0  0  0  0  0  0  0  0  0
   17.0375  -22.5611  -16.6883 C   0  0  0  0  0  0  0  0  0  0  0  0
   16.3641  -22.3383  -17.7422 N   0  0  0  0  0  0  0  0  0  0  0  0
   18.4082  -22.9067  -16.7642 N   0  0  0  0  0  0  0  0  0  0  0  0
   19.1353  -23.2080  -15.5437 C   0  0  0  0  0  0  0  0  0  0  0  0
   19.3543  -21.9381  -14.7270 C   0  0  0  0  0  0  0  0  0  0  0  0
   20.7316  -22.0554  -14.1296 C   0  0  0  0  0  0  0  0  0  0  0  0
   21.1604  -20.8897  -13.3031 C   0  0  2  0  0  0  0  0  0  0  0  0
   22.4652  -21.2389  -12.7082 N   0  0  0  0  0  0  0  0  0  0  0  0
   20.2207  -20.7176  -12.1737 C   0  0  0  0  0  0  0  0  0  0  0  0
   18.9772  -20.1027  -12.2808 O   0  0  0  0  0  0  0  0  0  0  0  0
   20.5173  -21.1344  -11.0265 O   0  0  0  0  0  0  0  0  0  0  0  0
  2  1  1  0
  3  2  1  0
  4  3  1  0
  4  5  1  0
  5  1  1  0
  5  6  1  1
  6  7  2  0
  9  8  1  1
 10  9  1  0
 11  9  1  0
 12 11  1  1
 13  6  1  0
 13 12  1  0
 14 12  1  0
 14 15  2  0
 16 17  1  0
 17 19  1  0
 17 18  2  0
 19 20  1  0
 20 21  1  0
 21 22  1  0
 23 22  1  6
 23 24  1  0
 24 14  1  0
 25 23  1  0
 25 26  1  0
 27 25  2  0
M  END
$$$$
