PLR.pdb
     RDKit          3D

 27 27  0  0  1  0  0  0  0  0999 V2000
   28.1345  -17.7581  -16.8205 N   0  0  0  0  0  0  0  0  0  0  0  0
   27.3656  -16.6593  -17.3778 C   0  0  0  0  0  0  0  0  0  0  0  0
   27.5467  -15.5453  -16.3370 C   0  0  0  0  0  0  0  0  0  0  0  0
   27.3784  -16.3750  -15.0537 C   0  0  0  0  0  0  0  0  0  0  0  0
   28.1382  -17.6065  -15.3992 C   0  0  1  0  0  0  0  0  0  0  0  0
   27.7192  -18.8279  -14.6818 C   0  0  0  0  0  0  0  0  0  0  0  0
   26.9441  -19.6082  -15.2849 O   0  0  0  0  0  0  0  0  0  0  0  0
   30.6960  -21.3743  -10.6556 C   0  0  0  0  0  0  0  0  0  0  0  0
   29.9261  -21.1606  -11.9810 C   0  0  1  0  0  0  0  0  0  0  0  0
   30.0293  -22.4807  -12.7085 C   0  0  0  0  0  0  0  0  0  0  0  0
   28.5530  -20.7909  -11.5716 C   0  0  0  0  0  0  0  0  0  0  0  0
   27.6294  -20.2184  -12.5577 C   0  0  2  0  0  0  0  0  0  0  0  0
   28.1360  -19.1620  -13.3746 N   0  0  0  0  0  0  0  0  0  0  0  0
   26.2199  -20.0387  -12.0990 C   0  0  0  0  0  0  0  0  0  0  0  0
   25.9174  -19.0447  -11.3571 O   0  0  0  0  0  0  0  0  0  0  0  0
   18.2483  -23.1460  -11.3472 N   0  0  0  0  0  0  0  0  0  0  0  0
   18.4714  -23.1084  -12.7546 C   0  0  0  0  0  0  0  0  0  0  0  0
   17.4771  -23.2319  -13.5354 N   0  0  0  0  0  0  0  0  0  0  0  0
   19.7791  -22.9364  -13.2688 N   0  0  0  0  0  0  0  0  0  0  0  0
   20.8970  -22.8222  -12.3487 C   0  0  0  0  0  0  0  0  0  0  0  0
   21.4049  -21.3844  -12.3038 C   0  0  0  0  0  0  0  0  0  0  0  0
   22.8446  -21.4338  -12.7424 C   0  0  0  0  0  0  0  0  0  0  0  0
   23.7903  -20.6608  -11.8857 C   0  0  2  0  0  0  0  0  0  0  0  0
   25.1471  -20.9011  -12.4146 N   0  0  0  0  0  0  0  0  0  0  0  0
   23.7741  -21.2149  -10.5143 C   0  0  0  0  0  0  0  0  0  0  0  0
   24.6462  -22.1995  -10.0607 O   0  0  0  0  0  0  0  0  0  0  0  0
   22.9399  -20.8050   -9.6693 O   0  0  0  0  0  0  0  0  0  0  0  0
  2  1  1  0
  3  2  1  0
  4  3  1  0
  4  5  1  0
  5  1  1  0
  5  6  1  1
  6  7  2  0
  9  8  1  1
 10  9  1  0
 11  9  1  0
 12 11  1  1
 13  6  1  0
 13 12  1  0
 14 12  1  0
 14 15  2  0
 16 17  1  0
 17 19  1  0
 17 18  2  0
 19 20  1  0
 20 21  1  0
 21 22  1  0
 23 22  1  6
 23 24  1  0
 24 14  1  0
 25 23  1  0
 25 26  1  0
 27 25  2  0
M  END
$$$$
