GCV.pdb
     RDKit          3D

 18 17  0  0  1  0  0  0  0  0999 V2000
   24.8014  -18.3821  -15.6991 N   0  0  0  0  0  0  0  0  0  0  0  0
   23.8643  -17.5130  -15.0145 C   0  0  0  0  0  0  0  0  0  0  0  0
   23.7537  -16.2465  -15.8009 C   0  0  0  0  0  0  0  0  0  0  0  0
   24.5931  -15.9868  -16.6888 O   0  0  0  0  0  0  0  0  0  0  0  0
   22.7253  -15.2961  -15.5941 N   0  0  0  0  0  0  0  0  0  0  0  0
   22.6138  -14.1575  -16.4368 C   0  0  1  0  0  0  0  0  0  0  0  0
   21.1897  -13.7973  -16.7971 C   0  0  0  0  0  0  0  0  0  0  0  0
   20.2199  -15.2432  -17.2647 S   0  0  0  0  0  0  0  0  0  0  0  0
   23.1729  -12.9827  -15.7266 C   0  0  0  0  0  0  0  0  0  0  0  0
   22.7349  -12.7343  -14.5767 O   0  0  0  0  0  0  0  0  0  0  0  0
   26.7440   -9.7124  -14.9806 C   0  0  0  0  0  0  0  0  0  0  0  0
   26.2026  -10.9101  -15.7290 C   0  0  1  0  0  0  0  0  0  0  0  0
   26.8651  -12.1733  -15.2195 C   0  0  0  0  0  0  0  0  0  0  0  0
   24.7100  -11.0840  -15.5302 C   0  0  2  0  0  0  0  0  0  0  0  0
   24.1768  -12.1539  -16.3208 N   0  0  0  0  0  0  0  0  0  0  0  0
   24.0087   -9.8281  -15.9035 C   0  0  0  0  0  0  0  0  0  0  0  0
   23.8494   -8.8265  -14.9703 O   0  0  0  0  0  0  0  0  0  0  0  0
   23.5485   -9.6413  -17.0539 O   0  0  0  0  0  0  0  0  0  0  0  0
  1  2  1  0
  3  4  2  0
  3  2  1  0
  5  3  1  0
  6  5  1  0
  6  7  1  1
  8  7  1  0
  9  6  1  0
  9 15  1  0
 10  9  2  0
 12 11  1  1
 12 14  1  0
 13 12  1  0
 14 15  1  6
 14 16  1  0
 16 18  2  0
 16 17  1  0
M  END
$$$$
