GCV.pdb
     RDKit          3D

 18 17  0  0  1  0  0  0  0  0999 V2000
   19.1659  -12.2096  -17.2555 N   0  0  0  0  0  0  0  0  0  0  0  0
   20.1331  -11.6227  -16.3486 C   0  0  0  0  0  0  0  0  0  0  0  0
   19.7020  -10.2203  -16.0623 C   0  0  0  0  0  0  0  0  0  0  0  0
   19.0173   -9.5938  -16.8982 O   0  0  0  0  0  0  0  0  0  0  0  0
   20.0325   -9.5396  -14.8660 N   0  0  0  0  0  0  0  0  0  0  0  0
   19.5661   -8.2175  -14.6346 C   0  0  1  0  0  0  0  0  0  0  0  0
   18.5130   -8.1183  -13.5534 C   0  0  0  0  0  0  0  0  0  0  0  0
   19.0943   -8.7692  -11.9760 S   0  0  0  0  0  0  0  0  0  0  0  0
   20.7049   -7.3828  -14.1835 C   0  0  0  0  0  0  0  0  0  0  0  0
   21.5713   -7.9243  -13.4543 O   0  0  0  0  0  0  0  0  0  0  0  0
   23.4757   -6.0799  -16.0019 C   0  0  0  0  0  0  0  0  0  0  0  0
   22.8755   -4.8875  -15.2907 C   0  0  1  0  0  0  0  0  0  0  0  0
   22.0058   -4.1039  -16.2517 C   0  0  0  0  0  0  0  0  0  0  0  0
   21.9913   -5.2975  -14.1297 C   0  0  2  0  0  0  0  0  0  0  0  0
   20.8228   -6.0072  -14.5598 N   0  0  0  0  0  0  0  0  0  0  0  0
   21.5590   -4.0880  -13.3822 C   0  0  0  0  0  0  0  0  0  0  0  0
   20.2351   -3.7057  -13.4002 O   0  0  0  0  0  0  0  0  0  0  0  0
   22.3658   -3.3902  -12.7246 O   0  0  0  0  0  0  0  0  0  0  0  0
  1  2  1  0
  3  4  2  0
  3  2  1  0
  5  3  1  0
  6  5  1  0
  6  7  1  1
  8  7  1  0
  9  6  1  0
  9 15  1  0
 10  9  2  0
 12 11  1  6
 12 14  1  0
 13 12  1  0
 14 15  1  6
 14 16  1  0
 16 18  2  0
 16 17  1  0
M  END
$$$$
