GCV.pdb
     RDKit          3D

 18 17  0  0  1  0  0  0  0  0999 V2000
   21.5697  -12.9835  -19.5269 N   0  0  0  0  0  0  0  0  0  0  0  0
   20.9352  -11.6872  -19.3871 C   0  0  0  0  0  0  0  0  0  0  0  0
   21.3595  -11.1073  -18.0762 C   0  0  0  0  0  0  0  0  0  0  0  0
   20.7523  -11.4175  -17.0297 O   0  0  0  0  0  0  0  0  0  0  0  0
   22.4394  -10.2015  -17.9456 N   0  0  0  0  0  0  0  0  0  0  0  0
   22.8437   -9.7394  -16.6642 C   0  0  1  0  0  0  0  0  0  0  0  0
   24.3082   -9.9678  -16.3629 C   0  0  0  0  0  0  0  0  0  0  0  0
   24.8092   -9.2068  -14.8073 S   0  0  0  0  0  0  0  0  0  0  0  0
   22.6289   -8.2743  -16.5968 C   0  0  0  0  0  0  0  0  0  0  0  0
   23.0687   -7.5768  -17.5433 O   0  0  0  0  0  0  0  0  0  0  0  0
   20.1480   -4.3522  -15.2580 C   0  0  0  0  0  0  0  0  0  0  0  0
   20.3288   -5.8259  -15.5466 C   0  0  1  0  0  0  0  0  0  0  0  0
   19.8071   -6.1430  -16.9327 C   0  0  0  0  0  0  0  0  0  0  0  0
   21.7863   -6.2413  -15.5182 C   0  0  2  0  0  0  0  0  0  0  0  0
   21.9458   -7.6654  -15.4966 N   0  0  0  0  0  0  0  0  0  0  0  0
   22.4414   -5.6759  -14.3100 C   0  0  0  0  0  0  0  0  0  0  0  0
   22.6495   -6.4723  -13.2047 O   0  0  0  0  0  0  0  0  0  0  0  0
   22.8186   -4.4821  -14.2565 O   0  0  0  0  0  0  0  0  0  0  0  0
  1  2  1  0
  3  4  2  0
  3  2  1  0
  5  3  1  0
  6  5  1  0
  6  7  1  6
  8  7  1  0
  9  6  1  0
  9 15  1  0
 10  9  2  0
 12 11  1  6
 12 14  1  0
 13 12  1  0
 14 15  1  1
 14 16  1  0
 16 18  2  0
 16 17  1  0
M  END
$$$$
