GCV.pdb
     RDKit          3D

 18 17  0  0  1  0  0  0  0  0999 V2000
   21.9691  -15.8330  -18.5678 N   0  0  0  0  0  0  0  0  0  0  0  0
   21.9514  -14.4639  -19.0449 C   0  0  0  0  0  0  0  0  0  0  0  0
   22.2878  -13.5721  -17.8932 C   0  0  0  0  0  0  0  0  0  0  0  0
   21.5697  -13.5732  -16.8712 O   0  0  0  0  0  0  0  0  0  0  0  0
   23.4035  -12.7009  -17.8911 N   0  0  0  0  0  0  0  0  0  0  0  0
   23.6802  -11.8842  -16.7617 C   0  0  1  0  0  0  0  0  0  0  0  0
   25.1510  -11.5975  -16.5567 C   0  0  0  0  0  0  0  0  0  0  0  0
   25.4462  -10.5542  -15.1164 S   0  0  0  0  0  0  0  0  0  0  0  0
   23.0229  -10.5694  -16.9524 C   0  0  0  0  0  0  0  0  0  0  0  0
   23.3572   -9.8907  -17.9540 O   0  0  0  0  0  0  0  0  0  0  0  0
   19.4224   -9.8512  -17.3266 C   0  0  0  0  0  0  0  0  0  0  0  0
   19.9459   -8.8447  -16.3263 C   0  0  1  0  0  0  0  0  0  0  0  0
   19.4922   -9.2260  -14.9324 C   0  0  0  0  0  0  0  0  0  0  0  0
   21.4608   -8.7974  -16.2994 C   0  0  2  0  0  0  0  0  0  0  0  0
   22.0406  -10.0808  -16.0335 N   0  0  0  0  0  0  0  0  0  0  0  0
   21.9105   -7.8503  -15.2462 C   0  0  0  0  0  0  0  0  0  0  0  0
   22.5491   -8.3260  -14.1214 O   0  0  0  0  0  0  0  0  0  0  0  0
   21.7283   -6.6143  -15.3430 O   0  0  0  0  0  0  0  0  0  0  0  0
  1  2  1  0
  3  4  2  0
  3  2  1  0
  5  3  1  0
  6  5  1  0
  6  7  1  6
  8  7  1  0
  9  6  1  0
  9 15  1  0
 10  9  2  0
 12 11  1  6
 12 14  1  0
 13 12  1  0
 14 15  1  1
 14 16  1  0
 16 18  2  0
 16 17  1  0
M  END
$$$$
