GCV.pdb
     RDKit          3D

 18 17  0  0  1  0  0  0  0  0999 V2000
   25.8523  -13.7187  -16.4142 N   0  0  0  0  0  0  0  0  0  0  0  0
   25.2009  -13.0605  -15.2985 C   0  0  0  0  0  0  0  0  0  0  0  0
   24.0344  -12.2946  -15.8346 C   0  0  0  0  0  0  0  0  0  0  0  0
   23.9118  -12.1231  -17.0658 O   0  0  0  0  0  0  0  0  0  0  0  0
   23.0312  -11.7356  -15.0072 N   0  0  0  0  0  0  0  0  0  0  0  0
   21.8680  -11.1510  -15.5766 C   0  0  1  0  0  0  0  0  0  0  0  0
   20.5843  -11.5224  -14.8680 C   0  0  0  0  0  0  0  0  0  0  0  0
   20.3171  -13.3050  -14.8348 S   0  0  0  0  0  0  0  0  0  0  0  0
   21.9821   -9.6761  -15.4841 C   0  0  0  0  0  0  0  0  0  0  0  0
   22.4925   -9.1954  -14.4429 O   0  0  0  0  0  0  0  0  0  0  0  0
   22.2411   -5.2701  -17.6541 C   0  0  0  0  0  0  0  0  0  0  0  0
   22.0107   -6.7602  -17.7734 C   0  0  1  0  0  0  0  0  0  0  0  0
   23.2207   -7.4155  -18.4063 C   0  0  0  0  0  0  0  0  0  0  0  0
   21.8078   -7.4192  -16.4234 C   0  0  2  0  0  0  0  0  0  0  0  0
   21.5299   -8.8205  -16.5382 N   0  0  0  0  0  0  0  0  0  0  0  0
   20.6719   -6.7701  -15.7186 C   0  0  0  0  0  0  0  0  0  0  0  0
   19.4670   -7.4294  -15.6043 O   0  0  0  0  0  0  0  0  0  0  0  0
   20.7688   -5.6267  -15.2153 O   0  0  0  0  0  0  0  0  0  0  0  0
  1  2  1  0
  3  4  2  0
  3  2  1  0
  5  3  1  0
  6  5  1  0
  6  7  1  1
  8  7  1  0
  9  6  1  0
  9 15  1  0
 10  9  2  0
 12 11  1  1
 12 14  1  0
 13 12  1  0
 14 15  1  6
 14 16  1  0
 16 18  2  0
 16 17  1  0
M  END
$$$$
