GCV.pdb
     RDKit          3D

 18 17  0  0  1  0  0  0  0  0999 V2000
   18.7023  -10.5680  -17.4969 N   0  0  0  0  0  0  0  0  0  0  0  0
   18.8228   -9.1597  -17.8204 C   0  0  0  0  0  0  0  0  0  0  0  0
   19.1668   -8.4276  -16.5633 C   0  0  0  0  0  0  0  0  0  0  0  0
   18.2713   -8.1447  -15.7397 O   0  0  0  0  0  0  0  0  0  0  0  0
   20.4846   -8.0239  -16.2404 N   0  0  0  0  0  0  0  0  0  0  0  0
   20.7445   -7.2901  -15.0518 C   0  0  1  0  0  0  0  0  0  0  0  0
   21.9291   -7.8003  -14.2618 C   0  0  0  0  0  0  0  0  0  0  0  0
   22.2949   -6.7595  -12.8360 S   0  0  0  0  0  0  0  0  0  0  0  0
   21.0607   -5.8887  -15.4167 C   0  0  0  0  0  0  0  0  0  0  0  0
   21.8889   -5.7000  -16.3409 O   0  0  0  0  0  0  0  0  0  0  0  0
   18.5821   -2.5809  -14.3662 C   0  0  0  0  0  0  0  0  0  0  0  0
   19.5568   -2.6365  -15.5214 C   0  0  1  0  0  0  0  0  0  0  0  0
   20.0405   -1.2393  -15.8498 C   0  0  0  0  0  0  0  0  0  0  0  0
   20.7849   -3.4634  -15.1964 C   0  0  2  0  0  0  0  0  0  0  0  0
   20.4495   -4.7821  -14.7461 N   0  0  0  0  0  0  0  0  0  0  0  0
   21.5719   -2.7884  -14.1317 C   0  0  0  0  0  0  0  0  0  0  0  0
   22.4427   -1.7720  -14.4605 O   0  0  0  0  0  0  0  0  0  0  0  0
   21.4725   -3.1132  -12.9256 O   0  0  0  0  0  0  0  0  0  0  0  0
  1  2  1  0
  3  4  2  0
  3  2  1  0
  5  3  1  0
  6  5  1  0
  6  7  1  6
  8  7  1  0
  9  6  1  0
  9 15  1  0
 10  9  2  0
 12 11  1  1
 12 14  1  0
 13 12  1  0
 14 15  1  1
 14 16  1  0
 16 18  2  0
 16 17  1  0
M  END
$$$$
