GCV.pdb
     RDKit          3D

 18 17  0  0  1  0  0  0  0  0999 V2000
   16.7846  -13.1595  -15.4136 N   0  0  0  0  0  0  0  0  0  0  0  0
   17.5849  -12.3789  -16.3370 C   0  0  0  0  0  0  0  0  0  0  0  0
   18.2662  -11.3013  -15.5565 C   0  0  0  0  0  0  0  0  0  0  0  0
   17.9838  -11.1279  -14.3521 O   0  0  0  0  0  0  0  0  0  0  0  0
   19.2404  -10.4403  -16.1162 N   0  0  0  0  0  0  0  0  0  0  0  0
   19.7704   -9.3605  -15.3597 C   0  0  1  0  0  0  0  0  0  0  0  0
   21.2760   -9.3903  -15.2185 C   0  0  0  0  0  0  0  0  0  0  0  0
   21.9016   -7.9680  -14.3045 S   0  0  0  0  0  0  0  0  0  0  0  0
   19.4426   -8.0900  -16.0491 C   0  0  0  0  0  0  0  0  0  0  0  0
   19.7591   -7.9852  -17.2593 O   0  0  0  0  0  0  0  0  0  0  0  0
   16.2257   -6.6714  -16.8695 C   0  0  0  0  0  0  0  0  0  0  0  0
   16.9889   -5.5627  -16.1796 C   0  0  1  0  0  0  0  0  0  0  0  0
   16.5150   -5.4306  -14.7472 C   0  0  0  0  0  0  0  0  0  0  0  0
   18.4787   -5.8380  -16.1276 C   0  0  2  0  0  0  0  0  0  0  0  0
   18.7885   -7.0139  -15.3692 N   0  0  0  0  0  0  0  0  0  0  0  0
   19.1772   -4.6813  -15.5091 C   0  0  0  0  0  0  0  0  0  0  0  0
   19.2585   -3.4846  -16.1878 O   0  0  0  0  0  0  0  0  0  0  0  0
   19.7043   -4.7532  -14.3746 O   0  0  0  0  0  0  0  0  0  0  0  0
  1  2  1  0
  3  4  2  0
  3  2  1  0
  5  3  1  0
  6  5  1  0
  6  7  1  6
  8  7  1  0
  9  6  1  0
  9 15  1  0
 10  9  2  0
 12 11  1  1
 12 14  1  0
 13 12  1  0
 14 15  1  1
 14 16  1  0
 16 18  2  0
 16 17  1  0
M  END
$$$$
