GCV.pdb
     RDKit          3D

 18 17  0  0  1  0  0  0  0  0999 V2000
   22.6107  -12.8401  -18.9269 N   0  0  0  0  0  0  0  0  0  0  0  0
   22.4710  -11.4018  -19.0454 C   0  0  0  0  0  0  0  0  0  0  0  0
   22.7698  -10.7999  -17.7100 C   0  0  0  0  0  0  0  0  0  0  0  0
   21.9466  -10.9089  -16.7770 O   0  0  0  0  0  0  0  0  0  0  0  0
   23.9642  -10.0932  -17.4311 N   0  0  0  0  0  0  0  0  0  0  0  0
   24.1790   -9.5144  -16.1513 C   0  0  1  0  0  0  0  0  0  0  0  0
   25.6367   -9.4088  -15.7620 C   0  0  0  0  0  0  0  0  0  0  0  0
   26.3819  -11.0245  -15.4718 S   0  0  0  0  0  0  0  0  0  0  0  0
   23.6496   -8.1300  -16.1598 C   0  0  0  0  0  0  0  0  0  0  0  0
   24.0307   -7.3661  -17.0801 O   0  0  0  0  0  0  0  0  0  0  0  0
   20.5890   -6.9690  -17.0969 C   0  0  0  0  0  0  0  0  0  0  0  0
   20.7732   -6.3237  -15.7414 C   0  0  1  0  0  0  0  0  0  0  0  0
   19.9798   -7.0861  -14.7004 C   0  0  0  0  0  0  0  0  0  0  0  0
   22.2205   -6.3386  -15.2909 C   0  0  2  0  0  0  0  0  0  0  0  0
   22.7358   -7.6695  -15.1594 N   0  0  0  0  0  0  0  0  0  0  0  0
   22.3395   -5.6557  -13.9764 C   0  0  0  0  0  0  0  0  0  0  0  0
   22.2647   -4.2813  -13.9066 O   0  0  0  0  0  0  0  0  0  0  0  0
   22.5082   -6.2922  -12.9103 O   0  0  0  0  0  0  0  0  0  0  0  0
  1  2  1  0
  3  4  2  0
  3  2  1  0
  5  3  1  0
  6  5  1  0
  6  7  1  6
  8  7  1  0
  9  6  1  0
  9 15  1  0
 10  9  2  0
 12 11  1  6
 12 14  1  0
 13 12  1  0
 14 15  1  1
 14 16  1  0
 16 18  2  0
 16 17  1  0
M  END
$$$$
