GCV.pdb
     RDKit          3D

 18 17  0  0  1  0  0  0  0  0999 V2000
   18.7080  -16.1523  -15.1779 N   0  0  0  0  0  0  0  0  0  0  0  0
   17.9503  -15.0601  -14.5987 C   0  0  0  0  0  0  0  0  0  0  0  0
   18.4343  -13.7875  -15.2160 C   0  0  0  0  0  0  0  0  0  0  0  0
   19.3714  -13.8101  -16.0415 O   0  0  0  0  0  0  0  0  0  0  0  0
   17.8784  -12.5216  -14.9126 N   0  0  0  0  0  0  0  0  0  0  0  0
   18.3177  -11.3568  -15.5975 C   0  0  1  0  0  0  0  0  0  0  0  0
   17.2007  -10.4120  -15.9813 C   0  0  0  0  0  0  0  0  0  0  0  0
   17.8233   -8.8678  -16.6725 S   0  0  0  0  0  0  0  0  0  0  0  0
   19.2210  -10.5919  -14.7053 C   0  0  0  0  0  0  0  0  0  0  0  0
   18.8508  -10.4082  -13.5200 O   0  0  0  0  0  0  0  0  0  0  0  0
   22.9546  -11.1878  -13.9470 C   0  0  0  0  0  0  0  0  0  0  0  0
   22.7375   -9.7326  -14.2979 C   0  0  1  0  0  0  0  0  0  0  0  0
   23.2033   -9.4737  -15.7157 C   0  0  0  0  0  0  0  0  0  0  0  0
   21.2748   -9.3397  -14.2356 C   0  0  2  0  0  0  0  0  0  0  0  0
   20.4733  -10.0763  -15.1678 N   0  0  0  0  0  0  0  0  0  0  0  0
   21.1354   -7.8911  -14.5367 C   0  0  0  0  0  0  0  0  0  0  0  0
   21.5645   -6.9544  -13.6213 O   0  0  0  0  0  0  0  0  0  0  0  0
   20.6341   -7.4811  -15.6094 O   0  0  0  0  0  0  0  0  0  0  0  0
  1  2  1  0
  3  4  2  0
  3  2  1  0
  5  3  1  0
  6  5  1  0
  6  7  1  1
  8  7  1  0
  9  6  1  0
  9 15  1  0
 10  9  2  0
 12 11  1  6
 12 14  1  0
 13 12  1  0
 14 15  1  6
 14 16  1  0
 16 18  2  0
 16 17  1  0
M  END
$$$$
