GCV.pdb
     RDKit          3D

 18 17  0  0  1  0  0  0  0  0999 V2000
   20.2338  -11.3556  -20.1490 N   0  0  0  0  0  0  0  0  0  0  0  0
   19.5099  -10.2663  -19.5231 C   0  0  0  0  0  0  0  0  0  0  0  0
   20.0986  -10.0428  -18.1673 C   0  0  0  0  0  0  0  0  0  0  0  0
   19.3509   -9.8644  -17.1828 O   0  0  0  0  0  0  0  0  0  0  0  0
   21.4930  -10.0205  -17.9247 N   0  0  0  0  0  0  0  0  0  0  0  0
   21.9965   -9.7172  -16.6311 C   0  0  1  0  0  0  0  0  0  0  0  0
   23.3646  -10.2989  -16.3527 C   0  0  0  0  0  0  0  0  0  0  0  0
   24.0011   -9.7991  -14.7418 S   0  0  0  0  0  0  0  0  0  0  0  0
   22.1370   -8.2468  -16.5075 C   0  0  0  0  0  0  0  0  0  0  0  0
   22.8158   -7.6510  -17.3793 O   0  0  0  0  0  0  0  0  0  0  0  0
   19.2105   -5.7442  -15.1770 C   0  0  0  0  0  0  0  0  0  0  0  0
   20.4632   -5.3715  -15.9384 C   0  0  1  0  0  0  0  0  0  0  0  0
   20.7320   -3.8887  -15.7854 C   0  0  0  0  0  0  0  0  0  0  0  0
   21.6879   -6.0977  -15.4184 C   0  0  2  0  0  0  0  0  0  0  0  0
   21.5248   -7.5215  -15.4365 N   0  0  0  0  0  0  0  0  0  0  0  0
   21.9623   -5.6731  -14.0209 C   0  0  0  0  0  0  0  0  0  0  0  0
   22.5873   -4.4689  -13.7787 O   0  0  0  0  0  0  0  0  0  0  0  0
   21.6417   -6.3798  -13.0371 O   0  0  0  0  0  0  0  0  0  0  0  0
  1  2  1  0
  3  4  2  0
  3  2  1  0
  5  3  1  0
  6  5  1  0
  6  7  1  6
  8  7  1  0
  9  6  1  0
  9 15  1  0
 10  9  2  0
 12 11  1  1
 12 14  1  0
 13 12  1  0
 14 15  1  1
 14 16  1  0
 16 18  2  0
 16 17  1  0
M  END
$$$$
