GCV.pdb
     RDKit          3D

 18 17  0  0  1  0  0  0  0  0999 V2000
   28.3158  -21.9173  -16.2281 N   0  0  0  0  0  0  0  0  0  0  0  0
   28.3334  -21.0763  -15.0471 C   0  0  0  0  0  0  0  0  0  0  0  0
   27.1008  -21.3716  -14.2546 C   0  0  0  0  0  0  0  0  0  0  0  0
   26.2032  -22.0919  -14.7401 O   0  0  0  0  0  0  0  0  0  0  0  0
   26.8830  -20.8696  -12.9491 N   0  0  0  0  0  0  0  0  0  0  0  0
   25.7226  -21.2393  -12.2172 C   0  0  1  0  0  0  0  0  0  0  0  0
   25.8190  -20.9639  -10.7331 C   0  0  0  0  0  0  0  0  0  0  0  0
   24.2485  -21.2293   -9.8888 S   0  0  0  0  0  0  0  0  0  0  0  0
   24.5734  -20.4456  -12.7136 C   0  0  0  0  0  0  0  0  0  0  0  0
   24.6577  -19.1949  -12.6486 O   0  0  0  0  0  0  0  0  0  0  0  0
   23.3876  -19.7302  -15.9333 C   0  0  0  0  0  0  0  0  0  0  0  0
   22.1724  -20.2623  -15.2068 C   0  0  1  0  0  0  0  0  0  0  0  0
   21.9435  -21.7106  -15.5865 C   0  0  0  0  0  0  0  0  0  0  0  0
   22.3414  -20.2227  -13.7009 C   0  0  2  0  0  0  0  0  0  0  0  0
   23.4040  -21.0722  -13.2501 N   0  0  0  0  0  0  0  0  0  0  0  0
   21.0802  -20.6590  -13.0470 C   0  0  0  0  0  0  0  0  0  0  0  0
   19.9685  -19.8455  -13.0865 O   0  0  0  0  0  0  0  0  0  0  0  0
   20.9870  -21.7572  -12.4507 O   0  0  0  0  0  0  0  0  0  0  0  0
  1  2  1  0
  3  4  2  0
  3  2  1  0
  5  3  1  0
  6  5  1  0
  6  7  1  1
  8  7  1  0
  9  6  1  0
  9 15  1  0
 10  9  2  0
 12 11  1  6
 12 14  1  0
 13 12  1  0
 14 15  1  6
 14 16  1  0
 16 18  2  0
 16 17  1  0
M  END
$$$$
