GCV.pdb
     RDKit          3D

 18 17  0  0  1  0  0  0  0  0999 V2000
   26.7737  -15.2081  -16.0143 N   0  0  0  0  0  0  0  0  0  0  0  0
   25.7644  -14.9859  -14.9972 C   0  0  0  0  0  0  0  0  0  0  0  0
   24.6237  -14.2589  -15.6336 C   0  0  0  0  0  0  0  0  0  0  0  0
   24.7109  -13.8741  -16.8187 O   0  0  0  0  0  0  0  0  0  0  0  0
   23.4153  -13.9721  -14.9544 N   0  0  0  0  0  0  0  0  0  0  0  0
   22.3494  -13.3128  -15.6236 C   0  0  1  0  0  0  0  0  0  0  0  0
   20.9772  -13.8261  -15.2477 C   0  0  0  0  0  0  0  0  0  0  0  0
   19.6587  -12.7865  -15.9040 S   0  0  0  0  0  0  0  0  0  0  0  0
   22.3714  -11.8771  -15.2556 C   0  0  0  0  0  0  0  0  0  0  0  0
   22.6733  -11.5834  -14.0731 O   0  0  0  0  0  0  0  0  0  0  0  0
   21.9803   -8.6020  -18.1321 C   0  0  0  0  0  0  0  0  0  0  0  0
   22.8288   -8.6269  -16.8803 C   0  0  1  0  0  0  0  0  0  0  0  0
   22.9480   -7.2264  -16.3157 C   0  0  0  0  0  0  0  0  0  0  0  0
   22.2214   -9.4906  -15.7927 C   0  0  2  0  0  0  0  0  0  0  0  0
   22.0612  -10.8535  -16.2062 N   0  0  0  0  0  0  0  0  0  0  0  0
   20.8880   -8.9529  -15.4168 C   0  0  0  0  0  0  0  0  0  0  0  0
   20.7969   -7.8876  -14.5471 O   0  0  0  0  0  0  0  0  0  0  0  0
   19.8248   -9.4390  -15.8678 O   0  0  0  0  0  0  0  0  0  0  0  0
  1  2  1  0
  3  4  2  0
  3  2  1  0
  5  3  1  0
  6  5  1  0
  6  7  1  1
  8  7  1  0
  9  6  1  0
  9 15  1  0
 10  9  2  0
 12 11  1  6
 12 14  1  0
 13 12  1  0
 14 15  1  6
 14 16  1  0
 16 18  2  0
 16 17  1  0
M  END
$$$$
