GCV.pdb
     RDKit          3D

 18 17  0  0  1  0  0  0  0  0999 V2000
   17.6869  -15.6567  -17.4886 N   0  0  0  0  0  0  0  0  0  0  0  0
   17.2272  -15.0171  -16.2712 C   0  0  0  0  0  0  0  0  0  0  0  0
   17.3869  -13.5403  -16.4400 C   0  0  0  0  0  0  0  0  0  0  0  0
   17.8890  -13.0816  -17.4877 O   0  0  0  0  0  0  0  0  0  0  0  0
   16.9919  -12.6032  -15.4554 N   0  0  0  0  0  0  0  0  0  0  0  0
   17.1000  -11.2079  -15.7015 C   0  0  1  0  0  0  0  0  0  0  0  0
   15.7687  -10.4970  -15.8010 C   0  0  0  0  0  0  0  0  0  0  0  0
   14.5689  -11.1305  -14.6140 S   0  0  0  0  0  0  0  0  0  0  0  0
   17.8234  -10.5795  -14.5706 C   0  0  0  0  0  0  0  0  0  0  0  0
   17.6792  -11.0881  -13.4321 O   0  0  0  0  0  0  0  0  0  0  0  0
   20.6597   -7.2531  -14.9938 C   0  0  0  0  0  0  0  0  0  0  0  0
   20.7976   -8.4497  -14.0790 C   0  0  1  0  0  0  0  0  0  0  0  0
   21.5352   -8.0472  -12.8187 C   0  0  0  0  0  0  0  0  0  0  0  0
   19.4527   -8.9991  -13.6465 C   0  0  2  0  0  0  0  0  0  0  0  0
   18.6593   -9.4332  -14.7583 N   0  0  0  0  0  0  0  0  0  0  0  0
   18.6994   -7.9497  -12.9118 C   0  0  0  0  0  0  0  0  0  0  0  0
   18.9119   -7.7687  -11.5622 O   0  0  0  0  0  0  0  0  0  0  0  0
   17.8639   -7.2100  -13.4819 O   0  0  0  0  0  0  0  0  0  0  0  0
  1  2  1  0
  3  4  2  0
  3  2  1  0
  5  3  1  0
  6  5  1  0
  6  7  1  1
  8  7  1  0
  9  6  1  0
  9 15  1  0
 10  9  2  0
 12 11  1  6
 12 14  1  0
 13 12  1  0
 14 15  1  6
 14 16  1  0
 16 18  2  0
 16 17  1  0
M  END
$$$$
