GCV.pdb
     RDKit          3D

 18 17  0  0  1  0  0  0  0  0999 V2000
   17.5662  -14.1513  -16.0925 N   0  0  0  0  0  0  0  0  0  0  0  0
   18.7879  -13.3895  -16.2638 C   0  0  0  0  0  0  0  0  0  0  0  0
   18.5117  -11.9796  -15.8507 C   0  0  0  0  0  0  0  0  0  0  0  0
   18.0810  -11.1566  -16.6858 O   0  0  0  0  0  0  0  0  0  0  0  0
   18.7145  -11.5073  -14.5318 N   0  0  0  0  0  0  0  0  0  0  0  0
   18.4300  -10.1561  -14.1967 C   0  0  1  0  0  0  0  0  0  0  0  0
   18.1867   -9.9274  -12.7215 C   0  0  0  0  0  0  0  0  0  0  0  0
   17.9878   -8.1794  -12.3279 S   0  0  0  0  0  0  0  0  0  0  0  0
   19.5983   -9.3192  -14.5599 C   0  0  0  0  0  0  0  0  0  0  0  0
   20.7330   -9.7128  -14.1949 O   0  0  0  0  0  0  0  0  0  0  0  0
   19.5360   -6.3866  -17.7243 C   0  0  0  0  0  0  0  0  0  0  0  0
   20.6876   -7.2312  -17.2260 C   0  0  1  0  0  0  0  0  0  0  0  0
   21.9996   -6.5426  -17.5397 C   0  0  0  0  0  0  0  0  0  0  0  0
   20.6433   -7.4327  -15.7243 C   0  0  2  0  0  0  0  0  0  0  0  0
   19.4498   -8.1036  -15.3003 N   0  0  0  0  0  0  0  0  0  0  0  0
   20.7091   -6.1136  -15.0430 C   0  0  0  0  0  0  0  0  0  0  0  0
   19.5866   -5.5998  -14.4303 O   0  0  0  0  0  0  0  0  0  0  0  0
   21.7641   -5.4387  -15.0034 O   0  0  0  0  0  0  0  0  0  0  0  0
  1  2  1  0
  3  4  2  0
  3  2  1  0
  5  3  1  0
  6  5  1  0
  6  7  1  1
  8  7  1  0
  9  6  1  0
  9 15  1  0
 10  9  2  0
 12 11  1  1
 12 14  1  0
 13 12  1  0
 14 15  1  6
 14 16  1  0
 16 18  2  0
 16 17  1  0
M  END
$$$$
