ADI.pdb
     RDKit          3D

 22 21  0  0  1  0  0  0  0  0999 V2000
    8.2362  -12.2584   19.6390 C   0  0  0  0  0  0  0  0  0  0  0  0
    8.2614  -13.7477   19.2874 C   0  0  2  0  0  0  0  0  0  0  0  0
    7.1093  -13.9784   18.4206 N   0  0  0  0  0  0  0  0  0  0  0  0
    8.1608  -14.5793   20.5145 C   0  0  0  0  0  0  0  0  0  0  0  0
    7.0166  -14.7921   21.0102 O   0  0  0  0  0  0  0  0  0  0  0  0
    9.2694  -15.1519   21.1679 N   0  0  0  0  0  0  0  0  0  0  0  0
    9.0237  -16.1148   22.2963 C   0  0  1  0  0  0  0  0  0  0  0  0
   10.0882  -17.1592   22.0483 C   0  0  0  0  0  0  0  0  0  0  0  0
    9.8928  -18.1168   20.9956 C   0  0  0  0  0  0  0  0  0  0  0  0
    8.8707  -18.7352   20.6495 O   0  0  0  0  0  0  0  0  0  0  0  0
    9.3039  -15.4196   23.5541 C   0  0  0  0  0  0  0  0  0  0  0  0
   10.3967  -14.7378   23.6200 O   0  0  0  0  0  0  0  0  0  0  0  0
   11.0358  -18.4291   20.2029 O   0  0  0  0  0  0  0  0  0  0  0  0
    6.1412  -11.9634   25.8505 C   0  0  0  0  0  0  0  0  0  0  0  0
    7.2581  -12.8232   25.3958 C   0  0  0  0  0  0  0  0  0  0  0  0
    7.9314  -13.6623   26.4210 C   0  0  2  0  0  0  0  0  0  0  0  0
    8.4274  -12.8546   27.6141 C   0  0  0  0  0  0  0  0  0  0  0  0
    8.9370  -14.6417   25.9215 C   0  0  2  0  0  0  0  0  0  0  0  0
    8.5438  -15.3726   24.7343 N   0  0  0  0  0  0  0  0  0  0  0  0
    9.2289  -15.6128   27.0081 C   0  0  0  0  0  0  0  0  0  0  0  0
   10.1286  -15.3493   28.0280 O   0  0  0  0  0  0  0  0  0  0  0  0
    8.6552  -16.7388   27.0430 O   0  0  0  0  0  0  0  0  0  0  0  0
  2  1  1  1
  2  3  1  0
  4  2  1  0
  5  4  2  0
  6  4  1  0
  7  6  1  0
  7 11  1  0
  7  8  1  6
  9 10  2  0
  9  8  1  0
 11 12  2  0
 11 19  1  0
 13  9  1  0
 15 14  1  0
 16 15  1  0
 16 17  1  1
 18 16  1  0
 18 20  1  0
 18 19  1  6
 20 21  1  0
 22 20  2  0
M  END
$$$$
