ADI.pdb
     RDKit          3D

 22 21  0  0  1  0  0  0  0  0999 V2000
    7.1184  -13.3389   18.8774 C   0  0  0  0  0  0  0  0  0  0  0  0
    8.3170  -13.2471   19.8247 C   0  0  2  0  0  0  0  0  0  0  0  0
    9.4930  -13.5696   19.0218 N   0  0  0  0  0  0  0  0  0  0  0  0
    8.1757  -14.2112   20.9463 C   0  0  0  0  0  0  0  0  0  0  0  0
    7.1399  -14.1513   21.6699 O   0  0  0  0  0  0  0  0  0  0  0  0
    9.1311  -15.1979   21.2585 N   0  0  0  0  0  0  0  0  0  0  0  0
    8.8305  -16.1680   22.3672 C   0  0  1  0  0  0  0  0  0  0  0  0
    9.8291  -17.2694   22.0931 C   0  0  0  0  0  0  0  0  0  0  0  0
    9.5048  -18.2781   21.1231 C   0  0  0  0  0  0  0  0  0  0  0  0
    8.4921  -18.4178   20.4148 O   0  0  0  0  0  0  0  0  0  0  0  0
    9.1557  -15.5180   23.6383 C   0  0  0  0  0  0  0  0  0  0  0  0
   10.2830  -14.8958   23.7108 O   0  0  0  0  0  0  0  0  0  0  0  0
   10.4811  -19.2964   20.9174 O   0  0  0  0  0  0  0  0  0  0  0  0
    5.9956  -12.1606   26.2061 C   0  0  0  0  0  0  0  0  0  0  0  0
    7.0998  -12.9815   25.6583 C   0  0  0  0  0  0  0  0  0  0  0  0
    7.8513  -13.8357   26.6146 C   0  0  2  0  0  0  0  0  0  0  0  0
    8.4006  -13.0535   27.8013 C   0  0  0  0  0  0  0  0  0  0  0  0
    8.8458  -14.7758   26.0253 C   0  0  2  0  0  0  0  0  0  0  0  0
    8.4075  -15.4592   24.8257 N   0  0  0  0  0  0  0  0  0  0  0  0
    9.2018  -15.7895   27.0521 C   0  0  0  0  0  0  0  0  0  0  0  0
   10.0927  -15.5337   28.0817 O   0  0  0  0  0  0  0  0  0  0  0  0
    8.6943  -16.9471   27.0239 O   0  0  0  0  0  0  0  0  0  0  0  0
  2  1  1  6
  2  3  1  0
  4  2  1  0
  5  4  2  0
  6  4  1  0
  7  6  1  0
  7 11  1  0
  7  8  1  6
  9 10  2  0
  9  8  1  0
 11 12  2  0
 11 19  1  0
 13  9  1  0
 15 14  1  0
 16 15  1  0
 16 17  1  1
 18 16  1  0
 18 20  1  0
 18 19  1  6
 20 21  1  0
 22 20  2  0
M  END
$$$$
