ADI.pdb
     RDKit          3D

 22 21  0  0  1  0  0  0  0  0999 V2000
    7.1591  -13.2362   18.8665 C   0  0  0  0  0  0  0  0  0  0  0  0
    8.4023  -13.2138   19.7588 C   0  0  2  0  0  0  0  0  0  0  0  0
    9.5213  -13.5985   18.9036 N   0  0  0  0  0  0  0  0  0  0  0  0
    8.2582  -14.1719   20.8852 C   0  0  0  0  0  0  0  0  0  0  0  0
    7.2664  -14.0506   21.6609 O   0  0  0  0  0  0  0  0  0  0  0  0
    9.1647  -15.2176   21.1472 N   0  0  0  0  0  0  0  0  0  0  0  0
    8.8521  -16.1821   22.2576 C   0  0  1  0  0  0  0  0  0  0  0  0
    9.8554  -17.2836   22.0014 C   0  0  0  0  0  0  0  0  0  0  0  0
    9.9891  -18.3417   22.9638 C   0  0  0  0  0  0  0  0  0  0  0  0
    9.1379  -18.8751   23.6971 O   0  0  0  0  0  0  0  0  0  0  0  0
    9.1613  -15.5246   23.5289 C   0  0  0  0  0  0  0  0  0  0  0  0
   10.2984  -14.9229   23.6201 O   0  0  0  0  0  0  0  0  0  0  0  0
   11.2956  -18.8884   23.1269 O   0  0  0  0  0  0  0  0  0  0  0  0
    5.9076  -12.1916   26.0270 C   0  0  0  0  0  0  0  0  0  0  0  0
    7.0863  -12.9308   25.5194 C   0  0  0  0  0  0  0  0  0  0  0  0
    7.7980  -13.8165   26.4773 C   0  0  2  0  0  0  0  0  0  0  0  0
    8.3066  -13.0721   27.7058 C   0  0  0  0  0  0  0  0  0  0  0  0
    8.8094  -14.7446   25.8979 C   0  0  2  0  0  0  0  0  0  0  0  0
    8.3882  -15.4391   24.6985 N   0  0  0  0  0  0  0  0  0  0  0  0
    9.1736  -15.7490   26.9310 C   0  0  0  0  0  0  0  0  0  0  0  0
   10.1560  -15.5250   27.8817 O   0  0  0  0  0  0  0  0  0  0  0  0
    8.5883  -16.8684   26.9820 O   0  0  0  0  0  0  0  0  0  0  0  0
  2  1  1  6
  2  3  1  0
  4  2  1  0
  5  4  2  0
  6  4  1  0
  7  6  1  0
  7 11  1  0
  7  8  1  6
  9 10  2  0
  9  8  1  0
 11 12  2  0
 11 19  1  0
 13  9  1  0
 15 14  1  0
 16 15  1  0
 16 17  1  1
 18 16  1  0
 18 20  1  0
 18 19  1  6
 20 21  1  0
 22 20  2  0
M  END
$$$$
