ADI.pdb
     RDKit          3D

 22 21  0  0  1  0  0  0  0  0999 V2000
    7.0877  -13.2768   18.7690 C   0  0  0  0  0  0  0  0  0  0  0  0
    8.3246  -13.2748   19.6704 C   0  0  2  0  0  0  0  0  0  0  0  0
    9.4388  -13.7029   18.8297 N   0  0  0  0  0  0  0  0  0  0  0  0
    8.1461  -14.2113   20.8099 C   0  0  0  0  0  0  0  0  0  0  0  0
    7.1658  -14.0366   21.5900 O   0  0  0  0  0  0  0  0  0  0  0  0
    9.0075  -15.2925   21.0798 N   0  0  0  0  0  0  0  0  0  0  0  0
    8.7197  -16.1643   22.2706 C   0  0  1  0  0  0  0  0  0  0  0  0
    9.7159  -17.2855   22.0805 C   0  0  0  0  0  0  0  0  0  0  0  0
    9.8408  -18.2871   23.1025 C   0  0  0  0  0  0  0  0  0  0  0  0
    9.0574  -18.6103   24.0129 O   0  0  0  0  0  0  0  0  0  0  0  0
    9.0587  -15.4082   23.4778 C   0  0  0  0  0  0  0  0  0  0  0  0
   10.2311  -14.8732   23.5286 O   0  0  0  0  0  0  0  0  0  0  0  0
   11.0455  -19.0495   23.0986 O   0  0  0  0  0  0  0  0  0  0  0  0
    5.6854  -12.2151   26.8164 C   0  0  0  0  0  0  0  0  0  0  0  0
    6.4952  -13.3981   26.4448 C   0  0  0  0  0  0  0  0  0  0  0  0
    7.9012  -13.1562   26.0283 C   0  0  2  0  0  0  0  0  0  0  0  0
    8.0235  -12.0850   24.9514 C   0  0  0  0  0  0  0  0  0  0  0  0
    8.7271  -14.3637   25.7458 C   0  0  2  0  0  0  0  0  0  0  0  0
    8.2820  -15.1619   24.6219 N   0  0  0  0  0  0  0  0  0  0  0  0
    8.7459  -15.2168   26.9626 C   0  0  0  0  0  0  0  0  0  0  0  0
    8.2060  -16.4922   26.9931 O   0  0  0  0  0  0  0  0  0  0  0  0
    9.2662  -14.8019   28.0376 O   0  0  0  0  0  0  0  0  0  0  0  0
  2  1  1  6
  2  3  1  0
  4  2  1  0
  5  4  2  0
  6  4  1  0
  7  6  1  0
  7 11  1  0
  7  8  1  6
  9 10  2  0
  9  8  1  0
 11 12  2  0
 11 19  1  0
 13  9  1  0
 15 14  1  0
 16 15  1  0
 16 17  1  6
 18 16  1  0
 18 20  1  0
 18 19  1  6
 20 21  1  0
 22 20  2  0
M  END
$$$$
