ADI.pdb
     RDKit          3D

 22 21  0  0  1  0  0  0  0  0999 V2000
    8.1617  -12.2077   19.6594 C   0  0  0  0  0  0  0  0  0  0  0  0
    8.1441  -13.6819   19.2482 C   0  0  2  0  0  0  0  0  0  0  0  0
    6.9777  -13.8475   18.3857 N   0  0  0  0  0  0  0  0  0  0  0  0
    8.0340  -14.5593   20.4421 C   0  0  0  0  0  0  0  0  0  0  0  0
    6.8875  -14.7774   20.9302 O   0  0  0  0  0  0  0  0  0  0  0  0
    9.1359  -15.1702   21.0717 N   0  0  0  0  0  0  0  0  0  0  0  0
    8.8824  -16.1083   22.2191 C   0  0  1  0  0  0  0  0  0  0  0  0
    9.9745  -17.1355   22.0253 C   0  0  0  0  0  0  0  0  0  0  0  0
   10.0925  -18.2131   22.9679 C   0  0  0  0  0  0  0  0  0  0  0  0
    9.4086  -18.4836   23.9710 O   0  0  0  0  0  0  0  0  0  0  0  0
    9.1165  -15.3743   23.4643 C   0  0  0  0  0  0  0  0  0  0  0  0
   10.2144  -14.7039   23.5558 O   0  0  0  0  0  0  0  0  0  0  0  0
   11.1548  -19.1371   22.7442 O   0  0  0  0  0  0  0  0  0  0  0  0
    5.7001  -12.0379   25.7715 C   0  0  0  0  0  0  0  0  0  0  0  0
    6.8302  -12.8641   25.2883 C   0  0  0  0  0  0  0  0  0  0  0  0
    7.6088  -13.6145   26.3078 C   0  0  2  0  0  0  0  0  0  0  0  0
    8.0893  -12.7317   27.4532 C   0  0  0  0  0  0  0  0  0  0  0  0
    8.6663  -14.5301   25.7943 C   0  0  2  0  0  0  0  0  0  0  0  0
    8.3060  -15.2783   24.6074 N   0  0  0  0  0  0  0  0  0  0  0  0
    9.0261  -15.4864   26.8735 C   0  0  0  0  0  0  0  0  0  0  0  0
    8.6036  -16.8057   26.8785 O   0  0  0  0  0  0  0  0  0  0  0  0
    9.7461  -15.1241   27.8476 O   0  0  0  0  0  0  0  0  0  0  0  0
  2  1  1  1
  2  3  1  0
  4  2  1  0
  5  4  2  0
  6  4  1  0
  7  6  1  0
  7 11  1  0
  7  8  1  6
  9 10  2  0
  9  8  1  0
 11 12  2  0
 11 19  1  0
 13  9  1  0
 15 14  1  0
 16 15  1  0
 16 17  1  1
 18 16  1  0
 18 20  1  0
 18 19  1  6
 20 21  1  0
 22 20  2  0
M  END
$$$$
