ADI.pdb
     RDKit          3D

 22 21  0  0  1  0  0  0  0  0999 V2000
    8.3287  -12.1907   19.4647 C   0  0  0  0  0  0  0  0  0  0  0  0
    8.5512  -13.6524   19.0696 C   0  0  2  0  0  0  0  0  0  0  0  0
    7.6591  -13.9072   17.9422 N   0  0  0  0  0  0  0  0  0  0  0  0
    8.2266  -14.5582   20.2016 C   0  0  0  0  0  0  0  0  0  0  0  0
    7.0109  -14.7574   20.4889 O   0  0  0  0  0  0  0  0  0  0  0  0
    9.1959  -15.2162   20.9835 N   0  0  0  0  0  0  0  0  0  0  0  0
    8.7368  -16.0807   22.1249 C   0  0  1  0  0  0  0  0  0  0  0  0
    9.6746  -17.2612   22.0148 C   0  0  0  0  0  0  0  0  0  0  0  0
    9.4911  -18.1990   20.9422 C   0  0  0  0  0  0  0  0  0  0  0  0
    8.6169  -19.0673   20.7728 O   0  0  0  0  0  0  0  0  0  0  0  0
    9.0004  -15.3610   23.3725 C   0  0  0  0  0  0  0  0  0  0  0  0
   10.0990  -14.6893   23.4447 O   0  0  0  0  0  0  0  0  0  0  0  0
   10.4493  -18.1509   19.8877 O   0  0  0  0  0  0  0  0  0  0  0  0
    5.4600  -12.8252   27.2134 C   0  0  0  0  0  0  0  0  0  0  0  0
    6.2873  -13.8387   26.5194 C   0  0  0  0  0  0  0  0  0  0  0  0
    7.6402  -13.4198   26.0692 C   0  0  2  0  0  0  0  0  0  0  0  0
    7.6000  -12.2994   25.0372 C   0  0  0  0  0  0  0  0  0  0  0  0
    8.5874  -14.5117   25.7076 C   0  0  2  0  0  0  0  0  0  0  0  0
    8.2185  -15.2805   24.5366 N   0  0  0  0  0  0  0  0  0  0  0  0
    8.7094  -15.4329   26.8675 C   0  0  0  0  0  0  0  0  0  0  0  0
    9.3142  -15.0642   28.0580 O   0  0  0  0  0  0  0  0  0  0  0  0
    8.2562  -16.6117   26.8099 O   0  0  0  0  0  0  0  0  0  0  0  0
  2  1  1  1
  2  3  1  0
  4  2  1  0
  5  4  2  0
  6  4  1  0
  7  6  1  0
  7 11  1  0
  7  8  1  1
  9 10  2  0
  9  8  1  0
 11 12  2  0
 11 19  1  0
 13  9  1  0
 15 14  1  0
 16 15  1  0
 16 17  1  6
 18 16  1  0
 18 20  1  0
 18 19  1  6
 20 21  1  0
 22 20  2  0
M  END
$$$$
