ADI.pdb
     RDKit          3D

 22 21  0  0  1  0  0  0  0  0999 V2000
    7.2767  -13.0779   18.5476 C   0  0  0  0  0  0  0  0  0  0  0  0
    8.4840  -13.2577   19.4709 C   0  0  2  0  0  0  0  0  0  0  0  0
    9.5123  -13.9145   18.6692 N   0  0  0  0  0  0  0  0  0  0  0  0
    8.1279  -14.0967   20.6443 C   0  0  0  0  0  0  0  0  0  0  0  0
    7.1518  -13.7442   21.3675 O   0  0  0  0  0  0  0  0  0  0  0  0
    8.8148  -15.2719   21.0065 N   0  0  0  0  0  0  0  0  0  0  0  0
    8.3355  -16.0484   22.2016 C   0  0  1  0  0  0  0  0  0  0  0  0
    9.1081  -17.3401   22.0607 C   0  0  0  0  0  0  0  0  0  0  0  0
    8.8518  -18.1850   20.9276 C   0  0  0  0  0  0  0  0  0  0  0  0
    7.8287  -18.8167   20.6096 O   0  0  0  0  0  0  0  0  0  0  0  0
    8.7769  -15.3432   23.4066 C   0  0  0  0  0  0  0  0  0  0  0  0
    9.9998  -14.9343   23.4356 O   0  0  0  0  0  0  0  0  0  0  0  0
    9.9234  -18.3446   20.0010 O   0  0  0  0  0  0  0  0  0  0  0  0
    5.8824  -11.9425   27.1008 C   0  0  0  0  0  0  0  0  0  0  0  0
    6.5158  -13.1611   26.5467 C   0  0  0  0  0  0  0  0  0  0  0  0
    7.9039  -13.0319   26.0318 C   0  0  2  0  0  0  0  0  0  0  0  0
    8.0366  -11.9695   24.9476 C   0  0  0  0  0  0  0  0  0  0  0  0
    8.6074  -14.3011   25.6934 C   0  0  2  0  0  0  0  0  0  0  0  0
    8.0543  -15.0276   24.5690 N   0  0  0  0  0  0  0  0  0  0  0  0
    8.5901  -15.1827   26.8897 C   0  0  0  0  0  0  0  0  0  0  0  0
    9.2230  -14.8499   28.0762 O   0  0  0  0  0  0  0  0  0  0  0  0
    7.9845  -16.2923   26.8689 O   0  0  0  0  0  0  0  0  0  0  0  0
  2  1  1  6
  2  3  1  0
  4  2  1  0
  5  4  2  0
  6  4  1  0
  7  6  1  0
  7 11  1  0
  7  8  1  6
  9 10  2  0
  9  8  1  0
 11 12  2  0
 11 19  1  0
 13  9  1  0
 15 14  1  0
 16 15  1  0
 16 17  1  6
 18 16  1  0
 18 20  1  0
 18 19  1  6
 20 21  1  0
 22 20  2  0
M  END
$$$$
