ADI.pdb
     RDKit          3D

 22 21  0  0  1  0  0  0  0  0999 V2000
    8.4354  -12.1708   19.2470 C   0  0  0  0  0  0  0  0  0  0  0  0
    8.3856  -13.6606   18.8998 C   0  0  2  0  0  0  0  0  0  0  0  0
    7.2292  -13.8338   18.0255 N   0  0  0  0  0  0  0  0  0  0  0  0
    8.2333  -14.4818   20.1285 C   0  0  0  0  0  0  0  0  0  0  0  0
    7.0670  -14.7276   20.5524 O   0  0  0  0  0  0  0  0  0  0  0  0
    9.3156  -15.0097   20.8592 N   0  0  0  0  0  0  0  0  0  0  0  0
    9.0302  -15.9812   21.9708 C   0  0  1  0  0  0  0  0  0  0  0  0
   10.1579  -16.9750   21.8095 C   0  0  0  0  0  0  0  0  0  0  0  0
   10.2745  -18.0549   22.7496 C   0  0  0  0  0  0  0  0  0  0  0  0
    9.5702  -18.3462   23.7324 O   0  0  0  0  0  0  0  0  0  0  0  0
    9.1818  -15.2714   23.2425 C   0  0  0  0  0  0  0  0  0  0  0  0
   10.2610  -14.5853   23.4097 O   0  0  0  0  0  0  0  0  0  0  0  0
   11.3629  -18.9538   22.5500 O   0  0  0  0  0  0  0  0  0  0  0  0
    6.8533  -11.4849   27.3530 C   0  0  0  0  0  0  0  0  0  0  0  0
    7.8079  -12.5810   27.0689 C   0  0  0  0  0  0  0  0  0  0  0  0
    7.5464  -13.4163   25.8679 C   0  0  2  0  0  0  0  0  0  0  0  0
    6.1202  -13.9503   25.8175 C   0  0  0  0  0  0  0  0  0  0  0  0
    8.5682  -14.4512   25.5436 C   0  0  2  0  0  0  0  0  0  0  0  0
    8.3074  -15.2143   24.3403 N   0  0  0  0  0  0  0  0  0  0  0  0
    8.6712  -15.3879   26.6928 C   0  0  0  0  0  0  0  0  0  0  0  0
    9.3033  -15.0531   27.8792 O   0  0  0  0  0  0  0  0  0  0  0  0
    8.1755  -16.5491   26.6295 O   0  0  0  0  0  0  0  0  0  0  0  0
  2  1  1  1
  2  3  1  0
  4  2  1  0
  5  4  2  0
  6  4  1  0
  7  6  1  0
  7 11  1  0
  7  8  1  1
  9 10  2  0
  9  8  1  0
 11 12  2  0
 11 19  1  0
 13  9  1  0
 15 14  1  0
 16 15  1  0
 16 17  1  1
 18 16  1  0
 18 20  1  0
 18 19  1  6
 20 21  1  0
 22 20  2  0
M  END
$$$$
