ADI.pdb
     RDKit          3D

 22 21  0  0  1  0  0  0  0  0999 V2000
    8.3482  -12.3432   19.2995 C   0  0  0  0  0  0  0  0  0  0  0  0
    8.4247  -13.8300   18.9448 C   0  0  2  0  0  0  0  0  0  0  0  0
    7.3409  -14.0764   17.9980 N   0  0  0  0  0  0  0  0  0  0  0  0
    8.2528  -14.6695   20.1584 C   0  0  0  0  0  0  0  0  0  0  0  0
    7.0797  -14.9357   20.5500 O   0  0  0  0  0  0  0  0  0  0  0  0
    9.3235  -15.1935   20.9087 N   0  0  0  0  0  0  0  0  0  0  0  0
    9.0157  -16.0842   22.0804 C   0  0  1  0  0  0  0  0  0  0  0  0
   10.0938  -17.1370   21.9596 C   0  0  0  0  0  0  0  0  0  0  0  0
    9.8505  -18.2923   21.1413 C   0  0  0  0  0  0  0  0  0  0  0  0
    8.8098  -18.6751   20.5780 O   0  0  0  0  0  0  0  0  0  0  0  0
    9.2237  -15.3092   23.3052 C   0  0  0  0  0  0  0  0  0  0  0  0
   10.3313  -14.6567   23.4090 O   0  0  0  0  0  0  0  0  0  0  0  0
   10.9614  -19.1584   20.9216 O   0  0  0  0  0  0  0  0  0  0  0  0
    5.8561  -12.3275   27.0957 C   0  0  0  0  0  0  0  0  0  0  0  0
    6.4728  -13.3875   26.2653 C   0  0  0  0  0  0  0  0  0  0  0  0
    7.8557  -13.1497   25.7758 C   0  0  2  0  0  0  0  0  0  0  0  0
    7.9088  -12.1842   24.5981 C   0  0  0  0  0  0  0  0  0  0  0  0
    8.7071  -14.3565   25.5790 C   0  0  2  0  0  0  0  0  0  0  0  0
    8.3784  -15.1558   24.4165 N   0  0  0  0  0  0  0  0  0  0  0  0
    8.6038  -15.2088   26.7921 C   0  0  0  0  0  0  0  0  0  0  0  0
    8.0070  -16.4589   26.7821 O   0  0  0  0  0  0  0  0  0  0  0  0
    9.0664  -14.8168   27.9014 O   0  0  0  0  0  0  0  0  0  0  0  0
  2  1  1  1
  2  3  1  0
  4  2  1  0
  5  4  2  0
  6  4  1  0
  7  6  1  0
  7 11  1  0
  7  8  1  1
  9 10  2  0
  9  8  1  0
 11 12  2  0
 11 19  1  0
 13  9  1  0
 15 14  1  0
 16 15  1  0
 16 17  1  6
 18 16  1  0
 18 20  1  0
 18 19  1  6
 20 21  1  0
 22 20  2  0
M  END
$$$$
