ADI.pdb
     RDKit          3D

 22 21  0  0  1  0  0  0  0  0999 V2000
    7.2180  -13.2051   18.7182 C   0  0  0  0  0  0  0  0  0  0  0  0
    8.3788  -13.1443   19.7138 C   0  0  2  0  0  0  0  0  0  0  0  0
    9.5858  -13.4378   18.9466 N   0  0  0  0  0  0  0  0  0  0  0  0
    8.1965  -14.1464   20.7955 C   0  0  0  0  0  0  0  0  0  0  0  0
    7.1257  -14.1236   21.4685 O   0  0  0  0  0  0  0  0  0  0  0  0
    9.1497  -15.1304   21.1229 N   0  0  0  0  0  0  0  0  0  0  0  0
    8.8292  -16.1089   22.2187 C   0  0  1  0  0  0  0  0  0  0  0  0
    9.8389  -17.2039   21.9599 C   0  0  0  0  0  0  0  0  0  0  0  0
    9.6153  -18.1146   20.8718 C   0  0  0  0  0  0  0  0  0  0  0  0
    8.5667  -18.4095   20.2715 O   0  0  0  0  0  0  0  0  0  0  0  0
    9.1232  -15.4653   23.5007 C   0  0  0  0  0  0  0  0  0  0  0  0
   10.2572  -14.8610   23.6106 O   0  0  0  0  0  0  0  0  0  0  0  0
   10.7603  -18.8065   20.3792 O   0  0  0  0  0  0  0  0  0  0  0  0
    5.8847  -12.1058   26.0426 C   0  0  0  0  0  0  0  0  0  0  0  0
    6.9953  -12.9231   25.5024 C   0  0  0  0  0  0  0  0  0  0  0  0
    7.7209  -13.8006   26.4575 C   0  0  2  0  0  0  0  0  0  0  0  0
    8.2212  -13.0516   27.6866 C   0  0  0  0  0  0  0  0  0  0  0  0
    8.7441  -14.7135   25.8746 C   0  0  2  0  0  0  0  0  0  0  0  0
    8.3379  -15.3961   24.6632 N   0  0  0  0  0  0  0  0  0  0  0  0
    9.1079  -15.7280   26.8980 C   0  0  0  0  0  0  0  0  0  0  0  0
   10.1354  -15.5406   27.8081 O   0  0  0  0  0  0  0  0  0  0  0  0
    8.4803  -16.8226   26.9779 O   0  0  0  0  0  0  0  0  0  0  0  0
  2  1  1  6
  2  3  1  0
  4  2  1  0
  5  4  2  0
  6  4  1  0
  7  6  1  0
  7 11  1  0
  7  8  1  6
  9 10  2  0
  9  8  1  0
 11 12  2  0
 11 19  1  0
 13  9  1  0
 15 14  1  0
 16 15  1  0
 16 17  1  1
 18 16  1  0
 18 20  1  0
 18 19  1  6
 20 21  1  0
 22 20  2  0
M  END
$$$$
