ADI.pdb
     RDKit          3D

 22 21  0  0  1  0  0  0  0  0999 V2000
    7.4816  -17.9883   18.0823 C   0  0  0  0  0  0  0  0  0  0  0  0
    8.2934  -17.0813   19.0100 C   0  0  2  0  0  0  0  0  0  0  0  0
    9.6221  -17.6798   19.1000 N   0  0  0  0  0  0  0  0  0  0  0  0
    7.6662  -17.0084   20.3548 C   0  0  0  0  0  0  0  0  0  0  0  0
    6.5244  -16.4747   20.4629 O   0  0  0  0  0  0  0  0  0  0  0  0
    8.2678  -17.5008   21.5294 N   0  0  0  0  0  0  0  0  0  0  0  0
    7.5030  -17.4170   22.8214 C   0  0  1  0  0  0  0  0  0  0  0  0
    7.9016  -18.7075   23.5003 C   0  0  0  0  0  0  0  0  0  0  0  0
    7.1888  -19.9126   23.1791 C   0  0  0  0  0  0  0  0  0  0  0  0
    5.9712  -20.1093   23.0187 O   0  0  0  0  0  0  0  0  0  0  0  0
    8.0254  -16.2813   23.5839 C   0  0  0  0  0  0  0  0  0  0  0  0
    9.3057  -16.1285   23.6111 O   0  0  0  0  0  0  0  0  0  0  0  0
    7.9765  -21.0889   23.0111 O   0  0  0  0  0  0  0  0  0  0  0  0
    6.8707  -10.8246   26.5170 C   0  0  0  0  0  0  0  0  0  0  0  0
    7.7188  -11.9956   26.1965 C   0  0  0  0  0  0  0  0  0  0  0  0
    7.0866  -13.1057   25.4372 C   0  0  2  0  0  0  0  0  0  0  0  0
    5.7606  -13.5546   26.0391 C   0  0  0  0  0  0  0  0  0  0  0  0
    7.9726  -14.2442   25.0644 C   0  0  2  0  0  0  0  0  0  0  0  0
    7.3297  -15.2992   24.3080 N   0  0  0  0  0  0  0  0  0  0  0  0
    8.5426  -14.8245   26.3082 C   0  0  0  0  0  0  0  0  0  0  0  0
    9.6643  -14.3046   26.9332 O   0  0  0  0  0  0  0  0  0  0  0  0
    8.0142  -15.8352   26.8538 O   0  0  0  0  0  0  0  0  0  0  0  0
  2  1  1  6
  2  3  1  0
  4  2  1  0
  5  4  2  0
  6  4  1  0
  7  6  1  0
  7 11  1  0
  7  8  1  1
  9 10  2  0
  9  8  1  0
 11 12  2  0
 11 19  1  0
 13  9  1  0
 15 14  1  0
 16 15  1  0
 16 17  1  1
 18 16  1  0
 18 20  1  0
 18 19  1  1
 20 21  1  0
 22 20  2  0
M  END
$$$$
