ADI.pdb
     RDKit          3D

 22 21  0  0  1  0  0  0  0  0999 V2000
    7.4920  -20.4328   21.4426 C   0  0  0  0  0  0  0  0  0  0  0  0
    7.3407  -19.3179   22.4801 C   0  0  2  0  0  0  0  0  0  0  0  0
    6.4733  -18.3135   21.8713 N   0  0  0  0  0  0  0  0  0  0  0  0
    8.6625  -18.7269   22.8133 C   0  0  0  0  0  0  0  0  0  0  0  0
    9.4948  -19.4284   23.4579 O   0  0  0  0  0  0  0  0  0  0  0  0
    9.0523  -17.4221   22.4535 N   0  0  0  0  0  0  0  0  0  0  0  0
   10.3874  -16.9130   22.9219 C   0  0  1  0  0  0  0  0  0  0  0  0
   10.9023  -16.2132   21.6847 C   0  0  0  0  0  0  0  0  0  0  0  0
   11.4840  -16.9981   20.6316 C   0  0  0  0  0  0  0  0  0  0  0  0
   10.9704  -17.8493   19.8843 O   0  0  0  0  0  0  0  0  0  0  0  0
   10.1509  -15.9276   23.9788 C   0  0  0  0  0  0  0  0  0  0  0  0
   11.1544  -15.2064   24.3476 O   0  0  0  0  0  0  0  0  0  0  0  0
   12.8716  -16.7903   20.3791 O   0  0  0  0  0  0  0  0  0  0  0  0
    6.5065  -11.7701   26.7074 C   0  0  0  0  0  0  0  0  0  0  0  0
    7.6248  -12.7381   26.7829 C   0  0  0  0  0  0  0  0  0  0  0  0
    7.7093  -13.7647   25.7116 C   0  0  2  0  0  0  0  0  0  0  0  0
    6.3902  -14.4931   25.4846 C   0  0  0  0  0  0  0  0  0  0  0  0
    8.8811  -14.6834   25.7632 C   0  0  2  0  0  0  0  0  0  0  0  0
    8.9653  -15.6317   24.6714 N   0  0  0  0  0  0  0  0  0  0  0  0
    8.8368  -15.4319   27.0464 C   0  0  0  0  0  0  0  0  0  0  0  0
    9.1422  -14.8494   28.2656 O   0  0  0  0  0  0  0  0  0  0  0  0
    8.5119  -16.6534   27.0739 O   0  0  0  0  0  0  0  0  0  0  0  0
  2  1  1  6
  2  3  1  0
  4  2  1  0
  5  4  2  0
  6  4  1  0
  7  6  1  0
  7 11  1  0
  7  8  1  6
  9 10  2  0
  9  8  1  0
 11 12  2  0
 11 19  1  0
 13  9  1  0
 15 14  1  0
 16 15  1  0
 16 17  1  1
 18 16  1  0
 18 20  1  0
 18 19  1  6
 20 21  1  0
 22 20  2  0
M  END
$$$$
