ADI.pdb
     RDKit          3D

 22 21  0  0  1  0  0  0  0  0999 V2000
    7.2424  -12.9164   18.7245 C   0  0  0  0  0  0  0  0  0  0  0  0
    8.4319  -13.1854   19.6492 C   0  0  2  0  0  0  0  0  0  0  0  0
    9.4718  -13.7739   18.8102 N   0  0  0  0  0  0  0  0  0  0  0  0
    8.0509  -14.1238   20.7362 C   0  0  0  0  0  0  0  0  0  0  0  0
    7.0863  -13.8142   21.4937 O   0  0  0  0  0  0  0  0  0  0  0  0
    8.7018  -15.3490   20.9797 N   0  0  0  0  0  0  0  0  0  0  0  0
    8.2269  -16.2037   22.1220 C   0  0  1  0  0  0  0  0  0  0  0  0
    8.9677  -17.4970   21.8687 C   0  0  0  0  0  0  0  0  0  0  0  0
    8.5450  -18.3413   20.7861 C   0  0  0  0  0  0  0  0  0  0  0  0
    7.4177  -18.7841   20.5034 O   0  0  0  0  0  0  0  0  0  0  0  0
    8.7057  -15.6014   23.3678 C   0  0  0  0  0  0  0  0  0  0  0  0
    9.9205  -15.1687   23.3845 O   0  0  0  0  0  0  0  0  0  0  0  0
    9.5582  -18.7547   19.8724 O   0  0  0  0  0  0  0  0  0  0  0  0
    5.8510  -12.0650   26.2028 C   0  0  0  0  0  0  0  0  0  0  0  0
    6.9195  -12.8633   25.5590 C   0  0  0  0  0  0  0  0  0  0  0  0
    7.6947  -13.7875   26.4271 C   0  0  2  0  0  0  0  0  0  0  0  0
    8.3598  -13.0790   27.6008 C   0  0  0  0  0  0  0  0  0  0  0  0
    8.6020  -14.7451   25.7342 C   0  0  2  0  0  0  0  0  0  0  0  0
    8.0275  -15.4103   24.5828 N   0  0  0  0  0  0  0  0  0  0  0  0
    9.0385  -15.7735   26.7142 C   0  0  0  0  0  0  0  0  0  0  0  0
   10.1126  -15.5873   27.5690 O   0  0  0  0  0  0  0  0  0  0  0  0
    8.4334  -16.8797   26.8064 O   0  0  0  0  0  0  0  0  0  0  0  0
  2  1  1  6
  2  3  1  0
  4  2  1  0
  5  4  2  0
  6  4  1  0
  7  6  1  0
  7 11  1  0
  7  8  1  6
  9 10  2  0
  9  8  1  0
 11 12  2  0
 11 19  1  0
 13  9  1  0
 15 14  1  0
 16 15  1  0
 16 17  1  1
 18 16  1  0
 18 20  1  0
 18 19  1  6
 20 21  1  0
 22 20  2  0
M  END
$$$$
