ADI.pdb
     RDKit          3D

 22 21  0  0  1  0  0  0  0  0999 V2000
    8.0965  -12.1586   19.5121 C   0  0  0  0  0  0  0  0  0  0  0  0
    8.3123  -13.6192   19.1091 C   0  0  2  0  0  0  0  0  0  0  0  0
    7.3157  -13.9069   18.0816 N   0  0  0  0  0  0  0  0  0  0  0  0
    8.1271  -14.5194   20.2764 C   0  0  0  0  0  0  0  0  0  0  0  0
    6.9501  -14.8208   20.6285 O   0  0  0  0  0  0  0  0  0  0  0  0
    9.1893  -15.0644   21.0239 N   0  0  0  0  0  0  0  0  0  0  0  0
    8.8688  -15.9989   22.1574 C   0  0  1  0  0  0  0  0  0  0  0  0
    9.8705  -17.1091   21.9349 C   0  0  0  0  0  0  0  0  0  0  0  0
    9.9037  -18.2120   22.8548 C   0  0  0  0  0  0  0  0  0  0  0  0
   10.7564  -19.1037   23.0120 O   0  0  0  0  0  0  0  0  0  0  0  0
    9.1735  -15.3093   23.4127 C   0  0  0  0  0  0  0  0  0  0  0  0
   10.3200  -14.7253   23.5012 O   0  0  0  0  0  0  0  0  0  0  0  0
    8.7948  -18.3298   23.7429 O   0  0  0  0  0  0  0  0  0  0  0  0
    5.7717  -12.4232   26.9375 C   0  0  0  0  0  0  0  0  0  0  0  0
    6.5670  -13.5547   26.4080 C   0  0  0  0  0  0  0  0  0  0  0  0
    8.0129  -13.3140   26.1629 C   0  0  2  0  0  0  0  0  0  0  0  0
    8.2692  -12.0983   25.2807 C   0  0  0  0  0  0  0  0  0  0  0  0
    8.8266  -14.4996   25.7724 C   0  0  2  0  0  0  0  0  0  0  0  0
    8.3872  -15.1753   24.5688 N   0  0  0  0  0  0  0  0  0  0  0  0
    8.8161  -15.4697   26.8983 C   0  0  0  0  0  0  0  0  0  0  0  0
    8.2592  -16.7338   26.7943 O   0  0  0  0  0  0  0  0  0  0  0  0
    9.3256  -15.1713   28.0162 O   0  0  0  0  0  0  0  0  0  0  0  0
  2  1  1  1
  2  3  1  0
  4  2  1  0
  5  4  2  0
  6  4  1  0
  7  6  1  0
  7 11  1  0
  7  8  1  6
  9 10  2  0
  9  8  1  0
 11 12  2  0
 11 19  1  0
 13  9  1  0
 15 14  1  0
 16 15  1  0
 16 17  1  6
 18 16  1  0
 18 20  1  0
 18 19  1  6
 20 21  1  0
 22 20  2  0
M  END
$$$$
