QMY.pdb
     RDKit          3D

 30 30  0  0  1  0  0  0  0  0999 V2000
   22.6483  -10.8433  -16.5050 N   0  0  0  0  0  0  0  0  0  0  0  0
   22.5425  -12.0039  -17.3486 C   0  0  0  0  0  0  0  0  0  0  0  0
   23.4856  -12.7917  -17.5141 O   0  0  0  0  0  0  0  0  0  0  0  0
   21.2486  -12.2199  -18.0169 C   0  0  0  0  0  0  0  0  0  0  0  0
   20.3008  -11.1246  -17.6090 C   0  0  0  0  0  0  0  0  0  0  0  0
   19.3470  -11.5484  -16.5173 C   0  0  2  0  0  0  0  0  0  0  0  0
   18.5282  -12.6311  -17.0010 N   0  0  0  0  0  0  0  0  0  0  0  0
   18.5613  -10.4054  -16.0369 C   0  0  0  0  0  0  0  0  0  0  0  0
   17.5676   -9.9510  -16.6536 O   0  0  0  0  0  0  0  0  0  0  0  0
   15.3541  -10.6159  -10.1540 C   0  0  0  0  0  0  0  0  0  0  0  0
   16.9042   -9.7558  -10.5644 S   0  0  0  0  0  0  0  0  0  0  0  0
   16.9255   -9.5180  -12.3712 C   0  0  0  0  0  0  0  0  0  0  0  0
   18.1014   -8.7173  -12.8128 C   0  0  0  0  0  0  0  0  0  0  0  0
   18.1279   -8.6461  -14.3188 C   0  0  2  0  0  0  0  0  0  0  0  0
   18.9096   -9.7531  -14.8184 N   0  0  0  0  0  0  0  0  0  0  0  0
   18.7791   -7.3700  -14.7060 C   0  0  0  0  0  0  0  0  0  0  0  0
   20.0440   -7.2348  -14.6232 O   0  0  0  0  0  0  0  0  0  0  0  0
   20.9844   -0.5002  -19.2882 O   0  0  0  0  0  0  0  0  0  0  0  0
   20.5157   -1.6842  -18.6961 C   0  0  0  0  0  0  0  0  0  0  0  0
   20.8643   -2.0058  -17.3997 C   0  0  0  0  0  0  0  0  0  0  0  0
   20.3819   -3.1791  -16.8558 C   0  0  0  0  0  0  0  0  0  0  0  0
   19.5573   -4.0117  -17.6201 C   0  0  0  0  0  0  0  0  0  0  0  0
   19.0737   -5.2397  -16.9999 C   0  0  0  0  0  0  0  0  0  0  0  0
   18.6388   -5.0661  -15.5653 C   0  0  2  0  0  0  0  0  0  0  0  0
   17.9821   -6.2894  -15.1735 N   0  0  0  0  0  0  0  0  0  0  0  0
   17.7722   -3.9059  -15.3607 C   0  0  0  0  0  0  0  0  0  0  0  0
   18.2824   -2.6572  -15.1023 O   0  0  0  0  0  0  0  0  0  0  0  0
   19.2051   -3.6988  -18.9123 C   0  0  0  0  0  0  0  0  0  0  0  0
   19.6959   -2.5227  -19.4404 C   0  0  0  0  0  0  0  0  0  0  0  0
   16.5271   -4.0550  -15.4227 O   0  0  0  0  0  0  0  0  0  0  0  0
  2  4  1  0
  2  1  1  0
  3  2  2  0
  5  6  1  0
  5  4  1  0
  6  7  1  6
  8 15  1  0
  8  6  1  0
  9  8  2  0
 10 11  1  0
 11 12  1  0
 12 13  1  0
 14 15  1  0
 14 13  1  1
 16 14  1  0
 17 16  2  0
 18 19  1  0
 19 20  2  0
 19 29  1  0
 20 21  1  0
 21 22  2  0
 22 23  1  0
 24 23  1  6
 24 25  1  0
 25 16  1  0
 26 27  1  0
 26 24  1  0
 28 22  1  0
 29 28  2  0
 30 26  2  0
M  END
$$$$
