QMY.pdb
     RDKit          3D

 30 30  0  0  1  0  0  0  0  0999 V2000
   24.9981  -19.5361  -20.8348 N   0  0  0  0  0  0  0  0  0  0  0  0
   24.6386  -19.7463  -22.2120 C   0  0  0  0  0  0  0  0  0  0  0  0
   25.3843  -20.3337  -23.0098 O   0  0  0  0  0  0  0  0  0  0  0  0
   23.3293  -19.2271  -22.6403 C   0  0  0  0  0  0  0  0  0  0  0  0
   22.6865  -18.5120  -21.4828 C   0  0  0  0  0  0  0  0  0  0  0  0
   21.3444  -17.9143  -21.8328 C   0  0  2  0  0  0  0  0  0  0  0  0
   21.4218  -17.3156  -23.1412 N   0  0  0  0  0  0  0  0  0  0  0  0
   20.9054  -16.9723  -20.7961 C   0  0  0  0  0  0  0  0  0  0  0  0
   20.6925  -17.3137  -19.6077 O   0  0  0  0  0  0  0  0  0  0  0  0
   20.0325   -9.4134  -18.8494 C   0  0  0  0  0  0  0  0  0  0  0  0
   20.3214  -10.5382  -20.2502 S   0  0  0  0  0  0  0  0  0  0  0  0
   20.2693  -12.2380  -19.5948 C   0  0  0  0  0  0  0  0  0  0  0  0
   20.5611  -13.2495  -20.6486 C   0  0  0  0  0  0  0  0  0  0  0  0
   20.3945  -14.6357  -20.0791 C   0  0  2  0  0  0  0  0  0  0  0  0
   20.6997  -15.5978  -21.1122 N   0  0  0  0  0  0  0  0  0  0  0  0
   18.9786  -14.7934  -19.6633 C   0  0  0  0  0  0  0  0  0  0  0  0
   18.0964  -15.1843  -20.4965 O   0  0  0  0  0  0  0  0  0  0  0  0
   11.6804  -17.3730  -16.4307 O   0  0  0  0  0  0  0  0  0  0  0  0
   12.9737  -17.0488  -16.8715 C   0  0  0  0  0  0  0  0  0  0  0  0
   13.1714  -16.5018  -18.1235 C   0  0  0  0  0  0  0  0  0  0  0  0
   14.4588  -16.1979  -18.5176 C   0  0  0  0  0  0  0  0  0  0  0  0
   15.5280  -16.4471  -17.6504 C   0  0  0  0  0  0  0  0  0  0  0  0
   16.8687  -16.1084  -18.1137 C   0  0  0  0  0  0  0  0  0  0  0  0
   17.2203  -14.6507  -17.9444 C   0  0  2  0  0  0  0  0  0  0  0  0
   18.6050  -14.5051  -18.3221 N   0  0  0  0  0  0  0  0  0  0  0  0
   16.9811  -14.1521  -16.5905 C   0  0  0  0  0  0  0  0  0  0  0  0
   15.7392  -13.7305  -16.1827 O   0  0  0  0  0  0  0  0  0  0  0  0
   15.3399  -16.9918  -16.4016 C   0  0  0  0  0  0  0  0  0  0  0  0
   14.0470  -17.2895  -16.0236 C   0  0  0  0  0  0  0  0  0  0  0  0
   17.9373  -14.1080  -15.7780 O   0  0  0  0  0  0  0  0  0  0  0  0
  2  4  1  0
  2  1  1  0
  3  2  2  0
  5  6  1  0
  5  4  1  0
  6  7  1  6
  8 15  1  0
  8  6  1  0
  9  8  2  0
 10 11  1  0
 11 12  1  0
 12 13  1  0
 14 15  1  0
 14 13  1  6
 16 14  1  0
 17 16  2  0
 18 19  1  0
 19 20  2  0
 19 29  1  0
 20 21  1  0
 21 22  2  0
 22 23  1  0
 24 23  1  1
 24 25  1  0
 25 16  1  0
 26 27  1  0
 26 24  1  0
 28 22  1  0
 29 28  2  0
 30 26  2  0
M  END
$$$$
