QMY.pdb
     RDKit          3D

 30 30  0  0  1  0  0  0  0  0999 V2000
   29.3368  -19.7452  -17.9523 N   0  0  0  0  0  0  0  0  0  0  0  0
   28.9261  -18.4731  -17.4205 C   0  0  0  0  0  0  0  0  0  0  0  0
   29.5548  -17.4274  -17.6420 O   0  0  0  0  0  0  0  0  0  0  0  0
   27.7104  -18.4648  -16.5903 C   0  0  0  0  0  0  0  0  0  0  0  0
   27.1016  -19.8408  -16.6042 C   0  0  0  0  0  0  0  0  0  0  0  0
   27.6089  -20.7198  -15.4857 C   0  0  2  0  0  0  0  0  0  0  0  0
   28.3042  -21.8481  -16.0514 N   0  0  0  0  0  0  0  0  0  0  0  0
   26.5134  -21.1111  -14.5905 C   0  0  0  0  0  0  0  0  0  0  0  0
   25.4884  -21.7160  -14.9878 O   0  0  0  0  0  0  0  0  0  0  0  0
   26.2355  -19.2562   -8.3062 C   0  0  0  0  0  0  0  0  0  0  0  0
   25.2244  -20.7673   -8.2331 S   0  0  0  0  0  0  0  0  0  0  0  0
   24.8347  -21.2373   -9.9503 C   0  0  0  0  0  0  0  0  0  0  0  0
   25.8898  -20.7908  -10.9022 C   0  0  0  0  0  0  0  0  0  0  0  0
   25.5234  -21.2193  -12.3007 C   0  0  2  0  0  0  0  0  0  0  0  0
   26.5774  -20.8090  -13.1990 N   0  0  0  0  0  0  0  0  0  0  0  0
   24.2627  -20.5318  -12.6754 C   0  0  0  0  0  0  0  0  0  0  0  0
   24.2822  -19.3401  -13.1278 O   0  0  0  0  0  0  0  0  0  0  0  0
   17.4759  -18.3826  -17.1146 O   0  0  0  0  0  0  0  0  0  0  0  0
   18.6081  -18.9023  -16.4665 C   0  0  0  0  0  0  0  0  0  0  0  0
   18.8837  -20.2542  -16.5122 C   0  0  0  0  0  0  0  0  0  0  0  0
   20.0068  -20.7236  -15.8616 C   0  0  0  0  0  0  0  0  0  0  0  0
   20.8363  -19.8302  -15.1752 C   0  0  0  0  0  0  0  0  0  0  0  0
   22.0105  -20.3757  -14.5041 C   0  0  0  0  0  0  0  0  0  0  0  0
   21.8243  -20.5763  -13.0200 C   0  0  2  0  0  0  0  0  0  0  0  0
   23.0225  -21.2111  -12.5275 N   0  0  0  0  0  0  0  0  0  0  0  0
   20.6321  -21.3553  -12.6873 C   0  0  0  0  0  0  0  0  0  0  0  0
   19.4222  -20.7561  -12.4355 O   0  0  0  0  0  0  0  0  0  0  0  0
   20.5691  -18.4819  -15.1246 C   0  0  0  0  0  0  0  0  0  0  0  0
   19.4427  -18.0297  -15.7802 C   0  0  0  0  0  0  0  0  0  0  0  0
   20.7165  -22.6067  -12.6301 O   0  0  0  0  0  0  0  0  0  0  0  0
  2  4  1  0
  2  1  1  0
  3  2  2  0
  5  6  1  0
  5  4  1  0
  6  7  1  6
  8 15  1  0
  8  6  1  0
  9  8  2  0
 10 11  1  0
 11 12  1  0
 12 13  1  0
 14 15  1  0
 14 13  1  1
 16 14  1  0
 17 16  2  0
 18 19  1  0
 19 20  2  0
 19 29  1  0
 20 21  1  0
 21 22  2  0
 22 23  1  0
 24 23  1  6
 24 25  1  0
 25 16  1  0
 26 27  1  0
 26 24  1  0
 28 22  1  0
 29 28  2  0
 30 26  2  0
M  END
$$$$
