QMY.pdb
     RDKit          3D

 30 30  0  0  1  0  0  0  0  0999 V2000
   25.8455  -32.9274   -6.7541 N   0  0  0  0  0  0  0  0  0  0  0  0
   25.5081  -33.0205   -8.1495 C   0  0  0  0  0  0  0  0  0  0  0  0
   24.9505  -32.0964   -8.7601 O   0  0  0  0  0  0  0  0  0  0  0  0
   25.8578  -34.2771   -8.8320 C   0  0  0  0  0  0  0  0  0  0  0  0
   26.5140  -35.2022   -7.8432 C   0  0  0  0  0  0  0  0  0  0  0  0
   27.8504  -35.7202   -8.3194 C   0  0  2  0  0  0  0  0  0  0  0  0
   27.6331  -36.7588   -9.2943 N   0  0  0  0  0  0  0  0  0  0  0  0
   28.6744  -36.1598   -7.1869 C   0  0  0  0  0  0  0  0  0  0  0  0
   28.3925  -37.1598   -6.4835 O   0  0  0  0  0  0  0  0  0  0  0  0
   35.4140  -35.2810   -3.2836 C   0  0  0  0  0  0  0  0  0  0  0  0
   34.2647  -34.4075   -4.3912 S   0  0  0  0  0  0  0  0  0  0  0  0
   32.7794  -35.4508   -4.5566 C   0  0  0  0  0  0  0  0  0  0  0  0
   31.8731  -34.9613   -5.6325 C   0  0  0  0  0  0  0  0  0  0  0  0
   30.6301  -35.8140   -5.6735 C   0  0  2  0  0  0  0  0  0  0  0  0
   29.8571  -35.4456   -6.8367 N   0  0  0  0  0  0  0  0  0  0  0  0
   29.8404  -35.5324   -4.4490 C   0  0  0  0  0  0  0  0  0  0  0  0
   28.8095  -34.7841   -4.4985 O   0  0  0  0  0  0  0  0  0  0  0  0
   23.1020  -34.7254   -1.5675 O   0  0  0  0  0  0  0  0  0  0  0  0
   24.3565  -35.2882   -1.8531 C   0  0  0  0  0  0  0  0  0  0  0  0
   24.8081  -35.3708   -3.1550 C   0  0  0  0  0  0  0  0  0  0  0  0
   26.0470  -35.9312   -3.3919 C   0  0  0  0  0  0  0  0  0  0  0  0
   26.8140  -36.4001   -2.3199 C   0  0  0  0  0  0  0  0  0  0  0  0
   28.1157  -36.9835   -2.6227 C   0  0  0  0  0  0  0  0  0  0  0  0
   29.2806  -36.1581   -2.1335 C   0  0  2  0  0  0  0  0  0  0  0  0
   30.2396  -36.1040   -3.2099 N   0  0  0  0  0  0  0  0  0  0  0  0
   29.8835  -36.6793   -0.9072 C   0  0  0  0  0  0  0  0  0  0  0  0
   29.5627  -36.1743    0.3291 O   0  0  0  0  0  0  0  0  0  0  0  0
   26.3716  -36.3216   -1.0199 C   0  0  0  0  0  0  0  0  0  0  0  0
   25.1313  -35.7588   -0.8009 C   0  0  0  0  0  0  0  0  0  0  0  0
   30.7176  -37.6144   -0.9863 O   0  0  0  0  0  0  0  0  0  0  0  0
  2  4  1  0
  2  1  1  0
  3  2  2  0
  5  6  1  0
  5  4  1  0
  6  7  1  6
  8 15  1  0
  8  6  1  0
  9  8  2  0
 10 11  1  0
 11 12  1  0
 12 13  1  0
 14 15  1  0
 14 13  1  1
 16 14  1  0
 17 16  2  0
 18 19  1  0
 19 20  2  0
 19 29  1  0
 20 21  1  0
 21 22  2  0
 22 23  1  0
 24 23  1  6
 24 25  1  0
 25 16  1  0
 26 27  1  0
 26 24  1  0
 28 22  1  0
 29 28  2  0
 30 26  2  0
M  END
$$$$
