QMY.pdb
     RDKit          3D

 30 30  0  0  1  0  0  0  0  0999 V2000
   24.7878  -23.0486  -15.8727 N   0  0  0  0  0  0  0  0  0  0  0  0
   25.7466  -22.1247  -16.4178 C   0  0  0  0  0  0  0  0  0  0  0  0
   25.5518  -21.5171  -17.4810 O   0  0  0  0  0  0  0  0  0  0  0  0
   26.9866  -21.9283  -15.6491 C   0  0  0  0  0  0  0  0  0  0  0  0
   26.7346  -22.3036  -14.2138 C   0  0  0  0  0  0  0  0  0  0  0  0
   26.1353  -21.1759  -13.4074 C   0  0  2  0  0  0  0  0  0  0  0  0
   26.9540  -20.0000  -13.5607 N   0  0  0  0  0  0  0  0  0  0  0  0
   25.9580  -21.5726  -12.0053 C   0  0  0  0  0  0  0  0  0  0  0  0
   25.3002  -22.5832  -11.6584 O   0  0  0  0  0  0  0  0  0  0  0  0
   27.4091  -20.3218   -4.4232 C   0  0  0  0  0  0  0  0  0  0  0  0
   27.9954  -19.9314   -6.1009 S   0  0  0  0  0  0  0  0  0  0  0  0
   26.7089  -20.4912   -7.2642 C   0  0  0  0  0  0  0  0  0  0  0  0
   27.1385  -20.3413   -8.6826 C   0  0  0  0  0  0  0  0  0  0  0  0
   26.0991  -20.9460   -9.5924 C   0  0  2  0  0  0  0  0  0  0  0  0
   26.5435  -20.8018  -10.9591 N   0  0  0  0  0  0  0  0  0  0  0  0
   24.8330  -20.1947   -9.4052 C   0  0  0  0  0  0  0  0  0  0  0  0
   24.8387  -18.9226   -9.3215 O   0  0  0  0  0  0  0  0  0  0  0  0
   18.3315  -17.7831  -14.0513 O   0  0  0  0  0  0  0  0  0  0  0  0
   19.4353  -18.3151  -13.3652 C   0  0  0  0  0  0  0  0  0  0  0  0
   20.1780  -19.3389  -13.9182 C   0  0  0  0  0  0  0  0  0  0  0  0
   21.2551  -19.8328  -13.2104 C   0  0  0  0  0  0  0  0  0  0  0  0
   21.5708  -19.2926  -11.9590 C   0  0  0  0  0  0  0  0  0  0  0  0
   22.7180  -19.8491  -11.2513 C   0  0  0  0  0  0  0  0  0  0  0  0
   22.4100  -20.2806   -9.8384 C   0  0  2  0  0  0  0  0  0  0  0  0
   23.6033  -20.9028   -9.3187 N   0  0  0  0  0  0  0  0  0  0  0  0
   21.2574  -21.1761   -9.7460 C   0  0  0  0  0  0  0  0  0  0  0  0
   19.9755  -20.6973   -9.6292 O   0  0  0  0  0  0  0  0  0  0  0  0
   20.8361  -18.2726  -11.4008 C   0  0  0  0  0  0  0  0  0  0  0  0
   19.7631  -17.7908  -12.1216 C   0  0  0  0  0  0  0  0  0  0  0  0
   21.4446  -22.4173   -9.7742 O   0  0  0  0  0  0  0  0  0  0  0  0
  2  4  1  0
  2  1  1  0
  3  2  2  0
  5  6  1  0
  5  4  1  0
  6  7  1  1
  8 15  1  0
  8  6  1  0
  9  8  2  0
 10 11  1  0
 11 12  1  0
 12 13  1  0
 14 15  1  0
 14 13  1  1
 16 14  1  0
 17 16  2  0
 18 19  1  0
 19 20  2  0
 19 29  1  0
 20 21  1  0
 21 22  2  0
 22 23  1  0
 24 23  1  6
 24 25  1  0
 25 16  1  0
 26 27  1  0
 26 24  1  0
 28 22  1  0
 29 28  2  0
 30 26  2  0
M  END
$$$$
