QMY.pdb
     RDKit          3D

 30 30  0  0  1  0  0  0  0  0999 V2000
   23.0322  -14.2265  -19.2928 N   0  0  0  0  0  0  0  0  0  0  0  0
   21.8668  -14.6274  -18.5505 C   0  0  0  0  0  0  0  0  0  0  0  0
   21.6036  -15.8173  -18.3211 O   0  0  0  0  0  0  0  0  0  0  0  0
   20.9873  -13.5501  -18.0678 C   0  0  0  0  0  0  0  0  0  0  0  0
   21.5669  -12.2251  -18.4833 C   0  0  0  0  0  0  0  0  0  0  0  0
   20.6725  -11.0579  -18.1388 C   0  0  2  0  0  0  0  0  0  0  0  0
   19.7853  -10.8014  -19.2450 N   0  0  0  0  0  0  0  0  0  0  0  0
   21.4679   -9.8845  -17.7576 C   0  0  0  0  0  0  0  0  0  0  0  0
   22.4117   -9.9368  -16.9326 O   0  0  0  0  0  0  0  0  0  0  0  0
   21.8436   -5.7791  -22.2451 C   0  0  0  0  0  0  0  0  0  0  0  0
   23.4633   -6.0318  -21.4554 S   0  0  0  0  0  0  0  0  0  0  0  0
   23.1887   -7.0747  -19.9862 C   0  0  0  0  0  0  0  0  0  0  0  0
   22.1031   -6.5385  -19.1187 C   0  0  0  0  0  0  0  0  0  0  0  0
   21.9247   -7.4351  -17.9195 C   0  0  2  0  0  0  0  0  0  0  0  0
   21.1878   -8.6084  -18.3274 N   0  0  0  0  0  0  0  0  0  0  0  0
   21.1404   -6.6906  -16.9031 C   0  0  0  0  0  0  0  0  0  0  0  0
   19.8703   -6.6188  -16.9871 O   0  0  0  0  0  0  0  0  0  0  0  0
   17.6080   -5.7483   -9.3395 O   0  0  0  0  0  0  0  0  0  0  0  0
   18.2928   -6.0198  -10.5350 C   0  0  0  0  0  0  0  0  0  0  0  0
   19.1394   -7.1063  -10.6271 C   0  0  0  0  0  0  0  0  0  0  0  0
   19.7932   -7.3373  -11.8205 C   0  0  0  0  0  0  0  0  0  0  0  0
   19.5880   -6.4753  -12.9032 C   0  0  0  0  0  0  0  0  0  0  0  0
   20.3019   -6.7624  -14.1420 C   0  0  0  0  0  0  0  0  0  0  0  0
   21.0350   -5.5724  -14.7111 C   0  0  2  0  0  0  0  0  0  0  0  0
   21.8144   -6.0521  -15.8263 N   0  0  0  0  0  0  0  0  0  0  0  0
   21.8743   -4.8870  -13.7289 C   0  0  0  0  0  0  0  0  0  0  0  0
   23.1819   -5.2487  -13.5151 O   0  0  0  0  0  0  0  0  0  0  0  0
   18.7463   -5.3907  -12.8200 C   0  0  0  0  0  0  0  0  0  0  0  0
   18.1010   -5.1745  -11.6201 C   0  0  0  0  0  0  0  0  0  0  0  0
   21.3863   -3.9415  -13.0624 O   0  0  0  0  0  0  0  0  0  0  0  0
  2  4  1  0
  2  1  1  0
  3  2  2  0
  5  6  1  0
  5  4  1  0
  6  7  1  6
  8 15  1  0
  8  6  1  0
  9  8  2  0
 10 11  1  0
 11 12  1  0
 12 13  1  0
 14 15  1  0
 14 13  1  6
 16 14  1  0
 17 16  2  0
 18 19  1  0
 19 20  2  0
 19 29  1  0
 20 21  1  0
 21 22  2  0
 22 23  1  0
 24 23  1  1
 24 25  1  0
 25 16  1  0
 26 27  1  0
 26 24  1  0
 28 22  1  0
 29 28  2  0
 30 26  2  0
M  END
$$$$
