QMY.pdb
     RDKit          3D

 30 30  0  0  1  0  0  0  0  0999 V2000
   18.7009  -12.1896  -15.7424 N   0  0  0  0  0  0  0  0  0  0  0  0
   18.8966  -13.0130  -16.9059 C   0  0  0  0  0  0  0  0  0  0  0  0
   18.2630  -14.0630  -17.0894 O   0  0  0  0  0  0  0  0  0  0  0  0
   19.8951  -12.5499  -17.8835 C   0  0  0  0  0  0  0  0  0  0  0  0
   20.4731  -11.2444  -17.4082 C   0  0  0  0  0  0  0  0  0  0  0  0
   21.5971  -10.7449  -18.2846 C   0  0  2  0  0  0  0  0  0  0  0  0
   22.6439  -11.7347  -18.3184 N   0  0  0  0  0  0  0  0  0  0  0  0
   22.0663   -9.4291  -17.8339 C   0  0  0  0  0  0  0  0  0  0  0  0
   22.6924   -9.2571  -16.7603 O   0  0  0  0  0  0  0  0  0  0  0  0
   23.2766   -4.1520  -21.7398 C   0  0  0  0  0  0  0  0  0  0  0  0
   22.4603   -3.4403  -20.2776 S   0  0  0  0  0  0  0  0  0  0  0  0
   22.6147   -4.6572  -18.9296 C   0  0  0  0  0  0  0  0  0  0  0  0
   22.0480   -5.9816  -19.3085 C   0  0  0  0  0  0  0  0  0  0  0  0
   22.2692   -6.9656  -18.1875 C   0  0  2  0  0  0  0  0  0  0  0  0
   21.8198   -8.2676  -18.6224 N   0  0  0  0  0  0  0  0  0  0  0  0
   21.4560   -6.5276  -17.0259 C   0  0  0  0  0  0  0  0  0  0  0  0
   20.1933   -6.7025  -17.0138 O   0  0  0  0  0  0  0  0  0  0  0  0
   18.3174   -5.8011   -9.1771 O   0  0  0  0  0  0  0  0  0  0  0  0
   19.0649   -6.0181  -10.3460 C   0  0  0  0  0  0  0  0  0  0  0  0
   18.4409   -6.0828  -11.5756 C   0  0  0  0  0  0  0  0  0  0  0  0
   19.2127   -6.2976  -12.6995 C   0  0  0  0  0  0  0  0  0  0  0  0
   20.5983   -6.4443  -12.5731 C   0  0  0  0  0  0  0  0  0  0  0  0
   21.3692   -6.6694  -13.7904 C   0  0  0  0  0  0  0  0  0  0  0  0
   21.2903   -5.5321  -14.7792 C   0  0  2  0  0  0  0  0  0  0  0  0
   22.0939   -5.9072  -15.9171 N   0  0  0  0  0  0  0  0  0  0  0  0
   21.7204   -4.2505  -14.2212 C   0  0  0  0  0  0  0  0  0  0  0  0
   20.8216   -3.3388  -13.7238 O   0  0  0  0  0  0  0  0  0  0  0  0
   21.2280   -6.3812  -11.3519 C   0  0  0  0  0  0  0  0  0  0  0  0
   20.4417   -6.1659  -10.2391 C   0  0  0  0  0  0  0  0  0  0  0  0
   22.9452   -3.9755  -14.1958 O   0  0  0  0  0  0  0  0  0  0  0  0
  2  4  1  0
  2  1  1  0
  3  2  2  0
  5  6  1  0
  5  4  1  0
  6  7  1  1
  8 15  1  0
  8  6  1  0
  9  8  2  0
 10 11  1  0
 11 12  1  0
 12 13  1  0
 14 15  1  0
 14 13  1  6
 16 14  1  0
 17 16  2  0
 18 19  1  0
 19 20  2  0
 19 29  1  0
 20 21  1  0
 21 22  2  0
 22 23  1  0
 24 23  1  1
 24 25  1  0
 25 16  1  0
 26 27  1  0
 26 24  1  0
 28 22  1  0
 29 28  2  0
 30 26  2  0
M  END
$$$$
