QMY.pdb
     RDKit          3D

 30 30  0  0  1  0  0  0  0  0999 V2000
   27.4220  -16.9070  -14.9594 N   0  0  0  0  0  0  0  0  0  0  0  0
   27.9247  -17.1930  -16.2768 C   0  0  0  0  0  0  0  0  0  0  0  0
   28.6254  -16.3882  -16.9084 O   0  0  0  0  0  0  0  0  0  0  0  0
   27.5670  -18.5003  -16.8517 C   0  0  0  0  0  0  0  0  0  0  0  0
   26.7759  -19.2791  -15.8359 C   0  0  0  0  0  0  0  0  0  0  0  0
   27.6411  -20.1596  -14.9658 C   0  0  2  0  0  0  0  0  0  0  0  0
   28.3561  -21.0909  -15.8011 N   0  0  0  0  0  0  0  0  0  0  0  0
   26.8390  -20.8188  -13.9280 C   0  0  0  0  0  0  0  0  0  0  0  0
   26.1254  -21.8262  -14.1520 O   0  0  0  0  0  0  0  0  0  0  0  0
   27.4790  -20.9660   -7.0671 C   0  0  0  0  0  0  0  0  0  0  0  0
   25.8649  -20.2731   -7.5421 S   0  0  0  0  0  0  0  0  0  0  0  0
   25.4694  -20.9180   -9.2001 C   0  0  0  0  0  0  0  0  0  0  0  0
   26.2839  -20.2620  -10.2608 C   0  0  0  0  0  0  0  0  0  0  0  0
   25.9205  -20.8378  -11.6062 C   0  0  2  0  0  0  0  0  0  0  0  0
   26.8427  -20.3233  -12.5916 N   0  0  0  0  0  0  0  0  0  0  0  0
   24.5451  -20.3911  -11.9396 C   0  0  0  0  0  0  0  0  0  0  0  0
   24.3081  -19.1698  -12.2179 O   0  0  0  0  0  0  0  0  0  0  0  0
   22.6432  -18.8772  -18.3073 O   0  0  0  0  0  0  0  0  0  0  0  0
   22.3982  -19.5619  -17.1059 C   0  0  0  0  0  0  0  0  0  0  0  0
   21.2497  -19.3163  -16.3804 C   0  0  0  0  0  0  0  0  0  0  0  0
   21.0476  -20.0111  -15.2050 C   0  0  0  0  0  0  0  0  0  0  0  0
   22.0002  -20.9412  -14.7752 C   0  0  0  0  0  0  0  0  0  0  0  0
   21.7402  -21.6491  -13.5270 C   0  0  0  0  0  0  0  0  0  0  0  0
   22.1582  -20.8837  -12.2955 C   0  0  2  0  0  0  0  0  0  0  0  0
   23.4832  -21.3365  -11.9480 N   0  0  0  0  0  0  0  0  0  0  0  0
   21.2303  -21.0391  -11.1758 C   0  0  0  0  0  0  0  0  0  0  0  0
   21.6377  -21.5321   -9.9604 O   0  0  0  0  0  0  0  0  0  0  0  0
   23.1470  -21.1919  -15.4920 C   0  0  0  0  0  0  0  0  0  0  0  0
   23.3332  -20.4890  -16.6642 C   0  0  0  0  0  0  0  0  0  0  0  0
   20.0276  -20.7130  -11.3295 O   0  0  0  0  0  0  0  0  0  0  0  0
  2  4  1  0
  2  1  1  0
  3  2  2  0
  5  6  1  0
  5  4  1  0
  6  7  1  6
  8 15  1  0
  8  6  1  0
  9  8  2  0
 10 11  1  0
 11 12  1  0
 12 13  1  0
 14 15  1  0
 14 13  1  1
 16 14  1  0
 17 16  2  0
 18 19  1  0
 19 20  2  0
 19 29  1  0
 20 21  1  0
 21 22  2  0
 22 23  1  0
 24 23  1  6
 24 25  1  0
 25 16  1  0
 26 27  1  0
 26 24  1  0
 28 22  1  0
 29 28  2  0
 30 26  2  0
M  END
$$$$
