QMY.pdb
     RDKit          3D

 30 30  0  0  1  0  0  0  0  0999 V2000
   24.7580  -10.6952  -22.2444 N   0  0  0  0  0  0  0  0  0  0  0  0
   24.5312  -12.0356  -21.7736 C   0  0  0  0  0  0  0  0  0  0  0  0
   23.3967  -12.4653  -21.5170 O   0  0  0  0  0  0  0  0  0  0  0  0
   25.7199  -12.8879  -21.6068 C   0  0  0  0  0  0  0  0  0  0  0  0
   26.9323  -12.1304  -22.0766 C   0  0  0  0  0  0  0  0  0  0  0  0
   28.1682  -12.4361  -21.2642 C   0  0  2  0  0  0  0  0  0  0  0  0
   28.0670  -13.7736  -20.7374 N   0  0  0  0  0  0  0  0  0  0  0  0
   28.3724  -11.4230  -20.2217 C   0  0  0  0  0  0  0  0  0  0  0  0
   27.9338  -11.5465  -19.0527 O   0  0  0  0  0  0  0  0  0  0  0  0
   32.5850   -5.3683  -17.7015 C   0  0  0  0  0  0  0  0  0  0  0  0
   32.2642   -6.4054  -19.1618 S   0  0  0  0  0  0  0  0  0  0  0  0
   30.7765   -7.3950  -18.8025 C   0  0  0  0  0  0  0  0  0  0  0  0
   30.5002   -8.3926  -19.8735 C   0  0  0  0  0  0  0  0  0  0  0  0
   29.2980   -9.2206  -19.4955 C   0  0  2  0  0  0  0  0  0  0  0  0
   29.0966  -10.2295  -20.5093 N   0  0  0  0  0  0  0  0  0  0  0  0
   28.1173   -8.3223  -19.4545 C   0  0  0  0  0  0  0  0  0  0  0  0
   27.2265   -8.3782  -20.3647 O   0  0  0  0  0  0  0  0  0  0  0  0
   21.0215   -4.5750  -16.5519 O   0  0  0  0  0  0  0  0  0  0  0  0
   22.2213   -5.2677  -16.7808 C   0  0  0  0  0  0  0  0  0  0  0  0
   23.3220   -5.0487  -15.9769 C   0  0  0  0  0  0  0  0  0  0  0  0
   24.4818   -5.7505  -16.2364 C   0  0  0  0  0  0  0  0  0  0  0  0
   24.5201   -6.6611  -17.2979 C   0  0  0  0  0  0  0  0  0  0  0  0
   25.7688   -7.3775  -17.5308 C   0  0  0  0  0  0  0  0  0  0  0  0
   26.7838   -6.5890  -18.3216 C   0  0  2  0  0  0  0  0  0  0  0  0
   27.9808   -7.3914  -18.3886 N   0  0  0  0  0  0  0  0  0  0  0  0
   27.0575   -5.2683  -17.7561 C   0  0  0  0  0  0  0  0  0  0  0  0
   26.2793   -4.1768  -18.0549 O   0  0  0  0  0  0  0  0  0  0  0  0
   23.4282   -6.8853  -18.1036 C   0  0  0  0  0  0  0  0  0  0  0  0
   22.2772   -6.1756  -17.8304 C   0  0  0  0  0  0  0  0  0  0  0  0
   28.0310   -5.1279  -16.9756 O   0  0  0  0  0  0  0  0  0  0  0  0
  2  4  1  0
  2  1  1  0
  3  2  2  0
  5  6  1  0
  5  4  1  0
  6  7  1  1
  8 15  1  0
  8  6  1  0
  9  8  2  0
 10 11  1  0
 11 12  1  0
 12 13  1  0
 14 15  1  0
 14 13  1  6
 16 14  1  0
 17 16  2  0
 18 19  1  0
 19 20  2  0
 19 29  1  0
 20 21  1  0
 21 22  2  0
 22 23  1  0
 24 23  1  1
 24 25  1  0
 25 16  1  0
 26 27  1  0
 26 24  1  0
 28 22  1  0
 29 28  2  0
 30 26  2  0
M  END
$$$$
