QMY.pdb
     RDKit          3D

 30 30  0  0  1  0  0  0  0  0999 V2000
   29.0124  -18.4964  -18.0324 N   0  0  0  0  0  0  0  0  0  0  0  0
   28.3906  -19.7922  -18.0969 C   0  0  0  0  0  0  0  0  0  0  0  0
   27.4742  -20.0492  -18.8919 O   0  0  0  0  0  0  0  0  0  0  0  0
   28.8952  -20.8150  -17.1661 C   0  0  0  0  0  0  0  0  0  0  0  0
   27.7459  -21.3388  -16.3482 C   0  0  0  0  0  0  0  0  0  0  0  0
   27.1220  -20.2831  -15.4665 C   0  0  2  0  0  0  0  0  0  0  0  0
   28.1555  -19.4053  -14.9790 N   0  0  0  0  0  0  0  0  0  0  0  0
   26.3370  -20.8987  -14.3896 C   0  0  0  0  0  0  0  0  0  0  0  0
   25.4317  -21.7418  -14.5991 O   0  0  0  0  0  0  0  0  0  0  0  0
   27.7156  -19.9160   -8.1767 C   0  0  0  0  0  0  0  0  0  0  0  0
   26.0584  -20.6187   -7.9102 S   0  0  0  0  0  0  0  0  0  0  0  0
   25.3596  -20.9869   -9.5526 C   0  0  0  0  0  0  0  0  0  0  0  0
   26.2723  -20.5666  -10.6522 C   0  0  0  0  0  0  0  0  0  0  0  0
   25.6886  -20.9797  -11.9797 C   0  0  2  0  0  0  0  0  0  0  0  0
   26.5826  -20.5501  -13.0296 N   0  0  0  0  0  0  0  0  0  0  0  0
   24.3805  -20.2968  -12.1378 C   0  0  0  0  0  0  0  0  0  0  0  0
   24.3181  -19.0273  -12.2366 O   0  0  0  0  0  0  0  0  0  0  0  0
   21.6856  -22.5744  -18.3547 O   0  0  0  0  0  0  0  0  0  0  0  0
   21.8035  -21.8197  -17.1763 C   0  0  0  0  0  0  0  0  0  0  0  0
   23.0343  -21.3490  -16.7651 C   0  0  0  0  0  0  0  0  0  0  0  0
   23.1059  -20.6111  -15.6008 C   0  0  0  0  0  0  0  0  0  0  0  0
   21.9423  -20.3566  -14.8670 C   0  0  0  0  0  0  0  0  0  0  0  0
   22.0709  -19.5724  -13.6442 C   0  0  0  0  0  0  0  0  0  0  0  0
   21.9313  -20.3872  -12.3817 C   0  0  2  0  0  0  0  0  0  0  0  0
   23.1869  -21.0681  -12.1791 N   0  0  0  0  0  0  0  0  0  0  0  0
   20.8136  -21.3295  -12.4228 C   0  0  0  0  0  0  0  0  0  0  0  0
   19.5077  -20.9070  -12.3734 O   0  0  0  0  0  0  0  0  0  0  0  0
   20.7121  -20.8218  -15.2695 C   0  0  0  0  0  0  0  0  0  0  0  0
   20.6585  -21.5575  -16.4353 C   0  0  0  0  0  0  0  0  0  0  0  0
   21.0540  -22.5590  -12.5056 O   0  0  0  0  0  0  0  0  0  0  0  0
  2  4  1  0
  2  1  1  0
  3  2  2  0
  5  6  1  0
  5  4  1  0
  6  7  1  1
  8 15  1  0
  8  6  1  0
  9  8  2  0
 10 11  1  0
 11 12  1  0
 12 13  1  0
 14 15  1  0
 14 13  1  1
 16 14  1  0
 17 16  2  0
 18 19  1  0
 19 20  2  0
 19 29  1  0
 20 21  1  0
 21 22  2  0
 22 23  1  0
 24 23  1  6
 24 25  1  0
 25 16  1  0
 26 27  1  0
 26 24  1  0
 28 22  1  0
 29 28  2  0
 30 26  2  0
M  END
$$$$
