QMY.pdb
     RDKit          3D

 30 30  0  0  1  0  0  0  0  0999 V2000
   28.1599  -23.2402  -16.1179 N   0  0  0  0  0  0  0  0  0  0  0  0
   28.7505  -22.0714  -16.7138 C   0  0  0  0  0  0  0  0  0  0  0  0
   29.3281  -22.1060  -17.8105 O   0  0  0  0  0  0  0  0  0  0  0  0
   28.6386  -20.8144  -15.9557 C   0  0  0  0  0  0  0  0  0  0  0  0
   27.8515  -21.0716  -14.6993 C   0  0  0  0  0  0  0  0  0  0  0  0
   28.6894  -20.9619  -13.4475 C   0  0  2  0  0  0  0  0  0  0  0  0
   29.8251  -21.8414  -13.5619 N   0  0  0  0  0  0  0  0  0  0  0  0
   27.8793  -21.2237  -12.2516 C   0  0  0  0  0  0  0  0  0  0  0  0
   26.7955  -21.8550  -12.2845 O   0  0  0  0  0  0  0  0  0  0  0  0
   27.0587  -20.0868   -4.5129 C   0  0  0  0  0  0  0  0  0  0  0  0
   28.1651  -19.7855   -5.9257 S   0  0  0  0  0  0  0  0  0  0  0  0
   27.3248  -20.4221   -7.4124 C   0  0  0  0  0  0  0  0  0  0  0  0
   28.1518  -20.2429   -8.6383 C   0  0  0  0  0  0  0  0  0  0  0  0
   27.4545  -20.8761   -9.8157 C   0  0  2  0  0  0  0  0  0  0  0  0
   28.3078  -20.7566  -10.9750 N   0  0  0  0  0  0  0  0  0  0  0  0
   26.1926  -20.1327  -10.0554 C   0  0  0  0  0  0  0  0  0  0  0  0
   26.2108  -18.9810  -10.6019 O   0  0  0  0  0  0  0  0  0  0  0  0
   19.0837  -19.9152  -14.6051 O   0  0  0  0  0  0  0  0  0  0  0  0
   20.2812  -20.0784  -13.8899 C   0  0  0  0  0  0  0  0  0  0  0  0
   20.5521  -21.2640  -13.2368 C   0  0  0  0  0  0  0  0  0  0  0  0
   21.7408  -21.3827  -12.5455 C   0  0  0  0  0  0  0  0  0  0  0  0
   22.6395  -20.3108  -12.5197 C   0  0  0  0  0  0  0  0  0  0  0  0
   23.8813  -20.4862  -11.7754 C   0  0  0  0  0  0  0  0  0  0  0  0
   23.7433  -20.2333  -10.2941 C   0  0  2  0  0  0  0  0  0  0  0  0
   24.9528  -20.7126   -9.6708 N   0  0  0  0  0  0  0  0  0  0  0  0
   22.5575  -20.8584   -9.7092 C   0  0  0  0  0  0  0  0  0  0  0  0
   22.6158  -22.0811   -9.0863 O   0  0  0  0  0  0  0  0  0  0  0  0
   22.3775  -19.1262  -13.1676 C   0  0  0  0  0  0  0  0  0  0  0  0
   21.1850  -19.0245  -13.8537 C   0  0  0  0  0  0  0  0  0  0  0  0
   21.4553  -20.2610   -9.7782 O   0  0  0  0  0  0  0  0  0  0  0  0
  2  4  1  0
  2  1  1  0
  3  2  2  0
  5  6  1  0
  5  4  1  0
  6  7  1  6
  8 15  1  0
  8  6  1  0
  9  8  2  0
 10 11  1  0
 11 12  1  0
 12 13  1  0
 14 15  1  0
 14 13  1  1
 16 14  1  0
 17 16  2  0
 18 19  1  0
 19 20  2  0
 19 29  1  0
 20 21  1  0
 21 22  2  0
 22 23  1  0
 24 23  1  6
 24 25  1  0
 25 16  1  0
 26 27  1  0
 26 24  1  0
 28 22  1  0
 29 28  2  0
 30 26  2  0
M  END
$$$$
