QMY.pdb
     RDKit          3D

 30 30  0  0  1  0  0  0  0  0999 V2000
   27.5205  -18.9418  -17.6199 N   0  0  0  0  0  0  0  0  0  0  0  0
   28.3656  -19.6791  -18.5210 C   0  0  0  0  0  0  0  0  0  0  0  0
   29.0600  -19.1221  -19.3843 O   0  0  0  0  0  0  0  0  0  0  0  0
   28.3714  -21.1438  -18.3729 C   0  0  0  0  0  0  0  0  0  0  0  0
   27.5434  -21.5153  -17.1727 C   0  0  0  0  0  0  0  0  0  0  0  0
   28.3321  -21.4947  -15.8848 C   0  0  2  0  0  0  0  0  0  0  0  0
   29.3869  -22.4734  -15.9623 N   0  0  0  0  0  0  0  0  0  0  0  0
   27.4499  -21.6926  -14.7283 C   0  0  0  0  0  0  0  0  0  0  0  0
   26.3034  -22.1938  -14.8206 O   0  0  0  0  0  0  0  0  0  0  0  0
   26.3811  -20.5270   -7.0235 C   0  0  0  0  0  0  0  0  0  0  0  0
   27.5745  -20.3212   -8.3816 S   0  0  0  0  0  0  0  0  0  0  0  0
   26.7889  -20.9728   -9.8915 C   0  0  0  0  0  0  0  0  0  0  0  0
   27.7028  -20.9084  -11.0660 C   0  0  0  0  0  0  0  0  0  0  0  0
   27.0002  -21.4530  -12.2839 C   0  0  2  0  0  0  0  0  0  0  0  0
   27.8770  -21.3115  -13.4230 N   0  0  0  0  0  0  0  0  0  0  0  0
   25.7737  -20.6471  -12.5044 C   0  0  0  0  0  0  0  0  0  0  0  0
   25.8231  -19.5549  -13.1601 O   0  0  0  0  0  0  0  0  0  0  0  0
   18.4319  -18.4820  -15.9413 O   0  0  0  0  0  0  0  0  0  0  0  0
   19.6373  -18.9831  -15.4238 C   0  0  0  0  0  0  0  0  0  0  0  0
   20.7604  -18.1829  -15.3617 C   0  0  0  0  0  0  0  0  0  0  0  0
   21.9250  -18.7148  -14.8459 C   0  0  0  0  0  0  0  0  0  0  0  0
   21.9454  -20.0409  -14.4004 C   0  0  0  0  0  0  0  0  0  0  0  0
   23.2000  -20.5557  -13.8641 C   0  0  0  0  0  0  0  0  0  0  0  0
   23.3258  -20.4119  -12.3671 C   0  0  2  0  0  0  0  0  0  0  0  0
   24.5329  -21.0997  -11.9782 N   0  0  0  0  0  0  0  0  0  0  0  0
   22.1639  -20.9194  -11.6382 C   0  0  0  0  0  0  0  0  0  0  0  0
   21.0982  -20.1128  -11.3221 O   0  0  0  0  0  0  0  0  0  0  0  0
   20.8310  -20.8450  -14.4587 C   0  0  0  0  0  0  0  0  0  0  0  0
   19.6757  -20.2976  -14.9769 C   0  0  0  0  0  0  0  0  0  0  0  0
   22.1395  -22.1258  -11.2915 O   0  0  0  0  0  0  0  0  0  0  0  0
  2  4  1  0
  2  1  1  0
  3  2  2  0
  5  6  1  0
  5  4  1  0
  6  7  1  6
  8 15  1  0
  8  6  1  0
  9  8  2  0
 10 11  1  0
 11 12  1  0
 12 13  1  0
 14 15  1  0
 14 13  1  1
 16 14  1  0
 17 16  2  0
 18 19  1  0
 19 20  2  0
 19 29  1  0
 20 21  1  0
 21 22  2  0
 22 23  1  0
 24 23  1  6
 24 25  1  0
 25 16  1  0
 26 27  1  0
 26 24  1  0
 28 22  1  0
 29 28  2  0
 30 26  2  0
M  END
$$$$
