QMY.pdb
     RDKit          3D

 30 30  0  0  1  0  0  0  0  0999 V2000
   26.5146  -18.6377  -18.4699 N   0  0  0  0  0  0  0  0  0  0  0  0
   27.8845  -19.0556  -18.6055 C   0  0  0  0  0  0  0  0  0  0  0  0
   28.6144  -18.6489  -19.5218 O   0  0  0  0  0  0  0  0  0  0  0  0
   28.3908  -20.0001  -17.5961 C   0  0  0  0  0  0  0  0  0  0  0  0
   27.2815  -20.3240  -16.6324 C   0  0  0  0  0  0  0  0  0  0  0  0
   27.7674  -21.0429  -15.3962 C   0  0  2  0  0  0  0  0  0  0  0  0
   28.6034  -22.1480  -15.7917 N   0  0  0  0  0  0  0  0  0  0  0  0
   26.6386  -21.4513  -14.5513 C   0  0  0  0  0  0  0  0  0  0  0  0
   25.7872  -22.2999  -14.9107 O   0  0  0  0  0  0  0  0  0  0  0  0
   28.3914  -21.6572   -8.0151 C   0  0  0  0  0  0  0  0  0  0  0  0
   26.9502  -20.7688   -8.6820 S   0  0  0  0  0  0  0  0  0  0  0  0
   26.6742  -21.3851  -10.3748 C   0  0  0  0  0  0  0  0  0  0  0  0
   25.5520  -20.6748  -11.0491 C   0  0  0  0  0  0  0  0  0  0  0  0
   25.3427  -21.2522  -12.4262 C   0  0  2  0  0  0  0  0  0  0  0  0
   26.4653  -20.8818  -13.2563 N   0  0  0  0  0  0  0  0  0  0  0  0
   24.1013  -20.6629  -12.9867 C   0  0  0  0  0  0  0  0  0  0  0  0
   24.0525  -19.4284  -13.3011 O   0  0  0  0  0  0  0  0  0  0  0  0
   17.0661  -25.0977  -14.5674 O   0  0  0  0  0  0  0  0  0  0  0  0
   18.1549  -24.2186  -14.6845 C   0  0  0  0  0  0  0  0  0  0  0  0
   17.9670  -22.9242  -15.1260 C   0  0  0  0  0  0  0  0  0  0  0  0
   19.0642  -22.0929  -15.2265 C   0  0  0  0  0  0  0  0  0  0  0  0
   20.3328  -22.5722  -14.8829 C   0  0  0  0  0  0  0  0  0  0  0  0
   21.4596  -21.6547  -15.0065 C   0  0  0  0  0  0  0  0  0  0  0  0
   21.7676  -20.8957  -13.7390 C   0  0  2  0  0  0  0  0  0  0  0  0
   22.9567  -21.4853  -13.1737 N   0  0  0  0  0  0  0  0  0  0  0  0
   20.6629  -20.8989  -12.7807 C   0  0  0  0  0  0  0  0  0  0  0  0
   19.5598  -20.0971  -12.9441 O   0  0  0  0  0  0  0  0  0  0  0  0
   20.5289  -23.8602  -14.4421 C   0  0  0  0  0  0  0  0  0  0  0  0
   19.4217  -24.6777  -14.3475 C   0  0  0  0  0  0  0  0  0  0  0  0
   20.7240  -21.6554  -11.7806 O   0  0  0  0  0  0  0  0  0  0  0  0
  2  4  1  0
  2  1  1  0
  3  2  2  0
  5  6  1  0
  5  4  1  0
  6  7  1  6
  8 15  1  0
  8  6  1  0
  9  8  2  0
 10 11  1  0
 11 12  1  0
 12 13  1  0
 14 15  1  0
 14 13  1  1
 16 14  1  0
 17 16  2  0
 18 19  1  0
 19 20  2  0
 19 29  1  0
 20 21  1  0
 21 22  2  0
 22 23  1  0
 24 23  1  6
 24 25  1  0
 25 16  1  0
 26 27  1  0
 26 24  1  0
 28 22  1  0
 29 28  2  0
 30 26  2  0
M  END
$$$$
