QMY.pdb
     RDKit          3D

 30 30  0  0  1  0  0  0  0  0999 V2000
   27.2819  -22.4814  -19.1304 N   0  0  0  0  0  0  0  0  0  0  0  0
   28.6125  -21.9347  -19.1086 C   0  0  0  0  0  0  0  0  0  0  0  0
   29.2128  -21.6091  -20.1437 O   0  0  0  0  0  0  0  0  0  0  0  0
   29.2406  -21.7759  -17.7867 C   0  0  0  0  0  0  0  0  0  0  0  0
   28.3077  -22.3147  -16.7362 C   0  0  0  0  0  0  0  0  0  0  0  0
   27.2804  -21.3029  -16.2868 C   0  0  2  0  0  0  0  0  0  0  0  0
   27.9269  -20.0300  -16.0912 N   0  0  0  0  0  0  0  0  0  0  0  0
   26.5696  -21.7748  -15.0923 C   0  0  0  0  0  0  0  0  0  0  0  0
   25.9439  -22.8616  -15.0535 O   0  0  0  0  0  0  0  0  0  0  0  0
   24.8334  -20.7165   -7.5184 C   0  0  0  0  0  0  0  0  0  0  0  0
   25.9143  -20.1446   -8.8659 S   0  0  0  0  0  0  0  0  0  0  0  0
   25.3757  -20.9948  -10.3853 C   0  0  0  0  0  0  0  0  0  0  0  0
   26.2065  -20.6122  -11.5609 C   0  0  0  0  0  0  0  0  0  0  0  0
   25.7167  -21.3429  -12.7856 C   0  0  2  0  0  0  0  0  0  0  0  0
   26.5651  -20.9925  -13.9009 N   0  0  0  0  0  0  0  0  0  0  0  0
   24.3296  -20.8940  -13.0631 C   0  0  0  0  0  0  0  0  0  0  0  0
   24.0574  -19.6532  -13.1701 O   0  0  0  0  0  0  0  0  0  0  0  0
   16.0160  -21.4235  -15.7817 O   0  0  0  0  0  0  0  0  0  0  0  0
   17.3507  -21.6887  -15.4347 C   0  0  0  0  0  0  0  0  0  0  0  0
   17.6475  -22.5137  -14.3684 C   0  0  0  0  0  0  0  0  0  0  0  0
   18.9725  -22.7481  -14.0611 C   0  0  0  0  0  0  0  0  0  0  0  0
   19.9794  -22.1515  -14.8277 C   0  0  0  0  0  0  0  0  0  0  0  0
   21.3635  -22.4305  -14.4625 C   0  0  0  0  0  0  0  0  0  0  0  0
   21.9668  -21.4034  -13.5359 C   0  0  2  0  0  0  0  0  0  0  0  0
   23.2963  -21.8593  -13.2107 N   0  0  0  0  0  0  0  0  0  0  0  0
   21.1711  -21.1746  -12.3304 C   0  0  0  0  0  0  0  0  0  0  0  0
   20.3427  -20.0863  -12.2048 O   0  0  0  0  0  0  0  0  0  0  0  0
   19.6925  -21.3283  -15.8915 C   0  0  0  0  0  0  0  0  0  0  0  0
   18.3632  -21.1048  -16.1848 C   0  0  0  0  0  0  0  0  0  0  0  0
   21.2469  -21.9957  -11.3835 O   0  0  0  0  0  0  0  0  0  0  0  0
  2  4  1  0
  2  1  1  0
  3  2  2  0
  5  6  1  0
  5  4  1  0
  6  7  1  1
  8 15  1  0
  8  6  1  0
  9  8  2  0
 10 11  1  0
 11 12  1  0
 12 13  1  0
 14 15  1  0
 14 13  1  1
 16 14  1  0
 17 16  2  0
 18 19  1  0
 19 20  2  0
 19 29  1  0
 20 21  1  0
 21 22  2  0
 22 23  1  0
 24 23  1  6
 24 25  1  0
 25 16  1  0
 26 27  1  0
 26 24  1  0
 28 22  1  0
 29 28  2  0
 30 26  2  0
M  END
$$$$
