PVS.pdb
     RDKit          3D

 21 21  0  0  1  0  0  0  0  0999 V2000
    7.2597  -15.0690   20.8937 N   0  0  0  0  0  0  0  0  0  0  0  0
    6.7503  -14.7698   19.5889 C   0  0  0  0  0  0  0  0  0  0  0  0
    7.1934  -13.3827   19.2296 C   0  0  0  0  0  0  0  0  0  0  0  0
    7.7226  -12.8494   20.5461 C   0  0  0  0  0  0  0  0  0  0  0  0
    8.2937  -14.1175   21.1575 C   0  0  1  0  0  0  0  0  0  0  0  0
    8.6225  -13.9692   22.5777 C   0  0  0  0  0  0  0  0  0  0  0  0
    9.8307  -13.8458   22.9026 O   0  0  0  0  0  0  0  0  0  0  0  0
    6.4550  -11.9262   25.3067 C   0  0  0  0  0  0  0  0  0  0  0  0
    6.9289  -13.2354   25.8575 C   0  0  2  0  0  0  0  0  0  0  0  0
    7.3873  -13.0408   27.2972 C   0  0  0  0  0  0  0  0  0  0  0  0
    8.0277  -13.8633   25.0203 C   0  0  2  0  0  0  0  0  0  0  0  0
    7.6515  -13.9553   23.6291 N   0  0  0  0  0  0  0  0  0  0  0  0
    8.3839  -15.1653   25.6085 C   0  0  0  0  0  0  0  0  0  0  0  0
    7.4546  -16.0172   25.7095 O   0  0  0  0  0  0  0  0  0  0  0  0
   12.0809  -16.5083   25.8721 O   0  0  0  0  0  0  0  0  0  0  0  0
   11.1008  -17.5183   26.0004 C   0  0  0  0  0  0  0  0  0  0  0  0
    9.8943  -16.8442   26.6178 C   0  0  2  0  0  0  0  0  0  0  0  0
    9.6552  -15.5316   26.0600 N   0  0  0  0  0  0  0  0  0  0  0  0
   10.1715  -16.6965   28.0819 C   0  0  0  0  0  0  0  0  0  0  0  0
   10.4135  -17.8046   28.8814 O   0  0  0  0  0  0  0  0  0  0  0  0
   10.1914  -15.5730   28.6174 O   0  0  0  0  0  0  0  0  0  0  0  0
  1  5  1  0
  2  3  1  0
  2  1  1  0
  3  4  1  0
  4  5  1  0
  5  6  1  1
  6  7  2  0
  9  8  1  6
  9 11  1  0
 10  9  1  0
 11 13  1  0
 12  6  1  0
 11 12  1  6
 13 18  1  0
 13 14  2  0
 17 16  1  6
 16 15  1  0
 17 19  1  0
 18 17  1  0
 19 21  2  0
 19 20  1  0
M  END
$$$$
