PVS.pdb
     RDKit          3D

 21 21  0  0  1  0  0  0  0  0999 V2000
    7.0036  -15.0250   21.1972 N   0  0  0  0  0  0  0  0  0  0  0  0
    6.6090  -14.7351   19.8511 C   0  0  0  0  0  0  0  0  0  0  0  0
    7.4469  -13.5910   19.3631 C   0  0  0  0  0  0  0  0  0  0  0  0
    8.1092  -13.0959   20.6335 C   0  0  0  0  0  0  0  0  0  0  0  0
    8.2742  -14.4003   21.3949 C   0  0  1  0  0  0  0  0  0  0  0  0
    8.6300  -14.1993   22.8020 C   0  0  0  0  0  0  0  0  0  0  0  0
    9.8428  -14.0495   23.0972 O   0  0  0  0  0  0  0  0  0  0  0  0
    6.5866  -11.9360   25.4169 C   0  0  0  0  0  0  0  0  0  0  0  0
    6.9988  -13.2354   26.0364 C   0  0  2  0  0  0  0  0  0  0  0  0
    7.4504  -12.9897   27.4705 C   0  0  0  0  0  0  0  0  0  0  0  0
    8.0784  -13.9491   25.2442 C   0  0  2  0  0  0  0  0  0  0  0  0
    7.6806  -14.1619   23.8724 N   0  0  0  0  0  0  0  0  0  0  0  0
    8.4297  -15.1968   25.9427 C   0  0  0  0  0  0  0  0  0  0  0  0
    7.5013  -16.0408   26.1012 O   0  0  0  0  0  0  0  0  0  0  0  0
   12.0132  -16.7403   26.0410 O   0  0  0  0  0  0  0  0  0  0  0  0
   10.9627  -17.6249   26.3744 C   0  0  0  0  0  0  0  0  0  0  0  0
    9.9327  -16.7851   27.0992 C   0  0  2  0  0  0  0  0  0  0  0  0
    9.6956  -15.5199   26.4402 N   0  0  0  0  0  0  0  0  0  0  0  0
   10.4687  -16.5148   28.4710 C   0  0  0  0  0  0  0  0  0  0  0  0
   10.7386  -17.5517   29.3528 O   0  0  0  0  0  0  0  0  0  0  0  0
   10.6854  -15.3502   28.8533 O   0  0  0  0  0  0  0  0  0  0  0  0
  1  5  1  0
  2  3  1  0
  2  1  1  0
  3  4  1  0
  4  5  1  0
  5  6  1  1
  6  7  2  0
  9  8  1  6
  9 11  1  0
 10  9  1  0
 11 13  1  0
 12  6  1  0
 11 12  1  6
 13 18  1  0
 13 14  2  0
 17 16  1  6
 16 15  1  0
 17 19  1  0
 18 17  1  0
 19 21  2  0
 19 20  1  0
M  END
$$$$
