PVS.pdb
     RDKit          3D

 21 21  0  0  1  0  0  0  0  0999 V2000
    7.1318  -14.9376   21.0438 N   0  0  0  0  0  0  0  0  0  0  0  0
    6.7357  -14.6164   19.7053 C   0  0  0  0  0  0  0  0  0  0  0  0
    7.4987  -13.3972   19.2804 C   0  0  0  0  0  0  0  0  0  0  0  0
    8.1086  -12.9143   20.5814 C   0  0  0  0  0  0  0  0  0  0  0  0
    8.3535  -14.2365   21.2885 C   0  0  1  0  0  0  0  0  0  0  0  0
    8.6761  -14.0738   22.7085 C   0  0  0  0  0  0  0  0  0  0  0  0
    9.8813  -13.9288   23.0356 O   0  0  0  0  0  0  0  0  0  0  0  0
    6.6209  -11.9092   25.3457 C   0  0  0  0  0  0  0  0  0  0  0  0
    7.0090  -13.2229   25.9504 C   0  0  2  0  0  0  0  0  0  0  0  0
    7.4686  -13.0014   27.3859 C   0  0  0  0  0  0  0  0  0  0  0  0
    8.0725  -13.9491   25.1480 C   0  0  2  0  0  0  0  0  0  0  0  0
    7.7023  -14.0690   23.7574 N   0  0  0  0  0  0  0  0  0  0  0  0
    8.3412  -15.2482   25.7871 C   0  0  0  0  0  0  0  0  0  0  0  0
    7.3563  -16.0299   25.9228 O   0  0  0  0  0  0  0  0  0  0  0  0
   11.8352  -16.9797   25.8010 O   0  0  0  0  0  0  0  0  0  0  0  0
   10.7513  -17.8403   26.0872 C   0  0  0  0  0  0  0  0  0  0  0  0
    9.7427  -16.9958   26.8362 C   0  0  2  0  0  0  0  0  0  0  0  0
    9.5862  -15.6825   26.2515 N   0  0  0  0  0  0  0  0  0  0  0  0
   10.2514  -16.8368   28.2355 C   0  0  0  0  0  0  0  0  0  0  0  0
   10.4470  -17.9380   29.0570 O   0  0  0  0  0  0  0  0  0  0  0  0
   10.5115  -15.7100   28.6958 O   0  0  0  0  0  0  0  0  0  0  0  0
  1  5  1  0
  2  3  1  0
  2  1  1  0
  3  4  1  0
  4  5  1  0
  5  6  1  1
  6  7  2  0
  9  8  1  6
  9 11  1  0
 10  9  1  0
 11 13  1  0
 12  6  1  0
 11 12  1  6
 13 18  1  0
 13 14  2  0
 17 16  1  6
 16 15  1  0
 17 19  1  0
 18 17  1  0
 19 21  2  0
 19 20  1  0
M  END
$$$$
