PVS.pdb
     RDKit          3D

 21 21  0  0  1  0  0  0  0  0999 V2000
    7.0219  -15.1488   21.2482 N   0  0  0  0  0  0  0  0  0  0  0  0
    6.7195  -14.9056   19.8695 C   0  0  0  0  0  0  0  0  0  0  0  0
    7.6500  -13.8376   19.3766 C   0  0  0  0  0  0  0  0  0  0  0  0
    8.2705  -13.3174   20.6580 C   0  0  0  0  0  0  0  0  0  0  0  0
    8.3151  -14.5887   21.4887 C   0  0  1  0  0  0  0  0  0  0  0  0
    8.6049  -14.3372   22.9028 C   0  0  0  0  0  0  0  0  0  0  0  0
    9.8014  -14.1611   23.2464 O   0  0  0  0  0  0  0  0  0  0  0  0
    6.5869  -12.0252   25.4473 C   0  0  0  0  0  0  0  0  0  0  0  0
    6.8933  -13.3474   26.0797 C   0  0  2  0  0  0  0  0  0  0  0  0
    7.3121  -13.1289   27.5281 C   0  0  0  0  0  0  0  0  0  0  0  0
    7.9500  -14.1310   25.3235 C   0  0  2  0  0  0  0  0  0  0  0  0
    7.6081  -14.2782   23.9282 N   0  0  0  0  0  0  0  0  0  0  0  0
    8.1600  -15.4194   26.0046 C   0  0  0  0  0  0  0  0  0  0  0  0
    7.1383  -16.1443   26.1783 O   0  0  0  0  0  0  0  0  0  0  0  0
   11.4025  -17.5425   25.8099 O   0  0  0  0  0  0  0  0  0  0  0  0
   10.2244  -18.1994   26.2314 C   0  0  0  0  0  0  0  0  0  0  0  0
    9.4842  -17.2013   27.0959 C   0  0  2  0  0  0  0  0  0  0  0  0
    9.3870  -15.9010   26.4704 N   0  0  0  0  0  0  0  0  0  0  0  0
   10.2581  -17.0605   28.3700 C   0  0  0  0  0  0  0  0  0  0  0  0
   10.7918  -15.8385   28.7538 O   0  0  0  0  0  0  0  0  0  0  0  0
   10.4412  -18.0394   29.1168 O   0  0  0  0  0  0  0  0  0  0  0  0
  1  5  1  0
  2  3  1  0
  2  1  1  0
  3  4  1  0
  4  5  1  0
  5  6  1  1
  6  7  2  0
  9  8  1  6
  9 11  1  0
 10  9  1  0
 11 13  1  0
 12  6  1  0
 11 12  1  6
 13 18  1  0
 13 14  2  0
 17 16  1  6
 16 15  1  0
 17 19  1  0
 18 17  1  0
 19 21  2  0
 19 20  1  0
M  END
$$$$
