PVS.pdb
     RDKit          3D

 21 21  0  0  1  0  0  0  0  0999 V2000
    7.0202  -15.0277   21.1434 N   0  0  0  0  0  0  0  0  0  0  0  0
    6.6545  -14.7461   19.7875 C   0  0  0  0  0  0  0  0  0  0  0  0
    7.5229  -13.6242   19.3010 C   0  0  0  0  0  0  0  0  0  0  0  0
    8.1728  -13.1271   20.5770 C   0  0  0  0  0  0  0  0  0  0  0  0
    8.2992  -14.4253   21.3560 C   0  0  1  0  0  0  0  0  0  0  0  0
    8.6346  -14.2147   22.7667 C   0  0  0  0  0  0  0  0  0  0  0  0
    9.8455  -14.0945   23.0825 O   0  0  0  0  0  0  0  0  0  0  0  0
    6.4340  -11.9305   25.2345 C   0  0  0  0  0  0  0  0  0  0  0  0
    6.9280  -13.1556   25.9396 C   0  0  2  0  0  0  0  0  0  0  0  0
    7.3774  -12.7813   27.3463 C   0  0  0  0  0  0  0  0  0  0  0  0
    8.0407  -13.8602   25.1860 C   0  0  2  0  0  0  0  0  0  0  0  0
    7.6672  -14.1360   23.8186 N   0  0  0  0  0  0  0  0  0  0  0  0
    8.4253  -15.0691   25.9335 C   0  0  0  0  0  0  0  0  0  0  0  0
    7.5301  -15.9482   26.0928 O   0  0  0  0  0  0  0  0  0  0  0  0
   12.0497  -16.4356   26.0851 O   0  0  0  0  0  0  0  0  0  0  0  0
   11.0473  -17.3682   26.4353 C   0  0  0  0  0  0  0  0  0  0  0  0
    9.9737  -16.5708   27.1445 C   0  0  2  0  0  0  0  0  0  0  0  0
    9.6888  -15.3204   26.4762 N   0  0  0  0  0  0  0  0  0  0  0  0
   10.4823  -16.2707   28.5205 C   0  0  0  0  0  0  0  0  0  0  0  0
   10.8103  -17.2908   29.4022 O   0  0  0  0  0  0  0  0  0  0  0  0
   10.6231  -15.0958   28.9066 O   0  0  0  0  0  0  0  0  0  0  0  0
  1  5  1  0
  2  3  1  0
  2  1  1  0
  3  4  1  0
  4  5  1  0
  5  6  1  1
  6  7  2  0
  9  8  1  6
  9 11  1  0
 10  9  1  0
 11 13  1  0
 12  6  1  0
 11 12  1  6
 13 18  1  0
 13 14  2  0
 17 16  1  6
 16 15  1  0
 17 19  1  0
 18 17  1  0
 19 21  2  0
 19 20  1  0
M  END
$$$$
