PVS.pdb
     RDKit          3D

 21 21  0  0  1  0  0  0  0  0999 V2000
    6.8690  -14.5310   20.9988 N   0  0  0  0  0  0  0  0  0  0  0  0
    6.4056  -14.0506   19.7315 C   0  0  0  0  0  0  0  0  0  0  0  0
    7.3366  -12.9632   19.2841 C   0  0  0  0  0  0  0  0  0  0  0  0
    8.1559  -12.6910   20.5299 C   0  0  0  0  0  0  0  0  0  0  0  0
    8.2191  -14.0819   21.1381 C   0  0  1  0  0  0  0  0  0  0  0  0
    8.7100  -14.0800   22.5186 C   0  0  0  0  0  0  0  0  0  0  0  0
    9.9432  -13.9350   22.7152 O   0  0  0  0  0  0  0  0  0  0  0  0
    6.0742  -13.9703   25.9459 C   0  0  0  0  0  0  0  0  0  0  0  0
    7.4698  -13.4277   25.9478 C   0  0  2  0  0  0  0  0  0  0  0  0
    7.4352  -11.9454   25.5975 C   0  0  0  0  0  0  0  0  0  0  0  0
    8.3964  -14.1828   25.0131 C   0  0  2  0  0  0  0  0  0  0  0  0
    7.8719  -14.2337   23.6686 N   0  0  0  0  0  0  0  0  0  0  0  0
    8.6563  -15.5160   25.5813 C   0  0  0  0  0  0  0  0  0  0  0  0
    7.6711  -16.3058   25.6531 O   0  0  0  0  0  0  0  0  0  0  0  0
   12.0696  -16.9014   25.4057 O   0  0  0  0  0  0  0  0  0  0  0  0
   11.3577  -17.9483   26.0337 C   0  0  0  0  0  0  0  0  0  0  0  0
   10.0554  -17.3360   26.5030 C   0  0  2  0  0  0  0  0  0  0  0  0
    9.8935  -15.9744   26.0436 N   0  0  0  0  0  0  0  0  0  0  0  0
   10.0821  -17.3339   28.0002 C   0  0  0  0  0  0  0  0  0  0  0  0
   10.1783  -18.5178   28.7175 O   0  0  0  0  0  0  0  0  0  0  0  0
   10.0185  -16.2668   28.6379 O   0  0  0  0  0  0  0  0  0  0  0  0
  1  5  1  0
  2  3  1  0
  2  1  1  0
  3  4  1  0
  4  5  1  0
  5  6  1  1
  6  7  2  0
  9  8  1  6
  9 11  1  0
 10  9  1  0
 11 13  1  0
 12  6  1  0
 11 12  1  6
 13 18  1  0
 13 14  2  0
 17 16  1  6
 16 15  1  0
 17 19  1  0
 18 17  1  0
 19 21  2  0
 19 20  1  0
M  END
$$$$
