PVS.pdb
     RDKit          3D

 21 21  0  0  1  0  0  0  0  0999 V2000
    7.0428  -14.6386   20.8229 N   0  0  0  0  0  0  0  0  0  0  0  0
    6.7178  -14.2179   19.4928 C   0  0  0  0  0  0  0  0  0  0  0  0
    7.6251  -13.0780   19.1369 C   0  0  0  0  0  0  0  0  0  0  0  0
    8.2552  -12.7237   20.4692 C   0  0  0  0  0  0  0  0  0  0  0  0
    8.3306  -14.0939   21.1213 C   0  0  1  0  0  0  0  0  0  0  0  0
    8.6361  -14.0293   22.5529 C   0  0  0  0  0  0  0  0  0  0  0  0
    9.8421  -14.0260   22.9079 O   0  0  0  0  0  0  0  0  0  0  0  0
    6.4991  -11.8685   25.1506 C   0  0  0  0  0  0  0  0  0  0  0  0
    6.9258  -13.1578   25.7812 C   0  0  2  0  0  0  0  0  0  0  0  0
    7.4003  -12.8907   27.2041 C   0  0  0  0  0  0  0  0  0  0  0  0
    7.9947  -13.8791   24.9812 C   0  0  2  0  0  0  0  0  0  0  0  0
    7.6445  -13.9692   23.5832 N   0  0  0  0  0  0  0  0  0  0  0  0
    8.2414  -15.1924   25.5996 C   0  0  0  0  0  0  0  0  0  0  0  0
    7.2466  -15.9656   25.7089 O   0  0  0  0  0  0  0  0  0  0  0  0
   11.7051  -16.9583   25.6071 O   0  0  0  0  0  0  0  0  0  0  0  0
   10.6184  -17.8171   25.8877 C   0  0  0  0  0  0  0  0  0  0  0  0
    9.6101  -16.9726   26.6372 C   0  0  2  0  0  0  0  0  0  0  0  0
    9.4759  -15.6487   26.0710 N   0  0  0  0  0  0  0  0  0  0  0  0
   10.1031  -16.8411   28.0450 C   0  0  0  0  0  0  0  0  0  0  0  0
   10.2488  -17.9540   28.8608 O   0  0  0  0  0  0  0  0  0  0  0  0
   10.3945  -15.7270   28.5175 O   0  0  0  0  0  0  0  0  0  0  0  0
  1  5  1  0
  2  3  1  0
  2  1  1  0
  3  4  1  0
  4  5  1  0
  5  6  1  1
  6  7  2  0
  9  8  1  6
  9 11  1  0
 10  9  1  0
 11 13  1  0
 12  6  1  0
 11 12  1  6
 13 18  1  0
 13 14  2  0
 17 16  1  6
 16 15  1  0
 17 19  1  0
 18 17  1  0
 19 21  2  0
 19 20  1  0
M  END
$$$$
