PVS.pdb
     RDKit          3D

 21 21  0  0  1  0  0  0  0  0999 V2000
    8.2480  -14.9089   20.4064 N   0  0  0  0  0  0  0  0  0  0  0  0
    7.7148  -15.6633   19.3119 C   0  0  0  0  0  0  0  0  0  0  0  0
    6.7103  -16.6294   19.8659 C   0  0  0  0  0  0  0  0  0  0  0  0
    6.9557  -16.5470   21.3595 C   0  0  0  0  0  0  0  0  0  0  0  0
    7.3478  -15.0862   21.5028 C   0  0  1  0  0  0  0  0  0  0  0  0
    7.9299  -14.7767   22.8114 C   0  0  0  0  0  0  0  0  0  0  0  0
    9.1602  -14.9724   22.9805 O   0  0  0  0  0  0  0  0  0  0  0  0
    6.4091  -11.8930   25.4291 C   0  0  0  0  0  0  0  0  0  0  0  0
    6.8893  -13.1509   26.0841 C   0  0  2  0  0  0  0  0  0  0  0  0
    7.5804  -12.8040   27.3967 C   0  0  0  0  0  0  0  0  0  0  0  0
    7.8043  -13.9677   25.1906 C   0  0  2  0  0  0  0  0  0  0  0  0
    7.1849  -14.2619   23.9198 N   0  0  0  0  0  0  0  0  0  0  0  0
    8.2226  -15.1756   25.9215 C   0  0  0  0  0  0  0  0  0  0  0  0
    7.3381  -16.0588   26.1142 O   0  0  0  0  0  0  0  0  0  0  0  0
   11.9814  -16.5200   26.1272 O   0  0  0  0  0  0  0  0  0  0  0  0
   10.9125  -17.4332   26.2709 C   0  0  0  0  0  0  0  0  0  0  0  0
    9.8351  -16.6887   27.0302 C   0  0  2  0  0  0  0  0  0  0  0  0
    9.5073  -15.4219   26.4147 N   0  0  0  0  0  0  0  0  0  0  0  0
   10.3646  -16.4271   28.4062 C   0  0  0  0  0  0  0  0  0  0  0  0
   10.7551  -17.4696   29.2346 O   0  0  0  0  0  0  0  0  0  0  0  0
   10.4670  -15.2650   28.8402 O   0  0  0  0  0  0  0  0  0  0  0  0
  1  5  1  0
  2  3  1  0
  2  1  1  0
  3  4  1  0
  4  5  1  0
  5  6  1  1
  6  7  2  0
  9  8  1  6
  9 11  1  0
 10  9  1  0
 11 13  1  0
 12  6  1  0
 11 12  1  6
 13 18  1  0
 13 14  2  0
 17 16  1  6
 16 15  1  0
 17 19  1  0
 18 17  1  0
 19 21  2  0
 19 20  1  0
M  END
$$$$
