PVS.pdb
     RDKit          3D

 21 21  0  0  1  0  0  0  0  0999 V2000
    7.9367  -14.6191   17.5543 N   0  0  0  0  0  0  0  0  0  0  0  0
    7.6076  -13.3635   16.9486 C   0  0  0  0  0  0  0  0  0  0  0  0
    7.7201  -12.3018   18.0019 C   0  0  0  0  0  0  0  0  0  0  0  0
    7.8431  -13.1094   19.2787 C   0  0  0  0  0  0  0  0  0  0  0  0
    8.6139  -14.3187   18.7770 C   0  0  1  0  0  0  0  0  0  0  0  0
    8.6317  -15.4241   19.7386 C   0  0  0  0  0  0  0  0  0  0  0  0
    7.5395  -15.9613   20.0532 O   0  0  0  0  0  0  0  0  0  0  0  0
   10.3577  -18.7851   19.7214 C   0  0  0  0  0  0  0  0  0  0  0  0
   10.7067  -18.1223   21.0178 C   0  0  2  0  0  0  0  0  0  0  0  0
   10.7112  -19.1624   22.1310 C   0  0  0  0  0  0  0  0  0  0  0  0
    9.7799  -16.9700   21.3582 C   0  0  2  0  0  0  0  0  0  0  0  0
    9.8200  -15.9376   20.3492 N   0  0  0  0  0  0  0  0  0  0  0  0
   10.1167  -16.4748   22.7033 C   0  0  0  0  0  0  0  0  0  0  0  0
   11.2026  -15.8369   22.8194 O   0  0  0  0  0  0  0  0  0  0  0  0
    7.6763  -14.9989   25.2441 O   0  0  0  0  0  0  0  0  0  0  0  0
    8.5613  -15.7851   26.0160 C   0  0  0  0  0  0  0  0  0  0  0  0
    9.7428  -16.0775   25.1161 C   0  0  2  0  0  0  0  0  0  0  0  0
    9.3393  -16.6516   23.8517 N   0  0  0  0  0  0  0  0  0  0  0  0
   10.6105  -17.0652   25.8327 C   0  0  0  0  0  0  0  0  0  0  0  0
   11.2131  -16.7463   27.0413 O   0  0  0  0  0  0  0  0  0  0  0  0
   10.8121  -18.1987   25.3595 O   0  0  0  0  0  0  0  0  0  0  0  0
  1  5  1  0
  2  3  1  0
  2  1  1  0
  3  4  1  0
  4  5  1  0
  5  6  1  1
  6  7  2  0
  9  8  1  6
  9 11  1  0
 10  9  1  0
 11 13  1  0
 12  6  1  0
 11 12  1  6
 13 18  1  0
 13 14  2  0
 17 16  1  1
 16 15  1  0
 17 19  1  0
 18 17  1  0
 19 21  2  0
 19 20  1  0
M  END
$$$$
