PVS.pdb
     RDKit          3D

 21 21  0  0  1  0  0  0  0  0999 V2000
    6.8857  -15.4553   21.5087 N   0  0  0  0  0  0  0  0  0  0  0  0
    6.4168  -15.3281   20.1613 C   0  0  0  0  0  0  0  0  0  0  0  0
    7.3265  -14.3738   19.4464 C   0  0  0  0  0  0  0  0  0  0  0  0
    8.1357  -13.7721   20.5781 C   0  0  0  0  0  0  0  0  0  0  0  0
    8.2257  -14.9572   21.5245 C   0  0  1  0  0  0  0  0  0  0  0  0
    8.7117  -14.5887   22.8568 C   0  0  0  0  0  0  0  0  0  0  0  0
    9.9531  -14.5236   23.0443 O   0  0  0  0  0  0  0  0  0  0  0  0
    7.9153  -12.5176   27.3113 C   0  0  0  0  0  0  0  0  0  0  0  0
    7.4054  -12.9651   25.9765 C   0  0  2  0  0  0  0  0  0  0  0  0
    6.0605  -13.6578   26.1566 C   0  0  0  0  0  0  0  0  0  0  0  0
    8.3834  -13.8650   25.2442 C   0  0  2  0  0  0  0  0  0  0  0  0
    7.8599  -14.2953   23.9690 N   0  0  0  0  0  0  0  0  0  0  0  0
    8.7450  -14.9865   26.1271 C   0  0  0  0  0  0  0  0  0  0  0  0
    7.8373  -15.8321   26.3735 O   0  0  0  0  0  0  0  0  0  0  0  0
   11.8199  -16.6700   25.7952 O   0  0  0  0  0  0  0  0  0  0  0  0
   11.5759  -17.0252   27.1411 C   0  0  0  0  0  0  0  0  0  0  0  0
   10.2646  -16.3647   27.5093 C   0  0  2  0  0  0  0  0  0  0  0  0
    9.9997  -15.1896   26.7092 N   0  0  0  0  0  0  0  0  0  0  0  0
   10.3658  -15.9510   28.9448 C   0  0  0  0  0  0  0  0  0  0  0  0
   10.5714  -16.8871   29.9483 O   0  0  0  0  0  0  0  0  0  0  0  0
   10.2676  -14.7541   29.2724 O   0  0  0  0  0  0  0  0  0  0  0  0
  1  5  1  0
  2  3  1  0
  2  1  1  0
  3  4  1  0
  4  5  1  0
  5  6  1  1
  6  7  2  0
  9  8  1  1
  9 11  1  0
 10  9  1  0
 11 13  1  0
 12  6  1  0
 11 12  1  6
 13 18  1  0
 13 14  2  0
 17 16  1  6
 16 15  1  0
 17 19  1  0
 18 17  1  0
 19 21  2  0
 19 20  1  0
M  END
$$$$
