PVS.pdb
     RDKit          3D

 21 21  0  0  1  0  0  0  0  0999 V2000
    8.3936  -14.9559   20.4159 N   0  0  0  0  0  0  0  0  0  0  0  0
    7.8091  -15.5985   19.2771 C   0  0  0  0  0  0  0  0  0  0  0  0
    6.6220  -16.3829   19.7512 C   0  0  0  0  0  0  0  0  0  0  0  0
    6.7842  -16.3566   21.2581 C   0  0  0  0  0  0  0  0  0  0  0  0
    7.4097  -14.9858   21.4527 C   0  0  1  0  0  0  0  0  0  0  0  0
    7.9532  -14.7918   22.7995 C   0  0  0  0  0  0  0  0  0  0  0  0
    9.1496  -15.1129   23.0141 O   0  0  0  0  0  0  0  0  0  0  0  0
    6.6521  -11.8852   25.5445 C   0  0  0  0  0  0  0  0  0  0  0  0
    6.9043  -13.2485   26.1102 C   0  0  2  0  0  0  0  0  0  0  0  0
    7.5174  -13.1131   27.4983 C   0  0  0  0  0  0  0  0  0  0  0  0
    7.7791  -14.1052   25.2139 C   0  0  2  0  0  0  0  0  0  0  0  0
    7.2064  -14.2565   23.8969 N   0  0  0  0  0  0  0  0  0  0  0  0
    8.0269  -15.3916   25.8861 C   0  0  0  0  0  0  0  0  0  0  0  0
    7.0194  -16.1260   26.0982 O   0  0  0  0  0  0  0  0  0  0  0  0
   11.4317  -17.3295   25.7061 O   0  0  0  0  0  0  0  0  0  0  0  0
   10.2811  -18.0864   26.0232 C   0  0  0  0  0  0  0  0  0  0  0  0
    9.4167  -17.1825   26.8760 C   0  0  2  0  0  0  0  0  0  0  0  0
    9.2752  -15.8617   26.3046 N   0  0  0  0  0  0  0  0  0  0  0  0
   10.0890  -17.0560   28.2080 C   0  0  0  0  0  0  0  0  0  0  0  0
   10.3113  -18.1680   29.0077 O   0  0  0  0  0  0  0  0  0  0  0  0
   10.4652  -15.9471   28.6301 O   0  0  0  0  0  0  0  0  0  0  0  0
  1  5  1  0
  2  3  1  0
  2  1  1  0
  3  4  1  0
  4  5  1  0
  5  6  1  1
  6  7  2  0
  9  8  1  6
  9 11  1  0
 10  9  1  0
 11 13  1  0
 12  6  1  0
 11 12  1  6
 13 18  1  0
 13 14  2  0
 17 16  1  6
 16 15  1  0
 17 19  1  0
 18 17  1  0
 19 21  2  0
 19 20  1  0
M  END
$$$$
