GYT.pdb
     RDKit          3D

 24 24  0  0  1  0  0  0  0  0999 V2000
    7.1776  -13.5391   19.8212 N   0  0  0  0  0  0  0  0  0  0  0  0
    6.6228  -14.0207   21.0703 C   0  0  0  0  0  0  0  0  0  0  0  0
    7.7032  -14.1908   22.0898 C   0  0  0  0  0  0  0  0  0  0  0  0
    8.8966  -14.0488   21.7729 O   0  0  0  0  0  0  0  0  0  0  0  0
   11.1227  -14.9864   30.1352 O   0  0  0  0  0  0  0  0  0  0  0  0
   10.2545  -14.8525   29.0577 C   0  0  0  0  0  0  0  0  0  0  0  0
    9.4863  -15.9432   28.6517 C   0  0  0  0  0  0  0  0  0  0  0  0
    8.6356  -15.7744   27.5787 C   0  0  0  0  0  0  0  0  0  0  0  0
    8.5572  -14.5565   26.9353 C   0  0  0  0  0  0  0  0  0  0  0  0
    7.6356  -14.4010   25.7854 C   0  0  0  0  0  0  0  0  0  0  0  0
    8.3280  -14.7212   24.4742 C   0  0  2  0  0  0  0  0  0  0  0  0
    7.3600  -14.5144   23.4186 N   0  0  0  0  0  0  0  0  0  0  0  0
    8.8445  -16.1142   24.4679 C   0  0  0  0  0  0  0  0  0  0  0  0
    8.0786  -17.1133   24.6474 O   0  0  0  0  0  0  0  0  0  0  0  0
    9.3162  -13.4661   27.3307 C   0  0  0  0  0  0  0  0  0  0  0  0
   10.1661  -13.6401   28.4050 C   0  0  0  0  0  0  0  0  0  0  0  0
   10.8596  -17.7371   21.7361 C   0  0  0  0  0  0  0  0  0  0  0  0
   11.6574  -17.8227   23.0163 C   0  0  1  0  0  0  0  0  0  0  0  0
   12.5066  -16.7170   23.0406 O   0  0  0  0  0  0  0  0  0  0  0  0
   10.7697  -17.7221   24.2461 C   0  0  2  0  0  0  0  0  0  0  0  0
   10.2124  -16.3989   24.2623 N   0  0  0  0  0  0  0  0  0  0  0  0
   11.5670  -18.0154   25.4664 C   0  0  0  0  0  0  0  0  0  0  0  0
   11.8079  -17.1430   26.3124 O   0  0  0  0  0  0  0  0  0  0  0  0
   12.0454  -19.2977   25.6490 O   0  0  0  0  0  0  0  0  0  0  0  0
  1  2  1  0
  2  3  1  0
  3  4  2  0
  6  5  1  0
  6  7  2  0
  8  7  1  0
  9 10  1  0
  9  8  2  0
 11 10  1  1
 11 13  1  0
 12 11  1  0
 12  3  1  0
 13 14  2  0
 15 16  2  0
 15  9  1  0
 16  6  1  0
 18 17  1  6
 18 20  1  0
 19 18  1  0
 20 22  1  0
 21 13  1  0
 20 21  1  1
 22 23  2  0
 22 24  1  0
M  END
$$$$
