GYT.pdb
     RDKit          3D

 24 24  0  0  1  0  0  0  0  0999 V2000
    7.4628  -12.8617   19.5575 N   0  0  0  0  0  0  0  0  0  0  0  0
    6.8627  -13.6555   20.6110 C   0  0  0  0  0  0  0  0  0  0  0  0
    7.8594  -13.9264   21.6922 C   0  0  0  0  0  0  0  0  0  0  0  0
    9.0779  -13.8478   21.4600 O   0  0  0  0  0  0  0  0  0  0  0  0
   10.6935  -14.7459   29.9407 O   0  0  0  0  0  0  0  0  0  0  0  0
    9.9003  -14.6214   28.8058 C   0  0  0  0  0  0  0  0  0  0  0  0
    9.7598  -13.3751   28.1962 C   0  0  0  0  0  0  0  0  0  0  0  0
    8.9651  -13.2884   27.0718 C   0  0  0  0  0  0  0  0  0  0  0  0
    8.3336  -14.4102   26.5756 C   0  0  0  0  0  0  0  0  0  0  0  0
    7.4854  -14.2906   25.3665 C   0  0  0  0  0  0  0  0  0  0  0  0
    8.2874  -14.5325   24.1018 C   0  0  2  0  0  0  0  0  0  0  0  0
    7.4080  -14.2729   22.9823 N   0  0  0  0  0  0  0  0  0  0  0  0
    8.8179  -15.9197   24.0615 C   0  0  0  0  0  0  0  0  0  0  0  0
    8.0528  -16.9319   24.1457 O   0  0  0  0  0  0  0  0  0  0  0  0
    8.4664  -15.6536   27.1737 C   0  0  0  0  0  0  0  0  0  0  0  0
    9.2629  -15.7351   28.2988 C   0  0  0  0  0  0  0  0  0  0  0  0
   10.9423  -17.3930   21.3980 C   0  0  0  0  0  0  0  0  0  0  0  0
   11.6953  -17.5664   22.6963 C   0  0  1  0  0  0  0  0  0  0  0  0
   12.5747  -16.4896   22.8029 O   0  0  0  0  0  0  0  0  0  0  0  0
   10.7715  -17.5004   23.9015 C   0  0  2  0  0  0  0  0  0  0  0  0
   10.1986  -16.1840   23.9278 N   0  0  0  0  0  0  0  0  0  0  0  0
   11.5366  -17.8094   25.1384 C   0  0  0  0  0  0  0  0  0  0  0  0
   11.7327  -16.9549   26.0137 O   0  0  0  0  0  0  0  0  0  0  0  0
   12.0361  -19.0860   25.3031 O   0  0  0  0  0  0  0  0  0  0  0  0
  1  2  1  0
  2  3  1  0
  3  4  2  0
  6  5  1  0
  6  7  2  0
  8  7  1  0
  9 10  1  0
  9  8  2  0
 11 10  1  1
 11 13  1  0
 12 11  1  0
 12  3  1  0
 13 14  2  0
 15 16  2  0
 15  9  1  0
 16  6  1  0
 18 17  1  6
 18 20  1  0
 19 18  1  0
 20 22  1  0
 21 13  1  0
 20 21  1  1
 22 23  2  0
 22 24  1  0
M  END
$$$$
