GYT.pdb
     RDKit          3D

 24 24  0  0  1  0  0  0  0  0999 V2000
    4.8631  -20.3470   22.1489 N   0  0  0  0  0  0  0  0  0  0  0  0
    5.3822  -20.0657   23.4723 C   0  0  0  0  0  0  0  0  0  0  0  0
    6.0946  -18.7512   23.4848 C   0  0  0  0  0  0  0  0  0  0  0  0
    6.3208  -18.1470   22.4224 O   0  0  0  0  0  0  0  0  0  0  0  0
    7.4840  -10.8124   26.4160 O   0  0  0  0  0  0  0  0  0  0  0  0
    7.3421  -12.1945   26.3694 C   0  0  0  0  0  0  0  0  0  0  0  0
    8.4414  -13.0099   26.6367 C   0  0  0  0  0  0  0  0  0  0  0  0
    8.2643  -14.3770   26.5814 C   0  0  0  0  0  0  0  0  0  0  0  0
    7.0299  -14.9085   26.2696 C   0  0  0  0  0  0  0  0  0  0  0  0
    6.8657  -16.3802   26.2168 C   0  0  0  0  0  0  0  0  0  0  0  0
    7.1846  -16.9235   24.8368 C   0  0  2  0  0  0  0  0  0  0  0  0
    6.5103  -18.1979   24.7132 N   0  0  0  0  0  0  0  0  0  0  0  0
    8.6507  -17.0673   24.6439 C   0  0  0  0  0  0  0  0  0  0  0  0
    9.3461  -17.8559   25.3591 O   0  0  0  0  0  0  0  0  0  0  0  0
    5.9308  -14.1073   26.0023 C   0  0  0  0  0  0  0  0  0  0  0  0
    6.1133  -12.7397   26.0589 C   0  0  0  0  0  0  0  0  0  0  0  0
   10.0327  -16.8312   20.9110 C   0  0  0  0  0  0  0  0  0  0  0  0
   10.9077  -16.0699   21.8793 C   0  0  1  0  0  0  0  0  0  0  0  0
   10.4914  -14.7396   21.8435 O   0  0  0  0  0  0  0  0  0  0  0  0
   10.7226  -16.5500   23.3095 C   0  0  2  0  0  0  0  0  0  0  0  0
    9.3459  -16.3352   23.6564 N   0  0  0  0  0  0  0  0  0  0  0  0
   11.6535  -15.8186   24.2092 C   0  0  0  0  0  0  0  0  0  0  0  0
   12.8830  -15.9030   24.0823 O   0  0  0  0  0  0  0  0  0  0  0  0
   11.1204  -15.0283   25.2080 O   0  0  0  0  0  0  0  0  0  0  0  0
  1  2  1  0
  2  3  1  0
  3  4  2  0
  6  5  1  0
  6  7  2  0
  8  7  1  0
  9 10  1  0
  9  8  2  0
 11 10  1  1
 11 13  1  0
 12 11  1  0
 12  3  1  0
 13 14  2  0
 15 16  2  0
 15  9  1  0
 16  6  1  0
 18 17  1  6
 18 20  1  0
 19 18  1  0
 20 22  1  0
 21 13  1  0
 20 21  1  1
 22 23  2  0
 22 24  1  0
M  END
$$$$
