GYT.pdb
     RDKit          3D

 24 24  0  0  1  0  0  0  0  0999 V2000
    7.8773  -13.0337   19.3851 N   0  0  0  0  0  0  0  0  0  0  0  0
    7.1376  -13.7926   20.3735 C   0  0  0  0  0  0  0  0  0  0  0  0
    8.0248  -14.1618   21.5190 C   0  0  0  0  0  0  0  0  0  0  0  0
    9.2403  -13.9050   21.4828 O   0  0  0  0  0  0  0  0  0  0  0  0
    6.1895  -10.1414   27.0638 O   0  0  0  0  0  0  0  0  0  0  0  0
    6.4666  -11.4023   26.5482 C   0  0  0  0  0  0  0  0  0  0  0  0
    7.7915  -11.7920   26.3543 C   0  0  0  0  0  0  0  0  0  0  0  0
    8.0295  -13.0502   25.8409 C   0  0  0  0  0  0  0  0  0  0  0  0
    6.9779  -13.8884   25.5328 C   0  0  0  0  0  0  0  0  0  0  0  0
    7.2601  -15.2350   24.9826 C   0  0  0  0  0  0  0  0  0  0  0  0
    8.2348  -15.1656   23.8223 C   0  0  2  0  0  0  0  0  0  0  0  0
    7.4731  -14.8055   22.6458 N   0  0  0  0  0  0  0  0  0  0  0  0
    8.9372  -16.4614   23.6351 C   0  0  0  0  0  0  0  0  0  0  0  0
    8.3140  -17.5697   23.6534 O   0  0  0  0  0  0  0  0  0  0  0  0
    5.6574  -13.5112   25.7217 C   0  0  0  0  0  0  0  0  0  0  0  0
    5.4246  -12.2509   26.2357 C   0  0  0  0  0  0  0  0  0  0  0  0
   11.4315  -17.1859   20.8442 C   0  0  0  0  0  0  0  0  0  0  0  0
   12.0902  -17.5169   22.1630 C   0  0  1  0  0  0  0  0  0  0  0  0
   12.8382  -16.4006   22.5351 O   0  0  0  0  0  0  0  0  0  0  0  0
   11.0692  -17.7490   23.2649 C   0  0  2  0  0  0  0  0  0  0  0  0
   10.3325  -16.5273   23.4275 N   0  0  0  0  0  0  0  0  0  0  0  0
   11.7630  -18.1620   24.5135 C   0  0  0  0  0  0  0  0  0  0  0  0
   11.7157  -17.4744   25.5429 O   0  0  0  0  0  0  0  0  0  0  0  0
   12.4751  -19.3449   24.5117 O   0  0  0  0  0  0  0  0  0  0  0  0
  1  2  1  0
  2  3  1  0
  3  4  2  0
  6  5  1  0
  6  7  2  0
  8  7  1  0
  9 10  1  0
  9  8  2  0
 11 10  1  1
 11 13  1  0
 12 11  1  0
 12  3  1  0
 13 14  2  0
 15 16  2  0
 15  9  1  0
 16  6  1  0
 18 17  1  6
 18 20  1  0
 19 18  1  0
 20 22  1  0
 21 13  1  0
 20 21  1  1
 22 23  2  0
 22 24  1  0
M  END
$$$$
