GYT.pdb
     RDKit          3D

 24 24  0  0  1  0  0  0  0  0999 V2000
    7.5145  -13.0712   19.3792 N   0  0  0  0  0  0  0  0  0  0  0  0
    6.9224  -13.7403   20.5202 C   0  0  0  0  0  0  0  0  0  0  0  0
    7.9291  -13.8937   21.6151 C   0  0  0  0  0  0  0  0  0  0  0  0
    9.1439  -13.7921   21.3729 O   0  0  0  0  0  0  0  0  0  0  0  0
   10.7806  -15.0549   29.8484 O   0  0  0  0  0  0  0  0  0  0  0  0
   10.0047  -14.8041   28.7225 C   0  0  0  0  0  0  0  0  0  0  0  0
   10.0339  -13.5409   28.1325 C   0  0  0  0  0  0  0  0  0  0  0  0
    9.2513  -13.3274   27.0165 C   0  0  0  0  0  0  0  0  0  0  0  0
    8.4673  -14.3432   26.5096 C   0  0  0  0  0  0  0  0  0  0  0  0
    7.6357  -14.0884   25.3099 C   0  0  0  0  0  0  0  0  0  0  0  0
    8.3817  -14.4356   24.0355 C   0  0  2  0  0  0  0  0  0  0  0  0
    7.4913  -14.1555   22.9297 N   0  0  0  0  0  0  0  0  0  0  0  0
    8.8101  -15.8582   24.0368 C   0  0  0  0  0  0  0  0  0  0  0  0
    7.9706  -16.8104   24.1117 O   0  0  0  0  0  0  0  0  0  0  0  0
    8.4308  -15.6023   27.0882 C   0  0  0  0  0  0  0  0  0  0  0  0
    9.2158  -15.8108   28.2048 C   0  0  0  0  0  0  0  0  0  0  0  0
   10.5199  -17.6666   21.4394 C   0  0  0  0  0  0  0  0  0  0  0  0
   11.4151  -17.7807   22.6512 C   0  0  1  0  0  0  0  0  0  0  0  0
   12.3437  -16.7438   22.5694 O   0  0  0  0  0  0  0  0  0  0  0  0
   10.6452  -17.5801   23.9464 C   0  0  2  0  0  0  0  0  0  0  0  0
   10.1715  -16.2247   23.9550 N   0  0  0  0  0  0  0  0  0  0  0  0
   11.5267  -17.8789   25.1059 C   0  0  0  0  0  0  0  0  0  0  0  0
   11.8929  -16.9934   25.8911 O   0  0  0  0  0  0  0  0  0  0  0  0
   11.9405  -19.1817   25.3010 O   0  0  0  0  0  0  0  0  0  0  0  0
  1  2  1  0
  2  3  1  0
  3  4  2  0
  6  5  1  0
  6  7  2  0
  8  7  1  0
  9 10  1  0
  9  8  2  0
 11 10  1  1
 11 13  1  0
 12 11  1  0
 12  3  1  0
 13 14  2  0
 15 16  2  0
 15  9  1  0
 16  6  1  0
 18 17  1  6
 18 20  1  0
 19 18  1  0
 20 22  1  0
 21 13  1  0
 20 21  1  1
 22 23  2  0
 22 24  1  0
M  END
$$$$
