GYT.pdb
     RDKit          3D

 24 24  0  0  1  0  0  0  0  0999 V2000
    7.6666  -13.1167   19.8191 N   0  0  0  0  0  0  0  0  0  0  0  0
    7.0271  -13.9528   20.8151 C   0  0  0  0  0  0  0  0  0  0  0  0
    7.9848  -14.2777   21.9164 C   0  0  0  0  0  0  0  0  0  0  0  0
    9.1955  -14.0244   21.7938 O   0  0  0  0  0  0  0  0  0  0  0  0
    6.1113   -9.9770   27.0151 O   0  0  0  0  0  0  0  0  0  0  0  0
    6.4315  -11.2731   26.6272 C   0  0  0  0  0  0  0  0  0  0  0  0
    5.4347  -12.1082   26.1237 C   0  0  0  0  0  0  0  0  0  0  0  0
    5.7882  -13.3879   25.7486 C   0  0  0  0  0  0  0  0  0  0  0  0
    7.0939  -13.8159   25.8734 C   0  0  0  0  0  0  0  0  0  0  0  0
    7.4479  -15.1951   25.4634 C   0  0  0  0  0  0  0  0  0  0  0  0
    8.3411  -15.1959   24.2373 C   0  0  2  0  0  0  0  0  0  0  0  0
    7.5056  -14.8754   23.1001 N   0  0  0  0  0  0  0  0  0  0  0  0
    9.0094  -16.5114   24.0628 C   0  0  0  0  0  0  0  0  0  0  0  0
    8.3451  -17.5882   23.9351 O   0  0  0  0  0  0  0  0  0  0  0  0
    8.0924  -12.9941   26.3726 C   0  0  0  0  0  0  0  0  0  0  0  0
    7.7334  -11.7143   26.7466 C   0  0  0  0  0  0  0  0  0  0  0  0
   11.7462  -17.2169   21.5596 C   0  0  0  0  0  0  0  0  0  0  0  0
   12.2532  -17.6550   22.9137 C   0  0  1  0  0  0  0  0  0  0  0  0
   13.0247  -16.6081   23.4168 O   0  0  0  0  0  0  0  0  0  0  0  0
   11.1182  -17.8777   23.8999 C   0  0  2  0  0  0  0  0  0  0  0  0
   10.4160  -16.6320   24.0300 N   0  0  0  0  0  0  0  0  0  0  0  0
   11.6662  -18.3566   25.1965 C   0  0  0  0  0  0  0  0  0  0  0  0
   11.6421  -17.6508   26.2144 O   0  0  0  0  0  0  0  0  0  0  0  0
   12.2132  -19.6230   25.2537 O   0  0  0  0  0  0  0  0  0  0  0  0
  1  2  1  0
  2  3  1  0
  3  4  2  0
  6  5  1  0
  6  7  2  0
  8  7  1  0
  9 10  1  0
  9  8  2  0
 11 10  1  1
 11 13  1  0
 12 11  1  0
 12  3  1  0
 13 14  2  0
 15 16  2  0
 15  9  1  0
 16  6  1  0
 18 17  1  6
 18 20  1  0
 19 18  1  0
 20 22  1  0
 21 13  1  0
 20 21  1  1
 22 23  2  0
 22 24  1  0
M  END
$$$$
