GYT.pdb
     RDKit          3D

 24 24  0  0  1  0  0  0  0  0999 V2000
    4.8826  -16.8982   20.5909 N   0  0  0  0  0  0  0  0  0  0  0  0
    5.1355  -17.2081   21.9837 C   0  0  0  0  0  0  0  0  0  0  0  0
    6.4123  -16.5746   22.4356 C   0  0  0  0  0  0  0  0  0  0  0  0
    7.1854  -16.0575   21.6112 O   0  0  0  0  0  0  0  0  0  0  0  0
    6.0104  -10.4802   26.6252 O   0  0  0  0  0  0  0  0  0  0  0  0
    6.4286  -11.7913   26.4284 C   0  0  0  0  0  0  0  0  0  0  0  0
    5.5901  -12.8445   26.7921 C   0  0  0  0  0  0  0  0  0  0  0  0
    6.0375  -14.1325   26.5825 C   0  0  0  0  0  0  0  0  0  0  0  0
    7.2807  -14.3578   26.0282 C   0  0  0  0  0  0  0  0  0  0  0  0
    7.7380  -15.7507   25.8133 C   0  0  0  0  0  0  0  0  0  0  0  0
    7.9720  -16.0356   24.3418 C   0  0  2  0  0  0  0  0  0  0  0  0
    6.7363  -16.5666   23.8079 N   0  0  0  0  0  0  0  0  0  0  0  0
    9.0956  -16.9892   24.1533 C   0  0  0  0  0  0  0  0  0  0  0  0
    9.0668  -18.1630   24.6416 O   0  0  0  0  0  0  0  0  0  0  0  0
    8.1220  -13.3184   25.6631 C   0  0  0  0  0  0  0  0  0  0  0  0
    7.6696  -12.0311   25.8750 C   0  0  0  0  0  0  0  0  0  0  0  0
   13.4597  -17.7105   21.8237 C   0  0  0  0  0  0  0  0  0  0  0  0
   12.2395  -16.8747   22.1326 C   0  0  1  0  0  0  0  0  0  0  0  0
   11.4859  -16.8076   20.9614 O   0  0  0  0  0  0  0  0  0  0  0  0
   11.3578  -17.5253   23.1859 C   0  0  2  0  0  0  0  0  0  0  0  0
   10.2523  -16.6399   23.4224 N   0  0  0  0  0  0  0  0  0  0  0  0
   12.1514  -17.7810   24.4171 C   0  0  0  0  0  0  0  0  0  0  0  0
   12.6452  -18.8920   24.6548 O   0  0  0  0  0  0  0  0  0  0  0  0
   12.3351  -16.7442   25.3103 O   0  0  0  0  0  0  0  0  0  0  0  0
  1  2  1  0
  2  3  1  0
  3  4  2  0
  6  5  1  0
  6  7  2  0
  8  7  1  0
  9 10  1  0
  9  8  2  0
 11 10  1  1
 11 13  1  0
 12 11  1  0
 12  3  1  0
 13 14  2  0
 15 16  2  0
 15  9  1  0
 16  6  1  0
 18 17  1  6
 18 20  1  0
 19 18  1  0
 20 22  1  0
 21 13  1  0
 20 21  1  1
 22 23  2  0
 22 24  1  0
M  END
$$$$
