GYT.pdb
     RDKit          3D

 24 24  0  0  1  0  0  0  0  0999 V2000
    7.9351  -12.6010   18.3688 N   0  0  0  0  0  0  0  0  0  0  0  0
    7.3077  -13.6446   19.1544 C   0  0  0  0  0  0  0  0  0  0  0  0
    8.0004  -13.7945   20.4710 C   0  0  0  0  0  0  0  0  0  0  0  0
    9.2379  -13.7064   20.5455 O   0  0  0  0  0  0  0  0  0  0  0  0
    8.8102  -13.6172   29.1663 O   0  0  0  0  0  0  0  0  0  0  0  0
    8.2999  -13.6601   27.8739 C   0  0  0  0  0  0  0  0  0  0  0  0
    7.8780  -14.8771   27.3393 C   0  0  0  0  0  0  0  0  0  0  0  0
    7.3770  -14.8825   26.0539 C   0  0  0  0  0  0  0  0  0  0  0  0
    7.3012  -13.7106   25.3297 C   0  0  0  0  0  0  0  0  0  0  0  0
    6.7591  -13.7432   23.9510 C   0  0  0  0  0  0  0  0  0  0  0  0
    7.8103  -14.1917   22.9535 C   0  0  2  0  0  0  0  0  0  0  0  0
    7.2393  -14.0372   21.6328 N   0  0  0  0  0  0  0  0  0  0  0  0
    8.2200  -15.5978   23.2036 C   0  0  0  0  0  0  0  0  0  0  0  0
    7.3830  -16.5546   23.1734 O   0  0  0  0  0  0  0  0  0  0  0  0
    7.7178  -12.4958   25.8514 C   0  0  0  0  0  0  0  0  0  0  0  0
    8.2184  -12.4957   27.1382 C   0  0  0  0  0  0  0  0  0  0  0  0
   10.5992  -17.6213   21.3402 C   0  0  0  0  0  0  0  0  0  0  0  0
   11.1144  -17.5922   22.7602 C   0  0  1  0  0  0  0  0  0  0  0  0
   12.0363  -16.5489   22.8366 O   0  0  0  0  0  0  0  0  0  0  0  0
   10.0115  -17.2782   23.7578 C   0  0  2  0  0  0  0  0  0  0  0  0
    9.5598  -15.9424   23.4874 N   0  0  0  0  0  0  0  0  0  0  0  0
   10.5292  -17.4309   25.1433 C   0  0  0  0  0  0  0  0  0  0  0  0
   10.6546  -16.4601   25.9026 O   0  0  0  0  0  0  0  0  0  0  0  0
   10.8755  -18.6934   25.5824 O   0  0  0  0  0  0  0  0  0  0  0  0
  1  2  1  0
  2  3  1  0
  3  4  2  0
  6  5  1  0
  6  7  2  0
  8  7  1  0
  9 10  1  0
  9  8  2  0
 11 10  1  1
 11 13  1  0
 12 11  1  0
 12  3  1  0
 13 14  2  0
 15 16  2  0
 15  9  1  0
 16  6  1  0
 18 17  1  6
 18 20  1  0
 19 18  1  0
 20 22  1  0
 21 13  1  0
 20 21  1  1
 22 23  2  0
 22 24  1  0
M  END
$$$$
