GYT.pdb
     RDKit          3D

 24 24  0  0  1  0  0  0  0  0999 V2000
    9.7455  -17.2655   18.7073 N   0  0  0  0  0  0  0  0  0  0  0  0
    8.5422  -17.0339   19.4809 C   0  0  0  0  0  0  0  0  0  0  0  0
    8.8756  -16.3682   20.7775 C   0  0  0  0  0  0  0  0  0  0  0  0
   10.0547  -16.2961   21.1639 O   0  0  0  0  0  0  0  0  0  0  0  0
    7.3511  -11.8164   28.1382 O   0  0  0  0  0  0  0  0  0  0  0  0
    7.2436  -12.4283   26.8946 C   0  0  0  0  0  0  0  0  0  0  0  0
    8.1434  -12.0957   25.8825 C   0  0  0  0  0  0  0  0  0  0  0  0
    8.0072  -12.7225   24.6610 C   0  0  0  0  0  0  0  0  0  0  0  0
    7.0053  -13.6496   24.4605 C   0  0  0  0  0  0  0  0  0  0  0  0
    6.8803  -14.3088   23.1393 C   0  0  0  0  0  0  0  0  0  0  0  0
    8.0430  -15.2470   22.8767 C   0  0  2  0  0  0  0  0  0  0  0  0
    7.8411  -15.8201   21.5634 N   0  0  0  0  0  0  0  0  0  0  0  0
    8.1255  -16.3020   23.9195 C   0  0  0  0  0  0  0  0  0  0  0  0
    7.1583  -17.0957   24.1470 O   0  0  0  0  0  0  0  0  0  0  0  0
    6.1058  -13.9875   25.4595 C   0  0  0  0  0  0  0  0  0  0  0  0
    6.2464  -13.3574   26.6801 C   0  0  0  0  0  0  0  0  0  0  0  0
    9.9072  -19.2285   23.9810 C   0  0  0  0  0  0  0  0  0  0  0  0
   10.4231  -18.5070   25.2041 C   0  0  1  0  0  0  0  0  0  0  0  0
   11.5577  -17.7989   24.8098 O   0  0  0  0  0  0  0  0  0  0  0  0
    9.4252  -17.4846   25.7230 C   0  0  2  0  0  0  0  0  0  0  0  0
    9.2823  -16.4767   24.7105 N   0  0  0  0  0  0  0  0  0  0  0  0
    9.9049  -16.9253   27.0145 C   0  0  0  0  0  0  0  0  0  0  0  0
   10.2722  -15.7467   27.1177 O   0  0  0  0  0  0  0  0  0  0  0  0
    9.9367  -17.7522   28.1199 O   0  0  0  0  0  0  0  0  0  0  0  0
  1  2  1  0
  2  3  1  0
  3  4  2  0
  6  5  1  0
  6  7  2  0
  8  7  1  0
  9 10  1  0
  9  8  2  0
 11 10  1  1
 11 13  1  0
 12 11  1  0
 12  3  1  0
 13 14  2  0
 15 16  2  0
 15  9  1  0
 16  6  1  0
 18 17  1  6
 18 20  1  0
 19 18  1  0
 20 22  1  0
 21 13  1  0
 20 21  1  6
 22 23  2  0
 22 24  1  0
M  END
$$$$
