GYT.pdb
     RDKit          3D

 24 24  0  0  1  0  0  0  0  0999 V2000
    4.5278  -17.8156   21.7606 N   0  0  0  0  0  0  0  0  0  0  0  0
    5.0939  -17.8769   23.0932 C   0  0  0  0  0  0  0  0  0  0  0  0
    6.3513  -17.0710   23.1634 C   0  0  0  0  0  0  0  0  0  0  0  0
    6.8316  -16.5618   22.1363 O   0  0  0  0  0  0  0  0  0  0  0  0
    5.8580  -10.8363   26.8088 O   0  0  0  0  0  0  0  0  0  0  0  0
    6.4698  -12.0694   26.6146 C   0  0  0  0  0  0  0  0  0  0  0  0
    5.7399  -13.2405   26.8154 C   0  0  0  0  0  0  0  0  0  0  0  0
    6.3790  -14.4464   26.6135 C   0  0  0  0  0  0  0  0  0  0  0  0
    7.7022  -14.4781   26.2243 C   0  0  0  0  0  0  0  0  0  0  0  0
    8.3658  -15.7862   26.0141 C   0  0  0  0  0  0  0  0  0  0  0  0
    8.2696  -16.2292   24.5664 C   0  0  2  0  0  0  0  0  0  0  0  0
    6.9925  -16.8906   24.4062 N   0  0  0  0  0  0  0  0  0  0  0  0
    9.3939  -17.1315   24.2070 C   0  0  0  0  0  0  0  0  0  0  0  0
    9.5683  -18.2486   24.7889 O   0  0  0  0  0  0  0  0  0  0  0  0
    8.4369  -13.3202   26.0220 C   0  0  0  0  0  0  0  0  0  0  0  0
    7.7927  -12.1159   26.2253 C   0  0  0  0  0  0  0  0  0  0  0  0
   10.6196  -17.2271   20.3998 C   0  0  0  0  0  0  0  0  0  0  0  0
   11.7836  -17.1960   21.3624 C   0  0  1  0  0  0  0  0  0  0  0  0
   12.1797  -15.8641   21.4782 O   0  0  0  0  0  0  0  0  0  0  0  0
   11.3819  -17.6576   22.7539 C   0  0  2  0  0  0  0  0  0  0  0  0
   10.3256  -16.7938   23.2010 N   0  0  0  0  0  0  0  0  0  0  0  0
   12.5634  -17.6205   23.6559 C   0  0  0  0  0  0  0  0  0  0  0  0
   13.5379  -18.3658   23.4841 O   0  0  0  0  0  0  0  0  0  0  0  0
   12.5612  -16.7272   24.7087 O   0  0  0  0  0  0  0  0  0  0  0  0
  1  2  1  0
  2  3  1  0
  3  4  2  0
  6  5  1  0
  6  7  2  0
  8  7  1  0
  9 10  1  0
  9  8  2  0
 11 10  1  1
 11 13  1  0
 12 11  1  0
 12  3  1  0
 13 14  2  0
 15 16  2  0
 15  9  1  0
 16  6  1  0
 18 17  1  6
 18 20  1  0
 19 18  1  0
 20 22  1  0
 21 13  1  0
 20 21  1  1
 22 23  2  0
 22 24  1  0
M  END
$$$$
