GYT.pdb
     RDKit          3D

 24 24  0  0  1  0  0  0  0  0999 V2000
    8.8584  -16.5130   17.8788 N   0  0  0  0  0  0  0  0  0  0  0  0
    7.8054  -16.5720   18.8727 C   0  0  0  0  0  0  0  0  0  0  0  0
    8.2828  -16.0081   20.1726 C   0  0  0  0  0  0  0  0  0  0  0  0
    9.4973  -15.9680   20.4339 O   0  0  0  0  0  0  0  0  0  0  0  0
    7.4119  -12.1859   28.0590 O   0  0  0  0  0  0  0  0  0  0  0  0
    7.1951  -12.6760   26.7763 C   0  0  0  0  0  0  0  0  0  0  0  0
    7.8147  -12.0606   25.6892 C   0  0  0  0  0  0  0  0  0  0  0  0
    7.5770  -12.5735   24.4307 C   0  0  0  0  0  0  0  0  0  0  0  0
    6.7480  -13.6642   24.2670 C   0  0  0  0  0  0  0  0  0  0  0  0
    6.5089  -14.1961   22.9048 C   0  0  0  0  0  0  0  0  0  0  0  0
    7.6979  -14.9953   22.4062 C   0  0  2  0  0  0  0  0  0  0  0  0
    7.3442  -15.5200   21.1047 N   0  0  0  0  0  0  0  0  0  0  0  0
    8.0438  -16.0870   23.3527 C   0  0  0  0  0  0  0  0  0  0  0  0
    7.2194  -17.0122   23.6381 O   0  0  0  0  0  0  0  0  0  0  0  0
    6.1272  -14.2834   25.3406 C   0  0  0  0  0  0  0  0  0  0  0  0
    6.3684  -13.7662   26.5980 C   0  0  0  0  0  0  0  0  0  0  0  0
   10.5843  -18.5761   22.9779 C   0  0  0  0  0  0  0  0  0  0  0  0
   10.9215  -17.8762   24.2738 C   0  0  1  0  0  0  0  0  0  0  0  0
   11.8356  -16.8692   23.9659 O   0  0  0  0  0  0  0  0  0  0  0  0
    9.7071  -17.1958   24.8841 C   0  0  2  0  0  0  0  0  0  0  0  0
    9.3058  -16.1521   23.9832 N   0  0  0  0  0  0  0  0  0  0  0  0
   10.0481  -16.6770   26.2352 C   0  0  0  0  0  0  0  0  0  0  0  0
   10.1505  -15.4631   26.4602 O   0  0  0  0  0  0  0  0  0  0  0  0
   10.2533  -17.5829   27.2568 O   0  0  0  0  0  0  0  0  0  0  0  0
  1  2  1  0
  2  3  1  0
  3  4  2  0
  6  5  1  0
  6  7  2  0
  8  7  1  0
  9 10  1  0
  9  8  2  0
 11 10  1  1
 11 13  1  0
 12 11  1  0
 12  3  1  0
 13 14  2  0
 15 16  2  0
 15  9  1  0
 16  6  1  0
 18 17  1  6
 18 20  1  0
 19 18  1  0
 20 22  1  0
 21 13  1  0
 20 21  1  6
 22 23  2  0
 22 24  1  0
M  END
$$$$
