YRQ.pdb
     RDKit          3D

 33 33  0  0  1  0  0  0  0  0999 V2000
   28.2010  -19.8820   -3.1960 O   0  0  0  0  0  0  0  0  0  0  0  0
   28.0982  -19.8303   -4.5756 C   0  0  0  0  0  0  0  0  0  0  0  0
   27.0337  -20.3939   -5.2103 C   0  0  0  0  0  0  0  0  0  0  0  0
   26.9310  -20.3424   -6.5833 C   0  0  0  0  0  0  0  0  0  0  0  0
   27.8925  -19.7238   -7.3690 C   0  0  0  0  0  0  0  0  0  0  0  0
   27.7018  -19.7255   -8.8112 C   0  0  0  0  0  0  0  0  0  0  0  0
   27.6877  -21.0482   -9.4930 C   0  0  2  0  0  0  0  0  0  0  0  0
   28.9961  -21.6450   -9.2736 N   0  0  0  0  0  0  0  0  0  0  0  0
   27.3600  -21.0099  -10.9350 C   0  0  0  0  0  0  0  0  0  0  0  0
   28.2567  -20.8121  -11.7925 O   0  0  0  0  0  0  0  0  0  0  0  0
   28.9541  -19.1655   -6.6887 C   0  0  0  0  0  0  0  0  0  0  0  0
   29.0892  -19.1981   -5.3170 C   0  0  0  0  0  0  0  0  0  0  0  0
   21.9730  -23.6524  -14.9329 N   0  0  0  0  0  0  0  0  0  0  0  0
   22.6883  -24.7878  -14.4693 C   0  0  0  0  0  0  0  0  0  0  0  0
   22.1509  -25.7994  -13.8826 N   0  0  0  0  0  0  0  0  0  0  0  0
   24.0952  -24.9058  -14.6183 N   0  0  0  0  0  0  0  0  0  0  0  0
   24.8964  -23.9881  -15.3359 C   0  0  0  0  0  0  0  0  0  0  0  0
   25.0926  -22.6412  -14.8306 C   0  0  0  0  0  0  0  0  0  0  0  0
   25.4832  -22.5010  -13.3989 C   0  0  0  0  0  0  0  0  0  0  0  0
   25.6978  -21.1862  -12.8132 C   0  0  2  0  0  0  0  0  0  0  0  0
   26.0311  -21.1909  -11.4096 N   0  0  0  0  0  0  0  0  0  0  0  0
   24.5987  -20.2134  -12.9991 C   0  0  0  0  0  0  0  0  0  0  0  0
   23.7237  -20.1351  -12.1148 O   0  0  0  0  0  0  0  0  0  0  0  0
   22.7947  -26.6026  -13.6527 N   0  0  0  0  0  0  0  0  0  0  0  0
   24.8603  -15.3997  -16.7066 C   0  0  0  0  0  0  0  0  0  0  0  0
   23.5532  -15.1490  -16.2159 O   0  0  0  0  0  0  0  0  0  0  0  0
   22.9383  -14.1011  -16.5214 C   0  0  0  0  0  0  0  0  0  0  0  0
   22.9399  -16.1842  -15.3208 C   0  0  0  0  0  0  0  0  0  0  0  0
   23.9141  -17.2943  -15.1257 C   0  0  2  0  0  0  0  0  0  0  0  0
   23.4191  -18.3900  -14.2324 N   0  0  0  0  0  0  0  0  0  0  0  0
   24.5063  -19.3834  -14.1264 C   0  0  0  0  0  0  0  0  0  0  0  0
   22.2375  -19.0324  -14.8080 O   0  0  0  0  0  0  0  0  0  0  0  0
   22.3286  -20.0321  -15.5699 O   0  0  0  0  0  0  0  0  0  0  0  0
  2  1  1  0
  3  2  2  0
  4  3  1  0
  5 11  1  0
  5  4  2  0
  6  5  1  0
  7  8  1  6
  7  9  1  0
  7  6  1  0
  9 21  1  0
 10  9  2  0
 11 12  2  0
 12  2  1  0
 13 14  1  0
 14 16  1  0
 14 15  2  0
 16 17  1  0
 18 17  1  0
 19 18  1  0
 20 19  1  1
 21 20  1  0
 22 30  1  0
 22 20  1  0
 23 22  2  0
 25 24  1  0
 26 25  2  0
 27 25  1  0
 28 27  1  0
 29 28  1  1
 29 30  1  0
 29 31  1  0
 31 33  1  0
 32 31  2  0
M  END
$$$$
