YRQ.pdb
     RDKit          3D

 33 33  0  0  1  0  0  0  0  0999 V2000
   30.8312  -15.7172  -19.7653 O   0  0  0  0  0  0  0  0  0  0  0  0
   29.9491  -16.4105  -18.9543 C   0  0  0  0  0  0  0  0  0  0  0  0
   28.6238  -16.4630  -19.2619 C   0  0  0  0  0  0  0  0  0  0  0  0
   27.7457  -17.1531  -18.4551 C   0  0  0  0  0  0  0  0  0  0  0  0
   28.1653  -17.8152  -17.3106 C   0  0  0  0  0  0  0  0  0  0  0  0
   27.1641  -18.5115  -16.5175 C   0  0  0  0  0  0  0  0  0  0  0  0
   27.4245  -19.9413  -16.1980 C   0  0  2  0  0  0  0  0  0  0  0  0
   27.4342  -20.6571  -17.4645 N   0  0  0  0  0  0  0  0  0  0  0  0
   26.4714  -20.5586  -15.2501 C   0  0  0  0  0  0  0  0  0  0  0  0
   25.4491  -21.1586  -15.6663 O   0  0  0  0  0  0  0  0  0  0  0  0
   29.5140  -17.7382  -17.0339 C   0  0  0  0  0  0  0  0  0  0  0  0
   30.4208  -17.0574  -17.8183 C   0  0  0  0  0  0  0  0  0  0  0  0
   22.4945  -21.1726   -9.2275 N   0  0  0  0  0  0  0  0  0  0  0  0
   23.2725  -21.2975   -8.0464 C   0  0  0  0  0  0  0  0  0  0  0  0
   22.8627  -21.8479   -6.9575 N   0  0  0  0  0  0  0  0  0  0  0  0
   24.6043  -20.8127   -7.9652 N   0  0  0  0  0  0  0  0  0  0  0  0
   25.5165  -20.8158   -9.0455 C   0  0  0  0  0  0  0  0  0  0  0  0
   25.0283  -20.8686  -10.4118 C   0  0  0  0  0  0  0  0  0  0  0  0
   26.0454  -20.8268  -11.5007 C   0  0  0  0  0  0  0  0  0  0  0  0
   25.6397  -20.8687  -12.8976 C   0  0  2  0  0  0  0  0  0  0  0  0
   26.6659  -20.4994  -13.8420 N   0  0  0  0  0  0  0  0  0  0  0  0
   24.4297  -20.0886  -13.2383 C   0  0  0  0  0  0  0  0  0  0  0  0
   24.4875  -18.8458  -13.1617 O   0  0  0  0  0  0  0  0  0  0  0  0
   23.5346  -21.8324   -6.1446 N   0  0  0  0  0  0  0  0  0  0  0  0
   22.8121  -20.5590  -18.5904 C   0  0  0  0  0  0  0  0  0  0  0  0
   21.8060  -20.0875  -17.7086 O   0  0  0  0  0  0  0  0  0  0  0  0
   20.5939  -20.1488  -18.0193 C   0  0  0  0  0  0  0  0  0  0  0  0
   22.2498  -19.5152  -16.3954 C   0  0  0  0  0  0  0  0  0  0  0  0
   21.5613  -20.2426  -15.2926 C   0  0  2  0  0  0  0  0  0  0  0  0
   22.0383  -19.8668  -13.9233 N   0  0  0  0  0  0  0  0  0  0  0  0
   23.2291  -20.6927  -13.6404 C   0  0  0  0  0  0  0  0  0  0  0  0
   21.0100  -20.1497  -12.9219 O   0  0  0  0  0  0  0  0  0  0  0  0
   21.0362  -21.1951  -12.2185 O   0  0  0  0  0  0  0  0  0  0  0  0
  2  1  1  0
  3  2  2  0
  4  3  1  0
  5 11  1  0
  5  4  2  0
  6  5  1  0
  7  8  1  6
  7  9  1  0
  7  6  1  0
  9 21  1  0
 10  9  2  0
 11 12  2  0
 12  2  1  0
 13 14  1  0
 14 16  1  0
 14 15  2  0
 16 17  1  0
 18 17  1  0
 19 18  1  0
 20 19  1  1
 21 20  1  0
 22 30  1  0
 22 20  1  0
 23 22  2  0
 25 24  1  0
 26 25  2  0
 27 25  1  0
 28 27  1  0
 29 28  1  6
 29 30  1  0
 29 31  1  0
 31 33  1  0
 32 31  2  0
M  END
$$$$
