YRQ.pdb
     RDKit          3D

 33 33  0  0  1  0  0  0  0  0999 V2000
   21.4803  -22.0547   -6.4993 O   0  0  0  0  0  0  0  0  0  0  0  0
   22.1225  -21.7328   -7.6827 C   0  0  0  0  0  0  0  0  0  0  0  0
   23.4751  -21.5811   -7.7153 C   0  0  0  0  0  0  0  0  0  0  0  0
   24.1144  -21.2608   -8.8930 C   0  0  0  0  0  0  0  0  0  0  0  0
   23.4199  -21.0809  -10.0803 C   0  0  0  0  0  0  0  0  0  0  0  0
   24.1803  -20.7377  -11.2721 C   0  0  0  0  0  0  0  0  0  0  0  0
   25.6627  -20.8326  -11.1828 C   0  0  2  0  0  0  0  0  0  0  0  0
   26.0867  -19.8405  -10.2071 N   0  0  0  0  0  0  0  0  0  0  0  0
   26.3832  -20.6560  -12.4625 C   0  0  0  0  0  0  0  0  0  0  0  0
   26.7596  -19.5170  -12.8359 O   0  0  0  0  0  0  0  0  0  0  0  0
   22.0526  -21.2433  -10.0055 C   0  0  0  0  0  0  0  0  0  0  0  0
   21.3800  -21.5635   -8.8453 C   0  0  0  0  0  0  0  0  0  0  0  0
   32.2195  -24.9525  -17.2971 N   0  0  0  0  0  0  0  0  0  0  0  0
   31.7257  -24.6707  -15.9961 C   0  0  0  0  0  0  0  0  0  0  0  0
   32.2477  -25.1127  -14.9058 N   0  0  0  0  0  0  0  0  0  0  0  0
   30.5834  -23.8551  -15.7828 N   0  0  0  0  0  0  0  0  0  0  0  0
   29.8716  -23.2018  -16.8151 C   0  0  0  0  0  0  0  0  0  0  0  0
   28.7335  -22.3590  -16.4953 C   0  0  0  0  0  0  0  0  0  0  0  0
   28.2139  -22.4169  -15.0994 C   0  0  0  0  0  0  0  0  0  0  0  0
   27.0937  -21.5834  -14.6889 C   0  0  2  0  0  0  0  0  0  0  0  0
   26.6768  -21.7539  -13.3184 N   0  0  0  0  0  0  0  0  0  0  0  0
   25.8808  -21.6782  -15.5307 C   0  0  0  0  0  0  0  0  0  0  0  0
   24.8699  -22.2265  -15.0499 O   0  0  0  0  0  0  0  0  0  0  0  0
   31.7532  -24.8512  -14.0116 N   0  0  0  0  0  0  0  0  0  0  0  0
   22.9346  -17.3178  -16.1940 C   0  0  0  0  0  0  0  0  0  0  0  0
   21.9635  -18.3481  -16.2824 O   0  0  0  0  0  0  0  0  0  0  0  0
   20.7412  -18.0945  -16.1776 C   0  0  0  0  0  0  0  0  0  0  0  0
   22.4570  -19.7466  -16.5052 C   0  0  0  0  0  0  0  0  0  0  0  0
   23.9458  -19.7323  -16.5578 C   0  0  2  0  0  0  0  0  0  0  0  0
   24.5350  -20.7911  -17.4383 N   0  0  0  0  0  0  0  0  0  0  0  0
   25.8284  -21.1779  -16.8403 C   0  0  0  0  0  0  0  0  0  0  0  0
   24.7666  -20.2724  -18.7865 O   0  0  0  0  0  0  0  0  0  0  0  0
   25.8651  -19.7523  -19.1196 O   0  0  0  0  0  0  0  0  0  0  0  0
  2  1  1  0
  3  2  2  0
  4  3  1  0
  5 11  1  0
  5  4  2  0
  6  5  1  0
  7  8  1  1
  7  9  1  0
  7  6  1  0
  9 21  1  0
 10  9  2  0
 11 12  2  0
 12  2  1  0
 13 14  1  0
 14 16  1  0
 14 15  2  0
 16 17  1  0
 18 17  1  0
 19 18  1  0
 20 19  1  6
 21 20  1  0
 22 30  1  0
 22 20  1  0
 23 22  2  0
 25 24  1  0
 26 25  2  0
 27 25  1  0
 28 27  1  0
 29 28  1  1
 29 30  1  0
 29 31  1  0
 31 33  1  0
 32 31  2  0
M  END
$$$$
