YRQ.pdb
     RDKit          3D

 33 33  0  0  1  0  0  0  0  0999 V2000
   28.7424  -20.2645   -3.9470 O   0  0  0  0  0  0  0  0  0  0  0  0
   28.4233  -20.1713   -5.2909 C   0  0  0  0  0  0  0  0  0  0  0  0
   27.1469  -20.3844   -5.7140 C   0  0  0  0  0  0  0  0  0  0  0  0
   26.8291  -20.2916   -7.0514 C   0  0  0  0  0  0  0  0  0  0  0  0
   27.7802  -19.9818   -8.0125 C   0  0  0  0  0  0  0  0  0  0  0  0
   27.3519  -19.9126   -9.4010 C   0  0  0  0  0  0  0  0  0  0  0  0
   27.4541  -21.1598  -10.2064 C   0  0  2  0  0  0  0  0  0  0  0  0
   28.8728  -21.4160  -10.4012 N   0  0  0  0  0  0  0  0  0  0  0  0
   26.7397  -21.1335  -11.5014 C   0  0  0  0  0  0  0  0  0  0  0  0
   27.3001  -20.6915  -12.5353 O   0  0  0  0  0  0  0  0  0  0  0  0
   29.0603  -19.7733   -7.5439 C   0  0  0  0  0  0  0  0  0  0  0  0
   29.4139  -19.8578   -6.2139 C   0  0  0  0  0  0  0  0  0  0  0  0
   24.9343  -24.6746  -17.2049 N   0  0  0  0  0  0  0  0  0  0  0  0
   24.9521  -25.5888  -16.1186 C   0  0  0  0  0  0  0  0  0  0  0  0
   25.7779  -26.5691  -16.0033 N   0  0  0  0  0  0  0  0  0  0  0  0
   24.0353  -25.4954  -15.0387 N   0  0  0  0  0  0  0  0  0  0  0  0
   23.0633  -24.4767  -14.9095 C   0  0  0  0  0  0  0  0  0  0  0  0
   23.4653  -23.1253  -14.5630 C   0  0  0  0  0  0  0  0  0  0  0  0
   24.3128  -22.9571  -13.3484 C   0  0  0  0  0  0  0  0  0  0  0  0
   24.7082  -21.6314  -12.8967 C   0  0  2  0  0  0  0  0  0  0  0  0
   25.4019  -21.5996  -11.6323 N   0  0  0  0  0  0  0  0  0  0  0  0
   23.6241  -20.6271  -12.8269 C   0  0  0  0  0  0  0  0  0  0  0  0
   22.9525  -20.5553  -11.7792 O   0  0  0  0  0  0  0  0  0  0  0  0
   25.7266  -27.1201  -15.1054 N   0  0  0  0  0  0  0  0  0  0  0  0
   22.4957  -16.3830  -17.1344 C   0  0  0  0  0  0  0  0  0  0  0  0
   21.4928  -15.9676  -16.2211 O   0  0  0  0  0  0  0  0  0  0  0  0
   20.7766  -14.9676  -16.4588 C   0  0  0  0  0  0  0  0  0  0  0  0
   21.3253  -16.7703  -14.9655 C   0  0  0  0  0  0  0  0  0  0  0  0
   22.2914  -17.9042  -14.9830 C   0  0  2  0  0  0  0  0  0  0  0  0
   22.2480  -18.7612  -13.7553 N   0  0  0  0  0  0  0  0  0  0  0  0
   23.3266  -19.7606  -13.8893 C   0  0  0  0  0  0  0  0  0  0  0  0
   20.9633  -19.4536  -13.6532 O   0  0  0  0  0  0  0  0  0  0  0  0
   20.7161  -20.4979  -14.3139 O   0  0  0  0  0  0  0  0  0  0  0  0
  2  1  1  0
  3  2  2  0
  4  3  1  0
  5 11  1  0
  5  4  2  0
  6  5  1  0
  7  8  1  6
  7  9  1  0
  7  6  1  0
  9 21  1  0
 10  9  2  0
 11 12  2  0
 12  2  1  0
 13 14  1  0
 14 16  1  0
 14 15  2  0
 16 17  1  0
 18 17  1  0
 19 18  1  0
 20 19  1  1
 21 20  1  0
 22 30  1  0
 22 20  1  0
 23 22  2  0
 25 24  1  0
 26 25  2  0
 27 25  1  0
 28 27  1  0
 29 28  1  1
 29 30  1  0
 29 31  1  0
 31 33  1  0
 32 31  2  0
M  END
$$$$
