YRQ.pdb
     RDKit          3D

 33 33  0  0  1  0  0  0  0  0999 V2000
   29.1471  -15.4487  -22.1203 O   0  0  0  0  0  0  0  0  0  0  0  0
   28.5515  -16.4207  -21.3348 C   0  0  0  0  0  0  0  0  0  0  0  0
   28.5104  -17.7161  -21.7519 C   0  0  0  0  0  0  0  0  0  0  0  0
   27.9178  -18.6836  -20.9703 C   0  0  0  0  0  0  0  0  0  0  0  0
   27.3450  -18.3866  -19.7423 C   0  0  0  0  0  0  0  0  0  0  0  0
   26.7366  -19.4735  -18.9907 C   0  0  0  0  0  0  0  0  0  0  0  0
   27.6347  -20.2908  -18.1307 C   0  0  2  0  0  0  0  0  0  0  0  0
   27.9683  -21.4851  -18.8914 N   0  0  0  0  0  0  0  0  0  0  0  0
   27.0847  -20.6462  -16.8043 C   0  0  0  0  0  0  0  0  0  0  0  0
   26.4202  -21.7007  -16.6461 O   0  0  0  0  0  0  0  0  0  0  0  0
   27.4072  -17.0644  -19.3559 C   0  0  0  0  0  0  0  0  0  0  0  0
   27.9918  -16.0706  -20.1118 C   0  0  0  0  0  0  0  0  0  0  0  0
   24.2336  -21.0201  -10.8584 N   0  0  0  0  0  0  0  0  0  0  0  0
   25.0658  -21.0360   -9.7081 C   0  0  0  0  0  0  0  0  0  0  0  0
   24.6485  -21.2428   -8.5083 N   0  0  0  0  0  0  0  0  0  0  0  0
   26.4666  -20.8193   -9.7872 N   0  0  0  0  0  0  0  0  0  0  0  0
   27.1745  -20.6420  -10.9982 C   0  0  0  0  0  0  0  0  0  0  0  0
   26.8466  -19.5355  -11.8791 C   0  0  0  0  0  0  0  0  0  0  0  0
   27.4534  -19.5459  -13.2406 C   0  0  0  0  0  0  0  0  0  0  0  0
   26.7502  -20.1502  -14.3622 C   0  0  2  0  0  0  0  0  0  0  0  0
   27.2789  -19.8193  -15.6631 N   0  0  0  0  0  0  0  0  0  0  0  0
   25.2909  -19.9115  -14.4089 C   0  0  0  0  0  0  0  0  0  0  0  0
   24.5880  -20.3703  -13.4873 O   0  0  0  0  0  0  0  0  0  0  0  0
   25.3758  -21.1950   -7.7459 N   0  0  0  0  0  0  0  0  0  0  0  0
   22.4182  -16.5960  -18.7336 C   0  0  0  0  0  0  0  0  0  0  0  0
   21.2574  -16.9867  -18.0181 O   0  0  0  0  0  0  0  0  0  0  0  0
   20.1140  -16.6657  -18.4169 C   0  0  0  0  0  0  0  0  0  0  0  0
   21.4532  -17.7958  -16.7707 C   0  0  0  0  0  0  0  0  0  0  0  0
   22.9079  -18.0614  -16.5890 C   0  0  1  0  0  0  0  0  0  0  0  0
   23.2300  -18.8956  -15.3874 N   0  0  0  0  0  0  0  0  0  0  0  0
   24.6748  -19.1940  -15.4451 C   0  0  0  0  0  0  0  0  0  0  0  0
   22.4799  -20.1514  -15.4138 O   0  0  0  0  0  0  0  0  0  0  0  0
   22.8903  -21.1581  -16.0513 O   0  0  0  0  0  0  0  0  0  0  0  0
  2  1  1  0
  3  2  2  0
  4  3  1  0
  5 11  1  0
  5  4  2  0
  6  5  1  0
  7  8  1  6
  7  9  1  0
  7  6  1  0
  9 21  1  0
 10  9  2  0
 11 12  2  0
 12  2  1  0
 13 14  1  0
 14 16  1  0
 14 15  2  0
 16 17  1  0
 18 17  1  0
 19 18  1  0
 20 19  1  1
 21 20  1  0
 22 30  1  0
 22 20  1  0
 23 22  2  0
 25 24  1  0
 26 25  2  0
 27 25  1  0
 28 27  1  0
 29 28  1  1
 29 30  1  0
 29 31  1  0
 31 33  1  0
 32 31  2  0
M  END
$$$$
