YRQ.pdb
     RDKit          3D

 33 33  0  0  1  0  0  0  0  0999 V2000
   31.7892  -21.0902   -6.7976 O   0  0  0  0  0  0  0  0  0  0  0  0
   30.7429  -20.8165   -7.6618 C   0  0  0  0  0  0  0  0  0  0  0  0
   29.5606  -20.3383   -7.1851 C   0  0  0  0  0  0  0  0  0  0  0  0
   28.5192  -20.0657   -8.0449 C   0  0  0  0  0  0  0  0  0  0  0  0
   28.6261  -20.2633   -9.4139 C   0  0  0  0  0  0  0  0  0  0  0  0
   27.4707  -19.9535  -10.2418 C   0  0  0  0  0  0  0  0  0  0  0  0
   26.4347  -21.0121  -10.3858 C   0  0  2  0  0  0  0  0  0  0  0  0
   27.1098  -22.1882  -10.9124 N   0  0  0  0  0  0  0  0  0  0  0  0
   25.2748  -20.6477  -11.2283 C   0  0  0  0  0  0  0  0  0  0  0  0
   24.5917  -19.6245  -10.9732 O   0  0  0  0  0  0  0  0  0  0  0  0
   29.8386  -20.7484   -9.8567 C   0  0  0  0  0  0  0  0  0  0  0  0
   30.9015  -21.0319   -9.0256 C   0  0  0  0  0  0  0  0  0  0  0  0
   25.2447  -22.0514  -18.6715 N   0  0  0  0  0  0  0  0  0  0  0  0
   24.2904  -21.0065  -18.5564 C   0  0  0  0  0  0  0  0  0  0  0  0
   23.2866  -20.8447  -19.3454 N   0  0  0  0  0  0  0  0  0  0  0  0
   24.3654  -20.0255  -17.5329 N   0  0  0  0  0  0  0  0  0  0  0  0
   25.4089  -19.9498  -16.5819 C   0  0  0  0  0  0  0  0  0  0  0  0
   25.1022  -19.9314  -15.1629 C   0  0  0  0  0  0  0  0  0  0  0  0
   24.1859  -20.9894  -14.6503 C   0  0  0  0  0  0  0  0  0  0  0  0
   23.8210  -21.0374  -13.2423 C   0  0  2  0  0  0  0  0  0  0  0  0
   24.8840  -21.4307  -12.3499 N   0  0  0  0  0  0  0  0  0  0  0  0
   22.6422  -21.8683  -12.9126 C   0  0  0  0  0  0  0  0  0  0  0  0
   22.7862  -23.1057  -12.8676 O   0  0  0  0  0  0  0  0  0  0  0  0
   22.6753  -20.0058  -19.1579 N   0  0  0  0  0  0  0  0  0  0  0  0
   19.9754  -23.0245   -8.9349 C   0  0  0  0  0  0  0  0  0  0  0  0
   18.6752  -23.1740   -9.4820 O   0  0  0  0  0  0  0  0  0  0  0  0
   17.8394  -23.9473   -8.9595 C   0  0  0  0  0  0  0  0  0  0  0  0
   18.3430  -22.3727  -10.7053 C   0  0  0  0  0  0  0  0  0  0  0  0
   19.5551  -21.6212  -11.1359 C   0  0  1  0  0  0  0  0  0  0  0  0
   20.2334  -22.1971  -12.3409 N   0  0  0  0  0  0  0  0  0  0  0  0
   21.3784  -21.3181  -12.6517 C   0  0  0  0  0  0  0  0  0  0  0  0
   19.3225  -22.2201  -13.4854 O   0  0  0  0  0  0  0  0  0  0  0  0
   19.0928  -21.1896  -14.1737 O   0  0  0  0  0  0  0  0  0  0  0  0
  2  1  1  0
  3  2  2  0
  4  3  1  0
  5 11  1  0
  5  4  2  0
  6  5  1  0
  7  8  1  6
  7  9  1  0
  7  6  1  0
  9 21  1  0
 10  9  2  0
 11 12  2  0
 12  2  1  0
 13 14  1  0
 14 16  1  0
 14 15  2  0
 16 17  1  0
 18 17  1  0
 19 18  1  0
 20 19  1  6
 21 20  1  0
 22 30  1  0
 22 20  1  0
 23 22  2  0
 25 24  1  0
 26 25  2  0
 27 25  1  0
 28 27  1  0
 29 28  1  1
 29 30  1  0
 29 31  1  0
 31 33  1  0
 32 31  2  0
M  END
$$$$
