YRQ.pdb
     RDKit          3D

 33 33  0  0  1  0  0  0  0  0999 V2000
   29.3484  -19.8641   -3.4287 O   0  0  0  0  0  0  0  0  0  0  0  0
   28.7578  -19.8063   -4.6795 C   0  0  0  0  0  0  0  0  0  0  0  0
   29.0324  -18.7758   -5.5259 C   0  0  0  0  0  0  0  0  0  0  0  0
   28.4449  -18.7181   -6.7707 C   0  0  0  0  0  0  0  0  0  0  0  0
   27.5605  -19.6919   -7.2113 C   0  0  0  0  0  0  0  0  0  0  0  0
   26.9848  -19.5426   -8.5389 C   0  0  0  0  0  0  0  0  0  0  0  0
   26.9789  -20.7447   -9.4160 C   0  0  2  0  0  0  0  0  0  0  0  0
   28.3684  -21.1349   -9.5988 N   0  0  0  0  0  0  0  0  0  0  0  0
   26.3039  -20.5693  -10.7204 C   0  0  0  0  0  0  0  0  0  0  0  0
   26.5535  -19.5731  -11.4441 O   0  0  0  0  0  0  0  0  0  0  0  0
   27.3088  -20.7182   -6.3253 C   0  0  0  0  0  0  0  0  0  0  0  0
   27.8784  -20.8079   -5.0729 C   0  0  0  0  0  0  0  0  0  0  0  0
   22.8438  -25.7645  -14.7498 N   0  0  0  0  0  0  0  0  0  0  0  0
   24.2417  -25.7579  -14.9980 C   0  0  0  0  0  0  0  0  0  0  0  0
   24.9845  -26.8087  -15.0165 N   0  0  0  0  0  0  0  0  0  0  0  0
   24.9570  -24.5586  -15.2541 N   0  0  0  0  0  0  0  0  0  0  0  0
   24.3568  -23.3552  -15.6909 C   0  0  0  0  0  0  0  0  0  0  0  0
   24.1025  -22.2826  -14.7460 C   0  0  0  0  0  0  0  0  0  0  0  0
   24.7536  -22.3841  -13.4089 C   0  0  0  0  0  0  0  0  0  0  0  0
   24.6212  -21.3106  -12.4353 C   0  0  2  0  0  0  0  0  0  0  0  0
   25.3518  -21.5078  -11.2071 N   0  0  0  0  0  0  0  0  0  0  0  0
   23.2357  -20.9453  -12.0669 C   0  0  0  0  0  0  0  0  0  0  0  0
   22.7745  -21.3844  -10.9953 O   0  0  0  0  0  0  0  0  0  0  0  0
   26.0028  -26.6571  -15.2457 N   0  0  0  0  0  0  0  0  0  0  0  0
   20.0871  -16.3452  -14.5677 C   0  0  0  0  0  0  0  0  0  0  0  0
   19.0365  -16.8218  -13.7423 O   0  0  0  0  0  0  0  0  0  0  0  0
   17.9202  -16.2535  -13.7245 C   0  0  0  0  0  0  0  0  0  0  0  0
   19.3147  -18.0280  -12.8957 C   0  0  0  0  0  0  0  0  0  0  0  0
   20.6832  -18.5303  -13.2032 C   0  0  1  0  0  0  0  0  0  0  0  0
   21.0712  -19.7540  -12.4315 N   0  0  0  0  0  0  0  0  0  0  0  0
   22.4286  -20.1300  -12.8743 C   0  0  0  0  0  0  0  0  0  0  0  0
   20.1523  -20.8567  -12.7144 O   0  0  0  0  0  0  0  0  0  0  0  0
   20.3421  -21.6513  -13.6739 O   0  0  0  0  0  0  0  0  0  0  0  0
  2  1  1  0
  3  2  2  0
  4  3  1  0
  5 11  1  0
  5  4  2  0
  6  5  1  0
  7  8  1  6
  7  9  1  0
  7  6  1  0
  9 21  1  0
 10  9  2  0
 11 12  2  0
 12  2  1  0
 13 14  1  0
 14 16  1  0
 14 15  2  0
 16 17  1  0
 18 17  1  0
 19 18  1  0
 20 19  1  6
 21 20  1  0
 22 30  1  0
 22 20  1  0
 23 22  2  0
 25 24  1  0
 26 25  2  0
 27 25  1  0
 28 27  1  0
 29 28  1  1
 29 30  1  0
 29 31  1  0
 31 33  1  0
 32 31  2  0
M  END
$$$$
