YRQ.pdb
     RDKit          3D

 33 33  0  0  1  0  0  0  0  0999 V2000
   41.6991  -10.1658    3.8417 O   0  0  0  0  0  0  0  0  0  0  0  0
   41.9006   -9.9014    2.4977 C   0  0  0  0  0  0  0  0  0  0  0  0
   42.1574  -10.9148    1.6255 C   0  0  0  0  0  0  0  0  0  0  0  0
   42.3578  -10.6519    0.2880 C   0  0  0  0  0  0  0  0  0  0  0  0
   42.3079   -9.3631   -0.2227 C   0  0  0  0  0  0  0  0  0  0  0  0
   42.5389   -9.1827   -1.6477 C   0  0  0  0  0  0  0  0  0  0  0  0
   43.9010   -9.4939   -2.1597 C   0  0  2  0  0  0  0  0  0  0  0  0
   44.8184   -8.5915   -1.4812 N   0  0  0  0  0  0  0  0  0  0  0  0
   44.0584   -9.4011   -3.6276 C   0  0  0  0  0  0  0  0  0  0  0  0
   44.3898   -8.3179   -4.1710 O   0  0  0  0  0  0  0  0  0  0  0  0
   42.0453   -8.3654    0.6923 C   0  0  0  0  0  0  0  0  0  0  0  0
   41.8398   -8.5917    2.0367 C   0  0  0  0  0  0  0  0  0  0  0  0
   47.4958  -14.5212   -9.6338 N   0  0  0  0  0  0  0  0  0  0  0  0
   46.9654  -14.5981   -8.3191 C   0  0  0  0  0  0  0  0  0  0  0  0
   47.3662  -15.4246   -7.4176 N   0  0  0  0  0  0  0  0  0  0  0  0
   45.9197  -13.7460   -7.8762 N   0  0  0  0  0  0  0  0  0  0  0  0
   45.4310  -12.6421   -8.6121 C   0  0  0  0  0  0  0  0  0  0  0  0
   44.3963  -11.7923   -8.0507 C   0  0  0  0  0  0  0  0  0  0  0  0
   44.3212  -11.7018   -6.5647 C   0  0  0  0  0  0  0  0  0  0  0  0
   43.9819  -10.4453   -5.9136 C   0  0  2  0  0  0  0  0  0  0  0  0
   43.8422  -10.5197   -4.4797 N   0  0  0  0  0  0  0  0  0  0  0  0
   42.7817   -9.7554   -6.4354 C   0  0  0  0  0  0  0  0  0  0  0  0
   41.6621  -10.2303   -6.1619 O   0  0  0  0  0  0  0  0  0  0  0  0
   46.9104  -15.3400   -6.4702 N   0  0  0  0  0  0  0  0  0  0  0  0
   41.1516   -4.6821   -5.3338 C   0  0  0  0  0  0  0  0  0  0  0  0
   42.1994   -4.5400   -6.2794 O   0  0  0  0  0  0  0  0  0  0  0  0
   42.9333   -3.5247   -6.2830 C   0  0  0  0  0  0  0  0  0  0  0  0
   42.3924   -5.6494   -7.2699 C   0  0  0  0  0  0  0  0  0  0  0  0
   41.3930   -6.7203   -6.9986 C   0  0  1  0  0  0  0  0  0  0  0  0
   41.6298   -7.9841   -7.7669 N   0  0  0  0  0  0  0  0  0  0  0  0
   42.8579   -8.5960   -7.2215 C   0  0  0  0  0  0  0  0  0  0  0  0
   41.8280   -7.6962   -9.1874 O   0  0  0  0  0  0  0  0  0  0  0  0
   42.9516   -7.8292   -9.7427 O   0  0  0  0  0  0  0  0  0  0  0  0
  2  1  1  0
  3  2  2  0
  4  3  1  0
  5 11  1  0
  5  4  2  0
  6  5  1  0
  7  8  1  1
  7  9  1  0
  7  6  1  0
  9 21  1  0
 10  9  2  0
 11 12  2  0
 12  2  1  0
 13 14  1  0
 14 16  1  0
 14 15  2  0
 16 17  1  0
 18 17  1  0
 19 18  1  0
 20 19  1  6
 21 20  1  0
 22 30  1  0
 22 20  1  0
 23 22  2  0
 25 24  1  0
 26 25  2  0
 27 25  1  0
 28 27  1  0
 29 28  1  1
 29 30  1  0
 29 31  1  0
 31 33  1  0
 32 31  2  0
M  END
$$$$
