YRQ.pdb
     RDKit          3D

 33 33  0  0  1  0  0  0  0  0999 V2000
   24.2066  -10.5785  -27.4866 O   0  0  0  0  0  0  0  0  0  0  0  0
   23.3374  -10.8430  -26.4419 C   0  0  0  0  0  0  0  0  0  0  0  0
   23.7862  -11.4436  -25.3055 C   0  0  0  0  0  0  0  0  0  0  0  0
   22.9215  -11.7069  -24.2657 C   0  0  0  0  0  0  0  0  0  0  0  0
   21.5755  -11.3772  -24.3285 C   0  0  0  0  0  0  0  0  0  0  0  0
   20.7381  -11.7004  -23.1836 C   0  0  0  0  0  0  0  0  0  0  0  0
   20.1124  -13.0503  -23.1590 C   0  0  2  0  0  0  0  0  0  0  0  0
   19.1034  -13.0620  -24.2069 N   0  0  0  0  0  0  0  0  0  0  0  0
   19.5291  -13.4506  -21.8600 C   0  0  0  0  0  0  0  0  0  0  0  0
   18.3450  -13.1491  -21.5674 O   0  0  0  0  0  0  0  0  0  0  0  0
   21.1606  -10.7708  -25.4954 C   0  0  0  0  0  0  0  0  0  0  0  0
   21.9974  -10.4924  -26.5552 C   0  0  0  0  0  0  0  0  0  0  0  0
   19.0599  -20.7202  -16.5566 N   0  0  0  0  0  0  0  0  0  0  0  0
   18.1724  -19.6221  -16.7066 C   0  0  0  0  0  0  0  0  0  0  0  0
   16.8942  -19.7263  -16.8145 N   0  0  0  0  0  0  0  0  0  0  0  0
   18.6333  -18.2801  -16.7512 N   0  0  0  0  0  0  0  0  0  0  0  0
   19.2164  -17.6793  -17.8906 C   0  0  0  0  0  0  0  0  0  0  0  0
   19.8569  -16.3808  -17.7828 C   0  0  0  0  0  0  0  0  0  0  0  0
   20.3777  -15.7718  -19.0396 C   0  0  0  0  0  0  0  0  0  0  0  0
   19.7029  -14.6357  -19.6493 C   0  0  2  0  0  0  0  0  0  0  0  0
   20.2738  -14.1837  -20.8947 N   0  0  0  0  0  0  0  0  0  0  0  0
   19.5402  -13.4461  -18.7849 C   0  0  0  0  0  0  0  0  0  0  0  0
   20.4011  -12.5470  -18.8497 O   0  0  0  0  0  0  0  0  0  0  0  0
   16.3787  -18.8583  -17.1198 N   0  0  0  0  0  0  0  0  0  0  0  0
   16.9272   -7.9803  -18.5357 C   0  0  0  0  0  0  0  0  0  0  0  0
   18.1730   -8.4917  -18.0899 O   0  0  0  0  0  0  0  0  0  0  0  0
   19.2537   -8.0020  -18.4919 C   0  0  0  0  0  0  0  0  0  0  0  0
   18.1442   -9.6371  -17.1223 C   0  0  0  0  0  0  0  0  0  0  0  0
   18.3656  -10.9073  -17.8686 C   0  0  1  0  0  0  0  0  0  0  0  0
   18.3936  -12.1276  -17.0005 N   0  0  0  0  0  0  0  0  0  0  0  0
   18.4610  -13.2956  -17.9013 C   0  0  0  0  0  0  0  0  0  0  0  0
   17.1772  -12.2153  -16.1924 O   0  0  0  0  0  0  0  0  0  0  0  0
   16.8556  -11.3124  -15.3742 O   0  0  0  0  0  0  0  0  0  0  0  0
  2  1  1  0
  3  2  2  0
  4  3  1  0
  5 11  1  0
  5  4  2  0
  6  5  1  0
  7  8  1  6
  7  9  1  0
  7  6  1  0
  9 21  1  0
 10  9  2  0
 11 12  2  0
 12  2  1  0
 13 14  1  0
 14 16  1  0
 14 15  2  0
 16 17  1  0
 18 17  1  0
 19 18  1  0
 20 19  1  1
 21 20  1  0
 22 30  1  0
 22 20  1  0
 23 22  2  0
 25 24  1  0
 26 25  2  0
 27 25  1  0
 28 27  1  0
 29 28  1  1
 29 30  1  0
 29 31  1  0
 31 33  1  0
 32 31  2  0
M  END
$$$$
