YRQ.pdb
     RDKit          3D

 33 33  0  0  1  0  0  0  0  0999 V2000
   21.4973  -20.9950   -7.4022 O   0  0  0  0  0  0  0  0  0  0  0  0
   22.0079  -20.7314   -8.6618 C   0  0  0  0  0  0  0  0  0  0  0  0
   21.1962  -20.2725   -9.6538 C   0  0  0  0  0  0  0  0  0  0  0  0
   21.7041  -20.0100  -10.9073 C   0  0  0  0  0  0  0  0  0  0  0  0
   23.0445  -20.1985  -11.2109 C   0  0  0  0  0  0  0  0  0  0  0  0
   23.4876  -19.9006  -12.5641 C   0  0  0  0  0  0  0  0  0  0  0  0
   22.8214  -20.6343  -13.6741 C   0  0  2  0  0  0  0  0  0  0  0  0
   22.9558  -22.0521  -13.3775 N   0  0  0  0  0  0  0  0  0  0  0  0
   23.3324  -20.3275  -15.0280 C   0  0  0  0  0  0  0  0  0  0  0  0
   24.1796  -21.0737  -15.5792 O   0  0  0  0  0  0  0  0  0  0  0  0
   23.8330  -20.6640  -10.1798 C   0  0  0  0  0  0  0  0  0  0  0  0
   23.3590  -20.9370   -8.9142 C   0  0  0  0  0  0  0  0  0  0  0  0
   22.0938  -13.9877  -19.1079 N   0  0  0  0  0  0  0  0  0  0  0  0
   20.9819  -14.8218  -18.8186 C   0  0  0  0  0  0  0  0  0  0  0  0
   19.9694  -14.4675  -18.1073 N   0  0  0  0  0  0  0  0  0  0  0  0
   20.8909  -16.1531  -19.3030 N   0  0  0  0  0  0  0  0  0  0  0  0
   21.9290  -16.8176  -19.9957 C   0  0  0  0  0  0  0  0  0  0  0  0
   22.8574  -17.6699  -19.2748 C   0  0  0  0  0  0  0  0  0  0  0  0
   22.5212  -18.0003  -17.8607 C   0  0  0  0  0  0  0  0  0  0  0  0
   23.3849  -18.8698  -17.0759 C   0  0  2  0  0  0  0  0  0  0  0  0
   22.8946  -19.1867  -15.7567 N   0  0  0  0  0  0  0  0  0  0  0  0
   24.7855  -18.4176  -16.9258 C   0  0  0  0  0  0  0  0  0  0  0  0
   25.0175  -17.4572  -16.1658 O   0  0  0  0  0  0  0  0  0  0  0  0
   19.2256  -15.1998  -17.9559 N   0  0  0  0  0  0  0  0  0  0  0  0
   26.7513  -20.9947  -13.3644 C   0  0  0  0  0  0  0  0  0  0  0  0
   28.0913  -20.6269  -13.6497 O   0  0  0  0  0  0  0  0  0  0  0  0
   29.0161  -20.8787  -12.8430 C   0  0  0  0  0  0  0  0  0  0  0  0
   28.3549  -19.9276  -14.9499 C   0  0  0  0  0  0  0  0  0  0  0  0
   27.0698  -19.7778  -15.6885 C   0  0  1  0  0  0  0  0  0  0  0  0
   27.1983  -19.0583  -16.9960 N   0  0  0  0  0  0  0  0  0  0  0  0
   25.8529  -19.0254  -17.6034 C   0  0  0  0  0  0  0  0  0  0  0  0
   28.1107  -19.7707  -17.8906 O   0  0  0  0  0  0  0  0  0  0  0  0
   27.7002  -20.3669  -18.9222 O   0  0  0  0  0  0  0  0  0  0  0  0
  2  1  1  0
  3  2  2  0
  4  3  1  0
  5 11  1  0
  5  4  2  0
  6  5  1  0
  7  8  1  1
  7  9  1  0
  7  6  1  0
  9 21  1  0
 10  9  2  0
 11 12  2  0
 12  2  1  0
 13 14  1  0
 14 16  1  0
 14 15  2  0
 16 17  1  0
 18 17  1  0
 19 18  1  0
 20 19  1  1
 21 20  1  0
 22 30  1  0
 22 20  1  0
 23 22  2  0
 25 24  1  0
 26 25  2  0
 27 25  1  0
 28 27  1  0
 29 28  1  1
 29 30  1  0
 29 31  1  0
 31 33  1  0
 32 31  2  0
M  END
$$$$
