YRQ.pdb
     RDKit          3D

 33 33  0  0  1  0  0  0  0  0999 V2000
   17.4165  -23.5921  -13.0609 O   0  0  0  0  0  0  0  0  0  0  0  0
   18.7137  -23.1417  -13.2366 C   0  0  0  0  0  0  0  0  0  0  0  0
   18.9517  -21.8713  -13.6646 C   0  0  0  0  0  0  0  0  0  0  0  0
   20.2426  -21.4228  -13.8394 C   0  0  0  0  0  0  0  0  0  0  0  0
   21.3413  -22.2325  -13.5914 C   0  0  0  0  0  0  0  0  0  0  0  0
   22.6663  -21.6735  -13.8109 C   0  0  0  0  0  0  0  0  0  0  0  0
   23.3820  -21.1355  -12.6223 C   0  0  2  0  0  0  0  0  0  0  0  0
   22.5400  -20.0872  -12.0669 N   0  0  0  0  0  0  0  0  0  0  0  0
   24.7480  -20.6320  -12.8843 C   0  0  0  0  0  0  0  0  0  0  0  0
   24.9270  -19.5354  -13.4708 O   0  0  0  0  0  0  0  0  0  0  0  0
   21.0584  -23.5113  -13.1596 C   0  0  0  0  0  0  0  0  0  0  0  0
   19.7801  -23.9933  -12.9738 C   0  0  0  0  0  0  0  0  0  0  0  0
   29.9781  -20.9537   -8.3173 N   0  0  0  0  0  0  0  0  0  0  0  0
   30.7210  -21.9473   -9.0078 C   0  0  0  0  0  0  0  0  0  0  0  0
   31.7623  -22.5390   -8.5365 N   0  0  0  0  0  0  0  0  0  0  0  0
   30.3677  -22.3837  -10.3117 N   0  0  0  0  0  0  0  0  0  0  0  0
   30.7438  -21.7166  -11.5002 C   0  0  0  0  0  0  0  0  0  0  0  0
   29.7301  -21.1362  -12.3625 C   0  0  0  0  0  0  0  0  0  0  0  0
   28.3065  -21.4354  -12.0371 C   0  0  0  0  0  0  0  0  0  0  0  0
   27.2353  -20.9976  -12.9196 C   0  0  2  0  0  0  0  0  0  0  0  0
   25.9061  -21.3587  -12.4909 N   0  0  0  0  0  0  0  0  0  0  0  0
   27.3643  -21.4039  -14.3363 C   0  0  0  0  0  0  0  0  0  0  0  0
   26.9162  -22.5169  -14.6743 O   0  0  0  0  0  0  0  0  0  0  0  0
   32.2728  -23.1833   -9.1974 N   0  0  0  0  0  0  0  0  0  0  0  0
   23.6309  -20.8351  -17.2771 C   0  0  0  0  0  0  0  0  0  0  0  0
   24.3566  -20.7243  -18.4909 O   0  0  0  0  0  0  0  0  0  0  0  0
   23.7652  -20.6491  -19.5927 C   0  0  0  0  0  0  0  0  0  0  0  0
   25.8535  -20.7010  -18.4023 C   0  0  0  0  0  0  0  0  0  0  0  0
   26.2532  -20.6662  -16.9676 C   0  0  1  0  0  0  0  0  0  0  0  0
   27.7245  -20.8317  -16.7404 N   0  0  0  0  0  0  0  0  0  0  0  0
   27.9686  -20.5885  -15.3047 C   0  0  0  0  0  0  0  0  0  0  0  0
   28.4818  -19.8580  -17.5269 O   0  0  0  0  0  0  0  0  0  0  0  0
   28.8731  -18.7656  -17.0352 O   0  0  0  0  0  0  0  0  0  0  0  0
  2  1  1  0
  3  2  2  0
  4  3  1  0
  5 11  1  0
  5  4  2  0
  6  5  1  0
  7  8  1  6
  7  9  1  0
  7  6  1  0
  9 21  1  0
 10  9  2  0
 11 12  2  0
 12  2  1  0
 13 14  1  0
 14 16  1  0
 14 15  2  0
 16 17  1  0
 18 17  1  0
 19 18  1  0
 20 19  1  1
 21 20  1  0
 22 30  1  0
 22 20  1  0
 23 22  2  0
 25 24  1  0
 26 25  2  0
 27 25  1  0
 28 27  1  0
 29 28  1  1
 29 30  1  0
 29 31  1  0
 31 33  1  0
 32 31  2  0
M  END
$$$$
