YRQ.pdb
     RDKit          3D

 33 33  0  0  1  0  0  0  0  0999 V2000
   20.9787  -22.2356   -6.3046 O   0  0  0  0  0  0  0  0  0  0  0  0
   21.6560  -21.6707   -7.3717 C   0  0  0  0  0  0  0  0  0  0  0  0
   21.0188  -21.4479   -8.5541 C   0  0  0  0  0  0  0  0  0  0  0  0
   21.6925  -20.8856   -9.6162 C   0  0  0  0  0  0  0  0  0  0  0  0
   23.0298  -20.5266   -9.5305 C   0  0  0  0  0  0  0  0  0  0  0  0
   23.6585  -19.9454  -10.7066 C   0  0  0  0  0  0  0  0  0  0  0  0
   24.1354  -20.8858  -11.7567 C   0  0  2  0  0  0  0  0  0  0  0  0
   25.4391  -21.3666  -11.3259 N   0  0  0  0  0  0  0  0  0  0  0  0
   24.2056  -20.3219  -13.1223 C   0  0  0  0  0  0  0  0  0  0  0  0
   25.1987  -19.6446  -13.4874 O   0  0  0  0  0  0  0  0  0  0  0  0
   23.6388  -20.7682   -8.3171 C   0  0  0  0  0  0  0  0  0  0  0  0
   22.9960  -21.3288   -7.2339 C   0  0  0  0  0  0  0  0  0  0  0  0
   25.5082  -24.9913  -15.6473 N   0  0  0  0  0  0  0  0  0  0  0  0
   24.4137  -25.4014  -16.4534 C   0  0  0  0  0  0  0  0  0  0  0  0
   23.8592  -26.5615  -16.3958 N   0  0  0  0  0  0  0  0  0  0  0  0
   23.8226  -24.5425  -17.4169 N   0  0  0  0  0  0  0  0  0  0  0  0
   23.9942  -23.1393  -17.4397 C   0  0  0  0  0  0  0  0  0  0  0  0
   23.5234  -22.3293  -16.3305 C   0  0  0  0  0  0  0  0  0  0  0  0
   23.7399  -20.8573  -16.4220 C   0  0  0  0  0  0  0  0  0  0  0  0
   23.2094  -19.9640  -15.4030 C   0  0  2  0  0  0  0  0  0  0  0  0
   23.1637  -20.5168  -14.0713 N   0  0  0  0  0  0  0  0  0  0  0  0
   21.8756  -19.3890  -15.6846 C   0  0  0  0  0  0  0  0  0  0  0  0
   21.0227  -20.1158  -16.2306 O   0  0  0  0  0  0  0  0  0  0  0  0
   23.0631  -26.7327  -17.0661 N   0  0  0  0  0  0  0  0  0  0  0  0
   23.3961  -16.7946  -19.5595 C   0  0  0  0  0  0  0  0  0  0  0  0
   22.2239  -16.0023  -19.6611 O   0  0  0  0  0  0  0  0  0  0  0  0
   22.0338  -15.2531  -20.6471 C   0  0  0  0  0  0  0  0  0  0  0  0
   21.2259  -16.0971  -18.5457 C   0  0  0  0  0  0  0  0  0  0  0  0
   21.7538  -17.0184  -17.5006 C   0  0  2  0  0  0  0  0  0  0  0  0
   20.8275  -17.2192  -16.3407 N   0  0  0  0  0  0  0  0  0  0  0  0
   21.5395  -18.0656  -15.3626 C   0  0  0  0  0  0  0  0  0  0  0  0
   19.6063  -17.9028  -16.7666 O   0  0  0  0  0  0  0  0  0  0  0  0
   18.5031  -17.3000  -16.8561 O   0  0  0  0  0  0  0  0  0  0  0  0
  2  1  1  0
  3  2  2  0
  4  3  1  0
  5 11  1  0
  5  4  2  0
  6  5  1  0
  7  8  1  1
  7  9  1  0
  7  6  1  0
  9 21  1  0
 10  9  2  0
 11 12  2  0
 12  2  1  0
 13 14  1  0
 14 16  1  0
 14 15  2  0
 16 17  1  0
 18 17  1  0
 19 18  1  0
 20 19  1  6
 21 20  1  0
 22 30  1  0
 22 20  1  0
 23 22  2  0
 25 24  1  0
 26 25  2  0
 27 25  1  0
 28 27  1  0
 29 28  1  1
 29 30  1  0
 29 31  1  0
 31 33  1  0
 32 31  2  0
M  END
$$$$
