YRQ.pdb
     RDKit          3D

 33 33  0  0  1  0  0  0  0  0999 V2000
   29.4398  -19.7253   -3.5052 O   0  0  0  0  0  0  0  0  0  0  0  0
   28.6821  -20.0277   -4.6237 C   0  0  0  0  0  0  0  0  0  0  0  0
   29.2375  -19.9862   -5.8660 C   0  0  0  0  0  0  0  0  0  0  0  0
   28.4837  -20.2871   -6.9792 C   0  0  0  0  0  0  0  0  0  0  0  0
   27.1454  -20.6405   -6.8864 C   0  0  0  0  0  0  0  0  0  0  0  0
   26.4288  -20.9347   -8.1177 C   0  0  0  0  0  0  0  0  0  0  0  0
   26.0810  -19.7827   -8.9931 C   0  0  2  0  0  0  0  0  0  0  0  0
   25.2546  -18.8882   -8.1974 N   0  0  0  0  0  0  0  0  0  0  0  0
   25.4063  -20.1364  -10.2611 C   0  0  0  0  0  0  0  0  0  0  0  0
   24.1584  -20.2740  -10.3082 O   0  0  0  0  0  0  0  0  0  0  0  0
   26.6205  -20.6710   -5.6116 C   0  0  0  0  0  0  0  0  0  0  0  0
   27.3448  -20.3762   -4.4761 C   0  0  0  0  0  0  0  0  0  0  0  0
   28.6411  -21.9332  -15.5290 N   0  0  0  0  0  0  0  0  0  0  0  0
   28.7356  -20.6988  -16.2241 C   0  0  0  0  0  0  0  0  0  0  0  0
   28.4738  -20.5435  -17.4746 N   0  0  0  0  0  0  0  0  0  0  0  0
   29.1376  -19.4991  -15.5802 N   0  0  0  0  0  0  0  0  0  0  0  0
   28.6947  -19.1004  -14.2980 C   0  0  0  0  0  0  0  0  0  0  0  0
   27.2784  -18.9073  -14.0434 C   0  0  0  0  0  0  0  0  0  0  0  0
   26.4420  -20.1309  -13.8844 C   0  0  0  0  0  0  0  0  0  0  0  0
   25.5142  -20.2564  -12.7702 C   0  0  2  0  0  0  0  0  0  0  0  0
   26.1313  -20.3364  -11.4688 N   0  0  0  0  0  0  0  0  0  0  0  0
   24.5447  -21.3699  -12.8645 C   0  0  0  0  0  0  0  0  0  0  0  0
   24.9267  -22.5136  -12.5482 O   0  0  0  0  0  0  0  0  0  0  0  0
   28.5947  -19.5691  -17.8598 N   0  0  0  0  0  0  0  0  0  0  0  0
   19.1741  -21.6417  -10.7342 C   0  0  0  0  0  0  0  0  0  0  0  0
   19.3233  -20.6307  -11.7179 O   0  0  0  0  0  0  0  0  0  0  0  0
   18.5806  -19.6218  -11.7255 C   0  0  0  0  0  0  0  0  0  0  0  0
   20.4011  -20.8174  -12.7438 C   0  0  0  0  0  0  0  0  0  0  0  0
   21.1728  -22.0492  -12.4170 C   0  0  1  0  0  0  0  0  0  0  0  0
   22.2963  -22.3345  -13.3656 N   0  0  0  0  0  0  0  0  0  0  0  0
   23.2220  -21.1865  -13.2945 C   0  0  0  0  0  0  0  0  0  0  0  0
   21.7969  -22.4633  -14.7347 O   0  0  0  0  0  0  0  0  0  0  0  0
   22.0228  -21.5857  -15.6105 O   0  0  0  0  0  0  0  0  0  0  0  0
  2  1  1  0
  3  2  2  0
  4  3  1  0
  5 11  1  0
  5  4  2  0
  6  5  1  0
  7  8  1  1
  7  9  1  0
  7  6  1  0
  9 21  1  0
 10  9  2  0
 11 12  2  0
 12  2  1  0
 13 14  1  0
 14 16  1  0
 14 15  2  0
 16 17  1  0
 18 17  1  0
 19 18  1  0
 20 19  1  6
 21 20  1  0
 22 30  1  0
 22 20  1  0
 23 22  2  0
 25 24  1  0
 26 25  2  0
 27 25  1  0
 28 27  1  0
 29 28  1  1
 29 30  1  0
 29 31  1  0
 31 33  1  0
 32 31  2  0
M  END
$$$$
