YRQ.pdb
     RDKit          3D

 33 33  0  0  1  0  0  0  0  0999 V2000
   31.0446  -20.8915  -18.5643 O   0  0  0  0  0  0  0  0  0  0  0  0
   29.7813  -21.0314  -18.0155 C   0  0  0  0  0  0  0  0  0  0  0  0
   28.7051  -20.4358  -18.5992 C   0  0  0  0  0  0  0  0  0  0  0  0
   27.4478  -20.5750  -18.0534 C   0  0  0  0  0  0  0  0  0  0  0  0
   27.2247  -21.3166  -16.9024 C   0  0  0  0  0  0  0  0  0  0  0  0
   25.8634  -21.4011  -16.3965 C   0  0  0  0  0  0  0  0  0  0  0  0
   25.2782  -22.7609  -16.2450 C   0  0  2  0  0  0  0  0  0  0  0  0
   25.4390  -23.4298  -17.5268 N   0  0  0  0  0  0  0  0  0  0  0  0
   23.8661  -22.7935  -15.8060 C   0  0  0  0  0  0  0  0  0  0  0  0
   22.9315  -22.7114  -16.6417 O   0  0  0  0  0  0  0  0  0  0  0  0
   28.3396  -21.9036  -16.3420 C   0  0  0  0  0  0  0  0  0  0  0  0
   29.6117  -21.7857  -16.8606 C   0  0  0  0  0  0  0  0  0  0  0  0
   20.7196  -28.7742  -10.9507 N   0  0  0  0  0  0  0  0  0  0  0  0
   19.9524  -27.6024  -11.1833 C   0  0  0  0  0  0  0  0  0  0  0  0
   18.7952  -27.3736  -10.6684 N   0  0  0  0  0  0  0  0  0  0  0  0
   20.4100  -26.5558  -12.0263 N   0  0  0  0  0  0  0  0  0  0  0  0
   21.6698  -26.5478  -12.6680 C   0  0  0  0  0  0  0  0  0  0  0  0
   22.0090  -25.4833  -13.5952 C   0  0  0  0  0  0  0  0  0  0  0  0
   21.8020  -24.0826  -13.1293 C   0  0  0  0  0  0  0  0  0  0  0  0
   22.1356  -22.9570  -13.9893 C   0  0  2  0  0  0  0  0  0  0  0  0
   23.5070  -22.9155  -14.4348 N   0  0  0  0  0  0  0  0  0  0  0  0
   21.8094  -21.6185  -13.4502 C   0  0  0  0  0  0  0  0  0  0  0  0
   22.3769  -21.2492  -12.4036 O   0  0  0  0  0  0  0  0  0  0  0  0
   18.3096  -26.4920  -10.9836 N   0  0  0  0  0  0  0  0  0  0  0  0
   21.8580  -17.6734  -17.6575 C   0  0  0  0  0  0  0  0  0  0  0  0
   21.0475  -17.2737  -16.5641 O   0  0  0  0  0  0  0  0  0  0  0  0
   20.8559  -16.0618  -16.3108 C   0  0  0  0  0  0  0  0  0  0  0  0
   20.4320  -18.3555  -15.7274 C   0  0  0  0  0  0  0  0  0  0  0  0
   21.1262  -18.4031  -14.4101 C   0  0  1  0  0  0  0  0  0  0  0  0
   20.5871  -19.4407  -13.4740 N   0  0  0  0  0  0  0  0  0  0  0  0
   20.8911  -20.7573  -14.0692 C   0  0  0  0  0  0  0  0  0  0  0  0
   19.1378  -19.3035  -13.3292 O   0  0  0  0  0  0  0  0  0  0  0  0
   18.6177  -18.3085  -12.7568 O   0  0  0  0  0  0  0  0  0  0  0  0
  2  1  1  0
  3  2  2  0
  4  3  1  0
  5 11  1  0
  5  4  2  0
  6  5  1  0
  7  8  1  6
  7  9  1  0
  7  6  1  0
  9 21  1  0
 10  9  2  0
 11 12  2  0
 12  2  1  0
 13 14  1  0
 14 16  1  0
 14 15  2  0
 16 17  1  0
 18 17  1  0
 19 18  1  0
 20 19  1  1
 21 20  1  0
 22 30  1  0
 22 20  1  0
 23 22  2  0
 25 24  1  0
 26 25  2  0
 27 25  1  0
 28 27  1  0
 29 28  1  1
 29 30  1  0
 29 31  1  0
 31 33  1  0
 32 31  2  0
M  END
$$$$
