YRQ.pdb
     RDKit          3D

 33 33  0  0  1  0  0  0  0  0999 V2000
   16.8998  -24.3379  -10.8592 O   0  0  0  0  0  0  0  0  0  0  0  0
   17.8409  -23.7596  -11.6938 C   0  0  0  0  0  0  0  0  0  0  0  0
   17.7658  -22.4368  -12.0073 C   0  0  0  0  0  0  0  0  0  0  0  0
   18.7023  -21.8610  -12.8377 C   0  0  0  0  0  0  0  0  0  0  0  0
   19.7477  -22.5913  -13.3837 C   0  0  0  0  0  0  0  0  0  0  0  0
   20.6841  -21.8984  -14.2551 C   0  0  0  0  0  0  0  0  0  0  0  0
   22.0896  -21.7762  -13.7817 C   0  0  2  0  0  0  0  0  0  0  0  0
   22.0442  -21.0506  -12.5216 N   0  0  0  0  0  0  0  0  0  0  0  0
   23.0198  -21.1272  -14.7312 C   0  0  0  0  0  0  0  0  0  0  0  0
   23.2088  -19.8856  -14.6982 O   0  0  0  0  0  0  0  0  0  0  0  0
   19.7887  -23.9267  -13.0422 C   0  0  0  0  0  0  0  0  0  0  0  0
   18.8693  -24.5358  -12.2147 C   0  0  0  0  0  0  0  0  0  0  0  0
   26.7512  -26.4585  -16.0830 N   0  0  0  0  0  0  0  0  0  0  0  0
   27.5030  -26.0195  -17.2046 C   0  0  0  0  0  0  0  0  0  0  0  0
   27.8330  -26.7662  -18.1996 N   0  0  0  0  0  0  0  0  0  0  0  0
   27.9664  -24.6831  -17.3261 N   0  0  0  0  0  0  0  0  0  0  0  0
   27.6314  -23.6429  -16.4288 C   0  0  0  0  0  0  0  0  0  0  0  0
   26.2569  -23.1881  -16.3204 C   0  0  0  0  0  0  0  0  0  0  0  0
   25.9820  -21.7634  -16.6617 C   0  0  0  0  0  0  0  0  0  0  0  0
   24.6201  -21.2506  -16.6666 C   0  0  2  0  0  0  0  0  0  0  0  0
   23.7317  -21.8701  -15.7137 N   0  0  0  0  0  0  0  0  0  0  0  0
   23.9341  -21.2631  -17.9774 C   0  0  0  0  0  0  0  0  0  0  0  0
   23.0338  -22.1046  -18.1645 O   0  0  0  0  0  0  0  0  0  0  0  0
   28.3344  -26.2893  -18.9955 N   0  0  0  0  0  0  0  0  0  0  0  0
   19.5941  -19.8565  -18.5826 C   0  0  0  0  0  0  0  0  0  0  0  0
   19.6857  -19.2708  -19.8713 O   0  0  0  0  0  0  0  0  0  0  0  0
   18.6565  -18.9867  -20.5266 C   0  0  0  0  0  0  0  0  0  0  0  0
   21.0582  -19.0066  -20.4151 C   0  0  0  0  0  0  0  0  0  0  0  0
   22.0692  -19.5164  -19.4469 C   0  0  1  0  0  0  0  0  0  0  0  0
   23.2907  -20.0974  -20.0903 N   0  0  0  0  0  0  0  0  0  0  0  0
   24.2587  -20.3697  -19.0091 C   0  0  0  0  0  0  0  0  0  0  0  0
   23.8803  -19.1468  -21.0331 O   0  0  0  0  0  0  0  0  0  0  0  0
   23.2610  -18.7564  -22.0590 O   0  0  0  0  0  0  0  0  0  0  0  0
  2  1  1  0
  3  2  2  0
  4  3  1  0
  5 11  1  0
  5  4  2  0
  6  5  1  0
  7  8  1  1
  7  9  1  0
  7  6  1  0
  9 21  1  0
 10  9  2  0
 11 12  2  0
 12  2  1  0
 13 14  1  0
 14 16  1  0
 14 15  2  0
 16 17  1  0
 18 17  1  0
 19 18  1  0
 20 19  1  6
 21 20  1  0
 22 30  1  0
 22 20  1  0
 23 22  2  0
 25 24  1  0
 26 25  2  0
 27 25  1  0
 28 27  1  0
 29 28  1  1
 29 30  1  0
 29 31  1  0
 31 33  1  0
 32 31  2  0
M  END
$$$$
