CNR.pdb
     RDKit          3D

 26 25  0  0  1  0  0  0  0  0999 V2000
   20.0774  -10.3609  -15.9399 N   0  0  0  0  0  0  0  0  0  0  0  0
   19.0728   -9.6731  -15.1595 C   0  0  1  0  0  0  0  0  0  0  0  0
   17.9496  -10.6366  -14.8383 C   0  0  0  0  0  0  0  0  0  0  0  0
   16.8126  -10.8459  -16.2070 S   0  0  0  0  0  0  0  0  0  0  0  0
   19.7257   -9.2068  -13.8666 C   0  0  0  0  0  0  0  0  0  0  0  0
   20.8616   -9.6349  -13.5632 O   0  0  0  0  0  0  0  0  0  0  0  0
   20.8365   -5.6064  -10.5166 N   0  0  0  0  0  0  0  0  0  0  0  0
   21.4117   -5.5743  -11.8379 C   0  0  0  0  0  0  0  0  0  0  0  0
   22.3495   -4.7774  -12.0915 O   0  0  0  0  0  0  0  0  0  0  0  0
   20.8085   -6.5282  -12.7991 C   0  0  0  0  0  0  0  0  0  0  0  0
   19.6206   -7.2859  -12.2342 C   0  0  2  0  0  0  0  0  0  0  0  0
   19.0607   -8.3036  -13.0190 N   0  0  0  0  0  0  0  0  0  0  0  0
   18.7464   -6.3643  -11.5413 C   0  0  0  0  0  0  0  0  0  0  0  0
   18.3484   -5.3492  -12.2091 O   0  0  0  0  0  0  0  0  0  0  0  0
   11.7704   -9.6661   -7.6271 N   0  0  0  0  0  0  0  0  0  0  0  0
   11.8465   -8.3379   -7.1369 C   0  0  0  0  0  0  0  0  0  0  0  0
   10.8717   -7.8209   -6.4306 N   0  0  0  0  0  0  0  0  0  0  0  0
   12.9070   -7.4490   -7.3508 N   0  0  0  0  0  0  0  0  0  0  0  0
   13.9468   -7.4027   -8.2816 C   0  0  0  0  0  0  0  0  0  0  0  0
   15.0001   -6.4026   -8.3342 C   0  0  0  0  0  0  0  0  0  0  0  0
   16.3785   -6.7297   -8.7199 C   0  0  0  0  0  0  0  0  0  0  0  0
   17.0269   -5.8463   -9.7459 C   0  0  2  0  0  0  0  0  0  0  0  0
   18.2839   -6.4542  -10.2243 N   0  0  0  0  0  0  0  0  0  0  0  0
   17.1971   -4.4417   -9.4328 C   0  0  0  0  0  0  0  0  0  0  0  0
   16.1729   -3.7115   -9.1340 O   0  0  0  0  0  0  0  0  0  0  0  0
   18.3846   -3.7270   -9.4045 O   0  0  0  0  0  0  0  0  0  0  0  0
  2  5  1  0
  2  1  1  6
  3  2  1  0
  4  3  1  0
  5  6  2  0
  7  8  1  0
  8 10  1  0
  9  8  2  0
 11 10  1  6
 12  5  1  0
 12 11  1  0
 13 23  1  0
 13 11  1  0
 14 13  2  0
 15 16  1  0
 16 18  1  0
 16 17  2  0
 18 19  1  0
 20 19  1  0
 21 20  1  0
 22 23  1  0
 22 21  1  1
 24 22  1  0
 25 24  2  0
 26 24  1  0
M  END
$$$$
