CNR.pdb
     RDKit          3D

 26 25  0  0  1  0  0  0  0  0999 V2000
   27.5871  -16.4971  -17.8283 N   0  0  0  0  0  0  0  0  0  0  0  0
   27.3611  -16.8455  -16.4431 C   0  0  1  0  0  0  0  0  0  0  0  0
   26.5169  -15.7695  -15.7930 C   0  0  0  0  0  0  0  0  0  0  0  0
   27.5026  -14.4180  -15.1515 S   0  0  0  0  0  0  0  0  0  0  0  0
   26.6089  -18.1678  -16.4120 C   0  0  0  0  0  0  0  0  0  0  0  0
   25.6309  -18.3358  -17.1741 O   0  0  0  0  0  0  0  0  0  0  0  0
   28.0908  -21.4444  -16.9279 N   0  0  0  0  0  0  0  0  0  0  0  0
   28.1458  -22.0321  -15.6128 C   0  0  0  0  0  0  0  0  0  0  0  0
   29.0234  -22.8920  -15.3494 O   0  0  0  0  0  0  0  0  0  0  0  0
   27.1153  -21.5364  -14.6695 C   0  0  0  0  0  0  0  0  0  0  0  0
   26.3132  -20.3665  -15.2104 C   0  0  2  0  0  0  0  0  0  0  0  0
   27.0068  -19.1925  -15.5357 N   0  0  0  0  0  0  0  0  0  0  0  0
   25.0577  -20.2723  -14.4973 C   0  0  0  0  0  0  0  0  0  0  0  0
   24.9645  -19.3335  -13.6343 O   0  0  0  0  0  0  0  0  0  0  0  0
   18.1471  -16.6170  -12.4195 N   0  0  0  0  0  0  0  0  0  0  0  0
   17.9785  -18.0243  -12.3876 C   0  0  0  0  0  0  0  0  0  0  0  0
   16.8065  -18.5599  -12.1513 N   0  0  0  0  0  0  0  0  0  0  0  0
   18.9926  -18.9717  -12.5739 N   0  0  0  0  0  0  0  0  0  0  0  0
   20.3406  -18.8772  -12.9259 C   0  0  0  0  0  0  0  0  0  0  0  0
   20.8698  -18.8717  -14.2795 C   0  0  0  0  0  0  0  0  0  0  0  0
   22.2238  -19.3420  -14.5980 C   0  0  0  0  0  0  0  0  0  0  0  0
   22.5833  -20.7317  -14.1586 C   0  0  2  0  0  0  0  0  0  0  0  0
   23.9313  -21.0889  -14.6421 N   0  0  0  0  0  0  0  0  0  0  0  0
   21.6292  -21.7956  -14.3990 C   0  0  0  0  0  0  0  0  0  0  0  0
   21.5221  -22.3218  -15.5751 O   0  0  0  0  0  0  0  0  0  0  0  0
   20.7611  -22.3664  -13.4813 O   0  0  0  0  0  0  0  0  0  0  0  0
  2  5  1  0
  2  1  1  6
  3  2  1  0
  4  3  1  0
  5  6  2  0
  7  8  1  0
  8 10  1  0
  9  8  2  0
 11 10  1  1
 12  5  1  0
 12 11  1  0
 13 23  1  0
 13 11  1  0
 14 13  2  0
 15 16  1  0
 16 18  1  0
 16 17  2  0
 18 19  1  0
 20 19  1  0
 21 20  1  0
 22 23  1  0
 22 21  1  6
 24 22  1  0
 25 24  2  0
 26 24  1  0
M  END
$$$$
