CNR.pdb
     RDKit          3D

 26 25  0  0  1  0  0  0  0  0999 V2000
   25.9331  -19.9826   -8.4689 N   0  0  0  0  0  0  0  0  0  0  0  0
   25.1690  -20.8689   -9.3184 C   0  0  1  0  0  0  0  0  0  0  0  0
   23.7034  -20.7655   -8.9514 C   0  0  0  0  0  0  0  0  0  0  0  0
   23.2985  -21.6953   -7.4745 S   0  0  0  0  0  0  0  0  0  0  0  0
   25.3640  -20.4171  -10.7582 C   0  0  0  0  0  0  0  0  0  0  0  0
   25.1854  -19.2145  -11.0539 O   0  0  0  0  0  0  0  0  0  0  0  0
   27.8156  -22.2535  -16.1382 N   0  0  0  0  0  0  0  0  0  0  0  0
   27.1807  -21.3122  -15.2501 C   0  0  0  0  0  0  0  0  0  0  0  0
   26.8286  -20.1860  -15.6822 O   0  0  0  0  0  0  0  0  0  0  0  0
   27.0025  -21.7955  -13.8601 C   0  0  0  0  0  0  0  0  0  0  0  0
   25.8523  -21.1260  -13.1299 C   0  0  2  0  0  0  0  0  0  0  0  0
   25.7408  -21.3405  -11.7491 N   0  0  0  0  0  0  0  0  0  0  0  0
   24.6633  -21.1787  -13.9527 C   0  0  0  0  0  0  0  0  0  0  0  0
   24.1826  -22.3413  -14.1812 O   0  0  0  0  0  0  0  0  0  0  0  0
   17.8219  -22.9852  -13.8587 N   0  0  0  0  0  0  0  0  0  0  0  0
   17.3415  -21.6570  -13.7370 C   0  0  0  0  0  0  0  0  0  0  0  0
   16.2198  -21.3981  -13.1115 N   0  0  0  0  0  0  0  0  0  0  0  0
   17.9602  -20.5147  -14.2594 N   0  0  0  0  0  0  0  0  0  0  0  0
   19.0741  -20.3167  -15.0779 C   0  0  0  0  0  0  0  0  0  0  0  0
   20.4337  -20.7380  -14.7840 C   0  0  0  0  0  0  0  0  0  0  0  0
   21.5642  -19.8012  -14.7747 C   0  0  0  0  0  0  0  0  0  0  0  0
   22.8291  -20.2530  -15.4451 C   0  0  2  0  0  0  0  0  0  0  0  0
   23.9759  -20.1048  -14.5279 N   0  0  0  0  0  0  0  0  0  0  0  0
   23.1289  -19.7349  -16.7648 C   0  0  0  0  0  0  0  0  0  0  0  0
   22.1796  -19.2923  -17.5227 O   0  0  0  0  0  0  0  0  0  0  0  0
   24.3750  -19.6391  -17.3646 O   0  0  0  0  0  0  0  0  0  0  0  0
  2  5  1  0
  2  1  1  1
  3  2  1  0
  4  3  1  0
  5  6  2  0
  7  8  1  0
  8 10  1  0
  9  8  2  0
 11 10  1  6
 12  5  1  0
 12 11  1  0
 13 23  1  0
 13 11  1  0
 14 13  2  0
 15 16  1  0
 16 18  1  0
 16 17  2  0
 18 19  1  0
 20 19  1  0
 21 20  1  0
 22 23  1  0
 22 21  1  1
 24 22  1  0
 25 24  2  0
 26 24  1  0
M  END
$$$$
