CNR.pdb
     RDKit          3D

 26 25  0  0  1  0  0  0  0  0999 V2000
   22.3473  -20.4141  -15.4088 N   0  0  0  0  0  0  0  0  0  0  0  0
   22.0074  -19.5807  -14.2770 C   0  0  1  0  0  0  0  0  0  0  0  0
   20.5630  -19.1429  -14.4002 C   0  0  0  0  0  0  0  0  0  0  0  0
   20.3733  -17.6815  -15.4190 S   0  0  0  0  0  0  0  0  0  0  0  0
   22.1783  -20.4150  -13.0161 C   0  0  0  0  0  0  0  0  0  0  0  0
   21.8118  -21.6113  -13.0170 O   0  0  0  0  0  0  0  0  0  0  0  0
   23.4969  -21.9144   -8.4185 N   0  0  0  0  0  0  0  0  0  0  0  0
   24.3293  -20.7438   -8.5400 C   0  0  0  0  0  0  0  0  0  0  0  0
   25.2186  -20.5180   -7.6815 O   0  0  0  0  0  0  0  0  0  0  0  0
   24.0340  -19.8938   -9.7181 C   0  0  0  0  0  0  0  0  0  0  0  0
   22.9446  -20.4573  -10.6126 C   0  0  2  0  0  0  0  0  0  0  0  0
   22.7421  -19.8490  -11.8592 N   0  0  0  0  0  0  0  0  0  0  0  0
   21.7985  -20.8187   -9.8068 C   0  0  0  0  0  0  0  0  0  0  0  0
   20.9837  -19.8748   -9.5238 O   0  0  0  0  0  0  0  0  0  0  0  0
   15.8933  -23.8904   -6.3283 N   0  0  0  0  0  0  0  0  0  0  0  0
   15.2635  -24.4535   -7.4668 C   0  0  0  0  0  0  0  0  0  0  0  0
   14.0229  -24.8715   -7.4160 N   0  0  0  0  0  0  0  0  0  0  0  0
   15.8610  -24.6441   -8.7187 N   0  0  0  0  0  0  0  0  0  0  0  0
   17.1101  -24.3104   -9.2462 C   0  0  0  0  0  0  0  0  0  0  0  0
   18.3066  -24.0080   -8.4784 C   0  0  0  0  0  0  0  0  0  0  0  0
   19.5645  -23.5920   -9.1112 C   0  0  0  0  0  0  0  0  0  0  0  0
   20.2446  -22.3801   -8.5435 C   0  0  2  0  0  0  0  0  0  0  0  0
   21.4760  -22.0822   -9.3007 N   0  0  0  0  0  0  0  0  0  0  0  0
   20.4699  -22.3268   -7.1130 C   0  0  0  0  0  0  0  0  0  0  0  0
   21.5952  -22.7236   -6.6150 O   0  0  0  0  0  0  0  0  0  0  0  0
   19.5892  -21.8768   -6.1417 O   0  0  0  0  0  0  0  0  0  0  0  0
  2  5  1  0
  2  1  1  6
  3  2  1  0
  4  3  1  0
  5  6  2  0
  7  8  1  0
  8 10  1  0
  9  8  2  0
 11 10  1  1
 12  5  1  0
 12 11  1  0
 13 23  1  0
 13 11  1  0
 14 13  2  0
 15 16  1  0
 16 18  1  0
 16 17  2  0
 18 19  1  0
 20 19  1  0
 21 20  1  0
 22 23  1  0
 22 21  1  6
 24 22  1  0
 25 24  2  0
 26 24  1  0
M  END
$$$$
