CNR.pdb
     RDKit          3D

 26 25  0  0  1  0  0  0  0  0999 V2000
   27.0028  -18.4860  -16.9939 N   0  0  0  0  0  0  0  0  0  0  0  0
   25.6575  -18.7095  -16.5129 C   0  0  1  0  0  0  0  0  0  0  0  0
   24.7524  -19.0023  -17.6912 C   0  0  0  0  0  0  0  0  0  0  0  0
   24.5622  -17.5907  -18.7779 S   0  0  0  0  0  0  0  0  0  0  0  0
   25.6885  -19.9154  -15.5857 C   0  0  0  0  0  0  0  0  0  0  0  0
   26.7698  -20.5152  -15.3944 O   0  0  0  0  0  0  0  0  0  0  0  0
   25.6186  -22.8209  -11.4641 N   0  0  0  0  0  0  0  0  0  0  0  0
   25.1533  -21.4594  -11.3769 C   0  0  0  0  0  0  0  0  0  0  0  0
   24.6346  -21.0440  -10.3104 O   0  0  0  0  0  0  0  0  0  0  0  0
   25.3456  -20.6592  -12.6098 C   0  0  0  0  0  0  0  0  0  0  0  0
   24.3984  -21.0415  -13.7327 C   0  0  2  0  0  0  0  0  0  0  0  0
   24.5144  -20.3540  -14.9489 N   0  0  0  0  0  0  0  0  0  0  0  0
   23.0830  -21.2980  -13.1873 C   0  0  0  0  0  0  0  0  0  0  0  0
   22.5768  -20.3706  -12.4671 O   0  0  0  0  0  0  0  0  0  0  0  0
   18.2563  -24.4044   -7.2059 N   0  0  0  0  0  0  0  0  0  0  0  0
   18.1203  -24.7756   -8.5673 C   0  0  0  0  0  0  0  0  0  0  0  0
   17.5827  -25.9215   -8.9054 N   0  0  0  0  0  0  0  0  0  0  0  0
   18.5393  -24.0153   -9.6660 N   0  0  0  0  0  0  0  0  0  0  0  0
   19.0478  -22.7216   -9.7991 C   0  0  0  0  0  0  0  0  0  0  0  0
   19.3084  -22.0327  -11.0520 C   0  0  0  0  0  0  0  0  0  0  0  0
   20.6560  -21.9213  -11.6243 C   0  0  0  0  0  0  0  0  0  0  0  0
   20.8744  -22.5336  -12.9774 C   0  0  2  0  0  0  0  0  0  0  0  0
   22.2980  -22.4433  -13.3565 N   0  0  0  0  0  0  0  0  0  0  0  0
   20.0048  -22.1269  -14.0630 C   0  0  0  0  0  0  0  0  0  0  0  0
   20.5051  -21.6485  -15.1549 O   0  0  0  0  0  0  0  0  0  0  0  0
   18.6202  -22.1870  -14.0954 O   0  0  0  0  0  0  0  0  0  0  0  0
  2  5  1  0
  2  1  1  6
  3  2  1  0
  4  3  1  0
  5  6  2  0
  7  8  1  0
  8 10  1  0
  9  8  2  0
 11 10  1  1
 12  5  1  0
 12 11  1  0
 13 23  1  0
 13 11  1  0
 14 13  2  0
 15 16  1  0
 16 18  1  0
 16 17  2  0
 18 19  1  0
 20 19  1  0
 21 20  1  0
 22 23  1  0
 22 21  1  1
 24 22  1  0
 25 24  2  0
 26 24  1  0
M  END
$$$$
