CNR.pdb
     RDKit          3D

 26 25  0  0  1  0  0  0  0  0999 V2000
   23.8619  -20.5657  -11.2944 N   0  0  0  0  0  0  0  0  0  0  0  0
   25.2116  -20.0913  -11.5053 C   0  0  1  0  0  0  0  0  0  0  0  0
   26.1811  -21.2265  -11.2509 C   0  0  0  0  0  0  0  0  0  0  0  0
   26.2959  -21.6549   -9.5152 S   0  0  0  0  0  0  0  0  0  0  0  0
   25.3264  -19.6419  -12.9544 C   0  0  0  0  0  0  0  0  0  0  0  0
   24.3714  -19.8436  -13.7373 O   0  0  0  0  0  0  0  0  0  0  0  0
   27.3399  -17.6411  -17.1844 N   0  0  0  0  0  0  0  0  0  0  0  0
   27.9692  -16.8465  -16.1595 C   0  0  0  0  0  0  0  0  0  0  0  0
   28.6132  -15.8150  -16.4763 O   0  0  0  0  0  0  0  0  0  0  0  0
   27.7804  -17.3538  -14.7794 C   0  0  0  0  0  0  0  0  0  0  0  0
   26.7324  -18.4471  -14.6753 C   0  0  2  0  0  0  0  0  0  0  0  0
   26.4937  -19.0061  -13.4120 N   0  0  0  0  0  0  0  0  0  0  0  0
   26.8272  -19.3169  -15.8277 C   0  0  0  0  0  0  0  0  0  0  0  0
   27.6620  -20.2817  -15.7431 O   0  0  0  0  0  0  0  0  0  0  0  0
   25.9768  -25.0937  -16.0078 N   0  0  0  0  0  0  0  0  0  0  0  0
   24.7324  -25.2530  -15.3475 C   0  0  0  0  0  0  0  0  0  0  0  0
   24.3626  -26.4169  -14.8732 N   0  0  0  0  0  0  0  0  0  0  0  0
   23.7808  -24.2457  -15.1466 N   0  0  0  0  0  0  0  0  0  0  0  0
   23.2895  -23.2159  -15.9516 C   0  0  0  0  0  0  0  0  0  0  0  0
   24.0664  -22.4222  -16.8891 C   0  0  0  0  0  0  0  0  0  0  0  0
   24.7812  -21.2044  -16.4870 C   0  0  0  0  0  0  0  0  0  0  0  0
   25.2966  -20.3223  -17.5870 C   0  0  2  0  0  0  0  0  0  0  0  0
   26.1106  -19.2265  -17.0256 N   0  0  0  0  0  0  0  0  0  0  0  0
   24.3547  -19.8369  -18.5755 C   0  0  0  0  0  0  0  0  0  0  0  0
   23.8722  -20.6404  -19.4660 O   0  0  0  0  0  0  0  0  0  0  0  0
   23.8653  -18.5464  -18.7044 O   0  0  0  0  0  0  0  0  0  0  0  0
  2  5  1  0
  2  1  1  6
  3  2  1  0
  4  3  1  0
  5  6  2  0
  7  8  1  0
  8 10  1  0
  9  8  2  0
 11 10  1  1
 12  5  1  0
 12 11  1  0
 13 23  1  0
 13 11  1  0
 14 13  2  0
 15 16  1  0
 16 18  1  0
 16 17  2  0
 18 19  1  0
 20 19  1  0
 21 20  1  0
 22 23  1  0
 22 21  1  1
 24 22  1  0
 25 24  2  0
 26 24  1  0
M  END
$$$$
