CNR.pdb
     RDKit          3D

 26 25  0  0  1  0  0  0  0  0999 V2000
   28.3952  -18.7251  -16.6987 N   0  0  0  0  0  0  0  0  0  0  0  0
   27.5457  -18.1077  -15.7046 C   0  0  1  0  0  0  0  0  0  0  0  0
   26.6036  -17.1402  -16.3898 C   0  0  0  0  0  0  0  0  0  0  0  0
   27.4684  -15.7894  -17.1881 S   0  0  0  0  0  0  0  0  0  0  0  0
   26.7398  -19.2090  -15.0316 C   0  0  0  0  0  0  0  0  0  0  0  0
   26.4640  -20.2473  -15.6729 O   0  0  0  0  0  0  0  0  0  0  0  0
   24.3381  -20.7162   -9.5934 N   0  0  0  0  0  0  0  0  0  0  0  0
   25.1273  -21.1037  -10.7357 C   0  0  0  0  0  0  0  0  0  0  0  0
   25.1963  -22.3143  -11.0653 O   0  0  0  0  0  0  0  0  0  0  0  0
   25.8027  -19.9821  -11.4309 C   0  0  0  0  0  0  0  0  0  0  0  0
   25.5690  -19.9718  -12.9308 C   0  0  2  0  0  0  0  0  0  0  0  0
   26.3077  -19.0634  -13.7017 N   0  0  0  0  0  0  0  0  0  0  0  0
   24.1579  -20.1449  -13.1998 C   0  0  0  0  0  0  0  0  0  0  0  0
   23.3987  -19.1599  -12.9024 O   0  0  0  0  0  0  0  0  0  0  0  0
   20.5177  -27.4452  -11.4476 N   0  0  0  0  0  0  0  0  0  0  0  0
   20.8334  -27.2443  -12.8150 C   0  0  0  0  0  0  0  0  0  0  0  0
   20.4451  -28.0967  -13.7311 N   0  0  0  0  0  0  0  0  0  0  0  0
   21.5783  -26.1773  -13.3320 N   0  0  0  0  0  0  0  0  0  0  0  0
   22.0352  -24.9746  -12.7892 C   0  0  0  0  0  0  0  0  0  0  0  0
   21.4244  -23.6690  -12.9748 C   0  0  0  0  0  0  0  0  0  0  0  0
   21.6949  -22.8326  -14.1508 C   0  0  0  0  0  0  0  0  0  0  0  0
   22.0632  -21.3995  -13.8975 C   0  0  2  0  0  0  0  0  0  0  0  0
   23.5255  -21.2652  -13.7491 N   0  0  0  0  0  0  0  0  0  0  0  0
   21.3518  -20.6815  -12.8591 C   0  0  0  0  0  0  0  0  0  0  0  0
   21.5652  -20.9554  -11.6137 O   0  0  0  0  0  0  0  0  0  0  0  0
   20.4151  -19.6736  -13.0277 O   0  0  0  0  0  0  0  0  0  0  0  0
  2  5  1  0
  2  1  1  6
  3  2  1  0
  4  3  1  0
  5  6  2  0
  7  8  1  0
  8 10  1  0
  9  8  2  0
 11 10  1  1
 12  5  1  0
 12 11  1  0
 13 23  1  0
 13 11  1  0
 14 13  2  0
 15 16  1  0
 16 18  1  0
 16 17  2  0
 18 19  1  0
 20 19  1  0
 21 20  1  0
 22 23  1  0
 22 21  1  1
 24 22  1  0
 25 24  2  0
 26 24  1  0
M  END
$$$$
