CNR.pdb
     RDKit          3D

 26 25  0  0  1  0  0  0  0  0999 V2000
   16.9810  -22.4846  -13.0454 N   0  0  0  0  0  0  0  0  0  0  0  0
   18.0530  -21.9178  -12.2575 C   0  0  1  0  0  0  0  0  0  0  0  0
   18.6971  -23.0146  -11.4356 C   0  0  0  0  0  0  0  0  0  0  0  0
   17.7574  -23.4098   -9.9623 S   0  0  0  0  0  0  0  0  0  0  0  0
   19.0792  -21.3351  -13.2179 C   0  0  0  0  0  0  0  0  0  0  0  0
   19.4245  -21.9960  -14.2226 O   0  0  0  0  0  0  0  0  0  0  0  0
   18.4676  -17.7992  -14.3993 N   0  0  0  0  0  0  0  0  0  0  0  0
   19.5647  -17.0671  -13.8177 C   0  0  0  0  0  0  0  0  0  0  0  0
   19.4576  -15.8300  -13.6253 O   0  0  0  0  0  0  0  0  0  0  0  0
   20.7551  -17.8891  -13.4939 C   0  0  0  0  0  0  0  0  0  0  0  0
   20.5611  -19.3692  -13.7701 C   0  0  2  0  0  0  0  0  0  0  0  0
   19.6360  -20.0662  -12.9805 N   0  0  0  0  0  0  0  0  0  0  0  0
   21.8413  -19.9765  -14.0630 C   0  0  0  0  0  0  0  0  0  0  0  0
   22.6331  -20.1370  -13.0718 O   0  0  0  0  0  0  0  0  0  0  0  0
   26.8565  -25.1839  -16.5280 N   0  0  0  0  0  0  0  0  0  0  0  0
   25.7507  -26.0674  -16.6088 C   0  0  0  0  0  0  0  0  0  0  0  0
   25.9087  -27.3619  -16.4829 N   0  0  0  0  0  0  0  0  0  0  0  0
   24.4220  -25.6920  -16.8415 N   0  0  0  0  0  0  0  0  0  0  0  0
   23.7725  -24.4579  -16.9136 C   0  0  0  0  0  0  0  0  0  0  0  0
   24.3788  -23.1599  -16.6691 C   0  0  0  0  0  0  0  0  0  0  0  0
   23.6138  -21.9083  -16.7336 C   0  0  0  0  0  0  0  0  0  0  0  0
   23.6375  -21.0318  -15.5151 C   0  0  2  0  0  0  0  0  0  0  0  0
   22.3152  -20.4106  -15.3054 N   0  0  0  0  0  0  0  0  0  0  0  0
   24.7093  -20.0650  -15.3862 C   0  0  0  0  0  0  0  0  0  0  0  0
   24.5347  -18.8429  -15.7704 O   0  0  0  0  0  0  0  0  0  0  0  0
   25.9777  -20.2833  -14.8714 O   0  0  0  0  0  0  0  0  0  0  0  0
  2  5  1  0
  2  1  1  6
  3  2  1  0
  4  3  1  0
  5  6  2  0
  7  8  1  0
  8 10  1  0
  9  8  2  0
 11 10  1  1
 12  5  1  0
 12 11  1  0
 13 23  1  0
 13 11  1  0
 14 13  2  0
 15 16  1  0
 16 18  1  0
 16 17  2  0
 18 19  1  0
 20 19  1  0
 21 20  1  0
 22 23  1  0
 22 21  1  6
 24 22  1  0
 25 24  2  0
 26 24  1  0
M  END
$$$$
