CNR.pdb
     RDKit          3D

 26 25  0  0  1  0  0  0  0  0999 V2000
   26.6175  -22.0722  -12.8829 N   0  0  0  0  0  0  0  0  0  0  0  0
   25.5785  -21.7344  -11.9356 C   0  0  1  0  0  0  0  0  0  0  0  0
   26.2065  -21.0749  -10.7257 C   0  0  0  0  0  0  0  0  0  0  0  0
   27.6188  -21.9851  -10.1038 S   0  0  0  0  0  0  0  0  0  0  0  0
   24.6316  -20.7544  -12.6125 C   0  0  0  0  0  0  0  0  0  0  0  0
   25.0231  -19.5913  -12.8564 O   0  0  0  0  0  0  0  0  0  0  0  0
   22.8189  -19.8732  -17.6560 N   0  0  0  0  0  0  0  0  0  0  0  0
   23.0707  -19.6047  -16.2623 C   0  0  0  0  0  0  0  0  0  0  0  0
   23.0483  -18.4213  -15.8404 O   0  0  0  0  0  0  0  0  0  0  0  0
   23.3407  -20.8075  -15.4389 C   0  0  0  0  0  0  0  0  0  0  0  0
   22.6032  -20.8099  -14.1121 C   0  0  2  0  0  0  0  0  0  0  0  0
   23.3283  -21.1496  -12.9614 N   0  0  0  0  0  0  0  0  0  0  0  0
   21.2762  -21.3554  -14.2992 C   0  0  0  0  0  0  0  0  0  0  0  0
   21.2098  -22.5143  -14.8355 O   0  0  0  0  0  0  0  0  0  0  0  0
   19.9043  -25.7862  -10.0101 N   0  0  0  0  0  0  0  0  0  0  0  0
   19.0720  -24.7249   -9.5734 C   0  0  0  0  0  0  0  0  0  0  0  0
   19.1247  -24.2878   -8.3395 N   0  0  0  0  0  0  0  0  0  0  0  0
   18.1229  -24.0571  -10.3570 N   0  0  0  0  0  0  0  0  0  0  0  0
   17.7981  -24.1005  -11.7144 C   0  0  0  0  0  0  0  0  0  0  0  0
   18.4510  -23.3470  -12.7719 C   0  0  0  0  0  0  0  0  0  0  0  0
   18.1153  -21.9481  -13.0652 C   0  0  0  0  0  0  0  0  0  0  0  0
   18.7369  -21.3404  -14.2890 C   0  0  2  0  0  0  0  0  0  0  0  0
   20.0550  -20.7631  -13.9609 N   0  0  0  0  0  0  0  0  0  0  0  0
   17.9375  -20.4308  -15.0849 C   0  0  0  0  0  0  0  0  0  0  0  0
   18.0076  -19.1554  -14.8848 O   0  0  0  0  0  0  0  0  0  0  0  0
   17.0526  -20.7607  -16.0996 O   0  0  0  0  0  0  0  0  0  0  0  0
  2  5  1  0
  2  1  1  6
  3  2  1  0
  4  3  1  0
  5  6  2  0
  7  8  1  0
  8 10  1  0
  9  8  2  0
 11 10  1  6
 12  5  1  0
 12 11  1  0
 13 23  1  0
 13 11  1  0
 14 13  2  0
 15 16  1  0
 16 18  1  0
 16 17  2  0
 18 19  1  0
 20 19  1  0
 21 20  1  0
 22 23  1  0
 22 21  1  1
 24 22  1  0
 25 24  2  0
 26 24  1  0
M  END
$$$$
