CNR.pdb
     RDKit          3D

 26 25  0  0  1  0  0  0  0  0999 V2000
   18.3602  -10.0044  -13.9247 N   0  0  0  0  0  0  0  0  0  0  0  0
   17.9125   -8.6347  -14.0458 C   0  0  1  0  0  0  0  0  0  0  0  0
   16.6962   -8.5889  -14.9467 C   0  0  0  0  0  0  0  0  0  0  0  0
   17.0598   -9.1210  -16.6183 S   0  0  0  0  0  0  0  0  0  0  0  0
   17.5330   -8.1440  -12.6565 C   0  0  0  0  0  0  0  0  0  0  0  0
   17.0345   -8.9471  -11.8366 O   0  0  0  0  0  0  0  0  0  0  0  0
   18.3173   -3.5311   -8.9057 N   0  0  0  0  0  0  0  0  0  0  0  0
   18.3349   -4.9671   -9.0303 C   0  0  0  0  0  0  0  0  0  0  0  0
   18.0884   -5.6839   -8.0282 O   0  0  0  0  0  0  0  0  0  0  0  0
   18.6559   -5.4668  -10.3885 C   0  0  0  0  0  0  0  0  0  0  0  0
   17.5023   -6.1966  -11.0526 C   0  0  2  0  0  0  0  0  0  0  0  0
   17.7392   -6.8011  -12.2950 N   0  0  0  0  0  0  0  0  0  0  0  0
   16.2795   -5.4499  -10.8505 C   0  0  0  0  0  0  0  0  0  0  0  0
   16.1293   -4.4024  -11.5682 O   0  0  0  0  0  0  0  0  0  0  0  0
    8.7367   -8.0444   -6.8380 N   0  0  0  0  0  0  0  0  0  0  0  0
    9.5228   -6.9801   -6.3290 C   0  0  0  0  0  0  0  0  0  0  0  0
    9.3508   -6.5358   -5.1086 N   0  0  0  0  0  0  0  0  0  0  0  0
   10.5165   -6.2902   -7.0342 N   0  0  0  0  0  0  0  0  0  0  0  0
   10.5393   -5.6384   -8.2689 C   0  0  0  0  0  0  0  0  0  0  0  0
   11.6881   -4.9734   -8.8608 C   0  0  0  0  0  0  0  0  0  0  0  0
   12.9878   -5.6379   -9.0192 C   0  0  0  0  0  0  0  0  0  0  0  0
   14.0466   -4.8914   -9.7777 C   0  0  2  0  0  0  0  0  0  0  0  0
   15.2398   -5.7406   -9.9610 N   0  0  0  0  0  0  0  0  0  0  0  0
   14.4014   -3.5597   -9.3298 C   0  0  0  0  0  0  0  0  0  0  0  0
   15.2027   -3.4007   -8.3278 O   0  0  0  0  0  0  0  0  0  0  0  0
   13.9746   -2.3540   -9.8644 O   0  0  0  0  0  0  0  0  0  0  0  0
  2  5  1  0
  2  1  1  1
  3  2  1  0
  4  3  1  0
  5  6  2  0
  7  8  1  0
  8 10  1  0
  9  8  2  0
 11 10  1  6
 12  5  1  0
 12 11  1  0
 13 23  1  0
 13 11  1  0
 14 13  2  0
 15 16  1  0
 16 18  1  0
 16 17  2  0
 18 19  1  0
 20 19  1  0
 21 20  1  0
 22 23  1  0
 22 21  1  1
 24 22  1  0
 25 24  2  0
 26 24  1  0
M  END
$$$$
