CNR.pdb
     RDKit          3D

 26 25  0  0  1  0  0  0  0  0999 V2000
   33.8586  -38.0104   -7.3364 N   0  0  0  0  0  0  0  0  0  0  0  0
   33.7551  -36.6345   -6.9036 C   0  0  1  0  0  0  0  0  0  0  0  0
   33.1918  -35.8003   -8.0350 C   0  0  0  0  0  0  0  0  0  0  0  0
   34.4698  -35.1402   -9.1030 S   0  0  0  0  0  0  0  0  0  0  0  0
   32.8026  -36.5895   -5.7179 C   0  0  0  0  0  0  0  0  0  0  0  0
   31.7808  -37.3117   -5.7234 O   0  0  0  0  0  0  0  0  0  0  0  0
   30.7911  -35.7249   -1.2543 N   0  0  0  0  0  0  0  0  0  0  0  0
   32.0861  -35.1350   -1.0245 C   0  0  0  0  0  0  0  0  0  0  0  0
   32.4010  -34.7502    0.1295 O   0  0  0  0  0  0  0  0  0  0  0  0
   32.9465  -35.0417   -2.2280 C   0  0  0  0  0  0  0  0  0  0  0  0
   32.2644  -35.5193   -3.4973 C   0  0  2  0  0  0  0  0  0  0  0  0
   33.0657  -35.7449   -4.6253 N   0  0  0  0  0  0  0  0  0  0  0  0
   31.0005  -34.8324   -3.6529 C   0  0  0  0  0  0  0  0  0  0  0  0
   31.0595  -33.6193   -4.0527 O   0  0  0  0  0  0  0  0  0  0  0  0
   26.5539  -31.5771   -8.4596 N   0  0  0  0  0  0  0  0  0  0  0  0
   25.3691  -32.1843   -7.9722 C   0  0  0  0  0  0  0  0  0  0  0  0
   24.2246  -31.5471   -7.9933 N   0  0  0  0  0  0  0  0  0  0  0  0
   25.2787  -33.4663   -7.4165 N   0  0  0  0  0  0  0  0  0  0  0  0
   26.2011  -34.3079   -6.7913 C   0  0  0  0  0  0  0  0  0  0  0  0
   26.8423  -34.0674   -5.5094 C   0  0  0  0  0  0  0  0  0  0  0  0
   27.8519  -34.9754   -4.9508 C   0  0  0  0  0  0  0  0  0  0  0  0
   28.4735  -34.5811   -3.6425 C   0  0  2  0  0  0  0  0  0  0  0  0
   29.7188  -35.3409   -3.4177 N   0  0  0  0  0  0  0  0  0  0  0  0
   27.6347  -34.5671   -2.4610 C   0  0  0  0  0  0  0  0  0  0  0  0
   26.6864  -33.6959   -2.3450 O   0  0  0  0  0  0  0  0  0  0  0  0
   27.7117  -35.4162   -1.3679 O   0  0  0  0  0  0  0  0  0  0  0  0
  2  5  1  0
  2  1  1  6
  3  2  1  0
  4  3  1  0
  5  6  2  0
  7  8  1  0
  8 10  1  0
  9  8  2  0
 11 10  1  1
 12  5  1  0
 12 11  1  0
 13 23  1  0
 13 11  1  0
 14 13  2  0
 15 16  1  0
 16 18  1  0
 16 17  2  0
 18 19  1  0
 20 19  1  0
 21 20  1  0
 22 23  1  0
 22 21  1  6
 24 22  1  0
 25 24  2  0
 26 24  1  0
M  END
$$$$
