CNR.pdb
     RDKit          3D

 26 25  0  0  1  0  0  0  0  0999 V2000
   27.9789  -21.5814  -16.1194 N   0  0  0  0  0  0  0  0  0  0  0  0
   26.8001  -21.0006  -16.7229 C   0  0  1  0  0  0  0  0  0  0  0  0
   26.1359  -22.0346  -17.6078 C   0  0  0  0  0  0  0  0  0  0  0  0
   27.2755  -22.7698  -18.7784 S   0  0  0  0  0  0  0  0  0  0  0  0
   25.8491  -20.6064  -15.6024 C   0  0  0  0  0  0  0  0  0  0  0  0
   26.2987  -20.4352  -14.4474 O   0  0  0  0  0  0  0  0  0  0  0  0
   22.2658  -17.3913  -14.3081 N   0  0  0  0  0  0  0  0  0  0  0  0
   23.4409  -16.9048  -14.9866 C   0  0  0  0  0  0  0  0  0  0  0  0
   23.7020  -15.6757  -14.9799 O   0  0  0  0  0  0  0  0  0  0  0  0
   24.2523  -17.9539  -15.6489 C   0  0  0  0  0  0  0  0  0  0  0  0
   23.6645  -19.3472  -15.5154 C   0  0  2  0  0  0  0  0  0  0  0  0
   24.4776  -20.4359  -15.8600 N   0  0  0  0  0  0  0  0  0  0  0  0
   22.2834  -19.3309  -15.9464 C   0  0  0  0  0  0  0  0  0  0  0  0
   21.8696  -18.2470  -16.4839 O   0  0  0  0  0  0  0  0  0  0  0  0
   20.6122  -22.8658   -8.2662 N   0  0  0  0  0  0  0  0  0  0  0  0
   19.6276  -22.9926   -9.2783 C   0  0  0  0  0  0  0  0  0  0  0  0
   18.7306  -23.9464   -9.2336 N   0  0  0  0  0  0  0  0  0  0  0  0
   19.5066  -22.1713  -10.4060 N   0  0  0  0  0  0  0  0  0  0  0  0
   20.3850  -21.3054  -11.0606 C   0  0  0  0  0  0  0  0  0  0  0  0
   20.0937  -20.5454  -12.2647 C   0  0  0  0  0  0  0  0  0  0  0  0
   20.9771  -20.5582  -13.4374 C   0  0  0  0  0  0  0  0  0  0  0  0
   20.3230  -20.4513  -14.7844 C   0  0  2  0  0  0  0  0  0  0  0  0
   21.3460  -20.3641  -15.8448 N   0  0  0  0  0  0  0  0  0  0  0  0
   19.2804  -19.4611  -14.9641 C   0  0  0  0  0  0  0  0  0  0  0  0
   19.5512  -18.2017  -14.8542 O   0  0  0  0  0  0  0  0  0  0  0  0
   17.9460  -19.6930  -15.2599 O   0  0  0  0  0  0  0  0  0  0  0  0
  2  5  1  0
  2  1  1  1
  3  2  1  0
  4  3  1  0
  5  6  2  0
  7  8  1  0
  8 10  1  0
  9  8  2  0
 11 10  1  6
 12  5  1  0
 12 11  1  0
 13 23  1  0
 13 11  1  0
 14 13  2  0
 15 16  1  0
 16 18  1  0
 16 17  2  0
 18 19  1  0
 20 19  1  0
 21 20  1  0
 22 23  1  0
 22 21  1  1
 24 22  1  0
 25 24  2  0
 26 24  1  0
M  END
$$$$
