CNR.pdb
     RDKit          3D

 26 25  0  0  1  0  0  0  0  0999 V2000
   20.6979  -11.1558    5.8515 N   0  0  0  0  0  0  0  0  0  0  0  0
   19.8347  -11.6322    6.9094 C   0  0  1  0  0  0  0  0  0  0  0  0
   18.6472  -12.3447    6.2967 C   0  0  0  0  0  0  0  0  0  0  0  0
   17.3539  -11.2127    5.7910 S   0  0  0  0  0  0  0  0  0  0  0  0
   20.6328  -12.6131    7.7557 C   0  0  0  0  0  0  0  0  0  0  0  0
   21.3445  -13.4735    7.1912 O   0  0  0  0  0  0  0  0  0  0  0  0
   23.1252  -14.7534   11.4102 N   0  0  0  0  0  0  0  0  0  0  0  0
   22.7701  -13.5153   12.0575 C   0  0  0  0  0  0  0  0  0  0  0  0
   23.3704  -13.1632   13.1037 O   0  0  0  0  0  0  0  0  0  0  0  0
   21.6866  -12.7558   11.3893 C   0  0  0  0  0  0  0  0  0  0  0  0
   21.2257  -13.3807   10.0849 C   0  0  2  0  0  0  0  0  0  0  0  0
   20.5724  -12.5553    9.1591 N   0  0  0  0  0  0  0  0  0  0  0  0
   20.7049  -14.7057   10.3429 C   0  0  0  0  0  0  0  0  0  0  0  0
   19.4965  -14.7697   10.7560 O   0  0  0  0  0  0  0  0  0  0  0  0
   16.8547  -20.9595    5.8773 N   0  0  0  0  0  0  0  0  0  0  0  0
   17.0443  -21.3811    7.2175 C   0  0  0  0  0  0  0  0  0  0  0  0
   16.4854  -22.4774    7.6672 N   0  0  0  0  0  0  0  0  0  0  0  0
   17.7959  -20.7053    8.1866 N   0  0  0  0  0  0  0  0  0  0  0  0
   18.5591  -19.5361    8.1652 C   0  0  0  0  0  0  0  0  0  0  0  0
   19.2720  -18.9626    9.2944 C   0  0  0  0  0  0  0  0  0  0  0  0
   20.0455  -17.7191    9.1885 C   0  0  0  0  0  0  0  0  0  0  0  0
   20.7440  -17.2434   10.4292 C   0  0  2  0  0  0  0  0  0  0  0  0
   21.3691  -15.9275   10.1923 N   0  0  0  0  0  0  0  0  0  0  0  0
   21.6513  -18.1542   11.0978 C   0  0  0  0  0  0  0  0  0  0  0  0
   22.9295  -17.9772   11.0174 O   0  0  0  0  0  0  0  0  0  0  0  0
   21.3159  -19.2595   11.8642 O   0  0  0  0  0  0  0  0  0  0  0  0
  2  5  1  0
  2  1  1  6
  3  2  1  0
  4  3  1  0
  5  6  2  0
  7  8  1  0
  8 10  1  0
  9  8  2  0
 11 10  1  1
 12  5  1  0
 12 11  1  0
 13 23  1  0
 13 11  1  0
 14 13  2  0
 15 16  1  0
 16 18  1  0
 16 17  2  0
 18 19  1  0
 20 19  1  0
 21 20  1  0
 22 23  1  0
 22 21  1  6
 24 22  1  0
 25 24  2  0
 26 24  1  0
M  END
$$$$
