CNR.pdb
     RDKit          3D

 26 25  0  0  1  0  0  0  0  0999 V2000
   26.3239  -21.1203  -12.5110 N   0  0  0  0  0  0  0  0  0  0  0  0
   26.9075  -20.4317  -13.6408 C   0  0  1  0  0  0  0  0  0  0  0  0
   26.8989  -21.3542  -14.8416 C   0  0  0  0  0  0  0  0  0  0  0  0
   28.0490  -22.7169  -14.6684 S   0  0  0  0  0  0  0  0  0  0  0  0
   26.0506  -19.2092  -13.9347 C   0  0  0  0  0  0  0  0  0  0  0  0
   24.8370  -19.2226  -13.6304 O   0  0  0  0  0  0  0  0  0  0  0  0
   24.6109  -14.7265  -15.8114 N   0  0  0  0  0  0  0  0  0  0  0  0
   26.0332  -14.5141  -15.7122 C   0  0  0  0  0  0  0  0  0  0  0  0
   26.5077  -13.3660  -15.9008 O   0  0  0  0  0  0  0  0  0  0  0  0
   26.8189  -15.7272  -15.3829 C   0  0  0  0  0  0  0  0  0  0  0  0
   25.9612  -16.9086  -14.9666 C   0  0  2  0  0  0  0  0  0  0  0  0
   26.6147  -18.0741  -14.5427 N   0  0  0  0  0  0  0  0  0  0  0  0
   24.8261  -17.0175  -15.8572 C   0  0  0  0  0  0  0  0  0  0  0  0
   25.0692  -17.4496  -17.0358 O   0  0  0  0  0  0  0  0  0  0  0  0
   19.0577  -21.6555  -13.2389 N   0  0  0  0  0  0  0  0  0  0  0  0
   19.3549  -22.3602  -14.4326 C   0  0  0  0  0  0  0  0  0  0  0  0
   18.5093  -23.2253  -14.9356 N   0  0  0  0  0  0  0  0  0  0  0  0
   20.5356  -22.2438  -15.1762 N   0  0  0  0  0  0  0  0  0  0  0  0
   21.5754  -21.3118  -15.1852 C   0  0  0  0  0  0  0  0  0  0  0  0
   21.4726  -19.9237  -15.6033 C   0  0  0  0  0  0  0  0  0  0  0  0
   22.5457  -18.9491  -15.3701 C   0  0  0  0  0  0  0  0  0  0  0  0
   22.3490  -17.5714  -15.9330 C   0  0  2  0  0  0  0  0  0  0  0  0
   23.4911  -16.7059  -15.5793 N   0  0  0  0  0  0  0  0  0  0  0  0
   21.0822  -16.9084  -15.6974 C   0  0  0  0  0  0  0  0  0  0  0  0
   19.9816  -17.4338  -16.1267 O   0  0  0  0  0  0  0  0  0  0  0  0
   20.8736  -15.7121  -15.0289 O   0  0  0  0  0  0  0  0  0  0  0  0
  2  5  1  0
  2  1  1  1
  3  2  1  0
  4  3  1  0
  5  6  2  0
  7  8  1  0
  8 10  1  0
  9  8  2  0
 11 10  1  6
 12  5  1  0
 12 11  1  0
 13 23  1  0
 13 11  1  0
 14 13  2  0
 15 16  1  0
 16 18  1  0
 16 17  2  0
 18 19  1  0
 20 19  1  0
 21 20  1  0
 22 23  1  0
 22 21  1  1
 24 22  1  0
 25 24  2  0
 26 24  1  0
M  END
$$$$
