MML.pdb
     RDKit          3D

 25 24  0  0  1  0  0  0  0  0999 V2000
    7.0702  -13.7162   27.0116 C   0  0  0  0  0  0  0  0  0  0  0  0
    5.5205  -14.2046   26.2342 S   0  0  0  0  0  0  0  0  0  0  0  0
    5.1756  -15.9548   26.6678 C   0  0  0  0  0  0  0  0  0  0  0  0
    6.3498  -16.7648   26.2153 C   0  0  0  0  0  0  0  0  0  0  0  0
    6.1714  -17.4553   24.8971 C   0  0  2  0  0  0  0  0  0  0  0  0
    6.1466  -18.8901   25.1744 N   0  0  0  0  0  0  0  0  0  0  0  0
    7.2970  -17.2274   23.9599 C   0  0  0  0  0  0  0  0  0  0  0  0
    8.1077  -18.1806   23.7933 O   0  0  0  0  0  0  0  0  0  0  0  0
    8.0647  -11.5824   20.7050 C   0  0  0  0  0  0  0  0  0  0  0  0
    8.8737  -12.7148   19.5398 S   0  0  0  0  0  0  0  0  0  0  0  0
    9.2559  -14.2368   20.4368 C   0  0  0  0  0  0  0  0  0  0  0  0
    8.3240  -14.5372   21.5413 C   0  0  0  0  0  0  0  0  0  0  0  0
    8.6097  -15.7811   22.3508 C   0  0  2  0  0  0  0  0  0  0  0  0
    7.4815  -16.0098   23.2692 N   0  0  0  0  0  0  0  0  0  0  0  0
    9.8139  -15.6854   23.1967 C   0  0  0  0  0  0  0  0  0  0  0  0
   10.9457  -15.5290   22.6169 O   0  0  0  0  0  0  0  0  0  0  0  0
   10.5530  -12.8263   26.1682 C   0  0  0  0  0  0  0  0  0  0  0  0
    9.8802  -14.0369   26.8317 C   0  0  2  0  0  0  0  0  0  0  0  0
    9.6579  -13.6291   28.2885 C   0  0  0  0  0  0  0  0  0  0  0  0
   10.8592  -15.1553   26.7488 C   0  0  0  0  0  0  0  0  0  0  0  0
   11.0584  -15.7575   25.3993 C   0  0  2  0  0  0  0  0  0  0  0  0
    9.8414  -15.7480   24.6128 N   0  0  0  0  0  0  0  0  0  0  0  0
   11.7172  -17.0714   25.3827 C   0  0  0  0  0  0  0  0  0  0  0  0
   12.8389  -17.2718   25.9619 O   0  0  0  0  0  0  0  0  0  0  0  0
   11.1721  -18.1749   24.7436 O   0  0  0  0  0  0  0  0  0  0  0  0
  1  2  1  0
  3  2  1  0
  4  3  1  0
  5  6  1  1
  5  4  1  0
  7  5  1  0
  8  7  2  0
 10  9  1  0
 10 11  1  0
 11 12  1  0
 13 12  1  1
 13 14  1  0
 14  7  1  0
 15 13  1  0
 15 16  2  0
 18 17  1  6
 18 20  1  0
 18 19  1  0
 21 20  1  1
 21 22  1  0
 22 15  1  0
 23 21  1  0
 24 23  2  0
 25 23  1  0
M  END
$$$$
