MML.pdb
     RDKit          3D

 25 24  0  0  1  0  0  0  0  0999 V2000
    8.7219  -11.9217   18.7353 C   0  0  0  0  0  0  0  0  0  0  0  0
    7.5442  -13.2507   18.4333 S   0  0  0  0  0  0  0  0  0  0  0  0
    7.8072  -14.5615   19.6915 C   0  0  0  0  0  0  0  0  0  0  0  0
    9.2228  -15.0282   19.5581 C   0  0  0  0  0  0  0  0  0  0  0  0
    9.6449  -16.0614   20.5585 C   0  0  2  0  0  0  0  0  0  0  0  0
    8.6925  -17.1647   20.4503 N   0  0  0  0  0  0  0  0  0  0  0  0
    9.5761  -15.5821   21.9594 C   0  0  0  0  0  0  0  0  0  0  0  0
   10.4286  -14.7215   22.3146 O   0  0  0  0  0  0  0  0  0  0  0  0
    6.2921  -12.2612   27.2917 C   0  0  0  0  0  0  0  0  0  0  0  0
    6.9216  -12.9704   25.7440 S   0  0  0  0  0  0  0  0  0  0  0  0
    6.5350  -14.7361   25.7578 C   0  0  0  0  0  0  0  0  0  0  0  0
    6.9487  -15.4547   24.5367 C   0  0  0  0  0  0  0  0  0  0  0  0
    8.4238  -15.4408   24.2081 C   0  0  2  0  0  0  0  0  0  0  0  0
    8.6120  -16.0481   22.8798 N   0  0  0  0  0  0  0  0  0  0  0  0
    9.2553  -16.2260   25.1392 C   0  0  0  0  0  0  0  0  0  0  0  0
    9.6314  -17.3943   24.7711 O   0  0  0  0  0  0  0  0  0  0  0  0
   10.5024  -13.5194   28.0207 C   0  0  0  0  0  0  0  0  0  0  0  0
   10.0849  -14.7039   28.9044 C   0  0  2  0  0  0  0  0  0  0  0  0
   10.3958  -14.2698   30.3373 C   0  0  0  0  0  0  0  0  0  0  0  0
   10.9529  -15.8463   28.5077 C   0  0  0  0  0  0  0  0  0  0  0  0
   10.5346  -16.5996   27.2908 C   0  0  2  0  0  0  0  0  0  0  0  0
    9.6887  -15.8062   26.4220 N   0  0  0  0  0  0  0  0  0  0  0  0
    9.9767  -17.9376   27.5342 C   0  0  0  0  0  0  0  0  0  0  0  0
    8.7686  -18.2299   27.2364 O   0  0  0  0  0  0  0  0  0  0  0  0
   10.7159  -18.9664   28.0986 O   0  0  0  0  0  0  0  0  0  0  0  0
  1  2  1  0
  3  2  1  0
  4  3  1  0
  5  6  1  1
  5  4  1  0
  7  5  1  0
  8  7  2  0
 10  9  1  0
 10 11  1  0
 11 12  1  0
 13 12  1  1
 13 14  1  0
 14  7  1  0
 15 13  1  0
 15 16  2  0
 18 17  1  6
 18 20  1  0
 18 19  1  0
 21 20  1  1
 21 22  1  0
 22 15  1  0
 23 21  1  0
 24 23  2  0
 25 23  1  0
M  END
$$$$
