MML.pdb
     RDKit          3D

 25 24  0  0  1  0  0  0  0  0999 V2000
    7.8704  -20.3056   27.5325 C   0  0  0  0  0  0  0  0  0  0  0  0
    7.1859  -21.5975   26.4804 S   0  0  0  0  0  0  0  0  0  0  0  0
    6.3922  -20.8070   25.0259 C   0  0  0  0  0  0  0  0  0  0  0  0
    7.1539  -19.5531   24.7305 C   0  0  0  0  0  0  0  0  0  0  0  0
    6.6026  -18.7281   23.6073 C   0  0  2  0  0  0  0  0  0  0  0  0
    6.7411  -19.5274   22.3916 N   0  0  0  0  0  0  0  0  0  0  0  0
    7.3595  -17.4749   23.3753 C   0  0  0  0  0  0  0  0  0  0  0  0
    8.2881  -17.5145   22.5211 O   0  0  0  0  0  0  0  0  0  0  0  0
    5.7600  -11.9994   26.3995 C   0  0  0  0  0  0  0  0  0  0  0  0
    7.0036  -11.2566   25.3057 S   0  0  0  0  0  0  0  0  0  0  0  0
    7.9083  -12.6068   24.5147 C   0  0  0  0  0  0  0  0  0  0  0  0
    7.2157  -13.9093   24.5652 C   0  0  0  0  0  0  0  0  0  0  0  0
    7.9584  -15.0953   23.9944 C   0  0  2  0  0  0  0  0  0  0  0  0
    7.0784  -16.2742   24.0630 N   0  0  0  0  0  0  0  0  0  0  0  0
    9.1817  -15.4533   24.7360 C   0  0  0  0  0  0  0  0  0  0  0  0
   10.2435  -14.7728   24.5096 O   0  0  0  0  0  0  0  0  0  0  0  0
   10.9476  -13.9527   27.6309 C   0  0  0  0  0  0  0  0  0  0  0  0
    9.8293  -14.9079   28.0730 C   0  0  2  0  0  0  0  0  0  0  0  0
    9.6156  -14.6210   29.5597 C   0  0  0  0  0  0  0  0  0  0  0  0
   10.3579  -16.2861   27.8805 C   0  0  0  0  0  0  0  0  0  0  0  0
   10.4956  -16.7475   26.4693 C   0  0  2  0  0  0  0  0  0  0  0  0
    9.2988  -16.4928   25.6930 N   0  0  0  0  0  0  0  0  0  0  0  0
   10.9837  -18.1233   26.2972 C   0  0  0  0  0  0  0  0  0  0  0  0
   10.3185  -18.9995   25.6464 O   0  0  0  0  0  0  0  0  0  0  0  0
   12.1893  -18.5620   26.8240 O   0  0  0  0  0  0  0  0  0  0  0  0
  1  2  1  0
  3  2  1  0
  4  3  1  0
  5  6  1  6
  5  4  1  0
  7  5  1  0
  8  7  2  0
 10  9  1  0
 10 11  1  0
 11 12  1  0
 13 12  1  1
 13 14  1  0
 14  7  1  0
 15 13  1  0
 15 16  2  0
 18 17  1  1
 18 20  1  0
 18 19  1  0
 21 20  1  1
 21 22  1  0
 22 15  1  0
 23 21  1  0
 24 23  2  0
 25 23  1  0
M  END
$$$$
