MML.pdb
     RDKit          3D

 25 24  0  0  1  0  0  0  0  0999 V2000
   11.2726  -21.1732   24.0796 C   0  0  0  0  0  0  0  0  0  0  0  0
   10.1588  -22.0495   22.9679 S   0  0  0  0  0  0  0  0  0  0  0  0
    9.4889  -20.8518   21.7484 C   0  0  0  0  0  0  0  0  0  0  0  0
    9.4393  -19.5150   22.4192 C   0  0  0  0  0  0  0  0  0  0  0  0
    8.8227  -18.4201   21.6023 C   0  0  2  0  0  0  0  0  0  0  0  0
    9.4557  -18.4706   20.2860 N   0  0  0  0  0  0  0  0  0  0  0  0
    9.0866  -17.0659   22.1443 C   0  0  0  0  0  0  0  0  0  0  0  0
   10.1825  -16.5245   21.8289 O   0  0  0  0  0  0  0  0  0  0  0  0
    6.2893  -11.0393   26.3905 C   0  0  0  0  0  0  0  0  0  0  0  0
    6.1071  -12.7751   25.8918 S   0  0  0  0  0  0  0  0  0  0  0  0
    7.1760  -13.0446   24.4593 C   0  0  0  0  0  0  0  0  0  0  0  0
    7.1211  -14.4150   23.9139 C   0  0  0  0  0  0  0  0  0  0  0  0
    8.4381  -15.0400   23.5153 C   0  0  2  0  0  0  0  0  0  0  0  0
    8.1730  -16.3855   22.9785 N   0  0  0  0  0  0  0  0  0  0  0  0
    9.3805  -15.2238   24.6347 C   0  0  0  0  0  0  0  0  0  0  0  0
    9.9388  -14.1816   25.1285 O   0  0  0  0  0  0  0  0  0  0  0  0
   11.2902  -14.4612   28.6987 C   0  0  0  0  0  0  0  0  0  0  0  0
   10.0332  -14.4493   27.8166 C   0  0  2  0  0  0  0  0  0  0  0  0
    8.9612  -13.7440   28.6484 C   0  0  0  0  0  0  0  0  0  0  0  0
    9.6652  -15.8747   27.5959 C   0  0  0  0  0  0  0  0  0  0  0  0
   10.4003  -16.5840   26.5097 C   0  0  2  0  0  0  0  0  0  0  0  0
    9.7328  -16.4616   25.2293 N   0  0  0  0  0  0  0  0  0  0  0  0
   10.7809  -17.9729   26.8042 C   0  0  0  0  0  0  0  0  0  0  0  0
   11.8970  -18.2651   27.3544 O   0  0  0  0  0  0  0  0  0  0  0  0
    9.9626  -19.0528   26.5085 O   0  0  0  0  0  0  0  0  0  0  0  0
  1  2  1  0
  3  2  1  0
  4  3  1  0
  5  6  1  6
  5  4  1  0
  7  5  1  0
  8  7  2  0
 10  9  1  0
 10 11  1  0
 11 12  1  0
 13 12  1  1
 13 14  1  0
 14  7  1  0
 15 13  1  0
 15 16  2  0
 18 17  1  1
 18 20  1  0
 18 19  1  0
 21 20  1  1
 21 22  1  0
 22 15  1  0
 23 21  1  0
 24 23  2  0
 25 23  1  0
M  END
$$$$
