MML.pdb
     RDKit          3D

 25 24  0  0  1  0  0  0  0  0999 V2000
   11.0554  -17.4118   17.2714 C   0  0  0  0  0  0  0  0  0  0  0  0
   10.2730  -19.0335   17.2233 S   0  0  0  0  0  0  0  0  0  0  0  0
    9.8609  -19.5344   18.9408 C   0  0  0  0  0  0  0  0  0  0  0  0
    9.4634  -18.2965   19.6818 C   0  0  0  0  0  0  0  0  0  0  0  0
    9.4269  -18.4367   21.1735 C   0  0  2  0  0  0  0  0  0  0  0  0
    8.0609  -18.8185   21.5263 N   0  0  0  0  0  0  0  0  0  0  0  0
    9.7069  -17.1684   21.8877 C   0  0  0  0  0  0  0  0  0  0  0  0
   10.8347  -16.6361   21.6923 O   0  0  0  0  0  0  0  0  0  0  0  0
    6.3065  -12.8362   27.0371 C   0  0  0  0  0  0  0  0  0  0  0  0
    6.1214  -12.8805   25.2320 S   0  0  0  0  0  0  0  0  0  0  0  0
    7.7098  -13.3882   24.5346 C   0  0  0  0  0  0  0  0  0  0  0  0
    7.6824  -14.7025   23.8633 C   0  0  0  0  0  0  0  0  0  0  0  0
    9.0054  -15.2387   23.3672 C   0  0  2  0  0  0  0  0  0  0  0  0
    8.7744  -16.5578   22.7544 N   0  0  0  0  0  0  0  0  0  0  0  0
   10.0059  -15.4501   24.4298 C   0  0  0  0  0  0  0  0  0  0  0  0
   11.0148  -14.6613   24.4718 O   0  0  0  0  0  0  0  0  0  0  0  0
   10.3589  -13.2313   28.0006 C   0  0  0  0  0  0  0  0  0  0  0  0
   10.2159  -14.7595   28.0476 C   0  0  2  0  0  0  0  0  0  0  0  0
   10.5125  -15.1500   29.4959 C   0  0  0  0  0  0  0  0  0  0  0  0
   11.2610  -15.3042   27.1381 C   0  0  0  0  0  0  0  0  0  0  0  0
   10.9466  -16.6032   26.4770 C   0  0  2  0  0  0  0  0  0  0  0  0
    9.9581  -16.4560   25.4276 N   0  0  0  0  0  0  0  0  0  0  0  0
   10.6286  -17.7154   27.3840 C   0  0  0  0  0  0  0  0  0  0  0  0
    9.4665  -18.2464   27.4198 O   0  0  0  0  0  0  0  0  0  0  0  0
   11.5591  -18.2609   28.2557 O   0  0  0  0  0  0  0  0  0  0  0  0
  1  2  1  0
  3  2  1  0
  4  3  1  0
  5  6  1  6
  5  4  1  0
  7  5  1  0
  8  7  2  0
 10  9  1  0
 10 11  1  0
 11 12  1  0
 13 12  1  1
 13 14  1  0
 14  7  1  0
 15 13  1  0
 15 16  2  0
 18 17  1  1
 18 20  1  0
 18 19  1  0
 21 20  1  1
 21 22  1  0
 22 15  1  0
 23 21  1  0
 24 23  2  0
 25 23  1  0
M  END
$$$$
