MML.pdb
     RDKit          3D

 25 24  0  0  1  0  0  0  0  0999 V2000
    7.8843  -19.3677   29.0480 C   0  0  0  0  0  0  0  0  0  0  0  0
    7.5960  -20.9421   28.2219 S   0  0  0  0  0  0  0  0  0  0  0  0
    6.5933  -20.6360   26.7148 C   0  0  0  0  0  0  0  0  0  0  0  0
    7.2516  -19.5232   25.9612 C   0  0  0  0  0  0  0  0  0  0  0  0
    6.4793  -19.0149   24.7816 C   0  0  2  0  0  0  0  0  0  0  0  0
    6.6058  -20.0227   23.7307 N   0  0  0  0  0  0  0  0  0  0  0  0
    7.0251  -17.7547   24.2236 C   0  0  0  0  0  0  0  0  0  0  0  0
    7.7750  -17.8513   23.2128 O   0  0  0  0  0  0  0  0  0  0  0  0
    5.0082  -11.9721   26.3378 C   0  0  0  0  0  0  0  0  0  0  0  0
    6.5783  -11.4040   25.6259 S   0  0  0  0  0  0  0  0  0  0  0  0
    7.2149  -12.7345   24.5811 C   0  0  0  0  0  0  0  0  0  0  0  0
    6.6803  -14.0701   24.9111 C   0  0  0  0  0  0  0  0  0  0  0  0
    7.4186  -15.2573   24.3372 C   0  0  2  0  0  0  0  0  0  0  0  0
    6.7375  -16.4872   24.7755 N   0  0  0  0  0  0  0  0  0  0  0  0
    8.8152  -15.3767   24.7956 C   0  0  0  0  0  0  0  0  0  0  0  0
    9.6682  -14.5290   24.3533 O   0  0  0  0  0  0  0  0  0  0  0  0
   10.0130  -13.9469   28.1292 C   0  0  0  0  0  0  0  0  0  0  0  0
    9.5894  -15.4094   28.3293 C   0  0  2  0  0  0  0  0  0  0  0  0
    9.5454  -15.6149   29.8439 C   0  0  0  0  0  0  0  0  0  0  0  0
   10.6646  -16.2415   27.7230 C   0  0  0  0  0  0  0  0  0  0  0  0
   10.6583  -16.3439   26.2354 C   0  0  2  0  0  0  0  0  0  0  0  0
    9.3137  -16.3526   25.6950 N   0  0  0  0  0  0  0  0  0  0  0  0
   11.4881  -17.4178   25.6707 C   0  0  0  0  0  0  0  0  0  0  0  0
   11.0092  -18.2906   24.8691 O   0  0  0  0  0  0  0  0  0  0  0  0
   12.8361  -17.5568   25.9655 O   0  0  0  0  0  0  0  0  0  0  0  0
  1  2  1  0
  3  2  1  0
  4  3  1  0
  5  6  1  6
  5  4  1  0
  7  5  1  0
  8  7  2  0
 10  9  1  0
 10 11  1  0
 11 12  1  0
 13 12  1  1
 13 14  1  0
 14  7  1  0
 15 13  1  0
 15 16  2  0
 18 17  1  1
 18 20  1  0
 18 19  1  0
 21 20  1  1
 21 22  1  0
 22 15  1  0
 23 21  1  0
 24 23  2  0
 25 23  1  0
M  END
$$$$
