MML.pdb
     RDKit          3D

 25 24  0  0  1  0  0  0  0  0999 V2000
    8.5087  -19.5620   28.5207 C   0  0  0  0  0  0  0  0  0  0  0  0
    7.2722  -20.8615   28.3578 S   0  0  0  0  0  0  0  0  0  0  0  0
    6.3937  -20.6352   26.7618 C   0  0  0  0  0  0  0  0  0  0  0  0
    7.0517  -19.4951   26.0498 C   0  0  0  0  0  0  0  0  0  0  0  0
    6.4385  -19.1352   24.7304 C   0  0  2  0  0  0  0  0  0  0  0  0
    6.7600  -20.2216   23.8072 N   0  0  0  0  0  0  0  0  0  0  0  0
    7.0050  -17.8995   24.1394 C   0  0  0  0  0  0  0  0  0  0  0  0
    7.8400  -18.0410   23.2033 O   0  0  0  0  0  0  0  0  0  0  0  0
    5.1519  -11.8172   26.1282 C   0  0  0  0  0  0  0  0  0  0  0  0
    6.7337  -11.5149   25.2907 S   0  0  0  0  0  0  0  0  0  0  0  0
    6.9967  -12.8669   24.1202 C   0  0  0  0  0  0  0  0  0  0  0  0
    6.5605  -14.1875   24.6147 C   0  0  0  0  0  0  0  0  0  0  0  0
    7.3212  -15.3889   24.1029 C   0  0  2  0  0  0  0  0  0  0  0  0
    6.6467  -16.6073   24.5817 N   0  0  0  0  0  0  0  0  0  0  0  0
    8.7114  -15.4725   24.5880 C   0  0  0  0  0  0  0  0  0  0  0  0
    9.6388  -14.9997   23.8410 O   0  0  0  0  0  0  0  0  0  0  0  0
   10.1244  -13.5444   27.8840 C   0  0  0  0  0  0  0  0  0  0  0  0
    9.6915  -14.9360   28.3681 C   0  0  2  0  0  0  0  0  0  0  0  0
    9.8818  -14.9145   29.8852 C   0  0  0  0  0  0  0  0  0  0  0  0
   10.6297  -15.9064   27.7404 C   0  0  0  0  0  0  0  0  0  0  0  0
   10.5074  -16.0801   26.2646 C   0  0  2  0  0  0  0  0  0  0  0  0
    9.1283  -16.0320   25.8221 N   0  0  0  0  0  0  0  0  0  0  0  0
   11.2294  -17.2293   25.6998 C   0  0  0  0  0  0  0  0  0  0  0  0
   12.4901  -17.3755   25.8513 O   0  0  0  0  0  0  0  0  0  0  0  0
   10.5983  -18.2257   24.9703 O   0  0  0  0  0  0  0  0  0  0  0  0
  1  2  1  0
  3  2  1  0
  4  3  1  0
  5  6  1  6
  5  4  1  0
  7  5  1  0
  8  7  2  0
 10  9  1  0
 10 11  1  0
 11 12  1  0
 13 12  1  1
 13 14  1  0
 14  7  1  0
 15 13  1  0
 15 16  2  0
 18 17  1  6
 18 20  1  0
 18 19  1  0
 21 20  1  1
 21 22  1  0
 22 15  1  0
 23 21  1  0
 24 23  2  0
 25 23  1  0
M  END
$$$$
