MML.pdb
     RDKit          3D

 25 24  0  0  1  0  0  0  0  0999 V2000
   10.0697  -18.5243   17.5076 C   0  0  0  0  0  0  0  0  0  0  0  0
    9.3748  -20.0723   18.1117 S   0  0  0  0  0  0  0  0  0  0  0  0
    8.1228  -19.6880   19.3982 C   0  0  0  0  0  0  0  0  0  0  0  0
    8.4633  -18.3445   19.9628 C   0  0  0  0  0  0  0  0  0  0  0  0
    8.5436  -18.2890   21.4583 C   0  0  2  0  0  0  0  0  0  0  0  0
    7.1941  -18.5378   21.9611 N   0  0  0  0  0  0  0  0  0  0  0  0
    8.9461  -16.9588   21.9739 C   0  0  0  0  0  0  0  0  0  0  0  0
   10.0216  -16.4713   21.5278 O   0  0  0  0  0  0  0  0  0  0  0  0
    5.5443  -13.3915   26.7131 C   0  0  0  0  0  0  0  0  0  0  0  0
    6.1939  -12.2222   25.4861 S   0  0  0  0  0  0  0  0  0  0  0  0
    7.6673  -12.9676   24.7509 C   0  0  0  0  0  0  0  0  0  0  0  0
    7.4180  -14.2527   24.0690 C   0  0  0  0  0  0  0  0  0  0  0  0
    8.6224  -14.9584   23.4898 C   0  0  2  0  0  0  0  0  0  0  0  0
    8.1820  -16.2437   22.9218 N   0  0  0  0  0  0  0  0  0  0  0  0
    9.6640  -15.2841   24.4817 C   0  0  0  0  0  0  0  0  0  0  0  0
   10.8346  -14.7927   24.3084 O   0  0  0  0  0  0  0  0  0  0  0  0
   11.6090  -13.7953   27.4921 C   0  0  0  0  0  0  0  0  0  0  0  0
   10.2875  -14.4774   27.8750 C   0  0  2  0  0  0  0  0  0  0  0  0
   10.0043  -14.0348   29.3110 C   0  0  0  0  0  0  0  0  0  0  0  0
   10.5446  -15.9428   27.8241 C   0  0  0  0  0  0  0  0  0  0  0  0
   10.5829  -16.5578   26.4663 C   0  0  2  0  0  0  0  0  0  0  0  0
    9.4928  -16.0993   25.6288 N   0  0  0  0  0  0  0  0  0  0  0  0
   10.7251  -18.0206   26.4370 C   0  0  0  0  0  0  0  0  0  0  0  0
   11.6791  -18.6186   27.0418 O   0  0  0  0  0  0  0  0  0  0  0  0
    9.8415  -18.8458   25.7575 O   0  0  0  0  0  0  0  0  0  0  0  0
  1  2  1  0
  3  2  1  0
  4  3  1  0
  5  6  1  1
  5  4  1  0
  7  5  1  0
  8  7  2  0
 10  9  1  0
 10 11  1  0
 11 12  1  0
 13 12  1  1
 13 14  1  0
 14  7  1  0
 15 13  1  0
 15 16  2  0
 18 17  1  1
 18 20  1  0
 18 19  1  0
 21 20  1  1
 21 22  1  0
 22 15  1  0
 23 21  1  0
 24 23  2  0
 25 23  1  0
M  END
$$$$
