MML.pdb
     RDKit          3D

 25 24  0  0  1  0  0  0  0  0999 V2000
    7.3943  -20.4876   21.2877 C   0  0  0  0  0  0  0  0  0  0  0  0
    7.4586  -20.2137   19.5086 S   0  0  0  0  0  0  0  0  0  0  0  0
    7.8231  -18.4405   19.2034 C   0  0  0  0  0  0  0  0  0  0  0  0
    8.4469  -17.8939   20.4491 C   0  0  0  0  0  0  0  0  0  0  0  0
    8.6470  -16.4086   20.4568 C   0  0  2  0  0  0  0  0  0  0  0  0
    9.7529  -16.1288   19.5432 N   0  0  0  0  0  0  0  0  0  0  0  0
    9.0512  -15.8793   21.7811 C   0  0  0  0  0  0  0  0  0  0  0  0
   10.2569  -16.0382   22.1194 O   0  0  0  0  0  0  0  0  0  0  0  0
    5.0249  -12.6144   26.7723 C   0  0  0  0  0  0  0  0  0  0  0  0
    6.5357  -11.8051   26.1748 S   0  0  0  0  0  0  0  0  0  0  0  0
    7.7204  -13.1048   25.7572 C   0  0  0  0  0  0  0  0  0  0  0  0
    7.5557  -13.6587   24.3990 C   0  0  0  0  0  0  0  0  0  0  0  0
    8.5526  -14.7103   23.9695 C   0  0  2  0  0  0  0  0  0  0  0  0
    8.1514  -15.2220   22.6482 N   0  0  0  0  0  0  0  0  0  0  0  0
    8.6129  -15.8828   24.8620 C   0  0  0  0  0  0  0  0  0  0  0  0
    7.9472  -16.9262   24.5305 O   0  0  0  0  0  0  0  0  0  0  0  0
   12.9364  -18.6934   24.2710 C   0  0  0  0  0  0  0  0  0  0  0  0
   11.9983  -18.6292   25.4852 C   0  0  2  0  0  0  0  0  0  0  0  0
   11.1860  -19.9239   25.4385 C   0  0  0  0  0  0  0  0  0  0  0  0
   11.1133  -17.4524   25.2666 C   0  0  0  0  0  0  0  0  0  0  0  0
   10.2273  -17.0743   26.4047 C   0  0  2  0  0  0  0  0  0  0  0  0
    9.3502  -15.9704   26.0697 N   0  0  0  0  0  0  0  0  0  0  0  0
   10.9035  -16.8715   27.6940 C   0  0  0  0  0  0  0  0  0  0  0  0
   11.2975  -15.7170   28.0757 O   0  0  0  0  0  0  0  0  0  0  0  0
   11.1582  -17.9094   28.5779 O   0  0  0  0  0  0  0  0  0  0  0  0
  1  2  1  0
  3  2  1  0
  4  3  1  0
  5  6  1  6
  5  4  1  0
  7  5  1  0
  8  7  2  0
 10  9  1  0
 10 11  1  0
 11 12  1  0
 13 12  1  1
 13 14  1  0
 14  7  1  0
 15 13  1  0
 15 16  2  0
 18 17  1  6
 18 20  1  0
 18 19  1  0
 21 20  1  6
 21 22  1  0
 22 15  1  0
 23 21  1  0
 24 23  2  0
 25 23  1  0
M  END
$$$$
