MML.pdb
     RDKit          3D

 25 24  0  0  1  0  0  0  0  0999 V2000
    7.7970  -11.9757   20.6637 C   0  0  0  0  0  0  0  0  0  0  0  0
    8.5045  -13.0097   19.3697 S   0  0  0  0  0  0  0  0  0  0  0  0
    7.3450  -14.3910   19.0262 C   0  0  0  0  0  0  0  0  0  0  0  0
    7.1371  -15.1273   20.3124 C   0  0  0  0  0  0  0  0  0  0  0  0
    8.2496  -16.0551   20.6969 C   0  0  2  0  0  0  0  0  0  0  0  0
    8.0287  -17.3014   19.9662 N   0  0  0  0  0  0  0  0  0  0  0  0
    8.2479  -16.4059   22.1370 C   0  0  0  0  0  0  0  0  0  0  0  0
    7.1276  -16.6383   22.6703 O   0  0  0  0  0  0  0  0  0  0  0  0
   12.1831  -19.8021   27.9998 C   0  0  0  0  0  0  0  0  0  0  0  0
   12.1308  -19.3698   26.2377 S   0  0  0  0  0  0  0  0  0  0  0  0
   10.7456  -18.2338   25.9971 C   0  0  0  0  0  0  0  0  0  0  0  0
   10.5715  -17.7800   24.6034 C   0  0  0  0  0  0  0  0  0  0  0  0
    9.4247  -16.8326   24.3365 C   0  0  2  0  0  0  0  0  0  0  0  0
    9.4298  -16.4848   22.9055 N   0  0  0  0  0  0  0  0  0  0  0  0
    9.5156  -15.5558   25.0689 C   0  0  0  0  0  0  0  0  0  0  0  0
   10.4557  -14.7453   24.7508 O   0  0  0  0  0  0  0  0  0  0  0  0
    7.9741  -11.7218   25.1308 C   0  0  0  0  0  0  0  0  0  0  0  0
    7.0624  -12.7312   25.8438 C   0  0  2  0  0  0  0  0  0  0  0  0
    5.7696  -11.9704   26.1405 C   0  0  0  0  0  0  0  0  0  0  0  0
    7.7538  -13.0948   27.1110 C   0  0  0  0  0  0  0  0  0  0  0  0
    8.9242  -14.0098   26.9834 C   0  0  2  0  0  0  0  0  0  0  0  0
    8.6482  -15.1295   26.1060 N   0  0  0  0  0  0  0  0  0  0  0  0
    9.5352  -14.4375   28.2501 C   0  0  0  0  0  0  0  0  0  0  0  0
    9.5155  -15.6574   28.6314 O   0  0  0  0  0  0  0  0  0  0  0  0
   10.1700  -13.5552   29.1114 O   0  0  0  0  0  0  0  0  0  0  0  0
  1  2  1  0
  3  2  1  0
  4  3  1  0
  5  6  1  6
  5  4  1  0
  7  5  1  0
  8  7  2  0
 10  9  1  0
 10 11  1  0
 11 12  1  0
 13 12  1  6
 13 14  1  0
 14  7  1  0
 15 13  1  0
 15 16  2  0
 18 17  1  6
 18 20  1  0
 18 19  1  0
 21 20  1  1
 21 22  1  0
 22 15  1  0
 23 21  1  0
 24 23  2  0
 25 23  1  0
M  END
$$$$
