MML.pdb
     RDKit          3D

 25 24  0  0  1  0  0  0  0  0999 V2000
    2.6238  -18.4160   19.5721 C   0  0  0  0  0  0  0  0  0  0  0  0
    2.1601  -19.6950   20.7525 S   0  0  0  0  0  0  0  0  0  0  0  0
    3.2365  -19.5428   22.2318 C   0  0  0  0  0  0  0  0  0  0  0  0
    4.5703  -19.0524   21.7627 C   0  0  0  0  0  0  0  0  0  0  0  0
    5.5981  -18.8868   22.8408 C   0  0  2  0  0  0  0  0  0  0  0  0
    5.0635  -17.9067   23.7840 N   0  0  0  0  0  0  0  0  0  0  0  0
    6.8825  -18.3369   22.3456 C   0  0  0  0  0  0  0  0  0  0  0  0
    7.7998  -19.1645   22.0866 O   0  0  0  0  0  0  0  0  0  0  0  0
    6.2609  -12.9574   19.1274 C   0  0  0  0  0  0  0  0  0  0  0  0
    7.8996  -12.7911   19.8902 S   0  0  0  0  0  0  0  0  0  0  0  0
    7.9890  -13.9772   21.2512 C   0  0  0  0  0  0  0  0  0  0  0  0
    8.3378  -15.3496   20.8346 C   0  0  0  0  0  0  0  0  0  0  0  0
    8.4398  -16.3859   21.9299 C   0  0  2  0  0  0  0  0  0  0  0  0
    7.1011  -16.9542   22.1611 N   0  0  0  0  0  0  0  0  0  0  0  0
    8.8864  -15.8477   23.2283 C   0  0  0  0  0  0  0  0  0  0  0  0
   10.0570  -15.3309   23.2948 O   0  0  0  0  0  0  0  0  0  0  0  0
    6.4947  -12.2224   27.2033 C   0  0  0  0  0  0  0  0  0  0  0  0
    7.7158  -13.1437   27.0681 C   0  0  2  0  0  0  0  0  0  0  0  0
    8.9028  -12.2103   26.8266 C   0  0  0  0  0  0  0  0  0  0  0  0
    7.4685  -13.9906   25.8692 C   0  0  0  0  0  0  0  0  0  0  0  0
    8.4750  -15.0565   25.5969 C   0  0  2  0  0  0  0  0  0  0  0  0
    8.1332  -15.8439   24.4293 N   0  0  0  0  0  0  0  0  0  0  0  0
    8.8322  -15.8995   26.7469 C   0  0  0  0  0  0  0  0  0  0  0  0
    9.1759  -15.3977   27.8711 O   0  0  0  0  0  0  0  0  0  0  0  0
    8.8209  -17.2852   26.6924 O   0  0  0  0  0  0  0  0  0  0  0  0
  1  2  1  0
  3  2  1  0
  4  3  1  0
  5  6  1  1
  5  4  1  0
  7  5  1  0
  8  7  2  0
 10  9  1  0
 10 11  1  0
 11 12  1  0
 13 12  1  6
 13 14  1  0
 14  7  1  0
 15 13  1  0
 15 16  2  0
 18 17  1  6
 18 20  1  0
 18 19  1  0
 21 20  1  1
 21 22  1  0
 22 15  1  0
 23 21  1  0
 24 23  2  0
 25 23  1  0
M  END
$$$$
