IAI.pdb
     RDKit          3D

 22 21  0  0  1  0  0  0  0  0999 V2000
   28.2043  -26.3756  -16.2393 C   0  0  0  0  0  0  0  0  0  0  0  0
   27.3526  -26.5470  -17.5017 C   0  0  0  0  0  0  0  0  0  0  0  0
   26.0714  -25.8071  -17.2884 C   0  0  2  0  0  0  0  0  0  0  0  0
   25.3935  -26.3751  -16.0595 C   0  0  0  0  0  0  0  0  0  0  0  0
   25.1560  -25.7537  -18.4666 C   0  0  2  0  0  0  0  0  0  0  0  0
   25.8621  -25.0570  -19.5256 N   0  0  0  0  0  0  0  0  0  0  0  0
   23.8592  -25.0982  -18.1582 C   0  0  0  0  0  0  0  0  0  0  0  0
   23.8153  -23.8673  -17.9246 O   0  0  0  0  0  0  0  0  0  0  0  0
   20.2679  -26.1414  -18.1780 C   0  0  0  0  0  0  0  0  0  0  0  0
   21.3691  -25.1215  -17.9029 C   0  0  2  0  0  0  0  0  0  0  0  0
   22.6275  -25.7953  -18.1089 N   0  0  0  0  0  0  0  0  0  0  0  0
   21.2494  -24.5507  -16.5426 C   0  0  0  0  0  0  0  0  0  0  0  0
   21.6062  -25.2375  -15.5621 O   0  0  0  0  0  0  0  0  0  0  0  0
   22.3190  -19.5972  -13.2775 C   0  0  0  0  0  0  0  0  0  0  0  0
   21.4160  -20.7589  -13.4613 C   0  0  0  0  0  0  0  0  0  0  0  0
   21.4403  -21.4151  -14.7951 C   0  0  2  0  0  0  0  0  0  0  0  0
   21.0810  -20.3996  -15.8982 C   0  0  0  0  0  0  0  0  0  0  0  0
   20.6445  -22.6644  -14.9526 C   0  0  2  0  0  0  0  0  0  0  0  0
   20.7460  -23.2500  -16.2795 N   0  0  0  0  0  0  0  0  0  0  0  0
   19.2748  -22.6417  -14.4374 C   0  0  0  0  0  0  0  0  0  0  0  0
   18.9828  -22.4945  -13.2213 O   0  0  0  0  0  0  0  0  0  0  0  0
   18.1443  -22.7865  -15.2728 O   0  0  0  0  0  0  0  0  0  0  0  0
  2  1  1  0
  3  5  1  0
  3  2  1  0
  3  4  1  1
  5  6  1  6
  7 11  1  0
  7  5  1  0
  8  7  2  0
 10  9  1  1
 10 12  1  0
 10 11  1  0
 12 19  1  0
 13 12  2  0
 14 15  1  0
 16 15  1  0
 16 17  1  6
 18 20  1  0
 18 16  1  0
 18 19  1  6
 20 22  1  0
 21 20  2  0
M  END
$$$$
