IAI.pdb
     RDKit          3D

 22 21  0  0  1  0  0  0  0  0999 V2000
   18.2239  -13.5838    2.5289 C   0  0  0  0  0  0  0  0  0  0  0  0
   18.0996  -14.9668    1.8807 C   0  0  0  0  0  0  0  0  0  0  0  0
   17.7457  -15.9420    2.9570 C   0  0  2  0  0  0  0  0  0  0  0  0
   18.7857  -15.8390    4.0524 C   0  0  0  0  0  0  0  0  0  0  0  0
   17.5358  -17.3495    2.5055 C   0  0  2  0  0  0  0  0  0  0  0  0
   16.5277  -17.3184    1.4623 N   0  0  0  0  0  0  0  0  0  0  0  0
   17.1402  -18.2561    3.6138 C   0  0  0  0  0  0  0  0  0  0  0  0
   16.0489  -18.0867    4.2072 O   0  0  0  0  0  0  0  0  0  0  0  0
   18.3256  -21.4819    5.0277 C   0  0  0  0  0  0  0  0  0  0  0  0
   17.5586  -20.1706    5.1713 C   0  0  2  0  0  0  0  0  0  0  0  0
   17.9412  -19.3355    4.0594 N   0  0  0  0  0  0  0  0  0  0  0  0
   17.8247  -19.5291    6.4782 C   0  0  0  0  0  0  0  0  0  0  0  0
   18.7446  -18.6885    6.5661 O   0  0  0  0  0  0  0  0  0  0  0  0
   15.0568  -16.7397   11.0076 C   0  0  0  0  0  0  0  0  0  0  0  0
   16.1898  -17.6311   10.6603 C   0  0  0  0  0  0  0  0  0  0  0  0
   16.0758  -18.3840    9.3836 C   0  0  2  0  0  0  0  0  0  0  0  0
   14.8399  -19.3052    9.4136 C   0  0  0  0  0  0  0  0  0  0  0  0
   17.2788  -19.1348    8.9274 C   0  0  2  0  0  0  0  0  0  0  0  0
   17.0873  -19.8149    7.6567 N   0  0  0  0  0  0  0  0  0  0  0  0
   17.9559  -19.9627    9.9264 C   0  0  0  0  0  0  0  0  0  0  0  0
   17.9084  -21.2210    9.9469 O   0  0  0  0  0  0  0  0  0  0  0  0
   18.7326  -19.4132   10.9713 O   0  0  0  0  0  0  0  0  0  0  0  0
  2  1  1  0
  3  5  1  0
  3  2  1  0
  3  4  1  1
  5  6  1  6
  7 11  1  0
  7  5  1  0
  8  7  2  0
 10  9  1  1
 10 12  1  0
 10 11  1  0
 12 19  1  0
 13 12  2  0
 14 15  1  0
 16 15  1  0
 16 17  1  1
 18 20  1  0
 18 16  1  0
 18 19  1  6
 20 22  1  0
 21 20  2  0
M  END
$$$$
