IAI.pdb
     RDKit          3D

 22 21  0  0  1  0  0  0  0  0999 V2000
   25.2439  -13.7415  -15.3110 C   0  0  0  0  0  0  0  0  0  0  0  0
   23.7732  -13.9558  -15.6846 C   0  0  0  0  0  0  0  0  0  0  0  0
   23.1881  -12.6188  -16.0081 C   0  0  2  0  0  0  0  0  0  0  0  0
   23.3838  -11.7122  -14.8115 C   0  0  0  0  0  0  0  0  0  0  0  0
   21.7722  -12.6343  -16.4815 C   0  0  2  0  0  0  0  0  0  0  0  0
   21.7216  -13.4914  -17.6512 N   0  0  0  0  0  0  0  0  0  0  0  0
   21.2515  -11.2761  -16.7827 C   0  0  0  0  0  0  0  0  0  0  0  0
   21.8829  -10.5161  -17.5543 O   0  0  0  0  0  0  0  0  0  0  0  0
   18.1052   -9.3819  -16.1993 C   0  0  0  0  0  0  0  0  0  0  0  0
   19.6044   -9.4153  -16.4815 C   0  0  2  0  0  0  0  0  0  0  0  0
   20.0485  -10.7656  -16.2374 N   0  0  0  0  0  0  0  0  0  0  0  0
   20.3315   -8.4233  -15.6582 C   0  0  0  0  0  0  0  0  0  0  0  0
   20.6709   -8.7306  -14.4959 O   0  0  0  0  0  0  0  0  0  0  0  0
   24.8003   -4.3533  -16.2882 C   0  0  0  0  0  0  0  0  0  0  0  0
   23.5084   -4.6428  -15.6204 C   0  0  0  0  0  0  0  0  0  0  0  0
   22.7791   -5.8537  -16.0808 C   0  0  2  0  0  0  0  0  0  0  0  0
   22.5588   -5.7988  -17.6058 C   0  0  0  0  0  0  0  0  0  0  0  0
   21.5089   -6.1900  -15.3791 C   0  0  2  0  0  0  0  0  0  0  0  0
   20.6723   -7.1237  -16.1154 N   0  0  0  0  0  0  0  0  0  0  0  0
   20.7571   -5.0722  -14.8069 C   0  0  0  0  0  0  0  0  0  0  0  0
   21.2016   -4.3131  -13.9058 O   0  0  0  0  0  0  0  0  0  0  0  0
   19.4468   -4.7439  -15.2218 O   0  0  0  0  0  0  0  0  0  0  0  0
  2  1  1  0
  3  5  1  0
  3  2  1  0
  3  4  1  1
  5  6  1  6
  7 11  1  0
  7  5  1  0
  8  7  2  0
 10  9  1  1
 10 12  1  0
 10 11  1  0
 12 19  1  0
 13 12  2  0
 14 15  1  0
 16 15  1  0
 16 17  1  6
 18 20  1  0
 18 16  1  0
 18 19  1  6
 20 22  1  0
 21 20  2  0
M  END
$$$$
