IAI.pdb
     RDKit          3D

 22 21  0  0  1  0  0  0  0  0999 V2000
   20.4611  -20.1127  -16.9091 C   0  0  0  0  0  0  0  0  0  0  0  0
   19.7024  -19.0377  -16.1236 C   0  0  0  0  0  0  0  0  0  0  0  0
   20.2307  -17.7062  -16.5508 C   0  0  2  0  0  0  0  0  0  0  0  0
   21.7269  -17.6922  -16.3201 C   0  0  0  0  0  0  0  0  0  0  0  0
   19.5531  -16.5215  -15.9456 C   0  0  2  0  0  0  0  0  0  0  0  0
   18.1398  -16.6326  -16.2550 N   0  0  0  0  0  0  0  0  0  0  0  0
   20.1125  -15.2317  -16.4252 C   0  0  0  0  0  0  0  0  0  0  0  0
   21.2978  -14.9215  -16.1597 O   0  0  0  0  0  0  0  0  0  0  0  0
   18.8952  -12.3927  -18.5439 C   0  0  0  0  0  0  0  0  0  0  0  0
   19.9396  -13.0557  -17.6505 C   0  0  2  0  0  0  0  0  0  0  0  0
   19.3705  -14.2976  -17.1882 N   0  0  0  0  0  0  0  0  0  0  0  0
   20.3397  -12.1676  -16.5361 C   0  0  0  0  0  0  0  0  0  0  0  0
   19.6246  -12.1171  -15.5130 O   0  0  0  0  0  0  0  0  0  0  0  0
   24.9701  -12.4657  -14.2523 C   0  0  0  0  0  0  0  0  0  0  0  0
   23.5591  -12.1562  -14.5871 C   0  0  0  0  0  0  0  0  0  0  0  0
   23.2544  -10.7449  -14.9416 C   0  0  2  0  0  0  0  0  0  0  0  0
   23.5711   -9.8140  -13.7542 C   0  0  0  0  0  0  0  0  0  0  0  0
   21.8975  -10.4585  -15.4854 C   0  0  2  0  0  0  0  0  0  0  0  0
   21.5043  -11.3569  -16.5588 N   0  0  0  0  0  0  0  0  0  0  0  0
   21.5827   -9.0567  -15.7645 C   0  0  0  0  0  0  0  0  0  0  0  0
   21.4825   -8.1679  -14.8780 O   0  0  0  0  0  0  0  0  0  0  0  0
   21.3594   -8.5721  -17.0731 O   0  0  0  0  0  0  0  0  0  0  0  0
  2  1  1  0
  3  5  1  0
  3  2  1  0
  3  4  1  1
  5  6  1  6
  7 11  1  0
  7  5  1  0
  8  7  2  0
 10  9  1  6
 10 12  1  0
 10 11  1  0
 12 19  1  0
 13 12  2  0
 14 15  1  0
 16 15  1  0
 16 17  1  1
 18 20  1  0
 18 16  1  0
 18 19  1  6
 20 22  1  0
 21 20  2  0
M  END
$$$$
