IAI.pdb
     RDKit          3D

 22 21  0  0  1  0  0  0  0  0999 V2000
   18.2834  -15.6042  -19.3258 C   0  0  0  0  0  0  0  0  0  0  0  0
   19.7554  -15.5397  -19.7470 C   0  0  0  0  0  0  0  0  0  0  0  0
   20.3645  -14.3455  -19.0857 C   0  0  2  0  0  0  0  0  0  0  0  0
   19.5158  -13.1356  -19.4146 C   0  0  0  0  0  0  0  0  0  0  0  0
   21.8114  -14.1183  -19.3756 C   0  0  2  0  0  0  0  0  0  0  0  0
   22.5106  -15.3481  -19.0531 N   0  0  0  0  0  0  0  0  0  0  0  0
   22.3733  -12.9641  -18.6281 C   0  0  0  0  0  0  0  0  0  0  0  0
   22.3194  -12.9379  -17.3759 O   0  0  0  0  0  0  0  0  0  0  0  0
   24.1895   -9.8066  -19.4920 C   0  0  0  0  0  0  0  0  0  0  0  0
   23.4048  -10.6856  -18.5224 C   0  0  2  0  0  0  0  0  0  0  0  0
   22.9867  -11.8538  -19.2577 N   0  0  0  0  0  0  0  0  0  0  0  0
   22.2639   -9.9520  -17.9302 C   0  0  0  0  0  0  0  0  0  0  0  0
   21.1511  -10.0008  -18.4956 O   0  0  0  0  0  0  0  0  0  0  0  0
   17.7784   -9.5798  -14.8146 C   0  0  0  0  0  0  0  0  0  0  0  0
   18.9009   -8.6885  -15.1943 C   0  0  0  0  0  0  0  0  0  0  0  0
   20.1222   -9.3479  -15.7270 C   0  0  2  0  0  0  0  0  0  0  0  0
   20.6162  -10.4315  -14.7478 C   0  0  0  0  0  0  0  0  0  0  0  0
   21.2468   -8.4631  -16.1411 C   0  0  2  0  0  0  0  0  0  0  0  0
   22.3581   -9.1841  -16.7403 N   0  0  0  0  0  0  0  0  0  0  0  0
   21.6731   -7.4463  -15.1787 C   0  0  0  0  0  0  0  0  0  0  0  0
   22.7731   -7.4742  -14.5664 O   0  0  0  0  0  0  0  0  0  0  0  0
   20.8742   -6.3287  -14.8474 O   0  0  0  0  0  0  0  0  0  0  0  0
  2  1  1  0
  3  5  1  0
  3  2  1  0
  3  4  1  6
  5  6  1  1
  7 11  1  0
  7  5  1  0
  8  7  2  0
 10  9  1  6
 10 12  1  0
 10 11  1  0
 12 19  1  0
 13 12  2  0
 14 15  1  0
 16 15  1  0
 16 17  1  1
 18 20  1  0
 18 16  1  0
 18 19  1  1
 20 22  1  0
 21 20  2  0
M  END
$$$$
