IAI.pdb
     RDKit          3D

 22 21  0  0  1  0  0  0  0  0999 V2000
   19.5702  -16.5741  -20.2770 C   0  0  0  0  0  0  0  0  0  0  0  0
   18.4273  -15.5532  -20.2739 C   0  0  0  0  0  0  0  0  0  0  0  0
   19.0285  -14.2000  -20.0686 C   0  0  2  0  0  0  0  0  0  0  0  0
   20.5288  -14.3605  -19.9440 C   0  0  0  0  0  0  0  0  0  0  0  0
   18.4489  -13.4025  -18.9474 C   0  0  2  0  0  0  0  0  0  0  0  0
   17.0442  -13.1991  -19.2486 N   0  0  0  0  0  0  0  0  0  0  0  0
   19.1505  -12.1100  -18.7383 C   0  0  0  0  0  0  0  0  0  0  0  0
   20.3652  -12.0954  -18.4283 O   0  0  0  0  0  0  0  0  0  0  0  0
   18.2904   -8.4890  -19.1246 C   0  0  0  0  0  0  0  0  0  0  0  0
   19.2222   -9.6087  -18.6701 C   0  0  2  0  0  0  0  0  0  0  0  0
   18.5167  -10.8505  -18.8704 N   0  0  0  0  0  0  0  0  0  0  0  0
   19.6480   -9.4204  -17.2652 C   0  0  0  0  0  0  0  0  0  0  0  0
   18.9144   -9.8425  -16.3464 O   0  0  0  0  0  0  0  0  0  0  0  0
   23.5213  -11.6167  -14.9552 C   0  0  0  0  0  0  0  0  0  0  0  0
   22.3576  -10.8046  -15.3853 C   0  0  0  0  0  0  0  0  0  0  0  0
   22.4064   -9.3530  -15.0679 C   0  0  2  0  0  0  0  0  0  0  0  0
   22.6741   -9.1423  -13.5642 C   0  0  0  0  0  0  0  0  0  0  0  0
   21.2566   -8.5198  -15.5178 C   0  0  2  0  0  0  0  0  0  0  0  0
   20.8580   -8.7796  -16.8917 N   0  0  0  0  0  0  0  0  0  0  0  0
   21.3113   -7.0933  -15.1950 C   0  0  0  0  0  0  0  0  0  0  0  0
   21.7393   -6.2093  -15.9832 O   0  0  0  0  0  0  0  0  0  0  0  0
   20.8831   -6.5769  -13.9512 O   0  0  0  0  0  0  0  0  0  0  0  0
  2  1  1  0
  3  5  1  0
  3  2  1  0
  3  4  1  1
  5  6  1  6
  7 11  1  0
  7  5  1  0
  8  7  2  0
 10  9  1  1
 10 12  1  0
 10 11  1  0
 12 19  1  0
 13 12  2  0
 14 15  1  0
 16 15  1  0
 16 17  1  1
 18 20  1  0
 18 16  1  0
 18 19  1  6
 20 22  1  0
 21 20  2  0
M  END
$$$$
