IAI.pdb
     RDKit          3D

 22 21  0  0  1  0  0  0  0  0999 V2000
   22.3315  -18.5132  -14.8879 C   0  0  0  0  0  0  0  0  0  0  0  0
   20.9839  -18.0553  -15.4557 C   0  0  0  0  0  0  0  0  0  0  0  0
   21.0745  -16.5849  -15.7089 C   0  0  2  0  0  0  0  0  0  0  0  0
   21.4140  -15.8978  -14.4032 C   0  0  0  0  0  0  0  0  0  0  0  0
   19.8885  -15.9737  -16.3790 C   0  0  2  0  0  0  0  0  0  0  0  0
   19.6786  -16.6962  -17.6196 N   0  0  0  0  0  0  0  0  0  0  0  0
   20.0522  -14.5173  -16.6217 C   0  0  0  0  0  0  0  0  0  0  0  0
   21.0639  -14.0890  -17.2254 O   0  0  0  0  0  0  0  0  0  0  0  0
   17.9144  -11.4876  -16.3450 C   0  0  0  0  0  0  0  0  0  0  0  0
   19.2902  -12.1389  -16.4510 C   0  0  2  0  0  0  0  0  0  0  0  0
   19.1090  -13.5479  -16.2020 N   0  0  0  0  0  0  0  0  0  0  0  0
   20.2551  -11.5189  -15.5156 C   0  0  0  0  0  0  0  0  0  0  0  0
   20.2424  -11.8615  -14.3144 O   0  0  0  0  0  0  0  0  0  0  0  0
   25.9687  -10.9924  -14.4976 C   0  0  0  0  0  0  0  0  0  0  0  0
   24.6903  -10.2542  -14.3583 C   0  0  0  0  0  0  0  0  0  0  0  0
   23.5707  -10.6932  -15.2323 C   0  0  2  0  0  0  0  0  0  0  0  0
   23.9936  -10.6356  -16.7139 C   0  0  0  0  0  0  0  0  0  0  0  0
   22.2535  -10.0259  -15.0364 C   0  0  2  0  0  0  0  0  0  0  0  0
   21.2093  -10.5433  -15.9058 N   0  0  0  0  0  0  0  0  0  0  0  0
   22.2616   -8.5646  -14.9543 C   0  0  0  0  0  0  0  0  0  0  0  0
   22.9601   -7.9097  -14.1364 O   0  0  0  0  0  0  0  0  0  0  0  0
   21.4732   -7.7500  -15.7979 O   0  0  0  0  0  0  0  0  0  0  0  0
  2  1  1  0
  3  5  1  0
  3  2  1  0
  3  4  1  1
  5  6  1  6
  7 11  1  0
  7  5  1  0
  8  7  2  0
 10  9  1  1
 10 12  1  0
 10 11  1  0
 12 19  1  0
 13 12  2  0
 14 15  1  0
 16 15  1  0
 16 17  1  6
 18 20  1  0
 18 16  1  0
 18 19  1  6
 20 22  1  0
 21 20  2  0
M  END
$$$$
