IAI.pdb
     RDKit          3D

 22 21  0  0  1  0  0  0  0  0999 V2000
   17.4535  -14.6741  -14.9316 C   0  0  0  0  0  0  0  0  0  0  0  0
   16.6478  -13.8371  -15.9309 C   0  0  0  0  0  0  0  0  0  0  0  0
   17.3235  -12.5100  -16.0596 C   0  0  2  0  0  0  0  0  0  0  0  0
   17.4517  -11.9059  -14.6773 C   0  0  0  0  0  0  0  0  0  0  0  0
   16.7039  -11.5651  -17.0354 C   0  0  2  0  0  0  0  0  0  0  0  0
   16.5588  -12.2797  -18.2899 N   0  0  0  0  0  0  0  0  0  0  0  0
   17.4936  -10.3191  -17.2104 C   0  0  0  0  0  0  0  0  0  0  0  0
   18.7106  -10.3807  -17.5049 O   0  0  0  0  0  0  0  0  0  0  0  0
   16.7442   -6.6989  -17.5650 C   0  0  0  0  0  0  0  0  0  0  0  0
   17.7259   -7.8272  -17.2623 C   0  0  2  0  0  0  0  0  0  0  0  0
   16.9442   -9.0225  -17.0615 N   0  0  0  0  0  0  0  0  0  0  0  0
   18.5762   -7.5049  -16.0945 C   0  0  0  0  0  0  0  0  0  0  0  0
   18.1354   -7.7174  -14.9451 O   0  0  0  0  0  0  0  0  0  0  0  0
   22.9346   -9.6373  -14.5852 C   0  0  0  0  0  0  0  0  0  0  0  0
   21.7147   -8.8238  -14.8064 C   0  0  0  0  0  0  0  0  0  0  0  0
   21.8974   -7.3489  -14.8451 C   0  0  2  0  0  0  0  0  0  0  0  0
   22.6570   -6.8703  -13.5918 C   0  0  0  0  0  0  0  0  0  0  0  0
   20.6811   -6.5190  -15.0703 C   0  0  2  0  0  0  0  0  0  0  0  0
   19.8824   -6.9604  -16.2021 N   0  0  0  0  0  0  0  0  0  0  0  0
   20.8570   -5.0668  -15.0221 C   0  0  0  0  0  0  0  0  0  0  0  0
   21.0200   -4.3436  -16.0400 O   0  0  0  0  0  0  0  0  0  0  0  0
   20.8604   -4.3398  -13.8104 O   0  0  0  0  0  0  0  0  0  0  0  0
  2  1  1  0
  3  5  1  0
  3  2  1  0
  3  4  1  1
  5  6  1  6
  7 11  1  0
  7  5  1  0
  8  7  2  0
 10  9  1  1
 10 12  1  0
 10 11  1  0
 12 19  1  0
 13 12  2  0
 14 15  1  0
 16 15  1  0
 16 17  1  1
 18 20  1  0
 18 16  1  0
 18 19  1  6
 20 22  1  0
 21 20  2  0
M  END
$$$$
