IAI.pdb
     RDKit          3D

 22 21  0  0  1  0  0  0  0  0999 V2000
   26.8381  -18.6731  -16.7934 C   0  0  0  0  0  0  0  0  0  0  0  0
   26.9589  -19.9081  -15.8942 C   0  0  0  0  0  0  0  0  0  0  0  0
   26.8906  -19.4441  -14.4749 C   0  0  2  0  0  0  0  0  0  0  0  0
   27.8607  -18.2945  -14.3035 C   0  0  0  0  0  0  0  0  0  0  0  0
   27.0814  -20.5051  -13.4419 C   0  0  2  0  0  0  0  0  0  0  0  0
   26.3181  -21.6621  -13.8709 N   0  0  0  0  0  0  0  0  0  0  0  0
   26.6771  -20.0635  -12.0824 C   0  0  0  0  0  0  0  0  0  0  0  0
   27.3686  -19.2220  -11.4617 O   0  0  0  0  0  0  0  0  0  0  0  0
   23.6931  -20.5070   -9.8884 C   0  0  0  0  0  0  0  0  0  0  0  0
   25.1469  -20.0953  -10.1015 C   0  0  2  0  0  0  0  0  0  0  0  0
   25.5232  -20.5466  -11.4186 N   0  0  0  0  0  0  0  0  0  0  0  0
   26.0246  -20.6440   -9.0436 C   0  0  0  0  0  0  0  0  0  0  0  0
   26.5706  -21.7533   -9.2222 O   0  0  0  0  0  0  0  0  0  0  0  0
   30.2466  -19.2745   -4.8708 C   0  0  0  0  0  0  0  0  0  0  0  0
   29.1635  -20.1851   -5.3140 C   0  0  0  0  0  0  0  0  0  0  0  0
   28.2266  -19.6542   -6.3388 C   0  0  2  0  0  0  0  0  0  0  0  0
   27.7157  -18.2593   -5.9260 C   0  0  0  0  0  0  0  0  0  0  0  0
   27.0914  -20.5308   -6.7412 C   0  0  2  0  0  0  0  0  0  0  0  0
   26.2882  -19.9767   -7.8190 N   0  0  0  0  0  0  0  0  0  0  0  0
   26.2873  -21.1039   -5.6609 C   0  0  0  0  0  0  0  0  0  0  0  0
   25.0579  -20.8806   -5.5041 O   0  0  0  0  0  0  0  0  0  0  0  0
   26.8297  -21.9697   -4.6847 O   0  0  0  0  0  0  0  0  0  0  0  0
  2  1  1  0
  3  5  1  0
  3  2  1  0
  3  4  1  6
  5  6  1  6
  7 11  1  0
  7  5  1  0
  8  7  2  0
 10  9  1  1
 10 12  1  0
 10 11  1  0
 12 19  1  0
 13 12  2  0
 14 15  1  0
 16 15  1  0
 16 17  1  1
 18 20  1  0
 18 16  1  0
 18 19  1  6
 20 22  1  0
 21 20  2  0
M  END
$$$$
