IAI.pdb
     RDKit          3D

 22 21  0  0  1  0  0  0  0  0999 V2000
   20.7931  -17.2266  -19.4569 C   0  0  0  0  0  0  0  0  0  0  0  0
   21.6568  -16.6061  -18.3536 C   0  0  0  0  0  0  0  0  0  0  0  0
   22.4454  -17.7076  -17.7215 C   0  0  2  0  0  0  0  0  0  0  0  0
   21.4759  -18.7432  -17.1928 C   0  0  0  0  0  0  0  0  0  0  0  0
   23.4352  -17.2790  -16.6893 C   0  0  2  0  0  0  0  0  0  0  0  0
   24.3111  -16.3056  -17.3145 N   0  0  0  0  0  0  0  0  0  0  0  0
   24.2057  -18.4163  -16.1241 C   0  0  0  0  0  0  0  0  0  0  0  0
   23.6238  -19.2980  -15.4491 O   0  0  0  0  0  0  0  0  0  0  0  0
   27.7403  -19.6327  -16.2842 C   0  0  0  0  0  0  0  0  0  0  0  0
   26.3414  -19.6424  -15.6748 C   0  0  2  0  0  0  0  0  0  0  0  0
   25.6014  -18.5759  -16.3033 N   0  0  0  0  0  0  0  0  0  0  0  0
   26.3926  -19.5037  -14.2021 C   0  0  0  0  0  0  0  0  0  0  0  0
   26.7064  -18.4008  -13.7065 O   0  0  0  0  0  0  0  0  0  0  0  0
   22.5889  -19.8546  -10.8833 C   0  0  0  0  0  0  0  0  0  0  0  0
   23.9105  -19.6463  -11.5225 C   0  0  0  0  0  0  0  0  0  0  0  0
   25.0034  -20.5628  -11.1031 C   0  0  2  0  0  0  0  0  0  0  0  0
   25.2631  -20.4290   -9.5892 C   0  0  0  0  0  0  0  0  0  0  0  0
   26.2822  -20.4884  -11.8633 C   0  0  2  0  0  0  0  0  0  0  0  0
   26.1024  -20.5637  -13.3041 N   0  0  0  0  0  0  0  0  0  0  0  0
   27.3859  -21.3177  -11.3775 C   0  0  0  0  0  0  0  0  0  0  0  0
   27.6973  -22.4340  -11.8703 O   0  0  0  0  0  0  0  0  0  0  0  0
   28.2095  -20.9321  -10.2959 O   0  0  0  0  0  0  0  0  0  0  0  0
  2  1  1  0
  3  5  1  0
  3  2  1  0
  3  4  1  1
  5  6  1  6
  7 11  1  0
  7  5  1  0
  8  7  2  0
 10  9  1  6
 10 12  1  0
 10 11  1  0
 12 19  1  0
 13 12  2  0
 14 15  1  0
 16 15  1  0
 16 17  1  1
 18 20  1  0
 18 16  1  0
 18 19  1  6
 20 22  1  0
 21 20  2  0
M  END
$$$$
