IAI.pdb
     RDKit          3D

 22 21  0  0  1  0  0  0  0  0999 V2000
   15.3007  -24.7176    2.0629 C   0  0  0  0  0  0  0  0  0  0  0  0
   14.6963  -23.3356    1.7923 C   0  0  0  0  0  0  0  0  0  0  0  0
   15.4082  -22.3509    2.6629 C   0  0  2  0  0  0  0  0  0  0  0  0
   15.2256  -22.7727    4.1054 C   0  0  0  0  0  0  0  0  0  0  0  0
   15.0481  -20.9190    2.4415 C   0  0  2  0  0  0  0  0  0  0  0  0
   15.2467  -20.6410    1.0313 N   0  0  0  0  0  0  0  0  0  0  0  0
   15.8349  -19.9898    3.2925 C   0  0  0  0  0  0  0  0  0  0  0  0
   17.0179  -19.7064    2.9891 O   0  0  0  0  0  0  0  0  0  0  0  0
   15.1005  -17.6051    6.0400 C   0  0  0  0  0  0  0  0  0  0  0  0
   16.0932  -18.4576    5.2552 C   0  0  2  0  0  0  0  0  0  0  0  0
   15.3199  -19.3823    4.4634 N   0  0  0  0  0  0  0  0  0  0  0  0
   17.0464  -19.1439    6.1557 C   0  0  0  0  0  0  0  0  0  0  0  0
   16.7562  -20.2752    6.5990 O   0  0  0  0  0  0  0  0  0  0  0  0
   22.2996  -17.5396    8.3602 C   0  0  0  0  0  0  0  0  0  0  0  0
   21.1728  -17.5955    7.3979 C   0  0  0  0  0  0  0  0  0  0  0  0
   20.6750  -18.9486    7.0353 C   0  0  2  0  0  0  0  0  0  0  0  0
   20.9412  -19.2353    5.5440 C   0  0  0  0  0  0  0  0  0  0  0  0
   19.2641  -19.2708    7.3878 C   0  0  2  0  0  0  0  0  0  0  0  0
   18.2898  -18.5868    6.5529 N   0  0  0  0  0  0  0  0  0  0  0  0
   18.9193  -19.2483    8.8100 C   0  0  0  0  0  0  0  0  0  0  0  0
   19.3873  -20.0506    9.6603 O   0  0  0  0  0  0  0  0  0  0  0  0
   18.0165  -18.3106    9.3601 O   0  0  0  0  0  0  0  0  0  0  0  0
  2  1  1  0
  3  5  1  0
  3  2  1  0
  3  4  1  1
  5  6  1  6
  7 11  1  0
  7  5  1  0
  8  7  2  0
 10  9  1  1
 10 12  1  0
 10 11  1  0
 12 19  1  0
 13 12  2  0
 14 15  1  0
 16 15  1  0
 16 17  1  6
 18 20  1  0
 18 16  1  0
 18 19  1  6
 20 22  1  0
 21 20  2  0
M  END
$$$$
