IAI.pdb
     RDKit          3D

 22 21  0  0  1  0  0  0  0  0999 V2000
   25.4772  -13.6325  -15.6587 C   0  0  0  0  0  0  0  0  0  0  0  0
   25.8815  -14.9192  -16.3862 C   0  0  0  0  0  0  0  0  0  0  0  0
   25.8149  -16.0389  -15.3981 C   0  0  2  0  0  0  0  0  0  0  0  0
   26.7408  -15.7116  -14.2458 C   0  0  0  0  0  0  0  0  0  0  0  0
   26.0621  -17.4023  -15.9539 C   0  0  2  0  0  0  0  0  0  0  0  0
   25.2323  -17.5393  -17.1362 N   0  0  0  0  0  0  0  0  0  0  0  0
   25.7876  -18.4824  -14.9716 C   0  0  0  0  0  0  0  0  0  0  0  0
   24.6594  -18.5716  -14.4323 O   0  0  0  0  0  0  0  0  0  0  0  0
   27.2135  -21.7326  -14.0730 C   0  0  0  0  0  0  0  0  0  0  0  0
   26.4609  -20.4828  -13.6259 C   0  0  2  0  0  0  0  0  0  0  0  0
   26.7484  -19.4506  -14.5912 N   0  0  0  0  0  0  0  0  0  0  0  0
   26.8358  -20.0898  -12.2491 C   0  0  0  0  0  0  0  0  0  0  0  0
   28.0093  -19.7286  -12.0189 O   0  0  0  0  0  0  0  0  0  0  0  0
   27.8522  -18.9754   -6.6965 C   0  0  0  0  0  0  0  0  0  0  0  0
   27.3244  -20.0249   -7.6013 C   0  0  0  0  0  0  0  0  0  0  0  0
   26.9009  -19.5830   -8.9561 C   0  0  2  0  0  0  0  0  0  0  0  0
   26.0302  -18.3144   -8.8577 C   0  0  0  0  0  0  0  0  0  0  0  0
   26.2510  -20.5989   -9.8303 C   0  0  2  0  0  0  0  0  0  0  0  0
   25.9296  -20.0982  -11.1569 N   0  0  0  0  0  0  0  0  0  0  0  0
   25.1694  -21.3847   -9.2346 C   0  0  0  0  0  0  0  0  0  0  0  0
   25.2404  -21.9369   -8.1051 O   0  0  0  0  0  0  0  0  0  0  0  0
   23.9334  -21.5958   -9.8862 O   0  0  0  0  0  0  0  0  0  0  0  0
  2  1  1  0
  3  5  1  0
  3  2  1  0
  3  4  1  1
  5  6  1  6
  7 11  1  0
  7  5  1  0
  8  7  2  0
 10  9  1  6
 10 12  1  0
 10 11  1  0
 12 19  1  0
 13 12  2  0
 14 15  1  0
 16 15  1  0
 16 17  1  1
 18 20  1  0
 18 16  1  0
 18 19  1  6
 20 22  1  0
 21 20  2  0
M  END
$$$$
