IYE.pdb
     RDKit          3D

 30 30  0  0  1  0  0  0  0  0999 V2000
   10.0293  -20.5753   18.5138 C   0  0  0  0  0  0  0  0  0  0  0  0
    9.6375  -19.1391   18.2870 C   0  0  0  0  0  0  0  0  0  0  0  0
    9.7508  -18.3676   19.5530 C   0  0  2  0  0  0  0  0  0  0  0  0
    8.9812  -19.0518   20.6733 C   0  0  0  0  0  0  0  0  0  0  0  0
    9.3507  -16.9290   19.4716 C   0  0  2  0  0  0  0  0  0  0  0  0
   10.1806  -16.3287   18.4131 N   0  0  0  0  0  0  0  0  0  0  0  0
    9.4804  -16.1877   20.7257 C   0  0  0  0  0  0  0  0  0  0  0  0
   10.6086  -15.9373   21.2029 O   0  0  0  0  0  0  0  0  0  0  0  0
    6.7533  -12.0221   28.1313 O   0  0  0  0  0  0  0  0  0  0  0  0
    6.8214  -12.5885   26.8530 C   0  0  0  0  0  0  0  0  0  0  0  0
    6.2438  -13.8104   26.5852 C   0  0  0  0  0  0  0  0  0  0  0  0
    6.3127  -14.3713   25.3140 C   0  0  0  0  0  0  0  0  0  0  0  0
    6.9572  -13.7329   24.2766 C   0  0  0  0  0  0  0  0  0  0  0  0
    7.0380  -14.3233   22.9229 C   0  0  0  0  0  0  0  0  0  0  0  0
    8.3395  -15.0688   22.6848 C   0  0  2  0  0  0  0  0  0  0  0  0
    8.3215  -15.7502   21.4052 N   0  0  0  0  0  0  0  0  0  0  0  0
    8.7059  -15.9877   23.7690 C   0  0  0  0  0  0  0  0  0  0  0  0
    8.0991  -17.0538   24.0215 O   0  0  0  0  0  0  0  0  0  0  0  0
    7.5317  -12.5007   24.5740 C   0  0  0  0  0  0  0  0  0  0  0  0
    7.4715  -11.9377   25.8182 C   0  0  0  0  0  0  0  0  0  0  0  0
    9.8165  -15.6658   24.5958 N   0  0  0  0  0  0  0  0  0  0  0  0
   10.2154  -16.5618   25.6991 C   0  0  1  0  0  0  0  0  0  0  0  0
   11.5905  -17.1000   25.4316 C   0  0  0  0  0  0  0  0  0  0  0  0
   11.7923  -17.7022   24.0881 C   0  0  0  0  0  0  0  0  0  0  0  0
   13.1321  -18.2734   23.8549 C   0  0  0  0  0  0  0  0  0  0  0  0
   14.0091  -18.4133   24.7441 O   0  0  0  0  0  0  0  0  0  0  0  0
   10.0837  -15.8586   26.9850 C   0  0  0  0  0  0  0  0  0  0  0  0
   10.3171  -16.4475   28.0528 O   0  0  0  0  0  0  0  0  0  0  0  0
   13.5183  -18.7105   22.5748 O   0  0  0  0  0  0  0  0  0  0  0  0
    9.6981  -14.5353   27.0053 O   0  0  0  0  0  0  0  0  0  0  0  0
  2  1  1  0
  3  2  1  0
  3  4  1  1
  5  7  1  0
  5  3  1  0
  5  6  1  6
  7  8  2  0
  9 10  1  0
 10 20  2  0
 10 11  1  0
 11 12  2  0
 12 13  1  0
 13 14  1  0
 15 14  1  1
 16 15  1  0
 16  7  1  0
 17 15  1  0
 18 17  2  0
 19 13  2  0
 20 19  1  0
 21 17  1  0
 22 27  1  0
 22 21  1  0
 22 23  1  6
 24 25  1  0
 24 23  1  0
 25 26  2  0
 27 30  1  0
 28 27  2  0
 29 25  1  0
M  END
$$$$
