IYE.pdb
     RDKit          3D

 30 30  0  0  1  0  0  0  0  0999 V2000
    6.5179  -12.3508   18.8465 C   0  0  0  0  0  0  0  0  0  0  0  0
    7.0895  -13.7145   19.1316 C   0  0  0  0  0  0  0  0  0  0  0  0
    7.8820  -13.6888   20.3894 C   0  0  2  0  0  0  0  0  0  0  0  0
    9.0400  -12.7079   20.2784 C   0  0  0  0  0  0  0  0  0  0  0  0
    8.3875  -15.0144   20.8624 C   0  0  2  0  0  0  0  0  0  0  0  0
    7.1997  -15.8627   21.0604 N   0  0  0  0  0  0  0  0  0  0  0  0
    9.2024  -14.9591   22.0755 C   0  0  0  0  0  0  0  0  0  0  0  0
   10.3722  -14.5193   22.0367 O   0  0  0  0  0  0  0  0  0  0  0  0
   10.8628  -14.9291   30.8304 O   0  0  0  0  0  0  0  0  0  0  0  0
   10.2473  -14.9828   29.5743 C   0  0  0  0  0  0  0  0  0  0  0  0
   10.0740  -13.8441   28.8183 C   0  0  0  0  0  0  0  0  0  0  0  0
    9.4620  -13.8999   27.5702 C   0  0  0  0  0  0  0  0  0  0  0  0
    9.0064  -15.0882   27.0416 C   0  0  0  0  0  0  0  0  0  0  0  0
    8.3518  -15.1563   25.7170 C   0  0  0  0  0  0  0  0  0  0  0  0
    9.3465  -15.2929   24.5775 C   0  0  2  0  0  0  0  0  0  0  0  0
    8.6645  -15.4062   23.3031 N   0  0  0  0  0  0  0  0  0  0  0  0
   10.3139  -16.3816   24.7592 C   0  0  0  0  0  0  0  0  0  0  0  0
   11.1645  -16.4195   25.6776 O   0  0  0  0  0  0  0  0  0  0  0  0
    9.1938  -16.2228   27.8253 C   0  0  0  0  0  0  0  0  0  0  0  0
    9.7935  -16.1826   29.0531 C   0  0  0  0  0  0  0  0  0  0  0  0
   10.3006  -17.4711   23.8464 N   0  0  0  0  0  0  0  0  0  0  0  0
   11.2671  -18.5783   23.9852 C   0  0  1  0  0  0  0  0  0  0  0  0
   12.3672  -18.4087   22.9785 C   0  0  0  0  0  0  0  0  0  0  0  0
   11.9250  -18.1177   21.5900 C   0  0  0  0  0  0  0  0  0  0  0  0
   13.0121  -18.0072   20.5990 C   0  0  0  0  0  0  0  0  0  0  0  0
   14.1336  -18.5630   20.7103 O   0  0  0  0  0  0  0  0  0  0  0  0
   11.7335  -18.6614   25.3785 C   0  0  0  0  0  0  0  0  0  0  0  0
   11.6683  -19.7327   26.0026 O   0  0  0  0  0  0  0  0  0  0  0  0
   12.8480  -17.2441   19.4287 O   0  0  0  0  0  0  0  0  0  0  0  0
   12.2471  -17.5414   25.9964 O   0  0  0  0  0  0  0  0  0  0  0  0
  2  1  1  0
  3  2  1  0
  3  4  1  6
  5  7  1  0
  5  3  1  0
  5  6  1  1
  7  8  2  0
  9 10  1  0
 10 20  2  0
 10 11  1  0
 11 12  2  0
 12 13  1  0
 13 14  1  0
 15 14  1  1
 16 15  1  0
 16  7  1  0
 17 15  1  0
 18 17  2  0
 19 13  2  0
 20 19  1  0
 21 17  1  0
 22 27  1  0
 22 21  1  0
 22 23  1  6
 24 25  1  0
 24 23  1  0
 25 26  2  0
 27 30  1  0
 28 27  2  0
 29 25  1  0
M  END
$$$$
