IYE.pdb
     RDKit          3D

 30 30  0  0  1  0  0  0  0  0999 V2000
    6.4676  -12.1839   18.7964 C   0  0  0  0  0  0  0  0  0  0  0  0
    6.9281  -13.5889   19.0816 C   0  0  0  0  0  0  0  0  0  0  0  0
    7.6957  -13.6317   20.3543 C   0  0  2  0  0  0  0  0  0  0  0  0
    8.8808  -12.6785   20.3028 C   0  0  0  0  0  0  0  0  0  0  0  0
    8.1572  -14.9871   20.7859 C   0  0  2  0  0  0  0  0  0  0  0  0
    6.9435  -15.8076   20.9381 N   0  0  0  0  0  0  0  0  0  0  0  0
    8.9565  -14.9982   22.0106 C   0  0  0  0  0  0  0  0  0  0  0  0
   10.1889  -14.7913   21.9679 O   0  0  0  0  0  0  0  0  0  0  0  0
   10.6382  -15.0289   30.7580 O   0  0  0  0  0  0  0  0  0  0  0  0
   10.0166  -14.9782   29.5048 C   0  0  0  0  0  0  0  0  0  0  0  0
    9.4791  -16.1100   28.9316 C   0  0  0  0  0  0  0  0  0  0  0  0
    8.8616  -16.0571   27.6861 C   0  0  0  0  0  0  0  0  0  0  0  0
    8.7626  -14.8789   26.9783 C   0  0  0  0  0  0  0  0  0  0  0  0
    8.1107  -14.8142   25.6522 C   0  0  0  0  0  0  0  0  0  0  0  0
    9.0293  -15.2522   24.5249 C   0  0  2  0  0  0  0  0  0  0  0  0
    8.3321  -15.2447   23.2538 N   0  0  0  0  0  0  0  0  0  0  0  0
    9.6870  -16.5429   24.7607 C   0  0  0  0  0  0  0  0  0  0  0  0
    9.0810  -17.6360   24.8401 O   0  0  0  0  0  0  0  0  0  0  0  0
    9.3134  -13.7512   27.5797 C   0  0  0  0  0  0  0  0  0  0  0  0
    9.9227  -13.7885   28.8028 C   0  0  0  0  0  0  0  0  0  0  0  0
   11.1001  -16.5760   24.9108 N   0  0  0  0  0  0  0  0  0  0  0  0
   11.8129  -17.8638   25.0237 C   0  0  1  0  0  0  0  0  0  0  0  0
   12.9085  -17.9185   23.9995 C   0  0  0  0  0  0  0  0  0  0  0  0
   13.6874  -16.6647   23.8276 C   0  0  0  0  0  0  0  0  0  0  0  0
   14.7776  -16.7380   22.8365 C   0  0  0  0  0  0  0  0  0  0  0  0
   15.7967  -17.4637   22.9543 O   0  0  0  0  0  0  0  0  0  0  0  0
   12.2725  -18.0597   26.4079 C   0  0  0  0  0  0  0  0  0  0  0  0
   12.1432  -17.1559   27.2492 O   0  0  0  0  0  0  0  0  0  0  0  0
   14.7360  -15.9700   21.6587 O   0  0  0  0  0  0  0  0  0  0  0  0
   12.8514  -19.2558   26.7742 O   0  0  0  0  0  0  0  0  0  0  0  0
  2  1  1  0
  3  2  1  0
  3  4  1  6
  5  7  1  0
  5  3  1  0
  5  6  1  1
  7  8  2  0
  9 10  1  0
 10 20  2  0
 10 11  1  0
 11 12  2  0
 12 13  1  0
 13 14  1  0
 15 14  1  1
 16 15  1  0
 16  7  1  0
 17 15  1  0
 18 17  2  0
 19 13  2  0
 20 19  1  0
 21 17  1  0
 22 27  1  0
 22 21  1  0
 22 23  1  6
 24 25  1  0
 24 23  1  0
 25 26  2  0
 27 30  1  0
 28 27  2  0
 29 25  1  0
M  END
$$$$
