IYE.pdb
     RDKit          3D

 30 30  0  0  1  0  0  0  0  0999 V2000
    6.1315  -17.1679   19.6406 C   0  0  0  0  0  0  0  0  0  0  0  0
    7.1920  -16.1478   19.9609 C   0  0  0  0  0  0  0  0  0  0  0  0
    6.5765  -14.9365   20.5650 C   0  0  2  0  0  0  0  0  0  0  0  0
    5.4551  -14.4041   19.6850 C   0  0  0  0  0  0  0  0  0  0  0  0
    7.5236  -13.8287   20.9004 C   0  0  2  0  0  0  0  0  0  0  0  0
    8.2135  -13.4813   19.6462 N   0  0  0  0  0  0  0  0  0  0  0  0
    8.4828  -14.1452   21.9580 C   0  0  0  0  0  0  0  0  0  0  0  0
    9.5922  -14.6507   21.6804 O   0  0  0  0  0  0  0  0  0  0  0  0
   11.0343  -15.9304   30.3179 O   0  0  0  0  0  0  0  0  0  0  0  0
   10.3743  -15.4176   29.1950 C   0  0  0  0  0  0  0  0  0  0  0  0
   10.6231  -14.1388   28.7466 C   0  0  0  0  0  0  0  0  0  0  0  0
    9.9660  -13.6313   27.6304 C   0  0  0  0  0  0  0  0  0  0  0  0
    9.0449  -14.3810   26.9314 C   0  0  0  0  0  0  0  0  0  0  0  0
    8.3393  -13.8484   25.7456 C   0  0  0  0  0  0  0  0  0  0  0  0
    8.9221  -14.3573   24.4387 C   0  0  2  0  0  0  0  0  0  0  0  0
    8.1543  -13.8782   23.3060 N   0  0  0  0  0  0  0  0  0  0  0  0
    9.0873  -15.8147   24.3883 C   0  0  0  0  0  0  0  0  0  0  0  0
    8.1385  -16.6263   24.2906 O   0  0  0  0  0  0  0  0  0  0  0  0
    8.8123  -15.6687   27.4053 C   0  0  0  0  0  0  0  0  0  0  0  0
    9.4508  -16.1802   28.5004 C   0  0  0  0  0  0  0  0  0  0  0  0
   10.3986  -16.3595   24.4527 N   0  0  0  0  0  0  0  0  0  0  0  0
   10.6021  -17.8202   24.5190 C   0  0  1  0  0  0  0  0  0  0  0  0
   11.2036  -18.2986   23.2299 C   0  0  0  0  0  0  0  0  0  0  0  0
   12.4930  -17.6645   22.8509 C   0  0  0  0  0  0  0  0  0  0  0  0
   13.0558  -18.1153   21.5640 C   0  0  0  0  0  0  0  0  0  0  0  0
   14.1077  -18.7928   21.4474 O   0  0  0  0  0  0  0  0  0  0  0  0
   11.3907  -18.1601   25.7140 C   0  0  0  0  0  0  0  0  0  0  0  0
   11.6394  -19.3449   25.9895 O   0  0  0  0  0  0  0  0  0  0  0  0
   12.4220  -17.8001   20.3484 O   0  0  0  0  0  0  0  0  0  0  0  0
   11.8573  -17.1557   26.5348 O   0  0  0  0  0  0  0  0  0  0  0  0
  2  1  1  0
  3  2  1  0
  3  4  1  6
  5  7  1  0
  5  3  1  0
  5  6  1  6
  7  8  2  0
  9 10  1  0
 10 20  2  0
 10 11  1  0
 11 12  2  0
 12 13  1  0
 13 14  1  0
 15 14  1  1
 16 15  1  0
 16  7  1  0
 17 15  1  0
 18 17  2  0
 19 13  2  0
 20 19  1  0
 21 17  1  0
 22 27  1  0
 22 21  1  0
 22 23  1  6
 24 25  1  0
 24 23  1  0
 25 26  2  0
 27 30  1  0
 28 27  2  0
 29 25  1  0
M  END
$$$$
