IYE.pdb
     RDKit          3D

 30 30  0  0  1  0  0  0  0  0999 V2000
    6.6961  -12.1958   18.6322 C   0  0  0  0  0  0  0  0  0  0  0  0
    7.0378  -13.6125   19.0115 C   0  0  0  0  0  0  0  0  0  0  0  0
    7.8230  -13.6331   20.2740 C   0  0  2  0  0  0  0  0  0  0  0  0
    9.0407  -12.7268   20.1678 C   0  0  0  0  0  0  0  0  0  0  0  0
    8.2419  -14.9865   20.7529 C   0  0  2  0  0  0  0  0  0  0  0  0
    7.0021  -15.7574   20.9485 N   0  0  0  0  0  0  0  0  0  0  0  0
    9.0539  -14.9789   21.9692 C   0  0  0  0  0  0  0  0  0  0  0  0
   10.2744  -14.7121   21.9178 O   0  0  0  0  0  0  0  0  0  0  0  0
   10.8776  -15.2107   30.6872 O   0  0  0  0  0  0  0  0  0  0  0  0
   10.2302  -15.1625   29.4471 C   0  0  0  0  0  0  0  0  0  0  0  0
   10.0847  -13.9731   28.7669 C   0  0  0  0  0  0  0  0  0  0  0  0
    9.4410  -13.9276   27.5345 C   0  0  0  0  0  0  0  0  0  0  0  0
    8.9253  -15.0622   26.9465 C   0  0  0  0  0  0  0  0  0  0  0  0
    8.2367  -15.0226   25.6381 C   0  0  0  0  0  0  0  0  0  0  0  0
    9.1722  -15.2995   24.4742 C   0  0  2  0  0  0  0  0  0  0  0  0
    8.4554  -15.2756   23.2143 N   0  0  0  0  0  0  0  0  0  0  0  0
    9.9505  -16.5356   24.6175 C   0  0  0  0  0  0  0  0  0  0  0  0
    9.4602  -17.6861   24.5517 O   0  0  0  0  0  0  0  0  0  0  0  0
    9.0857  -16.2497   27.6543 C   0  0  0  0  0  0  0  0  0  0  0  0
    9.7160  -16.3091   28.8658 C   0  0  0  0  0  0  0  0  0  0  0  0
   11.3505  -16.4428   24.8453 N   0  0  0  0  0  0  0  0  0  0  0  0
   12.2130  -17.6336   24.7132 C   0  0  1  0  0  0  0  0  0  0  0  0
   13.3116  -17.3468   23.7318 C   0  0  0  0  0  0  0  0  0  0  0  0
   14.2768  -18.4547   23.5095 C   0  0  0  0  0  0  0  0  0  0  0  0
   15.2933  -18.1980   22.4718 C   0  0  0  0  0  0  0  0  0  0  0  0
   15.8903  -17.1030   22.3179 O   0  0  0  0  0  0  0  0  0  0  0  0
   12.6868  -18.0559   26.0408 C   0  0  0  0  0  0  0  0  0  0  0  0
   13.2844  -19.1348   26.1834 O   0  0  0  0  0  0  0  0  0  0  0  0
   15.6659  -19.2034   21.5612 O   0  0  0  0  0  0  0  0  0  0  0  0
   12.4658  -17.2479   27.1355 O   0  0  0  0  0  0  0  0  0  0  0  0
  2  1  1  0
  3  2  1  0
  3  4  1  6
  5  7  1  0
  5  3  1  0
  5  6  1  1
  7  8  2  0
  9 10  1  0
 10 20  2  0
 10 11  1  0
 11 12  2  0
 12 13  1  0
 13 14  1  0
 15 14  1  1
 16 15  1  0
 16  7  1  0
 17 15  1  0
 18 17  2  0
 19 13  2  0
 20 19  1  0
 21 17  1  0
 22 27  1  0
 22 21  1  0
 22 23  1  6
 24 25  1  0
 24 23  1  0
 25 26  2  0
 27 30  1  0
 28 27  2  0
 29 25  1  0
M  END
$$$$
