IYE.pdb
     RDKit          3D

 30 30  0  0  1  0  0  0  0  0999 V2000
    8.8981  -16.4946   16.0962 C   0  0  0  0  0  0  0  0  0  0  0  0
    8.1472  -15.3456   16.7155 C   0  0  0  0  0  0  0  0  0  0  0  0
    8.6129  -15.1167   18.1089 C   0  0  2  0  0  0  0  0  0  0  0  0
    8.5563  -16.4054   18.9161 C   0  0  0  0  0  0  0  0  0  0  0  0
    7.9134  -14.0243   18.8533 C   0  0  2  0  0  0  0  0  0  0  0  0
    8.0434  -12.8123   18.0264 N   0  0  0  0  0  0  0  0  0  0  0  0
    8.4126  -13.7927   20.2083 C   0  0  0  0  0  0  0  0  0  0  0  0
    8.9365  -12.6996   20.5151 O   0  0  0  0  0  0  0  0  0  0  0  0
    6.8194  -12.4427   28.5204 O   0  0  0  0  0  0  0  0  0  0  0  0
    6.9001  -12.7175   27.1502 C   0  0  0  0  0  0  0  0  0  0  0  0
    6.2774  -13.8208   26.6086 C   0  0  0  0  0  0  0  0  0  0  0  0
    6.3588  -14.0917   25.2465 C   0  0  0  0  0  0  0  0  0  0  0  0
    7.0611  -13.2739   24.3879 C   0  0  0  0  0  0  0  0  0  0  0  0
    7.1555  -13.5561   22.9391 C   0  0  0  0  0  0  0  0  0  0  0  0
    8.2379  -14.5687   22.6081 C   0  0  2  0  0  0  0  0  0  0  0  0
    8.3027  -14.8121   21.1803 N   0  0  0  0  0  0  0  0  0  0  0  0
    8.1244  -15.8269   23.3553 C   0  0  0  0  0  0  0  0  0  0  0  0
    7.5063  -16.8351   22.9435 O   0  0  0  0  0  0  0  0  0  0  0  0
    7.6803  -12.1669   24.9606 C   0  0  0  0  0  0  0  0  0  0  0  0
    7.6084  -11.8884   26.2970 C   0  0  0  0  0  0  0  0  0  0  0  0
    8.7487  -15.9278   24.6283 N   0  0  0  0  0  0  0  0  0  0  0  0
    9.7633  -16.9687   24.8862 C   0  0  1  0  0  0  0  0  0  0  0  0
   11.0121  -16.6484   24.1180 C   0  0  0  0  0  0  0  0  0  0  0  0
   11.2867  -17.5236   22.9488 C   0  0  0  0  0  0  0  0  0  0  0  0
   12.3675  -17.0569   22.0599 C   0  0  0  0  0  0  0  0  0  0  0  0
   13.3655  -16.3958   22.4420 O   0  0  0  0  0  0  0  0  0  0  0  0
    9.9693  -17.1160   26.3358 C   0  0  0  0  0  0  0  0  0  0  0  0
   10.5505  -18.1137   26.7921 O   0  0  0  0  0  0  0  0  0  0  0  0
   12.3405  -17.3364   20.6815 O   0  0  0  0  0  0  0  0  0  0  0  0
    9.5138  -16.1389   27.1948 O   0  0  0  0  0  0  0  0  0  0  0  0
  2  1  1  0
  3  2  1  0
  3  4  1  1
  5  7  1  0
  5  3  1  0
  5  6  1  6
  7  8  2  0
  9 10  1  0
 10 20  2  0
 10 11  1  0
 11 12  2  0
 12 13  1  0
 13 14  1  0
 15 14  1  6
 16 15  1  0
 16  7  1  0
 17 15  1  0
 18 17  2  0
 19 13  2  0
 20 19  1  0
 21 17  1  0
 22 27  1  0
 22 21  1  0
 22 23  1  6
 24 25  1  0
 24 23  1  0
 25 26  2  0
 27 30  1  0
 28 27  2  0
 29 25  1  0
M  END
$$$$
