IYE.pdb
     RDKit          3D

 30 30  0  0  1  0  0  0  0  0999 V2000
    6.9055  -17.4567   17.9059 C   0  0  0  0  0  0  0  0  0  0  0  0
    6.6308  -16.1229   18.5487 C   0  0  0  0  0  0  0  0  0  0  0  0
    7.4806  -15.9477   19.7562 C   0  0  2  0  0  0  0  0  0  0  0  0
    7.3803  -17.1617   20.6682 C   0  0  0  0  0  0  0  0  0  0  0  0
    7.2333  -14.7020   20.5458 C   0  0  2  0  0  0  0  0  0  0  0  0
    7.3758  -13.5799   19.6022 N   0  0  0  0  0  0  0  0  0  0  0  0
    8.1094  -14.5298   21.7040 C   0  0  0  0  0  0  0  0  0  0  0  0
    9.3199  -14.2562   21.5511 O   0  0  0  0  0  0  0  0  0  0  0  0
   10.5108  -14.9559   30.2879 O   0  0  0  0  0  0  0  0  0  0  0  0
    9.7891  -14.8134   29.0970 C   0  0  0  0  0  0  0  0  0  0  0  0
    9.1609  -15.8917   28.5132 C   0  0  0  0  0  0  0  0  0  0  0  0
    8.4441  -15.7477   27.3296 C   0  0  0  0  0  0  0  0  0  0  0  0
    8.3334  -14.5291   26.6958 C   0  0  0  0  0  0  0  0  0  0  0  0
    7.5761  -14.3675   25.4356 C   0  0  0  0  0  0  0  0  0  0  0  0
    8.3965  -14.7242   24.2083 C   0  0  2  0  0  0  0  0  0  0  0  0
    7.5849  -14.6736   23.0080 N   0  0  0  0  0  0  0  0  0  0  0  0
    9.1027  -16.0063   24.3166 C   0  0  0  0  0  0  0  0  0  0  0  0
    8.5418  -17.1244   24.2575 O   0  0  0  0  0  0  0  0  0  0  0  0
    8.9772  -13.4568   27.3063 C   0  0  0  0  0  0  0  0  0  0  0  0
    9.6845  -13.5839   28.4691 C   0  0  0  0  0  0  0  0  0  0  0  0
   10.5123  -16.0002   24.4999 N   0  0  0  0  0  0  0  0  0  0  0  0
   11.2760  -17.2635   24.4883 C   0  0  1  0  0  0  0  0  0  0  0  0
   12.4087  -17.1520   23.5101 C   0  0  0  0  0  0  0  0  0  0  0  0
   13.3626  -18.2914   23.5025 C   0  0  0  0  0  0  0  0  0  0  0  0
   14.4584  -18.1816   22.5211 C   0  0  0  0  0  0  0  0  0  0  0  0
   14.5681  -17.2544   21.6801 O   0  0  0  0  0  0  0  0  0  0  0  0
   11.6941  -17.6060   25.8570 C   0  0  0  0  0  0  0  0  0  0  0  0
   11.8956  -16.7141   26.6968 O   0  0  0  0  0  0  0  0  0  0  0  0
   15.4814  -19.1458   22.4696 O   0  0  0  0  0  0  0  0  0  0  0  0
   11.8637  -18.9275   26.2105 O   0  0  0  0  0  0  0  0  0  0  0  0
  2  1  1  0
  3  2  1  0
  3  4  1  1
  5  7  1  0
  5  3  1  0
  5  6  1  6
  7  8  2  0
  9 10  1  0
 10 20  2  0
 10 11  1  0
 11 12  2  0
 12 13  1  0
 13 14  1  0
 15 14  1  1
 16 15  1  0
 16  7  1  0
 17 15  1  0
 18 17  2  0
 19 13  2  0
 20 19  1  0
 21 17  1  0
 22 27  1  0
 22 21  1  0
 22 23  1  6
 24 25  1  0
 24 23  1  0
 25 26  2  0
 27 30  1  0
 28 27  2  0
 29 25  1  0
M  END
$$$$
