IYE.pdb
     RDKit          3D

 30 30  0  0  1  0  0  0  0  0999 V2000
    6.7938  -11.9462   18.7464 C   0  0  0  0  0  0  0  0  0  0  0  0
    6.9716  -13.3962   19.1119 C   0  0  0  0  0  0  0  0  0  0  0  0
    7.7910  -13.5201   20.3464 C   0  0  2  0  0  0  0  0  0  0  0  0
    9.0552  -12.6794   20.2424 C   0  0  0  0  0  0  0  0  0  0  0  0
    8.1454  -14.9158   20.7500 C   0  0  2  0  0  0  0  0  0  0  0  0
    6.8707  -15.6377   20.9032 N   0  0  0  0  0  0  0  0  0  0  0  0
    8.9542  -15.0130   21.9646 C   0  0  0  0  0  0  0  0  0  0  0  0
   10.2029  -15.0096   21.8994 O   0  0  0  0  0  0  0  0  0  0  0  0
   10.8512  -15.2696   30.6576 O   0  0  0  0  0  0  0  0  0  0  0  0
   10.1986  -15.1416   29.4258 C   0  0  0  0  0  0  0  0  0  0  0  0
    9.5333  -16.2071   28.8597 C   0  0  0  0  0  0  0  0  0  0  0  0
    8.8853  -16.0775   27.6355 C   0  0  0  0  0  0  0  0  0  0  0  0
    8.8820  -14.8864   26.9424 C   0  0  0  0  0  0  0  0  0  0  0  0
    8.1985  -14.7405   25.6389 C   0  0  0  0  0  0  0  0  0  0  0  0
    9.0292  -15.2620   24.4794 C   0  0  2  0  0  0  0  0  0  0  0  0
    8.3205  -15.1117   23.2235 N   0  0  0  0  0  0  0  0  0  0  0  0
    9.5028  -16.6395   24.6587 C   0  0  0  0  0  0  0  0  0  0  0  0
    8.7550  -17.6440   24.6667 O   0  0  0  0  0  0  0  0  0  0  0  0
    9.5611  -13.8266   27.5362 C   0  0  0  0  0  0  0  0  0  0  0  0
   10.2018  -13.9397   28.7385 C   0  0  0  0  0  0  0  0  0  0  0  0
   10.8943  -16.8694   24.8356 N   0  0  0  0  0  0  0  0  0  0  0  0
   11.4208  -18.2449   24.9370 C   0  0  1  0  0  0  0  0  0  0  0  0
   11.9649  -18.6697   23.6045 C   0  0  0  0  0  0  0  0  0  0  0  0
   13.0070  -17.7822   23.0259 C   0  0  0  0  0  0  0  0  0  0  0  0
   13.5334  -18.2092   21.7157 C   0  0  0  0  0  0  0  0  0  0  0  0
   13.9200  -19.3753   21.4516 O   0  0  0  0  0  0  0  0  0  0  0  0
   12.3935  -18.3265   26.0383 C   0  0  0  0  0  0  0  0  0  0  0  0
   12.9123  -19.4128   26.3423 O   0  0  0  0  0  0  0  0  0  0  0  0
   13.6361  -17.2999   20.6474 O   0  0  0  0  0  0  0  0  0  0  0  0
   12.7321  -17.1885   26.7384 O   0  0  0  0  0  0  0  0  0  0  0  0
  2  1  1  0
  3  2  1  0
  3  4  1  6
  5  7  1  0
  5  3  1  0
  5  6  1  1
  7  8  2  0
  9 10  1  0
 10 20  2  0
 10 11  1  0
 11 12  2  0
 12 13  1  0
 13 14  1  0
 15 14  1  1
 16 15  1  0
 16  7  1  0
 17 15  1  0
 18 17  2  0
 19 13  2  0
 20 19  1  0
 21 17  1  0
 22 27  1  0
 22 21  1  0
 22 23  1  6
 24 25  1  0
 24 23  1  0
 25 26  2  0
 27 30  1  0
 28 27  2  0
 29 25  1  0
M  END
$$$$
