IYE.pdb
     RDKit          3D

 30 30  0  0  1  0  0  0  0  0999 V2000
    7.2148  -12.5305   18.8000 C   0  0  0  0  0  0  0  0  0  0  0  0
    7.6562  -13.9040   19.2318 C   0  0  0  0  0  0  0  0  0  0  0  0
    8.2274  -13.8545   20.6037 C   0  0  2  0  0  0  0  0  0  0  0  0
    9.3185  -12.7979   20.6968 C   0  0  0  0  0  0  0  0  0  0  0  0
    8.7371  -15.1545   21.1392 C   0  0  2  0  0  0  0  0  0  0  0  0
    7.6105  -16.1006   21.0681 N   0  0  0  0  0  0  0  0  0  0  0  0
    9.2805  -15.0847   22.4952 C   0  0  0  0  0  0  0  0  0  0  0  0
   10.2982  -14.4001   22.7383 O   0  0  0  0  0  0  0  0  0  0  0  0
    5.8132  -10.6743   26.8325 O   0  0  0  0  0  0  0  0  0  0  0  0
    6.3459  -11.9480   26.6014 C   0  0  0  0  0  0  0  0  0  0  0  0
    5.5305  -13.0133   26.2875 C   0  0  0  0  0  0  0  0  0  0  0  0
    6.0622  -14.2783   26.0582 C   0  0  0  0  0  0  0  0  0  0  0  0
    7.4172  -14.5172   26.1351 C   0  0  0  0  0  0  0  0  0  0  0  0
    7.9908  -15.8593   25.8960 C   0  0  0  0  0  0  0  0  0  0  0  0
    9.1412  -15.8375   24.9047 C   0  0  2  0  0  0  0  0  0  0  0  0
    8.6512  -15.7966   23.5408 N   0  0  0  0  0  0  0  0  0  0  0  0
   10.1058  -16.9282   25.0885 C   0  0  0  0  0  0  0  0  0  0  0  0
   10.4477  -17.3832   26.2040 O   0  0  0  0  0  0  0  0  0  0  0  0
    8.2180  -13.4244   26.4537 C   0  0  0  0  0  0  0  0  0  0  0  0
    7.7092  -12.1762   26.6812 C   0  0  0  0  0  0  0  0  0  0  0  0
   10.7006  -17.5192   23.9406 N   0  0  0  0  0  0  0  0  0  0  0  0
   11.6246  -18.6623   24.0785 C   0  0  1  0  0  0  0  0  0  0  0  0
   11.6550  -19.4363   22.7931 C   0  0  0  0  0  0  0  0  0  0  0  0
   12.1932  -18.7039   21.6174 C   0  0  0  0  0  0  0  0  0  0  0  0
   12.2286  -19.4782   20.3623 C   0  0  0  0  0  0  0  0  0  0  0  0
   12.9796  -20.4647   20.1576 O   0  0  0  0  0  0  0  0  0  0  0  0
   12.9432  -18.1865   24.5262 C   0  0  0  0  0  0  0  0  0  0  0  0
   13.2049  -16.9729   24.5387 O   0  0  0  0  0  0  0  0  0  0  0  0
   11.3916  -19.1428   19.2827 O   0  0  0  0  0  0  0  0  0  0  0  0
   13.8961  -19.0948   24.9351 O   0  0  0  0  0  0  0  0  0  0  0  0
  2  1  1  0
  3  2  1  0
  3  4  1  6
  5  7  1  0
  5  3  1  0
  5  6  1  1
  7  8  2  0
  9 10  1  0
 10 20  2  0
 10 11  1  0
 11 12  2  0
 12 13  1  0
 13 14  1  0
 15 14  1  1
 16 15  1  0
 16  7  1  0
 17 15  1  0
 18 17  2  0
 19 13  2  0
 20 19  1  0
 21 17  1  0
 22 27  1  0
 22 21  1  0
 22 23  1  6
 24 25  1  0
 24 23  1  0
 25 26  2  0
 27 30  1  0
 28 27  2  0
 29 25  1  0
M  END
$$$$
