IYE.pdb
     RDKit          3D

 30 30  0  0  1  0  0  0  0  0999 V2000
    7.1709  -16.7482   19.0638 C   0  0  0  0  0  0  0  0  0  0  0  0
    7.8309  -15.4542   19.4608 C   0  0  0  0  0  0  0  0  0  0  0  0
    6.8143  -14.4861   19.9511 C   0  0  2  0  0  0  0  0  0  0  0  0
    5.8584  -14.0942   18.8338 C   0  0  0  0  0  0  0  0  0  0  0  0
    7.3560  -13.2557   20.6061 C   0  0  2  0  0  0  0  0  0  0  0  0
    8.0983  -12.5258   19.5640 N   0  0  0  0  0  0  0  0  0  0  0  0
    8.1994  -13.5072   21.7741 C   0  0  0  0  0  0  0  0  0  0  0  0
    9.4234  -13.7248   21.6401 O   0  0  0  0  0  0  0  0  0  0  0  0
   10.0764  -15.3639   30.2918 O   0  0  0  0  0  0  0  0  0  0  0  0
    9.4409  -14.9453   29.1168 C   0  0  0  0  0  0  0  0  0  0  0  0
    8.4909  -15.7324   28.5033 C   0  0  0  0  0  0  0  0  0  0  0  0
    7.8607  -15.3144   27.3357 C   0  0  0  0  0  0  0  0  0  0  0  0
    8.1582  -14.1041   26.7477 C   0  0  0  0  0  0  0  0  0  0  0  0
    7.4953  -13.6531   25.5048 C   0  0  0  0  0  0  0  0  0  0  0  0
    8.3263  -13.9283   24.2638 C   0  0  2  0  0  0  0  0  0  0  0  0
    7.6276  -13.5049   23.0661 N   0  0  0  0  0  0  0  0  0  0  0  0
    8.7807  -15.3191   24.1482 C   0  0  0  0  0  0  0  0  0  0  0  0
    8.1292  -16.2262   23.5815 O   0  0  0  0  0  0  0  0  0  0  0  0
    9.1208  -13.3288   27.3875 C   0  0  0  0  0  0  0  0  0  0  0  0
    9.7478  -13.7270   28.5351 C   0  0  0  0  0  0  0  0  0  0  0  0
   10.0367  -15.6796   24.7076 N   0  0  0  0  0  0  0  0  0  0  0  0
   10.6035  -17.0230   24.4763 C   0  0  1  0  0  0  0  0  0  0  0  0
   11.2785  -17.0550   23.1363 C   0  0  0  0  0  0  0  0  0  0  0  0
   12.0395  -18.2947   22.8322 C   0  0  0  0  0  0  0  0  0  0  0  0
   12.7123  -18.3079   21.5196 C   0  0  0  0  0  0  0  0  0  0  0  0
   13.0512  -17.2776   20.8849 O   0  0  0  0  0  0  0  0  0  0  0  0
   11.4777  -17.3956   25.5998 C   0  0  0  0  0  0  0  0  0  0  0  0
   11.8254  -16.5471   26.4368 O   0  0  0  0  0  0  0  0  0  0  0  0
   13.0245  -19.5213   20.8800 O   0  0  0  0  0  0  0  0  0  0  0  0
   11.9145  -18.6970   25.7250 O   0  0  0  0  0  0  0  0  0  0  0  0
  2  1  1  0
  3  2  1  0
  3  4  1  6
  5  7  1  0
  5  3  1  0
  5  6  1  6
  7  8  2  0
  9 10  1  0
 10 20  2  0
 10 11  1  0
 11 12  2  0
 12 13  1  0
 13 14  1  0
 15 14  1  1
 16 15  1  0
 16  7  1  0
 17 15  1  0
 18 17  2  0
 19 13  2  0
 20 19  1  0
 21 17  1  0
 22 27  1  0
 22 21  1  0
 22 23  1  6
 24 25  1  0
 24 23  1  0
 25 26  2  0
 27 30  1  0
 28 27  2  0
 29 25  1  0
M  END
$$$$
