RKT.pdb
     RDKit          3D

 28 27  0  0  1  0  0  0  0  0999 V2000
   31.9182  -23.5280  -10.6748 N   0  0  0  0  0  0  0  0  0  0  0  0
   32.2308  -22.1598  -10.7715 C   0  0  0  0  0  0  0  0  0  0  0  0
   33.3716  -21.7745  -11.2134 N   0  0  0  0  0  0  0  0  0  0  0  0
   31.2468  -21.2183  -10.3656 N   0  0  0  0  0  0  0  0  0  0  0  0
   29.8516  -21.6061  -10.3671 C   0  0  0  0  0  0  0  0  0  0  0  0
   29.1916  -21.2745  -11.6754 C   0  0  0  0  0  0  0  0  0  0  0  0
   28.0061  -20.3953  -11.5141 C   0  0  0  0  0  0  0  0  0  0  0  0
   26.7749  -21.0061  -10.9568 C   0  0  2  0  0  0  0  0  0  0  0  0
   27.0323  -22.2526  -10.2858 N   0  0  0  0  0  0  0  0  0  0  0  0
   25.7212  -21.2229  -11.9873 C   0  0  0  0  0  0  0  0  0  0  0  0
   25.9847  -21.7654  -13.0951 O   0  0  0  0  0  0  0  0  0  0  0  0
   33.7090  -20.8039  -11.2179 N   0  0  0  0  0  0  0  0  0  0  0  0
   24.3740  -20.8328  -11.7778 C   0  0  1  0  0  0  0  0  0  0  0  0
   23.3211  -21.1026  -12.7734 C   0  0  0  0  0  0  0  0  0  0  0  0
   21.9804  -20.9798  -12.1088 C   0  0  0  0  0  0  0  0  0  0  0  0
   20.8705  -21.2503  -13.0619 C   0  0  0  0  0  0  0  0  0  0  0  0
   19.5051  -21.2141  -12.3380 C   0  0  0  0  0  0  0  0  0  0  0  0
   18.3923  -21.4920  -13.3156 N   0  0  0  0  0  0  0  0  0  0  0  0
   17.1187  -21.3669  -12.5884 C   0  0  0  0  0  0  0  0  0  0  0  0
   23.4875  -20.1051  -13.8438 O   0  0  0  0  0  0  0  0  0  0  0  0
   23.8729  -18.9218  -13.5360 C   0  0  0  0  0  0  0  0  0  0  0  0
   24.0027  -20.9166  -17.9789 C   0  0  2  0  0  0  0  0  0  0  0  0
   24.4846  -19.7296  -17.2062 O   0  0  0  0  0  0  0  0  0  0  0  0
   24.6626  -18.6615  -18.1122 C   0  0  1  0  0  0  0  0  0  0  0  0
   23.4378  -19.2668  -16.2158 N   0  0  0  0  0  0  0  0  0  0  0  0
   23.2682  -20.3118  -15.2216 C   0  0  0  0  0  0  0  0  0  0  0  0
   22.1777  -18.8887  -16.8588 O   0  0  0  0  0  0  0  0  0  0  0  0
   21.1261  -19.5429  -16.6441 O   0  0  0  0  0  0  0  0  0  0  0  0
  2  4  1  0
  2  1  1  0
  3  2  2  0
  5  4  1  0
  6  5  1  0
  7  6  1  0
  7  8  1  0
  8  9  1  6
 10 11  2  0
 10  8  1  0
 12 10  1  0
 13 12  1  0
 14 15  1  0
 13 14  1  6
 15 16  1  0
 16 17  1  0
 17 18  1  0
 19 25  1  0
 19 13  1  0
 20 19  2  0
 22 21  1  6
 22 23  1  0
 22 24  1  0
 24 25  1  1
 24 26  1  0
 26 28  1  0
 27 26  2  0
M  END
$$$$
