RKT.pdb
     RDKit          3D

 28 27  0  0  1  0  0  0  0  0999 V2000
   16.3862  -16.5992  -16.1303 N   0  0  0  0  0  0  0  0  0  0  0  0
   15.4958  -16.1582  -17.1261 C   0  0  0  0  0  0  0  0  0  0  0  0
   14.3165  -16.6537  -17.2215 N   0  0  0  0  0  0  0  0  0  0  0  0
   15.9406  -15.1490  -18.0222 N   0  0  0  0  0  0  0  0  0  0  0  0
   17.2760  -14.6088  -17.8748 C   0  0  0  0  0  0  0  0  0  0  0  0
   17.3197  -13.5316  -16.8286 C   0  0  0  0  0  0  0  0  0  0  0  0
   18.6795  -12.9650  -16.6438 C   0  0  0  0  0  0  0  0  0  0  0  0
   18.8332  -11.8687  -15.6570 C   0  0  2  0  0  0  0  0  0  0  0  0
   17.6433  -11.6588  -14.8756 N   0  0  0  0  0  0  0  0  0  0  0  0
   19.2299  -10.5779  -16.2859 C   0  0  0  0  0  0  0  0  0  0  0  0
   20.2873  -10.4736  -16.9656 O   0  0  0  0  0  0  0  0  0  0  0  0
   13.6340  -16.4238  -17.9543 N   0  0  0  0  0  0  0  0  0  0  0  0
   18.4437   -9.4051  -16.1540 C   0  0  1  0  0  0  0  0  0  0  0  0
   18.7963   -8.1496  -16.8410 C   0  0  0  0  0  0  0  0  0  0  0  0
   17.5751   -7.6126  -17.5298 C   0  0  0  0  0  0  0  0  0  0  0  0
   17.8461   -6.3030  -18.1818 C   0  0  0  0  0  0  0  0  0  0  0  0
   16.5887   -5.7863  -18.9177 C   0  0  0  0  0  0  0  0  0  0  0  0
   16.8857   -4.4712  -19.5912 N   0  0  0  0  0  0  0  0  0  0  0  0
   15.6252   -3.9671  -20.1600 C   0  0  0  0  0  0  0  0  0  0  0  0
   19.2833   -7.2242  -15.8042 O   0  0  0  0  0  0  0  0  0  0  0  0
   18.6127   -7.0983  -14.7189 C   0  0  0  0  0  0  0  0  0  0  0  0
   22.7569   -4.6780  -13.5140 C   0  0  2  0  0  0  0  0  0  0  0  0
   22.2879   -5.6754  -14.5257 O   0  0  0  0  0  0  0  0  0  0  0  0
   22.3984   -6.9619  -13.9547 C   0  0  1  0  0  0  0  0  0  0  0  0
   20.8194   -5.4817  -14.8368 N   0  0  0  0  0  0  0  0  0  0  0  0
   20.4501   -6.4345  -15.8688 C   0  0  0  0  0  0  0  0  0  0  0  0
   20.4948   -4.1009  -15.2004 O   0  0  0  0  0  0  0  0  0  0  0  0
   19.8768   -3.3546  -14.3997 O   0  0  0  0  0  0  0  0  0  0  0  0
  2  4  1  0
  2  1  1  0
  3  2  2  0
  5  4  1  0
  6  5  1  0
  7  6  1  0
  7  8  1  0
  8  9  1  6
 10 11  2  0
 10  8  1  0
 12 10  1  0
 13 12  1  0
 14 15  1  0
 13 14  1  6
 15 16  1  0
 16 17  1  0
 17 18  1  0
 19 25  1  0
 19 13  1  0
 20 19  2  0
 22 21  1  6
 22 23  1  0
 22 24  1  0
 24 25  1  6
 24 26  1  0
 26 28  1  0
 27 26  2  0
M  END
$$$$
