RKT.pdb
     RDKit          3D

 28 27  0  0  1  0  0  0  0  0999 V2000
   28.3466  -16.3746  -18.0013 N   0  0  0  0  0  0  0  0  0  0  0  0
   27.1949  -17.1671  -18.1582 C   0  0  0  0  0  0  0  0  0  0  0  0
   26.8404  -17.5920  -19.3154 N   0  0  0  0  0  0  0  0  0  0  0  0
   26.4367  -17.4826  -16.9985 N   0  0  0  0  0  0  0  0  0  0  0  0
   26.8992  -17.0275  -15.7039 C   0  0  0  0  0  0  0  0  0  0  0  0
   27.9406  -17.9506  -15.1379 C   0  0  0  0  0  0  0  0  0  0  0  0
   27.5360  -18.5458  -13.8392 C   0  0  0  0  0  0  0  0  0  0  0  0
   27.4193  -20.0227  -13.7728 C   0  0  2  0  0  0  0  0  0  0  0  0
   27.8762  -20.6670  -14.9755 N   0  0  0  0  0  0  0  0  0  0  0  0
   26.0320  -20.4791  -13.4795 C   0  0  0  0  0  0  0  0  0  0  0  0
   25.3672  -21.1474  -14.3175 O   0  0  0  0  0  0  0  0  0  0  0  0
   26.0332  -18.1997  -19.5025 N   0  0  0  0  0  0  0  0  0  0  0  0
   25.3895  -20.1875  -12.2493 C   0  0  2  0  0  0  0  0  0  0  0  0
   24.0599  -20.7300  -11.9171 C   0  0  0  0  0  0  0  0  0  0  0  0
   23.9274  -20.8122  -10.4238 C   0  0  0  0  0  0  0  0  0  0  0  0
   22.6373  -21.4353  -10.0226 C   0  0  0  0  0  0  0  0  0  0  0  0
   22.5119  -21.4933   -8.4829 C   0  0  0  0  0  0  0  0  0  0  0  0
   21.2465  -22.2126   -8.0924 N   0  0  0  0  0  0  0  0  0  0  0  0
   21.1872  -22.2437   -6.6220 C   0  0  0  0  0  0  0  0  0  0  0  0
   23.0707  -19.8066  -12.4978 O   0  0  0  0  0  0  0  0  0  0  0  0
   23.1246  -18.5636  -12.1888 C   0  0  0  0  0  0  0  0  0  0  0  0
   22.4748  -18.8279  -15.9606 C   0  0  2  0  0  0  0  0  0  0  0  0
   21.1415  -19.2591  -15.4363 O   0  0  0  0  0  0  0  0  0  0  0  0
   20.9692  -20.6247  -15.7511 C   0  0  2  0  0  0  0  0  0  0  0  0
   21.0990  -19.1705  -13.9260 N   0  0  0  0  0  0  0  0  0  0  0  0
   22.0348  -20.1450  -13.3931 C   0  0  0  0  0  0  0  0  0  0  0  0
   19.7472  -19.3319  -13.3869 O   0  0  0  0  0  0  0  0  0  0  0  0
   19.4397  -20.3520  -12.7200 O   0  0  0  0  0  0  0  0  0  0  0  0
  2  4  1  0
  2  1  1  0
  3  2  2  0
  5  4  1  0
  6  5  1  0
  7  6  1  0
  7  8  1  0
  8  9  1  6
 10 11  2  0
 10  8  1  0
 12 10  1  0
 13 12  1  0
 14 15  1  0
 13 14  1  1
 15 16  1  0
 16 17  1  0
 17 18  1  0
 19 25  1  0
 19 13  1  0
 20 19  2  0
 22 21  1  6
 22 23  1  0
 22 24  1  0
 24 25  1  1
 24 26  1  0
 26 28  1  0
 27 26  2  0
M  END
$$$$
