RKT.pdb
     RDKit          3D

 28 27  0  0  1  0  0  0  0  0999 V2000
   23.9022  -20.7518  -10.3329 N   0  0  0  0  0  0  0  0  0  0  0  0
   25.0499  -20.7025   -9.5210 C   0  0  0  0  0  0  0  0  0  0  0  0
   24.9590  -20.8000   -8.2453 N   0  0  0  0  0  0  0  0  0  0  0  0
   26.3116  -20.5415  -10.1549 N   0  0  0  0  0  0  0  0  0  0  0  0
   26.3619  -20.2958  -11.5811 C   0  0  0  0  0  0  0  0  0  0  0  0
   27.7772  -20.1474  -12.0625 C   0  0  0  0  0  0  0  0  0  0  0  0
   27.8593  -19.6941  -13.4740 C   0  0  0  0  0  0  0  0  0  0  0  0
   27.3036  -20.5947  -14.5129 C   0  0  2  0  0  0  0  0  0  0  0  0
   28.3135  -21.4102  -15.1338 N   0  0  0  0  0  0  0  0  0  0  0  0
   26.5582  -19.8609  -15.5736 C   0  0  0  0  0  0  0  0  0  0  0  0
   27.1578  -19.1741  -16.4452 O   0  0  0  0  0  0  0  0  0  0  0  0
   25.7510  -20.7808   -7.5909 N   0  0  0  0  0  0  0  0  0  0  0  0
   25.1431  -19.8959  -15.6584 C   0  0  2  0  0  0  0  0  0  0  0  0
   24.4119  -19.2371  -16.7556 C   0  0  0  0  0  0  0  0  0  0  0  0
   24.2876  -20.1977  -17.9028 C   0  0  0  0  0  0  0  0  0  0  0  0
   25.1229  -19.7783  -19.0604 C   0  0  0  0  0  0  0  0  0  0  0  0
   24.9850  -20.7818  -20.2282 C   0  0  0  0  0  0  0  0  0  0  0  0
   26.2859  -21.5126  -20.4402 N   0  0  0  0  0  0  0  0  0  0  0  0
   26.1076  -22.4156  -21.5888 C   0  0  0  0  0  0  0  0  0  0  0  0
   23.0929  -18.8629  -16.2182 O   0  0  0  0  0  0  0  0  0  0  0  0
   22.6043  -19.5384  -15.2443 C   0  0  0  0  0  0  0  0  0  0  0  0
   19.3661  -15.6508  -15.7442 C   0  0  2  0  0  0  0  0  0  0  0  0
   20.6826  -16.0401  -16.3388 O   0  0  0  0  0  0  0  0  0  0  0  0
   21.6944  -15.3150  -15.6725 C   0  0  1  0  0  0  0  0  0  0  0  0
   20.9806  -17.5020  -16.0846 N   0  0  0  0  0  0  0  0  0  0  0  0
   22.2771  -17.8030  -16.6657 C   0  0  0  0  0  0  0  0  0  0  0  0
   19.9229  -18.3889  -16.5732 O   0  0  0  0  0  0  0  0  0  0  0  0
   19.8843  -18.7377  -17.7803 O   0  0  0  0  0  0  0  0  0  0  0  0
  2  4  1  0
  2  1  1  0
  3  2  2  0
  5  4  1  0
  6  5  1  0
  7  6  1  0
  7  8  1  0
  8  9  1  6
 10 11  2  0
 10  8  1  0
 12 10  1  0
 13 12  1  0
 14 15  1  0
 13 14  1  6
 15 16  1  0
 16 17  1  0
 17 18  1  0
 19 25  1  0
 19 13  1  0
 20 19  2  0
 22 21  1  6
 22 23  1  0
 22 24  1  0
 24 25  1  6
 24 26  1  0
 26 28  1  0
 27 26  2  0
M  END
$$$$
