RKT.pdb
     RDKit          3D

 28 27  0  0  1  0  0  0  0  0999 V2000
   25.7657  -20.0290   -7.9799 N   0  0  0  0  0  0  0  0  0  0  0  0
   24.8709  -20.9910   -8.4825 C   0  0  0  0  0  0  0  0  0  0  0  0
   23.6407  -20.9997   -8.1192 N   0  0  0  0  0  0  0  0  0  0  0  0
   25.3691  -21.9519   -9.4034 N   0  0  0  0  0  0  0  0  0  0  0  0
   26.7024  -21.7899   -9.9445 C   0  0  0  0  0  0  0  0  0  0  0  0
   26.7263  -20.7718  -11.0490 C   0  0  0  0  0  0  0  0  0  0  0  0
   25.8306  -21.1282  -12.1782 C   0  0  0  0  0  0  0  0  0  0  0  0
   26.3884  -21.0288  -13.5487 C   0  0  2  0  0  0  0  0  0  0  0  0
   27.0368  -19.7673  -13.7905 N   0  0  0  0  0  0  0  0  0  0  0  0
   25.3638  -21.2539  -14.6063 C   0  0  0  0  0  0  0  0  0  0  0  0
   25.2285  -22.3769  -15.1644 O   0  0  0  0  0  0  0  0  0  0  0  0
   22.9336  -21.6749   -8.4354 N   0  0  0  0  0  0  0  0  0  0  0  0
   24.4915  -20.2227  -15.0388 C   0  0  1  0  0  0  0  0  0  0  0  0
   23.6765  -20.3530  -16.2600 C   0  0  0  0  0  0  0  0  0  0  0  0
   22.6179  -19.2884  -16.2540 C   0  0  0  0  0  0  0  0  0  0  0  0
   21.7275  -19.3956  -17.4412 C   0  0  0  0  0  0  0  0  0  0  0  0
   20.6308  -18.3068  -17.4041 C   0  0  0  0  0  0  0  0  0  0  0  0
   19.7498  -18.4164  -18.6220 N   0  0  0  0  0  0  0  0  0  0  0  0
   18.6269  -17.4813  -18.4453 C   0  0  0  0  0  0  0  0  0  0  0  0
   24.5961  -20.1949  -17.3992 O   0  0  0  0  0  0  0  0  0  0  0  0
   25.7807  -19.7539  -17.1851 C   0  0  0  0  0  0  0  0  0  0  0  0
   25.6719  -23.0329  -19.1435 C   0  0  1  0  0  0  0  0  0  0  0  0
   26.3267  -21.6925  -19.2578 O   0  0  0  0  0  0  0  0  0  0  0  0
   27.3352  -21.7815  -20.2419 C   0  0  1  0  0  0  0  0  0  0  0  0
   25.3473  -20.6521  -19.7569 N   0  0  0  0  0  0  0  0  0  0  0  0
   24.3140  -20.4892  -18.7494 C   0  0  0  0  0  0  0  0  0  0  0  0
   24.8029  -20.9742  -21.0775 O   0  0  0  0  0  0  0  0  0  0  0  0
   23.5834  -21.2430  -21.2210 O   0  0  0  0  0  0  0  0  0  0  0  0
  2  4  1  0
  2  1  1  0
  3  2  2  0
  5  4  1  0
  6  5  1  0
  7  6  1  0
  7  8  1  0
  8  9  1  6
 10 11  2  0
 10  8  1  0
 12 10  1  0
 13 12  1  0
 14 15  1  0
 13 14  1  6
 15 16  1  0
 16 17  1  0
 17 18  1  0
 19 25  1  0
 19 13  1  0
 20 19  2  0
 22 21  1  1
 22 23  1  0
 22 24  1  0
 24 25  1  1
 24 26  1  0
 26 28  1  0
 27 26  2  0
M  END
$$$$
