RKT.pdb
     RDKit          3D

 28 27  0  0  1  0  0  0  0  0999 V2000
   28.1964  -21.2127  -15.1983 N   0  0  0  0  0  0  0  0  0  0  0  0
   28.3787  -21.8516  -16.4383 C   0  0  0  0  0  0  0  0  0  0  0  0
   29.5555  -22.0915  -16.8888 N   0  0  0  0  0  0  0  0  0  0  0  0
   27.2224  -22.2228  -17.1763 N   0  0  0  0  0  0  0  0  0  0  0  0
   25.9253  -22.1711  -16.5345 C   0  0  0  0  0  0  0  0  0  0  0  0
   25.3734  -20.7739  -16.5248 C   0  0  0  0  0  0  0  0  0  0  0  0
   23.9666  -20.7152  -16.0537 C   0  0  0  0  0  0  0  0  0  0  0  0
   23.7381  -20.7002  -14.5885 C   0  0  2  0  0  0  0  0  0  0  0  0
   24.4598  -21.7417  -13.9068 N   0  0  0  0  0  0  0  0  0  0  0  0
   22.2960  -20.7990  -14.2285 C   0  0  0  0  0  0  0  0  0  0  0  0
   21.3896  -20.4768  -15.0445 O   0  0  0  0  0  0  0  0  0  0  0  0
   29.7685  -22.6562  -17.7205 N   0  0  0  0  0  0  0  0  0  0  0  0
   21.8689  -21.2580  -12.9565 C   0  0  1  0  0  0  0  0  0  0  0  0
   20.5210  -21.8141  -12.7412 C   0  0  0  0  0  0  0  0  0  0  0  0
   20.5122  -22.5826  -11.4514 C   0  0  0  0  0  0  0  0  0  0  0  0
   19.1872  -23.2095  -11.1971 C   0  0  0  0  0  0  0  0  0  0  0  0
   19.1598  -23.8898   -9.8093 C   0  0  0  0  0  0  0  0  0  0  0  0
   17.8590  -24.6266   -9.6185 N   0  0  0  0  0  0  0  0  0  0  0  0
   17.8838  -25.2347   -8.2783 C   0  0  0  0  0  0  0  0  0  0  0  0
   19.5953  -20.6699  -12.6954 O   0  0  0  0  0  0  0  0  0  0  0  0
   19.7857  -19.7511  -11.8218 C   0  0  0  0  0  0  0  0  0  0  0  0
   19.0088  -17.8253  -14.7125 C   0  0  2  0  0  0  0  0  0  0  0  0
   17.6657  -18.4775  -14.6167 O   0  0  0  0  0  0  0  0  0  0  0  0
   17.5268  -19.3549  -15.7141 C   0  0  2  0  0  0  0  0  0  0  0  0
   17.5702  -19.3410  -13.3773 N   0  0  0  0  0  0  0  0  0  0  0  0
   18.4841  -20.4583  -13.5378 C   0  0  0  0  0  0  0  0  0  0  0  0
   16.1997  -19.7690  -13.0895 O   0  0  0  0  0  0  0  0  0  0  0  0
   15.8686  -20.9769  -13.1965 O   0  0  0  0  0  0  0  0  0  0  0  0
  2  4  1  0
  2  1  1  0
  3  2  2  0
  5  4  1  0
  6  5  1  0
  7  6  1  0
  7  8  1  0
  8  9  1  1
 10 11  2  0
 10  8  1  0
 12 10  1  0
 13 12  1  0
 14 15  1  0
 13 14  1  6
 15 16  1  0
 16 17  1  0
 17 18  1  0
 19 25  1  0
 19 13  1  0
 20 19  2  0
 22 21  1  6
 22 23  1  0
 22 24  1  0
 24 25  1  1
 24 26  1  0
 26 28  1  0
 27 26  2  0
M  END
$$$$
