RKT.pdb
     RDKit          3D

 28 27  0  0  1  0  0  0  0  0999 V2000
   18.6655  -24.2830   -8.7107 N   0  0  0  0  0  0  0  0  0  0  0  0
   17.6533  -24.3926   -9.6815 C   0  0  0  0  0  0  0  0  0  0  0  0
   16.5790  -25.0511   -9.4414 N   0  0  0  0  0  0  0  0  0  0  0  0
   17.8555  -23.7532  -10.9343 N   0  0  0  0  0  0  0  0  0  0  0  0
   19.2053  -23.5619  -11.4226 C   0  0  0  0  0  0  0  0  0  0  0  0
   19.7909  -22.2710  -10.9249 C   0  0  0  0  0  0  0  0  0  0  0  0
   21.1351  -21.9938  -11.4912 C   0  0  0  0  0  0  0  0  0  0  0  0
   21.2207  -21.0023  -12.5907 C   0  0  2  0  0  0  0  0  0  0  0  0
   20.3270  -21.3047  -13.6771 N   0  0  0  0  0  0  0  0  0  0  0  0
   22.6017  -20.8566  -13.1297 C   0  0  0  0  0  0  0  0  0  0  0  0
   23.5812  -20.6095  -12.3744 O   0  0  0  0  0  0  0  0  0  0  0  0
   15.8140  -25.2025  -10.1105 N   0  0  0  0  0  0  0  0  0  0  0  0
   22.8859  -20.9872  -14.5130 C   0  0  1  0  0  0  0  0  0  0  0  0
   24.2642  -20.9376  -15.0331 C   0  0  0  0  0  0  0  0  0  0  0  0
   24.4259  -21.9978  -16.0838 C   0  0  0  0  0  0  0  0  0  0  0  0
   25.0826  -23.2152  -15.5360 C   0  0  0  0  0  0  0  0  0  0  0  0
   25.4090  -24.2178  -16.6664 C   0  0  0  0  0  0  0  0  0  0  0  0
   26.0597  -25.4509  -16.0941 N   0  0  0  0  0  0  0  0  0  0  0  0
   26.2020  -26.4273  -17.1862 C   0  0  0  0  0  0  0  0  0  0  0  0
   24.4555  -19.5886  -15.5919 O   0  0  0  0  0  0  0  0  0  0  0  0
   23.4247  -18.8941  -15.9058 C   0  0  0  0  0  0  0  0  0  0  0  0
   27.2428  -16.9166  -14.4888 C   0  0  2  0  0  0  0  0  0  0  0  0
   27.1372  -17.0394  -15.9762 O   0  0  0  0  0  0  0  0  0  0  0  0
   28.1014  -17.9767  -16.4066 C   0  0  2  0  0  0  0  0  0  0  0  0
   25.7936  -17.6081  -16.3786 N   0  0  0  0  0  0  0  0  0  0  0  0
   25.6895  -18.9469  -15.8253 C   0  0  0  0  0  0  0  0  0  0  0  0
   25.5758  -17.5766  -17.8262 O   0  0  0  0  0  0  0  0  0  0  0  0
   25.5085  -18.6428  -18.4886 O   0  0  0  0  0  0  0  0  0  0  0  0
  2  4  1  0
  2  1  1  0
  3  2  2  0
  5  4  1  0
  6  5  1  0
  7  6  1  0
  7  8  1  0
  8  9  1  6
 10 11  2  0
 10  8  1  0
 12 10  1  0
 13 12  1  0
 14 15  1  0
 13 14  1  1
 15 16  1  0
 16 17  1  0
 17 18  1  0
 19 25  1  0
 19 13  1  0
 20 19  2  0
 22 21  1  6
 22 23  1  0
 22 24  1  0
 24 25  1  6
 24 26  1  0
 26 28  1  0
 27 26  2  0
M  END
$$$$
