RKT.pdb
     RDKit          3D

 28 27  0  0  1  0  0  0  0  0999 V2000
   18.6461  -25.4866  -17.5222 N   0  0  0  0  0  0  0  0  0  0  0  0
   17.6972  -25.6716  -16.5004 C   0  0  0  0  0  0  0  0  0  0  0  0
   16.8057  -24.7811  -16.2603 N   0  0  0  0  0  0  0  0  0  0  0  0
   17.7550  -26.8724  -15.7427 N   0  0  0  0  0  0  0  0  0  0  0  0
   18.6640  -27.9238  -16.1493 C   0  0  0  0  0  0  0  0  0  0  0  0
   18.6391  -29.0743  -15.1836 C   0  0  0  0  0  0  0  0  0  0  0  0
   19.5620  -30.1706  -15.5722 C   0  0  0  0  0  0  0  0  0  0  0  0
   20.9053  -30.1859  -14.9439 C   0  0  2  0  0  0  0  0  0  0  0  0
   21.9652  -30.3007  -15.9103 N   0  0  0  0  0  0  0  0  0  0  0  0
   21.0568  -31.2692  -13.9326 C   0  0  0  0  0  0  0  0  0  0  0  0
   20.8093  -32.4734  -14.2148 O   0  0  0  0  0  0  0  0  0  0  0  0
   16.1350  -24.8078  -15.4823 N   0  0  0  0  0  0  0  0  0  0  0  0
   21.4847  -31.0046  -12.6067 C   0  0  2  0  0  0  0  0  0  0  0  0
   21.5998  -32.0727  -11.5976 C   0  0  0  0  0  0  0  0  0  0  0  0
   23.0021  -32.0862  -11.0614 C   0  0  0  0  0  0  0  0  0  0  0  0
   23.3842  -33.4349  -10.5629 C   0  0  0  0  0  0  0  0  0  0  0  0
   24.7853  -33.4017   -9.9106 C   0  0  0  0  0  0  0  0  0  0  0  0
   25.2535  -34.8035   -9.6157 N   0  0  0  0  0  0  0  0  0  0  0  0
   26.6889  -34.7362   -9.2971 C   0  0  0  0  0  0  0  0  0  0  0  0
   20.6203  -31.7630  -10.5425 O   0  0  0  0  0  0  0  0  0  0  0  0
   20.3671  -30.5361  -10.2704 C   0  0  0  0  0  0  0  0  0  0  0  0
   16.6562  -32.8035   -7.9174 C   0  0  2  0  0  0  0  0  0  0  0  0
   17.6875  -33.1383   -8.9483 O   0  0  0  0  0  0  0  0  0  0  0  0
   17.1745  -32.7763  -10.2129 C   0  0  1  0  0  0  0  0  0  0  0  0
   18.9383  -32.3090   -8.7524 N   0  0  0  0  0  0  0  0  0  0  0  0
   19.8977  -32.6970   -9.7714 C   0  0  0  0  0  0  0  0  0  0  0  0
   19.4808  -32.4140   -7.3964 O   0  0  0  0  0  0  0  0  0  0  0  0
   20.3406  -33.2867   -7.1148 O   0  0  0  0  0  0  0  0  0  0  0  0
  2  4  1  0
  2  1  1  0
  3  2  2  0
  5  4  1  0
  6  5  1  0
  7  6  1  0
  7  8  1  0
  8  9  1  6
 10 11  2  0
 10  8  1  0
 12 10  1  0
 13 12  1  0
 14 15  1  0
 13 14  1  6
 15 16  1  0
 16 17  1  0
 17 18  1  0
 19 25  1  0
 19 13  1  0
 20 19  2  0
 22 21  1  6
 22 23  1  0
 22 24  1  0
 24 25  1  6
 24 26  1  0
 26 28  1  0
 27 26  2  0
M  END
$$$$
