RKT.pdb
     RDKit          3D

 28 27  0  0  1  0  0  0  0  0999 V2000
   17.2560  -23.4272   -9.4560 N   0  0  0  0  0  0  0  0  0  0  0  0
   18.1641  -24.4937   -9.3271 C   0  0  0  0  0  0  0  0  0  0  0  0
   17.9684  -25.6032   -9.9403 N   0  0  0  0  0  0  0  0  0  0  0  0
   19.3033  -24.3062   -8.4984 N   0  0  0  0  0  0  0  0  0  0  0  0
   19.9688  -23.0202   -8.4891 C   0  0  0  0  0  0  0  0  0  0  0  0
   19.9991  -22.4082   -9.8608 C   0  0  0  0  0  0  0  0  0  0  0  0
   20.7934  -21.1549   -9.9133 C   0  0  0  0  0  0  0  0  0  0  0  0
   22.2675  -21.2854  -10.0090 C   0  0  2  0  0  0  0  0  0  0  0  0
   22.9400  -20.8301   -8.8212 N   0  0  0  0  0  0  0  0  0  0  0  0
   22.8346  -20.5711  -11.1868 C   0  0  0  0  0  0  0  0  0  0  0  0
   22.9515  -19.3153  -11.2023 O   0  0  0  0  0  0  0  0  0  0  0  0
   18.5934  -26.4182   -9.9060 N   0  0  0  0  0  0  0  0  0  0  0  0
   23.2702  -21.2619  -12.3462 C   0  0  2  0  0  0  0  0  0  0  0  0
   23.8398  -20.5541  -13.5068 C   0  0  0  0  0  0  0  0  0  0  0  0
   25.0548  -21.2976  -13.9816 C   0  0  0  0  0  0  0  0  0  0  0  0
   25.6677  -20.6427  -15.1686 C   0  0  0  0  0  0  0  0  0  0  0  0
   26.9243  -21.4143  -15.6326 C   0  0  0  0  0  0  0  0  0  0  0  0
   27.5669  -20.7062  -16.7975 N   0  0  0  0  0  0  0  0  0  0  0  0
   28.7345  -21.5005  -17.2126 C   0  0  0  0  0  0  0  0  0  0  0  0
   22.7889  -20.5210  -14.5377 O   0  0  0  0  0  0  0  0  0  0  0  0
   22.1630  -21.6031  -14.8220 C   0  0  0  0  0  0  0  0  0  0  0  0
   19.5566  -18.5314  -14.8751 C   0  0  2  0  0  0  0  0  0  0  0  0
   20.3976  -18.3022  -16.0911 O   0  0  0  0  0  0  0  0  0  0  0  0
   21.1993  -17.1633  -15.8593 C   0  0  2  0  0  0  0  0  0  0  0  0
   21.3581  -19.4512  -16.3098 N   0  0  0  0  0  0  0  0  0  0  0  0
   22.3726  -19.3912  -15.2722 C   0  0  0  0  0  0  0  0  0  0  0  0
   21.9291  -19.4634  -17.6581 O   0  0  0  0  0  0  0  0  0  0  0  0
   23.1602  -19.2819  -17.8355 O   0  0  0  0  0  0  0  0  0  0  0  0
  2  4  1  0
  2  1  1  0
  3  2  2  0
  5  4  1  0
  6  5  1  0
  7  6  1  0
  7  8  1  0
  8  9  1  1
 10 11  2  0
 10  8  1  0
 12 10  1  0
 13 12  1  0
 14 15  1  0
 13 14  1  1
 15 16  1  0
 16 17  1  0
 17 18  1  0
 19 25  1  0
 19 13  1  0
 20 19  2  0
 22 21  1  6
 22 23  1  0
 22 24  1  0
 24 25  1  6
 24 26  1  0
 26 28  1  0
 27 26  2  0
M  END
$$$$
