RKT.pdb
     RDKit          3D

 28 27  0  0  1  0  0  0  0  0999 V2000
   15.1000  -12.9262  -15.1003 N   0  0  0  0  0  0  0  0  0  0  0  0
   16.4951  -13.1063  -15.0989 C   0  0  0  0  0  0  0  0  0  0  0  0
   17.0702  -13.8032  -16.0093 N   0  0  0  0  0  0  0  0  0  0  0  0
   17.2478  -12.4943  -14.0605 N   0  0  0  0  0  0  0  0  0  0  0  0
   16.9830  -11.1138  -13.7124 C   0  0  0  0  0  0  0  0  0  0  0  0
   17.9796  -10.1869  -14.3483 C   0  0  0  0  0  0  0  0  0  0  0  0
   17.6784   -8.7558  -14.0915 C   0  0  0  0  0  0  0  0  0  0  0  0
   18.1065   -8.1920  -12.7884 C   0  0  2  0  0  0  0  0  0  0  0  0
   18.7399   -9.1707  -11.9450 N   0  0  0  0  0  0  0  0  0  0  0  0
   16.9856   -7.5617  -12.0365 C   0  0  0  0  0  0  0  0  0  0  0  0
   16.1999   -6.7436  -12.5881 O   0  0  0  0  0  0  0  0  0  0  0  0
   18.0804  -13.9809  -16.0709 N   0  0  0  0  0  0  0  0  0  0  0  0
   16.7446   -7.8471  -10.6684 C   0  0  1  0  0  0  0  0  0  0  0  0
   15.6089   -7.2563   -9.9378 C   0  0  0  0  0  0  0  0  0  0  0  0
   15.3699   -8.0503   -8.6861 C   0  0  0  0  0  0  0  0  0  0  0  0
   14.2478   -7.4879   -7.8874 C   0  0  0  0  0  0  0  0  0  0  0  0
   12.9274   -8.2288   -8.1995 C   0  0  0  0  0  0  0  0  0  0  0  0
   11.8229   -7.7166   -7.3111 N   0  0  0  0  0  0  0  0  0  0  0  0
   10.5727   -8.3682   -7.7339 C   0  0  0  0  0  0  0  0  0  0  0  0
   15.9819   -5.8649   -9.6327 O   0  0  0  0  0  0  0  0  0  0  0  0
   17.0734   -5.6387   -8.9995 C   0  0  0  0  0  0  0  0  0  0  0  0
   15.9230   -1.0630  -10.4372 C   0  0  2  0  0  0  0  0  0  0  0  0
   15.4873   -2.4558  -10.7669 O   0  0  0  0  0  0  0  0  0  0  0  0
   16.3511   -2.9591  -11.7640 C   0  0  1  0  0  0  0  0  0  0  0  0
   15.6502   -3.3712   -9.5727 N   0  0  0  0  0  0  0  0  0  0  0  0
   15.2508   -4.7084   -9.9749 C   0  0  0  0  0  0  0  0  0  0  0  0
   14.9259   -2.8963   -8.3920 O   0  0  0  0  0  0  0  0  0  0  0  0
   13.7365   -3.2463   -8.1849 O   0  0  0  0  0  0  0  0  0  0  0  0
  2  4  1  0
  2  1  1  0
  3  2  2  0
  5  4  1  0
  6  5  1  0
  7  6  1  0
  7  8  1  0
  8  9  1  1
 10 11  2  0
 10  8  1  0
 12 10  1  0
 13 12  1  0
 14 15  1  0
 13 14  1  6
 15 16  1  0
 16 17  1  0
 17 18  1  0
 19 25  1  0
 19 13  1  0
 20 19  2  0
 22 21  1  6
 22 23  1  0
 22 24  1  0
 24 25  1  6
 24 26  1  0
 26 28  1  0
 27 26  2  0
M  END
$$$$
