RKT.pdb
     RDKit          3D

 28 27  0  0  1  0  0  0  0  0999 V2000
   26.6588  -18.2238  -18.9209 N   0  0  0  0  0  0  0  0  0  0  0  0
   27.8924  -18.1800  -18.2462 C   0  0  0  0  0  0  0  0  0  0  0  0
   28.8239  -17.3848  -18.6276 N   0  0  0  0  0  0  0  0  0  0  0  0
   28.0763  -19.0416  -17.1312 N   0  0  0  0  0  0  0  0  0  0  0  0
   26.9526  -19.8087  -16.6355 C   0  0  0  0  0  0  0  0  0  0  0  0
   26.0746  -18.9800  -15.7414 C   0  0  0  0  0  0  0  0  0  0  0  0
   24.9285  -19.7468  -15.1909 C   0  0  0  0  0  0  0  0  0  0  0  0
   25.1797  -20.5816  -13.9912 C   0  0  2  0  0  0  0  0  0  0  0  0
   25.9827  -21.7394  -14.2828 N   0  0  0  0  0  0  0  0  0  0  0  0
   23.9239  -21.0229  -13.3223 C   0  0  0  0  0  0  0  0  0  0  0  0
   23.3664  -22.1141  -13.6213 O   0  0  0  0  0  0  0  0  0  0  0  0
   29.7617  -17.3269  -18.2116 N   0  0  0  0  0  0  0  0  0  0  0  0
   23.2929  -20.2433  -12.3196 C   0  0  1  0  0  0  0  0  0  0  0  0
   22.0430  -20.6752  -11.6687 C   0  0  0  0  0  0  0  0  0  0  0  0
   21.8636  -19.8983  -10.3965 C   0  0  0  0  0  0  0  0  0  0  0  0
   20.6107  -20.2833   -9.6925 C   0  0  0  0  0  0  0  0  0  0  0  0
   20.7790  -21.6440   -8.9784 C   0  0  0  0  0  0  0  0  0  0  0  0
   19.4627  -22.0899   -8.3953 N   0  0  0  0  0  0  0  0  0  0  0  0
   19.6706  -23.4138   -7.7867 C   0  0  0  0  0  0  0  0  0  0  0  0
   20.9554  -20.4066  -12.6244 O   0  0  0  0  0  0  0  0  0  0  0  0
   20.7247  -19.1964  -12.9792 C   0  0  0  0  0  0  0  0  0  0  0  0
   20.2509  -21.5791  -16.1274 C   0  0  2  0  0  0  0  0  0  0  0  0
   19.0399  -21.8862  -15.3043 O   0  0  0  0  0  0  0  0  0  0  0  0
   19.1555  -23.2128  -14.8350 C   0  0  2  0  0  0  0  0  0  0  0  0
   18.9870  -21.0104  -14.0710 N   0  0  0  0  0  0  0  0  0  0  0  0
   20.1099  -21.3649  -13.2208 C   0  0  0  0  0  0  0  0  0  0  0  0
   17.7023  -21.0917  -13.3732 O   0  0  0  0  0  0  0  0  0  0  0  0
   16.6589  -20.6205  -13.8923 O   0  0  0  0  0  0  0  0  0  0  0  0
  2  4  1  0
  2  1  1  0
  3  2  2  0
  5  4  1  0
  6  5  1  0
  7  6  1  0
  7  8  1  0
  8  9  1  6
 10 11  2  0
 10  8  1  0
 12 10  1  0
 13 12  1  0
 14 15  1  0
 13 14  1  6
 15 16  1  0
 16 17  1  0
 17 18  1  0
 19 25  1  0
 19 13  1  0
 20 19  2  0
 22 21  1  6
 22 23  1  0
 22 24  1  0
 24 25  1  6
 24 26  1  0
 26 28  1  0
 27 26  2  0
M  END
$$$$
