QTP.pdb
     RDKit          3D

 24 24  0  0  1  0  0  0  0  0999 V2000
   25.9974  -10.7922  -16.1580 N   0  0  0  0  0  0  0  0  0  0  0  0
   25.8196  -12.2101  -16.2135 C   0  0  0  0  0  0  0  0  0  0  0  0
   26.6210  -13.0212  -15.6982 O   0  0  0  0  0  0  0  0  0  0  0  0
   24.6195  -12.7087  -16.9215 C   0  0  0  0  0  0  0  0  0  0  0  0
   23.7030  -11.5908  -17.3497 C   0  0  0  0  0  0  0  0  0  0  0  0
   22.3714  -11.7577  -16.6622 C   0  0  2  0  0  0  0  0  0  0  0  0
   21.6848  -12.8506  -17.3579 N   0  0  0  0  0  0  0  0  0  0  0  0
   21.5475  -10.5238  -16.6835 C   0  0  0  0  0  0  0  0  0  0  0  0
   20.9325  -10.1900  -17.7362 O   0  0  0  0  0  0  0  0  0  0  0  0
   18.5186   -7.4167  -14.7206 C   0  0  0  0  0  0  0  0  0  0  0  0
   19.3070   -8.6815  -14.8654 C   0  0  1  0  0  0  0  0  0  0  0  0
   18.5001   -9.5423  -15.6500 O   0  0  0  0  0  0  0  0  0  0  0  0
   20.5946   -8.4317  -15.6039 C   0  0  2  0  0  0  0  0  0  0  0  0
   21.3953   -9.6669  -15.5770 N   0  0  0  0  0  0  0  0  0  0  0  0
   21.3503   -7.3545  -14.9619 C   0  0  0  0  0  0  0  0  0  0  0  0
   22.1342   -7.7468  -14.0037 O   0  0  0  0  0  0  0  0  0  0  0  0
   21.3475   -5.9844  -15.2384 N   0  0  0  0  0  0  0  0  0  0  0  0
   20.6404   -5.2885  -16.2734 C   0  0  0  0  0  0  0  0  0  0  0  0
   21.7603   -4.3988  -16.8357 C   0  0  0  0  0  0  0  0  0  0  0  0
   22.7522   -4.2289  -15.7026 C   0  0  0  0  0  0  0  0  0  0  0  0
   22.1335   -4.9896  -14.5493 C   0  0  1  0  0  0  0  0  0  0  0  0
   21.2938   -4.0304  -13.7718 C   0  0  0  0  0  0  0  0  0  0  0  0
   21.9091   -3.1686  -12.8802 O   0  0  0  0  0  0  0  0  0  0  0  0
   20.0413   -3.9552  -13.8783 O   0  0  0  0  0  0  0  0  0  0  0  0
  2  3  2  0
  2  1  1  0
  4  2  1  0
  5  4  1  0
  6  8  1  0
  6  5  1  0
  6  7  1  6
  8 14  1  0
  8  9  2  0
 11 10  1  6
 11 12  1  0
 13 11  1  0
 13 14  1  1
 15 17  1  0
 15 13  1  0
 16 15  2  0
 17 21  1  0
 18 17  1  0
 18 19  1  0
 19 20  1  0
 21 20  1  0
 22 23  1  0
 21 22  1  6
 24 22  2  0
M  END
$$$$
