QTP.pdb
     RDKit          3D

 24 24  0  0  1  0  0  0  0  0999 V2000
   26.1869  -21.4598   -8.5657 N   0  0  0  0  0  0  0  0  0  0  0  0
   24.8848  -20.8692   -8.5329 C   0  0  0  0  0  0  0  0  0  0  0  0
   24.0733  -21.0525   -7.5983 O   0  0  0  0  0  0  0  0  0  0  0  0
   24.5113  -20.0047   -9.6746 C   0  0  0  0  0  0  0  0  0  0  0  0
   25.6398  -19.8411  -10.6609 C   0  0  0  0  0  0  0  0  0  0  0  0
   25.3437  -20.6683  -11.8864 C   0  0  2  0  0  0  0  0  0  0  0  0
   25.3408  -22.0668  -11.4463 N   0  0  0  0  0  0  0  0  0  0  0  0
   26.3287  -20.4644  -12.9772 C   0  0  0  0  0  0  0  0  0  0  0  0
   27.3445  -21.2118  -13.0621 O   0  0  0  0  0  0  0  0  0  0  0  0
   27.2951  -21.8949  -15.1844 C   0  0  0  0  0  0  0  0  0  0  0  0
   26.7588  -20.7232  -15.9471 C   0  0  1  0  0  0  0  0  0  0  0  0
   25.3603  -20.9351  -16.0316 O   0  0  0  0  0  0  0  0  0  0  0  0
   27.0014  -19.4386  -15.2011 C   0  0  2  0  0  0  0  0  0  0  0  0
   26.2103  -19.4632  -13.9597 N   0  0  0  0  0  0  0  0  0  0  0  0
   26.5885  -18.2917  -16.0121 C   0  0  0  0  0  0  0  0  0  0  0  0
   25.4147  -17.8211  -15.7167 O   0  0  0  0  0  0  0  0  0  0  0  0
   27.2760  -17.6411  -17.0405 N   0  0  0  0  0  0  0  0  0  0  0  0
   28.5511  -17.9735  -17.6056 C   0  0  0  0  0  0  0  0  0  0  0  0
   29.2280  -16.5937  -17.6137 C   0  0  0  0  0  0  0  0  0  0  0  0
   28.0967  -15.5861  -17.6516 C   0  0  0  0  0  0  0  0  0  0  0  0
   26.8441  -16.4346  -17.7039 C   0  0  1  0  0  0  0  0  0  0  0  0
   26.5071  -16.6576  -19.1414 C   0  0  0  0  0  0  0  0  0  0  0  0
   26.6981  -17.9147  -19.6889 O   0  0  0  0  0  0  0  0  0  0  0  0
   26.0529  -15.7598  -19.8985 O   0  0  0  0  0  0  0  0  0  0  0  0
  2  3  2  0
  2  1  1  0
  4  2  1  0
  5  4  1  0
  6  8  1  0
  6  5  1  0
  6  7  1  1
  8 14  1  0
  8  9  2  0
 11 10  1  1
 11 12  1  0
 13 11  1  0
 13 14  1  1
 15 17  1  0
 15 13  1  0
 16 15  2  0
 17 21  1  0
 18 17  1  0
 18 19  1  0
 19 20  1  0
 21 20  1  0
 22 23  1  0
 21 22  1  6
 24 22  2  0
M  END
$$$$
