QTP.pdb
     RDKit          3D

 24 24  0  0  1  0  0  0  0  0999 V2000
   18.8799  -19.8332  -17.3991 N   0  0  0  0  0  0  0  0  0  0  0  0
   18.3438  -19.0700  -16.3150 C   0  0  0  0  0  0  0  0  0  0  0  0
   18.5054  -19.3801  -15.1136 O   0  0  0  0  0  0  0  0  0  0  0  0
   17.5659  -17.8609  -16.6659 C   0  0  0  0  0  0  0  0  0  0  0  0
   18.4406  -16.7511  -17.1913 C   0  0  0  0  0  0  0  0  0  0  0  0
   18.5572  -15.6782  -16.1382 C   0  0  2  0  0  0  0  0  0  0  0  0
   17.2438  -15.0306  -16.0653 N   0  0  0  0  0  0  0  0  0  0  0  0
   19.6162  -14.6828  -16.4372 C   0  0  0  0  0  0  0  0  0  0  0  0
   20.7957  -15.0658  -16.6817 O   0  0  0  0  0  0  0  0  0  0  0  0
   20.1782  -12.3979  -19.1959 C   0  0  0  0  0  0  0  0  0  0  0  0
   20.0791  -11.5331  -17.9774 C   0  0  1  0  0  0  0  0  0  0  0  0
   18.7135  -11.1669  -17.8837 O   0  0  0  0  0  0  0  0  0  0  0  0
   20.4514  -12.3033  -16.7390 C   0  0  2  0  0  0  0  0  0  0  0  0
   19.3952  -13.2929  -16.4696 N   0  0  0  0  0  0  0  0  0  0  0  0
   20.5685  -11.4003  -15.5925 C   0  0  0  0  0  0  0  0  0  0  0  0
   19.5331  -11.3921  -14.8086 O   0  0  0  0  0  0  0  0  0  0  0  0
   21.6275  -10.5636  -15.2290 N   0  0  0  0  0  0  0  0  0  0  0  0
   22.8985  -10.4080  -15.8741 C   0  0  0  0  0  0  0  0  0  0  0  0
   23.8440  -10.4907  -14.6653 C   0  0  0  0  0  0  0  0  0  0  0  0
   23.0158  -10.0608  -13.4712 C   0  0  0  0  0  0  0  0  0  0  0  0
   21.6637   -9.7187  -14.0597 C   0  0  1  0  0  0  0  0  0  0  0  0
   21.6721   -8.2649  -14.4006 C   0  0  0  0  0  0  0  0  0  0  0  0
   21.5473   -7.3355  -13.3823 O   0  0  0  0  0  0  0  0  0  0  0  0
   21.7875   -7.8248  -15.5747 O   0  0  0  0  0  0  0  0  0  0  0  0
  2  3  2  0
  2  1  1  0
  4  2  1  0
  5  4  1  0
  6  8  1  0
  6  5  1  0
  6  7  1  6
  8 14  1  0
  8  9  2  0
 11 10  1  6
 11 12  1  0
 13 11  1  0
 13 14  1  1
 15 17  1  0
 15 13  1  0
 16 15  2  0
 17 21  1  0
 18 17  1  0
 18 19  1  0
 19 20  1  0
 21 20  1  0
 22 23  1  0
 21 22  1  6
 24 22  2  0
M  END
$$$$
