QTP.pdb
     RDKit          3D

 24 24  0  0  1  0  0  0  0  0999 V2000
   18.4456  -12.1877  -14.8452 N   0  0  0  0  0  0  0  0  0  0  0  0
   17.3553  -13.0230  -15.2434 C   0  0  0  0  0  0  0  0  0  0  0  0
   17.4748  -14.2506  -15.4541 O   0  0  0  0  0  0  0  0  0  0  0  0
   16.0357  -12.3726  -15.4043 C   0  0  0  0  0  0  0  0  0  0  0  0
   16.0855  -10.8964  -15.1019 C   0  0  0  0  0  0  0  0  0  0  0  0
   15.7108  -10.6788  -13.6575 C   0  0  2  0  0  0  0  0  0  0  0  0
   14.2639  -10.8997  -13.5714 N   0  0  0  0  0  0  0  0  0  0  0  0
   16.0644   -9.3253  -13.1628 C   0  0  0  0  0  0  0  0  0  0  0  0
   15.3015   -8.3452  -13.3972 O   0  0  0  0  0  0  0  0  0  0  0  0
   18.0216   -6.3203   -9.9645 C   0  0  0  0  0  0  0  0  0  0  0  0
   17.6918   -7.6873  -10.4791 C   0  0  1  0  0  0  0  0  0  0  0  0
   16.4085   -7.9877   -9.9588 O   0  0  0  0  0  0  0  0  0  0  0  0
   17.6090   -7.6912  -11.9820 C   0  0  2  0  0  0  0  0  0  0  0  0
   17.2296   -9.0430  -12.4250 N   0  0  0  0  0  0  0  0  0  0  0  0
   18.9051   -7.3399  -12.5653 C   0  0  0  0  0  0  0  0  0  0  0  0
   19.7724   -8.3065  -12.5661 O   0  0  0  0  0  0  0  0  0  0  0  0
   19.3281   -6.1275  -13.1175 N   0  0  0  0  0  0  0  0  0  0  0  0
   18.5816   -4.9131  -13.2715 C   0  0  0  0  0  0  0  0  0  0  0  0
   18.9079   -4.5607  -14.7314 C   0  0  0  0  0  0  0  0  0  0  0  0
   20.2379   -5.2261  -15.0227 C   0  0  0  0  0  0  0  0  0  0  0  0
   20.6194   -5.8844  -13.7140 C   0  0  1  0  0  0  0  0  0  0  0  0
   21.4374   -4.9069  -12.9362 C   0  0  0  0  0  0  0  0  0  0  0  0
   22.7613   -4.7084  -13.2884 O   0  0  0  0  0  0  0  0  0  0  0  0
   20.9912   -4.2415  -11.9647 O   0  0  0  0  0  0  0  0  0  0  0  0
  2  3  2  0
  2  1  1  0
  4  2  1  0
  5  4  1  0
  6  8  1  0
  6  5  1  0
  6  7  1  6
  8 14  1  0
  8  9  2  0
 11 10  1  1
 11 12  1  0
 13 11  1  0
 13 14  1  6
 15 17  1  0
 15 13  1  0
 16 15  2  0
 17 21  1  0
 18 17  1  0
 18 19  1  0
 19 20  1  0
 21 20  1  0
 22 23  1  0
 21 22  1  1
 24 22  2  0
M  END
$$$$
