QTP.pdb
     RDKit          3D

 24 24  0  0  1  0  0  0  0  0999 V2000
   15.5569  -21.6669    1.0261 N   0  0  0  0  0  0  0  0  0  0  0  0
   14.2236  -21.3749    1.4529 C   0  0  0  0  0  0  0  0  0  0  0  0
   13.2204  -21.9970    1.0381 O   0  0  0  0  0  0  0  0  0  0  0  0
   14.0579  -20.2788    2.4334 C   0  0  0  0  0  0  0  0  0  0  0  0
   15.3800  -19.7240    2.8993 C   0  0  0  0  0  0  0  0  0  0  0  0
   15.1255  -18.5467    3.8065 C   0  0  2  0  0  0  0  0  0  0  0  0
   14.6523  -17.4593    2.9443 N   0  0  0  0  0  0  0  0  0  0  0  0
   16.3292  -18.1270    4.5658 C   0  0  0  0  0  0  0  0  0  0  0  0
   17.3097  -17.6052    3.9624 O   0  0  0  0  0  0  0  0  0  0  0  0
   18.4918  -16.5963    8.6380 C   0  0  0  0  0  0  0  0  0  0  0  0
   17.2925  -16.9927    7.8337 C   0  0  1  0  0  0  0  0  0  0  0  0
   16.7935  -15.7877    7.2798 O   0  0  0  0  0  0  0  0  0  0  0  0
   17.6803  -17.9105    6.7055 C   0  0  2  0  0  0  0  0  0  0  0  0
   16.4639  -18.2729    5.9595 N   0  0  0  0  0  0  0  0  0  0  0  0
   18.3041  -19.1273    7.2291 C   0  0  0  0  0  0  0  0  0  0  0  0
   17.4731  -20.0973    7.4638 O   0  0  0  0  0  0  0  0  0  0  0  0
   19.6506  -19.3853    7.5011 N   0  0  0  0  0  0  0  0  0  0  0  0
   20.7858  -18.5500    7.2383 C   0  0  0  0  0  0  0  0  0  0  0  0
   21.7414  -19.5633    6.5887 C   0  0  0  0  0  0  0  0  0  0  0  0
   21.3137  -20.9194    7.1130 C   0  0  0  0  0  0  0  0  0  0  0  0
   20.1724  -20.6100    8.0581 C   0  0  1  0  0  0  0  0  0  0  0  0
   20.7512  -20.4210    9.4215 C   0  0  0  0  0  0  0  0  0  0  0  0
   21.1057  -21.5361   10.1613 O   0  0  0  0  0  0  0  0  0  0  0  0
   20.9400  -19.2931    9.9486 O   0  0  0  0  0  0  0  0  0  0  0  0
  2  3  2  0
  2  1  1  0
  4  2  1  0
  5  4  1  0
  6  8  1  0
  6  5  1  0
  6  7  1  6
  8 14  1  0
  8  9  2  0
 11 10  1  1
 11 12  1  0
 13 11  1  0
 13 14  1  1
 15 17  1  0
 15 13  1  0
 16 15  2  0
 17 21  1  0
 18 17  1  0
 18 19  1  0
 19 20  1  0
 21 20  1  0
 22 23  1  0
 21 22  1  1
 24 22  2  0
M  END
$$$$
