QTP.pdb
     RDKit          3D

 24 24  0  0  1  0  0  0  0  0999 V2000
   16.3543  -14.6686  -15.2725 N   0  0  0  0  0  0  0  0  0  0  0  0
   16.1172  -15.2033  -16.5775 C   0  0  0  0  0  0  0  0  0  0  0  0
   15.0439  -15.7562  -16.9062 O   0  0  0  0  0  0  0  0  0  0  0  0
   17.2146  -15.0797  -17.5628 C   0  0  0  0  0  0  0  0  0  0  0  0
   18.4187  -14.3747  -16.9917 C   0  0  0  0  0  0  0  0  0  0  0  0
   19.4991  -14.3205  -18.0422 C   0  0  2  0  0  0  0  0  0  0  0  0
   20.0577  -15.6735  -18.1262 N   0  0  0  0  0  0  0  0  0  0  0  0
   20.5624  -13.3331  -17.7320 C   0  0  0  0  0  0  0  0  0  0  0  0
   21.6234  -13.7043  -17.1540 O   0  0  0  0  0  0  0  0  0  0  0  0
   22.7699   -9.0691  -18.7036 C   0  0  0  0  0  0  0  0  0  0  0  0
   21.7632  -10.1443  -18.9740 C   0  0  1  0  0  0  0  0  0  0  0  0
   22.3431  -10.9620  -19.9754 O   0  0  0  0  0  0  0  0  0  0  0  0
   21.5317  -10.9856  -17.7475 C   0  0  2  0  0  0  0  0  0  0  0  0
   20.4725  -11.9637  -18.0456 N   0  0  0  0  0  0  0  0  0  0  0  0
   21.1090  -10.1458  -16.6251 C   0  0  0  0  0  0  0  0  0  0  0  0
   19.8372   -9.8844  -16.6003 O   0  0  0  0  0  0  0  0  0  0  0  0
   21.8740   -9.6005  -15.5902 N   0  0  0  0  0  0  0  0  0  0  0  0
   23.2936   -9.6712  -15.4026 C   0  0  0  0  0  0  0  0  0  0  0  0
   23.3661  -10.0708  -13.9204 C   0  0  0  0  0  0  0  0  0  0  0  0
   22.0720   -9.5797  -13.3031 C   0  0  0  0  0  0  0  0  0  0  0  0
   21.3514   -8.8951  -14.4449 C   0  0  1  0  0  0  0  0  0  0  0  0
   21.7428   -7.4541  -14.4292 C   0  0  0  0  0  0  0  0  0  0  0  0
   22.5559   -6.9678  -15.4384 O   0  0  0  0  0  0  0  0  0  0  0  0
   21.3735   -6.6411  -13.5413 O   0  0  0  0  0  0  0  0  0  0  0  0
  2  3  2  0
  2  1  1  0
  4  2  1  0
  5  4  1  0
  6  8  1  0
  6  5  1  0
  6  7  1  1
  8 14  1  0
  8  9  2  0
 11 10  1  1
 11 12  1  0
 13 11  1  0
 13 14  1  6
 15 17  1  0
 15 13  1  0
 16 15  2  0
 17 21  1  0
 18 17  1  0
 18 19  1  0
 19 20  1  0
 21 20  1  0
 22 23  1  0
 21 22  1  6
 24 22  2  0
M  END
$$$$
