QTP.pdb
     RDKit          3D

 24 24  0  0  1  0  0  0  0  0999 V2000
   23.0180  -21.3634   -8.0153 N   0  0  0  0  0  0  0  0  0  0  0  0
   21.8614  -21.7076   -8.7827 C   0  0  0  0  0  0  0  0  0  0  0  0
   20.8515  -22.2578   -8.2897 O   0  0  0  0  0  0  0  0  0  0  0  0
   21.8931  -21.3829  -10.2263 C   0  0  0  0  0  0  0  0  0  0  0  0
   23.1699  -20.6892  -10.6282 C   0  0  0  0  0  0  0  0  0  0  0  0
   23.0766  -20.2930  -12.0801 C   0  0  2  0  0  0  0  0  0  0  0  0
   22.7086  -21.5078  -12.8139 N   0  0  0  0  0  0  0  0  0  0  0  0
   24.3404  -19.7237  -12.6097 C   0  0  0  0  0  0  0  0  0  0  0  0
   24.9138  -18.7766  -11.9999 O   0  0  0  0  0  0  0  0  0  0  0  0
   27.5807  -21.4299  -13.3153 C   0  0  0  0  0  0  0  0  0  0  0  0
   27.1774  -20.7468  -14.5854 C   0  0  1  0  0  0  0  0  0  0  0  0
   26.4957  -21.7306  -15.3439 O   0  0  0  0  0  0  0  0  0  0  0  0
   26.2250  -19.6145  -14.3087 C   0  0  2  0  0  0  0  0  0  0  0  0
   24.9701  -20.1779  -13.7839 N   0  0  0  0  0  0  0  0  0  0  0  0
   25.9422  -18.8734  -15.5394 C   0  0  0  0  0  0  0  0  0  0  0  0
   24.8898  -19.2820  -16.1813 O   0  0  0  0  0  0  0  0  0  0  0  0
   26.6356  -17.8001  -16.1057 N   0  0  0  0  0  0  0  0  0  0  0  0
   27.8597  -17.2000  -15.6619 C   0  0  0  0  0  0  0  0  0  0  0  0
   27.4849  -15.7107  -15.7197 C   0  0  0  0  0  0  0  0  0  0  0  0
   26.3730  -15.6108  -16.7446 C   0  0  0  0  0  0  0  0  0  0  0  0
   26.1992  -17.0290  -17.2447 C   0  0  1  0  0  0  0  0  0  0  0  0
   27.0881  -17.2033  -18.4319 C   0  0  0  0  0  0  0  0  0  0  0  0
   26.8457  -16.4515  -19.5687 O   0  0  0  0  0  0  0  0  0  0  0  0
   28.0595  -18.0040  -18.4640 O   0  0  0  0  0  0  0  0  0  0  0  0
  2  3  2  0
  2  1  1  0
  4  2  1  0
  5  4  1  0
  6  8  1  0
  6  5  1  0
  6  7  1  6
  8 14  1  0
  8  9  2  0
 11 10  1  1
 11 12  1  0
 13 11  1  0
 13 14  1  6
 15 17  1  0
 15 13  1  0
 16 15  2  0
 17 21  1  0
 18 17  1  0
 18 19  1  0
 19 20  1  0
 21 20  1  0
 22 23  1  0
 21 22  1  6
 24 22  2  0
M  END
$$$$
