QTP.pdb
     RDKit          3D

 24 24  0  0  1  0  0  0  0  0999 V2000
   22.7457  -22.1296  -16.9261 N   0  0  0  0  0  0  0  0  0  0  0  0
   23.6793  -21.3391  -16.1853 C   0  0  0  0  0  0  0  0  0  0  0  0
   23.3342  -20.4198  -15.4098 O   0  0  0  0  0  0  0  0  0  0  0  0
   25.1147  -21.6501  -16.3672 C   0  0  0  0  0  0  0  0  0  0  0  0
   25.3305  -22.8771  -17.2161 C   0  0  0  0  0  0  0  0  0  0  0  0
   26.8086  -23.1646  -17.2957 C   0  0  2  0  0  0  0  0  0  0  0  0
   27.4021  -22.0559  -18.0493 N   0  0  0  0  0  0  0  0  0  0  0  0
   27.1141  -24.4629  -17.9460 C   0  0  0  0  0  0  0  0  0  0  0  0
   26.8515  -24.6362  -19.1702 O   0  0  0  0  0  0  0  0  0  0  0  0
   30.0306  -26.1905  -18.9786 C   0  0  0  0  0  0  0  0  0  0  0  0
   29.3968  -27.1166  -17.9871 C   0  0  1  0  0  0  0  0  0  0  0  0
   29.9834  -26.7928  -16.7386 O   0  0  0  0  0  0  0  0  0  0  0  0
   27.9144  -26.8727  -17.8941 C   0  0  2  0  0  0  0  0  0  0  0  0
   27.6961  -25.5550  -17.2749 N   0  0  0  0  0  0  0  0  0  0  0  0
   27.2786  -27.9027  -17.0704 C   0  0  0  0  0  0  0  0  0  0  0  0
   27.0208  -27.5318  -15.8528 O   0  0  0  0  0  0  0  0  0  0  0  0
   26.9120  -29.2077  -17.4113 N   0  0  0  0  0  0  0  0  0  0  0  0
   26.9491  -29.8325  -18.7012 C   0  0  0  0  0  0  0  0  0  0  0  0
   25.5564  -30.4809  -18.7443 C   0  0  0  0  0  0  0  0  0  0  0  0
   25.1571  -30.6832  -17.2964 C   0  0  0  0  0  0  0  0  0  0  0  0
   26.3484  -30.1820  -16.5083 C   0  0  1  0  0  0  0  0  0  0  0  0
   27.2580  -31.3428  -16.2740 C   0  0  0  0  0  0  0  0  0  0  0  0
   28.4516  -31.4125  -16.9716 O   0  0  0  0  0  0  0  0  0  0  0  0
   27.0031  -32.2768  -15.4688 O   0  0  0  0  0  0  0  0  0  0  0  0
  2  3  2  0
  2  1  1  0
  4  2  1  0
  5  4  1  0
  6  8  1  0
  6  5  1  0
  6  7  1  6
  8 14  1  0
  8  9  2  0
 11 10  1  6
 11 12  1  0
 13 11  1  0
 13 14  1  1
 15 17  1  0
 15 13  1  0
 16 15  2  0
 17 21  1  0
 18 17  1  0
 18 19  1  0
 19 20  1  0
 21 20  1  0
 22 23  1  0
 21 22  1  6
 24 22  2  0
M  END
$$$$
