QTP.pdb
     RDKit          3D

 24 24  0  0  1  0  0  0  0  0999 V2000
   18.3270  -22.2040  -11.0371 N   0  0  0  0  0  0  0  0  0  0  0  0
   17.5480  -22.5085  -12.1971 C   0  0  0  0  0  0  0  0  0  0  0  0
   16.2976  -22.5542  -12.1893 O   0  0  0  0  0  0  0  0  0  0  0  0
   18.2877  -22.7769  -13.4505 C   0  0  0  0  0  0  0  0  0  0  0  0
   19.7817  -22.7400  -13.2515 C   0  0  0  0  0  0  0  0  0  0  0  0
   20.2715  -21.3315  -13.4752 C   0  0  2  0  0  0  0  0  0  0  0  0
   19.8116  -20.9449  -14.8126 N   0  0  0  0  0  0  0  0  0  0  0  0
   21.7464  -21.2057  -13.3718 C   0  0  0  0  0  0  0  0  0  0  0  0
   22.4014  -22.0045  -12.6433 O   0  0  0  0  0  0  0  0  0  0  0  0
   24.1251  -22.5040  -13.2578 C   0  0  0  0  0  0  0  0  0  0  0  0
   24.5172  -21.5233  -14.3193 C   0  0  1  0  0  0  0  0  0  0  0  0
   23.9153  -21.9961  -15.5118 O   0  0  0  0  0  0  0  0  0  0  0  0
   23.9666  -20.1552  -14.0181 C   0  0  2  0  0  0  0  0  0  0  0  0
   22.4964  -20.2264  -14.0501 N   0  0  0  0  0  0  0  0  0  0  0  0
   24.4234  -19.1895  -15.0193 C   0  0  0  0  0  0  0  0  0  0  0  0
   23.4887  -18.7515  -15.8072 O   0  0  0  0  0  0  0  0  0  0  0  0
   25.7063  -18.6787  -15.2360 N   0  0  0  0  0  0  0  0  0  0  0  0
   26.9209  -19.0068  -14.5483 C   0  0  0  0  0  0  0  0  0  0  0  0
   27.4780  -17.6023  -14.2675 C   0  0  0  0  0  0  0  0  0  0  0  0
   26.8766  -16.7060  -15.3313 C   0  0  0  0  0  0  0  0  0  0  0  0
   26.0465  -17.6435  -16.1820 C   0  0  1  0  0  0  0  0  0  0  0  0
   26.9157  -18.1399  -17.2900 C   0  0  0  0  0  0  0  0  0  0  0  0
   27.3364  -19.4587  -17.2743 O   0  0  0  0  0  0  0  0  0  0  0  0
   27.2957  -17.4228  -18.2528 O   0  0  0  0  0  0  0  0  0  0  0  0
  2  3  2  0
  2  1  1  0
  4  2  1  0
  5  4  1  0
  6  8  1  0
  6  5  1  0
  6  7  1  6
  8 14  1  0
  8  9  2  0
 11 10  1  1
 11 12  1  0
 13 11  1  0
 13 14  1  6
 15 17  1  0
 15 13  1  0
 16 15  2  0
 17 21  1  0
 18 17  1  0
 18 19  1  0
 19 20  1  0
 21 20  1  0
 22 23  1  0
 21 22  1  6
 24 22  2  0
M  END
$$$$
