QTP.pdb
     RDKit          3D

 24 24  0  0  1  0  0  0  0  0999 V2000
   20.2612  -14.0983  -18.1440 N   0  0  0  0  0  0  0  0  0  0  0  0
   19.1734  -14.8357  -17.5799 C   0  0  0  0  0  0  0  0  0  0  0  0
   19.1950  -16.0773  -17.4258 O   0  0  0  0  0  0  0  0  0  0  0  0
   17.9805  -14.0625  -17.1688 C   0  0  0  0  0  0  0  0  0  0  0  0
   18.1151  -12.5940  -17.4826 C   0  0  0  0  0  0  0  0  0  0  0  0
   19.1012  -11.9760  -16.5237 C   0  0  2  0  0  0  0  0  0  0  0  0
   18.7053  -12.4219  -15.1843 N   0  0  0  0  0  0  0  0  0  0  0  0
   19.1309  -10.4942  -16.5950 C   0  0  0  0  0  0  0  0  0  0  0  0
   19.3210   -9.9164  -17.7030 O   0  0  0  0  0  0  0  0  0  0  0  0
   17.5724   -6.2057  -14.9516 C   0  0  0  0  0  0  0  0  0  0  0  0
   17.6217   -7.7020  -14.9850 C   0  0  1  0  0  0  0  0  0  0  0  0
   16.5768   -8.0954  -15.8574 O   0  0  0  0  0  0  0  0  0  0  0  0
   18.9272   -8.1849  -15.5577 C   0  0  2  0  0  0  0  0  0  0  0  0
   18.9564   -9.6547  -15.4786 N   0  0  0  0  0  0  0  0  0  0  0  0
   20.0518   -7.6396  -14.7950 C   0  0  0  0  0  0  0  0  0  0  0  0
   20.3448   -8.3075  -13.7204 O   0  0  0  0  0  0  0  0  0  0  0  0
   20.8438   -6.5198  -15.0638 N   0  0  0  0  0  0  0  0  0  0  0  0
   20.7220   -5.5840  -16.1432 C   0  0  0  0  0  0  0  0  0  0  0  0
   22.1812   -5.5058  -16.6191 C   0  0  0  0  0  0  0  0  0  0  0  0
   23.0219   -5.8862  -15.4169 C   0  0  0  0  0  0  0  0  0  0  0  0
   22.0109   -6.1205  -14.3149 C   0  0  1  0  0  0  0  0  0  0  0  0
   21.8172   -4.8269  -13.5946 C   0  0  0  0  0  0  0  0  0  0  0  0
   22.7515   -4.4374  -12.6504 O   0  0  0  0  0  0  0  0  0  0  0  0
   20.8418   -4.0562  -13.7956 O   0  0  0  0  0  0  0  0  0  0  0  0
  2  3  2  0
  2  1  1  0
  4  2  1  0
  5  4  1  0
  6  8  1  0
  6  5  1  0
  6  7  1  1
  8 14  1  0
  8  9  2  0
 11 10  1  6
 11 12  1  0
 13 11  1  0
 13 14  1  1
 15 17  1  0
 15 13  1  0
 16 15  2  0
 17 21  1  0
 18 17  1  0
 18 19  1  0
 19 20  1  0
 21 20  1  0
 22 23  1  0
 21 22  1  6
 24 22  2  0
M  END
$$$$
