QTP.pdb
     RDKit          3D

 24 24  0  0  1  0  0  0  0  0999 V2000
   19.1467  -15.1200  -17.4679 N   0  0  0  0  0  0  0  0  0  0  0  0
   17.9248  -14.9816  -16.7377 C   0  0  0  0  0  0  0  0  0  0  0  0
   17.0852  -15.9028  -16.6275 O   0  0  0  0  0  0  0  0  0  0  0  0
   17.6729  -13.6735  -16.0932 C   0  0  0  0  0  0  0  0  0  0  0  0
   18.8010  -12.6989  -16.3180 C   0  0  0  0  0  0  0  0  0  0  0  0
   18.4568  -11.3889  -15.6551 C   0  0  2  0  0  0  0  0  0  0  0  0
   17.2172  -10.9238  -16.2851 N   0  0  0  0  0  0  0  0  0  0  0  0
   19.5272  -10.3703  -15.7900 C   0  0  0  0  0  0  0  0  0  0  0  0
   20.7082  -10.6399  -15.4294 O   0  0  0  0  0  0  0  0  0  0  0  0
   21.1047   -8.9077  -18.7042 C   0  0  0  0  0  0  0  0  0  0  0  0
   20.5022   -7.7622  -17.9511 C   0  0  1  0  0  0  0  0  0  0  0  0
   19.1972   -7.6062  -18.4806 O   0  0  0  0  0  0  0  0  0  0  0  0
   20.3860   -8.0834  -16.4852 C   0  0  2  0  0  0  0  0  0  0  0  0
   19.3157   -9.0789  -16.3090 N   0  0  0  0  0  0  0  0  0  0  0  0
   20.0522   -6.8782  -15.7237 C   0  0  0  0  0  0  0  0  0  0  0  0
   18.7896   -6.7510  -15.4478 O   0  0  0  0  0  0  0  0  0  0  0  0
   20.8939   -5.8651  -15.2558 N   0  0  0  0  0  0  0  0  0  0  0  0
   22.3154   -5.7518  -15.4048 C   0  0  0  0  0  0  0  0  0  0  0  0
   22.7263   -5.4043  -13.9652 C   0  0  0  0  0  0  0  0  0  0  0  0
   21.5055   -4.7621  -13.3377 C   0  0  0  0  0  0  0  0  0  0  0  0
   20.4824   -4.7388  -14.4531 C   0  0  1  0  0  0  0  0  0  0  0  0
   20.6245   -3.4377  -15.1719 C   0  0  0  0  0  0  0  0  0  0  0  0
   20.1222   -2.2884  -14.5862 O   0  0  0  0  0  0  0  0  0  0  0  0
   21.1816   -3.3188  -16.2949 O   0  0  0  0  0  0  0  0  0  0  0  0
  2  3  2  0
  2  1  1  0
  4  2  1  0
  5  4  1  0
  6  8  1  0
  6  5  1  0
  6  7  1  6
  8 14  1  0
  8  9  2  0
 11 10  1  6
 11 12  1  0
 13 11  1  0
 13 14  1  6
 15 17  1  0
 15 13  1  0
 16 15  2  0
 17 21  1  0
 18 17  1  0
 18 19  1  0
 19 20  1  0
 21 20  1  0
 22 23  1  0
 21 22  1  6
 24 22  2  0
M  END
$$$$
