QTP.pdb
     RDKit          3D

 24 24  0  0  1  0  0  0  0  0999 V2000
   14.3200  -10.7585  -17.1554 N   0  0  0  0  0  0  0  0  0  0  0  0
   15.0245  -11.9915  -17.3242 C   0  0  0  0  0  0  0  0  0  0  0  0
   14.5823  -12.9453  -18.0025 O   0  0  0  0  0  0  0  0  0  0  0  0
   16.3372  -12.1117  -16.6513 C   0  0  0  0  0  0  0  0  0  0  0  0
   16.6774  -10.8879  -15.8392 C   0  0  0  0  0  0  0  0  0  0  0  0
   18.1492  -10.5949  -15.9868 C   0  0  2  0  0  0  0  0  0  0  0  0
   18.8528  -11.8167  -15.5843 N   0  0  0  0  0  0  0  0  0  0  0  0
   18.5966   -9.4396  -15.1703 C   0  0  0  0  0  0  0  0  0  0  0  0
   18.6661   -9.5411  -13.9123 O   0  0  0  0  0  0  0  0  0  0  0  0
   21.7086   -8.0629  -14.9375 C   0  0  0  0  0  0  0  0  0  0  0  0
   20.6076   -7.5310  -14.0731 C   0  0  1  0  0  0  0  0  0  0  0  0
   21.1603   -6.4114  -13.4032 O   0  0  0  0  0  0  0  0  0  0  0  0
   19.4470   -7.0608  -14.9083 C   0  0  2  0  0  0  0  0  0  0  0  0
   18.9626   -8.1938  -15.7141 N   0  0  0  0  0  0  0  0  0  0  0  0
   19.8664   -5.9794  -15.8018 C   0  0  0  0  0  0  0  0  0  0  0  0
   20.4960   -6.3770  -16.8658 O   0  0  0  0  0  0  0  0  0  0  0  0
   19.6799   -4.6004  -15.6712 N   0  0  0  0  0  0  0  0  0  0  0  0
   19.1212   -3.8805  -14.5642 C   0  0  0  0  0  0  0  0  0  0  0  0
   18.1409   -2.9494  -15.2950 C   0  0  0  0  0  0  0  0  0  0  0  0
   18.6903   -2.8024  -16.6997 C   0  0  0  0  0  0  0  0  0  0  0  0
   19.9663   -3.6168  -16.6874 C   0  0  1  0  0  0  0  0  0  0  0  0
   21.0837   -2.7032  -16.3050 C   0  0  0  0  0  0  0  0  0  0  0  0
   21.4972   -1.7348  -17.2037 O   0  0  0  0  0  0  0  0  0  0  0  0
   21.6828   -2.7594  -15.1988 O   0  0  0  0  0  0  0  0  0  0  0  0
  2  3  2  0
  2  1  1  0
  4  2  1  0
  5  4  1  0
  6  8  1  0
  6  5  1  0
  6  7  1  1
  8 14  1  0
  8  9  2  0
 11 10  1  6
 11 12  1  0
 13 11  1  0
 13 14  1  6
 15 17  1  0
 15 13  1  0
 16 15  2  0
 17 21  1  0
 18 17  1  0
 18 19  1  0
 19 20  1  0
 21 20  1  0
 22 23  1  0
 21 22  1  1
 24 22  2  0
M  END
$$$$
