QTP.pdb
     RDKit          3D

 24 24  0  0  1  0  0  0  0  0999 V2000
   18.0754  -15.4421  -18.7400 N   0  0  0  0  0  0  0  0  0  0  0  0
   17.7517  -15.8089  -17.3962 C   0  0  0  0  0  0  0  0  0  0  0  0
   17.1383  -16.8591  -17.1020 O   0  0  0  0  0  0  0  0  0  0  0  0
   18.1779  -14.8798  -16.3259 C   0  0  0  0  0  0  0  0  0  0  0  0
   18.9550  -13.7055  -16.8645 C   0  0  0  0  0  0  0  0  0  0  0  0
   19.2479  -12.7513  -15.7342 C   0  0  2  0  0  0  0  0  0  0  0  0
   17.9617  -12.4756  -15.0866 N   0  0  0  0  0  0  0  0  0  0  0  0
   19.8866  -11.4912  -16.1880 C   0  0  0  0  0  0  0  0  0  0  0  0
   21.0263  -11.5189  -16.7341 O   0  0  0  0  0  0  0  0  0  0  0  0
   18.7673   -9.2264  -18.8342 C   0  0  0  0  0  0  0  0  0  0  0  0
   18.8529   -8.4074  -17.5834 C   0  0  1  0  0  0  0  0  0  0  0  0
   17.5691   -8.4894  -16.9893 O   0  0  0  0  0  0  0  0  0  0  0  0
   19.8584   -8.9897  -16.6266 C   0  0  2  0  0  0  0  0  0  0  0  0
   19.2948  -10.2215  -16.0497 N   0  0  0  0  0  0  0  0  0  0  0  0
   20.1457   -8.0413  -15.5488 C   0  0  0  0  0  0  0  0  0  0  0  0
   19.5821   -8.3311  -14.4153 O   0  0  0  0  0  0  0  0  0  0  0  0
   20.9355   -6.8884  -15.5712 N   0  0  0  0  0  0  0  0  0  0  0  0
   21.7098   -6.3630  -16.6576 C   0  0  0  0  0  0  0  0  0  0  0  0
   23.0397   -6.0707  -15.9449 C   0  0  0  0  0  0  0  0  0  0  0  0
   22.6836   -5.8706  -14.4855 C   0  0  0  0  0  0  0  0  0  0  0  0
   21.1774   -6.0172  -14.4465 C   0  0  1  0  0  0  0  0  0  0  0  0
   20.5846   -4.6594  -14.6327 C   0  0  0  0  0  0  0  0  0  0  0  0
   20.5763   -3.7780  -13.5654 O   0  0  0  0  0  0  0  0  0  0  0  0
   20.0840   -4.2599  -15.7169 O   0  0  0  0  0  0  0  0  0  0  0  0
  2  3  2  0
  2  1  1  0
  4  2  1  0
  5  4  1  0
  6  8  1  0
  6  5  1  0
  6  7  1  6
  8 14  1  0
  8  9  2  0
 11 10  1  6
 11 12  1  0
 13 11  1  0
 13 14  1  1
 15 17  1  0
 15 13  1  0
 16 15  2  0
 17 21  1  0
 18 17  1  0
 18 19  1  0
 19 20  1  0
 21 20  1  0
 22 23  1  0
 21 22  1  6
 24 22  2  0
M  END
$$$$
