QTP.pdb
     RDKit          3D

 24 24  0  0  1  0  0  0  0  0999 V2000
   19.2246  -23.9192  -11.6557 N   0  0  0  0  0  0  0  0  0  0  0  0
   18.2357  -23.1262  -12.3178 C   0  0  0  0  0  0  0  0  0  0  0  0
   17.0726  -23.5293  -12.5421 O   0  0  0  0  0  0  0  0  0  0  0  0
   18.6402  -21.7680  -12.7444 C   0  0  0  0  0  0  0  0  0  0  0  0
   20.0750  -21.4631  -12.3958 C   0  0  0  0  0  0  0  0  0  0  0  0
   20.7987  -21.0194  -13.6420 C   0  0  2  0  0  0  0  0  0  0  0  0
   20.8776  -22.1971  -14.5118 N   0  0  0  0  0  0  0  0  0  0  0  0
   22.1532  -20.4799  -13.3666 C   0  0  0  0  0  0  0  0  0  0  0  0
   22.6300  -20.5299  -12.1971 O   0  0  0  0  0  0  0  0  0  0  0  0
   24.5970  -21.1999  -12.3006 C   0  0  0  0  0  0  0  0  0  0  0  0
   25.1131  -20.7711  -13.6393 C   0  0  1  0  0  0  0  0  0  0  0  0
   24.8222  -21.8439  -14.5180 O   0  0  0  0  0  0  0  0  0  0  0  0
   24.3888  -19.5455  -14.1281 C   0  0  2  0  0  0  0  0  0  0  0  0
   22.9757  -19.8953  -14.3482 N   0  0  0  0  0  0  0  0  0  0  0  0
   24.9704  -19.0775  -15.3875 C   0  0  0  0  0  0  0  0  0  0  0  0
   24.2458  -19.3236  -16.4368 O   0  0  0  0  0  0  0  0  0  0  0  0
   26.1768  -18.4079  -15.6108 N   0  0  0  0  0  0  0  0  0  0  0  0
   27.1816  -18.0451  -14.6545 C   0  0  0  0  0  0  0  0  0  0  0  0
   27.4329  -16.5804  -15.0465 C   0  0  0  0  0  0  0  0  0  0  0  0
   27.0360  -16.4761  -16.5053 C   0  0  0  0  0  0  0  0  0  0  0  0
   26.6206  -17.8828  -16.8796 C   0  0  1  0  0  0  0  0  0  0  0  0
   27.8282  -18.5881  -17.4032 C   0  0  0  0  0  0  0  0  0  0  0  0
   28.3824  -18.1717  -18.6015 O   0  0  0  0  0  0  0  0  0  0  0  0
   28.3825  -19.5529  -16.8137 O   0  0  0  0  0  0  0  0  0  0  0  0
  2  3  2  0
  2  1  1  0
  4  2  1  0
  5  4  1  0
  6  8  1  0
  6  5  1  0
  6  7  1  6
  8 14  1  0
  8  9  2  0
 11 10  1  1
 11 12  1  0
 13 11  1  0
 13 14  1  6
 15 17  1  0
 15 13  1  0
 16 15  2  0
 17 21  1  0
 18 17  1  0
 18 19  1  0
 19 20  1  0
 21 20  1  0
 22 23  1  0
 21 22  1  1
 24 22  2  0
M  END
$$$$
