QTP.pdb
     RDKit          3D

 24 24  0  0  1  0  0  0  0  0999 V2000
   14.5060   -9.5915  -16.9147 N   0  0  0  0  0  0  0  0  0  0  0  0
   14.5334  -10.5912  -17.9369 C   0  0  0  0  0  0  0  0  0  0  0  0
   13.5269  -10.9129  -18.6070 O   0  0  0  0  0  0  0  0  0  0  0  0
   15.8307  -11.2573  -18.1893 C   0  0  0  0  0  0  0  0  0  0  0  0
   16.9248  -10.7361  -17.2925 C   0  0  0  0  0  0  0  0  0  0  0  0
   18.2296  -11.3824  -17.6845 C   0  0  2  0  0  0  0  0  0  0  0  0
   18.0203  -12.8292  -17.5734 N   0  0  0  0  0  0  0  0  0  0  0  0
   19.3692  -10.9514  -16.8375 C   0  0  0  0  0  0  0  0  0  0  0  0
   19.5840  -11.5170  -15.7278 O   0  0  0  0  0  0  0  0  0  0  0  0
   23.7307   -8.8219  -16.2717 C   0  0  0  0  0  0  0  0  0  0  0  0
   22.6022   -9.3304  -17.1146 C   0  0  1  0  0  0  0  0  0  0  0  0
   22.9844  -10.6362  -17.5102 O   0  0  0  0  0  0  0  0  0  0  0  0
   21.3327   -9.4286  -16.3119 C   0  0  2  0  0  0  0  0  0  0  0  0
   20.2607   -9.9214  -17.1926 N   0  0  0  0  0  0  0  0  0  0  0  0
   20.9580   -8.1141  -15.7870 C   0  0  0  0  0  0  0  0  0  0  0  0
   20.3872   -7.3336  -16.6538 O   0  0  0  0  0  0  0  0  0  0  0  0
   21.1230   -7.5950  -14.4998 N   0  0  0  0  0  0  0  0  0  0  0  0
   21.6907   -8.2356  -13.3496 C   0  0  0  0  0  0  0  0  0  0  0  0
   20.6350   -7.8982  -12.2850 C   0  0  0  0  0  0  0  0  0  0  0  0
   19.9555   -6.6344  -12.7723 C   0  0  0  0  0  0  0  0  0  0  0  0
   20.6788   -6.2950  -14.0581 C   0  0  1  0  0  0  0  0  0  0  0  0
   21.8125   -5.3860  -13.7143 C   0  0  0  0  0  0  0  0  0  0  0  0
   21.5448   -4.0602  -13.4194 O   0  0  0  0  0  0  0  0  0  0  0  0
   23.0155   -5.7558  -13.6753 O   0  0  0  0  0  0  0  0  0  0  0  0
  2  3  2  0
  2  1  1  0
  4  2  1  0
  5  4  1  0
  6  8  1  0
  6  5  1  0
  6  7  1  1
  8 14  1  0
  8  9  2  0
 11 10  1  1
 11 12  1  0
 13 11  1  0
 13 14  1  6
 15 17  1  0
 15 13  1  0
 16 15  2  0
 17 21  1  0
 18 17  1  0
 18 19  1  0
 19 20  1  0
 21 20  1  0
 22 23  1  0
 21 22  1  1
 24 22  2  0
M  END
$$$$
