HSL.pdb
     RDKit          3D

 25 25  0  0  1  0  0  0  0  0999 V2000
   17.6219  -12.1525  -15.5025 N   0  0  0  0  0  0  0  0  0  0  0  0
   18.5645  -11.3752  -16.2773 C   0  0  1  0  0  0  0  0  0  0  0  0
   17.8056  -10.5692  -17.3140 C   0  0  0  0  0  0  0  0  0  0  0  0
   17.1458  -11.4826  -18.2708 C   0  0  0  0  0  0  0  0  0  0  0  0
   17.7786  -12.2818  -19.2140 C   0  0  0  0  0  0  0  0  0  0  0  0
   16.8255  -12.9654  -19.9076 N   0  0  0  0  0  0  0  0  0  0  0  0
   15.6464  -12.6005  -19.4098 C   0  0  0  0  0  0  0  0  0  0  0  0
   15.8313  -11.7055  -18.4211 N   0  0  0  0  0  0  0  0  0  0  0  0
   19.4272  -10.4991  -15.4835 C   0  0  0  0  0  0  0  0  0  0  0  0
   18.8312   -9.8360  -14.5581 O   0  0  0  0  0  0  0  0  0  0  0  0
   23.4189  -10.0814  -15.9334 O   0  0  0  0  0  0  0  0  0  0  0  0
   22.9436   -9.9212  -14.6322 C   0  0  0  0  0  0  0  0  0  0  0  0
   21.5138   -9.4176  -14.7249 C   0  0  2  0  0  0  0  0  0  0  0  0
   20.8064  -10.3053  -15.6161 N   0  0  0  0  0  0  0  0  0  0  0  0
   21.4438   -8.0199  -15.1657 C   0  0  0  0  0  0  0  0  0  0  0  0
   21.0272   -7.7073  -16.3391 O   0  0  0  0  0  0  0  0  0  0  0  0
   19.7081   -3.6686  -17.1300 C   0  0  0  0  0  0  0  0  0  0  0  0
   20.4135   -3.7701  -15.7936 C   0  0  1  0  0  0  0  0  0  0  0  0
   19.6152   -2.9430  -14.7909 C   0  0  0  0  0  0  0  0  0  0  0  0
   20.4904   -5.1551  -15.2547 C   0  0  0  0  0  0  0  0  0  0  0  0
   21.8489   -5.5712  -14.7705 C   0  0  2  0  0  0  0  0  0  0  0  0
   21.8354   -6.9593  -14.3107 N   0  0  0  0  0  0  0  0  0  0  0  0
   22.4014   -4.6827  -13.7086 C   0  0  0  0  0  0  0  0  0  0  0  0
   23.0775   -3.5082  -13.9630 O   0  0  0  0  0  0  0  0  0  0  0  0
   22.2556   -5.0030  -12.4791 O   0  0  0  0  0  0  0  0  0  0  0  0
  2  1  1  1
  3  2  1  0
  4  3  1  0
  5  4  2  0
  6  5  1  0
  7  6  1  0
  7  8  2  0
  8  4  1  0
  9  2  1  0
  9 10  2  0
 12 11  1  0
 13 12  1  6
 13 14  1  0
 14  9  1  0
 15 13  1  0
 16 15  2  0
 18 19  1  1
 18 17  1  0
 20 18  1  0
 21 22  1  0
 21 20  1  1
 22 15  1  0
 23 21  1  0
 24 23  1  0
 25 23  2  0
M  END
$$$$
