HSL.pdb
     RDKit          3D

 25 25  0  0  1  0  0  0  0  0999 V2000
   19.6859  -15.1626  -18.9076 N   0  0  0  0  0  0  0  0  0  0  0  0
   19.2357  -14.2378  -17.8902 C   0  0  1  0  0  0  0  0  0  0  0  0
   19.3653  -14.8977  -16.5307 C   0  0  0  0  0  0  0  0  0  0  0  0
   18.4063  -16.0178  -16.4265 C   0  0  0  0  0  0  0  0  0  0  0  0
   17.0383  -15.9112  -16.2125 C   0  0  0  0  0  0  0  0  0  0  0  0
   16.5108  -17.1668  -16.1675 N   0  0  0  0  0  0  0  0  0  0  0  0
   17.5181  -18.0178  -16.3474 C   0  0  0  0  0  0  0  0  0  0  0  0
   18.6659  -17.3318  -16.5046 N   0  0  0  0  0  0  0  0  0  0  0  0
   19.9232  -12.9459  -17.8961 C   0  0  0  0  0  0  0  0  0  0  0  0
   21.2045  -13.0079  -17.9727 O   0  0  0  0  0  0  0  0  0  0  0  0
   19.1323   -9.8367  -19.9270 O   0  0  0  0  0  0  0  0  0  0  0  0
   19.3483   -9.4195  -18.6141 C   0  0  0  0  0  0  0  0  0  0  0  0
   20.1756  -10.4893  -17.9231 C   0  0  2  0  0  0  0  0  0  0  0  0
   19.3519  -11.6705  -17.8293 N   0  0  0  0  0  0  0  0  0  0  0  0
   20.6670  -10.0520  -16.6116 C   0  0  0  0  0  0  0  0  0  0  0  0
   19.9798  -10.2361  -15.5430 O   0  0  0  0  0  0  0  0  0  0  0  0
   25.9582  -10.5938  -15.3355 C   0  0  0  0  0  0  0  0  0  0  0  0
   24.4465  -10.5010  -15.3303 C   0  0  1  0  0  0  0  0  0  0  0  0
   23.9395  -11.3592  -14.1758 C   0  0  0  0  0  0  0  0  0  0  0  0
   23.9266   -9.1238  -15.1124 C   0  0  0  0  0  0  0  0  0  0  0  0
   22.4321   -8.9957  -15.1675 C   0  0  2  0  0  0  0  0  0  0  0  0
   21.9219   -9.4072  -16.4748 N   0  0  0  0  0  0  0  0  0  0  0  0
   21.9376   -7.6308  -14.8286 C   0  0  0  0  0  0  0  0  0  0  0  0
   21.7361   -7.1836  -13.5398 O   0  0  0  0  0  0  0  0  0  0  0  0
   21.6757   -6.8033  -15.7678 O   0  0  0  0  0  0  0  0  0  0  0  0
  2  1  1  6
  3  2  1  0
  4  3  1  0
  5  4  2  0
  6  5  1  0
  7  6  1  0
  7  8  2  0
  8  4  1  0
  9  2  1  0
  9 10  2  0
 12 11  1  0
 13 12  1  1
 13 14  1  0
 14  9  1  0
 15 13  1  0
 16 15  2  0
 18 19  1  1
 18 17  1  0
 20 18  1  0
 21 22  1  0
 21 20  1  6
 22 15  1  0
 23 21  1  0
 24 23  1  0
 25 23  2  0
M  END
$$$$
