HSL.pdb
     RDKit          3D

 25 25  0  0  1  0  0  0  0  0999 V2000
   20.4608  -16.0526  -18.8470 N   0  0  0  0  0  0  0  0  0  0  0  0
   20.1995  -15.3117  -17.6321 C   0  0  1  0  0  0  0  0  0  0  0  0
   20.9073  -15.9927  -16.4764 C   0  0  0  0  0  0  0  0  0  0  0  0
   20.4115  -17.3781  -16.3346 C   0  0  0  0  0  0  0  0  0  0  0  0
   19.1148  -17.7581  -16.0138 C   0  0  0  0  0  0  0  0  0  0  0  0
   19.0643  -19.1191  -15.9681 N   0  0  0  0  0  0  0  0  0  0  0  0
   20.2868  -19.5627  -16.2507 C   0  0  0  0  0  0  0  0  0  0  0  0
   21.1060  -18.5176  -16.4733 N   0  0  0  0  0  0  0  0  0  0  0  0
   20.5687  -13.8968  -17.6919 C   0  0  0  0  0  0  0  0  0  0  0  0
   21.8220  -13.6643  -17.8548 O   0  0  0  0  0  0  0  0  0  0  0  0
   18.2719  -10.6513  -16.7835 O   0  0  0  0  0  0  0  0  0  0  0  0
   19.0376  -10.5296  -17.9426 C   0  0  0  0  0  0  0  0  0  0  0  0
   20.2356  -11.4521  -17.8000 C   0  0  2  0  0  0  0  0  0  0  0  0
   19.7241  -12.7857  -17.5939 N   0  0  0  0  0  0  0  0  0  0  0  0
   21.1359  -11.0319  -16.7204 C   0  0  0  0  0  0  0  0  0  0  0  0
   20.9970  -11.4720  -15.5224 O   0  0  0  0  0  0  0  0  0  0  0  0
   25.4041  -10.4822  -13.8210 C   0  0  0  0  0  0  0  0  0  0  0  0
   25.4316   -9.5981  -15.0505 C   0  0  1  0  0  0  0  0  0  0  0  0
   26.8356   -9.6797  -15.6412 C   0  0  0  0  0  0  0  0  0  0  0  0
   24.4834  -10.0180  -16.1177 C   0  0  0  0  0  0  0  0  0  0  0  0
   23.0509   -9.6405  -15.8756 C   0  0  2  0  0  0  0  0  0  0  0  0
   22.1952  -10.1210  -16.9598 N   0  0  0  0  0  0  0  0  0  0  0  0
   22.8463   -8.1785  -15.6680 C   0  0  0  0  0  0  0  0  0  0  0  0
   22.7842   -7.5789  -14.4278 O   0  0  0  0  0  0  0  0  0  0  0  0
   22.7171   -7.4094  -16.6814 O   0  0  0  0  0  0  0  0  0  0  0  0
  2  1  1  6
  3  2  1  0
  4  3  1  0
  5  4  2  0
  6  5  1  0
  7  6  1  0
  7  8  2  0
  8  4  1  0
  9  2  1  0
  9 10  2  0
 12 11  1  0
 13 12  1  1
 13 14  1  0
 14  9  1  0
 15 13  1  0
 16 15  2  0
 18 19  1  6
 18 17  1  0
 20 18  1  0
 21 22  1  0
 21 20  1  6
 22 15  1  0
 23 21  1  0
 24 23  1  0
 25 23  2  0
M  END
$$$$
