HSL.pdb
     RDKit          3D

 25 25  0  0  1  0  0  0  0  0999 V2000
   22.6813  -25.3010  -17.3368 N   0  0  0  0  0  0  0  0  0  0  0  0
   23.0814  -24.9639  -15.9879 C   0  0  1  0  0  0  0  0  0  0  0  0
   24.4554  -25.5477  -15.7199 C   0  0  0  0  0  0  0  0  0  0  0  0
   24.4304  -27.0078  -15.9494 C   0  0  0  0  0  0  0  0  0  0  0  0
   25.2268  -27.7132  -16.8420 C   0  0  0  0  0  0  0  0  0  0  0  0
   24.8938  -29.0324  -16.7658 N   0  0  0  0  0  0  0  0  0  0  0  0
   23.9260  -29.1367  -15.8583 C   0  0  0  0  0  0  0  0  0  0  0  0
   23.6406  -27.9187  -15.3607 N   0  0  0  0  0  0  0  0  0  0  0  0
   23.0709  -23.5309  -15.6911 C   0  0  0  0  0  0  0  0  0  0  0  0
   23.7182  -23.1854  -14.6361 O   0  0  0  0  0  0  0  0  0  0  0  0
   22.6915  -18.9361  -16.6687 O   0  0  0  0  0  0  0  0  0  0  0  0
   22.5119  -20.2382  -17.1344 C   0  0  0  0  0  0  0  0  0  0  0  0
   22.4454  -21.1532  -15.9242 C   0  0  2  0  0  0  0  0  0  0  0  0
   22.4457  -22.5101  -16.4154 N   0  0  0  0  0  0  0  0  0  0  0  0
   21.2807  -20.8717  -15.0773 C   0  0  0  0  0  0  0  0  0  0  0  0
   20.1223  -21.3536  -15.3491 O   0  0  0  0  0  0  0  0  0  0  0  0
   21.8035  -19.6407   -9.5604 C   0  0  0  0  0  0  0  0  0  0  0  0
   21.2209  -20.2247  -10.8307 C   0  0  1  0  0  0  0  0  0  0  0  0
   20.0781  -21.1505  -10.4263 C   0  0  0  0  0  0  0  0  0  0  0  0
   20.6529  -19.2085  -11.7577 C   0  0  0  0  0  0  0  0  0  0  0  0
   20.2278  -19.7400  -13.0955 C   0  0  2  0  0  0  0  0  0  0  0  0
   21.3908  -20.0542  -13.9246 N   0  0  0  0  0  0  0  0  0  0  0  0
   19.3016  -18.8326  -13.8309 C   0  0  0  0  0  0  0  0  0  0  0  0
   17.9408  -18.7818  -13.6139 O   0  0  0  0  0  0  0  0  0  0  0  0
   19.7677  -18.0429  -14.7224 O   0  0  0  0  0  0  0  0  0  0  0  0
  2  1  1  6
  3  2  1  0
  4  3  1  0
  5  4  2  0
  6  5  1  0
  7  6  1  0
  7  8  2  0
  8  4  1  0
  9  2  1  0
  9 10  2  0
 12 11  1  0
 13 12  1  6
 13 14  1  0
 14  9  1  0
 15 13  1  0
 16 15  2  0
 18 19  1  1
 18 17  1  0
 20 18  1  0
 21 22  1  0
 21 20  1  1
 22 15  1  0
 23 21  1  0
 24 23  1  0
 25 23  2  0
M  END
$$$$
