HSL.pdb
     RDKit          3D

 25 25  0  0  1  0  0  0  0  0999 V2000
   17.7393  -14.4062  -18.0837 N   0  0  0  0  0  0  0  0  0  0  0  0
   17.6070  -13.4396  -17.0154 C   0  0  1  0  0  0  0  0  0  0  0  0
   17.8749  -14.1278  -15.6907 C   0  0  0  0  0  0  0  0  0  0  0  0
   16.8903  -15.2107  -15.4831 C   0  0  0  0  0  0  0  0  0  0  0  0
   15.5479  -15.0511  -15.1652 C   0  0  0  0  0  0  0  0  0  0  0  0
   14.9840  -16.2860  -15.0471 N   0  0  0  0  0  0  0  0  0  0  0  0
   15.9449  -17.1758  -15.2837 C   0  0  0  0  0  0  0  0  0  0  0  0
   17.0989  -16.5345  -15.5479 N   0  0  0  0  0  0  0  0  0  0  0  0
   18.4588  -12.2579  -17.1560 C   0  0  0  0  0  0  0  0  0  0  0  0
   19.6980  -12.5013  -17.3937 O   0  0  0  0  0  0  0  0  0  0  0  0
   17.5116   -8.4038  -16.2919 O   0  0  0  0  0  0  0  0  0  0  0  0
   18.2461   -8.5698  -17.4657 C   0  0  0  0  0  0  0  0  0  0  0  0
   19.0325   -9.8625  -17.3357 C   0  0  2  0  0  0  0  0  0  0  0  0
   18.0821  -10.9137  -17.0630 N   0  0  0  0  0  0  0  0  0  0  0  0
   20.0749   -9.7786  -16.3067 C   0  0  0  0  0  0  0  0  0  0  0  0
   19.8658  -10.1829  -15.1063 O   0  0  0  0  0  0  0  0  0  0  0  0
   24.7114  -10.7146  -13.9998 C   0  0  0  0  0  0  0  0  0  0  0  0
   24.8181   -9.6973  -15.1168 C   0  0  1  0  0  0  0  0  0  0  0  0
   26.0903  -10.0083  -15.8988 C   0  0  0  0  0  0  0  0  0  0  0  0
   23.6884   -9.7418  -16.0844 C   0  0  0  0  0  0  0  0  0  0  0  0
   22.4000   -9.1600  -15.5798 C   0  0  2  0  0  0  0  0  0  0  0  0
   21.3552   -9.2455  -16.5996 N   0  0  0  0  0  0  0  0  0  0  0  0
   22.5295   -7.7573  -15.0922 C   0  0  0  0  0  0  0  0  0  0  0  0
   22.8495   -7.4206  -13.7939 O   0  0  0  0  0  0  0  0  0  0  0  0
   22.3378   -6.7872  -15.9032 O   0  0  0  0  0  0  0  0  0  0  0  0
  2  1  1  6
  3  2  1  0
  4  3  1  0
  5  4  2  0
  6  5  1  0
  7  6  1  0
  7  8  2  0
  8  4  1  0
  9  2  1  0
  9 10  2  0
 12 11  1  0
 13 12  1  1
 13 14  1  0
 14  9  1  0
 15 13  1  0
 16 15  2  0
 18 19  1  6
 18 17  1  0
 20 18  1  0
 21 22  1  0
 21 20  1  6
 22 15  1  0
 23 21  1  0
 24 23  1  0
 25 23  2  0
M  END
$$$$
