HSL.pdb
     RDKit          3D

 25 25  0  0  1  0  0  0  0  0999 V2000
   34.2696  -31.7867  -16.5989 N   0  0  0  0  0  0  0  0  0  0  0  0
   33.9825  -33.0865  -16.0321 C   0  0  1  0  0  0  0  0  0  0  0  0
   34.0773  -32.9981  -14.5210 C   0  0  0  0  0  0  0  0  0  0  0  0
   35.4674  -32.6875  -14.1257 C   0  0  0  0  0  0  0  0  0  0  0  0
   36.4712  -33.6091  -13.8582 C   0  0  0  0  0  0  0  0  0  0  0  0
   37.6011  -32.9278  -13.5177 N   0  0  0  0  0  0  0  0  0  0  0  0
   37.3045  -31.6316  -13.5733 C   0  0  0  0  0  0  0  0  0  0  0  0
   36.0181  -31.4783  -13.9397 N   0  0  0  0  0  0  0  0  0  0  0  0
   32.6917  -33.6507  -16.4287 C   0  0  0  0  0  0  0  0  0  0  0  0
   31.7264  -32.8062  -16.5091 O   0  0  0  0  0  0  0  0  0  0  0  0
   31.9178  -37.5481  -17.4103 O   0  0  0  0  0  0  0  0  0  0  0  0
   31.2665  -36.5470  -18.1301 C   0  0  0  0  0  0  0  0  0  0  0  0
   31.0844  -35.3589  -17.2018 C   0  0  2  0  0  0  0  0  0  0  0  0
   32.3947  -34.9851  -16.7263 N   0  0  0  0  0  0  0  0  0  0  0  0
   30.1587  -35.6497  -16.1012 C   0  0  0  0  0  0  0  0  0  0  0  0
   30.5853  -35.9546  -14.9294 O   0  0  0  0  0  0  0  0  0  0  0  0
   25.9480  -33.5008  -12.8058 C   0  0  0  0  0  0  0  0  0  0  0  0
   26.4112  -34.8039  -13.4232 C   0  0  1  0  0  0  0  0  0  0  0  0
   25.1658  -35.5919  -13.8167 C   0  0  0  0  0  0  0  0  0  0  0  0
   27.2272  -34.6320  -14.6558 C   0  0  0  0  0  0  0  0  0  0  0  0
   27.8256  -35.8965  -15.1998 C   0  0  2  0  0  0  0  0  0  0  0  0
   28.7547  -35.6056  -16.2911 N   0  0  0  0  0  0  0  0  0  0  0  0
   26.8105  -36.8952  -15.6408 C   0  0  0  0  0  0  0  0  0  0  0  0
   26.3585  -37.9323  -14.8524 O   0  0  0  0  0  0  0  0  0  0  0  0
   26.3112  -36.8110  -16.8151 O   0  0  0  0  0  0  0  0  0  0  0  0
  2  1  1  6
  3  2  1  0
  4  3  1  0
  5  4  2  0
  6  5  1  0
  7  6  1  0
  7  8  2  0
  8  4  1  0
  9  2  1  0
  9 10  2  0
 12 11  1  0
 13 12  1  6
 13 14  1  0
 14  9  1  0
 15 13  1  0
 16 15  2  0
 18 19  1  6
 18 17  1  0
 20 18  1  0
 21 22  1  0
 21 20  1  6
 22 15  1  0
 23 21  1  0
 24 23  1  0
 25 23  2  0
M  END
$$$$
