HSL.pdb
     RDKit          3D

 25 25  0  0  1  0  0  0  0  0999 V2000
   17.9390  -10.8667  -16.6858 N   0  0  0  0  0  0  0  0  0  0  0  0
   18.8160   -9.8514  -17.2273 C   0  0  1  0  0  0  0  0  0  0  0  0
   18.1430   -9.2037  -18.4222 C   0  0  0  0  0  0  0  0  0  0  0  0
   17.9712  -10.2014  -19.4994 C   0  0  0  0  0  0  0  0  0  0  0  0
   16.7679  -10.5981  -20.0680 C   0  0  0  0  0  0  0  0  0  0  0  0
   17.0302  -11.5410  -21.0161 N   0  0  0  0  0  0  0  0  0  0  0  0
   18.3489  -11.7197  -21.0315 C   0  0  0  0  0  0  0  0  0  0  0  0
   18.9242  -10.9144  -20.1186 N   0  0  0  0  0  0  0  0  0  0  0  0
   19.2329   -8.8318  -16.2638 C   0  0  0  0  0  0  0  0  0  0  0  0
   18.2828   -8.3082  -15.5750 O   0  0  0  0  0  0  0  0  0  0  0  0
   22.8252   -8.4486  -14.7184 O   0  0  0  0  0  0  0  0  0  0  0  0
   21.7438   -7.9282  -14.0083 C   0  0  0  0  0  0  0  0  0  0  0  0
   20.7671   -7.3509  -15.0179 C   0  0  2  0  0  0  0  0  0  0  0  0
   20.5293   -8.3702  -16.0115 N   0  0  0  0  0  0  0  0  0  0  0  0
   21.2554   -6.1017  -15.6128 C   0  0  0  0  0  0  0  0  0  0  0  0
   21.6605   -6.0525  -16.8300 O   0  0  0  0  0  0  0  0  0  0  0  0
   21.5783   -2.1829  -18.8510 C   0  0  0  0  0  0  0  0  0  0  0  0
   21.2923   -2.0508  -17.3696 C   0  0  1  0  0  0  0  0  0  0  0  0
   20.0869   -1.1285  -17.2169 C   0  0  0  0  0  0  0  0  0  0  0  0
   20.9462   -3.3361  -16.7041 C   0  0  0  0  0  0  0  0  0  0  0  0
   21.7358   -3.6392  -15.4642 C   0  0  2  0  0  0  0  0  0  0  0  0
   21.2993   -4.8992  -14.8637 N   0  0  0  0  0  0  0  0  0  0  0  0
   21.6984   -2.5462  -14.4511 C   0  0  0  0  0  0  0  0  0  0  0  0
   22.5990   -1.5028  -14.4116 O   0  0  0  0  0  0  0  0  0  0  0  0
   20.7887   -2.5499  -13.5524 O   0  0  0  0  0  0  0  0  0  0  0  0
  2  1  1  1
  3  2  1  0
  4  3  1  0
  5  4  2  0
  6  5  1  0
  7  6  1  0
  7  8  2  0
  8  4  1  0
  9  2  1  0
  9 10  2  0
 12 11  1  0
 13 12  1  1
 13 14  1  0
 14  9  1  0
 15 13  1  0
 16 15  2  0
 18 19  1  6
 18 17  1  0
 20 18  1  0
 21 22  1  0
 21 20  1  6
 22 15  1  0
 23 21  1  0
 24 23  1  0
 25 23  2  0
M  END
$$$$
