HSL.pdb
     RDKit          3D

 25 25  0  0  1  0  0  0  0  0999 V2000
   17.3217  -13.1342    8.4247 N   0  0  0  0  0  0  0  0  0  0  0  0
   17.8719  -14.0736    7.4718 C   0  0  1  0  0  0  0  0  0  0  0  0
   19.3756  -13.8865    7.4059 C   0  0  0  0  0  0  0  0  0  0  0  0
   19.6974  -12.7345    6.5374 C   0  0  0  0  0  0  0  0  0  0  0  0
   18.7844  -11.8757    5.9394 C   0  0  0  0  0  0  0  0  0  0  0  0
   19.4744  -10.9537    5.2109 N   0  0  0  0  0  0  0  0  0  0  0  0
   20.7673  -11.2341    5.3546 C   0  0  0  0  0  0  0  0  0  0  0  0
   20.9103  -12.3079    6.1541 N   0  0  0  0  0  0  0  0  0  0  0  0
   17.5449  -15.4744    7.7411 C   0  0  0  0  0  0  0  0  0  0  0  0
   17.7528  -15.8629    8.9482 O   0  0  0  0  0  0  0  0  0  0  0  0
   15.4821  -19.6645    6.9089 O   0  0  0  0  0  0  0  0  0  0  0  0
   15.6745  -18.3467    6.4951 C   0  0  0  0  0  0  0  0  0  0  0  0
   16.8739  -17.7996    7.2491 C   0  0  2  0  0  0  0  0  0  0  0  0
   17.0387  -16.4236    6.8466 N   0  0  0  0  0  0  0  0  0  0  0  0
   18.0861  -18.5929    7.0169 C   0  0  0  0  0  0  0  0  0  0  0  0
   18.7825  -18.4551    5.9473 O   0  0  0  0  0  0  0  0  0  0  0  0
   21.9248  -18.6732   10.3512 C   0  0  0  0  0  0  0  0  0  0  0  0
   21.3423  -18.9365    8.9782 C   0  0  1  0  0  0  0  0  0  0  0  0
   22.4926  -18.8937    7.9774 C   0  0  0  0  0  0  0  0  0  0  0  0
   20.6942  -20.2692    8.8424 C   0  0  0  0  0  0  0  0  0  0  0  0
   19.7076  -20.3811    7.7166 C   0  0  2  0  0  0  0  0  0  0  0  0
   18.5346  -19.5445    7.9669 N   0  0  0  0  0  0  0  0  0  0  0  0
   19.2883  -21.7823    7.4282 C   0  0  0  0  0  0  0  0  0  0  0  0
   20.1328  -22.7504    6.9270 O   0  0  0  0  0  0  0  0  0  0  0  0
   18.0795  -22.1371    7.6481 O   0  0  0  0  0  0  0  0  0  0  0  0
  2  1  1  1
  3  2  1  0
  4  3  1  0
  5  4  2  0
  6  5  1  0
  7  6  1  0
  7  8  2  0
  8  4  1  0
  9  2  1  0
  9 10  2  0
 12 11  1  0
 13 12  1  6
 13 14  1  0
 14  9  1  0
 15 13  1  0
 16 15  2  0
 18 19  1  6
 18 17  1  0
 20 18  1  0
 21 22  1  0
 21 20  1  1
 22 15  1  0
 23 21  1  0
 24 23  1  0
 25 23  2  0
M  END
$$$$
