HSL.pdb
     RDKit          3D

 25 25  0  0  1  0  0  0  0  0999 V2000
   18.1476  -14.8705  -18.6063 N   0  0  0  0  0  0  0  0  0  0  0  0
   18.4380  -14.2275  -17.3433 C   0  0  1  0  0  0  0  0  0  0  0  0
   19.3480  -15.1270  -16.5290 C   0  0  0  0  0  0  0  0  0  0  0  0
   18.6724  -16.4158  -16.2684 C   0  0  0  0  0  0  0  0  0  0  0  0
   17.4659  -16.5915  -15.6035 C   0  0  0  0  0  0  0  0  0  0  0  0
   17.1895  -17.9251  -15.5589 N   0  0  0  0  0  0  0  0  0  0  0  0
   18.1904  -18.5497  -16.1745 C   0  0  0  0  0  0  0  0  0  0  0  0
   19.0897  -17.6454  -16.6059 N   0  0  0  0  0  0  0  0  0  0  0  0
   19.0189  -12.8895  -17.4618 C   0  0  0  0  0  0  0  0  0  0  0  0
   20.0766  -12.8141  -18.1877 O   0  0  0  0  0  0  0  0  0  0  0  0
   17.7856   -9.4105  -15.5973 O   0  0  0  0  0  0  0  0  0  0  0  0
   18.2538   -9.3372  -16.9088 C   0  0  0  0  0  0  0  0  0  0  0  0
   19.2602  -10.4584  -17.1000 C   0  0  2  0  0  0  0  0  0  0  0  0
   18.5594  -11.7013  -16.8834 N   0  0  0  0  0  0  0  0  0  0  0  0
   20.4236  -10.3182  -16.2171 C   0  0  0  0  0  0  0  0  0  0  0  0
   20.5621  -11.0479  -15.1700 O   0  0  0  0  0  0  0  0  0  0  0  0
   25.0217  -10.5027  -14.0647 C   0  0  0  0  0  0  0  0  0  0  0  0
   25.0414   -9.6717  -15.3308 C   0  0  1  0  0  0  0  0  0  0  0  0
   26.2188  -10.1508  -16.1741 C   0  0  0  0  0  0  0  0  0  0  0  0
   23.8184   -9.8149  -16.1665 C   0  0  0  0  0  0  0  0  0  0  0  0
   22.5809   -9.1922  -15.5887 C   0  0  2  0  0  0  0  0  0  0  0  0
   21.4408   -9.3687  -16.4873 N   0  0  0  0  0  0  0  0  0  0  0  0
   22.7444   -7.7517  -15.2416 C   0  0  0  0  0  0  0  0  0  0  0  0
   23.1422   -7.2996  -14.0011 O   0  0  0  0  0  0  0  0  0  0  0  0
   22.5085   -6.8589  -16.1263 O   0  0  0  0  0  0  0  0  0  0  0  0
  2  1  1  6
  3  2  1  0
  4  3  1  0
  5  4  2  0
  6  5  1  0
  7  6  1  0
  7  8  2  0
  8  4  1  0
  9  2  1  0
  9 10  2  0
 12 11  1  0
 13 12  1  1
 13 14  1  0
 14  9  1  0
 15 13  1  0
 16 15  2  0
 18 19  1  6
 18 17  1  0
 20 18  1  0
 21 22  1  0
 21 20  1  6
 22 15  1  0
 23 21  1  0
 24 23  1  0
 25 23  2  0
M  END
$$$$
