HSL.pdb
     RDKit          3D

 25 25  0  0  1  0  0  0  0  0999 V2000
   23.2382  -22.5695  -15.5896 N   0  0  0  0  0  0  0  0  0  0  0  0
   23.1206  -21.9208  -14.3017 C   0  0  1  0  0  0  0  0  0  0  0  0
   22.0050  -22.5825  -13.5156 C   0  0  0  0  0  0  0  0  0  0  0  0
   20.6954  -22.1485  -14.0464 C   0  0  0  0  0  0  0  0  0  0  0  0
   19.9682  -21.0396  -13.6341 C   0  0  0  0  0  0  0  0  0  0  0  0
   18.8134  -20.9898  -14.3559 N   0  0  0  0  0  0  0  0  0  0  0  0
   18.8280  -22.0315  -15.1840 C   0  0  0  0  0  0  0  0  0  0  0  0
   19.9611  -22.7360  -15.0033 N   0  0  0  0  0  0  0  0  0  0  0  0
   24.3550  -21.9021  -13.5157 C   0  0  0  0  0  0  0  0  0  0  0  0
   25.0036  -23.0112  -13.4884 O   0  0  0  0  0  0  0  0  0  0  0  0
   27.7141  -19.2812  -11.6207 O   0  0  0  0  0  0  0  0  0  0  0  0
   27.1144  -19.9532  -12.6853 C   0  0  0  0  0  0  0  0  0  0  0  0
   26.1535  -20.9736  -12.1007 C   0  0  2  0  0  0  0  0  0  0  0  0
   24.9005  -20.8295  -12.8020 N   0  0  0  0  0  0  0  0  0  0  0  0
   25.9960  -20.8220  -10.6499 C   0  0  0  0  0  0  0  0  0  0  0  0
   24.9989  -20.1891  -10.1465 O   0  0  0  0  0  0  0  0  0  0  0  0
   29.7037  -21.1141   -5.6389 C   0  0  0  0  0  0  0  0  0  0  0  0
   28.3237  -20.9438   -6.2394 C   0  0  1  0  0  0  0  0  0  0  0  0
   27.9110  -19.4900   -6.0322 C   0  0  0  0  0  0  0  0  0  0  0  0
   28.2644  -21.2106   -7.7022 C   0  0  0  0  0  0  0  0  0  0  0  0
   26.9041  -21.0589   -8.3183 C   0  0  2  0  0  0  0  0  0  0  0  0
   26.9418  -21.3692   -9.7470 N   0  0  0  0  0  0  0  0  0  0  0  0
   26.2968  -19.7152   -8.0995 C   0  0  0  0  0  0  0  0  0  0  0  0
   26.8470  -18.5378   -8.5605 O   0  0  0  0  0  0  0  0  0  0  0  0
   25.2004  -19.6168   -7.4485 O   0  0  0  0  0  0  0  0  0  0  0  0
  2  1  1  6
  3  2  1  0
  4  3  1  0
  5  4  2  0
  6  5  1  0
  7  6  1  0
  7  8  2  0
  8  4  1  0
  9  2  1  0
  9 10  2  0
 12 11  1  0
 13 12  1  6
 13 14  1  0
 14  9  1  0
 15 13  1  0
 16 15  2  0
 18 19  1  6
 18 17  1  0
 20 18  1  0
 21 22  1  0
 21 20  1  6
 22 15  1  0
 23 21  1  0
 24 23  1  0
 25 23  2  0
M  END
$$$$
