HSL.pdb
     RDKit          3D

 25 25  0  0  1  0  0  0  0  0999 V2000
   23.7043  -35.0921   -5.3626 N   0  0  0  0  0  0  0  0  0  0  0  0
   24.8321  -34.5106   -4.6677 C   0  0  1  0  0  0  0  0  0  0  0  0
   24.8427  -33.0134   -4.9098 C   0  0  0  0  0  0  0  0  0  0  0  0
   25.4018  -32.7285   -6.2482 C   0  0  0  0  0  0  0  0  0  0  0  0
   25.7792  -33.6685   -7.1984 C   0  0  0  0  0  0  0  0  0  0  0  0
   26.2559  -33.0082   -8.2909 N   0  0  0  0  0  0  0  0  0  0  0  0
   26.1754  -31.7070   -8.0239 C   0  0  0  0  0  0  0  0  0  0  0  0
   25.6607  -31.5298   -6.7925 N   0  0  0  0  0  0  0  0  0  0  0  0
   24.8734  -34.7940   -3.2325 C   0  0  0  0  0  0  0  0  0  0  0  0
   23.7700  -34.5982   -2.6036 O   0  0  0  0  0  0  0  0  0  0  0  0
   28.1134  -36.0414   -1.0049 O   0  0  0  0  0  0  0  0  0  0  0  0
   26.8486  -36.5258   -0.6731 C   0  0  0  0  0  0  0  0  0  0  0  0
   25.8347  -35.4628   -1.0581 C   0  0  2  0  0  0  0  0  0  0  0  0
   25.9618  -35.2478   -2.4794 N   0  0  0  0  0  0  0  0  0  0  0  0
   26.0106  -34.2232   -0.2932 C   0  0  0  0  0  0  0  0  0  0  0  0
   26.5241  -33.1740   -0.8259 O   0  0  0  0  0  0  0  0  0  0  0  0
   24.5956  -29.8858    2.3231 C   0  0  0  0  0  0  0  0  0  0  0  0
   24.4424  -31.1686    3.1134 C   0  0  1  0  0  0  0  0  0  0  0  0
   23.1099  -31.0944    3.8522 C   0  0  0  0  0  0  0  0  0  0  0  0
   24.4081  -32.3959    2.2725 C   0  0  0  0  0  0  0  0  0  0  0  0
   25.7514  -32.8927    1.8233 C   0  0  2  0  0  0  0  0  0  0  0  0
   25.6201  -34.1373    1.0667 N   0  0  0  0  0  0  0  0  0  0  0  0
   26.7256  -33.0684    2.9379 C   0  0  0  0  0  0  0  0  0  0  0  0
   27.6400  -32.1092    3.3189 O   0  0  0  0  0  0  0  0  0  0  0  0
   26.7380  -34.1635    3.5982 O   0  0  0  0  0  0  0  0  0  0  0  0
  2  1  1  1
  3  2  1  0
  4  3  1  0
  5  4  2  0
  6  5  1  0
  7  6  1  0
  7  8  2  0
  8  4  1  0
  9  2  1  0
  9 10  2  0
 12 11  1  0
 13 12  1  1
 13 14  1  0
 14  9  1  0
 15 13  1  0
 16 15  2  0
 18 19  1  6
 18 17  1  0
 20 18  1  0
 21 22  1  0
 21 20  1  1
 22 15  1  0
 23 21  1  0
 24 23  1  0
 25 23  2  0
M  END
$$$$
