HSL.pdb
     RDKit          3D

 25 25  0  0  1  0  0  0  0  0999 V2000
   22.3853  -21.6864  -12.8982 N   0  0  0  0  0  0  0  0  0  0  0  0
   23.0077  -20.6247  -12.1377 C   0  0  1  0  0  0  0  0  0  0  0  0
   21.9532  -19.9430  -11.2870 C   0  0  0  0  0  0  0  0  0  0  0  0
   21.0565  -19.1443  -12.1492 C   0  0  0  0  0  0  0  0  0  0  0  0
   21.2876  -17.8516  -12.6011 C   0  0  0  0  0  0  0  0  0  0  0  0
   20.2229  -17.4638  -13.3580 N   0  0  0  0  0  0  0  0  0  0  0  0
   19.3655  -18.4815  -13.3723 C   0  0  0  0  0  0  0  0  0  0  0  0
   19.8616  -19.5000  -12.6448 N   0  0  0  0  0  0  0  0  0  0  0  0
   24.1336  -21.0522  -11.3062 C   0  0  0  0  0  0  0  0  0  0  0  0
   23.8213  -21.7774  -10.2924 O   0  0  0  0  0  0  0  0  0  0  0  0
   27.5952  -20.7117  -12.5820 O   0  0  0  0  0  0  0  0  0  0  0  0
   27.8313  -21.1710  -11.2866 C   0  0  0  0  0  0  0  0  0  0  0  0
   26.4850  -21.3167  -10.5991 C   0  0  2  0  0  0  0  0  0  0  0  0
   25.4909  -20.7653  -11.4880 N   0  0  0  0  0  0  0  0  0  0  0  0
   26.4624  -20.6770   -9.2789 C   0  0  0  0  0  0  0  0  0  0  0  0
   25.8271  -19.5799   -9.0765 O   0  0  0  0  0  0  0  0  0  0  0  0
   27.7090  -20.4238   -3.7735 C   0  0  0  0  0  0  0  0  0  0  0  0
   28.7774  -20.4449   -4.8468 C   0  0  1  0  0  0  0  0  0  0  0  0
   29.9971  -21.1519   -4.2643 C   0  0  0  0  0  0  0  0  0  0  0  0
   28.3857  -21.1891   -6.0745 C   0  0  0  0  0  0  0  0  0  0  0  0
   27.3934  -20.4836   -6.9524 C   0  0  2  0  0  0  0  0  0  0  0  0
   27.1438  -21.2471   -8.1744 N   0  0  0  0  0  0  0  0  0  0  0  0
   27.7840  -19.0852   -7.2901 C   0  0  0  0  0  0  0  0  0  0  0  0
   27.2785  -17.9705   -6.6550 O   0  0  0  0  0  0  0  0  0  0  0  0
   28.6365  -18.8754   -8.2199 O   0  0  0  0  0  0  0  0  0  0  0  0
  2  1  1  1
  3  2  1  0
  4  3  1  0
  5  4  2  0
  6  5  1  0
  7  6  1  0
  7  8  2  0
  8  4  1  0
  9  2  1  0
  9 10  2  0
 12 11  1  0
 13 12  1  6
 13 14  1  0
 14  9  1  0
 15 13  1  0
 16 15  2  0
 18 19  1  1
 18 17  1  0
 20 18  1  0
 21 22  1  0
 21 20  1  6
 22 15  1  0
 23 21  1  0
 24 23  1  0
 25 23  2  0
M  END
$$$$
