EKQ.pdb
     RDKit          3D

 28 27  0  0  1  0  0  0  0  0999 V2000
   25.1929  -22.3122  -15.3854 N   0  0  0  0  0  0  0  0  0  0  0  0
   24.4717  -21.0921  -15.0728 C   0  0  1  0  0  0  0  0  0  0  0  0
   24.5375  -20.2401  -16.3238 C   0  0  0  0  0  0  0  0  0  0  0  0
   24.8221  -18.7864  -15.9445 C   0  0  0  0  0  0  0  0  0  0  0  0
   26.0525  -18.3124  -16.6024 C   0  0  0  0  0  0  0  0  0  0  0  0
   26.0393  -17.8957  -17.7822 O   0  0  0  0  0  0  0  0  0  0  0  0
   23.0798  -21.4799  -14.7433 C   0  0  0  0  0  0  0  0  0  0  0  0
   22.3345  -22.0127  -15.6005 O   0  0  0  0  0  0  0  0  0  0  0  0
   27.2417  -18.3312  -15.8963 O   0  0  0  0  0  0  0  0  0  0  0  0
   22.5075  -21.2721  -13.4414 N   0  0  0  0  0  0  0  0  0  0  0  0
   21.1685  -21.6387  -13.1034 C   0  0  1  0  0  0  0  0  0  0  0  0
   21.1113  -22.1936  -11.6846 C   0  0  0  0  0  0  0  0  0  0  0  0
   19.7854  -22.8111  -11.3768 C   0  0  0  0  0  0  0  0  0  0  0  0
   19.7345  -23.2671   -9.9396 C   0  0  0  0  0  0  0  0  0  0  0  0
   18.5187  -24.0553   -9.5831 C   0  0  0  0  0  0  0  0  0  0  0  0
   18.5912  -24.3357   -8.1443 N   0  0  0  0  0  0  0  0  0  0  0  0
   20.2190  -20.5005  -13.2125 C   0  0  0  0  0  0  0  0  0  0  0  0
   20.5977  -19.3106  -12.9386 O   0  0  0  0  0  0  0  0  0  0  0  0
   20.4009  -17.7325  -17.7812 N   0  0  0  0  0  0  0  0  0  0  0  0
   19.1994  -17.3889  -17.0692 C   0  0  0  0  0  0  0  0  0  0  0  0
   19.0041  -16.1662  -16.8749 O   0  0  0  0  0  0  0  0  0  0  0  0
   18.2602  -18.4317  -16.5990 C   0  0  0  0  0  0  0  0  0  0  0  0
   18.9175  -19.4073  -15.6822 C   0  0  0  0  0  0  0  0  0  0  0  0
   18.1495  -19.6892  -14.4278 C   0  0  2  0  0  0  0  0  0  0  0  0
   18.8716  -20.6808  -13.6187 N   0  0  0  0  0  0  0  0  0  0  0  0
   16.7577  -20.1330  -14.6553 C   0  0  0  0  0  0  0  0  0  0  0  0
   15.8559  -19.3130  -15.0430 O   0  0  0  0  0  0  0  0  0  0  0  0
   16.3415  -21.4290  -14.4725 O   0  0  0  0  0  0  0  0  0  0  0  0
  2  1  1  6
  2  3  1  0
  4  3  1  0
  5  4  1  0
  6  5  2  0
  7  2  1  0
  7 10  1  0
  8  7  2  0
  9  5  1  0
 11 10  1  0
 11 12  1  1
 13 12  1  0
 14 13  1  0
 15 14  1  0
 16 15  1  0
 17 11  1  0
 18 17  2  0
 20 19  1  0
 20 22  1  0
 21 20  2  0
 23 22  1  0
 24 23  1  6
 24 25  1  0
 25 17  1  0
 26 24  1  0
 27 26  2  0
 28 26  1  0
M  END
$$$$
