EKQ.pdb
     RDKit          3D

 28 27  0  0  1  0  0  0  0  0999 V2000
   19.0879  -14.4034  -16.7323 N   0  0  0  0  0  0  0  0  0  0  0  0
   19.0990  -13.2536  -17.6179 C   0  0  1  0  0  0  0  0  0  0  0  0
   17.9323  -12.3881  -17.1875 C   0  0  0  0  0  0  0  0  0  0  0  0
   18.0307  -12.0959  -15.6898 C   0  0  0  0  0  0  0  0  0  0  0  0
   16.8573  -11.3293  -15.2351 C   0  0  0  0  0  0  0  0  0  0  0  0
   16.8630  -10.0781  -15.2238 O   0  0  0  0  0  0  0  0  0  0  0  0
   20.3967  -12.5649  -17.4231 C   0  0  0  0  0  0  0  0  0  0  0  0
   20.8442  -12.3372  -16.2732 O   0  0  0  0  0  0  0  0  0  0  0  0
   15.7308  -12.0125  -14.8136 O   0  0  0  0  0  0  0  0  0  0  0  0
   21.2093  -12.1225  -18.5229 N   0  0  0  0  0  0  0  0  0  0  0  0
   22.4242  -11.3888  -18.3577 C   0  0  1  0  0  0  0  0  0  0  0  0
   23.3150  -11.5524  -19.5841 C   0  0  0  0  0  0  0  0  0  0  0  0
   23.8005  -12.9572  -19.7415 C   0  0  0  0  0  0  0  0  0  0  0  0
   24.5588  -13.1135  -21.0362 C   0  0  0  0  0  0  0  0  0  0  0  0
   25.0799  -14.4892  -21.2861 C   0  0  0  0  0  0  0  0  0  0  0  0
   25.6884  -14.4856  -22.6217 N   0  0  0  0  0  0  0  0  0  0  0  0
   22.1901   -9.9399  -18.1240 C   0  0  0  0  0  0  0  0  0  0  0  0
   21.0784   -9.4007  -18.4521 O   0  0  0  0  0  0  0  0  0  0  0  0
   19.7778   -7.7148  -14.1508 N   0  0  0  0  0  0  0  0  0  0  0  0
   20.3788   -6.4615  -14.5204 C   0  0  0  0  0  0  0  0  0  0  0  0
   19.9669   -5.4499  -13.9057 O   0  0  0  0  0  0  0  0  0  0  0  0
   21.4206   -6.3888  -15.5693 C   0  0  0  0  0  0  0  0  0  0  0  0
   21.7797   -7.7362  -16.0984 C   0  0  0  0  0  0  0  0  0  0  0  0
   22.8888   -7.7284  -17.1047 C   0  0  2  0  0  0  0  0  0  0  0  0
   23.1742   -9.1038  -17.5361 N   0  0  0  0  0  0  0  0  0  0  0  0
   24.1287   -7.0736  -16.6359 C   0  0  0  0  0  0  0  0  0  0  0  0
   25.1946   -7.7481  -16.4237 O   0  0  0  0  0  0  0  0  0  0  0  0
   24.2247   -5.7238  -16.4010 O   0  0  0  0  0  0  0  0  0  0  0  0
  2  1  1  1
  2  3  1  0
  4  3  1  0
  5  4  1  0
  6  5  2  0
  7  2  1  0
  7 10  1  0
  8  7  2  0
  9  5  1  0
 11 10  1  0
 11 12  1  6
 13 12  1  0
 14 13  1  0
 15 14  1  0
 16 15  1  0
 17 11  1  0
 18 17  2  0
 20 19  1  0
 20 22  1  0
 21 20  2  0
 23 22  1  0
 24 23  1  1
 24 25  1  0
 25 17  1  0
 26 24  1  0
 27 26  2  0
 28 26  1  0
M  END
$$$$
