EKQ.pdb
     RDKit          3D

 28 27  0  0  1  0  0  0  0  0999 V2000
   37.4877  -33.9814   -0.7630 N   0  0  0  0  0  0  0  0  0  0  0  0
   36.5104  -35.0354   -0.5620 C   0  0  1  0  0  0  0  0  0  0  0  0
   36.7254  -35.5353    0.8519 C   0  0  0  0  0  0  0  0  0  0  0  0
   37.8395  -36.5825    0.8658 C   0  0  0  0  0  0  0  0  0  0  0  0
   38.0170  -37.1297    2.2224 C   0  0  0  0  0  0  0  0  0  0  0  0
   37.3716  -36.6782    3.1948 O   0  0  0  0  0  0  0  0  0  0  0  0
   35.1701  -34.4264   -0.7329 C   0  0  0  0  0  0  0  0  0  0  0  0
   34.9381  -33.2525   -0.3556 O   0  0  0  0  0  0  0  0  0  0  0  0
   38.9161  -38.1624    2.4179 O   0  0  0  0  0  0  0  0  0  0  0  0
   34.0711  -35.1328   -1.3318 N   0  0  0  0  0  0  0  0  0  0  0  0
   32.7936  -34.5404   -1.5735 C   0  0  1  0  0  0  0  0  0  0  0  0
   32.2873  -34.9161   -2.9615 C   0  0  0  0  0  0  0  0  0  0  0  0
   30.9287  -34.3557   -3.2338 C   0  0  0  0  0  0  0  0  0  0  0  0
   30.4013  -34.8629   -4.5532 C   0  0  0  0  0  0  0  0  0  0  0  0
   29.0436  -34.3586   -4.9121 C   0  0  0  0  0  0  0  0  0  0  0  0
   28.7038  -34.9256   -6.2224 N   0  0  0  0  0  0  0  0  0  0  0  0
   31.7771  -34.9421   -0.5664 C   0  0  0  0  0  0  0  0  0  0  0  0
   31.6282  -36.1715   -0.2491 O   0  0  0  0  0  0  0  0  0  0  0  0
   28.1003  -32.6405    5.4622 N   0  0  0  0  0  0  0  0  0  0  0  0
   28.9472  -32.5549    4.3028 C   0  0  0  0  0  0  0  0  0  0  0  0
   29.6505  -31.5216    4.2089 O   0  0  0  0  0  0  0  0  0  0  0  0
   28.9727  -33.6326    3.2887 C   0  0  0  0  0  0  0  0  0  0  0  0
   29.9266  -33.3383    2.1806 C   0  0  0  0  0  0  0  0  0  0  0  0
   29.9548  -34.3742    1.0994 C   0  0  2  0  0  0  0  0  0  0  0  0
   30.9399  -33.9945    0.0771 N   0  0  0  0  0  0  0  0  0  0  0  0
   28.6415  -34.6313    0.4710 C   0  0  0  0  0  0  0  0  0  0  0  0
   27.6950  -35.1948    1.1212 O   0  0  0  0  0  0  0  0  0  0  0  0
   28.3481  -34.2902   -0.8267 O   0  0  0  0  0  0  0  0  0  0  0  0
  2  1  1  1
  2  3  1  0
  4  3  1  0
  5  4  1  0
  6  5  2  0
  7  2  1  0
  7 10  1  0
  8  7  2  0
  9  5  1  0
 11 10  1  0
 11 12  1  6
 13 12  1  0
 14 13  1  0
 15 14  1  0
 16 15  1  0
 17 11  1  0
 18 17  2  0
 20 19  1  0
 20 22  1  0
 21 20  2  0
 23 22  1  0
 24 23  1  1
 24 25  1  0
 25 17  1  0
 26 24  1  0
 27 26  2  0
 28 26  1  0
M  END
$$$$
