EKQ.pdb
     RDKit          3D

 28 27  0  0  1  0  0  0  0  0999 V2000
   25.5543  -20.1572  -11.3646 N   0  0  0  0  0  0  0  0  0  0  0  0
   25.1873  -20.6928  -12.6627 C   0  0  1  0  0  0  0  0  0  0  0  0
   23.6813  -20.8557  -12.6326 C   0  0  0  0  0  0  0  0  0  0  0  0
   23.2882  -21.8210  -11.5138 C   0  0  0  0  0  0  0  0  0  0  0  0
   22.0998  -21.3251  -10.7976 C   0  0  0  0  0  0  0  0  0  0  0  0
   22.1963  -20.4561   -9.9025 O   0  0  0  0  0  0  0  0  0  0  0  0
   25.6139  -19.7030  -13.6799 C   0  0  0  0  0  0  0  0  0  0  0  0
   25.5441  -18.4706  -13.4552 O   0  0  0  0  0  0  0  0  0  0  0  0
   20.8565  -21.8344  -11.1260 O   0  0  0  0  0  0  0  0  0  0  0  0
   26.1254  -20.0888  -14.9664 N   0  0  0  0  0  0  0  0  0  0  0  0
   26.3795  -19.1604  -16.0223 C   0  0  1  0  0  0  0  0  0  0  0  0
   27.5590  -19.6269  -16.8681 C   0  0  0  0  0  0  0  0  0  0  0  0
   27.9194  -18.6332  -17.9248 C   0  0  0  0  0  0  0  0  0  0  0  0
   29.0684  -19.1415  -18.7599 C   0  0  0  0  0  0  0  0  0  0  0  0
   29.5670  -18.1741  -19.7808 C   0  0  0  0  0  0  0  0  0  0  0  0
   30.5271  -18.8935  -20.6261 N   0  0  0  0  0  0  0  0  0  0  0  0
   25.2017  -18.9643  -16.9073 C   0  0  0  0  0  0  0  0  0  0  0  0
   24.5573  -19.9701  -17.3628 O   0  0  0  0  0  0  0  0  0  0  0  0
   20.3899  -15.7234  -15.8152 N   0  0  0  0  0  0  0  0  0  0  0  0
   20.1311  -16.0658  -17.1879 C   0  0  0  0  0  0  0  0  0  0  0  0
   18.9695  -15.8427  -17.6023 O   0  0  0  0  0  0  0  0  0  0  0  0
   21.1865  -16.6487  -18.0464 C   0  0  0  0  0  0  0  0  0  0  0  0
   22.4516  -16.8911  -17.2945 C   0  0  0  0  0  0  0  0  0  0  0  0
   23.5608  -17.4640  -18.1217 C   0  0  2  0  0  0  0  0  0  0  0  0
   24.7473  -17.6730  -17.2803 N   0  0  0  0  0  0  0  0  0  0  0  0
   23.9133  -16.6551  -19.3080 C   0  0  0  0  0  0  0  0  0  0  0  0
   24.9209  -15.8673  -19.2970 O   0  0  0  0  0  0  0  0  0  0  0  0
   23.2015  -16.6910  -20.4821 O   0  0  0  0  0  0  0  0  0  0  0  0
  2  1  1  1
  2  3  1  0
  4  3  1  0
  5  4  1  0
  6  5  2  0
  7  2  1  0
  7 10  1  0
  8  7  2  0
  9  5  1  0
 11 10  1  0
 11 12  1  6
 13 12  1  0
 14 13  1  0
 15 14  1  0
 16 15  1  0
 17 11  1  0
 18 17  2  0
 20 19  1  0
 20 22  1  0
 21 20  2  0
 23 22  1  0
 24 23  1  1
 24 25  1  0
 25 17  1  0
 26 24  1  0
 27 26  2  0
 28 26  1  0
M  END
$$$$
