EKQ.pdb
     RDKit          3D

 28 27  0  0  1  0  0  0  0  0999 V2000
   21.8059  -18.2015  -17.8001 N   0  0  0  0  0  0  0  0  0  0  0  0
   21.9672  -18.2561  -16.3588 C   0  0  1  0  0  0  0  0  0  0  0  0
   21.1291  -19.4289  -15.8925 C   0  0  0  0  0  0  0  0  0  0  0  0
   19.6449  -19.0739  -15.9886 C   0  0  0  0  0  0  0  0  0  0  0  0
   19.3422  -17.8913  -15.1633 C   0  0  0  0  0  0  0  0  0  0  0  0
   19.7842  -17.7819  -13.9977 O   0  0  0  0  0  0  0  0  0  0  0  0
   23.4089  -18.4676  -16.0884 C   0  0  0  0  0  0  0  0  0  0  0  0
   23.8640  -19.6134  -15.8553 O   0  0  0  0  0  0  0  0  0  0  0  0
   18.5536  -16.8862  -15.6934 O   0  0  0  0  0  0  0  0  0  0  0  0
   24.3591  -17.3894  -16.0767 N   0  0  0  0  0  0  0  0  0  0  0  0
   25.7506  -17.5704  -15.8072 C   0  0  1  0  0  0  0  0  0  0  0  0
   26.5247  -16.2975  -16.1307 C   0  0  0  0  0  0  0  0  0  0  0  0
   26.6028  -16.0470  -17.6022 C   0  0  0  0  0  0  0  0  0  0  0  0
   27.6009  -16.9776  -18.2455 C   0  0  0  0  0  0  0  0  0  0  0  0
   27.6834  -16.8653  -19.7312 C   0  0  0  0  0  0  0  0  0  0  0  0
   28.6681  -17.8541  -20.1858 N   0  0  0  0  0  0  0  0  0  0  0  0
   26.0152  -17.9474  -14.3942 C   0  0  0  0  0  0  0  0  0  0  0  0
   25.4720  -17.2980  -13.4364 O   0  0  0  0  0  0  0  0  0  0  0  0
   23.1893  -21.0837  -11.3679 N   0  0  0  0  0  0  0  0  0  0  0  0
   24.2560  -20.9795  -10.4089 C   0  0  0  0  0  0  0  0  0  0  0  0
   23.9831  -21.3385   -9.2394 O   0  0  0  0  0  0  0  0  0  0  0  0
   25.5917  -20.4739  -10.7973 C   0  0  0  0  0  0  0  0  0  0  0  0
   25.6225  -19.9974  -12.2103 C   0  0  0  0  0  0  0  0  0  0  0  0
   26.9720  -19.5501  -12.6813 C   0  0  2  0  0  0  0  0  0  0  0  0
   26.8690  -19.0274  -14.0508 N   0  0  0  0  0  0  0  0  0  0  0  0
   28.0159  -20.5947  -12.6116 C   0  0  0  0  0  0  0  0  0  0  0  0
   28.3771  -21.2409  -13.6547 O   0  0  0  0  0  0  0  0  0  0  0  0
   28.6605  -20.9384  -11.4485 O   0  0  0  0  0  0  0  0  0  0  0  0
  2  1  1  6
  2  3  1  0
  4  3  1  0
  5  4  1  0
  6  5  2  0
  7  2  1  0
  7 10  1  0
  8  7  2  0
  9  5  1  0
 11 10  1  0
 11 12  1  1
 13 12  1  0
 14 13  1  0
 15 14  1  0
 16 15  1  0
 17 11  1  0
 18 17  2  0
 20 19  1  0
 20 22  1  0
 21 20  2  0
 23 22  1  0
 24 23  1  6
 24 25  1  0
 25 17  1  0
 26 24  1  0
 27 26  2  0
 28 26  1  0
M  END
$$$$
