EKQ.pdb
     RDKit          3D

 28 27  0  0  1  0  0  0  0  0999 V2000
   25.8599  -20.9484  -15.9327 N   0  0  0  0  0  0  0  0  0  0  0  0
   25.5030  -19.9613  -14.9304 C   0  0  1  0  0  0  0  0  0  0  0  0
   25.5488  -18.6207  -15.6346 C   0  0  0  0  0  0  0  0  0  0  0  0
   25.0966  -18.7839  -17.0862 C   0  0  0  0  0  0  0  0  0  0  0  0
   26.2265  -18.5663  -18.0067 C   0  0  0  0  0  0  0  0  0  0  0  0
   27.3688  -18.2877  -17.5788 O   0  0  0  0  0  0  0  0  0  0  0  0
   24.1363  -20.2902  -14.4609 C   0  0  0  0  0  0  0  0  0  0  0  0
   23.2622  -20.7143  -15.2547 O   0  0  0  0  0  0  0  0  0  0  0  0
   26.0132  -18.6735  -19.3691 O   0  0  0  0  0  0  0  0  0  0  0  0
   23.7351  -20.1453  -13.0884 N   0  0  0  0  0  0  0  0  0  0  0  0
   22.4195  -20.4441  -12.6180 C   0  0  1  0  0  0  0  0  0  0  0  0
   22.4299  -20.6551  -11.1082 C   0  0  0  0  0  0  0  0  0  0  0  0
   21.1201  -21.1700  -10.6047 C   0  0  0  0  0  0  0  0  0  0  0  0
   21.1294  -21.2580   -9.0987 C   0  0  0  0  0  0  0  0  0  0  0  0
   19.8950  -21.8505   -8.5057 C   0  0  0  0  0  0  0  0  0  0  0  0
   20.0209  -21.7435   -7.0474 N   0  0  0  0  0  0  0  0  0  0  0  0
   21.4384  -19.3773  -12.9471 C   0  0  0  0  0  0  0  0  0  0  0  0
   21.8356  -18.1988  -13.2430 O   0  0  0  0  0  0  0  0  0  0  0  0
   18.9215  -20.8321  -17.4515 N   0  0  0  0  0  0  0  0  0  0  0  0
   18.5336  -19.4477  -17.4903 C   0  0  0  0  0  0  0  0  0  0  0  0
   17.9332  -19.0721  -18.5244 O   0  0  0  0  0  0  0  0  0  0  0  0
   18.8357  -18.5334  -16.3663 C   0  0  0  0  0  0  0  0  0  0  0  0
   19.6436  -19.1982  -15.3034 C   0  0  0  0  0  0  0  0  0  0  0  0
   19.1296  -18.9841  -13.9131 C   0  0  2  0  0  0  0  0  0  0  0  0
   20.0396  -19.6153  -12.9473 N   0  0  0  0  0  0  0  0  0  0  0  0
   17.7469  -19.4608  -13.6973 C   0  0  0  0  0  0  0  0  0  0  0  0
   16.7582  -18.6494  -13.7015 O   0  0  0  0  0  0  0  0  0  0  0  0
   17.4303  -20.7800  -13.4830 O   0  0  0  0  0  0  0  0  0  0  0  0
  2  1  1  6
  2  3  1  0
  4  3  1  0
  5  4  1  0
  6  5  2  0
  7  2  1  0
  7 10  1  0
  8  7  2  0
  9  5  1  0
 11 10  1  0
 11 12  1  1
 13 12  1  0
 14 13  1  0
 15 14  1  0
 16 15  1  0
 17 11  1  0
 18 17  2  0
 20 19  1  0
 20 22  1  0
 21 20  2  0
 23 22  1  0
 24 23  1  6
 24 25  1  0
 25 17  1  0
 26 24  1  0
 27 26  2  0
 28 26  1  0
M  END
$$$$
