EKQ.pdb
     RDKit          3D

 28 27  0  0  1  0  0  0  0  0999 V2000
   23.0224  -13.5483  -18.8923 N   0  0  0  0  0  0  0  0  0  0  0  0
   22.8969  -12.1341  -18.5906 C   0  0  1  0  0  0  0  0  0  0  0  0
   23.3672  -11.4027  -19.8312 C   0  0  0  0  0  0  0  0  0  0  0  0
   23.3856  -12.3627  -21.0212 C   0  0  0  0  0  0  0  0  0  0  0  0
   23.7698  -11.6511  -22.2530 C   0  0  0  0  0  0  0  0  0  0  0  0
   24.1069  -10.4463  -22.2291 O   0  0  0  0  0  0  0  0  0  0  0  0
   21.4657  -11.8736  -18.3071 C   0  0  0  0  0  0  0  0  0  0  0  0
   20.7499  -11.2350  -19.1159 O   0  0  0  0  0  0  0  0  0  0  0  0
   23.7551  -12.3341  -23.4557 O   0  0  0  0  0  0  0  0  0  0  0  0
   20.8205  -12.3294  -17.1065 N   0  0  0  0  0  0  0  0  0  0  0  0
   19.4293  -12.1404  -16.8410 C   0  0  1  0  0  0  0  0  0  0  0  0
   18.8762  -13.3150  -16.0420 C   0  0  0  0  0  0  0  0  0  0  0  0
   17.7211  -13.9676  -16.7304 C   0  0  0  0  0  0  0  0  0  0  0  0
   17.1955  -15.1179  -15.9079 C   0  0  0  0  0  0  0  0  0  0  0  0
   16.0928  -15.8878  -16.5541 C   0  0  0  0  0  0  0  0  0  0  0  0
   15.7605  -17.0022  -15.6588 N   0  0  0  0  0  0  0  0  0  0  0  0
   19.1544  -10.8826  -16.0987 C   0  0  0  0  0  0  0  0  0  0  0  0
   19.9508  -10.4824  -15.1821 O   0  0  0  0  0  0  0  0  0  0  0  0
   16.9021   -5.7324  -18.3892 N   0  0  0  0  0  0  0  0  0  0  0  0
   16.7175   -5.4523  -16.9906 C   0  0  0  0  0  0  0  0  0  0  0  0
   16.5085   -4.2532  -16.6913 O   0  0  0  0  0  0  0  0  0  0  0  0
   16.7762   -6.5293  -15.9771 C   0  0  0  0  0  0  0  0  0  0  0  0
   17.0741   -7.8577  -16.5861 C   0  0  0  0  0  0  0  0  0  0  0  0
   17.7427   -8.8254  -15.6591 C   0  0  2  0  0  0  0  0  0  0  0  0
   18.0142  -10.0828  -16.3694 N   0  0  0  0  0  0  0  0  0  0  0  0
   16.9887   -9.0947  -14.4162 C   0  0  0  0  0  0  0  0  0  0  0  0
   16.2225  -10.1137  -14.3138 O   0  0  0  0  0  0  0  0  0  0  0  0
   17.0558   -8.2893  -13.3056 O   0  0  0  0  0  0  0  0  0  0  0  0
  2  1  1  6
  2  3  1  0
  4  3  1  0
  5  4  1  0
  6  5  2  0
  7  2  1  0
  7 10  1  0
  8  7  2  0
  9  5  1  0
 11 10  1  0
 11 12  1  1
 13 12  1  0
 14 13  1  0
 15 14  1  0
 16 15  1  0
 17 11  1  0
 18 17  2  0
 20 19  1  0
 20 22  1  0
 21 20  2  0
 23 22  1  0
 24 23  1  6
 24 25  1  0
 25 17  1  0
 26 24  1  0
 27 26  2  0
 28 26  1  0
M  END
$$$$
