EKQ.pdb
     RDKit          3D

 28 27  0  0  1  0  0  0  0  0999 V2000
   24.2244  -16.2078  -17.8558 N   0  0  0  0  0  0  0  0  0  0  0  0
   23.2255  -17.2545  -17.7414 C   0  0  1  0  0  0  0  0  0  0  0  0
   22.8544  -17.6297  -19.1615 C   0  0  0  0  0  0  0  0  0  0  0  0
   23.9079  -17.0915  -20.1302 C   0  0  0  0  0  0  0  0  0  0  0  0
   23.2814  -16.2294  -21.1478 C   0  0  0  0  0  0  0  0  0  0  0  0
   23.7886  -15.1322  -21.4714 O   0  0  0  0  0  0  0  0  0  0  0  0
   23.8580  -18.3846  -17.0207 C   0  0  0  0  0  0  0  0  0  0  0  0
   23.2495  -19.4690  -16.8529 O   0  0  0  0  0  0  0  0  0  0  0  0
   22.1100  -16.6471  -21.7532 O   0  0  0  0  0  0  0  0  0  0  0  0
   25.1866  -18.3082  -16.4780 N   0  0  0  0  0  0  0  0  0  0  0  0
   25.7904  -19.3620  -15.7253 C   0  0  1  0  0  0  0  0  0  0  0  0
   27.2930  -19.1350  -15.6038 C   0  0  0  0  0  0  0  0  0  0  0  0
   27.9853  -20.2936  -14.9615 C   0  0  0  0  0  0  0  0  0  0  0  0
   28.4826  -21.2598  -16.0080 C   0  0  0  0  0  0  0  0  0  0  0  0
   29.1357  -22.4842  -15.4595 C   0  0  0  0  0  0  0  0  0  0  0  0
   29.5999  -23.2767  -16.6041 N   0  0  0  0  0  0  0  0  0  0  0  0
   25.2130  -19.4948  -14.3624 C   0  0  0  0  0  0  0  0  0  0  0  0
   25.0410  -18.4635  -13.6268 O   0  0  0  0  0  0  0  0  0  0  0  0
   20.2414  -22.3677  -12.5096 N   0  0  0  0  0  0  0  0  0  0  0  0
   20.5352  -21.1972  -11.7271 C   0  0  0  0  0  0  0  0  0  0  0  0
   19.5725  -20.6982  -11.0986 O   0  0  0  0  0  0  0  0  0  0  0  0
   21.9004  -20.6276  -11.6799 C   0  0  0  0  0  0  0  0  0  0  0  0
   22.8442  -21.3563  -12.5758 C   0  0  0  0  0  0  0  0  0  0  0  0
   24.2666  -20.8980  -12.4772 C   0  0  2  0  0  0  0  0  0  0  0  0
   24.8331  -20.7519  -13.8252 N   0  0  0  0  0  0  0  0  0  0  0  0
   25.1297  -21.7711  -11.6535 C   0  0  0  0  0  0  0  0  0  0  0  0
   25.4688  -22.9370  -12.0557 O   0  0  0  0  0  0  0  0  0  0  0  0
   25.6203  -21.4018  -10.4250 O   0  0  0  0  0  0  0  0  0  0  0  0
  2  1  1  6
  2  3  1  0
  4  3  1  0
  5  4  1  0
  6  5  2  0
  7  2  1  0
  7 10  1  0
  8  7  2  0
  9  5  1  0
 11 10  1  0
 11 12  1  1
 13 12  1  0
 14 13  1  0
 15 14  1  0
 16 15  1  0
 17 11  1  0
 18 17  2  0
 20 19  1  0
 20 22  1  0
 21 20  2  0
 23 22  1  0
 24 23  1  6
 24 25  1  0
 25 17  1  0
 26 24  1  0
 27 26  2  0
 28 26  1  0
M  END
$$$$
