EKQ.pdb
     RDKit          3D

 28 27  0  0  1  0  0  0  0  0999 V2000
   26.0238  -20.9528  -13.8319 N   0  0  0  0  0  0  0  0  0  0  0  0
   24.8985  -21.5223  -14.5501 C   0  0  1  0  0  0  0  0  0  0  0  0
   25.0103  -23.0227  -14.3722 C   0  0  0  0  0  0  0  0  0  0  0  0
   25.1050  -23.6995  -15.7400 C   0  0  0  0  0  0  0  0  0  0  0  0
   24.4017  -24.9943  -15.7254 C   0  0  0  0  0  0  0  0  0  0  0  0
   23.8178  -25.4050  -14.6977 O   0  0  0  0  0  0  0  0  0  0  0  0
   23.6658  -20.9844  -13.9276 C   0  0  0  0  0  0  0  0  0  0  0  0
   23.5391  -20.9305  -12.6805 O   0  0  0  0  0  0  0  0  0  0  0  0
   24.3907  -25.7658  -16.8733 O   0  0  0  0  0  0  0  0  0  0  0  0
   22.5571  -20.4993  -14.7029 N   0  0  0  0  0  0  0  0  0  0  0  0
   21.3163  -20.0859  -14.1275 C   0  0  1  0  0  0  0  0  0  0  0  0
   20.5702  -19.1600  -15.0816 C   0  0  0  0  0  0  0  0  0  0  0  0
   21.3660  -17.9398  -15.4162 C   0  0  0  0  0  0  0  0  0  0  0  0
   20.6850  -17.1450  -16.5027 C   0  0  0  0  0  0  0  0  0  0  0  0
   21.4879  -16.0030  -17.0299 C   0  0  0  0  0  0  0  0  0  0  0  0
   21.5919  -15.0129  -15.9516 N   0  0  0  0  0  0  0  0  0  0  0  0
   20.4352  -21.2322  -13.7836 C   0  0  0  0  0  0  0  0  0  0  0  0
   20.2644  -22.1910  -14.6118 O   0  0  0  0  0  0  0  0  0  0  0  0
   19.7961  -24.0141   -8.3435 N   0  0  0  0  0  0  0  0  0  0  0  0
   18.7298  -24.6215   -9.0935 C   0  0  0  0  0  0  0  0  0  0  0  0
   18.1326  -25.5705   -8.5332 O   0  0  0  0  0  0  0  0  0  0  0  0
   18.3731  -24.1424  -10.4476 C   0  0  0  0  0  0  0  0  0  0  0  0
   19.1633  -22.9414  -10.8445 C   0  0  0  0  0  0  0  0  0  0  0  0
   18.8411  -22.4139  -12.2087 C   0  0  2  0  0  0  0  0  0  0  0  0
   19.7551  -21.3124  -12.5410 N   0  0  0  0  0  0  0  0  0  0  0  0
   17.4377  -21.9798  -12.3754 C   0  0  0  0  0  0  0  0  0  0  0  0
   16.5388  -22.7891  -12.7911 O   0  0  0  0  0  0  0  0  0  0  0  0
   17.0065  -20.7050  -12.1007 O   0  0  0  0  0  0  0  0  0  0  0  0
  2  1  1  1
  2  3  1  0
  4  3  1  0
  5  4  1  0
  6  5  2  0
  7  2  1  0
  7 10  1  0
  8  7  2  0
  9  5  1  0
 11 10  1  0
 11 12  1  6
 13 12  1  0
 14 13  1  0
 15 14  1  0
 16 15  1  0
 17 11  1  0
 18 17  2  0
 20 19  1  0
 20 22  1  0
 21 20  2  0
 23 22  1  0
 24 23  1  1
 24 25  1  0
 25 17  1  0
 26 24  1  0
 27 26  2  0
 28 26  1  0
M  END
$$$$
