EKQ.pdb
     RDKit          3D

 28 27  0  0  1  0  0  0  0  0999 V2000
   25.9786  -12.7757  -15.4870 N   0  0  0  0  0  0  0  0  0  0  0  0
   26.3051  -11.7950  -16.5059 C   0  0  1  0  0  0  0  0  0  0  0  0
   26.8171  -12.5856  -17.6925 C   0  0  0  0  0  0  0  0  0  0  0  0
   25.8278  -13.6994  -18.0370 C   0  0  0  0  0  0  0  0  0  0  0  0
   26.2956  -14.4616  -19.2082 C   0  0  0  0  0  0  0  0  0  0  0  0
   27.2770  -15.2341  -19.1310 O   0  0  0  0  0  0  0  0  0  0  0  0
   25.0551  -11.0668  -16.8275 C   0  0  0  0  0  0  0  0  0  0  0  0
   25.0547  -10.1008  -17.6281 O   0  0  0  0  0  0  0  0  0  0  0  0
   25.6324  -14.3157  -20.4132 O   0  0  0  0  0  0  0  0  0  0  0  0
   23.7864  -11.4172  -16.2501 N   0  0  0  0  0  0  0  0  0  0  0  0
   22.5820  -10.6893  -16.4973 C   0  0  1  0  0  0  0  0  0  0  0  0
   21.3665  -11.5839  -16.2821 C   0  0  0  0  0  0  0  0  0  0  0  0
   20.0926  -10.9002  -16.6614 C   0  0  0  0  0  0  0  0  0  0  0  0
   18.9314  -11.8596  -16.5775 C   0  0  0  0  0  0  0  0  0  0  0  0
   17.6288  -11.2968  -17.0392 C   0  0  0  0  0  0  0  0  0  0  0  0
   16.6714  -12.4078  -17.0913 N   0  0  0  0  0  0  0  0  0  0  0  0
   22.4526   -9.4872  -15.6329 C   0  0  0  0  0  0  0  0  0  0  0  0
   23.1166   -9.3959  -14.5442 O   0  0  0  0  0  0  0  0  0  0  0  0
   22.3282   -5.0133  -12.8023 N   0  0  0  0  0  0  0  0  0  0  0  0
   22.4271   -4.2806  -14.0360 C   0  0  0  0  0  0  0  0  0  0  0  0
   22.3281   -3.0343  -13.9465 O   0  0  0  0  0  0  0  0  0  0  0  0
   22.6321   -4.9742  -15.3273 C   0  0  0  0  0  0  0  0  0  0  0  0
   22.7784   -6.4485  -15.1556 C   0  0  0  0  0  0  0  0  0  0  0  0
   21.4827   -7.1994  -15.1396 C   0  0  2  0  0  0  0  0  0  0  0  0
   21.6001   -8.4049  -15.9717 N   0  0  0  0  0  0  0  0  0  0  0  0
   20.3130   -6.4001  -15.5623 C   0  0  0  0  0  0  0  0  0  0  0  0
   19.9249   -6.3873  -16.7810 O   0  0  0  0  0  0  0  0  0  0  0  0
   19.5737   -5.6318  -14.6965 O   0  0  0  0  0  0  0  0  0  0  0  0
  2  1  1  1
  2  3  1  0
  4  3  1  0
  5  4  1  0
  6  5  2  0
  7  2  1  0
  7 10  1  0
  8  7  2  0
  9  5  1  0
 11 10  1  0
 11 12  1  1
 13 12  1  0
 14 13  1  0
 15 14  1  0
 16 15  1  0
 17 11  1  0
 18 17  2  0
 20 19  1  0
 20 22  1  0
 21 20  2  0
 23 22  1  0
 24 23  1  6
 24 25  1  0
 25 17  1  0
 26 24  1  0
 27 26  2  0
 28 26  1  0
M  END
$$$$
