EKQ.pdb
     RDKit          3D

 28 27  0  0  1  0  0  0  0  0999 V2000
   27.1411  -19.3771  -17.6115 N   0  0  0  0  0  0  0  0  0  0  0  0
   26.3379  -20.5759  -17.4561 C   0  0  1  0  0  0  0  0  0  0  0  0
   26.7758  -21.5140  -18.5621 C   0  0  0  0  0  0  0  0  0  0  0  0
   28.2917  -21.4273  -18.7432 C   0  0  0  0  0  0  0  0  0  0  0  0
   28.9135  -22.7462  -18.5312 C   0  0  0  0  0  0  0  0  0  0  0  0
   28.2827  -23.8046  -18.7496 O   0  0  0  0  0  0  0  0  0  0  0  0
   26.6355  -21.1300  -16.1141 C   0  0  0  0  0  0  0  0  0  0  0  0
   26.0617  -22.1652  -15.6978 O   0  0  0  0  0  0  0  0  0  0  0  0
   30.2201  -22.8084  -18.0817 O   0  0  0  0  0  0  0  0  0  0  0  0
   27.5848  -20.5240  -15.2212 N   0  0  0  0  0  0  0  0  0  0  0  0
   27.6527  -20.8219  -13.8255 C   0  0  1  0  0  0  0  0  0  0  0  0
   28.9590  -20.3042  -13.2342 C   0  0  0  0  0  0  0  0  0  0  0  0
   29.1627  -20.7709  -11.8290 C   0  0  0  0  0  0  0  0  0  0  0  0
   30.5864  -21.2255  -11.6231 C   0  0  0  0  0  0  0  0  0  0  0  0
   30.8743  -21.7607  -10.2603 C   0  0  0  0  0  0  0  0  0  0  0  0
   32.3152  -22.0322  -10.1974 N   0  0  0  0  0  0  0  0  0  0  0  0
   26.5170  -20.2432  -13.0612 C   0  0  0  0  0  0  0  0  0  0  0  0
   25.9667  -19.1537  -13.4415 O   0  0  0  0  0  0  0  0  0  0  0  0
   21.6884  -21.5689  -14.3090 N   0  0  0  0  0  0  0  0  0  0  0  0
   21.2596  -20.9546  -13.0813 C   0  0  0  0  0  0  0  0  0  0  0  0
   20.0276  -20.7553  -12.9654 O   0  0  0  0  0  0  0  0  0  0  0  0
   22.2306  -20.5843  -12.0274 C   0  0  0  0  0  0  0  0  0  0  0  0
   23.6363  -20.8759  -12.4316 C   0  0  0  0  0  0  0  0  0  0  0  0
   24.6560  -20.5797  -11.3755 C   0  0  2  0  0  0  0  0  0  0  0  0
   26.0012  -20.8638  -11.8942 N   0  0  0  0  0  0  0  0  0  0  0  0
   24.4380  -21.2996  -10.1027 C   0  0  0  0  0  0  0  0  0  0  0  0
   23.4389  -21.0290   -9.3513 O   0  0  0  0  0  0  0  0  0  0  0  0
   25.2726  -22.2900   -9.6455 O   0  0  0  0  0  0  0  0  0  0  0  0
  2  1  1  6
  2  3  1  0
  4  3  1  0
  5  4  1  0
  6  5  2  0
  7  2  1  0
  7 10  1  0
  8  7  2  0
  9  5  1  0
 11 10  1  0
 11 12  1  1
 13 12  1  0
 14 13  1  0
 15 14  1  0
 16 15  1  0
 17 11  1  0
 18 17  2  0
 20 19  1  0
 20 22  1  0
 21 20  2  0
 23 22  1  0
 24 23  1  6
 24 25  1  0
 25 17  1  0
 26 24  1  0
 27 26  2  0
 28 26  1  0
M  END
$$$$
