EKQ.pdb
     RDKit          3D

 28 27  0  0  1  0  0  0  0  0999 V2000
   18.8130  -12.9746  -18.2834 N   0  0  0  0  0  0  0  0  0  0  0  0
   17.7228  -12.3119  -17.5916 C   0  0  1  0  0  0  0  0  0  0  0  0
   17.5343  -13.0701  -16.2936 C   0  0  0  0  0  0  0  0  0  0  0  0
   17.0766  -14.4983  -16.5913 C   0  0  0  0  0  0  0  0  0  0  0  0
   16.9099  -15.2586  -15.3401 C   0  0  0  0  0  0  0  0  0  0  0  0
   17.0816  -14.7192  -14.2242 O   0  0  0  0  0  0  0  0  0  0  0  0
   18.1437  -10.9107  -17.3547 C   0  0  0  0  0  0  0  0  0  0  0  0
   19.3452  -10.5666  -17.4657 O   0  0  0  0  0  0  0  0  0  0  0  0
   16.5567  -16.5942  -15.4076 O   0  0  0  0  0  0  0  0  0  0  0  0
   17.2152   -9.8765  -16.9886 N   0  0  0  0  0  0  0  0  0  0  0  0
   17.5921   -8.5107  -16.8042 C   0  0  1  0  0  0  0  0  0  0  0  0
   16.3545   -7.6342  -16.6480 C   0  0  0  0  0  0  0  0  0  0  0  0
   16.6897   -6.1781  -16.6881 C   0  0  0  0  0  0  0  0  0  0  0  0
   15.4329   -5.3443  -16.6525 C   0  0  0  0  0  0  0  0  0  0  0  0
   15.6608   -3.8754  -16.7829 C   0  0  0  0  0  0  0  0  0  0  0  0
   14.3412   -3.2338  -16.8145 N   0  0  0  0  0  0  0  0  0  0  0  0
   18.4717   -8.3146  -15.6224 C   0  0  0  0  0  0  0  0  0  0  0  0
   18.4493   -9.1459  -14.6514 O   0  0  0  0  0  0  0  0  0  0  0  0
   22.8846  -10.7522  -15.4631 N   0  0  0  0  0  0  0  0  0  0  0  0
   23.4105   -9.7746  -14.5486 C   0  0  0  0  0  0  0  0  0  0  0  0
   24.5056  -10.0577  -14.0086 O   0  0  0  0  0  0  0  0  0  0  0  0
   22.6864   -8.5139  -14.2717 C   0  0  0  0  0  0  0  0  0  0  0  0
   21.3968   -8.4318  -15.0164 C   0  0  0  0  0  0  0  0  0  0  0  0
   20.5587   -7.2401  -14.6695 C   0  0  2  0  0  0  0  0  0  0  0  0
   19.3611   -7.2138  -15.5206 N   0  0  0  0  0  0  0  0  0  0  0  0
   21.2741   -5.9492  -14.7563 C   0  0  0  0  0  0  0  0  0  0  0  0
   21.9281   -5.4859  -13.7595 O   0  0  0  0  0  0  0  0  0  0  0  0
   21.2896   -5.1718  -15.8885 O   0  0  0  0  0  0  0  0  0  0  0  0
  2  1  1  6
  2  3  1  0
  4  3  1  0
  5  4  1  0
  6  5  2  0
  7  2  1  0
  7 10  1  0
  8  7  2  0
  9  5  1  0
 11 10  1  0
 11 12  1  1
 13 12  1  0
 14 13  1  0
 15 14  1  0
 16 15  1  0
 17 11  1  0
 18 17  2  0
 20 19  1  0
 20 22  1  0
 21 20  2  0
 23 22  1  0
 24 23  1  6
 24 25  1  0
 25 17  1  0
 26 24  1  0
 27 26  2  0
 28 26  1  0
M  END
$$$$
