EKQ.pdb
     RDKit          3D

 28 27  0  0  1  0  0  0  0  0999 V2000
   25.8821  -21.1383   -9.5749 N   0  0  0  0  0  0  0  0  0  0  0  0
   24.7151  -21.0868  -10.4363 C   0  0  1  0  0  0  0  0  0  0  0  0
   23.6577  -20.3327   -9.6564 C   0  0  0  0  0  0  0  0  0  0  0  0
   22.3622  -20.2734  -10.4665 C   0  0  0  0  0  0  0  0  0  0  0  0
   21.8032  -21.6248  -10.6463 C   0  0  0  0  0  0  0  0  0  0  0  0
   21.3981  -22.2955   -9.6707 O   0  0  0  0  0  0  0  0  0  0  0  0
   25.1125  -20.3631  -11.6670 C   0  0  0  0  0  0  0  0  0  0  0  0
   25.5701  -19.1960  -11.6142 O   0  0  0  0  0  0  0  0  0  0  0  0
   21.7277  -22.1564  -11.9210 O   0  0  0  0  0  0  0  0  0  0  0  0
   24.9993  -20.9451  -12.9762 N   0  0  0  0  0  0  0  0  0  0  0  0
   25.4136  -20.2799  -14.1710 C   0  0  1  0  0  0  0  0  0  0  0  0
   26.2810  -21.2027  -15.0197 C   0  0  0  0  0  0  0  0  0  0  0  0
   26.7235  -20.5471  -16.2879 C   0  0  0  0  0  0  0  0  0  0  0  0
   27.5210  -21.5104  -17.1317 C   0  0  0  0  0  0  0  0  0  0  0  0
   28.1315  -20.9057  -18.3516 C   0  0  0  0  0  0  0  0  0  0  0  0
   28.9074  -21.9599  -19.0153 N   0  0  0  0  0  0  0  0  0  0  0  0
   24.2666  -19.8103  -14.9912 C   0  0  0  0  0  0  0  0  0  0  0  0
   23.2332  -20.5471  -15.1444 O   0  0  0  0  0  0  0  0  0  0  0  0
   23.5826  -13.8583  -17.2100 N   0  0  0  0  0  0  0  0  0  0  0  0
   22.4190  -14.5307  -17.7225 C   0  0  0  0  0  0  0  0  0  0  0  0
   21.6187  -13.8245  -18.3795 O   0  0  0  0  0  0  0  0  0  0  0  0
   22.1949  -15.9730  -17.4771 C   0  0  0  0  0  0  0  0  0  0  0  0
   23.2857  -16.5798  -16.6609 C   0  0  0  0  0  0  0  0  0  0  0  0
   23.1195  -18.0453  -16.4009 C   0  0  2  0  0  0  0  0  0  0  0  0
   24.2674  -18.5437  -15.6307 N   0  0  0  0  0  0  0  0  0  0  0  0
   22.9311  -18.8603  -17.6200 C   0  0  0  0  0  0  0  0  0  0  0  0
   23.9255  -19.2039  -18.3473 O   0  0  0  0  0  0  0  0  0  0  0  0
   21.7026  -19.2991  -18.0497 O   0  0  0  0  0  0  0  0  0  0  0  0
  2  1  1  1
  2  3  1  0
  4  3  1  0
  5  4  1  0
  6  5  2  0
  7  2  1  0
  7 10  1  0
  8  7  2  0
  9  5  1  0
 11 10  1  0
 11 12  1  6
 13 12  1  0
 14 13  1  0
 15 14  1  0
 16 15  1  0
 17 11  1  0
 18 17  2  0
 20 19  1  0
 20 22  1  0
 21 20  2  0
 23 22  1  0
 24 23  1  6
 24 25  1  0
 25 17  1  0
 26 24  1  0
 27 26  2  0
 28 26  1  0
M  END
$$$$
