EKQ.pdb
     RDKit          3D

 28 27  0  0  1  0  0  0  0  0999 V2000
   22.6737  -20.6588  -12.3413 N   0  0  0  0  0  0  0  0  0  0  0  0
   22.6742  -21.5413  -13.4935 C   0  0  1  0  0  0  0  0  0  0  0  0
   21.2335  -21.9669  -13.6896 C   0  0  0  0  0  0  0  0  0  0  0  0
   20.3381  -20.7311  -13.7856 C   0  0  0  0  0  0  0  0  0  0  0  0
   18.9389  -21.1247  -14.0277 C   0  0  0  0  0  0  0  0  0  0  0  0
   18.2597  -21.6884  -13.1408 O   0  0  0  0  0  0  0  0  0  0  0  0
   23.1779  -20.7558  -14.6449 C   0  0  0  0  0  0  0  0  0  0  0  0
   23.0075  -19.5143  -14.7076 O   0  0  0  0  0  0  0  0  0  0  0  0
   18.3714  -20.8629  -15.2616 O   0  0  0  0  0  0  0  0  0  0  0  0
   23.8813  -21.3593  -15.7433 N   0  0  0  0  0  0  0  0  0  0  0  0
   24.4943  -20.6078  -16.7926 C   0  0  1  0  0  0  0  0  0  0  0  0
   25.5195  -21.4621  -17.5295 C   0  0  0  0  0  0  0  0  0  0  0  0
   26.7058  -21.7758  -16.6760 C   0  0  0  0  0  0  0  0  0  0  0  0
   27.6676  -22.6727  -17.4152 C   0  0  0  0  0  0  0  0  0  0  0  0
   28.8942  -23.0328  -16.6454 C   0  0  0  0  0  0  0  0  0  0  0  0
   29.6882  -23.9310  -17.4919 N   0  0  0  0  0  0  0  0  0  0  0  0
   23.5078  -20.0873  -17.7749 C   0  0  0  0  0  0  0  0  0  0  0  0
   22.4907  -20.7872  -18.1065 O   0  0  0  0  0  0  0  0  0  0  0  0
   18.7862  -17.4811  -17.4877 N   0  0  0  0  0  0  0  0  0  0  0  0
   19.9092  -16.7241  -17.0035 C   0  0  0  0  0  0  0  0  0  0  0  0
   19.6481  -15.8156  -16.1804 O   0  0  0  0  0  0  0  0  0  0  0  0
   21.2862  -17.0134  -17.4626 C   0  0  0  0  0  0  0  0  0  0  0  0
   21.3245  -18.1230  -18.4584 C   0  0  0  0  0  0  0  0  0  0  0  0
   22.6060  -18.2179  -19.2275 C   0  0  2  0  0  0  0  0  0  0  0  0
   23.6487  -18.8112  -18.3789 N   0  0  0  0  0  0  0  0  0  0  0  0
   23.0746  -16.9321  -19.7868 C   0  0  0  0  0  0  0  0  0  0  0  0
   24.2207  -16.4544  -19.4795 O   0  0  0  0  0  0  0  0  0  0  0  0
   22.3310  -16.1747  -20.6585 O   0  0  0  0  0  0  0  0  0  0  0  0
  2  1  1  1
  2  3  1  0
  4  3  1  0
  5  4  1  0
  6  5  2  0
  7  2  1  0
  7 10  1  0
  8  7  2  0
  9  5  1  0
 11 10  1  0
 11 12  1  6
 13 12  1  0
 14 13  1  0
 15 14  1  0
 16 15  1  0
 17 11  1  0
 18 17  2  0
 20 19  1  0
 20 22  1  0
 21 20  2  0
 23 22  1  0
 24 23  1  1
 24 25  1  0
 25 17  1  0
 26 24  1  0
 27 26  2  0
 28 26  1  0
M  END
$$$$
