ETC.pdb
     RDKit          3D

 23 22  0  0  1  0  0  0  0  0999 V2000
   27.4857  -21.8638  -11.7090 N   0  0  0  0  0  0  0  0  0  0  0  0
   26.3018  -21.0162  -11.6784 C   0  0  1  0  0  0  0  0  0  0  0  0
   26.2606  -20.2935  -10.3728 C   0  0  0  0  0  0  0  0  0  0  0  0
   25.3367  -21.0488   -9.4402 C   0  0  0  0  0  0  0  0  0  0  0  0
   23.9089  -20.8363   -9.7721 C   0  0  0  0  0  0  0  0  0  0  0  0
   23.5468  -20.2866  -10.8429 O   0  0  0  0  0  0  0  0  0  0  0  0
   26.3376  -20.0415  -12.8178 C   0  0  0  0  0  0  0  0  0  0  0  0
   27.0977  -19.0496  -12.8220 O   0  0  0  0  0  0  0  0  0  0  0  0
   22.9484  -21.2650   -8.8584 O   0  0  0  0  0  0  0  0  0  0  0  0
   27.3315  -20.5376  -16.0970 C   0  0  0  0  0  0  0  0  0  0  0  0
   25.9168  -20.0292  -16.2694 C   0  0  1  0  0  0  0  0  0  0  0  0
   25.1067  -21.1645  -16.5120 O   0  0  0  0  0  0  0  0  0  0  0  0
   25.4249  -19.3270  -15.0499 C   0  0  2  0  0  0  0  0  0  0  0  0
   25.4848  -20.2441  -13.9289 N   0  0  0  0  0  0  0  0  0  0  0  0
   24.1034  -18.7071  -15.1992 C   0  0  0  0  0  0  0  0  0  0  0  0
   23.1251  -19.1779  -14.5748 O   0  0  0  0  0  0  0  0  0  0  0  0
   23.8769  -17.5814  -16.0323 N   0  0  0  0  0  0  0  0  0  0  0  0
   22.5562  -17.0008  -16.1746 C   0  0  1  0  0  0  0  0  0  0  0  0
   22.7023  -15.6332  -16.7860 C   0  0  0  0  0  0  0  0  0  0  0  0
   21.1380  -14.7648  -16.9319 S   0  0  0  0  0  0  0  0  0  0  0  0
   21.7929  -17.8711  -17.1375 C   0  0  0  0  0  0  0  0  0  0  0  0
   20.4213  -18.0595  -17.0321 O   0  0  0  0  0  0  0  0  0  0  0  0
   22.3777  -18.4648  -18.0823 O   0  0  0  0  0  0  0  0  0  0  0  0
  2  1  1  1
  2  3  1  0
  4  3  1  0
  5  4  1  0
  6  5  2  0
  7  2  1  0
  7  8  2  0
  9  5  1  0
 11 10  1  1
 11 12  1  0
 11 13  1  0
 13 14  1  1
 14  7  1  0
 15 13  1  0
 16 15  2  0
 17 15  1  0
 18 17  1  0
 18 21  1  0
 19 20  1  0
 18 19  1  6
 21 22  1  0
 23 21  2  0
M  END
$$$$
