ETC.pdb
     RDKit          3D

 23 22  0  0  1  0  0  0  0  0999 V2000
   18.5478  -10.9234  -17.2872 N   0  0  0  0  0  0  0  0  0  0  0  0
   18.3431  -10.7268  -15.8588 C   0  0  1  0  0  0  0  0  0  0  0  0
   18.2033  -12.0613  -15.2042 C   0  0  0  0  0  0  0  0  0  0  0  0
   16.9443  -12.7190  -15.7296 C   0  0  0  0  0  0  0  0  0  0  0  0
   17.2269  -13.6785  -16.8220 C   0  0  0  0  0  0  0  0  0  0  0  0
   16.6750  -13.5902  -17.9479 O   0  0  0  0  0  0  0  0  0  0  0  0
   19.4993   -9.9725  -15.2727 C   0  0  0  0  0  0  0  0  0  0  0  0
   19.6042   -9.7629  -14.0452 O   0  0  0  0  0  0  0  0  0  0  0  0
   18.1359  -14.7060  -16.5788 O   0  0  0  0  0  0  0  0  0  0  0  0
   23.0735  -10.6887  -16.2262 C   0  0  0  0  0  0  0  0  0  0  0  0
   22.8706   -9.1961  -16.3694 C   0  0  1  0  0  0  0  0  0  0  0  0
   22.7201   -8.9403  -17.7537 O   0  0  0  0  0  0  0  0  0  0  0  0
   21.6525   -8.7280  -15.6488 C   0  0  2  0  0  0  0  0  0  0  0  0
   20.5095   -9.4775  -16.1315 N   0  0  0  0  0  0  0  0  0  0  0  0
   21.4369   -7.2777  -15.7017 C   0  0  0  0  0  0  0  0  0  0  0  0
   20.8607   -6.7737  -16.6929 O   0  0  0  0  0  0  0  0  0  0  0  0
   21.8583   -6.4040  -14.6665 N   0  0  0  0  0  0  0  0  0  0  0  0
   21.6070   -4.9777  -14.7331 C   0  0  1  0  0  0  0  0  0  0  0  0
   20.1380   -4.7435  -14.5041 C   0  0  0  0  0  0  0  0  0  0  0  0
   19.7558   -3.0293  -14.1325 S   0  0  0  0  0  0  0  0  0  0  0  0
   22.3702   -4.3418  -13.6015 C   0  0  0  0  0  0  0  0  0  0  0  0
   22.7639   -3.0108  -13.6346 O   0  0  0  0  0  0  0  0  0  0  0  0
   22.6813   -5.0016  -12.5744 O   0  0  0  0  0  0  0  0  0  0  0  0
  2  1  1  6
  2  3  1  0
  4  3  1  0
  5  4  1  0
  6  5  2  0
  7  2  1  0
  7  8  2  0
  9  5  1  0
 11 10  1  6
 11 12  1  0
 11 13  1  0
 13 14  1  6
 14  7  1  0
 15 13  1  0
 16 15  2  0
 17 15  1  0
 18 17  1  0
 18 21  1  0
 19 20  1  0
 18 19  1  1
 21 22  1  0
 23 21  2  0
M  END
$$$$
