ETC.pdb
     RDKit          3D

 23 22  0  0  1  0  0  0  0  0999 V2000
   14.2411  -10.4531  -15.7559 N   0  0  0  0  0  0  0  0  0  0  0  0
   15.5354  -10.2435  -15.1221 C   0  0  1  0  0  0  0  0  0  0  0  0
   16.4486  -11.3582  -15.5121 C   0  0  0  0  0  0  0  0  0  0  0  0
   16.0253  -12.6041  -14.7624 C   0  0  0  0  0  0  0  0  0  0  0  0
   16.9309  -13.7478  -15.0190 C   0  0  0  0  0  0  0  0  0  0  0  0
   16.6270  -14.6757  -15.8107 O   0  0  0  0  0  0  0  0  0  0  0  0
   16.1073   -8.9231  -15.5452 C   0  0  0  0  0  0  0  0  0  0  0  0
   16.1051   -8.5475  -16.7370 O   0  0  0  0  0  0  0  0  0  0  0  0
   18.1551  -13.7819  -14.3546 O   0  0  0  0  0  0  0  0  0  0  0  0
   16.9953   -4.3457  -14.7814 C   0  0  0  0  0  0  0  0  0  0  0  0
   16.3367   -5.7050  -14.6918 C   0  0  1  0  0  0  0  0  0  0  0  0
   15.3582   -5.7476  -15.7140 O   0  0  0  0  0  0  0  0  0  0  0  0
   17.3131   -6.8118  -14.9010 C   0  0  2  0  0  0  0  0  0  0  0  0
   16.6708   -8.0680  -14.5682 N   0  0  0  0  0  0  0  0  0  0  0  0
   18.5915   -6.6320  -14.2038 C   0  0  0  0  0  0  0  0  0  0  0  0
   18.6746   -6.9037  -12.9840 O   0  0  0  0  0  0  0  0  0  0  0  0
   19.7577   -6.1557  -14.8563 N   0  0  0  0  0  0  0  0  0  0  0  0
   21.0048   -5.9772  -14.1390 C   0  0  1  0  0  0  0  0  0  0  0  0
   22.0750   -6.7662  -14.8443 C   0  0  0  0  0  0  0  0  0  0  0  0
   23.7259   -6.3863  -14.2504 S   0  0  0  0  0  0  0  0  0  0  0  0
   21.3586   -4.5161  -14.2257 C   0  0  0  0  0  0  0  0  0  0  0  0
   22.1445   -3.8903  -13.2674 O   0  0  0  0  0  0  0  0  0  0  0  0
   20.9501   -3.8030  -15.1805 O   0  0  0  0  0  0  0  0  0  0  0  0
  2  1  1  6
  2  3  1  0
  4  3  1  0
  5  4  1  0
  6  5  2  0
  7  2  1  0
  7  8  2  0
  9  5  1  0
 11 10  1  6
 11 12  1  0
 11 13  1  0
 13 14  1  1
 14  7  1  0
 15 13  1  0
 16 15  2  0
 17 15  1  0
 18 17  1  0
 18 21  1  0
 19 20  1  0
 18 19  1  6
 21 22  1  0
 23 21  2  0
M  END
$$$$
