ETC.pdb
     RDKit          3D

 23 22  0  0  1  0  0  0  0  0999 V2000
   20.5546  -14.7736  -20.9994 N   0  0  0  0  0  0  0  0  0  0  0  0
   21.1895  -14.5262  -19.7122 C   0  0  1  0  0  0  0  0  0  0  0  0
   21.9587  -15.7418  -19.3133 C   0  0  0  0  0  0  0  0  0  0  0  0
   21.0133  -16.6931  -18.6096 C   0  0  0  0  0  0  0  0  0  0  0  0
   21.6308  -18.0166  -18.3625 C   0  0  0  0  0  0  0  0  0  0  0  0
   21.0115  -18.9449  -17.7840 O   0  0  0  0  0  0  0  0  0  0  0  0
   22.0983  -13.3368  -19.8073 C   0  0  0  0  0  0  0  0  0  0  0  0
   22.7405  -13.0707  -20.8457 O   0  0  0  0  0  0  0  0  0  0  0  0
   22.9402  -18.2239  -18.7911 O   0  0  0  0  0  0  0  0  0  0  0  0
   22.7275  -11.1373  -21.1529 C   0  0  0  0  0  0  0  0  0  0  0  0
   22.6768  -10.4239  -19.8195 C   0  0  1  0  0  0  0  0  0  0  0  0
   21.3319  -10.0270  -19.6251 O   0  0  0  0  0  0  0  0  0  0  0  0
   23.0937  -11.3115  -18.6968 C   0  0  2  0  0  0  0  0  0  0  0  0
   22.2395  -12.4826  -18.6877 N   0  0  0  0  0  0  0  0  0  0  0  0
   23.1521  -10.6480  -17.3894 C   0  0  0  0  0  0  0  0  0  0  0  0
   22.1330  -10.6238  -16.6618 O   0  0  0  0  0  0  0  0  0  0  0  0
   24.3277  -10.0208  -16.9024 N   0  0  0  0  0  0  0  0  0  0  0  0
   24.3431   -9.3321  -15.6268 C   0  0  1  0  0  0  0  0  0  0  0  0
   25.7764   -9.1214  -15.2185 C   0  0  0  0  0  0  0  0  0  0  0  0
   26.6211  -10.6558  -14.8248 S   0  0  0  0  0  0  0  0  0  0  0  0
   23.7098   -7.9837  -15.8456 C   0  0  0  0  0  0  0  0  0  0  0  0
   23.0801   -7.2905  -14.8206 O   0  0  0  0  0  0  0  0  0  0  0  0
   23.7293   -7.4313  -16.9777 O   0  0  0  0  0  0  0  0  0  0  0  0
  2  1  1  6
  2  3  1  0
  4  3  1  0
  5  4  1  0
  6  5  2  0
  7  2  1  0
  7  8  2  0
  9  5  1  0
 11 10  1  6
 11 12  1  0
 11 13  1  0
 13 14  1  1
 14  7  1  0
 15 13  1  0
 16 15  2  0
 17 15  1  0
 18 17  1  0
 18 21  1  0
 19 20  1  0
 18 19  1  6
 21 22  1  0
 23 21  2  0
M  END
$$$$
