ETC.pdb
     RDKit          3D

 23 22  0  0  1  0  0  0  0  0999 V2000
   23.0614  -13.7747  -18.0781 N   0  0  0  0  0  0  0  0  0  0  0  0
   22.2024  -12.6007  -18.1490 C   0  0  1  0  0  0  0  0  0  0  0  0
   20.8625  -12.9501  -17.5913 C   0  0  0  0  0  0  0  0  0  0  0  0
   20.2511  -14.0276  -18.4624 C   0  0  0  0  0  0  0  0  0  0  0  0
   19.5579  -15.0663  -17.6659 C   0  0  0  0  0  0  0  0  0  0  0  0
   18.5258  -14.8147  -16.9940 O   0  0  0  0  0  0  0  0  0  0  0  0
   22.8139  -11.4689  -17.3779 C   0  0  0  0  0  0  0  0  0  0  0  0
   23.6771  -11.6551  -16.4937 O   0  0  0  0  0  0  0  0  0  0  0  0
   20.0783  -16.3588  -17.6719 O   0  0  0  0  0  0  0  0  0  0  0  0
   24.5214   -7.0547  -17.4780 C   0  0  0  0  0  0  0  0  0  0  0  0
   23.9457   -8.3504  -18.0064 C   0  0  1  0  0  0  0  0  0  0  0  0
   25.0427   -9.2152  -18.2364 O   0  0  0  0  0  0  0  0  0  0  0  0
   23.0162   -8.9861  -17.0296 C   0  0  2  0  0  0  0  0  0  0  0  0
   22.4046  -10.1425  -17.6542 N   0  0  0  0  0  0  0  0  0  0  0  0
   22.0266   -8.0706  -16.4507 C   0  0  0  0  0  0  0  0  0  0  0  0
   21.0854   -7.6476  -17.1605 O   0  0  0  0  0  0  0  0  0  0  0  0
   22.0867   -7.6333  -15.1024 N   0  0  0  0  0  0  0  0  0  0  0  0
   21.0591   -6.7799  -14.5389 C   0  0  1  0  0  0  0  0  0  0  0  0
   20.8620   -7.1633  -13.0968 C   0  0  0  0  0  0  0  0  0  0  0  0
   20.2326   -8.8329  -12.8999 S   0  0  0  0  0  0  0  0  0  0  0  0
   21.5824   -5.3687  -14.5866 C   0  0  0  0  0  0  0  0  0  0  0  0
   20.7718   -4.2731  -14.3213 O   0  0  0  0  0  0  0  0  0  0  0  0
   22.7861   -5.1301  -14.8716 O   0  0  0  0  0  0  0  0  0  0  0  0
  2  1  1  1
  2  3  1  0
  4  3  1  0
  5  4  1  0
  6  5  2  0
  7  2  1  0
  7  8  2  0
  9  5  1  0
 11 10  1  1
 11 12  1  0
 11 13  1  0
 13 14  1  6
 14  7  1  0
 15 13  1  0
 16 15  2  0
 17 15  1  0
 18 17  1  0
 18 21  1  0
 19 20  1  0
 18 19  1  1
 21 22  1  0
 23 21  2  0
M  END
$$$$
