ETC.pdb
     RDKit          3D

 23 22  0  0  1  0  0  0  0  0999 V2000
   18.4670  -12.9469  -16.4906 N   0  0  0  0  0  0  0  0  0  0  0  0
   18.2596  -11.5109  -16.6165 C   0  0  1  0  0  0  0  0  0  0  0  0
   17.1066  -11.1136  -15.7556 C   0  0  0  0  0  0  0  0  0  0  0  0
   15.8370  -11.6491  -16.3844 C   0  0  0  0  0  0  0  0  0  0  0  0
   14.6306  -11.2928  -15.6024 C   0  0  0  0  0  0  0  0  0  0  0  0
   13.7531  -10.5106  -16.0475 O   0  0  0  0  0  0  0  0  0  0  0  0
   19.5001  -10.7743  -16.2063 C   0  0  0  0  0  0  0  0  0  0  0  0
   20.2770  -11.2138  -15.3318 O   0  0  0  0  0  0  0  0  0  0  0  0
   14.4775  -11.8507  -14.3348 O   0  0  0  0  0  0  0  0  0  0  0  0
   22.1163   -9.8055  -18.5130 C   0  0  0  0  0  0  0  0  0  0  0  0
   21.7398   -8.5251  -17.7999 C   0  0  1  0  0  0  0  0  0  0  0  0
   20.8933   -7.8076  -18.6788 O   0  0  0  0  0  0  0  0  0  0  0  0
   21.0127   -8.7903  -16.5258 C   0  0  2  0  0  0  0  0  0  0  0  0
   19.8081   -9.5392  -16.8249 N   0  0  0  0  0  0  0  0  0  0  0  0
   20.7453   -7.5935  -15.7203 C   0  0  0  0  0  0  0  0  0  0  0  0
   19.6405   -7.0127  -15.8232 O   0  0  0  0  0  0  0  0  0  0  0  0
   21.6952   -7.0531  -14.8158 N   0  0  0  0  0  0  0  0  0  0  0  0
   21.4168   -5.8482  -14.0590 C   0  0  1  0  0  0  0  0  0  0  0  0
   21.7241   -6.1163  -12.6102 C   0  0  0  0  0  0  0  0  0  0  0  0
   20.6268   -7.3347  -11.8794 S   0  0  0  0  0  0  0  0  0  0  0  0
   22.3626   -4.7869  -14.5554 C   0  0  0  0  0  0  0  0  0  0  0  0
   22.2662   -3.4640  -14.1452 O   0  0  0  0  0  0  0  0  0  0  0  0
   23.2841   -5.0647  -15.3683 O   0  0  0  0  0  0  0  0  0  0  0  0
  2  1  1  1
  2  3  1  0
  4  3  1  0
  5  4  1  0
  6  5  2  0
  7  2  1  0
  7  8  2  0
  9  5  1  0
 11 10  1  6
 11 12  1  0
 11 13  1  0
 13 14  1  6
 14  7  1  0
 15 13  1  0
 16 15  2  0
 17 15  1  0
 18 17  1  0
 18 21  1  0
 19 20  1  0
 18 19  1  1
 21 22  1  0
 23 21  2  0
M  END
$$$$
