ETC.pdb
     RDKit          3D

 23 22  0  0  1  0  0  0  0  0999 V2000
   15.3665  -10.8938  -15.9492 N   0  0  0  0  0  0  0  0  0  0  0  0
   16.6445  -10.5844  -15.3232 C   0  0  1  0  0  0  0  0  0  0  0  0
   17.6527  -11.5940  -15.7623 C   0  0  0  0  0  0  0  0  0  0  0  0
   17.2949  -12.9263  -15.1372 C   0  0  0  0  0  0  0  0  0  0  0  0
   18.2709  -13.9865  -15.4798 C   0  0  0  0  0  0  0  0  0  0  0  0
   19.2465  -13.7746  -16.2435 O   0  0  0  0  0  0  0  0  0  0  0  0
   17.0834   -9.2023  -15.7063 C   0  0  0  0  0  0  0  0  0  0  0  0
   17.6345   -8.9580  -16.8009 O   0  0  0  0  0  0  0  0  0  0  0  0
   18.0886  -15.2536  -14.9299 O   0  0  0  0  0  0  0  0  0  0  0  0
   16.5398   -4.4186  -15.1965 C   0  0  0  0  0  0  0  0  0  0  0  0
   16.1476   -5.8616  -14.9651 C   0  0  1  0  0  0  0  0  0  0  0  0
   15.2058   -6.1899  -15.9698 O   0  0  0  0  0  0  0  0  0  0  0  0
   17.3169   -6.7802  -15.0697 C   0  0  2  0  0  0  0  0  0  0  0  0
   16.8707   -8.1334  -14.8033 N   0  0  0  0  0  0  0  0  0  0  0  0
   18.4665   -6.3943  -14.2437 C   0  0  0  0  0  0  0  0  0  0  0  0
   18.6508   -6.9553  -13.1393 O   0  0  0  0  0  0  0  0  0  0  0  0
   19.3944   -5.3982  -14.6428 N   0  0  0  0  0  0  0  0  0  0  0  0
   20.5092   -5.0219  -13.7959 C   0  0  1  0  0  0  0  0  0  0  0  0
   21.5275   -6.1297  -13.8319 C   0  0  0  0  0  0  0  0  0  0  0  0
   23.0727   -5.6814  -13.0357 S   0  0  0  0  0  0  0  0  0  0  0  0
   21.1278   -3.7901  -14.4019 C   0  0  0  0  0  0  0  0  0  0  0  0
   20.8627   -3.3987  -15.7074 O   0  0  0  0  0  0  0  0  0  0  0  0
   21.9153   -3.0637  -13.7391 O   0  0  0  0  0  0  0  0  0  0  0  0
  2  1  1  6
  2  3  1  0
  4  3  1  0
  5  4  1  0
  6  5  2  0
  7  2  1  0
  7  8  2  0
  9  5  1  0
 11 10  1  6
 11 12  1  0
 11 13  1  0
 13 14  1  1
 14  7  1  0
 15 13  1  0
 16 15  2  0
 17 15  1  0
 18 17  1  0
 18 21  1  0
 19 20  1  0
 18 19  1  6
 21 22  1  0
 23 21  2  0
M  END
$$$$
