ETC.pdb
     RDKit          3D

 23 22  0  0  1  0  0  0  0  0999 V2000
   19.2251  -12.5768  -17.0087 N   0  0  0  0  0  0  0  0  0  0  0  0
   20.2030  -11.4990  -16.9538 C   0  0  1  0  0  0  0  0  0  0  0  0
   20.6530  -11.1860  -18.3424 C   0  0  0  0  0  0  0  0  0  0  0  0
   21.2470  -12.4425  -18.9443 C   0  0  0  0  0  0  0  0  0  0  0  0
   21.7884  -12.2113  -20.3034 C   0  0  0  0  0  0  0  0  0  0  0  0
   21.2001  -12.6223  -21.3354 O   0  0  0  0  0  0  0  0  0  0  0  0
   19.5965  -10.2866  -16.3121 C   0  0  0  0  0  0  0  0  0  0  0  0
   18.3611  -10.1040  -16.2683 O   0  0  0  0  0  0  0  0  0  0  0  0
   22.9885  -11.5142  -20.4257 O   0  0  0  0  0  0  0  0  0  0  0  0
   19.6290   -9.5234  -13.0207 C   0  0  0  0  0  0  0  0  0  0  0  0
   18.9890   -8.5592  -13.9956 C   0  0  1  0  0  0  0  0  0  0  0  0
   18.5933   -7.4275  -13.2428 O   0  0  0  0  0  0  0  0  0  0  0  0
   19.9397   -8.1316  -15.0613 C   0  0  2  0  0  0  0  0  0  0  0  0
   20.4446   -9.3116  -15.7351 N   0  0  0  0  0  0  0  0  0  0  0  0
   21.0137   -7.2469  -14.5959 C   0  0  0  0  0  0  0  0  0  0  0  0
   21.9416   -7.7151  -13.8971 O   0  0  0  0  0  0  0  0  0  0  0  0
   21.0511   -5.8627  -14.9040 N   0  0  0  0  0  0  0  0  0  0  0  0
   22.1912   -5.0406  -14.5488 C   0  0  1  0  0  0  0  0  0  0  0  0
   22.6693   -4.3316  -15.7874 C   0  0  0  0  0  0  0  0  0  0  0  0
   23.1250   -5.4625  -17.1051 S   0  0  0  0  0  0  0  0  0  0  0  0
   21.7016   -4.0063  -13.5701 C   0  0  0  0  0  0  0  0  0  0  0  0
   22.5747   -3.2032  -12.8486 O   0  0  0  0  0  0  0  0  0  0  0  0
   20.4703   -3.8312  -13.3695 O   0  0  0  0  0  0  0  0  0  0  0  0
  2  1  1  6
  2  3  1  0
  4  3  1  0
  5  4  1  0
  6  5  2  0
  7  2  1  0
  7  8  2  0
  9  5  1  0
 11 10  1  1
 11 12  1  0
 11 13  1  0
 13 14  1  1
 14  7  1  0
 15 13  1  0
 16 15  2  0
 17 15  1  0
 18 17  1  0
 18 21  1  0
 19 20  1  0
 18 19  1  6
 21 22  1  0
 23 21  2  0
M  END
$$$$
