ETC.pdb
     RDKit          3D

 23 22  0  0  1  0  0  0  0  0999 V2000
   15.1598  -11.1550  -16.8187 N   0  0  0  0  0  0  0  0  0  0  0  0
   16.4216  -10.9749  -16.1142 C   0  0  1  0  0  0  0  0  0  0  0  0
   17.3926  -12.0016  -16.5954 C   0  0  0  0  0  0  0  0  0  0  0  0
   17.0532  -13.3226  -15.9370 C   0  0  0  0  0  0  0  0  0  0  0  0
   18.2594  -14.0373  -15.4594 C   0  0  0  0  0  0  0  0  0  0  0  0
   18.4958  -15.2316  -15.7723 O   0  0  0  0  0  0  0  0  0  0  0  0
   16.9536   -9.5938  -16.3571 C   0  0  0  0  0  0  0  0  0  0  0  0
   16.5748   -8.8942  -17.3207 O   0  0  0  0  0  0  0  0  0  0  0  0
   19.1511  -13.3506  -14.6381 O   0  0  0  0  0  0  0  0  0  0  0  0
   16.2083   -7.0210  -16.5156 C   0  0  0  0  0  0  0  0  0  0  0  0
   17.2596   -6.7603  -15.4590 C   0  0  1  0  0  0  0  0  0  0  0  0
   16.6287   -6.9513  -14.2062 O   0  0  0  0  0  0  0  0  0  0  0  0
   18.4118   -7.6990  -15.5762 C   0  0  2  0  0  0  0  0  0  0  0  0
   17.9176   -9.0576  -15.4703 N   0  0  0  0  0  0  0  0  0  0  0  0
   19.5123   -7.4268  -14.6449 C   0  0  0  0  0  0  0  0  0  0  0  0
   19.4397   -7.8381  -13.4642 O   0  0  0  0  0  0  0  0  0  0  0  0
   20.6742   -6.7066  -15.0243 N   0  0  0  0  0  0  0  0  0  0  0  0
   21.7693   -6.4976  -14.0975 C   0  0  1  0  0  0  0  0  0  0  0  0
   23.0249   -7.0543  -14.7133 C   0  0  0  0  0  0  0  0  0  0  0  0
   22.9553   -8.8325  -14.9498 S   0  0  0  0  0  0  0  0  0  0  0  0
   21.9377   -5.0094  -13.9416 C   0  0  0  0  0  0  0  0  0  0  0  0
   22.5662   -4.4509  -12.8367 O   0  0  0  0  0  0  0  0  0  0  0  0
   21.5103   -4.2107  -14.8170 O   0  0  0  0  0  0  0  0  0  0  0  0
  2  1  1  6
  2  3  1  0
  4  3  1  0
  5  4  1  0
  6  5  2  0
  7  2  1  0
  7  8  2  0
  9  5  1  0
 11 10  1  6
 11 12  1  0
 11 13  1  0
 13 14  1  1
 14  7  1  0
 15 13  1  0
 16 15  2  0
 17 15  1  0
 18 17  1  0
 18 21  1  0
 19 20  1  0
 18 19  1  6
 21 22  1  0
 23 21  2  0
M  END
$$$$
