ETC.pdb
     RDKit          3D

 23 22  0  0  1  0  0  0  0  0999 V2000
   26.0081  -18.8429  -18.9836 N   0  0  0  0  0  0  0  0  0  0  0  0
   26.5940  -19.2310  -17.7080 C   0  0  1  0  0  0  0  0  0  0  0  0
   27.9131  -18.5487  -17.5566 C   0  0  0  0  0  0  0  0  0  0  0  0
   28.9208  -19.2617  -18.4340 C   0  0  0  0  0  0  0  0  0  0  0  0
   29.0555  -18.6250  -19.7645 C   0  0  0  0  0  0  0  0  0  0  0  0
   28.4063  -19.0235  -20.7644 O   0  0  0  0  0  0  0  0  0  0  0  0
   25.6751  -18.8540  -16.5842 C   0  0  0  0  0  0  0  0  0  0  0  0
   24.8854  -17.8889  -16.6649 O   0  0  0  0  0  0  0  0  0  0  0  0
   29.9335  -17.5511  -19.8961 O   0  0  0  0  0  0  0  0  0  0  0  0
   23.1549  -18.7902  -16.1303 C   0  0  0  0  0  0  0  0  0  0  0  0
   23.3663  -19.5889  -14.8626 C   0  0  1  0  0  0  0  0  0  0  0  0
   23.1714  -20.9486  -15.2050 O   0  0  0  0  0  0  0  0  0  0  0  0
   24.7421  -19.4129  -14.3163 C   0  0  2  0  0  0  0  0  0  0  0  0
   25.6972  -19.6109  -15.3886 N   0  0  0  0  0  0  0  0  0  0  0  0
   25.0375  -20.2391  -13.1404 C   0  0  0  0  0  0  0  0  0  0  0  0
   26.0292  -21.0038  -13.1549 O   0  0  0  0  0  0  0  0  0  0  0  0
   24.2390  -20.2134  -11.9681 N   0  0  0  0  0  0  0  0  0  0  0  0
   24.5952  -20.9868  -10.7947 C   0  0  1  0  0  0  0  0  0  0  0  0
   25.8664  -20.4207  -10.2212 C   0  0  0  0  0  0  0  0  0  0  0  0
   26.1026  -20.8492   -8.4940 S   0  0  0  0  0  0  0  0  0  0  0  0
   23.4933  -20.7927   -9.7870 C   0  0  0  0  0  0  0  0  0  0  0  0
   23.3272  -21.6451   -8.7036 O   0  0  0  0  0  0  0  0  0  0  0  0
   22.6753  -19.8404   -9.8922 O   0  0  0  0  0  0  0  0  0  0  0  0
  2  1  1  6
  2  3  1  0
  4  3  1  0
  5  4  1  0
  6  5  2  0
  7  2  1  0
  7  8  2  0
  9  5  1  0
 11 10  1  6
 11 12  1  0
 11 13  1  0
 13 14  1  6
 14  7  1  0
 15 13  1  0
 16 15  2  0
 17 15  1  0
 18 17  1  0
 18 21  1  0
 19 20  1  0
 18 19  1  1
 21 22  1  0
 23 21  2  0
M  END
$$$$
