ETC.pdb
     RDKit          3D

 23 22  0  0  1  0  0  0  0  0999 V2000
   19.4784  -13.3230  -16.7498 N   0  0  0  0  0  0  0  0  0  0  0  0
   18.9207  -12.0480  -16.3203 C   0  0  1  0  0  0  0  0  0  0  0  0
   17.8031  -12.3086  -15.3655 C   0  0  0  0  0  0  0  0  0  0  0  0
   16.7825  -13.1886  -16.0568 C   0  0  0  0  0  0  0  0  0  0  0  0
   15.6741  -13.5770  -15.1544 C   0  0  0  0  0  0  0  0  0  0  0  0
   15.7245  -14.6110  -14.4414 O   0  0  0  0  0  0  0  0  0  0  0  0
   19.9844  -11.2146  -15.6695 C   0  0  0  0  0  0  0  0  0  0  0  0
   20.9076  -11.7203  -14.9961 O   0  0  0  0  0  0  0  0  0  0  0  0
   14.5466  -12.7600  -15.1049 O   0  0  0  0  0  0  0  0  0  0  0  0
   22.4504   -9.3845  -17.1297 C   0  0  0  0  0  0  0  0  0  0  0  0
   21.7642   -8.3282  -16.2912 C   0  0  1  0  0  0  0  0  0  0  0  0
   20.9318   -7.5936  -17.1696 O   0  0  0  0  0  0  0  0  0  0  0  0
   20.9296   -8.9291  -15.2121 C   0  0  2  0  0  0  0  0  0  0  0  0
   19.9483   -9.8075  -15.8175 N   0  0  0  0  0  0  0  0  0  0  0  0
   20.3235   -7.9527  -14.3000 C   0  0  0  0  0  0  0  0  0  0  0  0
   19.1089   -8.0481  -14.0099 O   0  0  0  0  0  0  0  0  0  0  0  0
   21.0599   -6.8867  -13.7222 N   0  0  0  0  0  0  0  0  0  0  0  0
   20.4435   -5.9589  -12.7942 C   0  0  1  0  0  0  0  0  0  0  0  0
   20.1192   -6.7015  -11.5258 C   0  0  0  0  0  0  0  0  0  0  0  0
   19.6480   -5.6098  -10.1809 S   0  0  0  0  0  0  0  0  0  0  0  0
   21.4706   -4.9047  -12.4765 C   0  0  0  0  0  0  0  0  0  0  0  0
   21.1227   -3.5773  -12.2649 O   0  0  0  0  0  0  0  0  0  0  0  0
   22.6940   -5.1927  -12.3905 O   0  0  0  0  0  0  0  0  0  0  0  0
  2  1  1  1
  2  3  1  0
  4  3  1  0
  5  4  1  0
  6  5  2  0
  7  2  1  0
  7  8  2  0
  9  5  1  0
 11 10  1  6
 11 12  1  0
 11 13  1  0
 13 14  1  6
 14  7  1  0
 15 13  1  0
 16 15  2  0
 17 15  1  0
 18 17  1  0
 18 21  1  0
 19 20  1  0
 18 19  1  1
 21 22  1  0
 23 21  2  0
M  END
$$$$
