ETC.pdb
     RDKit          3D

 23 22  0  0  1  0  0  0  0  0999 V2000
   18.9261  -13.9553  -18.2084 N   0  0  0  0  0  0  0  0  0  0  0  0
   18.4379  -12.6576  -17.7627 C   0  0  1  0  0  0  0  0  0  0  0  0
   17.7011  -12.8361  -16.4767 C   0  0  0  0  0  0  0  0  0  0  0  0
   16.5076  -13.7327  -16.7330 C   0  0  0  0  0  0  0  0  0  0  0  0
   15.6632  -13.9002  -15.5277 C   0  0  0  0  0  0  0  0  0  0  0  0
   14.5398  -13.3473  -15.4172 O   0  0  0  0  0  0  0  0  0  0  0  0
   19.5865  -11.7100  -17.5832 C   0  0  0  0  0  0  0  0  0  0  0  0
   20.7276  -12.1010  -17.2569 O   0  0  0  0  0  0  0  0  0  0  0  0
   16.1428  -14.6994  -14.4920 O   0  0  0  0  0  0  0  0  0  0  0  0
   20.7510   -9.4232  -20.0952 C   0  0  0  0  0  0  0  0  0  0  0  0
   20.5370   -8.5440  -18.8825 C   0  0  1  0  0  0  0  0  0  0  0  0
   19.3215   -7.8505  -19.0962 O   0  0  0  0  0  0  0  0  0  0  0  0
   20.4326   -9.3418  -17.6276 C   0  0  2  0  0  0  0  0  0  0  0  0
   19.3795  -10.3249  -17.7876 N   0  0  0  0  0  0  0  0  0  0  0  0
   20.2718   -8.5385  -16.4104 C   0  0  0  0  0  0  0  0  0  0  0  0
   19.1260   -8.3476  -15.9421 O   0  0  0  0  0  0  0  0  0  0  0  0
   21.3709   -7.9568  -15.7276 N   0  0  0  0  0  0  0  0  0  0  0  0
   21.1735   -7.0198  -14.6391 C   0  0  1  0  0  0  0  0  0  0  0  0
   21.5204   -7.7120  -13.3484 C   0  0  0  0  0  0  0  0  0  0  0  0
   21.3863   -6.6318  -11.9209 S   0  0  0  0  0  0  0  0  0  0  0  0
   22.1469   -5.8900  -14.8473 C   0  0  0  0  0  0  0  0  0  0  0  0
   21.9475   -4.6338  -14.2907 O   0  0  0  0  0  0  0  0  0  0  0  0
   23.1872   -6.0465  -15.5405 O   0  0  0  0  0  0  0  0  0  0  0  0
  2  1  1  1
  2  3  1  0
  4  3  1  0
  5  4  1  0
  6  5  2  0
  7  2  1  0
  7  8  2  0
  9  5  1  0
 11 10  1  6
 11 12  1  0
 11 13  1  0
 13 14  1  6
 14  7  1  0
 15 13  1  0
 16 15  2  0
 17 15  1  0
 18 17  1  0
 18 21  1  0
 19 20  1  0
 18 19  1  1
 21 22  1  0
 23 21  2  0
M  END
$$$$
