ETC.pdb
     RDKit          3D

 23 22  0  0  1  0  0  0  0  0999 V2000
   19.5331  -14.7281  -16.9041 N   0  0  0  0  0  0  0  0  0  0  0  0
   18.8493  -13.4442  -16.9755 C   0  0  1  0  0  0  0  0  0  0  0  0
   18.0421  -13.2589  -15.7334 C   0  0  0  0  0  0  0  0  0  0  0  0
   16.9051  -14.2592  -15.7515 C   0  0  0  0  0  0  0  0  0  0  0  0
   15.9378  -14.0284  -14.6538 C   0  0  0  0  0  0  0  0  0  0  0  0
   14.9139  -13.3151  -14.8049 O   0  0  0  0  0  0  0  0  0  0  0  0
   19.8495  -12.3363  -17.1226 C   0  0  0  0  0  0  0  0  0  0  0  0
   21.0464  -12.4712  -16.7900 O   0  0  0  0  0  0  0  0  0  0  0  0
   16.1842  -14.6279  -13.4204 O   0  0  0  0  0  0  0  0  0  0  0  0
   20.9972   -8.1971  -19.4513 C   0  0  0  0  0  0  0  0  0  0  0  0
   20.1019   -9.3885  -19.1895 C   0  0  1  0  0  0  0  0  0  0  0  0
   20.4151  -10.3533  -20.1770 O   0  0  0  0  0  0  0  0  0  0  0  0
   20.3356   -9.9748  -17.8391 C   0  0  2  0  0  0  0  0  0  0  0  0
   19.4319  -11.0931  -17.6546 N   0  0  0  0  0  0  0  0  0  0  0  0
   20.2655   -9.0076  -16.7380 C   0  0  0  0  0  0  0  0  0  0  0  0
   19.1513   -8.6949  -16.2593 O   0  0  0  0  0  0  0  0  0  0  0  0
   21.4194   -8.3984  -16.1812 N   0  0  0  0  0  0  0  0  0  0  0  0
   21.3191   -7.4404  -15.0977 C   0  0  1  0  0  0  0  0  0  0  0  0
   22.3301   -7.8073  -14.0447 C   0  0  0  0  0  0  0  0  0  0  0  0
   22.5449   -6.5237  -12.8082 S   0  0  0  0  0  0  0  0  0  0  0  0
   21.6903   -6.0948  -15.6625 C   0  0  0  0  0  0  0  0  0  0  0  0
   21.1516   -4.9144  -15.1683 O   0  0  0  0  0  0  0  0  0  0  0  0
   22.5111   -5.9916  -16.6125 O   0  0  0  0  0  0  0  0  0  0  0  0
  2  1  1  1
  2  3  1  0
  4  3  1  0
  5  4  1  0
  6  5  2  0
  7  2  1  0
  7  8  2  0
  9  5  1  0
 11 10  1  6
 11 12  1  0
 11 13  1  0
 13 14  1  1
 14  7  1  0
 15 13  1  0
 16 15  2  0
 17 15  1  0
 18 17  1  0
 18 21  1  0
 19 20  1  0
 18 19  1  1
 21 22  1  0
 23 21  2  0
M  END
$$$$
