IIQ.pdb
     RDKit          3D

 26 25  0  0  1  0  0  0  0  0999 V2000
   25.9315  -18.8298  -17.4210 C   0  0  0  0  0  0  0  0  0  0  0  0
   26.3419  -20.0075  -16.5750 C   0  0  0  0  0  0  0  0  0  0  0  0
   27.3845  -19.6240  -15.5445 C   0  0  2  0  0  0  0  0  0  0  0  0
   28.5950  -19.0806  -16.2353 C   0  0  0  0  0  0  0  0  0  0  0  0
   27.7797  -20.8456  -14.7128 C   0  0  2  0  0  0  0  0  0  0  0  0
   28.2021  -21.8605  -15.6284 N   0  0  0  0  0  0  0  0  0  0  0  0
   26.5739  -21.2497  -13.9300 C   0  0  0  0  0  0  0  0  0  0  0  0
   25.8583  -22.1765  -14.3292 O   0  0  0  0  0  0  0  0  0  0  0  0
   26.6918  -20.4070   -8.4059 C   0  0  0  0  0  0  0  0  0  0  0  0
   26.4345  -21.1228   -9.7532 C   0  0  0  0  0  0  0  0  0  0  0  0
   25.2711  -20.4319  -10.4606 C   0  0  2  0  0  0  0  0  0  0  0  0
   24.0328  -20.9425   -9.7226 C   0  0  0  0  0  0  0  0  0  0  0  0
   25.1291  -20.8458  -11.8911 C   0  0  2  0  0  0  0  0  0  0  0  0
   26.2408  -20.5911  -12.7450 N   0  0  0  0  0  0  0  0  0  0  0  0
   23.9091  -20.3006  -12.4855 C   0  0  0  0  0  0  0  0  0  0  0  0
   23.9262  -19.2024  -13.0852 O   0  0  0  0  0  0  0  0  0  0  0  0
   22.0653  -20.8087  -18.0836 N   0  0  0  0  0  0  0  0  0  0  0  0
   21.5253  -20.0398  -16.9977 C   0  0  0  0  0  0  0  0  0  0  0  0
   21.4571  -18.7747  -17.1062 O   0  0  0  0  0  0  0  0  0  0  0  0
   21.0473  -20.6992  -15.7728 C   0  0  0  0  0  0  0  0  0  0  0  0
   22.0618  -20.9410  -14.7214 C   0  0  0  0  0  0  0  0  0  0  0  0
   21.5999  -20.6528  -13.3384 C   0  0  2  0  0  0  0  0  0  0  0  0
   22.6859  -20.9997  -12.3964 N   0  0  0  0  0  0  0  0  0  0  0  0
   20.4049  -21.3343  -12.8477 C   0  0  0  0  0  0  0  0  0  0  0  0
   19.1092  -20.8240  -13.0721 O   0  0  0  0  0  0  0  0  0  0  0  0
   20.5123  -22.4126  -12.1905 O   0  0  0  0  0  0  0  0  0  0  0  0
  2  1  1  0
  3  2  1  0
  3  5  1  0
  3  4  1  6
  5  7  1  0
  5  6  1  6
  7  8  2  0
  9 10  1  0
 10 11  1  0
 11 13  1  0
 11 12  1  1
 13 14  1  6
 14  7  1  0
 15 16  2  0
 15 13  1  0
 17 18  1  0
 18 20  1  0
 18 19  2  0
 20 21  1  0
 22 21  1  6
 22 23  1  0
 22 24  1  0
 23 15  1  0
 24 25  1  0
 26 24  2  0
M  END
$$$$
