IIQ.pdb
     RDKit          3D

 26 25  0  0  1  0  0  0  0  0999 V2000
   20.7032  -21.4812  -11.1633 C   0  0  0  0  0  0  0  0  0  0  0  0
   21.9685  -21.4766  -10.3445 C   0  0  0  0  0  0  0  0  0  0  0  0
   23.1307  -20.8750  -11.1082 C   0  0  2  0  0  0  0  0  0  0  0  0
   23.2946  -21.5875  -12.4133 C   0  0  0  0  0  0  0  0  0  0  0  0
   24.4199  -21.0021  -10.2945 C   0  0  2  0  0  0  0  0  0  0  0  0
   24.1979  -20.3392   -9.0463 N   0  0  0  0  0  0  0  0  0  0  0  0
   25.5065  -20.3624  -11.0946 C   0  0  0  0  0  0  0  0  0  0  0  0
   25.5770  -19.1295  -11.1691 O   0  0  0  0  0  0  0  0  0  0  0  0
   30.5799  -22.1275  -10.6084 C   0  0  0  0  0  0  0  0  0  0  0  0
   29.3494  -21.2151  -10.8263 C   0  0  0  0  0  0  0  0  0  0  0  0
   28.8752  -21.3686  -12.2694 C   0  0  2  0  0  0  0  0  0  0  0  0
   29.9318  -20.6252  -13.0878 C   0  0  0  0  0  0  0  0  0  0  0  0
   27.5660  -20.6928  -12.5287 C   0  0  2  0  0  0  0  0  0  0  0  0
   26.4507  -21.1424  -11.7647 N   0  0  0  0  0  0  0  0  0  0  0  0
   27.2322  -20.7050  -13.9525 C   0  0  0  0  0  0  0  0  0  0  0  0
   26.9944  -21.7820  -14.5436 O   0  0  0  0  0  0  0  0  0  0  0  0
   22.9299  -17.1863  -16.2155 N   0  0  0  0  0  0  0  0  0  0  0  0
   23.4761  -17.7547  -17.4158 C   0  0  0  0  0  0  0  0  0  0  0  0
   22.8880  -17.5481  -18.5241 O   0  0  0  0  0  0  0  0  0  0  0  0
   24.7051  -18.5618  -17.3751 C   0  0  0  0  0  0  0  0  0  0  0  0
   25.3464  -18.7106  -16.0485 C   0  0  0  0  0  0  0  0  0  0  0  0
   26.5833  -19.5347  -16.0485 C   0  0  2  0  0  0  0  0  0  0  0  0
   27.1707  -19.5039  -14.6917 N   0  0  0  0  0  0  0  0  0  0  0  0
   27.6611  -19.1720  -16.9651 C   0  0  0  0  0  0  0  0  0  0  0  0
   27.6709  -19.5948  -18.3107 O   0  0  0  0  0  0  0  0  0  0  0  0
   28.6310  -18.4649  -16.5582 O   0  0  0  0  0  0  0  0  0  0  0  0
  2  1  1  0
  3  2  1  0
  3  5  1  0
  3  4  1  6
  5  7  1  0
  5  6  1  1
  7  8  2  0
  9 10  1  0
 10 11  1  0
 11 13  1  0
 11 12  1  6
 13 14  1  1
 14  7  1  0
 15 16  2  0
 15 13  1  0
 17 18  1  0
 18 20  1  0
 18 19  2  0
 20 21  1  0
 22 21  1  1
 22 23  1  0
 22 24  1  0
 23 15  1  0
 24 25  1  0
 26 24  2  0
M  END
$$$$
