IIQ.pdb
     RDKit          3D

 26 25  0  0  1  0  0  0  0  0999 V2000
   19.9666  -16.2780  -16.5469 C   0  0  0  0  0  0  0  0  0  0  0  0
   19.8575  -17.7350  -16.9168 C   0  0  0  0  0  0  0  0  0  0  0  0
   21.0738  -18.5211  -16.4713 C   0  0  2  0  0  0  0  0  0  0  0  0
   21.1865  -18.4671  -14.9806 C   0  0  0  0  0  0  0  0  0  0  0  0
   22.3403  -17.9350  -17.0981 C   0  0  2  0  0  0  0  0  0  0  0  0
   22.1762  -17.9980  -18.5179 N   0  0  0  0  0  0  0  0  0  0  0  0
   23.4878  -18.7622  -16.6194 C   0  0  0  0  0  0  0  0  0  0  0  0
   23.4701  -19.9903  -16.7670 O   0  0  0  0  0  0  0  0  0  0  0  0
   28.8311  -17.5458  -17.3423 C   0  0  0  0  0  0  0  0  0  0  0  0
   27.4758  -18.2715  -17.1681 C   0  0  0  0  0  0  0  0  0  0  0  0
   27.0568  -18.1815  -15.7027 C   0  0  2  0  0  0  0  0  0  0  0  0
   28.1018  -19.0209  -14.9662 C   0  0  0  0  0  0  0  0  0  0  0  0
   25.7252  -18.8092  -15.4366 C   0  0  2  0  0  0  0  0  0  0  0  0
   24.5883  -18.1640  -16.0030 N   0  0  0  0  0  0  0  0  0  0  0  0
   25.5140  -19.0257  -14.0057 C   0  0  0  0  0  0  0  0  0  0  0  0
   25.1439  -18.0871  -13.2655 O   0  0  0  0  0  0  0  0  0  0  0  0
   21.0313  -20.1524  -11.5457 N   0  0  0  0  0  0  0  0  0  0  0  0
   21.8660  -20.3261  -10.3903 C   0  0  0  0  0  0  0  0  0  0  0  0
   21.3283  -20.3918   -9.2400 O   0  0  0  0  0  0  0  0  0  0  0  0
   23.3266  -20.4350  -10.5262 C   0  0  0  0  0  0  0  0  0  0  0  0
   23.8751  -20.2202  -11.8850 C   0  0  0  0  0  0  0  0  0  0  0  0
   25.3269  -20.5090  -12.0186 C   0  0  2  0  0  0  0  0  0  0  0  0
   25.7224  -20.2966  -13.4277 N   0  0  0  0  0  0  0  0  0  0  0  0
   25.8075  -21.8406  -11.6591 C   0  0  0  0  0  0  0  0  0  0  0  0
   26.0876  -22.1979  -10.3236 O   0  0  0  0  0  0  0  0  0  0  0  0
   25.9944  -22.7136  -12.5586 O   0  0  0  0  0  0  0  0  0  0  0  0
  2  1  1  0
  3  2  1  0
  3  5  1  0
  3  4  1  1
  5  7  1  0
  5  6  1  6
  7  8  2  0
  9 10  1  0
 10 11  1  0
 11 13  1  0
 11 12  1  1
 13 14  1  1
 14  7  1  0
 15 16  2  0
 15 13  1  0
 17 18  1  0
 18 20  1  0
 18 19  2  0
 20 21  1  0
 22 21  1  6
 22 23  1  0
 22 24  1  0
 23 15  1  0
 24 25  1  0
 26 24  2  0
M  END
$$$$
