IIQ.pdb
     RDKit          3D

 26 25  0  0  1  0  0  0  0  0999 V2000
   25.7627  -13.5541  -17.5001 C   0  0  0  0  0  0  0  0  0  0  0  0
   25.3393  -12.6768  -16.3501 C   0  0  0  0  0  0  0  0  0  0  0  0
   24.1797  -11.7769  -16.7262 C   0  0  2  0  0  0  0  0  0  0  0  0
   24.5244  -11.0054  -17.9605 C   0  0  0  0  0  0  0  0  0  0  0  0
   23.8757  -10.8029  -15.5864 C   0  0  2  0  0  0  0  0  0  0  0  0
   23.6055  -11.5880  -14.4213 N   0  0  0  0  0  0  0  0  0  0  0  0
   22.6983   -9.9879  -16.0105 C   0  0  0  0  0  0  0  0  0  0  0  0
   22.7593   -9.2984  -17.0358 O   0  0  0  0  0  0  0  0  0  0  0  0
   18.2941  -12.4140  -16.1553 C   0  0  0  0  0  0  0  0  0  0  0  0
   18.9907  -11.1317  -16.6697 C   0  0  0  0  0  0  0  0  0  0  0  0
   19.0522  -10.1171  -15.5305 C   0  0  2  0  0  0  0  0  0  0  0  0
   17.8960   -9.1600  -15.8238 C   0  0  0  0  0  0  0  0  0  0  0  0
   20.3072   -9.3029  -15.5410 C   0  0  2  0  0  0  0  0  0  0  0  0
   21.5211   -9.9936  -15.2601 N   0  0  0  0  0  0  0  0  0  0  0  0
   20.1893   -8.1301  -14.6753 C   0  0  0  0  0  0  0  0  0  0  0  0
   20.1612   -8.2552  -13.4305 O   0  0  0  0  0  0  0  0  0  0  0  0
   23.9206   -3.6505  -14.7747 N   0  0  0  0  0  0  0  0  0  0  0  0
   22.8135   -3.3037  -15.6209 C   0  0  0  0  0  0  0  0  0  0  0  0
   22.9707   -2.4143  -16.5159 O   0  0  0  0  0  0  0  0  0  0  0  0
   21.5107   -3.9690  -15.4667 C   0  0  0  0  0  0  0  0  0  0  0  0
   21.4204   -4.9912  -14.3990 C   0  0  0  0  0  0  0  0  0  0  0  0
   20.1029   -5.6726  -14.3050 C   0  0  2  0  0  0  0  0  0  0  0  0
   20.1047   -6.8319  -15.2232 N   0  0  0  0  0  0  0  0  0  0  0  0
   18.8996   -4.9073  -14.6208 C   0  0  0  0  0  0  0  0  0  0  0  0
   18.4930   -3.8015  -13.8453 O   0  0  0  0  0  0  0  0  0  0  0  0
   18.1794   -5.2345  -15.6110 O   0  0  0  0  0  0  0  0  0  0  0  0
  2  1  1  0
  3  2  1  0
  3  5  1  0
  3  4  1  6
  5  7  1  0
  5  6  1  1
  7  8  2  0
  9 10  1  0
 10 11  1  0
 11 13  1  0
 11 12  1  6
 13 14  1  1
 14  7  1  0
 15 16  2  0
 15 13  1  0
 17 18  1  0
 18 20  1  0
 18 19  2  0
 20 21  1  0
 22 21  1  6
 22 23  1  0
 22 24  1  0
 23 15  1  0
 24 25  1  0
 26 24  2  0
M  END
$$$$
