IIQ.pdb
     RDKit          3D

 26 25  0  0  1  0  0  0  0  0999 V2000
   28.4475  -19.2103  -17.9386 C   0  0  0  0  0  0  0  0  0  0  0  0
   28.8224  -19.9710  -16.6927 C   0  0  0  0  0  0  0  0  0  0  0  0
   27.6052  -20.3276  -15.8636 C   0  0  2  0  0  0  0  0  0  0  0  0
   26.8479  -19.0829  -15.5250 C   0  0  0  0  0  0  0  0  0  0  0  0
   28.0323  -21.0295  -14.5731 C   0  0  2  0  0  0  0  0  0  0  0  0
   28.7992  -22.1767  -14.9508 N   0  0  0  0  0  0  0  0  0  0  0  0
   26.7833  -21.3944  -13.8404 C   0  0  0  0  0  0  0  0  0  0  0  0
   25.9815  -22.1919  -14.3420 O   0  0  0  0  0  0  0  0  0  0  0  0
   26.7663  -20.5229   -8.2315 C   0  0  0  0  0  0  0  0  0  0  0  0
   26.5334  -21.3085   -9.5440 C   0  0  0  0  0  0  0  0  0  0  0  0
   25.4464  -20.6027  -10.3510 C   0  0  2  0  0  0  0  0  0  0  0  0
   24.1452  -21.0197   -9.6642 C   0  0  0  0  0  0  0  0  0  0  0  0
   25.3666  -21.0810  -11.7662 C   0  0  2  0  0  0  0  0  0  0  0  0
   26.5062  -20.8440  -12.5877 N   0  0  0  0  0  0  0  0  0  0  0  0
   24.1618  -20.5842  -12.4300 C   0  0  0  0  0  0  0  0  0  0  0  0
   24.0635  -19.3807  -12.7582 O   0  0  0  0  0  0  0  0  0  0  0  0
   21.5275  -22.7906  -17.3342 N   0  0  0  0  0  0  0  0  0  0  0  0
   20.5420  -21.8442  -16.8926 C   0  0  0  0  0  0  0  0  0  0  0  0
   19.5379  -21.6015  -17.6341 O   0  0  0  0  0  0  0  0  0  0  0  0
   20.6796  -21.1635  -15.5960 C   0  0  0  0  0  0  0  0  0  0  0  0
   21.8791  -21.5098  -14.7994 C   0  0  0  0  0  0  0  0  0  0  0  0
   21.9129  -20.9102  -13.4398 C   0  0  2  0  0  0  0  0  0  0  0  0
   23.0837  -21.4498  -12.7152 N   0  0  0  0  0  0  0  0  0  0  0  0
   20.7638  -21.1130  -12.5612 C   0  0  0  0  0  0  0  0  0  0  0  0
   19.5478  -20.4241  -12.7514 O   0  0  0  0  0  0  0  0  0  0  0  0
   20.8426  -21.9199  -11.5872 O   0  0  0  0  0  0  0  0  0  0  0  0
  2  1  1  0
  3  2  1  0
  3  5  1  0
  3  4  1  1
  5  7  1  0
  5  6  1  6
  7  8  2  0
  9 10  1  0
 10 11  1  0
 11 13  1  0
 11 12  1  1
 13 14  1  6
 14  7  1  0
 15 16  2  0
 15 13  1  0
 17 18  1  0
 18 20  1  0
 18 19  2  0
 20 21  1  0
 22 21  1  6
 22 23  1  0
 22 24  1  0
 23 15  1  0
 24 25  1  0
 26 24  2  0
M  END
$$$$
