IIQ.pdb
     RDKit          3D

 26 25  0  0  1  0  0  0  0  0999 V2000
   26.2752  -25.7804  -19.1681 C   0  0  0  0  0  0  0  0  0  0  0  0
   26.2677  -25.9737  -17.6734 C   0  0  0  0  0  0  0  0  0  0  0  0
   25.9684  -24.6817  -16.9405 C   0  0  2  0  0  0  0  0  0  0  0  0
   24.7726  -24.0241  -17.5530 C   0  0  0  0  0  0  0  0  0  0  0  0
   27.1678  -23.7359  -17.0259 C   0  0  2  0  0  0  0  0  0  0  0  0
   28.2832  -24.4155  -16.4421 N   0  0  0  0  0  0  0  0  0  0  0  0
   26.8007  -22.4962  -16.2788 C   0  0  0  0  0  0  0  0  0  0  0  0
   26.6281  -22.5391  -15.0545 O   0  0  0  0  0  0  0  0  0  0  0  0
   29.2857  -17.8479  -17.2099 C   0  0  0  0  0  0  0  0  0  0  0  0
   28.5226  -19.0005  -16.5146 C   0  0  0  0  0  0  0  0  0  0  0  0
   27.0288  -18.8287  -16.7793 C   0  0  2  0  0  0  0  0  0  0  0  0
   26.6122  -17.7008  -15.8343 C   0  0  0  0  0  0  0  0  0  0  0  0
   26.2268  -20.0339  -16.4021 C   0  0  2  0  0  0  0  0  0  0  0  0
   26.6484  -21.2805  -16.9479 N   0  0  0  0  0  0  0  0  0  0  0  0
   24.8026  -19.8306  -16.6655 C   0  0  0  0  0  0  0  0  0  0  0  0
   24.3622  -19.8387  -17.8368 O   0  0  0  0  0  0  0  0  0  0  0  0
   21.2977  -23.5965  -17.2758 N   0  0  0  0  0  0  0  0  0  0  0  0
   20.2981  -22.5790  -17.1101 C   0  0  0  0  0  0  0  0  0  0  0  0
   19.0749  -22.8748  -17.2915 O   0  0  0  0  0  0  0  0  0  0  0  0
   20.6742  -21.2092  -16.7281 C   0  0  0  0  0  0  0  0  0  0  0  0
   22.1215  -20.9558  -16.5425 C   0  0  0  0  0  0  0  0  0  0  0  0
   22.4440  -19.6563  -15.8972 C   0  0  2  0  0  0  0  0  0  0  0  0
   23.8935  -19.6210  -15.6061 N   0  0  0  0  0  0  0  0  0  0  0  0
   21.7712  -19.3145  -14.6466 C   0  0  0  0  0  0  0  0  0  0  0  0
   22.4241  -19.4017  -13.3994 O   0  0  0  0  0  0  0  0  0  0  0  0
   20.5621  -18.9348  -14.6582 O   0  0  0  0  0  0  0  0  0  0  0  0
  2  1  1  0
  3  2  1  0
  3  5  1  0
  3  4  1  6
  5  7  1  0
  5  6  1  1
  7  8  2  0
  9 10  1  0
 10 11  1  0
 11 13  1  0
 11 12  1  1
 13 14  1  6
 14  7  1  0
 15 16  2  0
 15 13  1  0
 17 18  1  0
 18 20  1  0
 18 19  2  0
 20 21  1  0
 22 21  1  1
 22 23  1  0
 22 24  1  0
 23 15  1  0
 24 25  1  0
 26 24  2  0
M  END
$$$$
