IIQ.pdb
     RDKit          3D

 26 25  0  0  1  0  0  0  0  0999 V2000
   15.7245  -13.1118  -13.9455 C   0  0  0  0  0  0  0  0  0  0  0  0
   16.2940  -12.3426  -12.7814 C   0  0  0  0  0  0  0  0  0  0  0  0
   15.6560  -10.9750  -12.6446 C   0  0  2  0  0  0  0  0  0  0  0  0
   15.9310  -10.1690  -13.8744 C   0  0  0  0  0  0  0  0  0  0  0  0
   16.2219  -10.2478  -11.4234 C   0  0  2  0  0  0  0  0  0  0  0  0
   16.0567  -11.1184  -10.3002 N   0  0  0  0  0  0  0  0  0  0  0  0
   15.4531   -8.9760  -11.2772 C   0  0  0  0  0  0  0  0  0  0  0  0
   14.8612   -8.4946  -12.2510 O   0  0  0  0  0  0  0  0  0  0  0  0
   12.4806   -7.7690   -6.7059 C   0  0  0  0  0  0  0  0  0  0  0  0
   12.9631   -7.9078   -8.1695 C   0  0  0  0  0  0  0  0  0  0  0  0
   14.1347   -6.9544   -8.3914 C   0  0  2  0  0  0  0  0  0  0  0  0
   13.5009   -5.5646   -8.3168 C   0  0  0  0  0  0  0  0  0  0  0  0
   14.7438   -7.0848   -9.7516 C   0  0  2  0  0  0  0  0  0  0  0  0
   15.3927   -8.3181  -10.0473 N   0  0  0  0  0  0  0  0  0  0  0  0
   15.6407   -5.9671  -10.0437 C   0  0  0  0  0  0  0  0  0  0  0  0
   16.7603   -5.8853   -9.4907 O   0  0  0  0  0  0  0  0  0  0  0  0
   17.5091   -4.3340  -15.4485 N   0  0  0  0  0  0  0  0  0  0  0  0
   17.9064   -3.1824  -14.6883 C   0  0  0  0  0  0  0  0  0  0  0  0
   18.5969   -2.2750  -15.2509 O   0  0  0  0  0  0  0  0  0  0  0  0
   17.5179   -3.0414  -13.2766 C   0  0  0  0  0  0  0  0  0  0  0  0
   16.6811   -4.1275  -12.7167 C   0  0  0  0  0  0  0  0  0  0  0  0
   16.2541   -3.9161  -11.3089 C   0  0  2  0  0  0  0  0  0  0  0  0
   15.2646   -4.9565  -10.9547 N   0  0  0  0  0  0  0  0  0  0  0  0
   15.6441   -2.6381  -10.9512 C   0  0  0  0  0  0  0  0  0  0  0  0
   16.4177   -1.4851  -10.7027 O   0  0  0  0  0  0  0  0  0  0  0  0
   14.3848   -2.5417  -10.8463 O   0  0  0  0  0  0  0  0  0  0  0  0
  2  1  1  0
  3  2  1  0
  3  5  1  0
  3  4  1  6
  5  7  1  0
  5  6  1  1
  7  8  2  0
  9 10  1  0
 10 11  1  0
 11 13  1  0
 11 12  1  6
 13 14  1  1
 14  7  1  0
 15 16  2  0
 15 13  1  0
 17 18  1  0
 18 20  1  0
 18 19  2  0
 20 21  1  0
 22 21  1  6
 22 23  1  0
 22 24  1  0
 23 15  1  0
 24 25  1  0
 26 24  2  0
M  END
$$$$
