IIQ.pdb
     RDKit          3D

 26 25  0  0  1  0  0  0  0  0999 V2000
   28.5384  -20.7243   -6.8602 C   0  0  0  0  0  0  0  0  0  0  0  0
   27.2935  -20.1923   -7.5225 C   0  0  0  0  0  0  0  0  0  0  0  0
   27.1517  -20.6991   -8.9434 C   0  0  2  0  0  0  0  0  0  0  0  0
   28.4286  -20.4676   -9.6873 C   0  0  0  0  0  0  0  0  0  0  0  0
   26.0104  -19.9686   -9.6534 C   0  0  2  0  0  0  0  0  0  0  0  0
   24.7994  -20.3208   -8.9778 N   0  0  0  0  0  0  0  0  0  0  0  0
   26.0213  -20.4200  -11.0768 C   0  0  0  0  0  0  0  0  0  0  0  0
   27.0718  -20.3863  -11.7292 O   0  0  0  0  0  0  0  0  0  0  0  0
   25.3740  -24.5102  -15.0552 C   0  0  0  0  0  0  0  0  0  0  0  0
   24.8619  -23.0684  -14.8252 C   0  0  0  0  0  0  0  0  0  0  0  0
   24.9913  -22.7336  -13.3413 C   0  0  2  0  0  0  0  0  0  0  0  0
   23.9022  -23.5755  -12.6750 C   0  0  0  0  0  0  0  0  0  0  0  0
   24.6841  -21.3014  -13.0371 C   0  0  2  0  0  0  0  0  0  0  0  0
   24.8535  -20.8831  -11.6858 N   0  0  0  0  0  0  0  0  0  0  0  0
   23.3513  -20.9295  -13.5106 C   0  0  0  0  0  0  0  0  0  0  0  0
   22.3457  -21.0978  -12.7850 O   0  0  0  0  0  0  0  0  0  0  0  0
   20.0867  -17.4175  -17.7845 N   0  0  0  0  0  0  0  0  0  0  0  0
   20.5873  -16.7547  -16.6131 C   0  0  0  0  0  0  0  0  0  0  0  0
   20.1551  -15.5945  -16.3236 O   0  0  0  0  0  0  0  0  0  0  0  0
   21.5833  -17.4051  -15.7478 C   0  0  0  0  0  0  0  0  0  0  0  0
   22.0346  -18.7518  -16.1673 C   0  0  0  0  0  0  0  0  0  0  0  0
   21.8454  -19.8138  -15.1449 C   0  0  2  0  0  0  0  0  0  0  0  0
   23.1689  -20.3731  -14.7951 N   0  0  0  0  0  0  0  0  0  0  0  0
   20.9976  -20.9560  -15.4766 C   0  0  0  0  0  0  0  0  0  0  0  0
   19.6334  -21.0014  -15.1212 O   0  0  0  0  0  0  0  0  0  0  0  0
   21.4835  -21.9507  -16.0935 O   0  0  0  0  0  0  0  0  0  0  0  0
  2  1  1  0
  3  2  1  0
  3  5  1  0
  3  4  1  6
  5  7  1  0
  5  6  1  1
  7  8  2  0
  9 10  1  0
 10 11  1  0
 11 13  1  0
 11 12  1  1
 13 14  1  1
 14  7  1  0
 15 16  2  0
 15 13  1  0
 17 18  1  0
 18 20  1  0
 18 19  2  0
 20 21  1  0
 22 21  1  6
 22 23  1  0
 22 24  1  0
 23 15  1  0
 24 25  1  0
 26 24  2  0
M  END
$$$$
