IIQ.pdb
     RDKit          3D

 26 25  0  0  1  0  0  0  0  0999 V2000
   10.2981  -22.1637   -3.8779 C   0  0  0  0  0  0  0  0  0  0  0  0
   11.4655  -21.8840   -4.7891 C   0  0  0  0  0  0  0  0  0  0  0  0
   12.3379  -23.1085   -4.9780 C   0  0  2  0  0  0  0  0  0  0  0  0
   12.8763  -23.5486   -3.6536 C   0  0  0  0  0  0  0  0  0  0  0  0
   13.5011  -22.7884   -5.9185 C   0  0  2  0  0  0  0  0  0  0  0  0
   12.9367  -22.4663   -7.1931 N   0  0  0  0  0  0  0  0  0  0  0  0
   14.3687  -24.0028   -5.9695 C   0  0  0  0  0  0  0  0  0  0  0  0
   13.8769  -25.1042   -6.2442 O   0  0  0  0  0  0  0  0  0  0  0  0
   18.9362  -24.0841   -8.6332 C   0  0  0  0  0  0  0  0  0  0  0  0
   17.6778  -24.6770   -7.9558 C   0  0  0  0  0  0  0  0  0  0  0  0
   17.9385  -24.7951   -6.4561 C   0  0  2  0  0  0  0  0  0  0  0  0
   18.7425  -26.0889   -6.3205 C   0  0  0  0  0  0  0  0  0  0  0  0
   16.6857  -24.9732   -5.6581 C   0  0  2  0  0  0  0  0  0  0  0  0
   15.7373  -23.9114   -5.7094 N   0  0  0  0  0  0  0  0  0  0  0  0
   16.9833  -25.3089   -4.2661 C   0  0  0  0  0  0  0  0  0  0  0  0
   17.4235  -24.4407   -3.4797 O   0  0  0  0  0  0  0  0  0  0  0  0
   14.5170  -28.9749    0.4326 N   0  0  0  0  0  0  0  0  0  0  0  0
   15.8726  -28.5119    0.3335 C   0  0  0  0  0  0  0  0  0  0  0  0
   16.8229  -29.3071    0.6189 O   0  0  0  0  0  0  0  0  0  0  0  0
   16.1691  -27.1377   -0.0993 C   0  0  0  0  0  0  0  0  0  0  0  0
   15.9420  -26.8397   -1.5321 C   0  0  0  0  0  0  0  0  0  0  0  0
   17.1591  -26.9214   -2.3812 C   0  0  2  0  0  0  0  0  0  0  0  0
   16.7809  -26.6181   -3.7784 N   0  0  0  0  0  0  0  0  0  0  0  0
   17.8936  -28.1831   -2.4250 C   0  0  0  0  0  0  0  0  0  0  0  0
   17.6484  -29.1558   -3.4167 O   0  0  0  0  0  0  0  0  0  0  0  0
   18.7753  -28.4365   -1.5506 O   0  0  0  0  0  0  0  0  0  0  0  0
  2  1  1  0
  3  2  1  0
  3  5  1  0
  3  4  1  1
  5  7  1  0
  5  6  1  6
  7  8  2  0
  9 10  1  0
 10 11  1  0
 11 13  1  0
 11 12  1  6
 13 14  1  1
 14  7  1  0
 15 16  2  0
 15 13  1  0
 17 18  1  0
 18 20  1  0
 18 19  2  0
 20 21  1  0
 22 21  1  1
 22 23  1  0
 22 24  1  0
 23 15  1  0
 24 25  1  0
 26 24  2  0
M  END
$$$$
