IIQ.pdb
     RDKit          3D

 26 25  0  0  1  0  0  0  0  0999 V2000
   18.7493  -16.0432  -18.6481 C   0  0  0  0  0  0  0  0  0  0  0  0
   20.1390  -16.3555  -18.1557 C   0  0  0  0  0  0  0  0  0  0  0  0
   20.7101  -15.2226  -17.3272 C   0  0  2  0  0  0  0  0  0  0  0  0
   20.7579  -13.9748  -18.1507 C   0  0  0  0  0  0  0  0  0  0  0  0
   22.1220  -15.5737  -16.8542 C   0  0  2  0  0  0  0  0  0  0  0  0
   22.0379  -16.8269  -16.1691 N   0  0  0  0  0  0  0  0  0  0  0  0
   22.5721  -14.4646  -15.9613 C   0  0  0  0  0  0  0  0  0  0  0  0
   22.0007  -14.2680  -14.8817 O   0  0  0  0  0  0  0  0  0  0  0  0
   27.9027  -13.2218  -15.2529 C   0  0  0  0  0  0  0  0  0  0  0  0
   26.3890  -13.4576  -15.0354 C   0  0  0  0  0  0  0  0  0  0  0  0
   25.6180  -12.2965  -15.6586 C   0  0  2  0  0  0  0  0  0  0  0  0
   25.9196  -11.1141  -14.7367 C   0  0  0  0  0  0  0  0  0  0  0  0
   24.1362  -12.5011  -15.6367 C   0  0  2  0  0  0  0  0  0  0  0  0
   23.6367  -13.6406  -16.3307 N   0  0  0  0  0  0  0  0  0  0  0  0
   23.4254  -11.3000  -16.0739 C   0  0  0  0  0  0  0  0  0  0  0  0
   23.5640  -10.8643  -17.2387 O   0  0  0  0  0  0  0  0  0  0  0  0
   17.5580  -10.0470  -15.6049 N   0  0  0  0  0  0  0  0  0  0  0  0
   18.0873   -8.7591  -15.9561 C   0  0  0  0  0  0  0  0  0  0  0  0
   17.2847   -7.8077  -16.2157 O   0  0  0  0  0  0  0  0  0  0  0  0
   19.5394   -8.5313  -16.0106 C   0  0  0  0  0  0  0  0  0  0  0  0
   20.3969   -9.7001  -15.7076 C   0  0  0  0  0  0  0  0  0  0  0  0
   21.8546   -9.4104  -15.6924 C   0  0  2  0  0  0  0  0  0  0  0  0
   22.5680  -10.6058  -15.1932 N   0  0  0  0  0  0  0  0  0  0  0  0
   22.3327   -8.2882  -14.8889 C   0  0  0  0  0  0  0  0  0  0  0  0
   22.3265   -6.9647  -15.3765 O   0  0  0  0  0  0  0  0  0  0  0  0
   22.7792   -8.4878  -13.7198 O   0  0  0  0  0  0  0  0  0  0  0  0
  2  1  1  0
  3  2  1  0
  3  5  1  0
  3  4  1  6
  5  7  1  0
  5  6  1  1
  7  8  2  0
  9 10  1  0
 10 11  1  0
 11 13  1  0
 11 12  1  1
 13 14  1  6
 14  7  1  0
 15 16  2  0
 15 13  1  0
 17 18  1  0
 18 20  1  0
 18 19  2  0
 20 21  1  0
 22 21  1  1
 22 23  1  0
 22 24  1  0
 23 15  1  0
 24 25  1  0
 26 24  2  0
M  END
$$$$
