IIQ.pdb
     RDKit          3D

 26 25  0  0  1  0  0  0  0  0999 V2000
   19.7725  -23.5779  -15.1505 C   0  0  0  0  0  0  0  0  0  0  0  0
   19.4886  -22.0996  -15.0774 C   0  0  0  0  0  0  0  0  0  0  0  0
   20.7384  -21.3014  -14.7661 C   0  0  2  0  0  0  0  0  0  0  0  0
   21.8297  -21.6908  -15.7122 C   0  0  0  0  0  0  0  0  0  0  0  0
   21.1918  -21.5687  -13.3297 C   0  0  2  0  0  0  0  0  0  0  0  0
   20.1204  -21.1718  -12.4685 N   0  0  0  0  0  0  0  0  0  0  0  0
   22.4307  -20.7656  -13.1060 C   0  0  0  0  0  0  0  0  0  0  0  0
   22.3827  -19.5299  -13.1420 O   0  0  0  0  0  0  0  0  0  0  0  0
   25.6937  -21.0193   -8.9063 C   0  0  0  0  0  0  0  0  0  0  0  0
   24.8611  -20.6674  -10.1620 C   0  0  0  0  0  0  0  0  0  0  0  0
   25.6463  -21.0847  -11.4031 C   0  0  2  0  0  0  0  0  0  0  0  0
   26.8901  -20.1954  -11.3711 C   0  0  0  0  0  0  0  0  0  0  0  0
   24.9256  -20.7826  -12.6788 C   0  0  2  0  0  0  0  0  0  0  0  0
   23.6513  -21.3949  -12.8550 N   0  0  0  0  0  0  0  0  0  0  0  0
   25.7701  -21.0453  -13.8436 C   0  0  0  0  0  0  0  0  0  0  0  0
   26.2952  -22.1687  -14.0115 O   0  0  0  0  0  0  0  0  0  0  0  0
   29.9453  -23.8080  -15.6665 N   0  0  0  0  0  0  0  0  0  0  0  0
   29.5640  -22.8337  -16.6500 C   0  0  0  0  0  0  0  0  0  0  0  0
   29.7463  -23.0906  -17.8819 O   0  0  0  0  0  0  0  0  0  0  0  0
   28.9620  -21.5534  -16.2476 C   0  0  0  0  0  0  0  0  0  0  0  0
   27.5662  -21.6125  -15.7563 C   0  0  0  0  0  0  0  0  0  0  0  0
   26.7627  -20.3920  -16.0280 C   0  0  2  0  0  0  0  0  0  0  0  0
   26.0119  -20.0391  -14.8037 N   0  0  0  0  0  0  0  0  0  0  0  0
   25.7804  -20.4318  -17.1083 C   0  0  0  0  0  0  0  0  0  0  0  0
   26.1371  -20.1876  -18.4510 O   0  0  0  0  0  0  0  0  0  0  0  0
   24.5645  -20.6819  -16.8534 O   0  0  0  0  0  0  0  0  0  0  0  0
  2  1  1  0
  3  2  1  0
  3  5  1  0
  3  4  1  6
  5  7  1  0
  5  6  1  1
  7  8  2  0
  9 10  1  0
 10 11  1  0
 11 13  1  0
 11 12  1  6
 13 14  1  6
 14  7  1  0
 15 16  2  0
 15 13  1  0
 17 18  1  0
 18 20  1  0
 18 19  2  0
 20 21  1  0
 22 21  1  1
 22 23  1  0
 22 24  1  0
 23 15  1  0
 24 25  1  0
 26 24  2  0
M  END
$$$$
