LTS.pdb
     RDKit          3D

 22 21  0  0  1  0  0  0  0  0999 V2000
   15.2910  -11.3438  -17.3489 C   0  0  0  0  0  0  0  0  0  0  0  0
   15.0748  -11.7919  -15.8953 C   0  0  2  0  0  0  0  0  0  0  0  0
   13.6025  -11.5217  -15.6238 C   0  0  0  0  0  0  0  0  0  0  0  0
   15.8821  -10.8717  -15.0468 C   0  0  0  0  0  0  0  0  0  0  0  0
   17.3618  -10.9675  -15.2046 C   0  0  2  0  0  0  0  0  0  0  0  0
   17.8804  -12.1778  -14.6492 N   0  0  0  0  0  0  0  0  0  0  0  0
   17.9568   -9.7511  -14.5743 C   0  0  0  0  0  0  0  0  0  0  0  0
   17.9649   -9.6839  -13.3109 O   0  0  0  0  0  0  0  0  0  0  0  0
   21.2872   -8.5948  -14.1339 C   0  0  0  0  0  0  0  0  0  0  0  0
   20.5659   -7.5020  -14.9178 C   0  0  1  0  0  0  0  0  0  0  0  0
   20.7954   -7.6979  -16.2791 O   0  0  0  0  0  0  0  0  0  0  0  0
   19.0842   -7.5024  -14.6030 C   0  0  2  0  0  0  0  0  0  0  0  0
   18.5118   -8.6681  -15.2772 N   0  0  0  0  0  0  0  0  0  0  0  0
   18.4943   -6.2414  -15.1490 C   0  0  0  0  0  0  0  0  0  0  0  0
   18.3541   -6.0933  -16.3890 O   0  0  0  0  0  0  0  0  0  0  0  0
   17.1497   -3.5581  -12.5502 O   0  0  0  0  0  0  0  0  0  0  0  0
   16.5023   -3.4339  -13.7860 C   0  0  0  0  0  0  0  0  0  0  0  0
   17.4875   -3.9505  -14.8408 C   0  0  2  0  0  0  0  0  0  0  0  0
   18.0692   -5.1659  -14.3219 N   0  0  0  0  0  0  0  0  0  0  0  0
   18.5362   -2.9376  -15.0270 C   0  0  0  0  0  0  0  0  0  0  0  0
   19.6931   -3.1733  -14.6389 O   0  0  0  0  0  0  0  0  0  0  0  0
   18.2444   -1.7384  -15.6247 O   0  0  0  0  0  0  0  0  0  0  0  0
  2  1  1  6
  2  4  1  0
  2  3  1  0
  4  5  1  0
  5  7  1  0
  5  6  1  1
  7  8  2  0
 10  9  1  1
 10 12  1  0
 11 10  1  0
 12 14  1  0
 12 13  1  6
 13  7  1  0
 14 19  1  0
 14 15  2  0
 16 17  1  0
 18 17  1  1
 18 20  1  0
 19 18  1  0
 20 21  2  0
 20 22  1  0
M  END
$$$$
