LTS.pdb
     RDKit          3D

 22 21  0  0  1  0  0  0  0  0999 V2000
   19.8027  -15.0506  -16.2915 C   0  0  0  0  0  0  0  0  0  0  0  0
   18.8730  -14.2759  -17.2382 C   0  0  2  0  0  0  0  0  0  0  0  0
   18.9346  -15.0423  -18.5510 C   0  0  0  0  0  0  0  0  0  0  0  0
   19.5019  -12.9420  -17.4470 C   0  0  0  0  0  0  0  0  0  0  0  0
   19.5361  -12.0430  -16.2578 C   0  0  2  0  0  0  0  0  0  0  0  0
   18.2685  -11.9781  -15.6012 N   0  0  0  0  0  0  0  0  0  0  0  0
   20.0044  -10.7038  -16.7250 C   0  0  0  0  0  0  0  0  0  0  0  0
   21.0502  -10.6581  -17.4357 O   0  0  0  0  0  0  0  0  0  0  0  0
   18.0057   -8.1070  -18.6982 C   0  0  0  0  0  0  0  0  0  0  0  0
   18.5961   -7.4617  -17.4476 C   0  0  1  0  0  0  0  0  0  0  0  0
   17.6208   -7.4347  -16.4515 O   0  0  0  0  0  0  0  0  0  0  0  0
   19.8319   -8.2080  -16.9888 C   0  0  2  0  0  0  0  0  0  0  0  0
   19.3721   -9.4824  -16.4362 N   0  0  0  0  0  0  0  0  0  0  0  0
   20.5003   -7.3904  -15.9301 C   0  0  0  0  0  0  0  0  0  0  0  0
   20.2656   -7.6133  -14.7158 O   0  0  0  0  0  0  0  0  0  0  0  0
   23.8027   -3.9781  -14.9390 O   0  0  0  0  0  0  0  0  0  0  0  0
   23.1376   -4.7022  -15.9365 C   0  0  0  0  0  0  0  0  0  0  0  0
   22.1544   -5.6285  -15.2115 C   0  0  2  0  0  0  0  0  0  0  0  0
   21.4148   -6.3426  -16.2254 N   0  0  0  0  0  0  0  0  0  0  0  0
   21.2367   -4.7971  -14.4197 C   0  0  0  0  0  0  0  0  0  0  0  0
   20.2257   -4.3151  -14.9582 O   0  0  0  0  0  0  0  0  0  0  0  0
   21.4906   -4.5521  -13.0945 O   0  0  0  0  0  0  0  0  0  0  0  0
  2  1  1  1
  2  4  1  0
  2  3  1  0
  4  5  1  0
  5  7  1  0
  5  6  1  6
  7  8  2  0
 10  9  1  6
 10 12  1  0
 11 10  1  0
 12 14  1  0
 12 13  1  1
 13  7  1  0
 14 19  1  0
 14 15  2  0
 16 17  1  0
 18 17  1  6
 18 20  1  0
 19 18  1  0
 20 21  2  0
 20 22  1  0
M  END
$$$$
