LTS.pdb
     RDKit          3D

 22 21  0  0  1  0  0  0  0  0999 V2000
   18.3174  -13.8104  -14.8359 C   0  0  0  0  0  0  0  0  0  0  0  0
   18.4557  -13.6290  -16.3553 C   0  0  2  0  0  0  0  0  0  0  0  0
   19.6413  -14.5009  -16.7410 C   0  0  0  0  0  0  0  0  0  0  0  0
   18.8325  -12.2051  -16.5764 C   0  0  0  0  0  0  0  0  0  0  0  0
   17.7973  -11.1928  -16.2198 C   0  0  2  0  0  0  0  0  0  0  0  0
   16.5620  -11.4312  -16.8974 N   0  0  0  0  0  0  0  0  0  0  0  0
   18.3655   -9.8465  -16.5288 C   0  0  0  0  0  0  0  0  0  0  0  0
   18.7955   -9.6412  -17.7009 O   0  0  0  0  0  0  0  0  0  0  0  0
   16.5801   -6.7785  -16.7704 C   0  0  0  0  0  0  0  0  0  0  0  0
   17.6927   -6.5248  -15.7571 C   0  0  1  0  0  0  0  0  0  0  0  0
   17.1822   -6.7072  -14.4725 O   0  0  0  0  0  0  0  0  0  0  0  0
   18.8742   -7.4369  -16.0153 C   0  0  2  0  0  0  0  0  0  0  0  0
   18.4614   -8.7826  -15.6156 N   0  0  0  0  0  0  0  0  0  0  0  0
   20.0149   -6.9679  -15.1697 C   0  0  0  0  0  0  0  0  0  0  0  0
   20.1460   -7.3897  -13.9932 O   0  0  0  0  0  0  0  0  0  0  0  0
   24.1555   -4.4604  -14.9774 O   0  0  0  0  0  0  0  0  0  0  0  0
   23.0898   -4.8960  -15.7750 C   0  0  0  0  0  0  0  0  0  0  0  0
   22.1136   -5.6116  -14.8341 C   0  0  2  0  0  0  0  0  0  0  0  0
   20.9909   -6.0435  -15.6327 N   0  0  0  0  0  0  0  0  0  0  0  0
   21.6613   -4.6483  -13.8203 C   0  0  0  0  0  0  0  0  0  0  0  0
   20.6786   -3.9250  -14.0562 O   0  0  0  0  0  0  0  0  0  0  0  0
   22.3165   -4.5448  -12.6201 O   0  0  0  0  0  0  0  0  0  0  0  0
  2  1  1  1
  2  4  1  0
  2  3  1  0
  4  5  1  0
  5  7  1  0
  5  6  1  6
  7  8  2  0
 10  9  1  6
 10 12  1  0
 11 10  1  0
 12 14  1  0
 12 13  1  1
 13  7  1  0
 14 19  1  0
 14 15  2  0
 16 17  1  0
 18 17  1  6
 18 20  1  0
 19 18  1  0
 20 21  2  0
 20 22  1  0
M  END
$$$$
