LTS.pdb
     RDKit          3D

 22 21  0  0  1  0  0  0  0  0999 V2000
   21.8710  -16.5296  -17.0588 C   0  0  0  0  0  0  0  0  0  0  0  0
   21.3800  -17.9422  -17.4110 C   0  0  2  0  0  0  0  0  0  0  0  0
   19.8657  -17.8660  -17.2859 C   0  0  0  0  0  0  0  0  0  0  0  0
   21.8915  -18.8442  -16.3418 C   0  0  0  0  0  0  0  0  0  0  0  0
   23.3716  -18.8709  -16.1629 C   0  0  2  0  0  0  0  0  0  0  0  0
   24.0490  -19.2211  -17.3714 N   0  0  0  0  0  0  0  0  0  0  0  0
   23.6686  -19.8197  -15.0482 C   0  0  0  0  0  0  0  0  0  0  0  0
   22.8067  -20.7066  -14.7814 O   0  0  0  0  0  0  0  0  0  0  0  0
   26.3478  -22.1597  -15.1117 C   0  0  0  0  0  0  0  0  0  0  0  0
   26.4888  -21.4570  -13.7644 C   0  0  1  0  0  0  0  0  0  0  0  0
   27.4679  -20.4700  -13.8714 O   0  0  0  0  0  0  0  0  0  0  0  0
   25.1636  -20.8728  -13.3206 C   0  0  2  0  0  0  0  0  0  0  0  0
   24.8368  -19.8058  -14.2670 N   0  0  0  0  0  0  0  0  0  0  0  0
   25.3411  -20.3143  -11.9448 C   0  0  0  0  0  0  0  0  0  0  0  0
   25.7250  -19.1281  -11.7879 O   0  0  0  0  0  0  0  0  0  0  0  0
   24.7370  -20.9463   -7.1884 O   0  0  0  0  0  0  0  0  0  0  0  0
   24.6059  -21.5134   -8.4623 C   0  0  0  0  0  0  0  0  0  0  0  0
   25.2938  -20.5485   -9.4349 C   0  0  2  0  0  0  0  0  0  0  0  0
   25.0932  -21.0700  -10.7663 N   0  0  0  0  0  0  0  0  0  0  0  0
   26.7296  -20.5245   -9.1215 C   0  0  0  0  0  0  0  0  0  0  0  0
   27.5068  -21.2659   -9.7467 O   0  0  0  0  0  0  0  0  0  0  0  0
   27.2133  -19.6907   -8.1461 O   0  0  0  0  0  0  0  0  0  0  0  0
  2  1  1  1
  2  4  1  0
  2  3  1  0
  4  5  1  0
  5  7  1  0
  5  6  1  6
  7  8  2  0
 10  9  1  6
 10 12  1  0
 11 10  1  0
 12 14  1  0
 12 13  1  6
 13  7  1  0
 14 19  1  0
 14 15  2  0
 16 17  1  0
 18 17  1  1
 18 20  1  0
 19 18  1  0
 20 21  2  0
 20 22  1  0
M  END
$$$$
