LTS.pdb
     RDKit          3D

 22 21  0  0  1  0  0  0  0  0999 V2000
   26.8347  -18.9168   -6.5673 C   0  0  0  0  0  0  0  0  0  0  0  0
   26.9849  -20.4192   -6.8514 C   0  0  2  0  0  0  0  0  0  0  0  0
   28.3595  -20.7786   -6.3076 C   0  0  0  0  0  0  0  0  0  0  0  0
   27.0166  -20.5661   -8.3333 C   0  0  0  0  0  0  0  0  0  0  0  0
   25.7760  -20.1632   -9.0560 C   0  0  2  0  0  0  0  0  0  0  0  0
   24.6554  -20.9671   -8.6816 N   0  0  0  0  0  0  0  0  0  0  0  0
   26.0679  -20.2394  -10.5189 C   0  0  0  0  0  0  0  0  0  0  0  0
   27.2797  -20.2144  -10.8819 O   0  0  0  0  0  0  0  0  0  0  0  0
   25.7919  -22.8352  -12.8801 C   0  0  0  0  0  0  0  0  0  0  0  0
   24.9824  -21.6958  -13.4928 C   0  0  1  0  0  0  0  0  0  0  0  0
   23.6302  -21.9114  -13.2294 O   0  0  0  0  0  0  0  0  0  0  0  0
   25.4424  -20.3574  -12.9526 C   0  0  2  0  0  0  0  0  0  0  0  0
   25.0976  -20.3372  -11.5308 N   0  0  0  0  0  0  0  0  0  0  0  0
   24.7029  -19.2835  -13.6847 C   0  0  0  0  0  0  0  0  0  0  0  0
   23.5875  -18.8844  -13.2654 O   0  0  0  0  0  0  0  0  0  0  0  0
   26.3660  -17.9175  -16.9661 O   0  0  0  0  0  0  0  0  0  0  0  0
   25.5181  -16.9183  -16.4718 C   0  0  0  0  0  0  0  0  0  0  0  0
   24.4971  -17.6268  -15.5741 C   0  0  2  0  0  0  0  0  0  0  0  0
   25.2029  -18.6676  -14.8646 N   0  0  0  0  0  0  0  0  0  0  0  0
   23.4642  -18.2232  -16.4331 C   0  0  0  0  0  0  0  0  0  0  0  0
   23.4123  -19.4580  -16.5638 O   0  0  0  0  0  0  0  0  0  0  0  0
   22.5611  -17.4258  -17.0882 O   0  0  0  0  0  0  0  0  0  0  0  0
  2  1  1  6
  2  4  1  0
  2  3  1  0
  4  5  1  0
  5  7  1  0
  5  6  1  6
  7  8  2  0
 10  9  1  1
 10 12  1  0
 11 10  1  0
 12 14  1  0
 12 13  1  1
 13  7  1  0
 14 19  1  0
 14 15  2  0
 16 17  1  0
 18 17  1  6
 18 20  1  0
 19 18  1  0
 20 21  2  0
 20 22  1  0
M  END
$$$$
