LTS.pdb
     RDKit          3D

 22 21  0  0  1  0  0  0  0  0999 V2000
   16.9774  -12.9598  -13.6794 C   0  0  0  0  0  0  0  0  0  0  0  0
   16.9272  -12.8812  -15.2130 C   0  0  2  0  0  0  0  0  0  0  0  0
   17.1028  -14.3190  -15.6783 C   0  0  0  0  0  0  0  0  0  0  0  0
   18.1266  -12.1050  -15.6340 C   0  0  0  0  0  0  0  0  0  0  0  0
   18.1265  -11.6162  -17.0428 C   0  0  2  0  0  0  0  0  0  0  0  0
   18.4180  -12.6630  -17.9709 N   0  0  0  0  0  0  0  0  0  0  0  0
   19.1077  -10.4930  -17.1248 C   0  0  0  0  0  0  0  0  0  0  0  0
   20.3282  -10.7850  -17.2858 O   0  0  0  0  0  0  0  0  0  0  0  0
   19.4160   -7.9046  -19.6569 C   0  0  0  0  0  0  0  0  0  0  0  0
   19.3056   -7.1814  -18.3176 C   0  0  1  0  0  0  0  0  0  0  0  0
   17.9831   -6.7817  -18.1292 O   0  0  0  0  0  0  0  0  0  0  0  0
   19.7795   -8.0695  -17.1856 C   0  0  2  0  0  0  0  0  0  0  0  0
   18.7813   -9.1289  -17.0366 N   0  0  0  0  0  0  0  0  0  0  0  0
   19.8492   -7.2394  -15.9437 C   0  0  0  0  0  0  0  0  0  0  0  0
   18.8194   -7.0534  -15.2480 O   0  0  0  0  0  0  0  0  0  0  0  0
   22.6431   -4.6542  -12.9367 O   0  0  0  0  0  0  0  0  0  0  0  0
   22.5962   -5.4499  -14.0883 C   0  0  0  0  0  0  0  0  0  0  0  0
   21.1217   -5.8119  -14.3006 C   0  0  2  0  0  0  0  0  0  0  0  0
   21.0500   -6.6286  -15.4891 N   0  0  0  0  0  0  0  0  0  0  0  0
   20.3669   -4.5676  -14.5062 C   0  0  0  0  0  0  0  0  0  0  0  0
   20.3626   -4.0304  -15.6269 O   0  0  0  0  0  0  0  0  0  0  0  0
   19.6703   -3.9992  -13.4707 O   0  0  0  0  0  0  0  0  0  0  0  0
  2  1  1  1
  2  4  1  0
  2  3  1  0
  4  5  1  0
  5  7  1  0
  5  6  1  6
  7  8  2  0
 10  9  1  6
 10 12  1  0
 11 10  1  0
 12 14  1  0
 12 13  1  1
 13  7  1  0
 14 19  1  0
 14 15  2  0
 16 17  1  0
 18 17  1  6
 18 20  1  0
 19 18  1  0
 20 21  2  0
 20 22  1  0
M  END
$$$$
