LTS.pdb
     RDKit          3D

 22 21  0  0  1  0  0  0  0  0999 V2000
   19.7500  -13.7054  -14.9587 C   0  0  0  0  0  0  0  0  0  0  0  0
   18.8788  -13.6043  -16.2202 C   0  0  2  0  0  0  0  0  0  0  0  0
   19.8677  -13.6446  -17.3755 C   0  0  0  0  0  0  0  0  0  0  0  0
   18.2508  -12.2540  -16.1907 C   0  0  0  0  0  0  0  0  0  0  0  0
   17.2476  -12.0240  -15.1118 C   0  0  2  0  0  0  0  0  0  0  0  0
   16.1823  -12.9751  -15.1621 N   0  0  0  0  0  0  0  0  0  0  0  0
   16.7622  -10.6179  -15.2471 C   0  0  0  0  0  0  0  0  0  0  0  0
   15.9449  -10.3617  -16.1784 O   0  0  0  0  0  0  0  0  0  0  0  0
   14.7103   -8.7876  -12.9046 C   0  0  0  0  0  0  0  0  0  0  0  0
   15.9353   -7.9146  -13.1622 C   0  0  1  0  0  0  0  0  0  0  0  0
   16.8581   -8.1199  -12.1373 O   0  0  0  0  0  0  0  0  0  0  0  0
   16.5393   -8.2208  -14.5172 C   0  0  2  0  0  0  0  0  0  0  0  0
   17.1435   -9.5497  -14.4173 N   0  0  0  0  0  0  0  0  0  0  0  0
   17.5860   -7.1913  -14.8010 C   0  0  0  0  0  0  0  0  0  0  0  0
   18.7042   -7.2514  -14.2307 O   0  0  0  0  0  0  0  0  0  0  0  0
   16.6271   -4.2483  -17.2690 O   0  0  0  0  0  0  0  0  0  0  0  0
   18.0091   -4.4664  -17.3309 C   0  0  0  0  0  0  0  0  0  0  0  0
   18.3989   -5.1308  -16.0054 C   0  0  2  0  0  0  0  0  0  0  0  0
   17.3845   -6.1140  -15.7068 N   0  0  0  0  0  0  0  0  0  0  0  0
   18.4136   -4.0982  -14.9594 C   0  0  0  0  0  0  0  0  0  0  0  0
   17.5535   -4.1208  -14.0626 O   0  0  0  0  0  0  0  0  0  0  0  0
   19.3685   -3.1141  -14.9691 O   0  0  0  0  0  0  0  0  0  0  0  0
  2  1  1  1
  2  4  1  0
  2  3  1  0
  4  5  1  0
  5  7  1  0
  5  6  1  6
  7  8  2  0
 10  9  1  1
 10 12  1  0
 11 10  1  0
 12 14  1  0
 12 13  1  1
 13  7  1  0
 14 19  1  0
 14 15  2  0
 16 17  1  0
 18 17  1  6
 18 20  1  0
 19 18  1  0
 20 21  2  0
 20 22  1  0
M  END
$$$$
