LTS.pdb
     RDKit          3D

 22 21  0  0  1  0  0  0  0  0999 V2000
   25.1482  -13.5122  -15.9474 C   0  0  0  0  0  0  0  0  0  0  0  0
   24.8584  -13.0581  -17.3863 C   0  0  2  0  0  0  0  0  0  0  0  0
   26.2306  -12.8236  -17.9999 C   0  0  0  0  0  0  0  0  0  0  0  0
   24.1638  -11.7447  -17.2812 C   0  0  0  0  0  0  0  0  0  0  0  0
   22.7846  -11.7789  -16.7156 C   0  0  2  0  0  0  0  0  0  0  0  0
   21.9653  -12.7528  -17.3656 N   0  0  0  0  0  0  0  0  0  0  0  0
   22.2238  -10.3988  -16.8249 C   0  0  0  0  0  0  0  0  0  0  0  0
   22.2684   -9.8304  -17.9544 O   0  0  0  0  0  0  0  0  0  0  0  0
   18.7509   -9.3416  -16.3186 C   0  0  0  0  0  0  0  0  0  0  0  0
   19.6158   -8.4690  -15.4133 C   0  0  1  0  0  0  0  0  0  0  0  0
   19.6043   -9.0051  -14.1262 O   0  0  0  0  0  0  0  0  0  0  0  0
   21.0268   -8.3647  -15.9543 C   0  0  2  0  0  0  0  0  0  0  0  0
   21.6469   -9.6766  -15.7663 N   0  0  0  0  0  0  0  0  0  0  0  0
   21.7518   -7.3257  -15.1600 C   0  0  0  0  0  0  0  0  0  0  0  0
   22.3552   -7.6429  -14.1043 O   0  0  0  0  0  0  0  0  0  0  0  0
   21.5542   -3.5648  -16.4189 O   0  0  0  0  0  0  0  0  0  0  0  0
   22.7774   -3.7808  -15.7718 C   0  0  0  0  0  0  0  0  0  0  0  0
   22.5565   -4.9608  -14.8184 C   0  0  2  0  0  0  0  0  0  0  0  0
   21.8004   -5.9566  -15.5406 N   0  0  0  0  0  0  0  0  0  0  0  0
   21.7772   -4.4833  -13.6673 C   0  0  0  0  0  0  0  0  0  0  0  0
   22.2851   -3.6693  -12.8774 O   0  0  0  0  0  0  0  0  0  0  0  0
   20.4972   -4.9306  -13.4621 O   0  0  0  0  0  0  0  0  0  0  0  0
  2  1  1  1
  2  4  1  0
  2  3  1  0
  4  5  1  0
  5  7  1  0
  5  6  1  6
  7  8  2  0
 10  9  1  6
 10 12  1  0
 11 10  1  0
 12 14  1  0
 12 13  1  1
 13  7  1  0
 14 19  1  0
 14 15  2  0
 16 17  1  0
 18 17  1  6
 18 20  1  0
 19 18  1  0
 20 21  2  0
 20 22  1  0
M  END
$$$$
