LTS.pdb
     RDKit          3D

 22 21  0  0  1  0  0  0  0  0999 V2000
   16.5401  -12.4343  -16.6806 C   0  0  0  0  0  0  0  0  0  0  0  0
   17.3208  -12.8821  -15.4354 C   0  0  2  0  0  0  0  0  0  0  0  0
   16.3886  -12.5876  -14.2697 C   0  0  0  0  0  0  0  0  0  0  0  0
   18.4995  -11.9777  -15.3300 C   0  0  0  0  0  0  0  0  0  0  0  0
   19.5197  -12.1063  -16.4098 C   0  0  2  0  0  0  0  0  0  0  0  0
   20.2436  -13.3349  -16.3165 N   0  0  0  0  0  0  0  0  0  0  0  0
   20.4123  -10.9118  -16.3241 C   0  0  0  0  0  0  0  0  0  0  0  0
   21.4168  -10.9783  -15.5577 O   0  0  0  0  0  0  0  0  0  0  0  0
   22.2783   -6.8979  -18.4437 C   0  0  0  0  0  0  0  0  0  0  0  0
   21.3121   -8.0781  -18.3932 C   0  0  1  0  0  0  0  0  0  0  0  0
   21.7620   -9.0663  -19.2680 O   0  0  0  0  0  0  0  0  0  0  0  0
   21.1845   -8.6093  -16.9804 C   0  0  2  0  0  0  0  0  0  0  0  0
   20.2241   -9.7120  -17.0312 N   0  0  0  0  0  0  0  0  0  0  0  0
   20.6665   -7.5050  -16.1153 C   0  0  0  0  0  0  0  0  0  0  0  0
   19.4753   -7.1203  -16.2257 O   0  0  0  0  0  0  0  0  0  0  0  0
   23.1931   -5.2501  -13.9619 O   0  0  0  0  0  0  0  0  0  0  0  0
   22.0555   -5.5621  -13.2069 C   0  0  0  0  0  0  0  0  0  0  0  0
   20.9426   -5.8715  -14.2148 C   0  0  2  0  0  0  0  0  0  0  0  0
   21.4674   -6.8435  -15.1445 N   0  0  0  0  0  0  0  0  0  0  0  0
   20.6095   -4.6304  -14.9285 C   0  0  0  0  0  0  0  0  0  0  0  0
   21.0024   -4.4696  -16.0965 O   0  0  0  0  0  0  0  0  0  0  0  0
   19.8699   -3.6532  -14.3132 O   0  0  0  0  0  0  0  0  0  0  0  0
  2  1  1  6
  2  4  1  0
  2  3  1  0
  4  5  1  0
  5  7  1  0
  5  6  1  1
  7  8  2  0
 10  9  1  1
 10 12  1  0
 11 10  1  0
 12 14  1  0
 12 13  1  6
 13  7  1  0
 14 19  1  0
 14 15  2  0
 16 17  1  0
 18 17  1  1
 18 20  1  0
 19 18  1  0
 20 21  2  0
 20 22  1  0
M  END
$$$$
