LTS.pdb
     RDKit          3D

 22 21  0  0  1  0  0  0  0  0999 V2000
   18.3784  -12.7587  -19.5111 C   0  0  0  0  0  0  0  0  0  0  0  0
   17.4025  -13.0539  -18.3617 C   0  0  2  0  0  0  0  0  0  0  0  0
   16.0281  -12.7383  -18.9327 C   0  0  0  0  0  0  0  0  0  0  0  0
   17.7014  -12.0628  -17.2908 C   0  0  0  0  0  0  0  0  0  0  0  0
   19.0401  -12.1832  -16.6451 C   0  0  2  0  0  0  0  0  0  0  0  0
   19.1522  -13.3770  -15.8677 N   0  0  0  0  0  0  0  0  0  0  0  0
   19.2537  -10.9504  -15.8293 C   0  0  0  0  0  0  0  0  0  0  0  0
   18.6032  -10.8357  -14.7501 O   0  0  0  0  0  0  0  0  0  0  0  0
   22.3956   -9.9226  -14.2676 C   0  0  0  0  0  0  0  0  0  0  0  0
   21.9034   -8.7299  -15.0827 C   0  0  1  0  0  0  0  0  0  0  0  0
   22.5612   -8.7223  -16.3121 O   0  0  0  0  0  0  0  0  0  0  0  0
   20.4002   -8.7842  -15.2622 C   0  0  2  0  0  0  0  0  0  0  0  0
   20.1252   -9.9008  -16.1669 N   0  0  0  0  0  0  0  0  0  0  0  0
   19.9603   -7.4938  -15.8766 C   0  0  0  0  0  0  0  0  0  0  0  0
   20.0390   -7.3251  -17.1194 O   0  0  0  0  0  0  0  0  0  0  0  0
   16.9628   -5.3697  -14.5638 O   0  0  0  0  0  0  0  0  0  0  0  0
   18.0541   -4.5025  -14.7000 C   0  0  0  0  0  0  0  0  0  0  0  0
   19.0078   -5.1660  -15.7002 C   0  0  2  0  0  0  0  0  0  0  0  0
   19.4417   -6.4120  -15.1135 N   0  0  0  0  0  0  0  0  0  0  0  0
   20.1634   -4.2784  -15.8932 C   0  0  0  0  0  0  0  0  0  0  0  0
   21.2886   -4.6442  -15.5129 O   0  0  0  0  0  0  0  0  0  0  0  0
   20.0056   -3.0533  -16.4887 O   0  0  0  0  0  0  0  0  0  0  0  0
  2  1  1  6
  2  4  1  0
  2  3  1  0
  4  5  1  0
  5  7  1  0
  5  6  1  1
  7  8  2  0
 10  9  1  1
 10 12  1  0
 11 10  1  0
 12 14  1  0
 12 13  1  6
 13  7  1  0
 14 19  1  0
 14 15  2  0
 16 17  1  0
 18 17  1  1
 18 20  1  0
 19 18  1  0
 20 21  2  0
 20 22  1  0
M  END
$$$$
