LTS.pdb
     RDKit          3D

 22 21  0  0  1  0  0  0  0  0999 V2000
   25.0879  -15.2722  -14.4762 C   0  0  0  0  0  0  0  0  0  0  0  0
   25.4680  -14.8347  -15.8991 C   0  0  2  0  0  0  0  0  0  0  0  0
   26.9857  -14.9321  -15.9395 C   0  0  0  0  0  0  0  0  0  0  0  0
   25.0895  -13.3987  -16.0131 C   0  0  0  0  0  0  0  0  0  0  0  0
   23.6274  -13.1060  -16.0031 C   0  0  2  0  0  0  0  0  0  0  0  0
   22.9013  -13.9858  -16.8638 N   0  0  0  0  0  0  0  0  0  0  0  0
   23.4577  -11.6711  -16.3814 C   0  0  0  0  0  0  0  0  0  0  0  0
   24.3833  -11.1215  -17.0461 O   0  0  0  0  0  0  0  0  0  0  0  0
   20.9092  -10.4692  -18.6039 C   0  0  0  0  0  0  0  0  0  0  0  0
   20.8091   -9.5921  -17.3590 C   0  0  1  0  0  0  0  0  0  0  0  0
   19.7927  -10.0848  -16.5414 O   0  0  0  0  0  0  0  0  0  0  0  0
   22.1333   -9.5462  -16.6249 C   0  0  2  0  0  0  0  0  0  0  0  0
   22.3445  -10.8775  -16.0556 N   0  0  0  0  0  0  0  0  0  0  0  0
   22.0253   -8.5247  -15.5382 C   0  0  0  0  0  0  0  0  0  0  0  0
   21.7408   -8.8756  -14.3655 O   0  0  0  0  0  0  0  0  0  0  0  0
   23.9404   -4.9375  -15.4305 O   0  0  0  0  0  0  0  0  0  0  0  0
   22.5517   -4.8045  -15.3065 C   0  0  0  0  0  0  0  0  0  0  0  0
   22.0419   -6.1338  -14.7380 C   0  0  2  0  0  0  0  0  0  0  0  0
   22.2319   -7.1356  -15.7603 N   0  0  0  0  0  0  0  0  0  0  0  0
   20.6090   -5.9896  -14.4436 C   0  0  0  0  0  0  0  0  0  0  0  0
   19.7698   -6.4164  -15.2548 O   0  0  0  0  0  0  0  0  0  0  0  0
   20.1962   -5.3885  -13.2822 O   0  0  0  0  0  0  0  0  0  0  0  0
  2  1  1  1
  2  4  1  0
  2  3  1  0
  4  5  1  0
  5  7  1  0
  5  6  1  6
  7  8  2  0
 10  9  1  6
 10 12  1  0
 11 10  1  0
 12 14  1  0
 12 13  1  1
 13  7  1  0
 14 19  1  0
 14 15  2  0
 16 17  1  0
 18 17  1  6
 18 20  1  0
 19 18  1  0
 20 21  2  0
 20 22  1  0
M  END
$$$$
