DTI.pdb
     RDKit          3D

 24 23  0  0  1  0  0  0  0  0999 V2000
    9.0934  -16.9380   19.2962 N   0  0  0  0  0  0  0  0  0  0  0  0
    8.4680  -15.6486   19.6014 C   0  0  1  0  0  0  0  0  0  0  0  0
    7.5293  -15.2409   18.5170 C   0  0  0  0  0  0  0  0  0  0  0  0
    8.0811  -15.2801   17.1504 C   0  0  0  0  0  0  0  0  0  0  0  0
    8.4612  -14.1811   16.6050 O   0  0  0  0  0  0  0  0  0  0  0  0
    7.7919  -15.7217   20.9220 C   0  0  0  0  0  0  0  0  0  0  0  0
    7.2111  -14.7144   21.3582 O   0  0  0  0  0  0  0  0  0  0  0  0
    8.2199  -16.4329   16.3968 O   0  0  0  0  0  0  0  0  0  0  0  0
    6.3091  -18.2394   24.9056 C   0  0  0  0  0  0  0  0  0  0  0  0
    6.9916  -18.3563   23.5584 C   0  0  1  0  0  0  0  0  0  0  0  0
    6.0679  -18.9645   22.7019 O   0  0  0  0  0  0  0  0  0  0  0  0
    7.1989  -16.9598   23.0428 C   0  0  2  0  0  0  0  0  0  0  0  0
    7.7659  -16.8829   21.7298 N   0  0  0  0  0  0  0  0  0  0  0  0
    8.0326  -16.2221   24.0355 C   0  0  0  0  0  0  0  0  0  0  0  0
    9.2711  -16.3000   23.9265 O   0  0  0  0  0  0  0  0  0  0  0  0
    5.6884  -11.8332   26.5388 C   0  0  0  0  0  0  0  0  0  0  0  0
    6.6736  -12.7014   25.8399 C   0  0  0  0  0  0  0  0  0  0  0  0
    7.4848  -13.6227   26.6801 C   0  0  2  0  0  0  0  0  0  0  0  0
    8.3308  -12.7779   27.6355 C   0  0  0  0  0  0  0  0  0  0  0  0
    8.2680  -14.6999   26.0611 C   0  0  2  0  0  0  0  0  0  0  0  0
    7.4791  -15.4494   25.0796 N   0  0  0  0  0  0  0  0  0  0  0  0
    9.0019  -15.6341   26.9232 C   0  0  0  0  0  0  0  0  0  0  0  0
   10.1576  -15.4962   27.3791 O   0  0  0  0  0  0  0  0  0  0  0  0
    8.3880  -16.8511   27.3217 O   0  0  0  0  0  0  0  0  0  0  0  0
  2  1  1  6
  2  6  1  0
  3  2  1  0
  3  4  1  0
  4  5  2  0
  4  8  1  0
  6  7  2  0
 10  9  1  1
 10 12  1  0
 11 10  1  0
 12 14  1  0
 12 13  1  6
 13  6  1  0
 14 21  1  0
 15 14  2  0
 16 17  1  0
 18 19  1  6
 18 17  1  0
 20 21  1  1
 20 18  1  0
 22 20  1  0
 23 22  2  0
 24 22  1  0
M  END
$$$$
