DTI.pdb
     RDKit          3D

 24 23  0  0  1  0  0  0  0  0999 V2000
    9.8198  -18.7871   20.2221 N   0  0  0  0  0  0  0  0  0  0  0  0
   10.1223  -18.2536   21.5528 C   0  0  1  0  0  0  0  0  0  0  0  0
   11.4918  -18.6510   21.9883 C   0  0  0  0  0  0  0  0  0  0  0  0
   12.0745  -19.8050   21.2794 C   0  0  0  0  0  0  0  0  0  0  0  0
   11.4959  -20.9476   21.3773 O   0  0  0  0  0  0  0  0  0  0  0  0
    9.9468  -16.7786   21.5512 C   0  0  0  0  0  0  0  0  0  0  0  0
   10.9520  -16.0523   21.4874 O   0  0  0  0  0  0  0  0  0  0  0  0
   13.2205  -19.7487   20.5052 O   0  0  0  0  0  0  0  0  0  0  0  0
    7.2195  -12.7448   21.0286 C   0  0  0  0  0  0  0  0  0  0  0  0
    7.1586  -14.2546   21.1333 C   0  0  1  0  0  0  0  0  0  0  0  0
    7.0559  -14.7351   19.8235 O   0  0  0  0  0  0  0  0  0  0  0  0
    8.4894  -14.7177   21.6564 C   0  0  2  0  0  0  0  0  0  0  0  0
    8.6884  -16.1356   21.6192 N   0  0  0  0  0  0  0  0  0  0  0  0
    8.6499  -14.1855   23.0404 C   0  0  0  0  0  0  0  0  0  0  0  0
    8.6939  -12.9492   23.1862 O   0  0  0  0  0  0  0  0  0  0  0  0
    6.3126  -11.4885   25.6048 C   0  0  0  0  0  0  0  0  0  0  0  0
    7.4980  -12.3121   25.2454 C   0  0  0  0  0  0  0  0  0  0  0  0
    7.5785  -13.6787   25.8273 C   0  0  2  0  0  0  0  0  0  0  0  0
    7.2751  -13.5794   27.3241 C   0  0  0  0  0  0  0  0  0  0  0  0
    8.7414  -14.5348   25.5594 C   0  0  2  0  0  0  0  0  0  0  0  0
    8.7522  -15.0183   24.1761 N   0  0  0  0  0  0  0  0  0  0  0  0
    9.0355  -15.6449   26.4737 C   0  0  0  0  0  0  0  0  0  0  0  0
    8.7688  -16.8547   26.3073 O   0  0  0  0  0  0  0  0  0  0  0  0
    9.6958  -15.3846   27.7038 O   0  0  0  0  0  0  0  0  0  0  0  0
  2  1  1  6
  2  6  1  0
  3  2  1  0
  3  4  1  0
  4  5  2  0
  4  8  1  0
  6  7  2  0
 10  9  1  6
 10 12  1  0
 11 10  1  0
 12 14  1  0
 12 13  1  1
 13  6  1  0
 14 21  1  0
 15 14  2  0
 16 17  1  0
 18 19  1  1
 18 17  1  0
 20 21  1  6
 20 18  1  0
 22 20  1  0
 23 22  2  0
 24 22  1  0
M  END
$$$$
