DTI.pdb
     RDKit          3D

 24 23  0  0  1  0  0  0  0  0999 V2000
   11.6849  -16.0924   18.2472 N   0  0  0  0  0  0  0  0  0  0  0  0
   11.9902  -15.5368   19.5681 C   0  0  1  0  0  0  0  0  0  0  0  0
   12.8836  -14.3485   19.4536 C   0  0  0  0  0  0  0  0  0  0  0  0
   14.2230  -14.6115   18.8965 C   0  0  0  0  0  0  0  0  0  0  0  0
   14.9914  -15.4451   19.5002 O   0  0  0  0  0  0  0  0  0  0  0  0
   10.7262  -15.2141   20.2784 C   0  0  0  0  0  0  0  0  0  0  0  0
   10.0913  -14.1993   19.9478 O   0  0  0  0  0  0  0  0  0  0  0  0
   14.7244  -14.0142   17.7528 O   0  0  0  0  0  0  0  0  0  0  0  0
    7.5499  -16.9920   20.4933 C   0  0  0  0  0  0  0  0  0  0  0  0
    7.9450  -16.8326   21.9468 C   0  0  1  0  0  0  0  0  0  0  0  0
    8.6116  -18.0095   22.3038 O   0  0  0  0  0  0  0  0  0  0  0  0
    8.9619  -15.7277   22.0121 C   0  0  2  0  0  0  0  0  0  0  0  0
   10.1887  -15.9998   21.3251 N   0  0  0  0  0  0  0  0  0  0  0  0
    9.2058  -15.4117   23.4492 C   0  0  0  0  0  0  0  0  0  0  0  0
   10.3058  -15.7345   23.9367 O   0  0  0  0  0  0  0  0  0  0  0  0
    6.0105  -11.4218   25.7182 C   0  0  0  0  0  0  0  0  0  0  0  0
    7.1464  -12.2760   25.2790 C   0  0  0  0  0  0  0  0  0  0  0  0
    7.5087  -13.4264   26.1497 C   0  0  2  0  0  0  0  0  0  0  0  0
    7.8909  -12.8811   27.5276 C   0  0  0  0  0  0  0  0  0  0  0  0
    8.4570  -14.4452   25.6811 C   0  0  2  0  0  0  0  0  0  0  0  0
    8.2506  -14.7693   24.2669 N   0  0  0  0  0  0  0  0  0  0  0  0
    8.6140  -15.6829   26.4544 C   0  0  0  0  0  0  0  0  0  0  0  0
    7.9026  -16.7091   26.3948 O   0  0  0  0  0  0  0  0  0  0  0  0
    9.6730  -15.7936   27.3941 O   0  0  0  0  0  0  0  0  0  0  0  0
  2  1  1  6
  2  6  1  0
  3  2  1  0
  3  4  1  0
  4  5  2  0
  4  8  1  0
  6  7  2  0
 10  9  1  6
 10 12  1  0
 11 10  1  0
 12 14  1  0
 12 13  1  1
 13  6  1  0
 14 21  1  0
 15 14  2  0
 16 17  1  0
 18 19  1  1
 18 17  1  0
 20 21  1  6
 20 18  1  0
 22 20  1  0
 23 22  2  0
 24 22  1  0
M  END
$$$$
