DTI.pdb
     RDKit          3D

 24 23  0  0  1  0  0  0  0  0999 V2000
   11.0768  -18.7255   20.4943 N   0  0  0  0  0  0  0  0  0  0  0  0
   11.4150  -17.3520   20.1122 C   0  0  1  0  0  0  0  0  0  0  0  0
   11.5470  -17.2271   18.6323 C   0  0  0  0  0  0  0  0  0  0  0  0
   12.7932  -17.7659   18.0575 C   0  0  0  0  0  0  0  0  0  0  0  0
   13.6180  -18.3758   18.8305 O   0  0  0  0  0  0  0  0  0  0  0  0
   10.3989  -16.4169   20.6595 C   0  0  0  0  0  0  0  0  0  0  0  0
   10.5055  -15.2033   20.4191 O   0  0  0  0  0  0  0  0  0  0  0  0
   13.1483  -17.6591   16.7239 O   0  0  0  0  0  0  0  0  0  0  0  0
    6.4802  -16.7707   20.6338 C   0  0  0  0  0  0  0  0  0  0  0  0
    6.9222  -16.5192   22.0605 C   0  0  1  0  0  0  0  0  0  0  0  0
    7.0350  -17.7763   22.6639 O   0  0  0  0  0  0  0  0  0  0  0  0
    8.3106  -15.9465   22.0011 C   0  0  2  0  0  0  0  0  0  0  0  0
    9.2989  -16.8246   21.4504 N   0  0  0  0  0  0  0  0  0  0  0  0
    8.6852  -15.5054   23.3757 C   0  0  0  0  0  0  0  0  0  0  0  0
    9.6982  -16.0132   23.8932 O   0  0  0  0  0  0  0  0  0  0  0  0
    6.9151  -11.0689   27.4694 C   0  0  0  0  0  0  0  0  0  0  0  0
    7.7221  -12.2817   27.1680 C   0  0  0  0  0  0  0  0  0  0  0  0
    7.4221  -13.0007   25.9008 C   0  0  2  0  0  0  0  0  0  0  0  0
    5.9297  -13.3390   25.8851 C   0  0  0  0  0  0  0  0  0  0  0  0
    8.2469  -14.1399   25.4779 C   0  0  2  0  0  0  0  0  0  0  0  0
    7.9458  -14.5471   24.1028 N   0  0  0  0  0  0  0  0  0  0  0  0
    8.3210  -15.3256   26.3399 C   0  0  0  0  0  0  0  0  0  0  0  0
    9.0305  -15.4796   27.3575 O   0  0  0  0  0  0  0  0  0  0  0  0
    7.5231  -16.4617   26.0406 O   0  0  0  0  0  0  0  0  0  0  0  0
  2  1  1  6
  2  6  1  0
  3  2  1  0
  3  4  1  0
  4  5  2  0
  4  8  1  0
  6  7  2  0
 10  9  1  6
 10 12  1  0
 11 10  1  0
 12 14  1  0
 12 13  1  1
 13  6  1  0
 14 21  1  0
 15 14  2  0
 16 17  1  0
 18 19  1  1
 18 17  1  0
 20 21  1  6
 20 18  1  0
 22 20  1  0
 23 22  2  0
 24 22  1  0
M  END
$$$$
