DTI.pdb
     RDKit          3D

 24 23  0  0  1  0  0  0  0  0999 V2000
   10.9373  -18.4561   20.6598 N   0  0  0  0  0  0  0  0  0  0  0  0
   11.7826  -17.2954   20.9514 C   0  0  1  0  0  0  0  0  0  0  0  0
   12.6068  -16.9243   19.7656 C   0  0  0  0  0  0  0  0  0  0  0  0
   13.7610  -17.8006   19.4942 C   0  0  0  0  0  0  0  0  0  0  0  0
   13.8683  -18.9020   20.1461 O   0  0  0  0  0  0  0  0  0  0  0  0
   10.9369  -16.1656   21.4148 C   0  0  0  0  0  0  0  0  0  0  0  0
   11.4854  -15.1153   21.7865 O   0  0  0  0  0  0  0  0  0  0  0  0
   14.7569  -17.5183   18.5751 O   0  0  0  0  0  0  0  0  0  0  0  0
    7.5226  -14.7303   19.8826 C   0  0  0  0  0  0  0  0  0  0  0  0
    7.3225  -15.0876   21.3408 C   0  0  1  0  0  0  0  0  0  0  0  0
    6.8016  -16.3857   21.3591 O   0  0  0  0  0  0  0  0  0  0  0  0
    8.6852  -15.1640   21.9705 C   0  0  2  0  0  0  0  0  0  0  0  0
    9.5236  -16.2079   21.4619 N   0  0  0  0  0  0  0  0  0  0  0  0
    8.5038  -15.2868   23.4458 C   0  0  0  0  0  0  0  0  0  0  0  0
    8.9614  -16.3015   24.0051 O   0  0  0  0  0  0  0  0  0  0  0  0
    6.6011  -10.7659   26.4393 C   0  0  0  0  0  0  0  0  0  0  0  0
    7.4617  -11.9366   26.1204 C   0  0  0  0  0  0  0  0  0  0  0  0
    6.8280  -13.2813   26.1741 C   0  0  2  0  0  0  0  0  0  0  0  0
    6.3175  -13.5124   27.5982 C   0  0  0  0  0  0  0  0  0  0  0  0
    7.5315  -14.4576   25.6464 C   0  0  2  0  0  0  0  0  0  0  0  0
    7.8425  -14.3102   24.2220 N   0  0  0  0  0  0  0  0  0  0  0  0
    6.9748  -15.7928   25.8955 C   0  0  0  0  0  0  0  0  0  0  0  0
    7.2565  -16.5681   26.8347 O   0  0  0  0  0  0  0  0  0  0  0  0
    6.0022  -16.3243   25.0077 O   0  0  0  0  0  0  0  0  0  0  0  0
  2  1  1  6
  2  6  1  0
  3  2  1  0
  3  4  1  0
  4  5  2  0
  4  8  1  0
  6  7  2  0
 10  9  1  6
 10 12  1  0
 11 10  1  0
 12 14  1  0
 12 13  1  6
 13  6  1  0
 14 21  1  0
 15 14  2  0
 16 17  1  0
 18 19  1  1
 18 17  1  0
 20 21  1  6
 20 18  1  0
 22 20  1  0
 23 22  2  0
 24 22  1  0
M  END
$$$$
