DTI.pdb
     RDKit          3D

 24 23  0  0  1  0  0  0  0  0999 V2000
   10.9939  -17.4860   18.3863 N   0  0  0  0  0  0  0  0  0  0  0  0
   11.2842  -17.4092   19.8205 C   0  0  1  0  0  0  0  0  0  0  0  0
   12.6834  -16.9519   20.0579 C   0  0  0  0  0  0  0  0  0  0  0  0
   13.7368  -17.7918   19.4591 C   0  0  0  0  0  0  0  0  0  0  0  0
   14.7089  -17.2202   18.8442 O   0  0  0  0  0  0  0  0  0  0  0  0
   10.2917  -16.5255   20.4842 C   0  0  0  0  0  0  0  0  0  0  0  0
   10.0169  -15.4313   19.9651 O   0  0  0  0  0  0  0  0  0  0  0  0
   13.7552  -19.1751   19.5084 O   0  0  0  0  0  0  0  0  0  0  0  0
    6.8358  -16.9889   20.8493 C   0  0  0  0  0  0  0  0  0  0  0  0
    7.2315  -16.7605   22.2934 C   0  0  1  0  0  0  0  0  0  0  0  0
    7.4253  -18.0280   22.8526 O   0  0  0  0  0  0  0  0  0  0  0  0
    8.5748  -16.0862   22.2846 C   0  0  2  0  0  0  0  0  0  0  0  0
    9.6275  -16.8536   21.6896 N   0  0  0  0  0  0  0  0  0  0  0  0
    8.9086  -15.7079   23.6882 C   0  0  0  0  0  0  0  0  0  0  0  0
    9.9860  -16.1182   24.1601 O   0  0  0  0  0  0  0  0  0  0  0  0
    5.8913  -11.5540   26.0781 C   0  0  0  0  0  0  0  0  0  0  0  0
    6.9822  -12.4263   25.5664 C   0  0  0  0  0  0  0  0  0  0  0  0
    7.3749  -13.5886   26.4076 C   0  0  2  0  0  0  0  0  0  0  0  0
    7.7878  -13.0640   27.7847 C   0  0  0  0  0  0  0  0  0  0  0  0
    8.3187  -14.5917   25.8977 C   0  0  2  0  0  0  0  0  0  0  0  0
    8.0617  -14.9133   24.4913 N   0  0  0  0  0  0  0  0  0  0  0  0
    8.5236  -15.8300   26.6588 C   0  0  0  0  0  0  0  0  0  0  0  0
    7.8614  -16.8871   26.5787 O   0  0  0  0  0  0  0  0  0  0  0  0
    9.5754  -15.9028   27.6102 O   0  0  0  0  0  0  0  0  0  0  0  0
  2  1  1  6
  2  6  1  0
  3  2  1  0
  3  4  1  0
  4  5  2  0
  4  8  1  0
  6  7  2  0
 10  9  1  6
 10 12  1  0
 11 10  1  0
 12 14  1  0
 12 13  1  1
 13  6  1  0
 14 21  1  0
 15 14  2  0
 16 17  1  0
 18 19  1  1
 18 17  1  0
 20 21  1  6
 20 18  1  0
 22 20  1  0
 23 22  2  0
 24 22  1  0
M  END
$$$$
