DTI.pdb
     RDKit          3D

 24 23  0  0  1  0  0  0  0  0999 V2000
   11.9038  -17.0525   18.7883 N   0  0  0  0  0  0  0  0  0  0  0  0
   11.8207  -17.2214   20.2414 C   0  0  1  0  0  0  0  0  0  0  0  0
   13.1420  -16.9685   20.8843 C   0  0  0  0  0  0  0  0  0  0  0  0
   14.2566  -17.8004   20.3951 C   0  0  0  0  0  0  0  0  0  0  0  0
   15.3595  -17.2279   20.0701 O   0  0  0  0  0  0  0  0  0  0  0  0
   10.7598  -16.3365   20.7870 C   0  0  0  0  0  0  0  0  0  0  0  0
   10.6851  -15.1649   20.3821 O   0  0  0  0  0  0  0  0  0  0  0  0
   14.2012  -19.1763   20.2545 O   0  0  0  0  0  0  0  0  0  0  0  0
    7.0967  -16.6047   20.6386 C   0  0  0  0  0  0  0  0  0  0  0  0
    7.3797  -16.5052   22.1232 C   0  0  1  0  0  0  0  0  0  0  0  0
    7.4424  -17.8188   22.5999 O   0  0  0  0  0  0  0  0  0  0  0  0
    8.7593  -15.9281   22.2748 C   0  0  2  0  0  0  0  0  0  0  0  0
    9.8128  -16.7472   21.7546 N   0  0  0  0  0  0  0  0  0  0  0  0
    8.9742  -15.6238   23.7190 C   0  0  0  0  0  0  0  0  0  0  0  0
    9.9543  -16.1461   24.2834 O   0  0  0  0  0  0  0  0  0  0  0  0
    6.2568  -11.1442   25.8389 C   0  0  0  0  0  0  0  0  0  0  0  0
    7.3303  -12.1090   25.4792 C   0  0  0  0  0  0  0  0  0  0  0  0
    7.4359  -13.3459   26.2988 C   0  0  2  0  0  0  0  0  0  0  0  0
    7.6948  -12.9365   27.7505 C   0  0  0  0  0  0  0  0  0  0  0  0
    8.3105  -14.4472   25.8756 C   0  0  2  0  0  0  0  0  0  0  0  0
    8.1211  -14.7777   24.4606 N   0  0  0  0  0  0  0  0  0  0  0  0
    8.3410  -15.6800   26.6717 C   0  0  0  0  0  0  0  0  0  0  0  0
    9.0847  -15.9367   27.6430 O   0  0  0  0  0  0  0  0  0  0  0  0
    7.4515  -16.7412   26.3560 O   0  0  0  0  0  0  0  0  0  0  0  0
  2  1  1  6
  2  6  1  0
  3  2  1  0
  3  4  1  0
  4  5  2  0
  4  8  1  0
  6  7  2  0
 10  9  1  6
 10 12  1  0
 11 10  1  0
 12 14  1  0
 12 13  1  1
 13  6  1  0
 14 21  1  0
 15 14  2  0
 16 17  1  0
 18 19  1  1
 18 17  1  0
 20 21  1  6
 20 18  1  0
 22 20  1  0
 23 22  2  0
 24 22  1  0
M  END
$$$$
