TFD.pdb
     RDKit          3D

 27 27  0  0  1  0  0  0  0  0999 V2000
    9.1737  -19.2099   19.5167 C   0  0  0  0  0  0  0  0  0  0  0  0
    9.3802  -18.2509   20.6514 C   0  0  1  0  0  0  0  0  0  0  0  0
   10.4837  -18.5905   21.4406 O   0  0  0  0  0  0  0  0  0  0  0  0
    9.4133  -16.8119   20.2343 C   0  0  2  0  0  0  0  0  0  0  0  0
   10.4179  -16.4902   19.2723 N   0  0  0  0  0  0  0  0  0  0  0  0
    9.4643  -15.9688   21.4477 C   0  0  0  0  0  0  0  0  0  0  0  0
   10.5996  -15.5870   21.8327 O   0  0  0  0  0  0  0  0  0  0  0  0
    8.3142  -15.5738   22.1899 N   0  0  0  0  0  0  0  0  0  0  0  0
    8.3713  -14.8975   23.4501 C   0  0  1  0  0  0  0  0  0  0  0  0
    7.0599  -14.2554   23.8416 C   0  0  0  0  0  0  0  0  0  0  0  0
    7.1465  -13.5264   25.1336 C   0  0  0  0  0  0  0  0  0  0  0  0
    6.3985  -13.9370   26.2209 C   0  0  0  0  0  0  0  0  0  0  0  0
    6.4619  -13.2745   27.4330 C   0  0  0  0  0  0  0  0  0  0  0  0
    7.2852  -12.1695   27.5928 C   0  0  0  0  0  0  0  0  0  0  0  0
    8.0374  -11.7490   26.5149 C   0  0  0  0  0  0  0  0  0  0  0  0
    7.9560  -12.4276   25.3161 C   0  0  0  0  0  0  0  0  0  0  0  0
    8.8079  -15.7814   24.5549 C   0  0  0  0  0  0  0  0  0  0  0  0
    8.1943  -16.8502   24.7818 O   0  0  0  0  0  0  0  0  0  0  0  0
    9.9138  -15.4592   25.3806 N   0  0  0  0  0  0  0  0  0  0  0  0
   10.3221  -16.3410   26.4863 C   0  0  1  0  0  0  0  0  0  0  0  0
   11.7739  -16.6335   26.2841 C   0  0  0  0  0  0  0  0  0  0  0  0
   12.0904  -17.1591   24.9508 C   0  0  0  0  0  0  0  0  0  0  0  0
   11.5317  -18.1541   24.4475 O   0  0  0  0  0  0  0  0  0  0  0  0
   10.0781  -15.6478   27.7703 C   0  0  0  0  0  0  0  0  0  0  0  0
   10.2260  -16.2686   28.9999 O   0  0  0  0  0  0  0  0  0  0  0  0
   13.0707  -16.5164   24.1949 O   0  0  0  0  0  0  0  0  0  0  0  0
    9.7137  -14.4213   27.7644 O   0  0  0  0  0  0  0  0  0  0  0  0
  2  1  1  6
  2  4  1  0
  3  2  1  0
  4  5  1  6
  4  6  1  0
  6  7  2  0
  8  6  1  0
  8  9  1  0
  9 10  1  1
 11 10  1  0
 12 11  2  0
 13 12  1  0
 14 15  1  0
 14 13  2  0
 15 16  2  0
 16 11  1  0
 17 19  1  0
 17  9  1  0
 18 17  2  0
 20 19  1  0
 20 21  1  6
 22 26  1  0
 22 21  1  0
 23 22  2  0
 24 25  1  0
 24 20  1  0
 27 24  2  0
M  END
$$$$
