TFD.pdb
     RDKit          3D

 27 27  0  0  1  0  0  0  0  0999 V2000
    8.7310  -18.8258   18.7753 C   0  0  0  0  0  0  0  0  0  0  0  0
    8.9953  -18.0307   20.0194 C   0  0  1  0  0  0  0  0  0  0  0  0
    9.9088  -18.6617   20.8698 O   0  0  0  0  0  0  0  0  0  0  0  0
    9.3669  -16.6020   19.7617 C   0  0  2  0  0  0  0  0  0  0  0  0
   10.5363  -16.4220   18.9627 N   0  0  0  0  0  0  0  0  0  0  0  0
    9.4175  -15.8858   21.0541 C   0  0  0  0  0  0  0  0  0  0  0  0
   10.5536  -15.6975   21.5607 O   0  0  0  0  0  0  0  0  0  0  0  0
    8.2660  -15.4069   21.7428 N   0  0  0  0  0  0  0  0  0  0  0  0
    8.3043  -14.8131   23.0447 C   0  0  1  0  0  0  0  0  0  0  0  0
    7.0366  -14.0692   23.3978 C   0  0  0  0  0  0  0  0  0  0  0  0
    7.1093  -13.4231   24.7340 C   0  0  0  0  0  0  0  0  0  0  0  0
    6.3190  -13.8745   25.7741 C   0  0  0  0  0  0  0  0  0  0  0  0
    6.3687  -13.2891   27.0259 C   0  0  0  0  0  0  0  0  0  0  0  0
    7.2207  -12.2229   27.2747 C   0  0  0  0  0  0  0  0  0  0  0  0
    8.0152  -11.7623   26.2446 C   0  0  0  0  0  0  0  0  0  0  0  0
    7.9466  -12.3641   25.0047 C   0  0  0  0  0  0  0  0  0  0  0  0
    8.5827  -15.7978   24.1150 C   0  0  0  0  0  0  0  0  0  0  0  0
    7.7960  -16.7542   24.3064 O   0  0  0  0  0  0  0  0  0  0  0  0
    9.7262  -15.6984   24.9462 N   0  0  0  0  0  0  0  0  0  0  0  0
   10.0238  -16.7242   25.9591 C   0  0  1  0  0  0  0  0  0  0  0  0
   11.4969  -16.9698   25.8968 C   0  0  0  0  0  0  0  0  0  0  0  0
   11.9221  -17.7114   24.7039 C   0  0  0  0  0  0  0  0  0  0  0  0
   11.1332  -18.1550   23.8458 O   0  0  0  0  0  0  0  0  0  0  0  0
    9.6092  -16.2234   27.2881 C   0  0  0  0  0  0  0  0  0  0  0  0
    9.1465  -14.9341   27.4949 O   0  0  0  0  0  0  0  0  0  0  0  0
   13.2844  -17.9388   24.5090 O   0  0  0  0  0  0  0  0  0  0  0  0
    9.6741  -17.0008   28.3022 O   0  0  0  0  0  0  0  0  0  0  0  0
  2  1  1  6
  2  4  1  0
  3  2  1  0
  4  5  1  1
  4  6  1  0
  6  7  2  0
  8  6  1  0
  8  9  1  0
  9 10  1  1
 11 10  1  0
 12 11  2  0
 13 12  1  0
 14 15  1  0
 14 13  2  0
 15 16  2  0
 16 11  1  0
 17 19  1  0
 17  9  1  0
 18 17  2  0
 20 19  1  0
 20 21  1  1
 22 26  1  0
 22 21  1  0
 23 22  2  0
 24 25  1  0
 24 20  1  0
 27 24  2  0
M  END
$$$$
