TFD.pdb
     RDKit          3D

 27 27  0  0  1  0  0  0  0  0999 V2000
    7.9926  -18.4250   18.6817 C   0  0  0  0  0  0  0  0  0  0  0  0
    8.3693  -17.7215   19.9517 C   0  0  1  0  0  0  0  0  0  0  0  0
    9.2547  -18.4712   20.7326 O   0  0  0  0  0  0  0  0  0  0  0  0
    8.8537  -16.3178   19.7497 C   0  0  2  0  0  0  0  0  0  0  0  0
   10.0182  -16.1979   18.9325 N   0  0  0  0  0  0  0  0  0  0  0  0
    8.9892  -15.6693   21.0714 C   0  0  0  0  0  0  0  0  0  0  0  0
   10.1399  -15.6379   21.5789 O   0  0  0  0  0  0  0  0  0  0  0  0
    7.9025  -15.0889   21.7869 N   0  0  0  0  0  0  0  0  0  0  0  0
    8.0079  -14.5741   23.1183 C   0  0  1  0  0  0  0  0  0  0  0  0
    6.7421  -13.9019   23.5991 C   0  0  0  0  0  0  0  0  0  0  0  0
    6.8807  -13.3402   24.9679 C   0  0  0  0  0  0  0  0  0  0  0  0
    6.1050  -13.8231   26.0049 C   0  0  0  0  0  0  0  0  0  0  0  0
    6.2157  -13.3161   27.2866 C   0  0  0  0  0  0  0  0  0  0  0  0
    7.1162  -12.2995   27.5698 C   0  0  0  0  0  0  0  0  0  0  0  0
    7.8967  -11.8082   26.5432 C   0  0  0  0  0  0  0  0  0  0  0  0
    7.7670  -12.3315   25.2730 C   0  0  0  0  0  0  0  0  0  0  0  0
    8.3910  -15.6105   24.1041 C   0  0  0  0  0  0  0  0  0  0  0  0
    7.7091  -16.6564   24.2104 O   0  0  0  0  0  0  0  0  0  0  0  0
    9.5204  -15.4622   24.9473 N   0  0  0  0  0  0  0  0  0  0  0  0
   10.0073  -16.5794   25.7729 C   0  0  1  0  0  0  0  0  0  0  0  0
   11.4845  -16.6556   25.5581 C   0  0  0  0  0  0  0  0  0  0  0  0
   11.8893  -17.6904   24.5993 C   0  0  0  0  0  0  0  0  0  0  0  0
   11.0866  -18.4399   24.0084 O   0  0  0  0  0  0  0  0  0  0  0  0
    9.6742  -16.3124   27.1894 C   0  0  0  0  0  0  0  0  0  0  0  0
    9.0883  -15.1311   27.6143 O   0  0  0  0  0  0  0  0  0  0  0  0
   13.2474  -17.8533   24.3261 O   0  0  0  0  0  0  0  0  0  0  0  0
    9.9314  -17.1996   28.0747 O   0  0  0  0  0  0  0  0  0  0  0  0
  2  1  1  6
  2  4  1  0
  3  2  1  0
  4  5  1  1
  4  6  1  0
  6  7  2  0
  8  6  1  0
  8  9  1  0
  9 10  1  1
 11 10  1  0
 12 11  2  0
 13 12  1  0
 14 15  1  0
 14 13  2  0
 15 16  2  0
 16 11  1  0
 17 19  1  0
 17  9  1  0
 18 17  2  0
 20 19  1  0
 20 21  1  1
 22 26  1  0
 22 21  1  0
 23 22  2  0
 24 25  1  0
 24 20  1  0
 27 24  2  0
M  END
$$$$
