TFD.pdb
     RDKit          3D

 27 27  0  0  1  0  0  0  0  0999 V2000
    8.8886  -18.9212   19.0355 C   0  0  0  0  0  0  0  0  0  0  0  0
    9.1313  -18.0420   20.2263 C   0  0  1  0  0  0  0  0  0  0  0  0
   10.2062  -18.4845   21.0039 O   0  0  0  0  0  0  0  0  0  0  0  0
    9.2444  -16.5849   19.8946 C   0  0  2  0  0  0  0  0  0  0  0  0
   10.2752  -16.2613   18.9614 N   0  0  0  0  0  0  0  0  0  0  0  0
    9.3257  -15.8176   21.1557 C   0  0  0  0  0  0  0  0  0  0  0  0
   10.4662  -15.4284   21.5169 O   0  0  0  0  0  0  0  0  0  0  0  0
    8.1987  -15.5024   21.9682 N   0  0  0  0  0  0  0  0  0  0  0  0
    8.2900  -14.8654   23.2468 C   0  0  1  0  0  0  0  0  0  0  0  0
    6.9903  -14.2348   23.6924 C   0  0  0  0  0  0  0  0  0  0  0  0
    7.1147  -13.5371   24.9985 C   0  0  0  0  0  0  0  0  0  0  0  0
    6.5105  -14.0540   26.1290 C   0  0  0  0  0  0  0  0  0  0  0  0
    6.6117  -13.4226   27.3550 C   0  0  0  0  0  0  0  0  0  0  0  0
    7.3287  -12.2422   27.4856 C   0  0  0  0  0  0  0  0  0  0  0  0
    7.9368  -11.7152   26.3644 C   0  0  0  0  0  0  0  0  0  0  0  0
    7.8207  -12.3650   25.1526 C   0  0  0  0  0  0  0  0  0  0  0  0
    8.7542  -15.7834   24.3118 C   0  0  0  0  0  0  0  0  0  0  0  0
    8.1508  -16.8626   24.5156 O   0  0  0  0  0  0  0  0  0  0  0  0
    9.8757  -15.4828   25.1245 N   0  0  0  0  0  0  0  0  0  0  0  0
   10.4291  -16.4772   26.0581 C   0  0  1  0  0  0  0  0  0  0  0  0
   11.9169  -16.3698   25.9625 C   0  0  0  0  0  0  0  0  0  0  0  0
   12.4515  -16.7296   24.6440 C   0  0  0  0  0  0  0  0  0  0  0  0
   11.9121  -17.5535   23.8786 O   0  0  0  0  0  0  0  0  0  0  0  0
    9.9462  -16.1766   27.4239 C   0  0  0  0  0  0  0  0  0  0  0  0
   10.1499  -17.0277   28.4978 O   0  0  0  0  0  0  0  0  0  0  0  0
   13.6300  -16.1212   24.2123 O   0  0  0  0  0  0  0  0  0  0  0  0
    9.3106  -15.0877   27.6415 O   0  0  0  0  0  0  0  0  0  0  0  0
  2  1  1  6
  2  4  1  0
  3  2  1  0
  4  5  1  6
  4  6  1  0
  6  7  2  0
  8  6  1  0
  8  9  1  0
  9 10  1  1
 11 10  1  0
 12 11  2  0
 13 12  1  0
 14 15  1  0
 14 13  2  0
 15 16  2  0
 16 11  1  0
 17 19  1  0
 17  9  1  0
 18 17  2  0
 20 19  1  0
 20 21  1  1
 22 26  1  0
 22 21  1  0
 23 22  2  0
 24 25  1  0
 24 20  1  0
 27 24  2  0
M  END
$$$$
