TFD.pdb
     RDKit          3D

 27 27  0  0  1  0  0  0  0  0999 V2000
    8.3235  -18.7031   18.5889 C   0  0  0  0  0  0  0  0  0  0  0  0
    8.6361  -17.9463   19.8457 C   0  0  1  0  0  0  0  0  0  0  0  0
    9.5900  -18.5969   20.6349 O   0  0  0  0  0  0  0  0  0  0  0  0
    8.9866  -16.5070   19.6187 C   0  0  2  0  0  0  0  0  0  0  0  0
   10.0992  -16.2912   18.7506 N   0  0  0  0  0  0  0  0  0  0  0  0
    9.1223  -15.8406   20.9314 C   0  0  0  0  0  0  0  0  0  0  0  0
   10.2862  -15.7149   21.3925 O   0  0  0  0  0  0  0  0  0  0  0  0
    8.0223  -15.3426   21.6874 N   0  0  0  0  0  0  0  0  0  0  0  0
    8.1453  -14.7725   22.9946 C   0  0  1  0  0  0  0  0  0  0  0  0
    6.8795  -14.0975   23.4716 C   0  0  0  0  0  0  0  0  0  0  0  0
    7.0339  -13.4834   24.8159 C   0  0  0  0  0  0  0  0  0  0  0  0
    7.7901  -12.3382   24.9801 C   0  0  0  0  0  0  0  0  0  0  0  0
    7.9488  -11.7489   26.2209 C   0  0  0  0  0  0  0  0  0  0  0  0
    7.3482  -12.2957   27.3455 C   0  0  0  0  0  0  0  0  0  0  0  0
    6.5904  -13.4393   27.1955 C   0  0  0  0  0  0  0  0  0  0  0  0
    6.4477  -14.0077   25.9462 C   0  0  0  0  0  0  0  0  0  0  0  0
    8.5605  -15.7627   24.0142 C   0  0  0  0  0  0  0  0  0  0  0  0
    7.9698  -16.8650   24.0940 O   0  0  0  0  0  0  0  0  0  0  0  0
    9.6202  -15.5070   24.9199 N   0  0  0  0  0  0  0  0  0  0  0  0
   10.2533  -16.5971   25.6798 C   0  0  1  0  0  0  0  0  0  0  0  0
   11.6645  -16.6900   25.1960 C   0  0  0  0  0  0  0  0  0  0  0  0
   12.4429  -17.7511   25.8456 C   0  0  0  0  0  0  0  0  0  0  0  0
   12.0892  -18.9465   25.8827 O   0  0  0  0  0  0  0  0  0  0  0  0
   10.1904  -16.2779   27.1231 C   0  0  0  0  0  0  0  0  0  0  0  0
   10.4093  -17.2227   28.1123 O   0  0  0  0  0  0  0  0  0  0  0  0
   13.6489  -17.4142   26.4600 O   0  0  0  0  0  0  0  0  0  0  0  0
    9.9232  -15.0824   27.4924 O   0  0  0  0  0  0  0  0  0  0  0  0
  2  1  1  6
  2  4  1  0
  3  2  1  0
  4  5  1  1
  4  6  1  0
  6  7  2  0
  8  6  1  0
  8  9  1  0
  9 10  1  1
 11 10  1  0
 12 11  2  0
 13 12  1  0
 14 15  1  0
 14 13  2  0
 15 16  2  0
 16 11  1  0
 17 19  1  0
 17  9  1  0
 18 17  2  0
 20 19  1  0
 20 21  1  6
 22 26  1  0
 22 21  1  0
 23 22  2  0
 24 25  1  0
 24 20  1  0
 27 24  2  0
M  END
$$$$
