TFD.pdb
     RDKit          3D

 27 27  0  0  1  0  0  0  0  0999 V2000
    9.3539  -19.1765   19.6774 C   0  0  0  0  0  0  0  0  0  0  0  0
    9.5988  -18.2659   20.8439 C   0  0  1  0  0  0  0  0  0  0  0  0
   10.8035  -18.5487   21.4956 O   0  0  0  0  0  0  0  0  0  0  0  0
    9.4690  -16.8092   20.5171 C   0  0  2  0  0  0  0  0  0  0  0  0
   10.3663  -16.3387   19.5112 N   0  0  0  0  0  0  0  0  0  0  0  0
    9.5317  -16.0348   21.7749 C   0  0  0  0  0  0  0  0  0  0  0  0
   10.6367  -15.5110   22.0708 O   0  0  0  0  0  0  0  0  0  0  0  0
    8.4247  -15.8549   22.6535 N   0  0  0  0  0  0  0  0  0  0  0  0
    8.5008  -15.1559   23.9003 C   0  0  1  0  0  0  0  0  0  0  0  0
    7.1458  -14.7880   24.4606 C   0  0  0  0  0  0  0  0  0  0  0  0
    7.2436  -13.9177   25.6610 C   0  0  0  0  0  0  0  0  0  0  0  0
    7.3128  -12.5439   25.5263 C   0  0  0  0  0  0  0  0  0  0  0  0
    7.4049  -11.7136   26.6282 C   0  0  0  0  0  0  0  0  0  0  0  0
    7.4307  -12.2411   27.9110 C   0  0  0  0  0  0  0  0  0  0  0  0
    7.3624  -13.6114   28.0596 C   0  0  0  0  0  0  0  0  0  0  0  0
    7.2710  -14.4179   26.9436 C   0  0  0  0  0  0  0  0  0  0  0  0
    9.2461  -15.9093   24.9343 C   0  0  0  0  0  0  0  0  0  0  0  0
    8.8349  -17.0319   25.3099 O   0  0  0  0  0  0  0  0  0  0  0  0
   10.4288  -15.4002   25.5264 N   0  0  0  0  0  0  0  0  0  0  0  0
   11.1645  -16.1695   26.5431 C   0  0  1  0  0  0  0  0  0  0  0  0
   12.6069  -15.8087   26.3893 C   0  0  0  0  0  0  0  0  0  0  0  0
   13.1530  -16.1114   25.0611 C   0  0  0  0  0  0  0  0  0  0  0  0
   13.8034  -15.2963   24.3769 O   0  0  0  0  0  0  0  0  0  0  0  0
   10.6514  -15.8103   27.8835 C   0  0  0  0  0  0  0  0  0  0  0  0
    9.6512  -14.8718   28.0790 O   0  0  0  0  0  0  0  0  0  0  0  0
   12.9379  -17.3804   24.5238 O   0  0  0  0  0  0  0  0  0  0  0  0
   11.1411  -16.3807   28.9187 O   0  0  0  0  0  0  0  0  0  0  0  0
  2  1  1  6
  2  4  1  0
  3  2  1  0
  4  5  1  6
  4  6  1  0
  6  7  2  0
  8  6  1  0
  8  9  1  0
  9 10  1  1
 11 10  1  0
 12 11  2  0
 13 12  1  0
 14 15  1  0
 14 13  2  0
 15 16  2  0
 16 11  1  0
 17 19  1  0
 17  9  1  0
 18 17  2  0
 20 19  1  0
 20 21  1  1
 22 26  1  0
 22 21  1  0
 23 22  2  0
 24 25  1  0
 24 20  1  0
 27 24  2  0
M  END
$$$$
