TFD.pdb
     RDKit          3D

 27 27  0  0  1  0  0  0  0  0999 V2000
    8.9014  -19.4429   19.5518 C   0  0  0  0  0  0  0  0  0  0  0  0
    9.1292  -18.4060   20.6115 C   0  0  1  0  0  0  0  0  0  0  0  0
   10.3668  -18.5564   21.2454 O   0  0  0  0  0  0  0  0  0  0  0  0
    8.9081  -16.9993   20.1446 C   0  0  2  0  0  0  0  0  0  0  0  0
    9.7210  -16.5995   19.0413 N   0  0  0  0  0  0  0  0  0  0  0  0
    9.0045  -16.0937   21.3093 C   0  0  0  0  0  0  0  0  0  0  0  0
   10.0857  -15.4685   21.4609 O   0  0  0  0  0  0  0  0  0  0  0  0
    7.9545  -15.8965   22.2518 N   0  0  0  0  0  0  0  0  0  0  0  0
    8.1032  -15.1586   23.4693 C   0  0  1  0  0  0  0  0  0  0  0  0
    6.7960  -14.6155   24.0001 C   0  0  0  0  0  0  0  0  0  0  0  0
    6.9736  -13.8162   25.2401 C   0  0  0  0  0  0  0  0  0  0  0  0
    6.7897  -14.3975   26.4804 C   0  0  0  0  0  0  0  0  0  0  0  0
    6.9487  -13.6741   27.6481 C   0  0  0  0  0  0  0  0  0  0  0  0
    7.3002  -12.3327   27.6067 C   0  0  0  0  0  0  0  0  0  0  0  0
    7.4867  -11.7399   26.3745 C   0  0  0  0  0  0  0  0  0  0  0  0
    7.3219  -12.4841   25.2242 C   0  0  0  0  0  0  0  0  0  0  0  0
    8.7521  -15.9474   24.5412 C   0  0  0  0  0  0  0  0  0  0  0  0
    8.2652  -17.0476   24.8917 O   0  0  0  0  0  0  0  0  0  0  0  0
    9.9247  -15.4977   25.1979 N   0  0  0  0  0  0  0  0  0  0  0  0
   10.6504  -16.3644   26.1408 C   0  0  1  0  0  0  0  0  0  0  0  0
   12.0916  -15.9784   26.0516 C   0  0  0  0  0  0  0  0  0  0  0  0
   12.7731  -16.5101   24.8655 C   0  0  0  0  0  0  0  0  0  0  0  0
   13.9163  -16.1620   24.5087 O   0  0  0  0  0  0  0  0  0  0  0  0
   10.1113  -16.1526   27.5022 C   0  0  0  0  0  0  0  0  0  0  0  0
    9.0956  -15.2514   27.7770 O   0  0  0  0  0  0  0  0  0  0  0  0
   12.1133  -17.4597   24.0856 O   0  0  0  0  0  0  0  0  0  0  0  0
   10.5921  -16.8219   28.4809 O   0  0  0  0  0  0  0  0  0  0  0  0
  2  1  1  6
  2  4  1  0
  3  2  1  0
  4  5  1  6
  4  6  1  0
  6  7  2  0
  8  6  1  0
  8  9  1  0
  9 10  1  1
 11 10  1  0
 12 11  2  0
 13 12  1  0
 14 15  1  0
 14 13  2  0
 15 16  2  0
 16 11  1  0
 17 19  1  0
 17  9  1  0
 18 17  2  0
 20 19  1  0
 20 21  1  1
 22 26  1  0
 22 21  1  0
 23 22  2  0
 24 25  1  0
 24 20  1  0
 27 24  2  0
M  END
$$$$
