TFD.pdb
     RDKit          3D

 27 27  0  0  1  0  0  0  0  0999 V2000
    8.6798  -18.7067   18.8548 C   0  0  0  0  0  0  0  0  0  0  0  0
    8.8982  -17.9646   20.1399 C   0  0  1  0  0  0  0  0  0  0  0  0
    9.6433  -18.7061   21.0623 O   0  0  0  0  0  0  0  0  0  0  0  0
    9.4489  -16.5826   19.9591 C   0  0  2  0  0  0  0  0  0  0  0  0
   10.7022  -16.5216   19.2782 N   0  0  0  0  0  0  0  0  0  0  0  0
    9.4544  -15.9003   21.2707 C   0  0  0  0  0  0  0  0  0  0  0  0
   10.5326  -15.9135   21.9189 O   0  0  0  0  0  0  0  0  0  0  0  0
    8.3213  -15.2406   21.8281 N   0  0  0  0  0  0  0  0  0  0  0  0
    8.2838  -14.7016   23.1536 C   0  0  1  0  0  0  0  0  0  0  0  0
    7.0066  -13.9513   23.4556 C   0  0  0  0  0  0  0  0  0  0  0  0
    7.0266  -13.3104   24.7961 C   0  0  0  0  0  0  0  0  0  0  0  0
    6.2232  -13.7895   25.8135 C   0  0  0  0  0  0  0  0  0  0  0  0
    6.2241  -13.2095   27.0688 C   0  0  0  0  0  0  0  0  0  0  0  0
    7.0386  -12.1208   27.3443 C   0  0  0  0  0  0  0  0  0  0  0  0
    7.8458  -11.6325   26.3371 C   0  0  0  0  0  0  0  0  0  0  0  0
    7.8262  -12.2294   25.0931 C   0  0  0  0  0  0  0  0  0  0  0  0
    8.4783  -15.7339   24.1971 C   0  0  0  0  0  0  0  0  0  0  0  0
    7.7660  -16.7649   24.1988 O   0  0  0  0  0  0  0  0  0  0  0  0
    9.4575  -15.5983   25.2126 N   0  0  0  0  0  0  0  0  0  0  0  0
    9.7957  -16.7227   26.1004 C   0  0  1  0  0  0  0  0  0  0  0  0
   11.1864  -17.1413   25.7468 C   0  0  0  0  0  0  0  0  0  0  0  0
   11.3535  -18.5945   25.6280 C   0  0  0  0  0  0  0  0  0  0  0  0
   10.4359  -19.4161   25.8246 O   0  0  0  0  0  0  0  0  0  0  0  0
    9.7018  -16.2714   27.5062 C   0  0  0  0  0  0  0  0  0  0  0  0
    9.4757  -17.1402   28.5613 O   0  0  0  0  0  0  0  0  0  0  0  0
   12.6063  -19.0963   25.2756 O   0  0  0  0  0  0  0  0  0  0  0  0
    9.8324  -15.0280   27.7784 O   0  0  0  0  0  0  0  0  0  0  0  0
  2  1  1  6
  2  4  1  0
  3  2  1  0
  4  5  1  1
  4  6  1  0
  6  7  2  0
  8  6  1  0
  8  9  1  0
  9 10  1  1
 11 10  1  0
 12 11  2  0
 13 12  1  0
 14 15  1  0
 14 13  2  0
 15 16  2  0
 16 11  1  0
 17 19  1  0
 17  9  1  0
 18 17  2  0
 20 19  1  0
 20 21  1  6
 22 26  1  0
 22 21  1  0
 23 22  2  0
 24 25  1  0
 24 20  1  0
 27 24  2  0
M  END
$$$$
