TFD.pdb
     RDKit          3D

 27 27  0  0  1  0  0  0  0  0999 V2000
    8.6794  -18.9701   19.3549 C   0  0  0  0  0  0  0  0  0  0  0  0
    8.9958  -18.1478   20.5688 C   0  0  1  0  0  0  0  0  0  0  0  0
   10.1346  -18.6056   21.2393 O   0  0  0  0  0  0  0  0  0  0  0  0
    9.0566  -16.6735   20.3069 C   0  0  2  0  0  0  0  0  0  0  0  0
   10.0069  -16.2798   19.3169 N   0  0  0  0  0  0  0  0  0  0  0  0
    9.2202  -15.9702   21.5970 C   0  0  0  0  0  0  0  0  0  0  0  0
   10.3684  -15.5343   21.8702 O   0  0  0  0  0  0  0  0  0  0  0  0
    8.1632  -15.7648   22.5298 N   0  0  0  0  0  0  0  0  0  0  0  0
    8.3236  -15.0892   23.7815 C   0  0  1  0  0  0  0  0  0  0  0  0
    7.0172  -14.6078   24.3703 C   0  0  0  0  0  0  0  0  0  0  0  0
    7.2126  -13.7848   25.5920 C   0  0  0  0  0  0  0  0  0  0  0  0
    7.4719  -12.4310   25.4904 C   0  0  0  0  0  0  0  0  0  0  0  0
    7.6577  -11.6448   26.6126 C   0  0  0  0  0  0  0  0  0  0  0  0
    7.5887  -12.1979   27.8830 C   0  0  0  0  0  0  0  0  0  0  0  0
    7.3306  -13.5486   27.9985 C   0  0  0  0  0  0  0  0  0  0  0  0
    7.1488  -14.3111   26.8628 C   0  0  0  0  0  0  0  0  0  0  0  0
    9.0166  -15.9176   24.7945 C   0  0  0  0  0  0  0  0  0  0  0  0
    8.5940  -17.0673   25.0590 O   0  0  0  0  0  0  0  0  0  0  0  0
   10.1607  -15.4516   25.4889 N   0  0  0  0  0  0  0  0  0  0  0  0
   10.9408  -16.3460   26.3596 C   0  0  1  0  0  0  0  0  0  0  0  0
   12.3766  -15.9727   26.1771 C   0  0  0  0  0  0  0  0  0  0  0  0
   12.8998  -16.2742   24.8395 C   0  0  0  0  0  0  0  0  0  0  0  0
   12.4118  -17.1371   24.0827 O   0  0  0  0  0  0  0  0  0  0  0  0
   10.5013  -16.1587   27.7599 C   0  0  0  0  0  0  0  0  0  0  0  0
   10.9609  -16.9451   28.8037 O   0  0  0  0  0  0  0  0  0  0  0  0
   14.0060  -15.5606   24.3784 O   0  0  0  0  0  0  0  0  0  0  0  0
    9.6604  -15.2354   28.0376 O   0  0  0  0  0  0  0  0  0  0  0  0
  2  1  1  6
  2  4  1  0
  3  2  1  0
  4  5  1  6
  4  6  1  0
  6  7  2  0
  8  6  1  0
  8  9  1  0
  9 10  1  1
 11 10  1  0
 12 11  2  0
 13 12  1  0
 14 15  1  0
 14 13  2  0
 15 16  2  0
 16 11  1  0
 17 19  1  0
 17  9  1  0
 18 17  2  0
 20 19  1  0
 20 21  1  1
 22 26  1  0
 22 21  1  0
 23 22  2  0
 24 25  1  0
 24 20  1  0
 27 24  2  0
M  END
$$$$
