TFD.pdb
     RDKit          3D

 27 27  0  0  1  0  0  0  0  0999 V2000
   10.2547  -19.2025   20.8808 C   0  0  0  0  0  0  0  0  0  0  0  0
    8.7954  -18.9084   20.6967 C   0  0  1  0  0  0  0  0  0  0  0  0
    8.0244  -19.3440   21.7791 O   0  0  0  0  0  0  0  0  0  0  0  0
    8.5017  -17.4830   20.3394 C   0  0  2  0  0  0  0  0  0  0  0  0
    9.1726  -17.0076   19.1723 N   0  0  0  0  0  0  0  0  0  0  0  0
    8.7238  -16.6406   21.5339 C   0  0  0  0  0  0  0  0  0  0  0  0
    9.9119  -16.3204   21.7964 O   0  0  0  0  0  0  0  0  0  0  0  0
    7.6799  -16.1813   22.3877 N   0  0  0  0  0  0  0  0  0  0  0  0
    7.8998  -15.4080   23.5721 C   0  0  1  0  0  0  0  0  0  0  0  0
    6.6593  -14.6908   24.0540 C   0  0  0  0  0  0  0  0  0  0  0  0
    6.9395  -13.7646   25.1818 C   0  0  0  0  0  0  0  0  0  0  0  0
    7.6889  -12.6212   24.9793 C   0  0  0  0  0  0  0  0  0  0  0  0
    7.9632  -11.7447   26.0130 C   0  0  0  0  0  0  0  0  0  0  0  0
    7.4896  -11.9909   27.2935 C   0  0  0  0  0  0  0  0  0  0  0  0
    6.7400  -13.1293   27.5093 C   0  0  0  0  0  0  0  0  0  0  0  0
    6.4804  -13.9878   26.4606 C   0  0  0  0  0  0  0  0  0  0  0  0
    8.4384  -16.2148   24.6907 C   0  0  0  0  0  0  0  0  0  0  0  0
    7.8597  -17.2710   25.0368 O   0  0  0  0  0  0  0  0  0  0  0  0
    9.6052  -15.8313   25.3979 N   0  0  0  0  0  0  0  0  0  0  0  0
   10.3256  -16.7867   26.2551 C   0  0  1  0  0  0  0  0  0  0  0  0
   11.7276  -16.8477   25.7404 C   0  0  0  0  0  0  0  0  0  0  0  0
   12.5966  -17.7543   26.4999 C   0  0  0  0  0  0  0  0  0  0  0  0
   12.2130  -18.8367   26.9862 O   0  0  0  0  0  0  0  0  0  0  0  0
   10.2777  -16.3093   27.6546 C   0  0  0  0  0  0  0  0  0  0  0  0
   10.5876  -17.1179   28.7360 O   0  0  0  0  0  0  0  0  0  0  0  0
   13.9300  -17.3941   26.6950 O   0  0  0  0  0  0  0  0  0  0  0  0
    9.9371  -15.0998   27.8959 O   0  0  0  0  0  0  0  0  0  0  0  0
  2  1  1  1
  2  4  1  0
  3  2  1  0
  4  5  1  6
  4  6  1  0
  6  7  2  0
  8  6  1  0
  8  9  1  0
  9 10  1  1
 11 10  1  0
 12 11  2  0
 13 12  1  0
 14 15  1  0
 14 13  2  0
 15 16  2  0
 16 11  1  0
 17 19  1  0
 17  9  1  0
 18 17  2  0
 20 19  1  0
 20 21  1  6
 22 26  1  0
 22 21  1  0
 23 22  2  0
 24 25  1  0
 24 20  1  0
 27 24  2  0
M  END
$$$$
