TFD.pdb
     RDKit          3D

 27 27  0  0  1  0  0  0  0  0999 V2000
    6.7121  -18.5726   18.9460 C   0  0  0  0  0  0  0  0  0  0  0  0
    7.3729  -17.8583   20.0875 C   0  0  1  0  0  0  0  0  0  0  0  0
    8.5831  -18.4533   20.4582 O   0  0  0  0  0  0  0  0  0  0  0  0
    7.5172  -16.3812   19.8799 C   0  0  2  0  0  0  0  0  0  0  0  0
    8.2466  -16.0091   18.7105 N   0  0  0  0  0  0  0  0  0  0  0  0
    8.0440  -15.7781   21.1227 C   0  0  0  0  0  0  0  0  0  0  0  0
    9.2507  -15.4222   21.1200 O   0  0  0  0  0  0  0  0  0  0  0  0
    7.2689  -15.5831   22.3021 N   0  0  0  0  0  0  0  0  0  0  0  0
    7.7693  -14.9662   23.4929 C   0  0  1  0  0  0  0  0  0  0  0  0
    6.6762  -14.5184   24.4363 C   0  0  0  0  0  0  0  0  0  0  0  0
    7.2047  -13.7632   25.6019 C   0  0  0  0  0  0  0  0  0  0  0  0
    7.0579  -12.3907   25.6720 C   0  0  0  0  0  0  0  0  0  0  0  0
    7.5415  -11.6664   26.7460 C   0  0  0  0  0  0  0  0  0  0  0  0
    8.1934  -12.3028   27.7922 C   0  0  0  0  0  0  0  0  0  0  0  0
    8.3468  -13.6730   27.7345 C   0  0  0  0  0  0  0  0  0  0  0  0
    7.8548  -14.3726   26.6516 C   0  0  0  0  0  0  0  0  0  0  0  0
    8.7041  -15.8384   24.2399 C   0  0  0  0  0  0  0  0  0  0  0  0
    8.4033  -17.0345   24.4615 O   0  0  0  0  0  0  0  0  0  0  0  0
    9.9491  -15.3634   24.7226 N   0  0  0  0  0  0  0  0  0  0  0  0
   11.0479  -16.2905   25.0388 C   0  0  1  0  0  0  0  0  0  0  0  0
   12.3133  -15.6043   24.6364 C   0  0  0  0  0  0  0  0  0  0  0  0
   13.5182  -16.4147   24.8498 C   0  0  0  0  0  0  0  0  0  0  0  0
   14.1677  -16.4238   25.9145 O   0  0  0  0  0  0  0  0  0  0  0  0
   11.0248  -16.5882   26.4879 C   0  0  0  0  0  0  0  0  0  0  0  0
   11.6883  -17.6698   27.0438 O   0  0  0  0  0  0  0  0  0  0  0  0
   13.9717  -17.2245   23.8087 O   0  0  0  0  0  0  0  0  0  0  0  0
   10.3684  -15.8246   27.2771 O   0  0  0  0  0  0  0  0  0  0  0  0
  2  1  1  6
  2  4  1  0
  3  2  1  0
  4  5  1  6
  4  6  1  0
  6  7  2  0
  8  6  1  0
  8  9  1  0
  9 10  1  1
 11 10  1  0
 12 11  2  0
 13 12  1  0
 14 15  1  0
 14 13  2  0
 15 16  2  0
 16 11  1  0
 17 19  1  0
 17  9  1  0
 18 17  2  0
 20 19  1  0
 20 21  1  1
 22 26  1  0
 22 21  1  0
 23 22  2  0
 24 25  1  0
 24 20  1  0
 27 24  2  0
M  END
$$$$
