TFD.pdb
     RDKit          3D

 27 27  0  0  1  0  0  0  0  0999 V2000
   10.7248  -18.3449   20.3107 C   0  0  0  0  0  0  0  0  0  0  0  0
    9.2736  -18.0770   20.0419 C   0  0  1  0  0  0  0  0  0  0  0  0
    8.4415  -18.6184   21.0270 O   0  0  0  0  0  0  0  0  0  0  0  0
    8.9595  -16.6361   19.7755 C   0  0  2  0  0  0  0  0  0  0  0  0
    9.7089  -16.0463   18.7131 N   0  0  0  0  0  0  0  0  0  0  0  0
    9.0490  -15.8893   21.0483 C   0  0  0  0  0  0  0  0  0  0  0  0
   10.1920  -15.5065   21.4088 O   0  0  0  0  0  0  0  0  0  0  0  0
    7.9272  -15.5865   21.8726 N   0  0  0  0  0  0  0  0  0  0  0  0
    8.0281  -14.9914   23.1705 C   0  0  1  0  0  0  0  0  0  0  0  0
    6.7203  -14.4174   23.6660 C   0  0  0  0  0  0  0  0  0  0  0  0
    6.8625  -13.7211   24.9710 C   0  0  0  0  0  0  0  0  0  0  0  0
    6.4227  -14.3204   26.1362 C   0  0  0  0  0  0  0  0  0  0  0  0
    6.5438  -13.6921   27.3620 C   0  0  0  0  0  0  0  0  0  0  0  0
    7.1151  -12.4315   27.4572 C   0  0  0  0  0  0  0  0  0  0  0  0
    7.5583  -11.8218   26.3012 C   0  0  0  0  0  0  0  0  0  0  0  0
    7.4258  -12.4703   25.0904 C   0  0  0  0  0  0  0  0  0  0  0  0
    8.5441  -15.9306   24.1923 C   0  0  0  0  0  0  0  0  0  0  0  0
    7.9913  -17.0431   24.3567 O   0  0  0  0  0  0  0  0  0  0  0  0
    9.6601  -15.6138   25.0064 N   0  0  0  0  0  0  0  0  0  0  0  0
   10.2458  -16.6099   25.9182 C   0  0  1  0  0  0  0  0  0  0  0  0
   11.7229  -16.5780   25.6920 C   0  0  0  0  0  0  0  0  0  0  0  0
   12.1694  -17.4316   24.5848 C   0  0  0  0  0  0  0  0  0  0  0  0
   11.4016  -18.1364   23.8998 O   0  0  0  0  0  0  0  0  0  0  0  0
    9.8985  -16.2509   27.3109 C   0  0  0  0  0  0  0  0  0  0  0  0
    9.2764  -15.0598   27.6475 O   0  0  0  0  0  0  0  0  0  0  0  0
   13.5284  -17.4640   24.2723 O   0  0  0  0  0  0  0  0  0  0  0  0
   10.1775  -17.0637   28.2588 O   0  0  0  0  0  0  0  0  0  0  0  0
  2  1  1  1
  2  4  1  0
  3  2  1  0
  4  5  1  6
  4  6  1  0
  6  7  2  0
  8  6  1  0
  8  9  1  0
  9 10  1  1
 11 10  1  0
 12 11  2  0
 13 12  1  0
 14 15  1  0
 14 13  2  0
 15 16  2  0
 16 11  1  0
 17 19  1  0
 17  9  1  0
 18 17  2  0
 20 19  1  0
 20 21  1  1
 22 26  1  0
 22 21  1  0
 23 22  2  0
 24 25  1  0
 24 20  1  0
 27 24  2  0
M  END
$$$$
