TFD.pdb
     RDKit          3D

 27 27  0  0  1  0  0  0  0  0999 V2000
    7.6432  -15.5622   17.5034 C   0  0  0  0  0  0  0  0  0  0  0  0
    7.9601  -15.3306   18.9510 C   0  0  1  0  0  0  0  0  0  0  0  0
    9.0745  -16.0614   19.3751 O   0  0  0  0  0  0  0  0  0  0  0  0
    8.0646  -13.8838   19.3277 C   0  0  2  0  0  0  0  0  0  0  0  0
    8.9274  -13.1090   18.4951 N   0  0  0  0  0  0  0  0  0  0  0  0
    8.3917  -13.7921   20.7665 C   0  0  0  0  0  0  0  0  0  0  0  0
    9.5781  -13.5004   21.0669 O   0  0  0  0  0  0  0  0  0  0  0  0
    7.4489  -14.0133   21.8115 N   0  0  0  0  0  0  0  0  0  0  0  0
    7.7406  -13.8315   23.2011 C   0  0  1  0  0  0  0  0  0  0  0  0
    6.5017  -13.7136   24.0594 C   0  0  0  0  0  0  0  0  0  0  0  0
    6.8081  -13.2638   25.4421 C   0  0  0  0  0  0  0  0  0  0  0  0
    6.9868  -11.9215   25.7185 C   0  0  0  0  0  0  0  0  0  0  0  0
    7.2731  -11.4790   26.9968 C   0  0  0  0  0  0  0  0  0  0  0  0
    7.3900  -12.3780   28.0469 C   0  0  0  0  0  0  0  0  0  0  0  0
    7.2140  -13.7214   27.7845 C   0  0  0  0  0  0  0  0  0  0  0  0
    6.9290  -14.1370   26.4999 C   0  0  0  0  0  0  0  0  0  0  0  0
    8.5917  -14.9100   23.7532 C   0  0  0  0  0  0  0  0  0  0  0  0
    8.8501  -14.9386   24.9790 O   0  0  0  0  0  0  0  0  0  0  0  0
    9.1351  -15.9302   22.9332 N   0  0  0  0  0  0  0  0  0  0  0  0
    9.9911  -16.9867   23.4973 C   0  0  1  0  0  0  0  0  0  0  0  0
   10.0692  -18.0670   22.4673 C   0  0  0  0  0  0  0  0  0  0  0  0
   10.9006  -19.2075   22.8696 C   0  0  0  0  0  0  0  0  0  0  0  0
   11.5050  -19.9430   22.0638 O   0  0  0  0  0  0  0  0  0  0  0  0
   11.3242  -16.4185   23.7953 C   0  0  0  0  0  0  0  0  0  0  0  0
   12.2960  -16.2322   22.8258 O   0  0  0  0  0  0  0  0  0  0  0  0
   11.0288  -19.4943   24.2285 O   0  0  0  0  0  0  0  0  0  0  0  0
   11.6098  -16.0788   24.9953 O   0  0  0  0  0  0  0  0  0  0  0  0
  2  1  1  6
  2  4  1  0
  3  2  1  0
  4  5  1  6
  4  6  1  0
  6  7  2  0
  8  6  1  0
  8  9  1  0
  9 10  1  1
 11 10  1  0
 12 11  2  0
 13 12  1  0
 14 15  1  0
 14 13  2  0
 15 16  2  0
 16 11  1  0
 17 19  1  0
 17  9  1  0
 18 17  2  0
 20 19  1  0
 20 21  1  6
 22 26  1  0
 22 21  1  0
 23 22  2  0
 24 25  1  0
 24 20  1  0
 27 24  2  0
M  END
$$$$
