TFD.pdb
     RDKit          3D

 27 27  0  0  1  0  0  0  0  0999 V2000
    7.2217  -17.6834   17.8382 C   0  0  0  0  0  0  0  0  0  0  0  0
    7.7205  -17.1065   19.1298 C   0  0  1  0  0  0  0  0  0  0  0  0
    8.7232  -17.8899   19.7101 O   0  0  0  0  0  0  0  0  0  0  0  0
    8.1202  -15.6651   19.0389 C   0  0  2  0  0  0  0  0  0  0  0  0
    9.1305  -15.3836   18.0703 N   0  0  0  0  0  0  0  0  0  0  0  0
    8.4496  -15.1791   20.3958 C   0  0  0  0  0  0  0  0  0  0  0  0
    9.6673  -15.1375   20.7095 O   0  0  0  0  0  0  0  0  0  0  0  0
    7.4760  -14.7632   21.3491 N   0  0  0  0  0  0  0  0  0  0  0  0
    7.7834  -14.4118   22.7022 C   0  0  1  0  0  0  0  0  0  0  0  0
    6.6559  -13.6856   23.3999 C   0  0  0  0  0  0  0  0  0  0  0  0
    7.0127  -13.2757   24.7830 C   0  0  0  0  0  0  0  0  0  0  0  0
    6.2484  -13.6929   25.8563 C   0  0  0  0  0  0  0  0  0  0  0  0
    6.5602  -13.3242   27.1520 C   0  0  0  0  0  0  0  0  0  0  0  0
    7.6586  -12.5180   27.4130 C   0  0  0  0  0  0  0  0  0  0  0  0
    8.4302  -12.0943   26.3501 C   0  0  0  0  0  0  0  0  0  0  0  0
    8.0975  -12.4765   25.0666 C   0  0  0  0  0  0  0  0  0  0  0  0
    8.1663  -15.5820   23.5247 C   0  0  0  0  0  0  0  0  0  0  0  0
    7.4194  -16.5872   23.5700 O   0  0  0  0  0  0  0  0  0  0  0  0
    9.3675  -15.6093   24.2763 N   0  0  0  0  0  0  0  0  0  0  0  0
    9.7994  -16.8285   24.9791 C   0  0  1  0  0  0  0  0  0  0  0  0
   11.2587  -16.9880   24.6979 C   0  0  0  0  0  0  0  0  0  0  0  0
   11.8628  -18.1532   25.3547 C   0  0  0  0  0  0  0  0  0  0  0  0
   11.2463  -19.2104   25.5949 O   0  0  0  0  0  0  0  0  0  0  0  0
    9.5360  -16.6691   26.4262 C   0  0  0  0  0  0  0  0  0  0  0  0
    8.9944  -17.6769   27.2074 O   0  0  0  0  0  0  0  0  0  0  0  0
   13.2026  -18.0849   25.7363 O   0  0  0  0  0  0  0  0  0  0  0  0
    9.8140  -15.5589   26.9982 O   0  0  0  0  0  0  0  0  0  0  0  0
  2  1  1  6
  2  4  1  0
  3  2  1  0
  4  5  1  6
  4  6  1  0
  6  7  2  0
  8  6  1  0
  8  9  1  0
  9 10  1  1
 11 10  1  0
 12 11  2  0
 13 12  1  0
 14 15  1  0
 14 13  2  0
 15 16  2  0
 16 11  1  0
 17 19  1  0
 17  9  1  0
 18 17  2  0
 20 19  1  0
 20 21  1  1
 22 26  1  0
 22 21  1  0
 23 22  2  0
 24 25  1  0
 24 20  1  0
 27 24  2  0
M  END
$$$$
