ERR.pdb
     RDKit          3D

 32 31  0  0  1  0  0  0  0  0999 V2000
   25.1853  -23.2683  -16.3189 N   0  0  0  0  0  0  0  0  0  0  0  0
   24.1541  -24.2925  -16.1228 C   0  0  1  0  0  0  0  0  0  0  0  0
   24.8654  -25.4004  -15.3651 C   0  0  0  0  0  0  0  0  0  0  0  0
   25.4329  -26.4682  -16.2449 C   0  0  0  0  0  0  0  0  0  0  0  0
   24.3026  -27.2289  -16.8489 C   0  0  0  0  0  0  0  0  0  0  0  0
   24.0454  -27.2012  -18.0724 O   0  0  0  0  0  0  0  0  0  0  0  0
   23.0655  -23.6648  -15.3311 C   0  0  0  0  0  0  0  0  0  0  0  0
   23.3549  -22.8028  -14.4312 O   0  0  0  0  0  0  0  0  0  0  0  0
   23.5109  -28.0001  -16.0063 O   0  0  0  0  0  0  0  0  0  0  0  0
   17.9969  -19.5152  -19.4903 N   0  0  0  0  0  0  0  0  0  0  0  0
   18.7697  -19.3086  -18.3005 C   0  0  0  0  0  0  0  0  0  0  0  0
   19.7713  -18.4739  -18.3559 N   0  0  0  0  0  0  0  0  0  0  0  0
   18.4882  -19.9689  -17.0926 N   0  0  0  0  0  0  0  0  0  0  0  0
   19.5286  -20.1757  -16.0911 C   0  0  0  0  0  0  0  0  0  0  0  0
   20.2932  -21.4418  -16.4012 C   0  0  0  0  0  0  0  0  0  0  0  0
   19.7315  -22.6570  -15.7555 C   0  0  0  0  0  0  0  0  0  0  0  0
   20.6591  -23.2620  -14.6862 C   0  0  2  0  0  0  0  0  0  0  0  0
   21.6947  -23.9376  -15.4857 N   0  0  0  0  0  0  0  0  0  0  0  0
   19.8537  -24.2174  -13.9114 C   0  0  0  0  0  0  0  0  0  0  0  0
   19.4515  -25.2933  -14.4767 O   0  0  0  0  0  0  0  0  0  0  0  0
   20.4081  -18.3042  -17.5582 N   0  0  0  0  0  0  0  0  0  0  0  0
   18.2326  -25.1993   -5.2862 C   0  0  0  0  0  0  0  0  0  0  0  0
   17.4424  -26.2410   -5.8895 N   0  0  0  0  0  0  0  0  0  0  0  0
   16.7346  -26.9857   -5.1432 N   0  0  0  0  0  0  0  0  0  0  0  0
   17.4442  -26.4476   -7.2923 C   0  0  0  0  0  0  0  0  0  0  0  0
   18.2205  -25.6376   -8.1764 C   0  0  0  0  0  0  0  0  0  0  0  0
   18.0838  -26.1012   -9.6378 C   0  0  0  0  0  0  0  0  0  0  0  0
   18.9213  -25.2217  -10.4522 C   0  0  1  0  0  0  0  0  0  0  0  0
   18.5367  -25.0009  -11.8849 N   0  0  0  0  0  0  0  0  0  0  0  0
   19.4538  -24.0847  -12.5614 C   0  0  0  0  0  0  0  0  0  0  0  0
   17.1381  -24.6955  -12.1322 O   0  0  0  0  0  0  0  0  0  0  0  0
   16.3075  -25.6210  -12.3479 O   0  0  0  0  0  0  0  0  0  0  0  0
  2  1  1  1
  3  2  1  0
  3  4  1  0
  5  9  1  0
  5  4  1  0
  6  5  2  0
  7  2  1  0
  7  8  2  0
 10 11  1  0
 11 13  1  0
 11 12  2  0
 13 14  1  0
 14 15  1  0
 15 16  1  0
 17 16  1  6
 17 18  1  0
 18  7  1  0
 19 29  1  0
 19 17  1  0
 20 19  2  0
 21 22  1  0
 22 23  2  0
 24 22  1  0
 24 25  1  0
 25 26  1  0
 26 27  1  0
 28 27  1  6
 28 29  1  0
 28 30  1  0
 30 32  1  0
 31 30  2  0
M  END
$$$$
