ERR.pdb
     RDKit          3D

 32 31  0  0  1  0  0  0  0  0999 V2000
   17.4937  -25.1749   -4.2980 N   0  0  0  0  0  0  0  0  0  0  0  0
   16.5711  -25.4386   -5.4071 C   0  0  1  0  0  0  0  0  0  0  0  0
   15.4766  -24.3987   -5.2396 C   0  0  0  0  0  0  0  0  0  0  0  0
   14.4960  -24.7204   -4.1574 C   0  0  0  0  0  0  0  0  0  0  0  0
   13.5476  -25.7479   -4.6731 C   0  0  0  0  0  0  0  0  0  0  0  0
   13.6511  -26.2533   -5.8123 O   0  0  0  0  0  0  0  0  0  0  0  0
   17.3426  -25.2607   -6.6637 C   0  0  0  0  0  0  0  0  0  0  0  0
   18.1797  -24.2981   -6.7603 O   0  0  0  0  0  0  0  0  0  0  0  0
   12.5111  -26.1550   -3.8416 O   0  0  0  0  0  0  0  0  0  0  0  0
   22.1877  -29.8609  -11.0301 N   0  0  0  0  0  0  0  0  0  0  0  0
   21.2286  -30.0520   -9.9818 C   0  0  0  0  0  0  0  0  0  0  0  0
   21.6037  -30.7086   -8.9182 N   0  0  0  0  0  0  0  0  0  0  0  0
   19.9138  -29.5631  -10.0623 N   0  0  0  0  0  0  0  0  0  0  0  0
   19.4839  -28.7513  -11.1957 C   0  0  0  0  0  0  0  0  0  0  0  0
   19.1617  -27.3505  -10.7290 C   0  0  0  0  0  0  0  0  0  0  0  0
   18.3493  -27.3030   -9.4852 C   0  0  0  0  0  0  0  0  0  0  0  0
   18.0492  -25.8703   -9.0085 C   0  0  2  0  0  0  0  0  0  0  0  0
   17.2371  -26.0838   -7.7989 N   0  0  0  0  0  0  0  0  0  0  0  0
   17.2805  -25.2155  -10.0770 C   0  0  0  0  0  0  0  0  0  0  0  0
   16.0159  -25.4046  -10.1385 O   0  0  0  0  0  0  0  0  0  0  0  0
   20.9591  -30.9411   -8.1430 N   0  0  0  0  0  0  0  0  0  0  0  0
   14.5138  -17.4366  -13.2148 C   0  0  0  0  0  0  0  0  0  0  0  0
   15.4680  -18.3646  -13.7639 N   0  0  0  0  0  0  0  0  0  0  0  0
   15.6819  -18.3576  -15.0156 N   0  0  0  0  0  0  0  0  0  0  0  0
   16.1651  -19.2803  -12.9354 C   0  0  0  0  0  0  0  0  0  0  0  0
   17.1429  -20.1812  -13.4572 C   0  0  0  0  0  0  0  0  0  0  0  0
   16.6306  -21.6327  -13.4642 C   0  0  0  0  0  0  0  0  0  0  0  0
   17.2841  -22.3290  -12.3568 C   0  0  1  0  0  0  0  0  0  0  0  0
   16.9811  -23.7838  -12.1546 N   0  0  0  0  0  0  0  0  0  0  0  0
   17.7918  -24.3669  -11.0864 C   0  0  0  0  0  0  0  0  0  0  0  0
   16.9424  -24.6022  -13.3542 O   0  0  0  0  0  0  0  0  0  0  0  0
   17.9867  -24.7885  -14.0381 O   0  0  0  0  0  0  0  0  0  0  0  0
  2  1  1  1
  3  2  1  0
  3  4  1  0
  5  9  1  0
  5  4  1  0
  6  5  2  0
  7  2  1  0
  7  8  2  0
 10 11  1  0
 11 13  1  0
 11 12  2  0
 13 14  1  0
 14 15  1  0
 15 16  1  0
 17 16  1  6
 17 18  1  0
 18  7  1  0
 19 29  1  0
 19 17  1  0
 20 19  2  0
 21 22  1  0
 22 23  2  0
 24 22  1  0
 24 25  1  0
 25 26  1  0
 26 27  1  0
 28 27  1  1
 28 29  1  0
 28 30  1  0
 30 32  1  0
 31 30  2  0
M  END
$$$$
