ERR.pdb
     RDKit          3D

 32 31  0  0  1  0  0  0  0  0999 V2000
   19.4831  -19.2109  -14.8835 N   0  0  0  0  0  0  0  0  0  0  0  0
   20.2155  -18.8942  -13.6530 C   0  0  1  0  0  0  0  0  0  0  0  0
   19.1845  -19.0598  -12.5499 C   0  0  0  0  0  0  0  0  0  0  0  0
   17.8410  -19.4998  -13.0375 C   0  0  0  0  0  0  0  0  0  0  0  0
   17.7060  -20.9625  -12.7857 C   0  0  0  0  0  0  0  0  0  0  0  0
   17.3238  -21.7678  -13.6628 O   0  0  0  0  0  0  0  0  0  0  0  0
   21.3287  -19.8718  -13.5480 C   0  0  0  0  0  0  0  0  0  0  0  0
   22.1807  -19.7596  -12.6003 O   0  0  0  0  0  0  0  0  0  0  0  0
   18.0247  -21.4388  -11.5196 O   0  0  0  0  0  0  0  0  0  0  0  0
   20.5588  -26.6409  -13.4195 N   0  0  0  0  0  0  0  0  0  0  0  0
   21.8089  -26.9323  -12.7809 C   0  0  0  0  0  0  0  0  0  0  0  0
   21.7887  -27.6439  -11.6872 N   0  0  0  0  0  0  0  0  0  0  0  0
   23.0393  -26.4807  -13.2871 N   0  0  0  0  0  0  0  0  0  0  0  0
   23.0937  -25.4334  -14.3014 C   0  0  0  0  0  0  0  0  0  0  0  0
   22.1480  -24.3139  -13.9325 C   0  0  0  0  0  0  0  0  0  0  0  0
   22.1537  -23.1805  -14.8941 C   0  0  0  0  0  0  0  0  0  0  0  0
   22.6832  -21.8691  -14.2861 C   0  0  2  0  0  0  0  0  0  0  0  0
   21.5401  -20.9513  -14.4239 N   0  0  0  0  0  0  0  0  0  0  0  0
   23.8275  -21.4476  -15.1073 C   0  0  0  0  0  0  0  0  0  0  0  0
   23.6322  -21.1405  -16.3347 O   0  0  0  0  0  0  0  0  0  0  0  0
   22.6386  -27.8537  -11.1356 N   0  0  0  0  0  0  0  0  0  0  0  0
   28.3598  -16.4309  -17.8139 C   0  0  0  0  0  0  0  0  0  0  0  0
   27.2619  -15.8983  -17.0495 N   0  0  0  0  0  0  0  0  0  0  0  0
   26.5184  -15.0136  -17.5761 N   0  0  0  0  0  0  0  0  0  0  0  0
   27.0016  -16.3412  -15.7279 C   0  0  0  0  0  0  0  0  0  0  0  0
   27.8372  -17.2947  -15.0700 C   0  0  0  0  0  0  0  0  0  0  0  0
   27.7129  -18.6914  -15.7047 C   0  0  0  0  0  0  0  0  0  0  0  0
   26.5973  -19.3697  -15.0461 C   0  0  1  0  0  0  0  0  0  0  0  0
   26.2401  -20.7539  -15.4995 N   0  0  0  0  0  0  0  0  0  0  0  0
   25.1732  -21.3362  -14.6865 C   0  0  0  0  0  0  0  0  0  0  0  0
   27.3522  -21.6625  -15.7187 O   0  0  0  0  0  0  0  0  0  0  0  0
   27.4364  -22.7421  -15.0704 O   0  0  0  0  0  0  0  0  0  0  0  0
  2  1  1  6
  3  2  1  0
  3  4  1  0
  5  9  1  0
  5  4  1  0
  6  5  2  0
  7  2  1  0
  7  8  2  0
 10 11  1  0
 11 13  1  0
 11 12  2  0
 13 14  1  0
 14 15  1  0
 15 16  1  0
 17 16  1  6
 17 18  1  0
 18  7  1  0
 19 29  1  0
 19 17  1  0
 20 19  2  0
 21 22  1  0
 22 23  2  0
 24 22  1  0
 24 25  1  0
 25 26  1  0
 26 27  1  0
 28 27  1  6
 28 29  1  0
 28 30  1  0
 30 32  1  0
 31 30  2  0
M  END
$$$$
