ERR.pdb
     RDKit          3D

 32 31  0  0  1  0  0  0  0  0999 V2000
   28.5660  -24.8399  -16.9505 N   0  0  0  0  0  0  0  0  0  0  0  0
   27.5525  -23.9561  -17.5357 C   0  0  1  0  0  0  0  0  0  0  0  0
   26.8676  -24.8143  -18.5853 C   0  0  0  0  0  0  0  0  0  0  0  0
   27.4175  -24.6383  -19.9647 C   0  0  0  0  0  0  0  0  0  0  0  0
   26.3655  -24.0100  -20.8130 C   0  0  0  0  0  0  0  0  0  0  0  0
   25.2246  -23.7331  -20.3821 O   0  0  0  0  0  0  0  0  0  0  0  0
   26.6378  -23.5581  -16.4354 C   0  0  0  0  0  0  0  0  0  0  0  0
   26.7782  -24.0814  -15.2765 O   0  0  0  0  0  0  0  0  0  0  0  0
   26.6797  -23.7219  -22.1358 O   0  0  0  0  0  0  0  0  0  0  0  0
   29.8709  -19.7284  -11.5939 N   0  0  0  0  0  0  0  0  0  0  0  0
   29.1696  -20.9228  -11.9639 C   0  0  0  0  0  0  0  0  0  0  0  0
   29.6089  -22.0613  -11.5014 N   0  0  0  0  0  0  0  0  0  0  0  0
   28.0399  -20.9076  -12.7992 N   0  0  0  0  0  0  0  0  0  0  0  0
   27.4798  -19.6493  -13.2800 C   0  0  0  0  0  0  0  0  0  0  0  0
   26.2159  -19.9178  -14.0637 C   0  0  0  0  0  0  0  0  0  0  0  0
   26.3972  -20.8724  -15.1885 C   0  0  0  0  0  0  0  0  0  0  0  0
   25.1692  -21.7687  -15.4301 C   0  0  2  0  0  0  0  0  0  0  0  0
   25.5943  -22.6227  -16.5519 N   0  0  0  0  0  0  0  0  0  0  0  0
   24.0586  -20.8816  -15.8060 C   0  0  0  0  0  0  0  0  0  0  0  0
   24.2488  -19.9969  -16.7115 O   0  0  0  0  0  0  0  0  0  0  0  0
   29.1635  -22.9688  -11.7221 N   0  0  0  0  0  0  0  0  0  0  0  0
   23.3479  -20.0984   -8.1142 C   0  0  0  0  0  0  0  0  0  0  0  0
   22.2437  -20.9285   -8.5204 N   0  0  0  0  0  0  0  0  0  0  0  0
   21.5997  -21.5714   -7.6346 N   0  0  0  0  0  0  0  0  0  0  0  0
   21.8687  -21.0397   -9.8834 C   0  0  0  0  0  0  0  0  0  0  0  0
   22.3345  -20.1228  -10.8745 C   0  0  0  0  0  0  0  0  0  0  0  0
   21.7983  -20.4783  -12.2729 C   0  0  0  0  0  0  0  0  0  0  0  0
   22.4276  -19.5634  -13.2245 C   0  0  2  0  0  0  0  0  0  0  0  0
   22.1010  -19.7173  -14.6801 N   0  0  0  0  0  0  0  0  0  0  0  0
   22.7520  -20.8889  -15.2647 C   0  0  0  0  0  0  0  0  0  0  0  0
   22.2349  -18.5226  -15.4957 O   0  0  0  0  0  0  0  0  0  0  0  0
   22.5207  -17.4130  -14.9667 O   0  0  0  0  0  0  0  0  0  0  0  0
  2  1  1  1
  3  2  1  0
  3  4  1  0
  5  9  1  0
  5  4  1  0
  6  5  2  0
  7  2  1  0
  7  8  2  0
 10 11  1  0
 11 13  1  0
 11 12  2  0
 13 14  1  0
 14 15  1  0
 15 16  1  0
 17 16  1  6
 17 18  1  0
 18  7  1  0
 19 29  1  0
 19 17  1  0
 20 19  2  0
 21 22  1  0
 22 23  2  0
 24 22  1  0
 24 25  1  0
 25 26  1  0
 26 27  1  0
 28 27  1  1
 28 29  1  0
 28 30  1  0
 30 32  1  0
 31 30  2  0
M  END
$$$$
