ERR.pdb
     RDKit          3D

 32 31  0  0  1  0  0  0  0  0999 V2000
   28.3733  -20.8364  -17.7185 N   0  0  0  0  0  0  0  0  0  0  0  0
   28.0153  -19.7833  -16.7627 C   0  0  1  0  0  0  0  0  0  0  0  0
   26.7404  -19.1812  -17.3281 C   0  0  0  0  0  0  0  0  0  0  0  0
   26.0940  -18.1768  -16.4284 C   0  0  0  0  0  0  0  0  0  0  0  0
   24.8215  -17.7292  -17.0619 C   0  0  0  0  0  0  0  0  0  0  0  0
   23.8016  -18.4509  -17.1155 O   0  0  0  0  0  0  0  0  0  0  0  0
   27.8031  -20.4442  -15.4497 C   0  0  0  0  0  0  0  0  0  0  0  0
   26.8863  -21.3281  -15.3280 O   0  0  0  0  0  0  0  0  0  0  0  0
   24.7789  -16.4524  -17.6094 O   0  0  0  0  0  0  0  0  0  0  0  0
   34.0526  -22.7576  -10.8076 N   0  0  0  0  0  0  0  0  0  0  0  0
   32.9422  -22.6290  -11.7053 C   0  0  0  0  0  0  0  0  0  0  0  0
   32.9203  -23.3865  -12.7678 N   0  0  0  0  0  0  0  0  0  0  0  0
   31.8910  -21.7238  -11.4820 N   0  0  0  0  0  0  0  0  0  0  0  0
   30.8736  -21.9910  -10.4711 C   0  0  0  0  0  0  0  0  0  0  0  0
   29.5488  -21.4138  -10.9132 C   0  0  0  0  0  0  0  0  0  0  0  0
   29.5900  -20.7710  -12.2527 C   0  0  0  0  0  0  0  0  0  0  0  0
   28.2408  -20.8188  -12.9926 C   0  0  2  0  0  0  0  0  0  0  0  0
   28.5453  -20.1814  -14.2845 N   0  0  0  0  0  0  0  0  0  0  0  0
   27.2894  -20.0259  -12.2002 C   0  0  0  0  0  0  0  0  0  0  0  0
   27.0198  -18.8296  -12.5677 O   0  0  0  0  0  0  0  0  0  0  0  0
   32.1666  -23.3430  -13.4754 N   0  0  0  0  0  0  0  0  0  0  0  0
   21.9959  -22.4614  -16.1411 C   0  0  0  0  0  0  0  0  0  0  0  0
   22.3713  -22.9636  -14.8449 N   0  0  0  0  0  0  0  0  0  0  0  0
   22.2728  -24.2088  -14.6161 N   0  0  0  0  0  0  0  0  0  0  0  0
   22.8434  -22.0958  -13.8276 C   0  0  0  0  0  0  0  0  0  0  0  0
   23.0068  -20.6934  -14.0438 C   0  0  0  0  0  0  0  0  0  0  0  0
   23.5241  -19.9812  -12.7811 C   0  0  0  0  0  0  0  0  0  0  0  0
   24.4534  -20.8947  -12.1175 C   0  0  2  0  0  0  0  0  0  0  0  0
   25.1547  -20.4195  -10.8799 N   0  0  0  0  0  0  0  0  0  0  0  0
   26.6087  -20.4436  -11.0330 C   0  0  0  0  0  0  0  0  0  0  0  0
   24.7024  -20.9975   -9.6262 O   0  0  0  0  0  0  0  0  0  0  0  0
   25.1389  -22.1175   -9.2414 O   0  0  0  0  0  0  0  0  0  0  0  0
  2  1  1  6
  3  2  1  0
  3  4  1  0
  5  9  1  0
  5  4  1  0
  6  5  2  0
  7  2  1  0
  7  8  2  0
 10 11  1  0
 11 13  1  0
 11 12  2  0
 13 14  1  0
 14 15  1  0
 15 16  1  0
 17 16  1  1
 17 18  1  0
 18  7  1  0
 19 29  1  0
 19 17  1  0
 20 19  2  0
 21 22  1  0
 22 23  2  0
 24 22  1  0
 24 25  1  0
 25 26  1  0
 26 27  1  0
 28 27  1  6
 28 29  1  0
 28 30  1  0
 30 32  1  0
 31 30  2  0
M  END
$$$$
