ERR.pdb
     RDKit          3D

 32 31  0  0  1  0  0  0  0  0999 V2000
   18.9245  -26.9490   -2.2743 N   0  0  0  0  0  0  0  0  0  0  0  0
   18.0821  -27.4195   -3.3787 C   0  0  1  0  0  0  0  0  0  0  0  0
   16.8706  -28.0277   -2.6934 C   0  0  0  0  0  0  0  0  0  0  0  0
   17.1185  -29.3853   -2.1175 C   0  0  0  0  0  0  0  0  0  0  0  0
   15.8413  -29.8906   -1.5393 C   0  0  0  0  0  0  0  0  0  0  0  0
   14.7869  -29.2182   -1.5363 O   0  0  0  0  0  0  0  0  0  0  0  0
   17.7389  -26.2296   -4.1987 C   0  0  0  0  0  0  0  0  0  0  0  0
   17.5723  -25.0963   -3.6290 O   0  0  0  0  0  0  0  0  0  0  0  0
   15.8346  -31.1656   -0.9862 O   0  0  0  0  0  0  0  0  0  0  0  0
   21.1994  -26.7161  -11.3181 N   0  0  0  0  0  0  0  0  0  0  0  0
   20.1630  -27.4854  -10.6941 C   0  0  0  0  0  0  0  0  0  0  0  0
   20.2503  -28.7866  -10.7420 N   0  0  0  0  0  0  0  0  0  0  0  0
   19.0692  -26.8911  -10.0425 N   0  0  0  0  0  0  0  0  0  0  0  0
   19.0635  -25.4648   -9.7360 C   0  0  0  0  0  0  0  0  0  0  0  0
   18.8556  -25.2607   -8.2531 C   0  0  0  0  0  0  0  0  0  0  0  0
   17.4468  -25.4376   -7.8135 C   0  0  0  0  0  0  0  0  0  0  0  0
   17.2089  -25.0221   -6.3504 C   0  0  2  0  0  0  0  0  0  0  0  0
   17.5764  -26.2317   -5.5955 N   0  0  0  0  0  0  0  0  0  0  0  0
   15.7784  -24.7082   -6.2215 C   0  0  0  0  0  0  0  0  0  0  0  0
   14.9245  -25.6593   -6.2917 O   0  0  0  0  0  0  0  0  0  0  0  0
   19.5394  -29.4146  -10.3287 N   0  0  0  0  0  0  0  0  0  0  0  0
   11.4759  -19.8902   -0.4065 C   0  0  0  0  0  0  0  0  0  0  0  0
   12.6688  -20.4223   -1.0125 N   0  0  0  0  0  0  0  0  0  0  0  0
   13.7938  -20.1691   -0.4807 N   0  0  0  0  0  0  0  0  0  0  0  0
   12.6071  -21.2165   -2.1856 C   0  0  0  0  0  0  0  0  0  0  0  0
   12.1493  -20.6917   -3.4326 C   0  0  0  0  0  0  0  0  0  0  0  0
   12.1254  -21.7723   -4.5285 C   0  0  0  0  0  0  0  0  0  0  0  0
   13.5093  -22.1814   -4.7649 C   0  0  1  0  0  0  0  0  0  0  0  0
   13.7782  -23.1876   -5.8440 N   0  0  0  0  0  0  0  0  0  0  0  0
   15.2095  -23.4290   -6.0209 C   0  0  0  0  0  0  0  0  0  0  0  0
   13.0735  -22.9848   -7.0981 O   0  0  0  0  0  0  0  0  0  0  0  0
   13.7105  -22.7417   -8.1602 O   0  0  0  0  0  0  0  0  0  0  0  0
  2  1  1  1
  3  2  1  0
  3  4  1  0
  5  9  1  0
  5  4  1  0
  6  5  2  0
  7  2  1  0
  7  8  2  0
 10 11  1  0
 11 13  1  0
 11 12  2  0
 13 14  1  0
 14 15  1  0
 15 16  1  0
 17 16  1  6
 17 18  1  0
 18  7  1  0
 19 29  1  0
 19 17  1  0
 20 19  2  0
 21 22  1  0
 22 23  2  0
 24 22  1  0
 24 25  1  0
 25 26  1  0
 26 27  1  0
 28 27  1  1
 28 29  1  0
 28 30  1  0
 30 32  1  0
 31 30  2  0
M  END
$$$$
