ERR.pdb
     RDKit          3D

 32 31  0  0  1  0  0  0  0  0999 V2000
    3.4253  -49.0669  -33.3507 N   0  0  0  0  0  0  0  0  0  0  0  0
    3.3034  -47.6584  -32.9604 C   0  0  1  0  0  0  0  0  0  0  0  0
    1.9658  -47.2246  -33.5349 C   0  0  0  0  0  0  0  0  0  0  0  0
    0.8205  -48.0957  -33.1277 C   0  0  0  0  0  0  0  0  0  0  0  0
   -0.2646  -47.2253  -32.5930 C   0  0  0  0  0  0  0  0  0  0  0  0
   -1.1373  -47.6417  -31.7999 O   0  0  0  0  0  0  0  0  0  0  0  0
    3.3297  -47.6166  -31.4760 C   0  0  0  0  0  0  0  0  0  0  0  0
    2.7292  -48.5272  -30.8075 O   0  0  0  0  0  0  0  0  0  0  0  0
   -0.2944  -45.8962  -32.9982 O   0  0  0  0  0  0  0  0  0  0  0  0
    5.5335  -43.9609  -30.3699 N   0  0  0  0  0  0  0  0  0  0  0  0
    5.8257  -42.8320  -29.5358 C   0  0  0  0  0  0  0  0  0  0  0  0
    5.4989  -41.6459  -29.9708 N   0  0  0  0  0  0  0  0  0  0  0  0
    6.4465  -42.9598  -28.2818 N   0  0  0  0  0  0  0  0  0  0  0  0
    6.5609  -44.2604  -27.6309 C   0  0  0  0  0  0  0  0  0  0  0  0
    6.1121  -45.3484  -28.5788 C   0  0  0  0  0  0  0  0  0  0  0  0
    4.6505  -45.3457  -28.8486 C   0  0  0  0  0  0  0  0  0  0  0  0
    4.1017  -46.7288  -29.2433 C   0  0  2  0  0  0  0  0  0  0  0  0
    3.9797  -46.6345  -30.7077 N   0  0  0  0  0  0  0  0  0  0  0  0
    2.7916  -46.8718  -28.5916 C   0  0  0  0  0  0  0  0  0  0  0  0
    2.7265  -47.4345  -27.4436 O   0  0  0  0  0  0  0  0  0  0  0  0
    6.1638  -40.8537  -30.0008 N   0  0  0  0  0  0  0  0  0  0  0  0
    0.5353  -42.1849  -34.4836 C   0  0  0  0  0  0  0  0  0  0  0  0
   -0.1498  -43.1524  -33.6662 N   0  0  0  0  0  0  0  0  0  0  0  0
   -1.1480  -43.7697  -34.1510 N   0  0  0  0  0  0  0  0  0  0  0  0
    0.2684  -43.4225  -32.3385 C   0  0  0  0  0  0  0  0  0  0  0  0
    0.7004  -42.3868  -31.4548 C   0  0  0  0  0  0  0  0  0  0  0  0
    1.0403  -42.9378  -30.0582 C   0  0  0  0  0  0  0  0  0  0  0  0
    0.6748  -44.3536  -30.0495 C   0  0  2  0  0  0  0  0  0  0  0  0
    0.9377  -45.1475  -28.8045 N   0  0  0  0  0  0  0  0  0  0  0  0
    1.5437  -46.4446  -29.1020 C   0  0  0  0  0  0  0  0  0  0  0  0
   -0.1598  -45.2334  -27.8566 O   0  0  0  0  0  0  0  0  0  0  0  0
    0.0279  -44.9866  -26.6332 O   0  0  0  0  0  0  0  0  0  0  0  0
  2  1  1  1
  3  2  1  0
  3  4  1  0
  5  9  1  0
  5  4  1  0
  6  5  2  0
  7  2  1  0
  7  8  2  0
 10 11  1  0
 11 13  1  0
 11 12  2  0
 13 14  1  0
 14 15  1  0
 15 16  1  0
 17 16  1  1
 17 18  1  0
 18  7  1  0
 19 29  1  0
 19 17  1  0
 20 19  2  0
 21 22  1  0
 22 23  2  0
 24 22  1  0
 24 25  1  0
 25 26  1  0
 26 27  1  0
 28 27  1  1
 28 29  1  0
 28 30  1  0
 30 32  1  0
 31 30  2  0
M  END
$$$$
