ERR.pdb
     RDKit          3D

 32 31  0  0  1  0  0  0  0  0999 V2000
   26.4936  -21.7803  -18.0068 N   0  0  0  0  0  0  0  0  0  0  0  0
   26.6447  -20.5845  -17.1713 C   0  0  1  0  0  0  0  0  0  0  0  0
   25.4049  -19.7592  -17.4700 C   0  0  0  0  0  0  0  0  0  0  0  0
   25.5286  -18.8989  -18.6869 C   0  0  0  0  0  0  0  0  0  0  0  0
   26.3869  -17.7283  -18.3492 C   0  0  0  0  0  0  0  0  0  0  0  0
   26.2702  -17.0895  -17.2805 O   0  0  0  0  0  0  0  0  0  0  0  0
   26.6992  -21.0461  -15.7607 C   0  0  0  0  0  0  0  0  0  0  0  0
   25.7980  -21.8401  -15.3204 O   0  0  0  0  0  0  0  0  0  0  0  0
   27.3559  -17.3429  -19.2680 O   0  0  0  0  0  0  0  0  0  0  0  0
   32.5840  -22.6136   -9.4317 N   0  0  0  0  0  0  0  0  0  0  0  0
   32.4592  -22.7927  -10.8487 C   0  0  0  0  0  0  0  0  0  0  0  0
   33.1667  -23.7324  -11.4138 N   0  0  0  0  0  0  0  0  0  0  0  0
   31.6118  -21.9979  -11.6389 N   0  0  0  0  0  0  0  0  0  0  0  0
   30.7095  -21.0275  -11.0285 C   0  0  0  0  0  0  0  0  0  0  0  0
   29.2992  -21.2606  -11.5192 C   0  0  0  0  0  0  0  0  0  0  0  0
   29.0825  -20.8659  -12.9357 C   0  0  0  0  0  0  0  0  0  0  0  0
   27.6404  -21.1028  -13.4197 C   0  0  2  0  0  0  0  0  0  0  0  0
   27.6875  -20.6803  -14.8295 N   0  0  0  0  0  0  0  0  0  0  0  0
   26.7701  -20.2330  -12.6150 C   0  0  0  0  0  0  0  0  0  0  0  0
   26.4501  -19.0805  -13.0711 O   0  0  0  0  0  0  0  0  0  0  0  0
   33.1509  -23.9144  -12.4322 N   0  0  0  0  0  0  0  0  0  0  0  0
   19.6272  -21.8598  -10.7444 C   0  0  0  0  0  0  0  0  0  0  0  0
   19.2973  -20.9430  -11.8046 N   0  0  0  0  0  0  0  0  0  0  0  0
   18.1144  -20.4866  -11.8765 N   0  0  0  0  0  0  0  0  0  0  0  0
   20.2645  -20.5469  -12.7629 C   0  0  0  0  0  0  0  0  0  0  0  0
   21.6015  -21.0490  -12.7419 C   0  0  0  0  0  0  0  0  0  0  0  0
   22.4261  -20.4197  -11.6047 C   0  0  0  0  0  0  0  0  0  0  0  0
   23.8371  -20.6458  -11.9152 C   0  0  1  0  0  0  0  0  0  0  0  0
   24.8658  -20.1678  -10.9342 N   0  0  0  0  0  0  0  0  0  0  0  0
   26.2218  -20.5293  -11.3454 C   0  0  0  0  0  0  0  0  0  0  0  0
   24.5976  -20.4536   -9.5353 O   0  0  0  0  0  0  0  0  0  0  0  0
   25.0668  -21.4910   -8.9908 O   0  0  0  0  0  0  0  0  0  0  0  0
  2  1  1  6
  3  2  1  0
  3  4  1  0
  5  9  1  0
  5  4  1  0
  6  5  2  0
  7  2  1  0
  7  8  2  0
 10 11  1  0
 11 13  1  0
 11 12  2  0
 13 14  1  0
 14 15  1  0
 15 16  1  0
 17 16  1  1
 17 18  1  0
 18  7  1  0
 19 29  1  0
 19 17  1  0
 20 19  2  0
 21 22  1  0
 22 23  2  0
 24 22  1  0
 24 25  1  0
 25 26  1  0
 26 27  1  0
 28 27  1  6
 28 29  1  0
 28 30  1  0
 30 32  1  0
 31 30  2  0
M  END
$$$$
