ERR.pdb
     RDKit          3D

 32 31  0  0  1  0  0  0  0  0999 V2000
   30.0417  -24.2326  -17.5936 N   0  0  0  0  0  0  0  0  0  0  0  0
   29.1094  -23.1064  -17.4778 C   0  0  1  0  0  0  0  0  0  0  0  0
   28.8135  -22.7153  -18.9154 C   0  0  0  0  0  0  0  0  0  0  0  0
   28.1153  -23.7790  -19.7011 C   0  0  0  0  0  0  0  0  0  0  0  0
   26.7746  -23.2648  -20.0999 C   0  0  0  0  0  0  0  0  0  0  0  0
   26.6096  -22.1437  -20.6289 O   0  0  0  0  0  0  0  0  0  0  0  0
   27.9091  -23.6098  -16.7626 C   0  0  0  0  0  0  0  0  0  0  0  0
   27.9811  -24.6998  -16.0967 O   0  0  0  0  0  0  0  0  0  0  0  0
   25.6699  -24.0767  -19.8717 O   0  0  0  0  0  0  0  0  0  0  0  0
   20.5106  -19.6334  -15.3191 N   0  0  0  0  0  0  0  0  0  0  0  0
   20.6173  -20.3655  -14.0910 C   0  0  0  0  0  0  0  0  0  0  0  0
   19.5384  -20.5230  -13.3740 N   0  0  0  0  0  0  0  0  0  0  0  0
   21.8311  -20.9104  -13.6393 N   0  0  0  0  0  0  0  0  0  0  0  0
   23.0703  -20.6963  -14.3788 C   0  0  0  0  0  0  0  0  0  0  0  0
   23.7816  -22.0147  -14.5782 C   0  0  0  0  0  0  0  0  0  0  0  0
   24.9676  -21.9292  -15.4699 C   0  0  0  0  0  0  0  0  0  0  0  0
   25.6194  -23.2958  -15.7487 C   0  0  2  0  0  0  0  0  0  0  0  0
   26.6543  -22.9752  -16.7459 N   0  0  0  0  0  0  0  0  0  0  0  0
   24.5718  -24.1645  -16.3048 C   0  0  0  0  0  0  0  0  0  0  0  0
   23.9535  -23.7937  -17.3627 O   0  0  0  0  0  0  0  0  0  0  0  0
   19.5487  -20.9273  -12.4216 N   0  0  0  0  0  0  0  0  0  0  0  0
   21.8911  -31.5568  -12.9575 C   0  0  0  0  0  0  0  0  0  0  0  0
   22.6537  -31.3830  -14.1665 N   0  0  0  0  0  0  0  0  0  0  0  0
   23.5347  -32.2467  -14.4669 N   0  0  0  0  0  0  0  0  0  0  0  0
   22.4391  -30.2701  -15.0186 C   0  0  0  0  0  0  0  0  0  0  0  0
   21.4264  -29.2980  -14.7547 C   0  0  0  0  0  0  0  0  0  0  0  0
   21.4850  -28.1312  -15.7569 C   0  0  0  0  0  0  0  0  0  0  0  0
   22.6530  -27.3216  -15.4125 C   0  0  1  0  0  0  0  0  0  0  0  0
   22.9937  -26.1558  -16.2923 N   0  0  0  0  0  0  0  0  0  0  0  0
   24.1481  -25.4118  -15.7900 C   0  0  0  0  0  0  0  0  0  0  0  0
   21.8854  -25.2992  -16.6774 O   0  0  0  0  0  0  0  0  0  0  0  0
   21.3895  -24.4819  -15.8535 O   0  0  0  0  0  0  0  0  0  0  0  0
  2  1  1  6
  3  2  1  0
  3  4  1  0
  5  9  1  0
  5  4  1  0
  6  5  2  0
  7  2  1  0
  7  8  2  0
 10 11  1  0
 11 13  1  0
 11 12  2  0
 13 14  1  0
 14 15  1  0
 15 16  1  0
 17 16  1  6
 17 18  1  0
 18  7  1  0
 19 29  1  0
 19 17  1  0
 20 19  2  0
 21 22  1  0
 22 23  2  0
 24 22  1  0
 24 25  1  0
 25 26  1  0
 26 27  1  0
 28 27  1  6
 28 29  1  0
 28 30  1  0
 30 32  1  0
 31 30  2  0
M  END
$$$$
