ERR.pdb
     RDKit          3D

 32 31  0  0  1  0  0  0  0  0999 V2000
   19.3018  -27.3027  -11.3503 N   0  0  0  0  0  0  0  0  0  0  0  0
   19.3105  -26.0549  -10.5797 C   0  0  1  0  0  0  0  0  0  0  0  0
   18.8845  -24.9937  -11.5796 C   0  0  0  0  0  0  0  0  0  0  0  0
   18.7032  -23.6354  -10.9810 C   0  0  0  0  0  0  0  0  0  0  0  0
   17.4386  -23.0529  -11.5125 C   0  0  0  0  0  0  0  0  0  0  0  0
   16.6092  -23.7204  -12.1684 O   0  0  0  0  0  0  0  0  0  0  0  0
   18.3349  -26.2230   -9.4726 C   0  0  0  0  0  0  0  0  0  0  0  0
   17.1802  -26.7165   -9.7173 O   0  0  0  0  0  0  0  0  0  0  0  0
   17.1810  -21.7110  -11.2585 O   0  0  0  0  0  0  0  0  0  0  0  0
   19.3191  -26.9448   -0.5702 N   0  0  0  0  0  0  0  0  0  0  0  0
   18.0055  -26.4293   -0.8238 C   0  0  0  0  0  0  0  0  0  0  0  0
   17.2664  -26.1005    0.2003 N   0  0  0  0  0  0  0  0  0  0  0  0
   17.4940  -26.2705   -2.1227 N   0  0  0  0  0  0  0  0  0  0  0  0
   18.3857  -26.1808   -3.2739 C   0  0  0  0  0  0  0  0  0  0  0  0
   17.5753  -26.1694   -4.5494 C   0  0  0  0  0  0  0  0  0  0  0  0
   18.3951  -26.0303   -5.7814 C   0  0  0  0  0  0  0  0  0  0  0  0
   17.5615  -26.0714   -7.0751 C   0  0  2  0  0  0  0  0  0  0  0  0
   18.5714  -25.8801   -8.1295 N   0  0  0  0  0  0  0  0  0  0  0  0
   16.6154  -24.9479   -7.0110 C   0  0  0  0  0  0  0  0  0  0  0  0
   17.0716  -23.7522   -6.9785 O   0  0  0  0  0  0  0  0  0  0  0  0
   16.3268  -25.6780    0.1046 N   0  0  0  0  0  0  0  0  0  0  0  0
   13.9036  -22.2498   -0.3975 C   0  0  0  0  0  0  0  0  0  0  0  0
   14.3052  -23.6171   -0.6035 N   0  0  0  0  0  0  0  0  0  0  0  0
   14.5691  -24.3391    0.4073 N   0  0  0  0  0  0  0  0  0  0  0  0
   14.4116  -24.1647   -1.9072 C   0  0  0  0  0  0  0  0  0  0  0  0
   14.0072  -23.4389   -3.0690 C   0  0  0  0  0  0  0  0  0  0  0  0
   14.1995  -24.2683   -4.3514 C   0  0  0  0  0  0  0  0  0  0  0  0
   14.2963  -23.3271   -5.4665 C   0  0  2  0  0  0  0  0  0  0  0  0
   14.3158  -23.8779   -6.8613 N   0  0  0  0  0  0  0  0  0  0  0  0
   15.2041  -25.0334   -6.9795 C   0  0  0  0  0  0  0  0  0  0  0  0
   14.4930  -22.9092   -7.9294 O   0  0  0  0  0  0  0  0  0  0  0  0
   15.4766  -22.1185   -7.9221 O   0  0  0  0  0  0  0  0  0  0  0  0
  2  1  1  6
  3  2  1  0
  3  4  1  0
  5  9  1  0
  5  4  1  0
  6  5  2  0
  7  2  1  0
  7  8  2  0
 10 11  1  0
 11 13  1  0
 11 12  2  0
 13 14  1  0
 14 15  1  0
 15 16  1  0
 17 16  1  1
 17 18  1  0
 18  7  1  0
 19 29  1  0
 19 17  1  0
 20 19  2  0
 21 22  1  0
 22 23  2  0
 24 22  1  0
 24 25  1  0
 25 26  1  0
 26 27  1  0
 28 27  1  1
 28 29  1  0
 28 30  1  0
 30 32  1  0
 31 30  2  0
M  END
$$$$
