ERR.pdb
     RDKit          3D

 32 31  0  0  1  0  0  0  0  0999 V2000
   22.6382  -20.6013   -9.3549 N   0  0  0  0  0  0  0  0  0  0  0  0
   22.9051  -21.5323  -10.4562 C   0  0  1  0  0  0  0  0  0  0  0  0
   21.5261  -21.9609  -10.9274 C   0  0  0  0  0  0  0  0  0  0  0  0
   20.4889  -20.8889  -10.8198 C   0  0  0  0  0  0  0  0  0  0  0  0
   19.3819  -21.3913   -9.9578 C   0  0  0  0  0  0  0  0  0  0  0  0
   19.4059  -22.5165   -9.4127 O   0  0  0  0  0  0  0  0  0  0  0  0
   23.6542  -20.7751  -11.4912 C   0  0  0  0  0  0  0  0  0  0  0  0
   23.5693  -19.4990  -11.5259 O   0  0  0  0  0  0  0  0  0  0  0  0
   18.2841  -20.5631   -9.7568 O   0  0  0  0  0  0  0  0  0  0  0  0
   29.3254  -21.3197  -19.2345 N   0  0  0  0  0  0  0  0  0  0  0  0
   28.3900  -21.3223  -18.1480 C   0  0  0  0  0  0  0  0  0  0  0  0
   27.1221  -21.4494  -18.4294 N   0  0  0  0  0  0  0  0  0  0  0  0
   28.7891  -21.1922  -16.8071 N   0  0  0  0  0  0  0  0  0  0  0  0
   28.0555  -21.8611  -15.7381 C   0  0  0  0  0  0  0  0  0  0  0  0
   26.9443  -20.9653  -15.2415 C   0  0  0  0  0  0  0  0  0  0  0  0
   26.1893  -21.5256  -14.0903 C   0  0  0  0  0  0  0  0  0  0  0  0
   25.1454  -20.5513  -13.5149 C   0  0  2  0  0  0  0  0  0  0  0  0
   24.4813  -21.3509  -12.4719 N   0  0  0  0  0  0  0  0  0  0  0  0
   24.2280  -20.2095  -14.6118 C   0  0  0  0  0  0  0  0  0  0  0  0
   23.1775  -20.9196  -14.7876 O   0  0  0  0  0  0  0  0  0  0  0  0
   26.3852  -21.4905  -17.7041 N   0  0  0  0  0  0  0  0  0  0  0  0
   18.4874  -14.8942  -15.0588 C   0  0  0  0  0  0  0  0  0  0  0  0
   17.8769  -16.0882  -15.5833 N   0  0  0  0  0  0  0  0  0  0  0  0
   16.7235  -16.0089  -16.1086 N   0  0  0  0  0  0  0  0  0  0  0  0
   18.5377  -17.3413  -15.5208 C   0  0  0  0  0  0  0  0  0  0  0  0
   19.8484  -17.4800  -14.9705 C   0  0  0  0  0  0  0  0  0  0  0  0
   20.9089  -17.6652  -16.0707 C   0  0  0  0  0  0  0  0  0  0  0  0
   22.0676  -18.3084  -15.4527 C   0  0  1  0  0  0  0  0  0  0  0  0
   23.2707  -18.5769  -16.3070 N   0  0  0  0  0  0  0  0  0  0  0  0
   24.3732  -19.1468  -15.5336 C   0  0  0  0  0  0  0  0  0  0  0  0
   23.6867  -17.4963  -17.1843 O   0  0  0  0  0  0  0  0  0  0  0  0
   24.7967  -16.9208  -17.0119 O   0  0  0  0  0  0  0  0  0  0  0  0
  2  1  1  1
  3  2  1  0
  3  4  1  0
  5  9  1  0
  5  4  1  0
  6  5  2  0
  7  2  1  0
  7  8  2  0
 10 11  1  0
 11 13  1  0
 11 12  2  0
 13 14  1  0
 14 15  1  0
 15 16  1  0
 17 16  1  6
 17 18  1  0
 18  7  1  0
 19 29  1  0
 19 17  1  0
 20 19  2  0
 21 22  1  0
 22 23  2  0
 24 22  1  0
 24 25  1  0
 25 26  1  0
 26 27  1  0
 28 27  1  6
 28 29  1  0
 28 30  1  0
 30 32  1  0
 31 30  2  0
M  END
$$$$
