ERR.pdb
     RDKit          3D

 32 31  0  0  1  0  0  0  0  0999 V2000
   28.0597  -20.4827  -17.6470 N   0  0  0  0  0  0  0  0  0  0  0  0
   27.8329  -19.5952  -16.5017 C   0  0  1  0  0  0  0  0  0  0  0  0
   26.5934  -18.8032  -16.8808 C   0  0  0  0  0  0  0  0  0  0  0  0
   26.8498  -17.7164  -17.8756 C   0  0  0  0  0  0  0  0  0  0  0  0
   26.1184  -18.0469  -19.1312 C   0  0  0  0  0  0  0  0  0  0  0  0
   25.5000  -19.1220  -19.2913 O   0  0  0  0  0  0  0  0  0  0  0  0
   27.6169  -20.4642  -15.3168 C   0  0  0  0  0  0  0  0  0  0  0  0
   26.7475  -21.4012  -15.3703 O   0  0  0  0  0  0  0  0  0  0  0  0
   26.1291  -17.1107  -20.1584 O   0  0  0  0  0  0  0  0  0  0  0  0
   32.4989  -22.2937   -8.7483 N   0  0  0  0  0  0  0  0  0  0  0  0
   32.0702  -22.3713  -10.1142 C   0  0  0  0  0  0  0  0  0  0  0  0
   32.8237  -23.0212  -10.9585 N   0  0  0  0  0  0  0  0  0  0  0  0
   30.8810  -21.7761  -10.5678 N   0  0  0  0  0  0  0  0  0  0  0  0
   29.6903  -21.7432   -9.7254 C   0  0  0  0  0  0  0  0  0  0  0  0
   28.5706  -21.0322  -10.4495 C   0  0  0  0  0  0  0  0  0  0  0  0
   28.9184  -20.6153  -11.8331 C   0  0  0  0  0  0  0  0  0  0  0  0
   27.8923  -21.0765  -12.8840 C   0  0  2  0  0  0  0  0  0  0  0  0
   28.3065  -20.3510  -14.0965 N   0  0  0  0  0  0  0  0  0  0  0  0
   26.5697  -20.6433  -12.4102 C   0  0  0  0  0  0  0  0  0  0  0  0
   26.3552  -19.3955  -12.2210 O   0  0  0  0  0  0  0  0  0  0  0  0
   32.6053  -23.0955  -11.9672 N   0  0  0  0  0  0  0  0  0  0  0  0
   19.0718  -22.7104  -15.1849 C   0  0  0  0  0  0  0  0  0  0  0  0
   19.4121  -21.3217  -15.0145 N   0  0  0  0  0  0  0  0  0  0  0  0
   18.9534  -20.4710  -15.8383 N   0  0  0  0  0  0  0  0  0  0  0  0
   20.2463  -20.8933  -13.9509 C   0  0  0  0  0  0  0  0  0  0  0  0
   20.6811  -21.7845  -12.9229 C   0  0  0  0  0  0  0  0  0  0  0  0
   21.6757  -21.1040  -11.9653 C   0  0  0  0  0  0  0  0  0  0  0  0
   23.0176  -21.5350  -12.3552 C   0  0  2  0  0  0  0  0  0  0  0  0
   24.1884  -20.9884  -11.5940 N   0  0  0  0  0  0  0  0  0  0  0  0
   25.4607  -21.4740  -12.1268 C   0  0  0  0  0  0  0  0  0  0  0  0
   24.1060  -21.0723  -10.1460 O   0  0  0  0  0  0  0  0  0  0  0  0
   23.1243  -20.5737   -9.5291 O   0  0  0  0  0  0  0  0  0  0  0  0
  2  1  1  6
  3  2  1  0
  3  4  1  0
  5  9  1  0
  5  4  1  0
  6  5  2  0
  7  2  1  0
  7  8  2  0
 10 11  1  0
 11 13  1  0
 11 12  2  0
 13 14  1  0
 14 15  1  0
 15 16  1  0
 17 16  1  1
 17 18  1  0
 18  7  1  0
 19 29  1  0
 19 17  1  0
 20 19  2  0
 21 22  1  0
 22 23  2  0
 24 22  1  0
 24 25  1  0
 25 26  1  0
 26 27  1  0
 28 27  1  6
 28 29  1  0
 28 30  1  0
 30 32  1  0
 31 30  2  0
M  END
$$$$
