ERR.pdb
     RDKit          3D

 32 31  0  0  1  0  0  0  0  0999 V2000
   28.4377  -21.6159  -15.8696 N   0  0  0  0  0  0  0  0  0  0  0  0
   27.2253  -21.1589  -16.5566 C   0  0  1  0  0  0  0  0  0  0  0  0
   26.6659  -22.4137  -17.2045 C   0  0  0  0  0  0  0  0  0  0  0  0
   26.7510  -22.4140  -18.6975 C   0  0  0  0  0  0  0  0  0  0  0  0
   27.6541  -23.5231  -19.1162 C   0  0  0  0  0  0  0  0  0  0  0  0
   27.3326  -24.3683  -19.9800 O   0  0  0  0  0  0  0  0  0  0  0  0
   26.3233  -20.6002  -15.5173 C   0  0  0  0  0  0  0  0  0  0  0  0
   26.2925  -21.1331  -14.3547 O   0  0  0  0  0  0  0  0  0  0  0  0
   28.9047  -23.6083  -18.5159 O   0  0  0  0  0  0  0  0  0  0  0  0
   23.5631  -16.1722  -18.0771 N   0  0  0  0  0  0  0  0  0  0  0  0
   22.9484  -15.3435  -17.0817 C   0  0  0  0  0  0  0  0  0  0  0  0
   21.8438  -14.7234  -17.3954 N   0  0  0  0  0  0  0  0  0  0  0  0
   23.4910  -15.1779  -15.7963 N   0  0  0  0  0  0  0  0  0  0  0  0
   24.9276  -15.2903  -15.5687 C   0  0  0  0  0  0  0  0  0  0  0  0
   25.2510  -16.6538  -15.0029 C   0  0  0  0  0  0  0  0  0  0  0  0
   24.1405  -17.6341  -15.1243 C   0  0  0  0  0  0  0  0  0  0  0  0
   24.5253  -19.0506  -14.6600 C   0  0  2  0  0  0  0  0  0  0  0  0
   25.4699  -19.4972  -15.6975 N   0  0  0  0  0  0  0  0  0  0  0  0
   23.2921  -19.8510  -14.6593 C   0  0  0  0  0  0  0  0  0  0  0  0
   22.9374  -20.4473  -15.7351 O   0  0  0  0  0  0  0  0  0  0  0  0
   21.3254  -14.1243  -16.7299 N   0  0  0  0  0  0  0  0  0  0  0  0
   19.3550  -24.7149   -8.4849 C   0  0  0  0  0  0  0  0  0  0  0  0
   18.5526  -24.9240   -9.6621 N   0  0  0  0  0  0  0  0  0  0  0  0
   17.6919  -25.8577   -9.6613 N   0  0  0  0  0  0  0  0  0  0  0  0
   18.7091  -24.1114  -10.8136 C   0  0  0  0  0  0  0  0  0  0  0  0
   19.8115  -23.2159  -10.9647 C   0  0  0  0  0  0  0  0  0  0  0  0
   19.8249  -22.5626  -12.3584 C   0  0  0  0  0  0  0  0  0  0  0  0
   20.9875  -21.6773  -12.4117 C   0  0  2  0  0  0  0  0  0  0  0  0
   21.1848  -20.8368  -13.6379 N   0  0  0  0  0  0  0  0  0  0  0  0
   22.4149  -20.0491  -13.5677 C   0  0  0  0  0  0  0  0  0  0  0  0
   20.0354  -20.0636  -14.0756 O   0  0  0  0  0  0  0  0  0  0  0  0
   19.9982  -18.8142  -13.9012 O   0  0  0  0  0  0  0  0  0  0  0  0
  2  1  1  1
  3  2  1  0
  3  4  1  0
  5  9  1  0
  5  4  1  0
  6  5  2  0
  7  2  1  0
  7  8  2  0
 10 11  1  0
 11 13  1  0
 11 12  2  0
 13 14  1  0
 14 15  1  0
 15 16  1  0
 17 16  1  6
 17 18  1  0
 18  7  1  0
 19 29  1  0
 19 17  1  0
 20 19  2  0
 21 22  1  0
 22 23  2  0
 24 22  1  0
 24 25  1  0
 25 26  1  0
 26 27  1  0
 28 27  1  6
 28 29  1  0
 28 30  1  0
 30 32  1  0
 31 30  2  0
M  END
$$$$
