ERR.pdb
     RDKit          3D

 32 31  0  0  1  0  0  0  0  0999 V2000
   15.5104  -20.8325    1.4054 N   0  0  0  0  0  0  0  0  0  0  0  0
   15.2155  -20.1583    2.6739 C   0  0  1  0  0  0  0  0  0  0  0  0
   14.7938  -21.2810    3.6061 C   0  0  0  0  0  0  0  0  0  0  0  0
   15.6674  -22.4923    3.5294 C   0  0  0  0  0  0  0  0  0  0  0  0
   16.6687  -22.4197    4.6307 C   0  0  0  0  0  0  0  0  0  0  0  0
   16.7970  -21.4146    5.3636 O   0  0  0  0  0  0  0  0  0  0  0  0
   16.4684  -19.4912    3.1111 C   0  0  0  0  0  0  0  0  0  0  0  0
   17.5720  -19.7763    2.5302 O   0  0  0  0  0  0  0  0  0  0  0  0
   17.4858  -23.5236    4.8436 O   0  0  0  0  0  0  0  0  0  0  0  0
   17.9772  -11.4215    6.5539 N   0  0  0  0  0  0  0  0  0  0  0  0
   19.2419  -12.0513    6.3107 C   0  0  0  0  0  0  0  0  0  0  0  0
   20.3243  -11.3439    6.4866 N   0  0  0  0  0  0  0  0  0  0  0  0
   19.3522  -13.3882    5.8926 N   0  0  0  0  0  0  0  0  0  0  0  0
   18.1721  -14.1505    5.4994 C   0  0  0  0  0  0  0  0  0  0  0  0
   18.5642  -15.5764    5.1881 C   0  0  0  0  0  0  0  0  0  0  0  0
   17.4165  -16.4519    4.8338 C   0  0  0  0  0  0  0  0  0  0  0  0
   17.8306  -17.9011    4.5201 C   0  0  2  0  0  0  0  0  0  0  0  0
   16.5581  -18.5375    4.1406 N   0  0  0  0  0  0  0  0  0  0  0  0
   18.3791  -18.4680    5.7607 C   0  0  0  0  0  0  0  0  0  0  0  0
   17.5801  -18.7594    6.7175 O   0  0  0  0  0  0  0  0  0  0  0  0
   21.2747  -11.7161    6.3165 N   0  0  0  0  0  0  0  0  0  0  0  0
   20.0786  -25.8311    6.9842 C   0  0  0  0  0  0  0  0  0  0  0  0
   19.7668  -25.3600    8.3087 N   0  0  0  0  0  0  0  0  0  0  0  0
   19.4093  -26.2000    9.1914 N   0  0  0  0  0  0  0  0  0  0  0  0
   19.8500  -23.9835    8.6391 C   0  0  0  0  0  0  0  0  0  0  0  0
   20.2703  -23.0011    7.6915 C   0  0  0  0  0  0  0  0  0  0  0  0
   20.2196  -21.5818    8.2852 C   0  0  0  0  0  0  0  0  0  0  0  0
   20.6756  -20.6599    7.2458 C   0  0  2  0  0  0  0  0  0  0  0  0
   20.2338  -19.2288    7.3218 N   0  0  0  0  0  0  0  0  0  0  0  0
   19.7395  -18.7410    6.0349 C   0  0  0  0  0  0  0  0  0  0  0  0
   21.1543  -18.3082    7.9665 O   0  0  0  0  0  0  0  0  0  0  0  0
   21.9360  -17.5952    7.2785 O   0  0  0  0  0  0  0  0  0  0  0  0
  2  1  1  6
  3  2  1  0
  3  4  1  0
  5  9  1  0
  5  4  1  0
  6  5  2  0
  7  2  1  0
  7  8  2  0
 10 11  1  0
 11 13  1  0
 11 12  2  0
 13 14  1  0
 14 15  1  0
 15 16  1  0
 17 16  1  1
 17 18  1  0
 18  7  1  0
 19 29  1  0
 19 17  1  0
 20 19  2  0
 21 22  1  0
 22 23  2  0
 24 22  1  0
 24 25  1  0
 25 26  1  0
 26 27  1  0
 28 27  1  1
 28 29  1  0
 28 30  1  0
 30 32  1  0
 31 30  2  0
M  END
$$$$
