ERR.pdb
     RDKit          3D

 32 31  0  0  1  0  0  0  0  0999 V2000
   26.4318  -22.7346  -14.4471 N   0  0  0  0  0  0  0  0  0  0  0  0
   25.1020  -23.1184  -14.9320 C   0  0  1  0  0  0  0  0  0  0  0  0
   25.0942  -24.6349  -14.8443 C   0  0  0  0  0  0  0  0  0  0  0  0
   25.6348  -25.3148  -16.0616 C   0  0  0  0  0  0  0  0  0  0  0  0
   24.5998  -25.2542  -17.1321 C   0  0  0  0  0  0  0  0  0  0  0  0
   23.4021  -25.5540  -16.9333 O   0  0  0  0  0  0  0  0  0  0  0  0
   24.1110  -22.4872  -14.0235 C   0  0  0  0  0  0  0  0  0  0  0  0
   24.4362  -22.2327  -12.8127 O   0  0  0  0  0  0  0  0  0  0  0  0
   24.9950  -24.8425  -18.3994 O   0  0  0  0  0  0  0  0  0  0  0  0
   18.9597  -16.1334  -16.2131 N   0  0  0  0  0  0  0  0  0  0  0  0
   18.6106  -17.5232  -16.2567 C   0  0  0  0  0  0  0  0  0  0  0  0
   17.6989  -17.9010  -17.1106 N   0  0  0  0  0  0  0  0  0  0  0  0
   19.2094  -18.4793  -15.4192 N   0  0  0  0  0  0  0  0  0  0  0  0
   20.1034  -18.0754  -14.3394 C   0  0  0  0  0  0  0  0  0  0  0  0
   20.5325  -19.2897  -13.5488 C   0  0  0  0  0  0  0  0  0  0  0  0
   21.5038  -20.1595  -14.2624 C   0  0  0  0  0  0  0  0  0  0  0  0
   21.8946  -21.4172  -13.4654 C   0  0  2  0  0  0  0  0  0  0  0  0
   22.8004  -22.1269  -14.3840 N   0  0  0  0  0  0  0  0  0  0  0  0
   20.6567  -22.1725  -13.2229 C   0  0  0  0  0  0  0  0  0  0  0  0
   20.0803  -22.7539  -14.2071 O   0  0  0  0  0  0  0  0  0  0  0  0
   17.3646  -18.8775  -17.1829 N   0  0  0  0  0  0  0  0  0  0  0  0
   16.7546  -24.7515   -5.6753 C   0  0  0  0  0  0  0  0  0  0  0  0
   17.7438  -25.2827   -6.5768 N   0  0  0  0  0  0  0  0  0  0  0  0
   18.7068  -25.9609   -6.1021 N   0  0  0  0  0  0  0  0  0  0  0  0
   17.6610  -25.0600   -7.9748 C   0  0  0  0  0  0  0  0  0  0  0  0
   16.9841  -23.9280   -8.5228 C   0  0  0  0  0  0  0  0  0  0  0  0
   17.1011  -23.8849  -10.0570 C   0  0  0  0  0  0  0  0  0  0  0  0
   18.3675  -23.2276  -10.3774 C   0  0  1  0  0  0  0  0  0  0  0  0
   18.7117  -23.0141  -11.8214 N   0  0  0  0  0  0  0  0  0  0  0  0
   19.9997  -22.3405  -11.9818 C   0  0  0  0  0  0  0  0  0  0  0  0
   17.6632  -22.4477  -12.6522 O   0  0  0  0  0  0  0  0  0  0  0  0
   17.5155  -21.1970  -12.7356 O   0  0  0  0  0  0  0  0  0  0  0  0
  2  1  1  1
  3  2  1  0
  3  4  1  0
  5  9  1  0
  5  4  1  0
  6  5  2  0
  7  2  1  0
  7  8  2  0
 10 11  1  0
 11 13  1  0
 11 12  2  0
 13 14  1  0
 14 15  1  0
 15 16  1  0
 17 16  1  6
 17 18  1  0
 18  7  1  0
 19 29  1  0
 19 17  1  0
 20 19  2  0
 21 22  1  0
 22 23  2  0
 24 22  1  0
 24 25  1  0
 25 26  1  0
 26 27  1  0
 28 27  1  6
 28 29  1  0
 28 30  1  0
 30 32  1  0
 31 30  2  0
M  END
$$$$
