ERR.pdb
     RDKit          3D

 32 31  0  0  1  0  0  0  0  0999 V2000
   26.8109  -25.9195  -15.9771 N   0  0  0  0  0  0  0  0  0  0  0  0
   26.5733  -24.7803  -16.8696 C   0  0  1  0  0  0  0  0  0  0  0  0
   25.5246  -25.2823  -17.8472 C   0  0  0  0  0  0  0  0  0  0  0  0
   26.0699  -26.1773  -18.9139 C   0  0  0  0  0  0  0  0  0  0  0  0
   24.9410  -26.6134  -19.7835 C   0  0  0  0  0  0  0  0  0  0  0  0
   24.6025  -25.9930  -20.8152 O   0  0  0  0  0  0  0  0  0  0  0  0
   26.0800  -23.6634  -16.0241 C   0  0  0  0  0  0  0  0  0  0  0  0
   25.4513  -23.9213  -14.9403 O   0  0  0  0  0  0  0  0  0  0  0  0
   24.2455  -27.7615  -19.4231 O   0  0  0  0  0  0  0  0  0  0  0  0
   24.0341  -16.2910  -15.9416 N   0  0  0  0  0  0  0  0  0  0  0  0
   25.0416  -15.7987  -15.0483 C   0  0  0  0  0  0  0  0  0  0  0  0
   24.7234  -14.8242  -14.2407 N   0  0  0  0  0  0  0  0  0  0  0  0
   26.3445  -16.3236  -15.0158 N   0  0  0  0  0  0  0  0  0  0  0  0
   26.7090  -17.4763  -15.8323 C   0  0  0  0  0  0  0  0  0  0  0  0
   26.0749  -18.7257  -15.2660 C   0  0  0  0  0  0  0  0  0  0  0  0
   26.4659  -19.9726  -15.9743 C   0  0  0  0  0  0  0  0  0  0  0  0
   25.7993  -21.2348  -15.3978 C   0  0  2  0  0  0  0  0  0  0  0  0
   26.2481  -22.2974  -16.3129 N   0  0  0  0  0  0  0  0  0  0  0  0
   24.3462  -21.0239  -15.4724 C   0  0  0  0  0  0  0  0  0  0  0  0
   23.7998  -20.8600  -16.6184 O   0  0  0  0  0  0  0  0  0  0  0  0
   25.4020  -14.3810  -13.5975 N   0  0  0  0  0  0  0  0  0  0  0  0
   19.7046  -23.0880   -9.1901 C   0  0  0  0  0  0  0  0  0  0  0  0
   19.4307  -23.7417  -10.4434 N   0  0  0  0  0  0  0  0  0  0  0  0
   18.9296  -24.9085  -10.4314 N   0  0  0  0  0  0  0  0  0  0  0  0
   19.7115  -23.1086  -11.6808 C   0  0  0  0  0  0  0  0  0  0  0  0
   19.3148  -21.7633  -11.9507 C   0  0  0  0  0  0  0  0  0  0  0  0
   19.7986  -21.2961  -13.3353 C   0  0  0  0  0  0  0  0  0  0  0  0
   21.2606  -21.3013  -13.3087 C   0  0  2  0  0  0  0  0  0  0  0  0
   21.9951  -20.8309  -14.5287 N   0  0  0  0  0  0  0  0  0  0  0  0
   23.4428  -20.9785  -14.3851 C   0  0  0  0  0  0  0  0  0  0  0  0
   21.6019  -19.5339  -15.0519 O   0  0  0  0  0  0  0  0  0  0  0  0
   20.5830  -19.4208  -15.7881 O   0  0  0  0  0  0  0  0  0  0  0  0
  2  1  1  1
  3  2  1  0
  3  4  1  0
  5  9  1  0
  5  4  1  0
  6  5  2  0
  7  2  1  0
  7  8  2  0
 10 11  1  0
 11 13  1  0
 11 12  2  0
 13 14  1  0
 14 15  1  0
 15 16  1  0
 17 16  1  6
 17 18  1  0
 18  7  1  0
 19 29  1  0
 19 17  1  0
 20 19  2  0
 21 22  1  0
 22 23  2  0
 24 22  1  0
 24 25  1  0
 25 26  1  0
 26 27  1  0
 28 27  1  6
 28 29  1  0
 28 30  1  0
 30 32  1  0
 31 30  2  0
M  END
$$$$
