CEF.pdb
     RDKit          3D

 27 27  0  0  1  0  0  0  0  0999 V2000
    6.7474  -17.2453   19.6924 N   0  0  0  0  0  0  0  0  0  0  0  0
    7.9567  -16.4657   19.7788 C   0  0  1  0  0  0  0  0  0  0  0  0
    7.7078  -14.9875   19.7650 C   0  0  0  0  0  0  0  0  0  0  0  0
    7.1448  -14.2879   21.3107 S   0  0  0  0  0  0  0  0  0  0  0  0
    8.7408  -16.9107   20.9475 C   0  0  0  0  0  0  0  0  0  0  0  0
    8.2324  -17.5123   21.9330 O   0  0  0  0  0  0  0  0  0  0  0  0
   10.1366  -16.6731   21.0138 N   0  0  0  0  0  0  0  0  0  0  0  0
   10.9764  -16.9817   22.1435 C   0  0  1  0  0  0  0  0  0  0  0  0
   12.4058  -17.2167   21.8438 C   0  0  0  0  0  0  0  0  0  0  0  0
   12.6916  -18.1357   20.7139 C   0  0  0  0  0  0  0  0  0  0  0  0
   14.0803  -18.6705   20.8494 C   0  0  0  0  0  0  0  0  0  0  0  0
   15.0845  -17.8974   21.0569 O   0  0  0  0  0  0  0  0  0  0  0  0
   10.7114  -16.0768   23.3080 C   0  0  0  0  0  0  0  0  0  0  0  0
   11.1339  -14.8989   23.3528 O   0  0  0  0  0  0  0  0  0  0  0  0
   14.3821  -20.0232   20.7641 O   0  0  0  0  0  0  0  0  0  0  0  0
    9.9605  -16.5172   24.4340 N   0  0  0  0  0  0  0  0  0  0  0  0
    9.2942  -15.6406   25.3733 C   0  0  1  0  0  0  0  0  0  0  0  0
    8.3778  -14.6730   24.6597 C   0  0  0  0  0  0  0  0  0  0  0  0
    7.6072  -13.8251   25.5684 C   0  0  0  0  0  0  0  0  0  0  0  0
    8.2082  -12.7125   26.1287 C   0  0  0  0  0  0  0  0  0  0  0  0
    7.4480  -11.9311   26.9711 C   0  0  0  0  0  0  0  0  0  0  0  0
    6.1295  -12.1954   27.2833 C   0  0  0  0  0  0  0  0  0  0  0  0
    5.5291  -13.3160   26.7168 C   0  0  0  0  0  0  0  0  0  0  0  0
    6.2805  -14.1034   25.8740 C   0  0  0  0  0  0  0  0  0  0  0  0
    8.6030  -16.4751   26.3818 C   0  0  0  0  0  0  0  0  0  0  0  0
    8.6565  -16.1065   27.6017 O   0  0  0  0  0  0  0  0  0  0  0  0
    7.8986  -17.6328   26.0981 O   0  0  0  0  0  0  0  0  0  0  0  0
  2  1  1  1
  3  2  1  0
  4  3  1  0
  5  6  2  0
  5  2  1  0
  7  5  1  0
  8  7  1  0
  8  9  1  6
 10  9  1  0
 11 10  1  0
 12 11  2  0
 13  8  1  0
 14 13  2  0
 15 11  1  0
 16 13  1  0
 17 18  1  6
 17 16  1  0
 18 19  1  0
 19 24  2  0
 19 20  1  0
 20 21  2  0
 21 22  1  0
 23 22  2  0
 24 23  1  0
 25 17  1  0
 26 25  2  0
 27 25  1  0
M  END
$$$$
