CEF.pdb
     RDKit          3D

 27 27  0  0  1  0  0  0  0  0999 V2000
    5.8624  -15.6591   20.4835 N   0  0  0  0  0  0  0  0  0  0  0  0
    7.1890  -15.1066   20.5950 C   0  0  1  0  0  0  0  0  0  0  0  0
    7.1964  -13.6144   20.7389 C   0  0  0  0  0  0  0  0  0  0  0  0
    6.6155  -12.9904   22.3102 S   0  0  0  0  0  0  0  0  0  0  0  0
    7.9148  -15.7971   21.6789 C   0  0  0  0  0  0  0  0  0  0  0  0
    7.3406  -16.4862   22.5662 O   0  0  0  0  0  0  0  0  0  0  0  0
    9.3265  -15.7117   21.7717 N   0  0  0  0  0  0  0  0  0  0  0  0
   10.1417  -16.4521   22.7013 C   0  0  1  0  0  0  0  0  0  0  0  0
   11.5606  -16.6281   22.3221 C   0  0  0  0  0  0  0  0  0  0  0  0
   12.3784  -17.4682   23.2324 C   0  0  0  0  0  0  0  0  0  0  0  0
   13.7605  -17.5975   22.6790 C   0  0  0  0  0  0  0  0  0  0  0  0
   14.6496  -18.3297   23.2470 O   0  0  0  0  0  0  0  0  0  0  0  0
    9.9107  -16.0256   24.1189 C   0  0  0  0  0  0  0  0  0  0  0  0
    9.9044  -14.8223   24.4656 O   0  0  0  0  0  0  0  0  0  0  0  0
   14.1780  -16.9464   21.5258 O   0  0  0  0  0  0  0  0  0  0  0  0
    9.6874  -16.9775   25.1532 N   0  0  0  0  0  0  0  0  0  0  0  0
    9.2511  -16.6499   26.4937 C   0  0  1  0  0  0  0  0  0  0  0  0
    7.7840  -16.2860   26.5153 C   0  0  0  0  0  0  0  0  0  0  0  0
    7.5429  -14.8437   26.5016 C   0  0  0  0  0  0  0  0  0  0  0  0
    6.3758  -14.3581   25.9402 C   0  0  0  0  0  0  0  0  0  0  0  0
    6.1778  -12.9948   25.9553 C   0  0  0  0  0  0  0  0  0  0  0  0
    7.0733  -12.0942   26.4966 C   0  0  0  0  0  0  0  0  0  0  0  0
    8.2461  -12.5876   27.0605 C   0  0  0  0  0  0  0  0  0  0  0  0
    8.4533  -13.9485   27.0500 C   0  0  0  0  0  0  0  0  0  0  0  0
    9.5930  -17.7805   27.3859 C   0  0  0  0  0  0  0  0  0  0  0  0
    9.2973  -17.6776   28.6223 O   0  0  0  0  0  0  0  0  0  0  0  0
   10.2138  -18.9483   26.9761 O   0  0  0  0  0  0  0  0  0  0  0  0
  2  1  1  1
  3  2  1  0
  4  3  1  0
  5  6  2  0
  5  2  1  0
  7  5  1  0
  8  7  1  0
  8  9  1  6
 10  9  1  0
 11 10  1  0
 12 11  2  0
 13  8  1  0
 14 13  2  0
 15 11  1  0
 16 13  1  0
 17 18  1  6
 17 16  1  0
 18 19  1  0
 19 24  2  0
 19 20  1  0
 20 21  2  0
 21 22  1  0
 23 22  2  0
 24 23  1  0
 25 17  1  0
 26 25  2  0
 27 25  1  0
M  END
$$$$
