CEF.pdb
     RDKit          3D

 27 27  0  0  1  0  0  0  0  0999 V2000
    7.8293  -15.4958   17.3409 N   0  0  0  0  0  0  0  0  0  0  0  0
    9.0420  -15.2505   18.0805 C   0  0  1  0  0  0  0  0  0  0  0  0
    9.3974  -13.7966   18.1651 C   0  0  0  0  0  0  0  0  0  0  0  0
    8.2553  -12.7781   19.0890 S   0  0  0  0  0  0  0  0  0  0  0  0
    8.9470  -15.9019   19.4015 C   0  0  0  0  0  0  0  0  0  0  0  0
    7.8677  -16.0026   20.0470 O   0  0  0  0  0  0  0  0  0  0  0  0
   10.0967  -16.4561   20.0179 N   0  0  0  0  0  0  0  0  0  0  0  0
   10.1264  -17.0547   21.3285 C   0  0  1  0  0  0  0  0  0  0  0  0
   11.1598  -18.0908   21.5448 C   0  0  0  0  0  0  0  0  0  0  0  0
   11.0327  -19.3190   20.7212 C   0  0  0  0  0  0  0  0  0  0  0  0
   12.1568  -20.2496   21.0427 C   0  0  0  0  0  0  0  0  0  0  0  0
   12.2522  -20.8233   22.1877 O   0  0  0  0  0  0  0  0  0  0  0  0
   10.0126  -16.0330   22.4186 C   0  0  0  0  0  0  0  0  0  0  0  0
   10.7748  -15.0423   22.4926 O   0  0  0  0  0  0  0  0  0  0  0  0
   13.1650  -20.5591   20.1395 O   0  0  0  0  0  0  0  0  0  0  0  0
    9.0235  -16.1409   23.4363 N   0  0  0  0  0  0  0  0  0  0  0  0
    8.7841  -15.1468   24.4605 C   0  0  1  0  0  0  0  0  0  0  0  0
    7.5340  -14.3499   24.1646 C   0  0  0  0  0  0  0  0  0  0  0  0
    7.1663  -13.4263   25.2372 C   0  0  0  0  0  0  0  0  0  0  0  0
    7.9907  -12.3516   25.5169 C   0  0  0  0  0  0  0  0  0  0  0  0
    7.6065  -11.4966   26.5265 C   0  0  0  0  0  0  0  0  0  0  0  0
    6.4524  -11.6523   27.2679 C   0  0  0  0  0  0  0  0  0  0  0  0
    5.6259  -12.7352   26.9825 C   0  0  0  0  0  0  0  0  0  0  0  0
    6.0014  -13.5955   25.9757 C   0  0  0  0  0  0  0  0  0  0  0  0
    8.7539  -15.8276   25.7746 C   0  0  0  0  0  0  0  0  0  0  0  0
    9.3034  -15.2412   26.7651 O   0  0  0  0  0  0  0  0  0  0  0  0
    8.1704  -17.0609   26.0102 O   0  0  0  0  0  0  0  0  0  0  0  0
  2  1  1  1
  3  2  1  0
  4  3  1  0
  5  6  2  0
  5  2  1  0
  7  5  1  0
  8  7  1  0
  8  9  1  1
 10  9  1  0
 11 10  1  0
 12 11  2  0
 13  8  1  0
 14 13  2  0
 15 11  1  0
 16 13  1  0
 17 18  1  6
 17 16  1  0
 18 19  1  0
 19 24  2  0
 19 20  1  0
 20 21  2  0
 21 22  1  0
 23 22  2  0
 24 23  1  0
 25 17  1  0
 26 25  2  0
 27 25  1  0
M  END
$$$$
