CEF.pdb
     RDKit          3D

 27 27  0  0  1  0  0  0  0  0999 V2000
    7.6353  -14.5727   17.2830 N   0  0  0  0  0  0  0  0  0  0  0  0
    8.8858  -14.5445   17.9995 C   0  0  1  0  0  0  0  0  0  0  0  0
    9.3752  -13.1550   18.2772 C   0  0  0  0  0  0  0  0  0  0  0  0
    8.3688  -12.1953   19.4006 S   0  0  0  0  0  0  0  0  0  0  0  0
    8.7689  -15.3720   19.2160 C   0  0  0  0  0  0  0  0  0  0  0  0
    7.7090  -15.4579   19.8949 O   0  0  0  0  0  0  0  0  0  0  0  0
    9.8738  -16.1251   19.6863 N   0  0  0  0  0  0  0  0  0  0  0  0
    9.9015  -16.8747   20.9167 C   0  0  1  0  0  0  0  0  0  0  0  0
   10.8565  -18.0032   20.9671 C   0  0  0  0  0  0  0  0  0  0  0  0
   10.8037  -18.8469   22.1872 C   0  0  0  0  0  0  0  0  0  0  0  0
   11.8797  -19.8817   22.1208 C   0  0  0  0  0  0  0  0  0  0  0  0
   12.7281  -19.9130   21.1573 O   0  0  0  0  0  0  0  0  0  0  0  0
    9.9066  -15.9833   22.1211 C   0  0  0  0  0  0  0  0  0  0  0  0
   10.7546  -15.0760   22.2813 O   0  0  0  0  0  0  0  0  0  0  0  0
   12.0398  -20.8699   23.0830 O   0  0  0  0  0  0  0  0  0  0  0  0
    8.9389  -16.1272   23.1548 N   0  0  0  0  0  0  0  0  0  0  0  0
    8.7788  -15.2136   24.2658 C   0  0  1  0  0  0  0  0  0  0  0  0
    7.4346  -14.5237   24.2143 C   0  0  0  0  0  0  0  0  0  0  0  0
    7.1659  -13.6870   25.3833 C   0  0  0  0  0  0  0  0  0  0  0  0
    8.2107  -13.3365   26.2190 C   0  0  0  0  0  0  0  0  0  0  0  0
    7.9217  -12.5382   27.3040 C   0  0  0  0  0  0  0  0  0  0  0  0
    6.6563  -12.0721   27.5997 C   0  0  0  0  0  0  0  0  0  0  0  0
    5.6082  -12.4273   26.7556 C   0  0  0  0  0  0  0  0  0  0  0  0
    5.8869  -13.2251   25.6690 C   0  0  0  0  0  0  0  0  0  0  0  0
    9.0123  -15.9604   25.5224 C   0  0  0  0  0  0  0  0  0  0  0  0
    9.5491  -15.3377   26.4975 O   0  0  0  0  0  0  0  0  0  0  0  0
    8.6898  -17.2924   25.7193 O   0  0  0  0  0  0  0  0  0  0  0  0
  2  1  1  1
  3  2  1  0
  4  3  1  0
  5  6  2  0
  5  2  1  0
  7  5  1  0
  8  7  1  0
  8  9  1  6
 10  9  1  0
 11 10  1  0
 12 11  2  0
 13  8  1  0
 14 13  2  0
 15 11  1  0
 16 13  1  0
 17 18  1  1
 17 16  1  0
 18 19  1  0
 19 24  2  0
 19 20  1  0
 20 21  2  0
 21 22  1  0
 23 22  2  0
 24 23  1  0
 25 17  1  0
 26 25  2  0
 27 25  1  0
M  END
$$$$
