CEF.pdb
     RDKit          3D

 27 27  0  0  1  0  0  0  0  0999 V2000
    9.8079  -14.1300   19.2558 N   0  0  0  0  0  0  0  0  0  0  0  0
    9.0893  -13.3390   20.2231 C   0  0  1  0  0  0  0  0  0  0  0  0
    7.9225  -12.6045   19.6346 C   0  0  0  0  0  0  0  0  0  0  0  0
    6.6622  -13.6319   18.8918 S   0  0  0  0  0  0  0  0  0  0  0  0
    8.7193  -14.1906   21.3705 C   0  0  0  0  0  0  0  0  0  0  0  0
    7.9776  -13.7979   22.3125 O   0  0  0  0  0  0  0  0  0  0  0  0
    9.1962  -15.5220   21.4653 N   0  0  0  0  0  0  0  0  0  0  0  0
    8.9020  -16.4322   22.5431 C   0  0  1  0  0  0  0  0  0  0  0  0
    8.8084  -17.8623   22.1767 C   0  0  0  0  0  0  0  0  0  0  0  0
    7.5260  -18.2959   21.5680 C   0  0  0  0  0  0  0  0  0  0  0  0
    7.6363  -19.7250   21.1458 C   0  0  0  0  0  0  0  0  0  0  0  0
    7.4256  -20.0890   19.9323 O   0  0  0  0  0  0  0  0  0  0  0  0
    9.7172  -16.1413   23.7662 C   0  0  0  0  0  0  0  0  0  0  0  0
   10.9689  -16.1152   23.7484 O   0  0  0  0  0  0  0  0  0  0  0  0
    7.9716  -20.7491   22.0214 O   0  0  0  0  0  0  0  0  0  0  0  0
    9.1021  -15.8802   25.0229 N   0  0  0  0  0  0  0  0  0  0  0  0
    9.8167  -15.7122   26.2703 C   0  0  1  0  0  0  0  0  0  0  0  0
    9.3840  -14.4495   26.9800 C   0  0  0  0  0  0  0  0  0  0  0  0
    8.1986  -13.8286   26.3901 C   0  0  0  0  0  0  0  0  0  0  0  0
    6.9769  -13.9652   27.0240 C   0  0  0  0  0  0  0  0  0  0  0  0
    5.8845  -13.3574   26.4450 C   0  0  0  0  0  0  0  0  0  0  0  0
    5.9424  -12.6246   25.2765 C   0  0  0  0  0  0  0  0  0  0  0  0
    7.1741  -12.4898   24.6424 C   0  0  0  0  0  0  0  0  0  0  0  0
    8.2716  -13.0939   25.2130 C   0  0  0  0  0  0  0  0  0  0  0  0
    9.6362  -16.9375   27.0810 C   0  0  0  0  0  0  0  0  0  0  0  0
    8.8579  -17.8427   26.6320 O   0  0  0  0  0  0  0  0  0  0  0  0
   10.2527  -17.1757   28.2976 O   0  0  0  0  0  0  0  0  0  0  0  0
  2  1  1  6
  3  2  1  0
  4  3  1  0
  5  6  2  0
  5  2  1  0
  7  5  1  0
  8  7  1  0
  8  9  1  6
 10  9  1  0
 11 10  1  0
 12 11  2  0
 13  8  1  0
 14 13  2  0
 15 11  1  0
 16 13  1  0
 17 18  1  1
 17 16  1  0
 18 19  1  0
 19 24  2  0
 19 20  1  0
 20 21  2  0
 21 22  1  0
 23 22  2  0
 24 23  1  0
 25 17  1  0
 26 25  2  0
 27 25  1  0
M  END
$$$$
