CEF.pdb
     RDKit          3D

 27 27  0  0  1  0  0  0  0  0999 V2000
    7.7555  -14.3370   18.1092 N   0  0  0  0  0  0  0  0  0  0  0  0
    8.6601  -14.3423   19.2315 C   0  0  1  0  0  0  0  0  0  0  0  0
    8.9809  -12.9679   19.7369 C   0  0  0  0  0  0  0  0  0  0  0  0
    7.6390  -12.1169   20.5558 S   0  0  0  0  0  0  0  0  0  0  0  0
    8.1306  -15.2365   20.2796 C   0  0  0  0  0  0  0  0  0  0  0  0
    7.1158  -15.9681   20.1168 O   0  0  0  0  0  0  0  0  0  0  0  0
    8.7570  -15.3120   21.5489 N   0  0  0  0  0  0  0  0  0  0  0  0
    8.7136  -16.4536   22.4272 C   0  0  1  0  0  0  0  0  0  0  0  0
    9.0902  -17.7506   21.8239 C   0  0  0  0  0  0  0  0  0  0  0  0
   10.3943  -17.7852   21.1160 C   0  0  0  0  0  0  0  0  0  0  0  0
   10.6165  -19.1517   20.5535 C   0  0  0  0  0  0  0  0  0  0  0  0
   11.7784  -19.5446   20.1727 O   0  0  0  0  0  0  0  0  0  0  0  0
    9.3388  -16.1661   23.7582 C   0  0  0  0  0  0  0  0  0  0  0  0
   10.5487  -15.8677   23.8813 O   0  0  0  0  0  0  0  0  0  0  0  0
    9.5982  -20.0839   20.4053 O   0  0  0  0  0  0  0  0  0  0  0  0
    8.5808  -16.2214   24.9615 N   0  0  0  0  0  0  0  0  0  0  0  0
    9.1212  -16.0011   26.2860 C   0  0  1  0  0  0  0  0  0  0  0  0
    8.0876  -15.3835   27.2002 C   0  0  0  0  0  0  0  0  0  0  0  0
    7.6263  -14.0701   26.7520 C   0  0  0  0  0  0  0  0  0  0  0  0
    6.3008  -13.9047   26.3932 C   0  0  0  0  0  0  0  0  0  0  0  0
    5.9000  -12.6509   25.9869 C   0  0  0  0  0  0  0  0  0  0  0  0
    6.7422  -11.5590   25.9195 C   0  0  0  0  0  0  0  0  0  0  0  0
    8.0750  -11.7304   26.2818 C   0  0  0  0  0  0  0  0  0  0  0  0
    8.4854  -12.9797   26.6889 C   0  0  0  0  0  0  0  0  0  0  0  0
    9.6641  -17.2833   26.7884 C   0  0  0  0  0  0  0  0  0  0  0  0
   10.2708  -17.2775   27.9103 O   0  0  0  0  0  0  0  0  0  0  0  0
    9.5621  -18.4956   26.1273 O   0  0  0  0  0  0  0  0  0  0  0  0
  2  1  1  6
  3  2  1  0
  4  3  1  0
  5  6  2  0
  5  2  1  0
  7  5  1  0
  8  7  1  0
  8  9  1  6
 10  9  1  0
 11 10  1  0
 12 11  2  0
 13  8  1  0
 14 13  2  0
 15 11  1  0
 16 13  1  0
 17 18  1  1
 17 16  1  0
 18 19  1  0
 19 24  2  0
 19 20  1  0
 20 21  2  0
 21 22  1  0
 23 22  2  0
 24 23  1  0
 25 17  1  0
 26 25  2  0
 27 25  1  0
M  END
$$$$
