CEF.pdb
     RDKit          3D

 27 27  0  0  1  0  0  0  0  0999 V2000
    6.1657  -15.8694   20.0935 N   0  0  0  0  0  0  0  0  0  0  0  0
    7.1475  -15.0691   20.7816 C   0  0  1  0  0  0  0  0  0  0  0  0
    6.5704  -13.8324   21.4020 C   0  0  0  0  0  0  0  0  0  0  0  0
    7.7500  -12.7458   22.1915 S   0  0  0  0  0  0  0  0  0  0  0  0
    7.8767  -15.9155   21.7461 C   0  0  0  0  0  0  0  0  0  0  0  0
    7.3085  -16.7542   22.4981 O   0  0  0  0  0  0  0  0  0  0  0  0
    9.2851  -15.8181   21.8722 N   0  0  0  0  0  0  0  0  0  0  0  0
   10.0966  -16.6296   22.7438 C   0  0  1  0  0  0  0  0  0  0  0  0
   11.4178  -17.0301   22.2127 C   0  0  0  0  0  0  0  0  0  0  0  0
   12.2460  -17.8822   23.1022 C   0  0  0  0  0  0  0  0  0  0  0  0
   13.5323  -18.2108   22.4163 C   0  0  0  0  0  0  0  0  0  0  0  0
   14.5276  -17.3993   22.4227 O   0  0  0  0  0  0  0  0  0  0  0  0
   10.1069  -16.1120   24.1498 C   0  0  0  0  0  0  0  0  0  0  0  0
   10.7592  -15.0978   24.4873 O   0  0  0  0  0  0  0  0  0  0  0  0
   13.7433  -19.4012   21.7334 O   0  0  0  0  0  0  0  0  0  0  0  0
    9.3699  -16.7562   25.1830 N   0  0  0  0  0  0  0  0  0  0  0  0
    9.4287  -16.3963   26.5837 C   0  0  1  0  0  0  0  0  0  0  0  0
    8.0631  -16.0100   27.1045 C   0  0  0  0  0  0  0  0  0  0  0  0
    7.6715  -14.6458   26.7522 C   0  0  0  0  0  0  0  0  0  0  0  0
    6.4660  -14.4328   26.1085 C   0  0  0  0  0  0  0  0  0  0  0  0
    6.1253  -13.1335   25.8023 C   0  0  0  0  0  0  0  0  0  0  0  0
    6.9149  -12.0412   26.1012 C   0  0  0  0  0  0  0  0  0  0  0  0
    8.1269  -12.2606   26.7491 C   0  0  0  0  0  0  0  0  0  0  0  0
    8.4765  -13.5554   27.0590 C   0  0  0  0  0  0  0  0  0  0  0  0
   10.0507  -17.5146   27.3279 C   0  0  0  0  0  0  0  0  0  0  0  0
   10.2470  -17.3646   28.5792 O   0  0  0  0  0  0  0  0  0  0  0  0
   10.4377  -18.7183   26.7637 O   0  0  0  0  0  0  0  0  0  0  0  0
  2  1  1  1
  3  2  1  0
  4  3  1  0
  5  6  2  0
  5  2  1  0
  7  5  1  0
  8  7  1  0
  8  9  1  6
 10  9  1  0
 11 10  1  0
 12 11  2  0
 13  8  1  0
 14 13  2  0
 15 11  1  0
 16 13  1  0
 17 18  1  1
 17 16  1  0
 18 19  1  0
 19 24  2  0
 19 20  1  0
 20 21  2  0
 21 22  1  0
 23 22  2  0
 24 23  1  0
 25 17  1  0
 26 25  2  0
 27 25  1  0
M  END
$$$$
