CEF.pdb
     RDKit          3D

 27 27  0  0  1  0  0  0  0  0999 V2000
    7.8145  -14.3065   18.0208 N   0  0  0  0  0  0  0  0  0  0  0  0
    8.4188  -13.9410   19.2774 C   0  0  1  0  0  0  0  0  0  0  0  0
    8.0817  -12.5459   19.7103 C   0  0  0  0  0  0  0  0  0  0  0  0
    8.7453  -12.0507   21.2946 S   0  0  0  0  0  0  0  0  0  0  0  0
    8.0858  -14.9594   20.2926 C   0  0  0  0  0  0  0  0  0  0  0  0
    6.9956  -15.5943   20.3037 O   0  0  0  0  0  0  0  0  0  0  0  0
    9.0020  -15.2748   21.3270 N   0  0  0  0  0  0  0  0  0  0  0  0
    8.8631  -16.3727   22.2500 C   0  0  1  0  0  0  0  0  0  0  0  0
    9.2351  -17.7071   21.7311 C   0  0  0  0  0  0  0  0  0  0  0  0
   10.6358  -17.8564   21.2632 C   0  0  0  0  0  0  0  0  0  0  0  0
   10.8360  -19.2388   20.7325 C   0  0  0  0  0  0  0  0  0  0  0  0
   11.8593  -19.9445   21.0552 O   0  0  0  0  0  0  0  0  0  0  0  0
    9.4090  -16.0431   23.6059 C   0  0  0  0  0  0  0  0  0  0  0  0
   10.5579  -15.5734   23.7712 O   0  0  0  0  0  0  0  0  0  0  0  0
    9.9424  -19.8534   19.8655 O   0  0  0  0  0  0  0  0  0  0  0  0
    8.6411  -16.2524   24.7858 N   0  0  0  0  0  0  0  0  0  0  0  0
    9.1056  -15.9811   26.1295 C   0  0  1  0  0  0  0  0  0  0  0  0
    7.9827  -15.4652   27.0003 C   0  0  0  0  0  0  0  0  0  0  0  0
    7.5429  -14.1170   26.6430 C   0  0  0  0  0  0  0  0  0  0  0  0
    8.4604  -13.0820   26.6499 C   0  0  0  0  0  0  0  0  0  0  0  0
    8.0123  -11.8279   26.2971 C   0  0  0  0  0  0  0  0  0  0  0  0
    6.7082  -11.5503   25.9390 C   0  0  0  0  0  0  0  0  0  0  0  0
    5.7888  -12.5952   25.9333 C   0  0  0  0  0  0  0  0  0  0  0  0
    6.2267  -13.8520   26.2848 C   0  0  0  0  0  0  0  0  0  0  0  0
    9.7487  -17.2054   26.6577 C   0  0  0  0  0  0  0  0  0  0  0  0
    9.5586  -18.2994   26.0302 O   0  0  0  0  0  0  0  0  0  0  0  0
   10.5456  -17.2519   27.7890 O   0  0  0  0  0  0  0  0  0  0  0  0
  2  1  1  6
  3  2  1  0
  4  3  1  0
  5  6  2  0
  5  2  1  0
  7  5  1  0
  8  7  1  0
  8  9  1  6
 10  9  1  0
 11 10  1  0
 12 11  2  0
 13  8  1  0
 14 13  2  0
 15 11  1  0
 16 13  1  0
 17 18  1  1
 17 16  1  0
 18 19  1  0
 19 24  2  0
 19 20  1  0
 20 21  2  0
 21 22  1  0
 23 22  2  0
 24 23  1  0
 25 17  1  0
 26 25  2  0
 27 25  1  0
M  END
$$$$
