CEF.pdb
     RDKit          3D

 27 27  0  0  1  0  0  0  0  0999 V2000
    7.5372  -15.6536   17.9978 N   0  0  0  0  0  0  0  0  0  0  0  0
    8.6135  -15.1565   18.8177 C   0  0  1  0  0  0  0  0  0  0  0  0
    8.4752  -13.7023   19.1547 C   0  0  0  0  0  0  0  0  0  0  0  0
    8.3307  -12.5989   17.7557 S   0  0  0  0  0  0  0  0  0  0  0  0
    8.7560  -16.0167   20.0086 C   0  0  0  0  0  0  0  0  0  0  0  0
    7.7726  -16.4691   20.6566 O   0  0  0  0  0  0  0  0  0  0  0  0
   10.0394  -16.3796   20.4882 N   0  0  0  0  0  0  0  0  0  0  0  0
   10.2917  -17.1328   21.6906 C   0  0  1  0  0  0  0  0  0  0  0  0
   11.4803  -18.0131   21.6670 C   0  0  0  0  0  0  0  0  0  0  0  0
   11.7562  -18.7000   20.3804 C   0  0  0  0  0  0  0  0  0  0  0  0
   13.1758  -19.1664   20.3624 C   0  0  0  0  0  0  0  0  0  0  0  0
   14.1144  -18.4537   19.8521 O   0  0  0  0  0  0  0  0  0  0  0  0
   10.1465  -16.2937   22.9234 C   0  0  0  0  0  0  0  0  0  0  0  0
   11.0117  -15.4588   23.2732 O   0  0  0  0  0  0  0  0  0  0  0  0
   13.5785  -20.3859   20.8902 O   0  0  0  0  0  0  0  0  0  0  0  0
    9.0068  -16.4074   23.7684 N   0  0  0  0  0  0  0  0  0  0  0  0
    8.7230  -15.5374   24.8897 C   0  0  1  0  0  0  0  0  0  0  0  0
    7.7682  -14.4340   24.4949 C   0  0  0  0  0  0  0  0  0  0  0  0
    7.4524  -13.5191   25.5913 C   0  0  0  0  0  0  0  0  0  0  0  0
    8.4702  -12.7884   26.1772 C   0  0  0  0  0  0  0  0  0  0  0  0
    8.1335  -11.9286   27.1996 C   0  0  0  0  0  0  0  0  0  0  0  0
    6.8458  -11.7573   27.6669 C   0  0  0  0  0  0  0  0  0  0  0  0
    5.8250  -12.4946   27.0740 C   0  0  0  0  0  0  0  0  0  0  0  0
    6.1514  -13.3568   26.0518 C   0  0  0  0  0  0  0  0  0  0  0  0
    8.2346  -16.3679   26.0136 C   0  0  0  0  0  0  0  0  0  0  0  0
    8.7944  -16.2248   27.1506 O   0  0  0  0  0  0  0  0  0  0  0  0
    7.2095  -17.2941   25.9220 O   0  0  0  0  0  0  0  0  0  0  0  0
  2  1  1  1
  3  2  1  0
  4  3  1  0
  5  6  2  0
  5  2  1  0
  7  5  1  0
  8  7  1  0
  8  9  1  6
 10  9  1  0
 11 10  1  0
 12 11  2  0
 13  8  1  0
 14 13  2  0
 15 11  1  0
 16 13  1  0
 17 18  1  6
 17 16  1  0
 18 19  1  0
 19 24  2  0
 19 20  1  0
 20 21  2  0
 21 22  1  0
 23 22  2  0
 24 23  1  0
 25 17  1  0
 26 25  2  0
 27 25  1  0
M  END
$$$$
