CEF.pdb
     RDKit          3D

 27 27  0  0  1  0  0  0  0  0999 V2000
    7.4587  -14.7954   18.8490 N   0  0  0  0  0  0  0  0  0  0  0  0
    8.3480  -14.4141   19.9174 C   0  0  1  0  0  0  0  0  0  0  0  0
    8.0429  -13.0602   20.4840 C   0  0  0  0  0  0  0  0  0  0  0  0
    7.8025  -11.7595   19.2814 S   0  0  0  0  0  0  0  0  0  0  0  0
    8.3669  -15.4793   20.9390 C   0  0  0  0  0  0  0  0  0  0  0  0
    7.3704  -16.2093   21.1955 O   0  0  0  0  0  0  0  0  0  0  0  0
    9.5377  -15.7330   21.6965 N   0  0  0  0  0  0  0  0  0  0  0  0
    9.6990  -16.8152   22.6343 C   0  0  1  0  0  0  0  0  0  0  0  0
   10.5922  -17.9147   22.2083 C   0  0  0  0  0  0  0  0  0  0  0  0
   11.9607  -17.5178   21.7924 C   0  0  0  0  0  0  0  0  0  0  0  0
   12.4604  -18.4729   20.7575 C   0  0  0  0  0  0  0  0  0  0  0  0
   12.3217  -19.7429   20.8874 O   0  0  0  0  0  0  0  0  0  0  0  0
    9.9189  -16.3228   24.0323 C   0  0  0  0  0  0  0  0  0  0  0  0
   10.8651  -15.5603   24.3346 O   0  0  0  0  0  0  0  0  0  0  0  0
   13.1005  -18.0629   19.5955 O   0  0  0  0  0  0  0  0  0  0  0  0
    9.0555  -16.7039   25.0976 N   0  0  0  0  0  0  0  0  0  0  0  0
    9.2411  -16.3276   26.4827 C   0  0  1  0  0  0  0  0  0  0  0  0
    7.9724  -15.7465   27.0640 C   0  0  0  0  0  0  0  0  0  0  0  0
    7.7125  -14.3729   26.6344 C   0  0  0  0  0  0  0  0  0  0  0  0
    6.7021  -14.1291   25.7219 C   0  0  0  0  0  0  0  0  0  0  0  0
    6.4789  -12.8218   25.3490 C   0  0  0  0  0  0  0  0  0  0  0  0
    7.2025  -11.7503   25.8331 C   0  0  0  0  0  0  0  0  0  0  0  0
    8.2180  -12.0007   26.7513 C   0  0  0  0  0  0  0  0  0  0  0  0
    8.4491  -13.3039   27.1300 C   0  0  0  0  0  0  0  0  0  0  0  0
    9.7452  -17.5059   27.2236 C   0  0  0  0  0  0  0  0  0  0  0  0
    9.6703  -18.6460   26.6567 O   0  0  0  0  0  0  0  0  0  0  0  0
   10.2950  -17.4626   28.4936 O   0  0  0  0  0  0  0  0  0  0  0  0
  2  1  1  6
  3  2  1  0
  4  3  1  0
  5  6  2  0
  5  2  1  0
  7  5  1  0
  8  7  1  0
  8  9  1  6
 10  9  1  0
 11 10  1  0
 12 11  2  0
 13  8  1  0
 14 13  2  0
 15 11  1  0
 16 13  1  0
 17 18  1  1
 17 16  1  0
 18 19  1  0
 19 24  2  0
 19 20  1  0
 20 21  2  0
 21 22  1  0
 23 22  2  0
 24 23  1  0
 25 17  1  0
 26 25  2  0
 27 25  1  0
M  END
$$$$
