CEF.pdb
     RDKit          3D

 27 27  0  0  1  0  0  0  0  0999 V2000
   10.0738  -20.2742   22.8560 N   0  0  0  0  0  0  0  0  0  0  0  0
   11.2160  -19.6815   22.2064 C   0  0  1  0  0  0  0  0  0  0  0  0
   11.3442  -20.0738   20.7652 C   0  0  0  0  0  0  0  0  0  0  0  0
   12.0897  -18.8487   19.6980 S   0  0  0  0  0  0  0  0  0  0  0  0
   11.1875  -18.2198   22.4091 C   0  0  0  0  0  0  0  0  0  0  0  0
   12.2244  -17.5012   22.4093 O   0  0  0  0  0  0  0  0  0  0  0  0
    9.9597  -17.5435   22.6190 N   0  0  0  0  0  0  0  0  0  0  0  0
    9.8105  -16.1149   22.7353 C   0  0  1  0  0  0  0  0  0  0  0  0
    8.6837  -15.5175   21.9860 C   0  0  0  0  0  0  0  0  0  0  0  0
    8.6721  -15.7631   20.5222 C   0  0  0  0  0  0  0  0  0  0  0  0
    7.4862  -16.6012   20.1699 C   0  0  0  0  0  0  0  0  0  0  0  0
    7.2424  -16.9512   18.9586 O   0  0  0  0  0  0  0  0  0  0  0  0
    9.9522  -15.6458   24.1513 C   0  0  0  0  0  0  0  0  0  0  0  0
   10.4860  -14.5521   24.4461 O   0  0  0  0  0  0  0  0  0  0  0  0
    6.5751  -17.0578   21.1130 O   0  0  0  0  0  0  0  0  0  0  0  0
    9.4843  -16.4299   25.2430 N   0  0  0  0  0  0  0  0  0  0  0  0
    9.6800  -16.0987   26.6382 C   0  0  1  0  0  0  0  0  0  0  0  0
    8.3895  -15.6347   27.2742 C   0  0  0  0  0  0  0  0  0  0  0  0
    7.9750  -14.3008   26.8408 C   0  0  0  0  0  0  0  0  0  0  0  0
    8.6690  -13.1950   27.2976 C   0  0  0  0  0  0  0  0  0  0  0  0
    8.2570  -11.9556   26.8593 C   0  0  0  0  0  0  0  0  0  0  0  0
    7.1982  -11.7587   25.9954 C   0  0  0  0  0  0  0  0  0  0  0  0
    6.5032  -12.8746   25.5384 C   0  0  0  0  0  0  0  0  0  0  0  0
    6.9070  -14.1175   25.9709 C   0  0  0  0  0  0  0  0  0  0  0  0
   10.2860  -17.2673   27.3154 C   0  0  0  0  0  0  0  0  0  0  0  0
   10.5404  -17.1711   28.5615 O   0  0  0  0  0  0  0  0  0  0  0  0
   10.5994  -18.4639   26.6933 O   0  0  0  0  0  0  0  0  0  0  0  0
  2  1  1  6
  3  2  1  0
  4  3  1  0
  5  6  2  0
  5  2  1  0
  7  5  1  0
  8  7  1  0
  8  9  1  1
 10  9  1  0
 11 10  1  0
 12 11  2  0
 13  8  1  0
 14 13  2  0
 15 11  1  0
 16 13  1  0
 17 18  1  1
 17 16  1  0
 18 19  1  0
 19 24  2  0
 19 20  1  0
 20 21  2  0
 21 22  1  0
 23 22  2  0
 24 23  1  0
 25 17  1  0
 26 25  2  0
 27 25  1  0
M  END
$$$$
