IQE.pdb
     RDKit          3D

 27 26  0  0  1  0  0  0  0  0999 V2000
    6.4549  -10.9467   27.5460 C   0  0  0  0  0  0  0  0  0  0  0  0
    5.8126  -12.0768   26.8140 C   0  0  0  0  0  0  0  0  0  0  0  0
    6.7886  -13.0396   26.2148 C   0  0  2  0  0  0  0  0  0  0  0  0
    7.7533  -12.2849   25.3491 C   0  0  0  0  0  0  0  0  0  0  0  0
    6.1393  -14.1806   25.4719 C   0  0  2  0  0  0  0  0  0  0  0  0
    5.2437  -14.8851   26.3585 N   0  0  0  0  0  0  0  0  0  0  0  0
    7.0763  -15.1276   24.8701 C   0  0  0  0  0  0  0  0  0  0  0  0
    7.5941  -16.0977   25.4982 O   0  0  0  0  0  0  0  0  0  0  0  0
    8.1637  -15.5442   18.5456 N   0  0  0  0  0  0  0  0  0  0  0  0
    9.0594  -16.4866   19.1017 C   0  0  0  0  0  0  0  0  0  0  0  0
    9.7472  -17.1917   18.3272 O   0  0  0  0  0  0  0  0  0  0  0  0
    9.1776  -16.6324   20.5746 C   0  0  0  0  0  0  0  0  0  0  0  0
    8.2708  -15.6798   21.2938 C   0  0  0  0  0  0  0  0  0  0  0  0
    8.2603  -15.8670   22.7720 C   0  0  2  0  0  0  0  0  0  0  0  0
    7.4351  -14.9611   23.5031 N   0  0  0  0  0  0  0  0  0  0  0  0
    9.6426  -15.8730   23.3227 C   0  0  0  0  0  0  0  0  0  0  0  0
   10.2066  -14.7284   23.3533 O   0  0  0  0  0  0  0  0  0  0  0  0
   10.2897  -17.0380   23.7770 N   0  0  0  0  0  0  0  0  0  0  0  0
   11.6135  -16.9609   24.3414 C   0  0  1  0  0  0  0  0  0  0  0  0
   11.7007  -17.5393   25.7005 C   0  0  0  0  0  0  0  0  0  0  0  0
   10.6958  -18.4865   26.1769 C   0  0  0  0  0  0  0  0  0  0  0  0
   10.7637  -19.0405   27.5181 C   0  0  0  0  0  0  0  0  0  0  0  0
    9.8815  -19.7195   28.0478 O   0  0  0  0  0  0  0  0  0  0  0  0
   12.6027  -17.4589   23.3889 C   0  0  0  0  0  0  0  0  0  0  0  0
   12.2383  -18.0565   22.3580 O   0  0  0  0  0  0  0  0  0  0  0  0
   11.9037  -18.8246   28.3419 O   0  0  0  0  0  0  0  0  0  0  0  0
   13.9464  -17.2655   23.6348 O   0  0  0  0  0  0  0  0  0  0  0  0
  2  1  1  0
  2  3  1  0
  3  4  1  6
  5  3  1  0
  5  6  1  1
  7  5  1  0
  7  8  2  0
  9 10  1  0
 10 12  1  0
 11 10  2  0
 12 13  1  0
 14 13  1  6
 14 15  1  0
 15  7  1  0
 16 14  1  0
 16 18  1  0
 17 16  2  0
 19 18  1  0
 19 24  1  0
 19 20  1  1
 21 20  1  0
 22 23  2  0
 22 21  1  0
 24 25  2  0
 24 27  1  0
 26 22  1  0
M  END
$$$$
