IQE.pdb
     RDKit          3D

 27 26  0  0  1  0  0  0  0  0999 V2000
    6.2070  -11.6849   27.7760 C   0  0  0  0  0  0  0  0  0  0  0  0
    5.7696  -12.9399   27.0984 C   0  0  0  0  0  0  0  0  0  0  0  0
    6.7115  -13.4117   26.0361 C   0  0  2  0  0  0  0  0  0  0  0  0
    6.9488  -12.2970   25.0609 C   0  0  0  0  0  0  0  0  0  0  0  0
    6.2664  -14.6774   25.3467 C   0  0  2  0  0  0  0  0  0  0  0  0
    6.0767  -15.7192   26.3282 N   0  0  0  0  0  0  0  0  0  0  0  0
    7.1697  -15.1511   24.2996 C   0  0  0  0  0  0  0  0  0  0  0  0
    8.0321  -16.0614   24.4757 O   0  0  0  0  0  0  0  0  0  0  0  0
    8.1392  -12.7970   17.9347 N   0  0  0  0  0  0  0  0  0  0  0  0
    7.9351  -14.1772   18.1649 C   0  0  0  0  0  0  0  0  0  0  0  0
    7.3833  -14.8603   17.2711 O   0  0  0  0  0  0  0  0  0  0  0  0
    8.3683  -14.7979   19.4422 C   0  0  0  0  0  0  0  0  0  0  0  0
    7.5666  -14.2849   20.6002 C   0  0  0  0  0  0  0  0  0  0  0  0
    7.8859  -14.9567   21.8912 C   0  0  2  0  0  0  0  0  0  0  0  0
    7.0856  -14.5646   23.0056 N   0  0  0  0  0  0  0  0  0  0  0  0
    9.3320  -14.8319   22.2187 C   0  0  0  0  0  0  0  0  0  0  0  0
    9.5879  -14.0678   23.2085 O   0  0  0  0  0  0  0  0  0  0  0  0
   10.3475  -15.4959   21.5044 N   0  0  0  0  0  0  0  0  0  0  0  0
   11.4464  -16.1106   22.2055 C   0  0  1  0  0  0  0  0  0  0  0  0
   11.0095  -17.0627   23.2505 C   0  0  0  0  0  0  0  0  0  0  0  0
   11.7652  -17.2105   24.4918 C   0  0  0  0  0  0  0  0  0  0  0  0
   11.3964  -18.2095   25.4799 C   0  0  0  0  0  0  0  0  0  0  0  0
   10.4057  -18.9402   25.4104 O   0  0  0  0  0  0  0  0  0  0  0  0
   12.4259  -16.6347   21.2569 C   0  0  0  0  0  0  0  0  0  0  0  0
   12.0499  -17.2128   20.2191 O   0  0  0  0  0  0  0  0  0  0  0  0
   12.1906  -18.4170   26.6423 O   0  0  0  0  0  0  0  0  0  0  0  0
   13.7733  -16.4876   21.5144 O   0  0  0  0  0  0  0  0  0  0  0  0
  2  1  1  0
  2  3  1  0
  3  4  1  6
  5  3  1  0
  5  6  1  1
  7  5  1  0
  7  8  2  0
  9 10  1  0
 10 12  1  0
 11 10  2  0
 12 13  1  0
 14 13  1  6
 14 15  1  0
 15  7  1  0
 16 14  1  0
 16 18  1  0
 17 16  2  0
 19 18  1  0
 19 24  1  0
 19 20  1  6
 21 20  1  0
 22 23  2  0
 22 21  1  0
 24 25  2  0
 24 27  1  0
 26 22  1  0
M  END
$$$$
