IQE.pdb
     RDKit          3D

 27 26  0  0  1  0  0  0  0  0999 V2000
    6.5949  -11.5103   27.7936 C   0  0  0  0  0  0  0  0  0  0  0  0
    5.9444  -12.6269   27.0482 C   0  0  0  0  0  0  0  0  0  0  0  0
    6.8411  -13.2887   26.0500 C   0  0  2  0  0  0  0  0  0  0  0  0
    7.3369  -12.2594   25.0781 C   0  0  0  0  0  0  0  0  0  0  0  0
    6.2081  -14.4653   25.3498 C   0  0  2  0  0  0  0  0  0  0  0  0
    5.7726  -15.4319   26.3299 N   0  0  0  0  0  0  0  0  0  0  0  0
    7.0654  -15.1211   24.3639 C   0  0  0  0  0  0  0  0  0  0  0  0
    7.6664  -16.2157   24.5742 O   0  0  0  0  0  0  0  0  0  0  0  0
    7.8250  -13.0516   18.2999 N   0  0  0  0  0  0  0  0  0  0  0  0
    8.6724  -14.1806   18.3842 C   0  0  0  0  0  0  0  0  0  0  0  0
    9.3278  -14.5170   17.3707 O   0  0  0  0  0  0  0  0  0  0  0  0
    8.7786  -14.9472   19.6513 C   0  0  0  0  0  0  0  0  0  0  0  0
    7.8910  -14.3738   20.7145 C   0  0  0  0  0  0  0  0  0  0  0  0
    8.0126  -15.0641   22.0294 C   0  0  2  0  0  0  0  0  0  0  0  0
    7.2430  -14.5055   23.0932 N   0  0  0  0  0  0  0  0  0  0  0  0
    9.4378  -15.2021   22.4340 C   0  0  0  0  0  0  0  0  0  0  0  0
   10.0711  -14.0982   22.5312 O   0  0  0  0  0  0  0  0  0  0  0  0
   10.0525  -16.4422   22.6922 N   0  0  0  0  0  0  0  0  0  0  0  0
   11.4186  -16.4953   23.1482 C   0  0  1  0  0  0  0  0  0  0  0  0
   11.6886  -17.6422   24.0433 C   0  0  0  0  0  0  0  0  0  0  0  0
   10.8922  -17.8543   25.2493 C   0  0  0  0  0  0  0  0  0  0  0  0
   11.1532  -18.9780   26.1322 C   0  0  0  0  0  0  0  0  0  0  0  0
   11.1324  -20.1631   25.7929 O   0  0  0  0  0  0  0  0  0  0  0  0
   12.3372  -16.3563   22.0209 C   0  0  0  0  0  0  0  0  0  0  0  0
   11.9392  -16.5545   20.8569 O   0  0  0  0  0  0  0  0  0  0  0  0
   11.4631  -18.7726   27.5059 O   0  0  0  0  0  0  0  0  0  0  0  0
   13.6514  -16.0042   22.2495 O   0  0  0  0  0  0  0  0  0  0  0  0
  2  1  1  0
  2  3  1  0
  3  4  1  6
  5  3  1  0
  5  6  1  1
  7  5  1  0
  7  8  2  0
  9 10  1  0
 10 12  1  0
 11 10  2  0
 12 13  1  0
 14 13  1  6
 14 15  1  0
 15  7  1  0
 16 14  1  0
 16 18  1  0
 17 16  2  0
 19 18  1  0
 19 24  1  0
 19 20  1  6
 21 20  1  0
 22 23  2  0
 22 21  1  0
 24 25  2  0
 24 27  1  0
 26 22  1  0
M  END
$$$$
