IQE.pdb
     RDKit          3D

 27 26  0  0  1  0  0  0  0  0999 V2000
    8.0274  -11.5120   18.8859 C   0  0  0  0  0  0  0  0  0  0  0  0
    7.6829  -12.9634   18.8823 C   0  0  0  0  0  0  0  0  0  0  0  0
    8.5054  -13.7810   19.8276 C   0  0  2  0  0  0  0  0  0  0  0  0
    9.9564  -13.6125   19.4868 C   0  0  0  0  0  0  0  0  0  0  0  0
    8.1050  -15.2343   19.8819 C   0  0  2  0  0  0  0  0  0  0  0  0
    6.6767  -15.3337   20.0685 N   0  0  0  0  0  0  0  0  0  0  0  0
    8.7879  -16.0165   20.9108 C   0  0  0  0  0  0  0  0  0  0  0  0
    8.5338  -15.9227   22.1478 O   0  0  0  0  0  0  0  0  0  0  0  0
    9.7193  -21.6494   20.3067 N   0  0  0  0  0  0  0  0  0  0  0  0
    8.6798  -20.9126   20.9201 C   0  0  0  0  0  0  0  0  0  0  0  0
    7.5172  -21.3793   20.8960 O   0  0  0  0  0  0  0  0  0  0  0  0
    8.9674  -19.6129   21.5779 C   0  0  0  0  0  0  0  0  0  0  0  0
   10.3858  -19.1854   21.3496 C   0  0  0  0  0  0  0  0  0  0  0  0
   10.5831  -17.7102   21.4200 C   0  0  2  0  0  0  0  0  0  0  0  0
    9.7967  -16.9383   20.5135 N   0  0  0  0  0  0  0  0  0  0  0  0
   12.0224  -17.3540   21.2949 C   0  0  0  0  0  0  0  0  0  0  0  0
   12.4142  -17.1404   20.0991 O   0  0  0  0  0  0  0  0  0  0  0  0
   12.8942  -17.2565   22.3962 N   0  0  0  0  0  0  0  0  0  0  0  0
   14.2430  -16.7822   22.2156 C   0  0  1  0  0  0  0  0  0  0  0  0
   14.3159  -15.5078   21.4673 C   0  0  0  0  0  0  0  0  0  0  0  0
   14.8128  -15.4735   20.0940 C   0  0  0  0  0  0  0  0  0  0  0  0
   14.9378  -14.2185   19.3731 C   0  0  0  0  0  0  0  0  0  0  0  0
   14.1782  -13.8381   18.4795 O   0  0  0  0  0  0  0  0  0  0  0  0
   14.9629  -16.7992   23.4866 C   0  0  0  0  0  0  0  0  0  0  0  0
   14.3522  -17.0062   24.5529 O   0  0  0  0  0  0  0  0  0  0  0  0
   15.9920  -13.3085   19.6657 O   0  0  0  0  0  0  0  0  0  0  0  0
   16.3256  -16.5842   23.5033 O   0  0  0  0  0  0  0  0  0  0  0  0
  2  1  1  0
  2  3  1  0
  3  4  1  6
  5  3  1  0
  5  6  1  1
  7  5  1  0
  7  8  2  0
  9 10  1  0
 10 12  1  0
 11 10  2  0
 12 13  1  0
 14 13  1  6
 14 15  1  0
 15  7  1  0
 16 14  1  0
 16 18  1  0
 17 16  2  0
 19 18  1  0
 19 24  1  0
 19 20  1  1
 21 20  1  0
 22 23  2  0
 22 21  1  0
 24 25  2  0
 24 27  1  0
 26 22  1  0
M  END
$$$$
