IQE.pdb
     RDKit          3D

 27 26  0  0  1  0  0  0  0  0999 V2000
    6.2649  -11.7127   27.8198 C   0  0  0  0  0  0  0  0  0  0  0  0
    5.8070  -12.9150   27.0645 C   0  0  0  0  0  0  0  0  0  0  0  0
    6.8051  -13.4192   26.0706 C   0  0  2  0  0  0  0  0  0  0  0  0
    7.1710  -12.3055   25.1349 C   0  0  0  0  0  0  0  0  0  0  0  0
    6.3549  -14.6529   25.3286 C   0  0  2  0  0  0  0  0  0  0  0  0
    6.1021  -15.7167   26.2714 N   0  0  0  0  0  0  0  0  0  0  0  0
    7.2850  -15.1203   24.3022 C   0  0  0  0  0  0  0  0  0  0  0  0
    8.1371  -16.0373   24.4926 O   0  0  0  0  0  0  0  0  0  0  0  0
    7.5014  -12.8047   18.2738 N   0  0  0  0  0  0  0  0  0  0  0  0
    8.3860  -13.9078   18.2528 C   0  0  0  0  0  0  0  0  0  0  0  0
    8.9545  -14.2017   17.1755 O   0  0  0  0  0  0  0  0  0  0  0  0
    8.6317  -14.6973   19.4860 C   0  0  0  0  0  0  0  0  0  0  0  0
    7.7910  -14.2077   20.6264 C   0  0  0  0  0  0  0  0  0  0  0  0
    8.0277  -14.9428   21.9007 C   0  0  2  0  0  0  0  0  0  0  0  0
    7.2408  -14.5192   23.0130 N   0  0  0  0  0  0  0  0  0  0  0  0
    9.4725  -14.9492   22.2568 C   0  0  0  0  0  0  0  0  0  0  0  0
    9.8231  -14.0284   23.0681 O   0  0  0  0  0  0  0  0  0  0  0  0
   10.3907  -15.8878   21.7487 N   0  0  0  0  0  0  0  0  0  0  0  0
   11.4479  -16.3968   22.5855 C   0  0  1  0  0  0  0  0  0  0  0  0
   10.9611  -16.9315   23.8765 C   0  0  0  0  0  0  0  0  0  0  0  0
   11.8758  -17.5872   24.8078 C   0  0  0  0  0  0  0  0  0  0  0  0
   11.3961  -18.1522   26.0572 C   0  0  0  0  0  0  0  0  0  0  0  0
   11.4372  -19.3482   26.3539 O   0  0  0  0  0  0  0  0  0  0  0  0
   12.3102  -17.2977   21.8247 C   0  0  0  0  0  0  0  0  0  0  0  0
   13.4205  -17.6371   22.2770 O   0  0  0  0  0  0  0  0  0  0  0  0
   10.8228  -17.3239   27.0623 O   0  0  0  0  0  0  0  0  0  0  0  0
   11.8906  -17.7729   20.5993 O   0  0  0  0  0  0  0  0  0  0  0  0
  2  1  1  0
  2  3  1  0
  3  4  1  6
  5  3  1  0
  5  6  1  1
  7  5  1  0
  7  8  2  0
  9 10  1  0
 10 12  1  0
 11 10  2  0
 12 13  1  0
 14 13  1  6
 14 15  1  0
 15  7  1  0
 16 14  1  0
 16 18  1  0
 17 16  2  0
 19 18  1  0
 19 24  1  0
 19 20  1  1
 21 20  1  0
 22 23  2  0
 22 21  1  0
 24 25  2  0
 24 27  1  0
 26 22  1  0
M  END
$$$$
