IQE.pdb
     RDKit          3D

 27 26  0  0  1  0  0  0  0  0999 V2000
    6.5529  -11.7972   28.0542 C   0  0  0  0  0  0  0  0  0  0  0  0
    5.9116  -12.7950   27.1494 C   0  0  0  0  0  0  0  0  0  0  0  0
    6.8480  -13.3863   26.1434 C   0  0  2  0  0  0  0  0  0  0  0  0
    7.4900  -12.2793   25.3610 C   0  0  0  0  0  0  0  0  0  0  0  0
    6.2052  -14.4123   25.2436 C   0  0  2  0  0  0  0  0  0  0  0  0
    5.7212  -15.5154   26.0395 N   0  0  0  0  0  0  0  0  0  0  0  0
    7.0718  -14.9195   24.1812 C   0  0  0  0  0  0  0  0  0  0  0  0
    7.7371  -15.9932   24.2708 O   0  0  0  0  0  0  0  0  0  0  0  0
    7.8736  -13.4036   17.4526 N   0  0  0  0  0  0  0  0  0  0  0  0
    8.2905  -14.3788   18.3879 C   0  0  0  0  0  0  0  0  0  0  0  0
    8.0661  -15.5859   18.1380 O   0  0  0  0  0  0  0  0  0  0  0  0
    8.9799  -13.9734   19.6390 C   0  0  0  0  0  0  0  0  0  0  0  0
    7.9984  -13.6111   20.7125 C   0  0  0  0  0  0  0  0  0  0  0  0
    8.0114  -14.5456   21.8729 C   0  0  2  0  0  0  0  0  0  0  0  0
    7.1832  -14.1743   22.9739 N   0  0  0  0  0  0  0  0  0  0  0  0
    9.4013  -14.8117   22.3329 C   0  0  0  0  0  0  0  0  0  0  0  0
    9.9926  -13.8035   22.8457 O   0  0  0  0  0  0  0  0  0  0  0  0
   10.0273  -16.0676   22.2188 N   0  0  0  0  0  0  0  0  0  0  0  0
   11.4120  -16.2255   22.5856 C   0  0  1  0  0  0  0  0  0  0  0  0
   11.6289  -17.2850   23.5954 C   0  0  0  0  0  0  0  0  0  0  0  0
   10.6298  -17.5517   24.6271 C   0  0  0  0  0  0  0  0  0  0  0  0
   10.8233  -18.6108   25.6024 C   0  0  0  0  0  0  0  0  0  0  0  0
   10.3083  -19.7294   25.5425 O   0  0  0  0  0  0  0  0  0  0  0  0
   12.2468  -16.3246   21.3909 C   0  0  0  0  0  0  0  0  0  0  0  0
   11.7237  -16.4060   20.2629 O   0  0  0  0  0  0  0  0  0  0  0  0
   11.6566  -18.4152   26.7392 O   0  0  0  0  0  0  0  0  0  0  0  0
   13.6208  -16.3282   21.5154 O   0  0  0  0  0  0  0  0  0  0  0  0
  2  1  1  0
  2  3  1  0
  3  4  1  6
  5  3  1  0
  5  6  1  1
  7  5  1  0
  7  8  2  0
  9 10  1  0
 10 12  1  0
 11 10  2  0
 12 13  1  0
 14 13  1  6
 14 15  1  0
 15  7  1  0
 16 14  1  0
 16 18  1  0
 17 16  2  0
 19 18  1  0
 19 24  1  0
 19 20  1  1
 21 20  1  0
 22 23  2  0
 22 21  1  0
 24 25  2  0
 24 27  1  0
 26 22  1  0
M  END
$$$$
