IQE.pdb
     RDKit          3D

 27 26  0  0  1  0  0  0  0  0999 V2000
    7.6425  -11.8184   19.4305 C   0  0  0  0  0  0  0  0  0  0  0  0
    7.5158  -13.0230   20.3014 C   0  0  0  0  0  0  0  0  0  0  0  0
    8.3713  -14.1720   19.8699 C   0  0  2  0  0  0  0  0  0  0  0  0
    8.0496  -14.5152   18.4456 C   0  0  0  0  0  0  0  0  0  0  0  0
    8.2751  -15.3754   20.7744 C   0  0  2  0  0  0  0  0  0  0  0  0
    6.9648  -15.9687   20.6491 N   0  0  0  0  0  0  0  0  0  0  0  0
    8.5556  -15.1030   22.1830 C   0  0  0  0  0  0  0  0  0  0  0  0
    9.6864  -14.7303   22.6140 O   0  0  0  0  0  0  0  0  0  0  0  0
    6.9033  -12.0238   26.1933 N   0  0  0  0  0  0  0  0  0  0  0  0
    6.9773  -13.0870   27.1228 C   0  0  0  0  0  0  0  0  0  0  0  0
    7.3807  -12.8432   28.2838 O   0  0  0  0  0  0  0  0  0  0  0  0
    6.5834  -14.4620   26.7243 C   0  0  0  0  0  0  0  0  0  0  0  0
    6.4172  -14.5753   25.2388 C   0  0  0  0  0  0  0  0  0  0  0  0
    7.6495  -15.0265   24.5333 C   0  0  2  0  0  0  0  0  0  0  0  0
    7.5080  -15.2619   23.1331 N   0  0  0  0  0  0  0  0  0  0  0  0
    8.2483  -16.2126   25.2032 C   0  0  0  0  0  0  0  0  0  0  0  0
    7.4498  -17.1972   25.3524 O   0  0  0  0  0  0  0  0  0  0  0  0
    9.5851  -16.2607   25.6425 N   0  0  0  0  0  0  0  0  0  0  0  0
   10.1736  -17.5134   26.0441 C   0  0  1  0  0  0  0  0  0  0  0  0
   11.4114  -17.8389   25.3016 C   0  0  0  0  0  0  0  0  0  0  0  0
   12.3474  -16.7881   24.9097 C   0  0  0  0  0  0  0  0  0  0  0  0
   13.5344  -17.0939   24.1301 C   0  0  0  0  0  0  0  0  0  0  0  0
   13.8421  -18.2158   23.7217 O   0  0  0  0  0  0  0  0  0  0  0  0
   10.2854  -17.5799   27.4991 C   0  0  0  0  0  0  0  0  0  0  0  0
   10.6886  -18.6211   28.0522 O   0  0  0  0  0  0  0  0  0  0  0  0
   14.4583  -16.0723   23.7727 O   0  0  0  0  0  0  0  0  0  0  0  0
    9.9415  -16.4830   28.2619 O   0  0  0  0  0  0  0  0  0  0  0  0
  2  1  1  0
  2  3  1  0
  3  4  1  6
  5  3  1  0
  5  6  1  1
  7  5  1  0
  7  8  2  0
  9 10  1  0
 10 12  1  0
 11 10  2  0
 12 13  1  0
 14 13  1  1
 14 15  1  0
 15  7  1  0
 16 14  1  0
 16 18  1  0
 17 16  2  0
 19 18  1  0
 19 24  1  0
 19 20  1  6
 21 20  1  0
 22 23  2  0
 22 21  1  0
 24 25  2  0
 24 27  1  0
 26 22  1  0
M  END
$$$$
