IQE.pdb
     RDKit          3D

 27 26  0  0  1  0  0  0  0  0999 V2000
    6.6915  -11.7837   27.9897 C   0  0  0  0  0  0  0  0  0  0  0  0
    5.9965  -12.8546   27.2179 C   0  0  0  0  0  0  0  0  0  0  0  0
    6.8382  -13.4661   26.1427 C   0  0  2  0  0  0  0  0  0  0  0  0
    7.2989  -12.3877   25.2076 C   0  0  0  0  0  0  0  0  0  0  0  0
    6.1604  -14.5962   25.4085 C   0  0  2  0  0  0  0  0  0  0  0  0
    5.7515  -15.6080   26.3537 N   0  0  0  0  0  0  0  0  0  0  0  0
    6.9674  -15.2091   24.3549 C   0  0  0  0  0  0  0  0  0  0  0  0
    7.5336  -16.3359   24.4705 O   0  0  0  0  0  0  0  0  0  0  0  0
    7.3154  -13.0349   18.3055 N   0  0  0  0  0  0  0  0  0  0  0  0
    8.2574  -14.0890   18.3416 C   0  0  0  0  0  0  0  0  0  0  0  0
    8.8288  -14.4210   17.2770 O   0  0  0  0  0  0  0  0  0  0  0  0
    8.5586  -14.7840   19.6187 C   0  0  0  0  0  0  0  0  0  0  0  0
    7.7276  -14.2460   20.7442 C   0  0  0  0  0  0  0  0  0  0  0  0
    7.8892  -15.0006   22.0188 C   0  0  2  0  0  0  0  0  0  0  0  0
    7.1341  -14.5110   23.1261 N   0  0  0  0  0  0  0  0  0  0  0  0
    9.3250  -15.1343   22.3857 C   0  0  0  0  0  0  0  0  0  0  0  0
    9.8257  -14.1065   22.9531 O   0  0  0  0  0  0  0  0  0  0  0  0
   10.0835  -16.2936   22.1341 N   0  0  0  0  0  0  0  0  0  0  0  0
   11.3845  -16.4550   22.7327 C   0  0  1  0  0  0  0  0  0  0  0  0
   11.4215  -17.5126   23.7669 C   0  0  0  0  0  0  0  0  0  0  0  0
   12.6633  -17.8322   24.4666 C   0  0  0  0  0  0  0  0  0  0  0  0
   12.7212  -18.9131   25.4355 C   0  0  0  0  0  0  0  0  0  0  0  0
   13.7548  -19.3492   25.9469 O   0  0  0  0  0  0  0  0  0  0  0  0
   12.4110  -16.5600   21.6986 C   0  0  0  0  0  0  0  0  0  0  0  0
   12.1240  -17.0032   20.5700 O   0  0  0  0  0  0  0  0  0  0  0  0
   11.5356  -19.5659   25.8750 O   0  0  0  0  0  0  0  0  0  0  0  0
   13.7037  -16.1662   21.9763 O   0  0  0  0  0  0  0  0  0  0  0  0
  2  1  1  0
  2  3  1  0
  3  4  1  6
  5  3  1  0
  5  6  1  1
  7  5  1  0
  7  8  2  0
  9 10  1  0
 10 12  1  0
 11 10  2  0
 12 13  1  0
 14 13  1  6
 14 15  1  0
 15  7  1  0
 16 14  1  0
 16 18  1  0
 17 16  2  0
 19 18  1  0
 19 24  1  0
 19 20  1  6
 21 20  1  0
 22 23  2  0
 22 21  1  0
 24 25  2  0
 24 27  1  0
 26 22  1  0
M  END
$$$$
