IQE.pdb
     RDKit          3D

 27 26  0  0  1  0  0  0  0  0999 V2000
    7.5448  -12.4300   19.1575 C   0  0  0  0  0  0  0  0  0  0  0  0
    6.9537  -13.6580   19.7643 C   0  0  0  0  0  0  0  0  0  0  0  0
    7.7098  -14.1687   20.9500 C   0  0  2  0  0  0  0  0  0  0  0  0
    9.1434  -14.3806   20.5634 C   0  0  0  0  0  0  0  0  0  0  0  0
    7.1057  -15.4037   21.5708 C   0  0  2  0  0  0  0  0  0  0  0  0
    5.6863  -15.2081   21.7492 N   0  0  0  0  0  0  0  0  0  0  0  0
    7.7074  -15.8036   22.8416 C   0  0  0  0  0  0  0  0  0  0  0  0
    7.5163  -15.1898   23.9325 O   0  0  0  0  0  0  0  0  0  0  0  0
    7.7477  -20.6153   26.3374 N   0  0  0  0  0  0  0  0  0  0  0  0
    7.0550  -19.3850   26.4161 C   0  0  0  0  0  0  0  0  0  0  0  0
    6.0493  -19.3080   27.1595 O   0  0  0  0  0  0  0  0  0  0  0  0
    7.5156  -18.2120   25.6310 C   0  0  0  0  0  0  0  0  0  0  0  0
    8.6503  -18.5736   24.7207 C   0  0  0  0  0  0  0  0  0  0  0  0
    9.2544  -17.4021   24.0259 C   0  0  2  0  0  0  0  0  0  0  0  0
    8.5577  -16.9445   22.8678 N   0  0  0  0  0  0  0  0  0  0  0  0
   10.6878  -17.6456   23.7093 C   0  0  0  0  0  0  0  0  0  0  0  0
   10.8893  -18.3089   22.6376 O   0  0  0  0  0  0  0  0  0  0  0  0
   11.7472  -17.1882   24.5160 N   0  0  0  0  0  0  0  0  0  0  0  0
   13.1137  -17.4220   24.1225 C   0  0  1  0  0  0  0  0  0  0  0  0
   13.7361  -16.2541   23.4606 C   0  0  0  0  0  0  0  0  0  0  0  0
   15.1411  -16.2807   23.0614 C   0  0  0  0  0  0  0  0  0  0  0  0
   15.7423  -15.1600   22.3594 C   0  0  0  0  0  0  0  0  0  0  0  0
   16.8533  -14.6856   22.6057 O   0  0  0  0  0  0  0  0  0  0  0  0
   13.8746  -17.9848   25.2353 C   0  0  0  0  0  0  0  0  0  0  0  0
   13.4087  -17.9631   26.3908 O   0  0  0  0  0  0  0  0  0  0  0  0
   15.0562  -14.5099   21.2956 O   0  0  0  0  0  0  0  0  0  0  0  0
   15.1150  -18.5422   25.0026 O   0  0  0  0  0  0  0  0  0  0  0  0
  2  1  1  0
  2  3  1  0
  3  4  1  6
  5  3  1  0
  5  6  1  1
  7  5  1  0
  7  8  2  0
  9 10  1  0
 10 12  1  0
 11 10  2  0
 12 13  1  0
 14 13  1  6
 14 15  1  0
 15  7  1  0
 16 14  1  0
 16 18  1  0
 17 16  2  0
 19 18  1  0
 19 24  1  0
 19 20  1  1
 21 20  1  0
 22 23  2  0
 22 21  1  0
 24 25  2  0
 24 27  1  0
 26 22  1  0
M  END
$$$$
