IQE.pdb
     RDKit          3D

 27 26  0  0  1  0  0  0  0  0999 V2000
    8.2529  -11.8950   27.2036 C   0  0  0  0  0  0  0  0  0  0  0  0
    7.8738  -13.2748   26.7818 C   0  0  0  0  0  0  0  0  0  0  0  0
    6.6027  -13.3373   25.9952 C   0  0  2  0  0  0  0  0  0  0  0  0
    5.4891  -12.7576   26.8161 C   0  0  0  0  0  0  0  0  0  0  0  0
    6.2683  -14.7180   25.4881 C   0  0  2  0  0  0  0  0  0  0  0  0
    6.2713  -15.6500   26.5908 N   0  0  0  0  0  0  0  0  0  0  0  0
    7.1504  -15.2091   24.4309 C   0  0  0  0  0  0  0  0  0  0  0  0
    7.8929  -16.2275   24.5531 O   0  0  0  0  0  0  0  0  0  0  0  0
    7.8154  -12.4570   18.5868 N   0  0  0  0  0  0  0  0  0  0  0  0
    8.3457  -13.7618   18.4604 C   0  0  0  0  0  0  0  0  0  0  0  0
    8.6198  -14.1907   17.3155 O   0  0  0  0  0  0  0  0  0  0  0  0
    8.5707  -14.6011   19.6644 C   0  0  0  0  0  0  0  0  0  0  0  0
    7.8544  -14.0479   20.8594 C   0  0  0  0  0  0  0  0  0  0  0  0
    8.0160  -14.8756   22.0877 C   0  0  2  0  0  0  0  0  0  0  0  0
    7.1862  -14.5127   23.1903 N   0  0  0  0  0  0  0  0  0  0  0  0
    9.4420  -14.9405   22.5081 C   0  0  0  0  0  0  0  0  0  0  0  0
    9.7560  -14.1336   23.4459 O   0  0  0  0  0  0  0  0  0  0  0  0
   10.3807  -15.8152   21.9284 N   0  0  0  0  0  0  0  0  0  0  0  0
   11.4679  -16.3399   22.7156 C   0  0  1  0  0  0  0  0  0  0  0  0
   11.0178  -17.0060   23.9578 C   0  0  0  0  0  0  0  0  0  0  0  0
   11.9563  -17.7597   24.7855 C   0  0  0  0  0  0  0  0  0  0  0  0
   11.5061  -18.4781   25.9651 C   0  0  0  0  0  0  0  0  0  0  0  0
   12.2457  -18.9370   26.8383 O   0  0  0  0  0  0  0  0  0  0  0  0
   12.3683  -17.1285   21.8782 C   0  0  0  0  0  0  0  0  0  0  0  0
   12.0233  -17.4686   20.7301 O   0  0  0  0  0  0  0  0  0  0  0  0
   10.1211  -18.7082   26.1974 O   0  0  0  0  0  0  0  0  0  0  0  0
   13.6059  -17.4975   22.3637 O   0  0  0  0  0  0  0  0  0  0  0  0
  2  1  1  0
  2  3  1  0
  3  4  1  1
  5  3  1  0
  5  6  1  1
  7  5  1  0
  7  8  2  0
  9 10  1  0
 10 12  1  0
 11 10  2  0
 12 13  1  0
 14 13  1  6
 14 15  1  0
 15  7  1  0
 16 14  1  0
 16 18  1  0
 17 16  2  0
 19 18  1  0
 19 24  1  0
 19 20  1  1
 21 20  1  0
 22 23  2  0
 22 21  1  0
 24 25  2  0
 24 27  1  0
 26 22  1  0
M  END
$$$$
