IQE.pdb
     RDKit          3D

 27 26  0  0  1  0  0  0  0  0999 V2000
    5.8185  -10.8535   26.5964 C   0  0  0  0  0  0  0  0  0  0  0  0
    7.0519  -11.6313   26.2814 C   0  0  0  0  0  0  0  0  0  0  0  0
    6.7859  -13.0486   25.8829 C   0  0  2  0  0  0  0  0  0  0  0  0
    5.9108  -13.6927   26.9170 C   0  0  0  0  0  0  0  0  0  0  0  0
    8.0357  -13.8524   25.6234 C   0  0  2  0  0  0  0  0  0  0  0  0
    8.8628  -13.1604   24.6635 N   0  0  0  0  0  0  0  0  0  0  0  0
    7.7967  -15.2202   25.1664 C   0  0  0  0  0  0  0  0  0  0  0  0
    7.1499  -16.0802   25.8339 O   0  0  0  0  0  0  0  0  0  0  0  0
    9.3604  -17.3382   19.1645 N   0  0  0  0  0  0  0  0  0  0  0  0
    9.7321  -16.4880   20.2316 C   0  0  0  0  0  0  0  0  0  0  0  0
   10.9474  -16.2361   20.4040 O   0  0  0  0  0  0  0  0  0  0  0  0
    8.6980  -15.9089   21.1259 C   0  0  0  0  0  0  0  0  0  0  0  0
    7.9578  -16.9780   21.8716 C   0  0  0  0  0  0  0  0  0  0  0  0
    8.1601  -16.9256   23.3469 C   0  0  2  0  0  0  0  0  0  0  0  0
    8.3146  -15.6205   23.9027 N   0  0  0  0  0  0  0  0  0  0  0  0
    9.2828  -17.8071   23.7670 C   0  0  0  0  0  0  0  0  0  0  0  0
    9.3265  -18.9330   23.1671 O   0  0  0  0  0  0  0  0  0  0  0  0
   10.2281  -17.4436   24.7450 N   0  0  0  0  0  0  0  0  0  0  0  0
   11.2822  -18.3556   25.1114 C   0  0  1  0  0  0  0  0  0  0  0  0
   12.5328  -18.1339   24.3523 C   0  0  0  0  0  0  0  0  0  0  0  0
   13.1042  -16.7956   24.2253 C   0  0  0  0  0  0  0  0  0  0  0  0
   14.3584  -16.5791   23.5250 C   0  0  0  0  0  0  0  0  0  0  0  0
   14.5004  -16.6191   22.3009 O   0  0  0  0  0  0  0  0  0  0  0  0
   11.4354  -18.3993   26.5635 C   0  0  0  0  0  0  0  0  0  0  0  0
   10.7978  -17.6107   27.2874 O   0  0  0  0  0  0  0  0  0  0  0  0
   15.5557  -16.2946   24.2395 O   0  0  0  0  0  0  0  0  0  0  0  0
   12.2914  -19.3192   27.1331 O   0  0  0  0  0  0  0  0  0  0  0  0
  2  1  1  0
  2  3  1  0
  3  4  1  1
  5  3  1  0
  5  6  1  6
  7  5  1  0
  7  8  2  0
  9 10  1  0
 10 12  1  0
 11 10  2  0
 12 13  1  0
 14 13  1  6
 14 15  1  0
 15  7  1  0
 16 14  1  0
 16 18  1  0
 17 16  2  0
 19 18  1  0
 19 24  1  0
 19 20  1  6
 21 20  1  0
 22 23  2  0
 22 21  1  0
 24 25  2  0
 24 27  1  0
 26 22  1  0
M  END
$$$$
