IQE.pdb
     RDKit          3D

 27 26  0  0  1  0  0  0  0  0999 V2000
    6.1125  -11.4011   27.1381 C   0  0  0  0  0  0  0  0  0  0  0  0
    5.6709  -12.6469   26.4465 C   0  0  0  0  0  0  0  0  0  0  0  0
    6.7808  -13.3860   25.7681 C   0  0  2  0  0  0  0  0  0  0  0  0
    7.4959  -12.4512   24.8382 C   0  0  0  0  0  0  0  0  0  0  0  0
    6.3342  -14.6449   25.0672 C   0  0  2  0  0  0  0  0  0  0  0  0
    5.6151  -15.4842   25.9962 N   0  0  0  0  0  0  0  0  0  0  0  0
    7.4128  -15.4133   24.4483 C   0  0  0  0  0  0  0  0  0  0  0  0
    8.1801  -16.1889   25.0911 O   0  0  0  0  0  0  0  0  0  0  0  0
    7.9466  -17.8970   19.1552 N   0  0  0  0  0  0  0  0  0  0  0  0
    9.3172  -17.5651   19.2599 C   0  0  0  0  0  0  0  0  0  0  0  0
   10.1487  -18.2296   18.5989 O   0  0  0  0  0  0  0  0  0  0  0  0
    9.7552  -16.4502   20.1374 C   0  0  0  0  0  0  0  0  0  0  0  0
    8.5917  -15.8134   20.8358 C   0  0  0  0  0  0  0  0  0  0  0  0
    8.5705  -16.0595   22.3052 C   0  0  2  0  0  0  0  0  0  0  0  0
    7.6231  -15.2916   23.0461 N   0  0  0  0  0  0  0  0  0  0  0  0
    9.9299  -15.9180   22.8934 C   0  0  0  0  0  0  0  0  0  0  0  0
   10.4365  -14.7515   22.7843 O   0  0  0  0  0  0  0  0  0  0  0  0
   10.6151  -16.9750   23.5223 N   0  0  0  0  0  0  0  0  0  0  0  0
   11.9112  -16.7523   24.1117 C   0  0  1  0  0  0  0  0  0  0  0  0
   11.9841  -17.1676   25.5300 C   0  0  0  0  0  0  0  0  0  0  0  0
   11.3198  -18.3851   25.9886 C   0  0  0  0  0  0  0  0  0  0  0  0
   11.3935  -18.8014   27.3784 C   0  0  0  0  0  0  0  0  0  0  0  0
   12.0795  -18.2545   28.2447 O   0  0  0  0  0  0  0  0  0  0  0  0
   12.9611  -17.2914   23.2510 C   0  0  0  0  0  0  0  0  0  0  0  0
   12.6687  -18.0171   22.2811 O   0  0  0  0  0  0  0  0  0  0  0  0
   10.6452  -19.9167   27.8488 O   0  0  0  0  0  0  0  0  0  0  0  0
   14.2821  -16.9943   23.5160 O   0  0  0  0  0  0  0  0  0  0  0  0
  2  1  1  0
  2  3  1  0
  3  4  1  6
  5  3  1  0
  5  6  1  1
  7  5  1  0
  7  8  2  0
  9 10  1  0
 10 12  1  0
 11 10  2  0
 12 13  1  0
 14 13  1  6
 14 15  1  0
 15  7  1  0
 16 14  1  0
 16 18  1  0
 17 16  2  0
 19 18  1  0
 19 24  1  0
 19 20  1  1
 21 20  1  0
 22 23  2  0
 22 21  1  0
 24 25  2  0
 24 27  1  0
 26 22  1  0
M  END
$$$$
