IQE.pdb
     RDKit          3D

 27 26  0  0  1  0  0  0  0  0999 V2000
    6.5007  -12.3302   20.1909 C   0  0  0  0  0  0  0  0  0  0  0  0
    7.1126  -13.2369   19.1765 C   0  0  0  0  0  0  0  0  0  0  0  0
    8.4982  -13.6822   19.5233 C   0  0  2  0  0  0  0  0  0  0  0  0
    9.3821  -12.4775   19.6542 C   0  0  0  0  0  0  0  0  0  0  0  0
    9.0687  -14.6975   18.5645 C   0  0  2  0  0  0  0  0  0  0  0  0
    8.1260  -15.7767   18.3886 N   0  0  0  0  0  0  0  0  0  0  0  0
   10.3677  -15.2421   18.9554 C   0  0  0  0  0  0  0  0  0  0  0  0
   10.5089  -16.3014   19.6348 O   0  0  0  0  0  0  0  0  0  0  0  0
   17.2139  -13.5763   18.8364 N   0  0  0  0  0  0  0  0  0  0  0  0
   16.3443  -14.0565   17.8300 C   0  0  0  0  0  0  0  0  0  0  0  0
   16.4838  -13.6284   16.6607 O   0  0  0  0  0  0  0  0  0  0  0  0
   15.2893  -15.0481   18.1593 C   0  0  0  0  0  0  0  0  0  0  0  0
   13.9206  -14.5056   17.8777 C   0  0  0  0  0  0  0  0  0  0  0  0
   12.8733  -15.0176   18.8057 C   0  0  2  0  0  0  0  0  0  0  0  0
   11.5474  -14.5529   18.5569 N   0  0  0  0  0  0  0  0  0  0  0  0
   13.2508  -14.7801   20.2253 C   0  0  0  0  0  0  0  0  0  0  0  0
   12.5558  -13.8880   20.8171 O   0  0  0  0  0  0  0  0  0  0  0  0
   14.2877  -15.4747   20.8771 N   0  0  0  0  0  0  0  0  0  0  0  0
   14.4895  -15.3158   22.2952 C   0  0  1  0  0  0  0  0  0  0  0  0
   13.2920  -15.6568   23.0948 C   0  0  0  0  0  0  0  0  0  0  0  0
   12.7663  -17.0196   23.1116 C   0  0  0  0  0  0  0  0  0  0  0  0
   11.6507  -17.3824   23.9684 C   0  0  0  0  0  0  0  0  0  0  0  0
   11.1897  -16.6742   24.8662 O   0  0  0  0  0  0  0  0  0  0  0  0
   15.7239  -15.9774   22.7108 C   0  0  0  0  0  0  0  0  0  0  0  0
   16.2900  -16.7872   21.9517 O   0  0  0  0  0  0  0  0  0  0  0  0
   10.9903  -18.6340   23.8191 O   0  0  0  0  0  0  0  0  0  0  0  0
   16.2628  -15.7023   23.9507 O   0  0  0  0  0  0  0  0  0  0  0  0
  2  1  1  0
  2  3  1  0
  3  4  1  6
  5  3  1  0
  5  6  1  1
  7  5  1  0
  7  8  2  0
  9 10  1  0
 10 12  1  0
 11 10  2  0
 12 13  1  0
 14 13  1  6
 14 15  1  0
 15  7  1  0
 16 14  1  0
 16 18  1  0
 17 16  2  0
 19 18  1  0
 19 24  1  0
 19 20  1  1
 21 20  1  0
 22 23  2  0
 22 21  1  0
 24 25  2  0
 24 27  1  0
 26 22  1  0
M  END
$$$$
