RLH.pdb
     RDKit          3D

 30 30  0  0  1  0  0  0  0  0999 V2000
    7.9243  -13.6518   16.9742 N   0  0  0  0  0  0  0  0  0  0  0  0
    8.6813  -13.0182   17.9925 C   0  0  0  0  0  0  0  0  0  0  0  0
    8.8252  -11.7439   18.0538 N   0  0  0  0  0  0  0  0  0  0  0  0
    9.3147  -13.8355   18.9993 N   0  0  0  0  0  0  0  0  0  0  0  0
    9.2022  -15.2480   18.9342 C   0  0  0  0  0  0  0  0  0  0  0  0
    8.8472  -16.0072   20.1358 C   0  0  0  0  0  0  0  0  0  0  0  0
    7.5816  -15.8093   20.8189 C   0  0  0  0  0  0  0  0  0  0  0  0
    7.3005  -16.6261   22.0239 C   0  0  2  0  0  0  0  0  0  0  0  0
    5.9636  -16.9095   22.3564 N   0  0  0  0  0  0  0  0  0  0  0  0
    8.0928  -16.1251   23.1996 C   0  0  0  0  0  0  0  0  0  0  0  0
    9.3354  -16.0665   23.0401 O   0  0  0  0  0  0  0  0  0  0  0  0
    9.3438  -11.2976   18.8170 C   0  0  0  0  0  0  0  0  0  0  0  0
    8.0748  -12.1937   25.2876 C   0  0  2  0  0  0  0  0  0  0  0  0
    6.9850  -13.1314   25.8135 C   0  0  0  0  0  0  0  0  0  0  0  0
    5.9082  -12.4651   26.5671 C   0  0  0  0  0  0  0  0  0  0  0  0
    7.5841  -14.3652   26.3418 C   0  0  2  0  0  0  0  0  0  0  0  0
    8.4344  -15.2192   25.4907 N   0  0  0  0  0  0  0  0  0  0  0  0
    7.5416  -15.7309   24.4260 C   0  0  0  0  0  0  0  0  0  0  0  0
    8.9386  -16.3938   26.2419 O   0  0  0  0  0  0  0  0  0  0  0  0
    8.1948  -17.3384   26.6118 N   0  0  0  0  0  0  0  0  0  0  0  0
   10.3068  -16.5024   26.5803 C   0  0  1  0  0  0  0  0  0  0  0  0
   10.7727  -17.6183   27.3864 C   0  0  0  0  0  0  0  0  0  0  0  0
   12.0476  -18.1854   26.8700 C   0  0  0  0  0  0  0  0  0  0  0  0
   11.8801  -18.6230   25.4670 C   0  0  0  0  0  0  0  0  0  0  0  0
   12.2283  -17.8521   24.3474 N   0  0  0  0  0  0  0  0  0  0  0  0
   11.9457  -18.5440   23.2442 C   0  0  0  0  0  0  0  0  0  0  0  0
   11.4381  -19.7090   23.6276 N   0  0  0  0  0  0  0  0  0  0  0  0
   11.3976  -19.7591   24.9564 C   0  0  0  0  0  0  0  0  0  0  0  0
   10.9122  -17.2110   28.7898 O   0  0  0  0  0  0  0  0  0  0  0  0
   10.6622  -15.9984   29.0965 O   0  0  0  0  0  0  0  0  0  0  0  0
  2  1  1  0
  3  2  2  0
  4  2  1  0
  5  4  1  0
  6  5  1  0
  7  6  1  0
  8  7  1  0
  8  9  1  1
 10  8  1  0
 11 10  2  0
 13 12  1  6
 13 15  1  0
 14 13  1  0
 16 15  1  6
 16 18  1  0
 16 17  1  0
 17 10  1  0
 18 20  1  0
 19 18  2  0
 20 21  1  0
 21 22  1  1
 21 28  1  0
 22 23  1  0
 23 24  2  0
 25 24  1  0
 26 25  1  0
 27 26  2  0
 27 23  1  0
 28 29  2  0
 28 30  1  0
M  END
$$$$
