RLH.pdb
     RDKit          3D

 30 30  0  0  1  0  0  0  0  0999 V2000
    9.3118  -14.7882   16.8555 N   0  0  0  0  0  0  0  0  0  0  0  0
    8.1174  -14.0472   16.6656 C   0  0  0  0  0  0  0  0  0  0  0  0
    7.4915  -14.0225   15.5449 N   0  0  0  0  0  0  0  0  0  0  0  0
    7.5837  -13.2917   17.7733 N   0  0  0  0  0  0  0  0  0  0  0  0
    8.1805  -13.4029   19.0553 C   0  0  0  0  0  0  0  0  0  0  0  0
    9.0235  -14.5592   19.3692 C   0  0  0  0  0  0  0  0  0  0  0  0
    9.6383  -14.7253   20.6738 C   0  0  0  0  0  0  0  0  0  0  0  0
    8.9770  -15.6233   21.6508 C   0  0  2  0  0  0  0  0  0  0  0  0
    7.6319  -15.9788   21.4452 N   0  0  0  0  0  0  0  0  0  0  0  0
    9.2426  -15.1625   23.0572 C   0  0  0  0  0  0  0  0  0  0  0  0
   10.4127  -14.7808   23.2987 O   0  0  0  0  0  0  0  0  0  0  0  0
    6.7015  -13.3893   15.3843 C   0  0  0  0  0  0  0  0  0  0  0  0
    7.5870  -11.7986   25.3120 C   0  0  2  0  0  0  0  0  0  0  0  0
    6.6924  -13.0343   25.4387 C   0  0  0  0  0  0  0  0  0  0  0  0
    5.3154  -12.7565   25.8841 C   0  0  0  0  0  0  0  0  0  0  0  0
    7.4399  -14.1463   26.0428 C   0  0  2  0  0  0  0  0  0  0  0  0
    8.6823  -14.6478   25.4253 N   0  0  0  0  0  0  0  0  0  0  0  0
    8.2889  -15.1345   24.0833 C   0  0  0  0  0  0  0  0  0  0  0  0
    9.2223  -15.8094   26.1718 O   0  0  0  0  0  0  0  0  0  0  0  0
    9.4001  -15.7980   27.4171 N   0  0  0  0  0  0  0  0  0  0  0  0
    9.5670  -17.0041   25.4991 C   0  0  1  0  0  0  0  0  0  0  0  0
   10.0842  -18.1386   26.2458 C   0  0  0  0  0  0  0  0  0  0  0  0
    9.6481  -19.4359   25.6621 C   0  0  0  0  0  0  0  0  0  0  0  0
   10.1528  -20.5592   26.4817 C   0  0  0  0  0  0  0  0  0  0  0  0
   10.3928  -20.4902   27.8624 N   0  0  0  0  0  0  0  0  0  0  0  0
   10.8413  -21.6733   28.2806 C   0  0  0  0  0  0  0  0  0  0  0  0
   10.8905  -22.4736   27.2227 N   0  0  0  0  0  0  0  0  0  0  0  0
   10.4793  -21.8100   26.1454 C   0  0  0  0  0  0  0  0  0  0  0  0
   11.5481  -18.0692   26.3305 O   0  0  0  0  0  0  0  0  0  0  0  0
   12.1915  -17.6060   25.3313 O   0  0  0  0  0  0  0  0  0  0  0  0
  2  1  1  0
  3  2  2  0
  4  2  1  0
  5  4  1  0
  6  5  1  0
  7  6  1  0
  8  7  1  0
  8  9  1  6
 10  8  1  0
 11 10  2  0
 13 12  1  6
 13 15  1  0
 14 13  1  0
 16 15  1  6
 16 18  1  0
 16 17  1  0
 17 10  1  0
 18 20  1  0
 19 18  2  0
 20 21  1  0
 21 22  1  6
 21 28  1  0
 22 23  1  0
 23 24  2  0
 25 24  1  0
 26 25  1  0
 27 26  2  0
 27 23  1  0
 28 29  2  0
 28 30  1  0
M  END
$$$$
