RLH.pdb
     RDKit          3D

 30 30  0  0  1  0  0  0  0  0999 V2000
    9.4135  -13.9705   17.2560 N   0  0  0  0  0  0  0  0  0  0  0  0
    8.2422  -13.1756   17.3428 C   0  0  0  0  0  0  0  0  0  0  0  0
    7.7249  -12.5950   16.3212 N   0  0  0  0  0  0  0  0  0  0  0  0
    7.6059  -13.0120   18.6278 N   0  0  0  0  0  0  0  0  0  0  0  0
    8.0956  -13.7235   19.7529 C   0  0  0  0  0  0  0  0  0  0  0  0
    8.1461  -15.1874   19.7241 C   0  0  0  0  0  0  0  0  0  0  0  0
    9.0131  -15.9399   20.6127 C   0  0  0  0  0  0  0  0  0  0  0  0
    8.3906  -16.6888   21.7307 C   0  0  2  0  0  0  0  0  0  0  0  0
    7.0140  -16.9718   21.6762 N   0  0  0  0  0  0  0  0  0  0  0  0
    8.8075  -16.1082   23.0535 C   0  0  0  0  0  0  0  0  0  0  0  0
   10.0046  -15.7445   23.1413 O   0  0  0  0  0  0  0  0  0  0  0  0
    6.9570  -11.9228   16.4165 C   0  0  0  0  0  0  0  0  0  0  0  0
    7.8839  -12.4273   25.3542 C   0  0  2  0  0  0  0  0  0  0  0  0
    6.7692  -13.4521   25.5789 C   0  0  0  0  0  0  0  0  0  0  0  0
    5.5500  -12.9108   26.2050 C   0  0  0  0  0  0  0  0  0  0  0  0
    7.3315  -14.7208   26.0633 C   0  0  2  0  0  0  0  0  0  0  0  0
    8.4951  -15.3368   25.3975 N   0  0  0  0  0  0  0  0  0  0  0  0
    7.9629  -15.9533   24.1609 C   0  0  0  0  0  0  0  0  0  0  0  0
    9.0685  -16.4289   26.2199 O   0  0  0  0  0  0  0  0  0  0  0  0
    8.4014  -17.4308   26.5857 N   0  0  0  0  0  0  0  0  0  0  0  0
   10.4190  -16.3880   26.6358 C   0  0  1  0  0  0  0  0  0  0  0  0
   10.9291  -17.3885   27.5581 C   0  0  0  0  0  0  0  0  0  0  0  0
   12.3387  -17.7575   27.2571 C   0  0  0  0  0  0  0  0  0  0  0  0
   12.3957  -18.6134   26.0519 C   0  0  0  0  0  0  0  0  0  0  0  0
   11.2706  -19.1019   25.3705 N   0  0  0  0  0  0  0  0  0  0  0  0
   11.6795  -19.8362   24.3364 C   0  0  0  0  0  0  0  0  0  0  0  0
   13.0068  -19.8257   24.3447 N   0  0  0  0  0  0  0  0  0  0  0  0
   13.4380  -19.0952   25.3695 C   0  0  0  0  0  0  0  0  0  0  0  0
   10.7955  -16.9209   28.9433 O   0  0  0  0  0  0  0  0  0  0  0  0
   10.3729  -15.7344   29.1441 O   0  0  0  0  0  0  0  0  0  0  0  0
  2  1  1  0
  3  2  2  0
  4  2  1  0
  5  4  1  0
  6  5  1  0
  7  6  1  0
  8  7  1  0
  8  9  1  6
 10  8  1  0
 11 10  2  0
 13 12  1  6
 13 15  1  0
 14 13  1  0
 16 15  1  6
 16 18  1  0
 16 17  1  0
 17 10  1  0
 18 20  1  0
 19 18  2  0
 20 21  1  0
 21 22  1  1
 21 28  1  0
 22 23  1  0
 23 24  2  0
 25 24  1  0
 26 25  1  0
 27 26  2  0
 27 23  1  0
 28 29  2  0
 28 30  1  0
M  END
$$$$
