RLH.pdb
     RDKit          3D

 30 30  0  0  1  0  0  0  0  0999 V2000
    7.1225  -14.7952   17.2788 N   0  0  0  0  0  0  0  0  0  0  0  0
    8.2643  -14.4022   16.5349 C   0  0  0  0  0  0  0  0  0  0  0  0
    8.1819  -13.9165   15.3494 N   0  0  0  0  0  0  0  0  0  0  0  0
    9.5696  -14.5532   17.1319 N   0  0  0  0  0  0  0  0  0  0  0  0
    9.6893  -15.0921   18.4385 C   0  0  0  0  0  0  0  0  0  0  0  0
    8.6714  -14.7898   19.4478 C   0  0  0  0  0  0  0  0  0  0  0  0
    8.7331  -15.3478   20.7866 C   0  0  0  0  0  0  0  0  0  0  0  0
    7.6157  -15.0604   21.7177 C   0  0  2  0  0  0  0  0  0  0  0  0
    6.5630  -14.2354   21.2823 N   0  0  0  0  0  0  0  0  0  0  0  0
    8.1417  -14.6587   23.0678 C   0  0  0  0  0  0  0  0  0  0  0  0
    9.1267  -13.8822   23.0651 O   0  0  0  0  0  0  0  0  0  0  0  0
    9.0070  -13.5618   14.8552 C   0  0  0  0  0  0  0  0  0  0  0  0
    7.8325  -11.6137   25.4284 C   0  0  2  0  0  0  0  0  0  0  0  0
    6.6709  -12.5783   25.6807 C   0  0  0  0  0  0  0  0  0  0  0  0
    5.4643  -11.9553   26.2530 C   0  0  0  0  0  0  0  0  0  0  0  0
    7.1692  -13.8429   26.2399 C   0  0  2  0  0  0  0  0  0  0  0  0
    8.2254  -14.6107   25.5533 N   0  0  0  0  0  0  0  0  0  0  0  0
    7.6123  -15.0870   24.2924 C   0  0  0  0  0  0  0  0  0  0  0  0
    8.6108  -15.8108   26.3339 O   0  0  0  0  0  0  0  0  0  0  0  0
    7.7860  -16.4823   27.0056 N   0  0  0  0  0  0  0  0  0  0  0  0
    9.9512  -16.2594   26.3554 C   0  0  1  0  0  0  0  0  0  0  0  0
   10.2437  -17.6810   26.4299 C   0  0  0  0  0  0  0  0  0  0  0  0
    9.5736  -18.4461   25.3440 C   0  0  0  0  0  0  0  0  0  0  0  0
    8.3537  -19.1039   25.8612 C   0  0  0  0  0  0  0  0  0  0  0  0
    7.9101  -19.0230   27.1899 N   0  0  0  0  0  0  0  0  0  0  0  0
    6.7869  -19.7295   27.3121 C   0  0  0  0  0  0  0  0  0  0  0  0
    6.5129  -20.2450   26.1200 N   0  0  0  0  0  0  0  0  0  0  0  0
    7.4482  -19.8726   25.2503 C   0  0  0  0  0  0  0  0  0  0  0  0
   11.6943  -17.9054   26.4091 O   0  0  0  0  0  0  0  0  0  0  0  0
   12.4274  -17.0713   25.7816 O   0  0  0  0  0  0  0  0  0  0  0  0
  2  1  1  0
  3  2  2  0
  4  2  1  0
  5  4  1  0
  6  5  1  0
  7  6  1  0
  8  7  1  0
  8  9  1  6
 10  8  1  0
 11 10  2  0
 13 12  1  6
 13 15  1  0
 14 13  1  0
 16 15  1  6
 16 18  1  0
 16 17  1  0
 17 10  1  0
 18 20  1  0
 19 18  2  0
 20 21  1  0
 21 22  1  1
 21 28  1  0
 22 23  1  0
 23 24  2  0
 25 24  1  0
 26 25  1  0
 27 26  2  0
 27 23  1  0
 28 29  2  0
 28 30  1  0
M  END
$$$$
