RLH.pdb
     RDKit          3D

 30 30  0  0  1  0  0  0  0  0999 V2000
    9.3757  -13.1238   16.0672 N   0  0  0  0  0  0  0  0  0  0  0  0
    7.9951  -13.4017   15.8988 C   0  0  0  0  0  0  0  0  0  0  0  0
    7.3297  -12.9989   14.8774 N   0  0  0  0  0  0  0  0  0  0  0  0
    7.3105  -14.1666   16.9133 N   0  0  0  0  0  0  0  0  0  0  0  0
    8.0525  -14.7776   17.9564 C   0  0  0  0  0  0  0  0  0  0  0  0
    7.3524  -15.4876   19.0297 C   0  0  0  0  0  0  0  0  0  0  0  0
    7.4320  -15.0530   20.4126 C   0  0  0  0  0  0  0  0  0  0  0  0
    7.9068  -16.0250   21.4264 C   0  0  2  0  0  0  0  0  0  0  0  0
    7.1260  -17.1638   21.6944 N   0  0  0  0  0  0  0  0  0  0  0  0
    8.3386  -15.3147   22.6793 C   0  0  0  0  0  0  0  0  0  0  0  0
    9.3124  -14.5332   22.5601 O   0  0  0  0  0  0  0  0  0  0  0  0
    6.3310  -13.2042   14.7715 C   0  0  0  0  0  0  0  0  0  0  0  0
    5.6134  -12.5719   26.9323 C   0  0  1  0  0  0  0  0  0  0  0  0
    6.9669  -12.8222   26.2624 C   0  0  0  0  0  0  0  0  0  0  0  0
    7.4276  -11.7377   25.3775 C   0  0  0  0  0  0  0  0  0  0  0  0
    7.0629  -14.2176   25.8106 C   0  0  2  0  0  0  0  0  0  0  0  0
    8.2554  -14.6993   25.0879 N   0  0  0  0  0  0  0  0  0  0  0  0
    7.7353  -15.4687   23.9346 C   0  0  0  0  0  0  0  0  0  0  0  0
    9.0453  -15.6379   25.9205 O   0  0  0  0  0  0  0  0  0  0  0  0
    9.4267  -15.3610   27.0868 N   0  0  0  0  0  0  0  0  0  0  0  0
    9.4100  -16.9112   25.4263 C   0  0  1  0  0  0  0  0  0  0  0  0
   10.1971  -17.8149   26.2484 C   0  0  0  0  0  0  0  0  0  0  0  0
    9.8176  -19.2374   26.0341 C   0  0  0  0  0  0  0  0  0  0  0  0
    8.5247  -19.5253   26.6927 C   0  0  0  0  0  0  0  0  0  0  0  0
    7.9042  -18.6824   27.6273 N   0  0  0  0  0  0  0  0  0  0  0  0
    6.7604  -19.2428   28.0188 C   0  0  0  0  0  0  0  0  0  0  0  0
    6.6424  -20.3947   27.3699 N   0  0  0  0  0  0  0  0  0  0  0  0
    7.6961  -20.5664   26.5761 C   0  0  0  0  0  0  0  0  0  0  0  0
   11.6300  -17.6130   26.0005 O   0  0  0  0  0  0  0  0  0  0  0  0
   11.9777  -16.7658   25.1126 O   0  0  0  0  0  0  0  0  0  0  0  0
  2  1  1  0
  3  2  2  0
  4  2  1  0
  5  4  1  0
  6  5  1  0
  7  6  1  0
  8  7  1  0
  8  9  1  1
 10  8  1  0
 11 10  2  0
 13 12  1  1
 13 15  1  0
 14 13  1  0
 16 15  1  6
 16 18  1  0
 16 17  1  0
 17 10  1  0
 18 20  1  0
 19 18  2  0
 20 21  1  0
 21 22  1  1
 21 28  1  0
 22 23  1  0
 23 24  2  0
 25 24  1  0
 26 25  1  0
 27 26  2  0
 27 23  1  0
 28 29  2  0
 28 30  1  0
M  END
$$$$
