RLH.pdb
     RDKit          3D

 30 30  0  0  1  0  0  0  0  0999 V2000
    9.8234  -18.5231   17.9737 N   0  0  0  0  0  0  0  0  0  0  0  0
    9.3298  -19.3795   18.9908 C   0  0  0  0  0  0  0  0  0  0  0  0
    9.9748  -20.4130   19.3960 N   0  0  0  0  0  0  0  0  0  0  0  0
    8.0538  -19.0792   19.5947 N   0  0  0  0  0  0  0  0  0  0  0  0
    7.3281  -17.9343   19.1770 C   0  0  0  0  0  0  0  0  0  0  0  0
    7.6762  -16.6155   19.7116 C   0  0  0  0  0  0  0  0  0  0  0  0
    7.0039  -16.0592   20.8718 C   0  0  0  0  0  0  0  0  0  0  0  0
    7.2829  -14.6488   21.2340 C   0  0  2  0  0  0  0  0  0  0  0  0
    7.8870  -13.8089   20.2811 N   0  0  0  0  0  0  0  0  0  0  0  0
    7.9523  -14.5700   22.5781 C   0  0  0  0  0  0  0  0  0  0  0  0
    9.1983  -14.7138   22.5808 O   0  0  0  0  0  0  0  0  0  0  0  0
    9.5940  -21.0365   20.1150 C   0  0  0  0  0  0  0  0  0  0  0  0
    8.1258  -11.3353   25.6155 C   0  0  2  0  0  0  0  0  0  0  0  0
    6.8885  -12.2316   25.7114 C   0  0  0  0  0  0  0  0  0  0  0  0
    5.7398  -11.6257   26.4079 C   0  0  0  0  0  0  0  0  0  0  0  0
    7.2814  -13.6127   26.0257 C   0  0  2  0  0  0  0  0  0  0  0  0
    8.0493  -14.4203   25.0590 N   0  0  0  0  0  0  0  0  0  0  0  0
    7.2868  -14.3515   23.7916 C   0  0  0  0  0  0  0  0  0  0  0  0
    8.0950  -15.8452   25.4661 O   0  0  0  0  0  0  0  0  0  0  0  0
    7.2943  -16.7081   25.0225 N   0  0  0  0  0  0  0  0  0  0  0  0
    9.0624  -16.3024   26.3900 C   0  0  1  0  0  0  0  0  0  0  0  0
   10.0247  -17.3178   25.9965 C   0  0  0  0  0  0  0  0  0  0  0  0
   10.8410  -16.8897   24.8286 C   0  0  0  0  0  0  0  0  0  0  0  0
   11.7752  -17.9676   24.4366 C   0  0  0  0  0  0  0  0  0  0  0  0
   11.9143  -19.1856   25.1193 N   0  0  0  0  0  0  0  0  0  0  0  0
   12.8382  -19.9214   24.5023 C   0  0  0  0  0  0  0  0  0  0  0  0
   13.2788  -19.2160   23.4677 N   0  0  0  0  0  0  0  0  0  0  0  0
   12.6450  -18.0471   23.4259 C   0  0  0  0  0  0  0  0  0  0  0  0
   10.8838  -17.6743   27.1323 O   0  0  0  0  0  0  0  0  0  0  0  0
   11.0277  -16.8251   28.0731 O   0  0  0  0  0  0  0  0  0  0  0  0
  2  1  1  0
  3  2  2  0
  4  2  1  0
  5  4  1  0
  6  5  1  0
  7  6  1  0
  8  7  1  0
  8  9  1  6
 10  8  1  0
 11 10  2  0
 13 12  1  6
 13 15  1  0
 14 13  1  0
 16 15  1  6
 16 18  1  0
 16 17  1  0
 17 10  1  0
 18 20  1  0
 19 18  2  0
 20 21  1  0
 21 22  1  1
 21 28  1  0
 22 23  1  0
 23 24  2  0
 25 24  1  0
 26 25  1  0
 27 26  2  0
 27 23  1  0
 28 29  2  0
 28 30  1  0
M  END
$$$$
