RLH.pdb
     RDKit          3D

 30 30  0  0  1  0  0  0  0  0999 V2000
    9.7152  -14.8040   16.8172 N   0  0  0  0  0  0  0  0  0  0  0  0
    8.4180  -14.2359   16.8966 C   0  0  0  0  0  0  0  0  0  0  0  0
    8.0321  -13.2861   16.1239 N   0  0  0  0  0  0  0  0  0  0  0  0
    7.4952  -14.7439   17.8831 N   0  0  0  0  0  0  0  0  0  0  0  0
    7.9905  -15.3440   19.0691 C   0  0  0  0  0  0  0  0  0  0  0  0
    8.8718  -14.5828   19.9580 C   0  0  0  0  0  0  0  0  0  0  0  0
    9.5389  -15.2036   21.0881 C   0  0  0  0  0  0  0  0  0  0  0  0
    8.7014  -15.8366   22.1349 C   0  0  2  0  0  0  0  0  0  0  0  0
    7.3254  -16.0038   21.8959 N   0  0  0  0  0  0  0  0  0  0  0  0
    8.9824  -15.2248   23.4793 C   0  0  0  0  0  0  0  0  0  0  0  0
   10.1825  -14.9492   23.7177 O   0  0  0  0  0  0  0  0  0  0  0  0
    7.1048  -12.8596   16.2181 C   0  0  0  0  0  0  0  0  0  0  0  0
    7.5995  -11.5266   25.2537 C   0  0  2  0  0  0  0  0  0  0  0  0
    6.5532  -12.5778   25.6326 C   0  0  0  0  0  0  0  0  0  0  0  0
    5.3016  -12.0315   26.1864 C   0  0  0  0  0  0  0  0  0  0  0  0
    7.1963  -13.7256   26.2879 C   0  0  2  0  0  0  0  0  0  0  0  0
    8.4229  -14.3266   25.7304 N   0  0  0  0  0  0  0  0  0  0  0  0
    8.0119  -14.9516   24.4525 C   0  0  0  0  0  0  0  0  0  0  0  0
    8.9350  -15.4099   26.6034 O   0  0  0  0  0  0  0  0  0  0  0  0
    9.4757  -15.1907   27.7179 N   0  0  0  0  0  0  0  0  0  0  0  0
    8.8340  -16.7640   26.2099 C   0  0  1  0  0  0  0  0  0  0  0  0
    9.4072  -17.8098   27.0404 C   0  0  0  0  0  0  0  0  0  0  0  0
    9.0286  -19.1685   26.5668 C   0  0  0  0  0  0  0  0  0  0  0  0
    9.5552  -20.1961   27.4914 C   0  0  0  0  0  0  0  0  0  0  0  0
   10.2690  -19.9165   28.6667 N   0  0  0  0  0  0  0  0  0  0  0  0
   10.5928  -21.0665   29.2570 C   0  0  0  0  0  0  0  0  0  0  0  0
   10.1125  -22.0470   28.5021 N   0  0  0  0  0  0  0  0  0  0  0  0
    9.4915  -21.5296   27.4455 C   0  0  0  0  0  0  0  0  0  0  0  0
   10.8668  -17.6669   27.1059 O   0  0  0  0  0  0  0  0  0  0  0  0
   11.4140  -17.5575   28.2529 O   0  0  0  0  0  0  0  0  0  0  0  0
  2  1  1  0
  3  2  2  0
  4  2  1  0
  5  4  1  0
  6  5  1  0
  7  6  1  0
  8  7  1  0
  8  9  1  6
 10  8  1  0
 11 10  2  0
 13 12  1  6
 13 15  1  0
 14 13  1  0
 16 15  1  6
 16 18  1  0
 16 17  1  0
 17 10  1  0
 18 20  1  0
 19 18  2  0
 20 21  1  0
 21 22  1  6
 21 28  1  0
 22 23  1  0
 23 24  2  0
 25 24  1  0
 26 25  1  0
 27 26  2  0
 27 23  1  0
 28 29  2  0
 28 30  1  0
M  END
$$$$
