RLH.pdb
     RDKit          3D

 30 30  0  0  1  0  0  0  0  0999 V2000
    9.5221  -14.7715   17.0350 N   0  0  0  0  0  0  0  0  0  0  0  0
    8.4536  -13.9102   16.6772 C   0  0  0  0  0  0  0  0  0  0  0  0
    8.5467  -13.0539   15.7251 N   0  0  0  0  0  0  0  0  0  0  0  0
    7.2136  -13.9982   17.4102 N   0  0  0  0  0  0  0  0  0  0  0  0
    7.1772  -14.6765   18.6555 C   0  0  0  0  0  0  0  0  0  0  0  0
    7.7002  -14.0223   19.8575 C   0  0  0  0  0  0  0  0  0  0  0  0
    8.8720  -14.5240   20.5523 C   0  0  0  0  0  0  0  0  0  0  0  0
    8.6778  -15.5568   21.5981 C   0  0  2  0  0  0  0  0  0  0  0  0
    7.4581  -16.2556   21.6453 N   0  0  0  0  0  0  0  0  0  0  0  0
    9.0933  -15.0315   22.9443 C   0  0  0  0  0  0  0  0  0  0  0  0
   10.2031  -14.4488   22.9883 O   0  0  0  0  0  0  0  0  0  0  0  0
    7.7438  -12.4894   15.4295 C   0  0  0  0  0  0  0  0  0  0  0  0
    7.6870  -11.8265   25.4682 C   0  0  2  0  0  0  0  0  0  0  0  0
    6.8282  -13.0649   25.7374 C   0  0  0  0  0  0  0  0  0  0  0  0
    5.5642  -12.7974   26.4461 C   0  0  0  0  0  0  0  0  0  0  0  0
    7.6734  -14.1903   26.1612 C   0  0  2  0  0  0  0  0  0  0  0  0
    8.8621  -14.5811   25.3796 N   0  0  0  0  0  0  0  0  0  0  0  0
    8.3365  -15.1501   24.1176 C   0  0  0  0  0  0  0  0  0  0  0  0
    9.6235  -15.6554   26.0610 O   0  0  0  0  0  0  0  0  0  0  0  0
   10.0990  -15.5266   27.2185 N   0  0  0  0  0  0  0  0  0  0  0  0
    9.8511  -16.8963   25.4232 C   0  0  1  0  0  0  0  0  0  0  0  0
   10.7054  -17.8921   26.0482 C   0  0  0  0  0  0  0  0  0  0  0  0
    9.9930  -19.1799   26.2668 C   0  0  0  0  0  0  0  0  0  0  0  0
    9.9421  -19.4960   27.7110 C   0  0  0  0  0  0  0  0  0  0  0  0
   10.4584  -18.6726   28.7231 N   0  0  0  0  0  0  0  0  0  0  0  0
   10.2463  -19.2562   29.9022 C   0  0  0  0  0  0  0  0  0  0  0  0
    9.6218  -20.4039   29.6683 N   0  0  0  0  0  0  0  0  0  0  0  0
    9.4386  -20.5501   28.3587 C   0  0  0  0  0  0  0  0  0  0  0  0
   11.9204  -18.0957   25.2499 O   0  0  0  0  0  0  0  0  0  0  0  0
   12.9478  -18.5866   25.8247 O   0  0  0  0  0  0  0  0  0  0  0  0
  2  1  1  0
  3  2  2  0
  4  2  1  0
  5  4  1  0
  6  5  1  0
  7  6  1  0
  8  7  1  0
  8  9  1  1
 10  8  1  0
 11 10  2  0
 13 12  1  6
 13 15  1  0
 14 13  1  0
 16 15  1  6
 16 18  1  0
 16 17  1  0
 17 10  1  0
 18 20  1  0
 19 18  2  0
 20 21  1  0
 21 22  1  6
 21 28  1  0
 22 23  1  0
 23 24  2  0
 25 24  1  0
 26 25  1  0
 27 26  2  0
 27 23  1  0
 28 29  2  0
 28 30  1  0
M  END
$$$$
