RLH.pdb
     RDKit          3D

 30 30  0  0  1  0  0  0  0  0999 V2000
    8.6374  -12.7475   18.7469 N   0  0  0  0  0  0  0  0  0  0  0  0
    8.5297  -13.5234   17.5646 C   0  0  0  0  0  0  0  0  0  0  0  0
    7.9095  -13.1075   16.5203 N   0  0  0  0  0  0  0  0  0  0  0  0
    9.1400  -14.8308   17.5323 N   0  0  0  0  0  0  0  0  0  0  0  0
    9.5840  -15.4317   18.7381 C   0  0  0  0  0  0  0  0  0  0  0  0
    8.6071  -15.8548   19.7445 C   0  0  0  0  0  0  0  0  0  0  0  0
    8.9867  -16.6740   20.8813 C   0  0  0  0  0  0  0  0  0  0  0  0
    7.9374  -17.0403   21.8626 C   0  0  2  0  0  0  0  0  0  0  0  0
    6.5869  -16.9424   21.4822 N   0  0  0  0  0  0  0  0  0  0  0  0
    8.2092  -16.3956   23.1935 C   0  0  0  0  0  0  0  0  0  0  0  0
    9.4167  -16.2841   23.5139 O   0  0  0  0  0  0  0  0  0  0  0  0
    7.8846  -13.6570   15.6553 C   0  0  0  0  0  0  0  0  0  0  0  0
    7.7963  -12.3546   25.2942 C   0  0  2  0  0  0  0  0  0  0  0  0
    6.4278  -13.0356   25.2120 C   0  0  0  0  0  0  0  0  0  0  0  0
    5.2897  -12.1825   25.5973 C   0  0  0  0  0  0  0  0  0  0  0  0
    6.5099  -14.4107   25.7246 C   0  0  2  0  0  0  0  0  0  0  0  0
    7.6296  -15.2942   25.3471 N   0  0  0  0  0  0  0  0  0  0  0  0
    7.2230  -15.9253   24.0708 C   0  0  0  0  0  0  0  0  0  0  0  0
    7.8113  -16.3835   26.3363 O   0  0  0  0  0  0  0  0  0  0  0  0
    6.9011  -16.7497   27.1236 N   0  0  0  0  0  0  0  0  0  0  0  0
    9.0427  -17.0705   26.4370 C   0  0  1  0  0  0  0  0  0  0  0  0
    9.1911  -18.1680   27.3780 C   0  0  0  0  0  0  0  0  0  0  0  0
    8.8495  -19.4794   26.7638 C   0  0  0  0  0  0  0  0  0  0  0  0
    9.0016  -20.5637   27.7585 C   0  0  0  0  0  0  0  0  0  0  0  0
    7.9387  -21.1534   28.4595 N   0  0  0  0  0  0  0  0  0  0  0  0
    8.4266  -22.0908   29.2713 C   0  0  0  0  0  0  0  0  0  0  0  0
    9.7436  -22.1100   29.1062 N   0  0  0  0  0  0  0  0  0  0  0  0
   10.0903  -21.1978   28.2021 C   0  0  0  0  0  0  0  0  0  0  0  0
   10.5516  -18.1874   27.9290 O   0  0  0  0  0  0  0  0  0  0  0  0
   10.8201  -19.0273   28.8506 O   0  0  0  0  0  0  0  0  0  0  0  0
  2  1  1  0
  3  2  2  0
  4  2  1  0
  5  4  1  0
  6  5  1  0
  7  6  1  0
  8  7  1  0
  8  9  1  6
 10  8  1  0
 11 10  2  0
 13 12  1  6
 13 15  1  0
 14 13  1  0
 16 15  1  6
 16 18  1  0
 16 17  1  0
 17 10  1  0
 18 20  1  0
 19 18  2  0
 20 21  1  0
 21 22  1  1
 21 28  1  0
 22 23  1  0
 23 24  2  0
 25 24  1  0
 26 25  1  0
 27 26  2  0
 27 23  1  0
 28 29  2  0
 28 30  1  0
M  END
$$$$
