RLH.pdb
     RDKit          3D

 30 30  0  0  1  0  0  0  0  0999 V2000
    8.8707  -15.2499   16.8112 N   0  0  0  0  0  0  0  0  0  0  0  0
    7.9312  -14.2466   16.4613 C   0  0  0  0  0  0  0  0  0  0  0  0
    7.2126  -14.3142   15.3996 N   0  0  0  0  0  0  0  0  0  0  0  0
    7.7756  -13.1054   17.3310 N   0  0  0  0  0  0  0  0  0  0  0  0
    8.4590  -13.0673   18.5734 C   0  0  0  0  0  0  0  0  0  0  0  0
    8.4628  -14.2485   19.4399 C   0  0  0  0  0  0  0  0  0  0  0  0
    9.0729  -14.2285   20.7570 C   0  0  0  0  0  0  0  0  0  0  0  0
    8.9209  -15.4259   21.6180 C   0  0  2  0  0  0  0  0  0  0  0  0
    7.7350  -16.1774   21.5341 N   0  0  0  0  0  0  0  0  0  0  0  0
    9.3031  -15.1091   23.0373 C   0  0  0  0  0  0  0  0  0  0  0  0
   10.3792  -14.4832   23.1900 O   0  0  0  0  0  0  0  0  0  0  0  0
    6.5220  -13.5920   15.1710 C   0  0  0  0  0  0  0  0  0  0  0  0
    8.2450  -12.0433   25.7233 C   0  0  2  0  0  0  0  0  0  0  0  0
    7.2037  -13.1636   25.6581 C   0  0  0  0  0  0  0  0  0  0  0  0
    5.8500  -12.7742   26.0910 C   0  0  0  0  0  0  0  0  0  0  0  0
    7.7826  -14.4274   26.1355 C   0  0  2  0  0  0  0  0  0  0  0  0
    8.9877  -14.9957   25.5019 N   0  0  0  0  0  0  0  0  0  0  0  0
    8.5505  -15.4606   24.1658 C   0  0  0  0  0  0  0  0  0  0  0  0
    9.4738  -16.1847   26.2423 O   0  0  0  0  0  0  0  0  0  0  0  0
    9.5452  -16.2254   27.4975 N   0  0  0  0  0  0  0  0  0  0  0  0
    9.8861  -17.3474   25.5519 C   0  0  1  0  0  0  0  0  0  0  0  0
   10.3522  -18.5083   26.2914 C   0  0  0  0  0  0  0  0  0  0  0  0
    9.8138  -19.7781   25.7333 C   0  0  0  0  0  0  0  0  0  0  0  0
    8.3437  -19.6915   25.5944 C   0  0  0  0  0  0  0  0  0  0  0  0
    7.4475  -19.6087   26.6709 N   0  0  0  0  0  0  0  0  0  0  0  0
    6.2054  -19.5460   26.1926 C   0  0  0  0  0  0  0  0  0  0  0  0
    6.2895  -19.5859   24.8684 N   0  0  0  0  0  0  0  0  0  0  0  0
    7.5671  -19.6729   24.5078 C   0  0  0  0  0  0  0  0  0  0  0  0
   11.8195  -18.5344   26.3287 O   0  0  0  0  0  0  0  0  0  0  0  0
   12.4579  -17.6332   25.6904 O   0  0  0  0  0  0  0  0  0  0  0  0
  2  1  1  0
  3  2  2  0
  4  2  1  0
  5  4  1  0
  6  5  1  0
  7  6  1  0
  8  7  1  0
  8  9  1  1
 10  8  1  0
 11 10  2  0
 13 12  1  6
 13 15  1  0
 14 13  1  0
 16 15  1  6
 16 18  1  0
 16 17  1  0
 17 10  1  0
 18 20  1  0
 19 18  2  0
 20 21  1  0
 21 22  1  1
 21 28  1  0
 22 23  1  0
 23 24  2  0
 25 24  1  0
 26 25  1  0
 27 26  2  0
 27 23  1  0
 28 29  2  0
 28 30  1  0
M  END
$$$$
