RLH.pdb
     RDKit          3D

 30 30  0  0  1  0  0  0  0  0999 V2000
    8.7380  -12.6125   18.8646 N   0  0  0  0  0  0  0  0  0  0  0  0
    8.6776  -13.4852   17.7482 C   0  0  0  0  0  0  0  0  0  0  0  0
    9.3235  -13.2613   16.6614 N   0  0  0  0  0  0  0  0  0  0  0  0
    7.8593  -14.6708   17.8353 N   0  0  0  0  0  0  0  0  0  0  0  0
    7.3932  -15.1145   19.0994 C   0  0  0  0  0  0  0  0  0  0  0  0
    8.0224  -16.2700   19.7439 C   0  0  0  0  0  0  0  0  0  0  0  0
    8.7379  -16.1482   21.0011 C   0  0  0  0  0  0  0  0  0  0  0  0
    8.1175  -16.7230   22.2189 C   0  0  2  0  0  0  0  0  0  0  0  0
    6.7237  -16.9090   22.2488 N   0  0  0  0  0  0  0  0  0  0  0  0
    8.6332  -16.0333   23.4514 C   0  0  0  0  0  0  0  0  0  0  0  0
    9.8401  -15.6928   23.4264 O   0  0  0  0  0  0  0  0  0  0  0  0
    9.2448  -13.8843   15.8513 C   0  0  0  0  0  0  0  0  0  0  0  0
    7.7187  -12.1785   25.2866 C   0  0  2  0  0  0  0  0  0  0  0  0
    6.7215  -13.2478   25.7401 C   0  0  0  0  0  0  0  0  0  0  0  0
    5.4683  -12.7214   26.3092 C   0  0  0  0  0  0  0  0  0  0  0  0
    7.4235  -14.3446   26.4217 C   0  0  2  0  0  0  0  0  0  0  0  0
    8.5068  -15.0852   25.7475 N   0  0  0  0  0  0  0  0  0  0  0  0
    7.8682  -15.7561   24.5922 C   0  0  0  0  0  0  0  0  0  0  0  0
    9.0562  -16.1483   26.6228 O   0  0  0  0  0  0  0  0  0  0  0  0
    8.3735  -17.1285   27.0175 N   0  0  0  0  0  0  0  0  0  0  0  0
   10.4000  -16.1027   27.0592 C   0  0  1  0  0  0  0  0  0  0  0  0
   10.9362  -17.1727   27.8835 C   0  0  0  0  0  0  0  0  0  0  0  0
   12.3612  -17.4602   27.5668 C   0  0  0  0  0  0  0  0  0  0  0  0
   12.4805  -17.9957   26.1930 C   0  0  0  0  0  0  0  0  0  0  0  0
   11.3955  -18.4037   25.4024 N   0  0  0  0  0  0  0  0  0  0  0  0
   11.8563  -18.8318   24.2277 C   0  0  0  0  0  0  0  0  0  0  0  0
   13.1777  -18.7080   24.2528 N   0  0  0  0  0  0  0  0  0  0  0  0
   13.5539  -18.2082   25.4269 C   0  0  0  0  0  0  0  0  0  0  0  0
   10.7714  -16.8521   29.3066 O   0  0  0  0  0  0  0  0  0  0  0  0
   10.2734  -15.7201   29.6189 O   0  0  0  0  0  0  0  0  0  0  0  0
  2  1  1  0
  3  2  2  0
  4  2  1  0
  5  4  1  0
  6  5  1  0
  7  6  1  0
  8  7  1  0
  8  9  1  6
 10  8  1  0
 11 10  2  0
 13 12  1  6
 13 15  1  0
 14 13  1  0
 16 15  1  6
 16 18  1  0
 16 17  1  0
 17 10  1  0
 18 20  1  0
 19 18  2  0
 20 21  1  0
 21 22  1  1
 21 28  1  0
 22 23  1  0
 23 24  2  0
 25 24  1  0
 26 25  1  0
 27 26  2  0
 27 23  1  0
 28 29  2  0
 28 30  1  0
M  END
$$$$
