RLH.pdb
     RDKit          3D

 30 30  0  0  1  0  0  0  0  0999 V2000
    8.9765  -14.9438   15.6760 N   0  0  0  0  0  0  0  0  0  0  0  0
    8.6550  -13.6686   16.2073 C   0  0  0  0  0  0  0  0  0  0  0  0
    8.2495  -12.6971   15.4725 N   0  0  0  0  0  0  0  0  0  0  0  0
    8.7880  -13.4531   17.6281 N   0  0  0  0  0  0  0  0  0  0  0  0
    9.3127  -14.4822   18.4513 C   0  0  0  0  0  0  0  0  0  0  0  0
    8.5216  -14.9924   19.5739 C   0  0  0  0  0  0  0  0  0  0  0  0
    9.1439  -15.4396   20.8069 C   0  0  0  0  0  0  0  0  0  0  0  0
    8.3251  -16.2267   21.7598 C   0  0  2  0  0  0  0  0  0  0  0  0
    6.9452  -16.3594   21.5221 N   0  0  0  0  0  0  0  0  0  0  0  0
    8.6297  -15.8254   23.1764 C   0  0  0  0  0  0  0  0  0  0  0  0
    9.8419  -15.8222   23.4982 O   0  0  0  0  0  0  0  0  0  0  0  0
    8.1056  -11.7572   15.8553 C   0  0  0  0  0  0  0  0  0  0  0  0
    8.2381  -12.0981   25.4533 C   0  0  2  0  0  0  0  0  0  0  0  0
    6.9336  -12.8976   25.4036 C   0  0  0  0  0  0  0  0  0  0  0  0
    5.7179  -12.1135   25.6841 C   0  0  0  0  0  0  0  0  0  0  0  0
    7.1140  -14.2095   26.0415 C   0  0  2  0  0  0  0  0  0  0  0  0
    8.0966  -15.1776   25.5180 N   0  0  0  0  0  0  0  0  0  0  0  0
    7.6683  -15.4649   24.1300 C   0  0  0  0  0  0  0  0  0  0  0  0
    8.0425  -16.4560   26.2669 O   0  0  0  0  0  0  0  0  0  0  0  0
    7.1866  -17.3481   26.0340 N   0  0  0  0  0  0  0  0  0  0  0  0
    8.9717  -16.7307   27.2962 C   0  0  1  0  0  0  0  0  0  0  0  0
    9.6652  -18.0073   27.3315 C   0  0  0  0  0  0  0  0  0  0  0  0
   10.1994  -18.3889   25.9963 C   0  0  0  0  0  0  0  0  0  0  0  0
   10.8045  -19.7375   26.0554 C   0  0  0  0  0  0  0  0  0  0  0  0
   10.3484  -20.7775   26.8795 N   0  0  0  0  0  0  0  0  0  0  0  0
   11.1168  -21.8487   26.6852 C   0  0  0  0  0  0  0  0  0  0  0  0
   12.0289  -21.5213   25.7781 N   0  0  0  0  0  0  0  0  0  0  0  0
   11.8446  -20.2592   25.3996 C   0  0  0  0  0  0  0  0  0  0  0  0
   10.7368  -17.9784   28.3345 O   0  0  0  0  0  0  0  0  0  0  0  0
   11.4523  -19.0233   28.4869 O   0  0  0  0  0  0  0  0  0  0  0  0
  2  1  1  0
  3  2  2  0
  4  2  1  0
  5  4  1  0
  6  5  1  0
  7  6  1  0
  8  7  1  0
  8  9  1  6
 10  8  1  0
 11 10  2  0
 13 12  1  6
 13 15  1  0
 14 13  1  0
 16 15  1  6
 16 18  1  0
 16 17  1  0
 17 10  1  0
 18 20  1  0
 19 18  2  0
 20 21  1  0
 21 22  1  1
 21 28  1  0
 22 23  1  0
 23 24  2  0
 25 24  1  0
 26 25  1  0
 27 26  2  0
 27 23  1  0
 28 29  2  0
 28 30  1  0
M  END
$$$$
