MIL.pdb
     RDKit          3D

 25 24  0  0  1  0  0  0  0  0999 V2000
   31.3615  -22.9886  -15.9506 C   0  0  0  0  0  0  0  0  0  0  0  0
   30.0686  -24.1376  -16.4182 S   0  0  0  0  0  0  0  0  0  0  0  0
   28.5432  -23.2899  -16.9089 C   0  0  0  0  0  0  0  0  0  0  0  0
   28.1418  -22.3457  -15.7703 C   0  0  0  0  0  0  0  0  0  0  0  0
   26.8949  -21.5800  -16.1189 C   0  0  2  0  0  0  0  0  0  0  0  0
   27.1617  -20.7133  -17.2214 N   0  0  0  0  0  0  0  0  0  0  0  0
   26.3075  -20.8488  -15.0032 C   0  0  0  0  0  0  0  0  0  0  0  0
   26.5077  -19.6109  -14.9165 O   0  0  0  0  0  0  0  0  0  0  0  0
   21.4515  -20.4094  -14.4589 C   0  0  0  0  0  0  0  0  0  0  0  0
   22.9341  -20.2558  -14.3415 C   0  0  0  0  0  0  0  0  0  0  0  0
   23.4126  -20.8118  -13.0209 C   0  0  2  0  0  0  0  0  0  0  0  0
   22.6712  -20.1594  -11.8760 C   0  0  0  0  0  0  0  0  0  0  0  0
   24.8945  -20.6861  -12.9004 C   0  0  2  0  0  0  0  0  0  0  0  0
   25.5073  -21.4323  -13.9794 N   0  0  0  0  0  0  0  0  0  0  0  0
   25.3984  -21.1320  -11.5688 C   0  0  0  0  0  0  0  0  0  0  0  0
   25.3442  -22.3484  -11.2543 O   0  0  0  0  0  0  0  0  0  0  0  0
   26.9316  -19.9996   -6.2651 C   0  0  0  0  0  0  0  0  0  0  0  0
   27.9083  -20.2006   -7.3635 C   0  0  2  0  0  0  0  0  0  0  0  0
   29.1076  -19.2818   -7.1141 C   0  0  0  0  0  0  0  0  0  0  0  0
   27.4571  -20.0263   -8.7625 C   0  0  0  0  0  0  0  0  0  0  0  0
   26.2910  -20.7678   -9.2773 C   0  0  2  0  0  0  0  0  0  0  0  0
   25.9433  -20.2425  -10.6259 N   0  0  0  0  0  0  0  0  0  0  0  0
   25.0457  -20.7630   -8.5130 C   0  0  0  0  0  0  0  0  0  0  0  0
   24.1579  -19.8692   -8.5569 O   0  0  0  0  0  0  0  0  0  0  0  0
   24.7915  -21.8401   -7.6451 O   0  0  0  0  0  0  0  0  0  0  0  0
  1  2  1  0
  2  3  1  0
  3  4  1  0
  5  4  1  0
  5  6  1  6
  7  5  1  0
  8  7  2  0
 10 11  1  0
 10  9  1  0
 11 13  1  0
 11 12  1  1
 13 14  1  6
 14  7  1  0
 15 22  1  0
 15 13  1  0
 16 15  2  0
 18 19  1  1
 18 17  1  0
 21 20  1  1
 20 18  1  0
 21 22  1  0
 23 21  1  0
 24 23  2  0
 25 23  1  0
M  END
$$$$
