MIL.pdb
     RDKit          3D

 25 24  0  0  1  0  0  0  0  0999 V2000
   26.5559  -39.3391  -14.4336 C   0  0  0  0  0  0  0  0  0  0  0  0
   27.2969  -38.1114  -13.3592 S   0  0  0  0  0  0  0  0  0  0  0  0
   26.2277  -36.6652  -13.1318 C   0  0  0  0  0  0  0  0  0  0  0  0
   26.9757  -35.6606  -12.2484 C   0  0  0  0  0  0  0  0  0  0  0  0
   26.0990  -34.4878  -11.9042 C   0  0  2  0  0  0  0  0  0  0  0  0
   26.0629  -33.5814  -13.0065 N   0  0  0  0  0  0  0  0  0  0  0  0
   26.4676  -33.8040  -10.6709 C   0  0  0  0  0  0  0  0  0  0  0  0
   27.1490  -32.7501  -10.7418 O   0  0  0  0  0  0  0  0  0  0  0  0
   22.9056  -32.5059   -7.2650 C   0  0  0  0  0  0  0  0  0  0  0  0
   24.1526  -32.6103   -8.0832 C   0  0  0  0  0  0  0  0  0  0  0  0
   25.2087  -33.3820   -7.3274 C   0  0  2  0  0  0  0  0  0  0  0  0
   25.4648  -32.7427   -5.9814 C   0  0  0  0  0  0  0  0  0  0  0  0
   26.4469  -33.5253   -8.1476 C   0  0  2  0  0  0  0  0  0  0  0  0
   26.1125  -34.2395   -9.3620 N   0  0  0  0  0  0  0  0  0  0  0  0
   27.5507  -34.1969   -7.4017 C   0  0  0  0  0  0  0  0  0  0  0  0
   27.5084  -35.4381   -7.2046 O   0  0  0  0  0  0  0  0  0  0  0  0
   32.4450  -34.2501   -4.4763 C   0  0  0  0  0  0  0  0  0  0  0  0
   32.2897  -34.1959   -5.9507 C   0  0  2  0  0  0  0  0  0  0  0  0
   33.4750  -33.4189   -6.5303 C   0  0  0  0  0  0  0  0  0  0  0  0
   31.0373  -33.6480   -6.5182 C   0  0  0  0  0  0  0  0  0  0  0  0
   29.7358  -34.2736   -6.2186 C   0  0  2  0  0  0  0  0  0  0  0  0
   28.6612  -33.4979   -6.8962 N   0  0  0  0  0  0  0  0  0  0  0  0
   29.3122  -34.4124   -4.8272 C   0  0  0  0  0  0  0  0  0  0  0  0
   28.6230  -33.5783   -4.1803 O   0  0  0  0  0  0  0  0  0  0  0  0
   29.6938  -35.5702   -4.1260 O   0  0  0  0  0  0  0  0  0  0  0  0
  1  2  1  0
  2  3  1  0
  3  4  1  0
  5  4  1  0
  5  6  1  6
  7  5  1  0
  8  7  2  0
 10 11  1  0
 10  9  1  0
 11 13  1  0
 11 12  1  1
 13 14  1  6
 14  7  1  0
 15 22  1  0
 15 13  1  0
 16 15  2  0
 18 19  1  6
 18 17  1  0
 21 20  1  1
 20 18  1  0
 21 22  1  0
 23 21  1  0
 24 23  2  0
 25 23  1  0
M  END
$$$$
