MIL.pdb
     RDKit          3D

 25 24  0  0  1  0  0  0  0  0999 V2000
   31.7273  -20.8977  -10.7519 C   0  0  0  0  0  0  0  0  0  0  0  0
   31.3143  -22.2309  -11.8756 S   0  0  0  0  0  0  0  0  0  0  0  0
   30.5770  -21.6242  -13.4167 C   0  0  0  0  0  0  0  0  0  0  0  0
   29.7446  -20.3811  -13.0833 C   0  0  0  0  0  0  0  0  0  0  0  0
   28.3344  -20.5256  -13.5861 C   0  0  2  0  0  0  0  0  0  0  0  0
   28.2162  -19.8914  -14.8595 N   0  0  0  0  0  0  0  0  0  0  0  0
   27.3150  -20.0460  -12.6613 C   0  0  0  0  0  0  0  0  0  0  0  0
   27.1259  -18.8078  -12.5556 O   0  0  0  0  0  0  0  0  0  0  0  0
   22.3566  -20.7429  -12.5268 C   0  0  0  0  0  0  0  0  0  0  0  0
   23.7506  -20.2627  -12.2788 C   0  0  0  0  0  0  0  0  0  0  0  0
   24.2744  -20.8310  -10.9808 C   0  0  2  0  0  0  0  0  0  0  0  0
   23.3533  -20.4680   -9.8381 C   0  0  0  0  0  0  0  0  0  0  0  0
   25.6851  -20.4042  -10.7481 C   0  0  2  0  0  0  0  0  0  0  0  0
   26.4961  -20.8815  -11.8486 N   0  0  0  0  0  0  0  0  0  0  0  0
   26.2131  -20.8719   -9.4335 C   0  0  0  0  0  0  0  0  0  0  0  0
   26.4435  -22.0945   -9.2506 O   0  0  0  0  0  0  0  0  0  0  0  0
   27.6140  -20.0666   -4.0255 C   0  0  0  0  0  0  0  0  0  0  0  0
   28.5360  -19.8374   -5.1649 C   0  0  2  0  0  0  0  0  0  0  0  0
   29.4527  -18.6626   -4.8123 C   0  0  0  0  0  0  0  0  0  0  0  0
   27.9657  -19.6093   -6.5116 C   0  0  0  0  0  0  0  0  0  0  0  0
   27.0095  -20.5667   -7.0984 C   0  0  2  0  0  0  0  0  0  0  0  0
   26.4725  -19.9965   -8.3640 N   0  0  0  0  0  0  0  0  0  0  0  0
   25.8443  -20.9816   -6.3206 C   0  0  0  0  0  0  0  0  0  0  0  0
   24.7198  -20.4119   -6.3174 O   0  0  0  0  0  0  0  0  0  0  0  0
   25.9621  -22.1144   -5.4954 O   0  0  0  0  0  0  0  0  0  0  0  0
  1  2  1  0
  2  3  1  0
  3  4  1  0
  5  4  1  0
  5  6  1  6
  7  5  1  0
  8  7  2  0
 10 11  1  0
 10  9  1  0
 11 13  1  0
 11 12  1  1
 13 14  1  6
 14  7  1  0
 15 22  1  0
 15 13  1  0
 16 15  2  0
 18 19  1  1
 18 17  1  0
 21 20  1  1
 20 18  1  0
 21 22  1  0
 23 21  1  0
 24 23  2  0
 25 23  1  0
M  END
$$$$
