MIL.pdb
     RDKit          3D

 25 24  0  0  1  0  0  0  0  0999 V2000
   25.6082  -17.2027  -17.6420 C   0  0  0  0  0  0  0  0  0  0  0  0
   27.2123  -17.1894  -18.4403 S   0  0  0  0  0  0  0  0  0  0  0  0
   28.3459  -18.4071  -17.7202 C   0  0  0  0  0  0  0  0  0  0  0  0
   27.5692  -19.2119  -16.6722 C   0  0  0  0  0  0  0  0  0  0  0  0
   28.4455  -20.2557  -16.0357 C   0  0  2  0  0  0  0  0  0  0  0  0
   28.8222  -21.2226  -17.0160 N   0  0  0  0  0  0  0  0  0  0  0  0
   27.8632  -20.8940  -14.8618 C   0  0  0  0  0  0  0  0  0  0  0  0
   27.0751  -21.8596  -15.0244 O   0  0  0  0  0  0  0  0  0  0  0  0
   30.6807  -21.1825  -10.4347 C   0  0  0  0  0  0  0  0  0  0  0  0
   29.7051  -21.5322  -11.5124 C   0  0  0  0  0  0  0  0  0  0  0  0
   28.3425  -20.9679  -11.1849 C   0  0  2  0  0  0  0  0  0  0  0  0
   27.7779  -21.6383   -9.9530 C   0  0  0  0  0  0  0  0  0  0  0  0
   27.4343  -21.0612  -12.3652 C   0  0  2  0  0  0  0  0  0  0  0  0
   28.1180  -20.5068  -13.5149 N   0  0  0  0  0  0  0  0  0  0  0  0
   26.1226  -20.3906  -12.1300 C   0  0  0  0  0  0  0  0  0  0  0  0
   26.0507  -19.1351  -12.1402 O   0  0  0  0  0  0  0  0  0  0  0  0
   20.9991  -20.0795  -13.8410 C   0  0  0  0  0  0  0  0  0  0  0  0
   22.2572  -19.2967  -13.9117 C   0  0  2  0  0  0  0  0  0  0  0  0
   22.4554  -18.8352  -15.3582 C   0  0  0  0  0  0  0  0  0  0  0  0
   23.5132  -19.9168  -13.4330 C   0  0  0  0  0  0  0  0  0  0  0  0
   23.6381  -20.3918  -12.0424 C   0  0  2  0  0  0  0  0  0  0  0  0
   24.9355  -21.1057  -11.8921 N   0  0  0  0  0  0  0  0  0  0  0  0
   22.6220  -21.2903  -11.4993 C   0  0  0  0  0  0  0  0  0  0  0  0
   22.7350  -22.5394  -11.3725 O   0  0  0  0  0  0  0  0  0  0  0  0
   21.4014  -20.7369  -11.0727 O   0  0  0  0  0  0  0  0  0  0  0  0
  1  2  1  0
  2  3  1  0
  3  4  1  0
  5  4  1  0
  5  6  1  6
  7  5  1  0
  8  7  2  0
 10 11  1  0
 10  9  1  0
 11 13  1  0
 11 12  1  1
 13 14  1  6
 14  7  1  0
 15 22  1  0
 15 13  1  0
 16 15  2  0
 18 19  1  6
 18 17  1  0
 21 20  1  6
 20 18  1  0
 21 22  1  0
 23 21  1  0
 24 23  2  0
 25 23  1  0
M  END
$$$$
