MIL.pdb
     RDKit          3D

 25 24  0  0  1  0  0  0  0  0999 V2000
   26.6037  -16.1249  -15.0891 C   0  0  0  0  0  0  0  0  0  0  0  0
   28.3142  -16.3601  -15.5682 S   0  0  0  0  0  0  0  0  0  0  0  0
   28.6993  -18.0999  -15.9015 C   0  0  0  0  0  0  0  0  0  0  0  0
   27.5262  -18.9472  -15.3966 C   0  0  0  0  0  0  0  0  0  0  0  0
   28.0121  -20.0891  -14.5466 C   0  0  2  0  0  0  0  0  0  0  0  0
   28.7625  -20.9968  -15.3534 N   0  0  0  0  0  0  0  0  0  0  0  0
   26.9603  -20.7815  -13.8127 C   0  0  0  0  0  0  0  0  0  0  0  0
   26.4409  -21.8076  -14.3202 O   0  0  0  0  0  0  0  0  0  0  0  0
   26.7881  -20.4425   -8.4185 C   0  0  0  0  0  0  0  0  0  0  0  0
   26.6694  -21.0500   -9.7795 C   0  0  0  0  0  0  0  0  0  0  0  0
   25.3737  -20.6241  -10.4291 C   0  0  2  0  0  0  0  0  0  0  0  0
   24.1939  -21.1580   -9.6487 C   0  0  0  0  0  0  0  0  0  0  0  0
   25.3476  -21.0221  -11.8669 C   0  0  2  0  0  0  0  0  0  0  0  0
   26.4599  -20.3843  -12.5396 N   0  0  0  0  0  0  0  0  0  0  0  0
   24.0486  -20.6978  -12.5250 C   0  0  0  0  0  0  0  0  0  0  0  0
   23.6993  -19.4977  -12.6632 O   0  0  0  0  0  0  0  0  0  0  0  0
   20.0705  -23.1523  -16.4862 C   0  0  0  0  0  0  0  0  0  0  0  0
   20.6587  -21.9408  -15.8639 C   0  0  2  0  0  0  0  0  0  0  0  0
   21.0198  -20.9551  -16.9788 C   0  0  0  0  0  0  0  0  0  0  0  0
   21.8254  -22.0928  -14.9658 C   0  0  0  0  0  0  0  0  0  0  0  0
   21.9643  -21.2544  -13.7605 C   0  0  2  0  0  0  0  0  0  0  0  0
   23.1746  -21.6870  -13.0099 N   0  0  0  0  0  0  0  0  0  0  0  0
   20.8786  -21.2207  -12.7834 C   0  0  0  0  0  0  0  0  0  0  0  0
   20.7688  -21.9731  -11.7780 O   0  0  0  0  0  0  0  0  0  0  0  0
   19.8535  -20.2737  -12.9575 O   0  0  0  0  0  0  0  0  0  0  0  0
  1  2  1  0
  2  3  1  0
  3  4  1  0
  5  4  1  0
  5  6  1  6
  7  5  1  0
  8  7  2  0
 10 11  1  0
 10  9  1  0
 11 13  1  0
 11 12  1  1
 13 14  1  6
 14  7  1  0
 15 22  1  0
 15 13  1  0
 16 15  2  0
 18 19  1  6
 18 17  1  0
 21 20  1  6
 20 18  1  0
 21 22  1  0
 23 21  1  0
 24 23  2  0
 25 23  1  0
M  END
$$$$
