MIL.pdb
     RDKit          3D

 25 24  0  0  1  0  0  0  0  0999 V2000
   24.6412  -14.4262  -16.3559 C   0  0  0  0  0  0  0  0  0  0  0  0
   26.0093  -14.5792  -17.5029 S   0  0  0  0  0  0  0  0  0  0  0  0
   26.9481  -16.1091  -17.2490 C   0  0  0  0  0  0  0  0  0  0  0  0
   25.9603  -17.2044  -16.8323 C   0  0  0  0  0  0  0  0  0  0  0  0
   26.6864  -18.4290  -16.3468 C   0  0  2  0  0  0  0  0  0  0  0  0
   27.4531  -18.9826  -17.4161 N   0  0  0  0  0  0  0  0  0  0  0  0
   25.8256  -19.4359  -15.7387 C   0  0  0  0  0  0  0  0  0  0  0  0
   25.3151  -20.3204  -16.4715 O   0  0  0  0  0  0  0  0  0  0  0  0
   26.9191  -21.3669  -10.9225 C   0  0  0  0  0  0  0  0  0  0  0  0
   26.4568  -21.2232  -12.3371 C   0  0  0  0  0  0  0  0  0  0  0  0
   25.0250  -20.7426  -12.3711 C   0  0  2  0  0  0  0  0  0  0  0  0
   24.1231  -21.7262  -11.6605 C   0  0  0  0  0  0  0  0  0  0  0  0
   24.5936  -20.4661  -13.7725 C   0  0  2  0  0  0  0  0  0  0  0  0
   25.5068  -19.5034  -14.3520 N   0  0  0  0  0  0  0  0  0  0  0  0
   23.1791  -19.9984  -13.8521 C   0  0  0  0  0  0  0  0  0  0  0  0
   22.8265  -18.9626  -13.2322 O   0  0  0  0  0  0  0  0  0  0  0  0
   18.2057  -18.6690  -15.7307 C   0  0  0  0  0  0  0  0  0  0  0  0
   19.5730  -18.5754  -16.2987 C   0  0  2  0  0  0  0  0  0  0  0  0
   19.4521  -18.3863  -17.8134 C   0  0  0  0  0  0  0  0  0  0  0  0
   20.5354  -19.6675  -16.0300 C   0  0  0  0  0  0  0  0  0  0  0  0
   20.8261  -20.0943  -14.6487 C   0  0  2  0  0  0  0  0  0  0  0  0
   22.1975  -20.6710  -14.6014 N   0  0  0  0  0  0  0  0  0  0  0  0
   19.9568  -21.0769  -14.0055 C   0  0  0  0  0  0  0  0  0  0  0  0
   20.1209  -22.3267  -14.0194 O   0  0  0  0  0  0  0  0  0  0  0  0
   18.8310  -20.6124  -13.3020 O   0  0  0  0  0  0  0  0  0  0  0  0
  1  2  1  0
  2  3  1  0
  3  4  1  0
  5  4  1  0
  5  6  1  6
  7  5  1  0
  8  7  2  0
 10 11  1  0
 10  9  1  0
 11 13  1  0
 11 12  1  6
 13 14  1  1
 14  7  1  0
 15 22  1  0
 15 13  1  0
 16 15  2  0
 18 19  1  6
 18 17  1  0
 21 20  1  6
 20 18  1  0
 21 22  1  0
 23 21  1  0
 24 23  2  0
 25 23  1  0
M  END
$$$$
