MIL.pdb
     RDKit          3D

 25 24  0  0  1  0  0  0  0  0999 V2000
   29.1481  -16.0186  -16.3037 C   0  0  0  0  0  0  0  0  0  0  0  0
   29.8010  -17.6829  -16.1836 S   0  0  0  0  0  0  0  0  0  0  0  0
   28.5071  -18.9024  -15.8300 C   0  0  0  0  0  0  0  0  0  0  0  0
   27.9190  -18.5792  -14.4520 C   0  0  0  0  0  0  0  0  0  0  0  0
   26.9429  -19.6391  -14.0202 C   0  0  2  0  0  0  0  0  0  0  0  0
   25.9342  -19.7919  -15.0188 N   0  0  0  0  0  0  0  0  0  0  0  0
   26.3541  -19.4137  -12.7061 C   0  0  0  0  0  0  0  0  0  0  0  0
   25.8632  -18.2861  -12.4464 O   0  0  0  0  0  0  0  0  0  0  0  0
   22.1072  -21.0536  -11.3487 C   0  0  0  0  0  0  0  0  0  0  0  0
   23.4289  -20.3586  -11.4238 C   0  0  0  0  0  0  0  0  0  0  0  0
   24.3576  -20.8885  -10.3566 C   0  0  2  0  0  0  0  0  0  0  0  0
   23.6839  -20.8439   -9.0037 C   0  0  0  0  0  0  0  0  0  0  0  0
   25.6604  -20.1615  -10.3813 C   0  0  2  0  0  0  0  0  0  0  0  0
   26.2866  -20.3862  -11.6674 N   0  0  0  0  0  0  0  0  0  0  0  0
   26.5569  -20.5591   -9.2570 C   0  0  0  0  0  0  0  0  0  0  0  0
   27.1734  -21.6541   -9.3051 O   0  0  0  0  0  0  0  0  0  0  0  0
   28.9031  -20.0921   -4.2373 C   0  0  0  0  0  0  0  0  0  0  0  0
   29.3528  -19.2582   -5.3789 C   0  0  2  0  0  0  0  0  0  0  0  0
   29.7189  -17.8704   -4.8452 C   0  0  0  0  0  0  0  0  0  0  0  0
   28.4556  -19.0988   -6.5453 C   0  0  0  0  0  0  0  0  0  0  0  0
   27.6784  -20.2410   -7.0613 C   0  0  2  0  0  0  0  0  0  0  0  0
   26.7528  -19.7545   -8.1205 N   0  0  0  0  0  0  0  0  0  0  0  0
   26.8563  -21.0217   -6.1396 C   0  0  0  0  0  0  0  0  0  0  0  0
   25.6509  -20.7911   -5.8516 O   0  0  0  0  0  0  0  0  0  0  0  0
   27.4380  -22.1341   -5.5054 O   0  0  0  0  0  0  0  0  0  0  0  0
  1  2  1  0
  2  3  1  0
  3  4  1  0
  5  4  1  0
  5  6  1  6
  7  5  1  0
  8  7  2  0
 10 11  1  0
 10  9  1  0
 11 13  1  0
 11 12  1  1
 13 14  1  6
 14  7  1  0
 15 22  1  0
 15 13  1  0
 16 15  2  0
 18 19  1  1
 18 17  1  0
 21 20  1  1
 20 18  1  0
 21 22  1  0
 23 21  1  0
 24 23  2  0
 25 23  1  0
M  END
$$$$
