MIL.pdb
     RDKit          3D

 25 24  0  0  1  0  0  0  0  0999 V2000
   19.4086  -21.2600  -13.2972 C   0  0  0  0  0  0  0  0  0  0  0  0
   19.7592  -19.5963  -13.8625 S   0  0  0  0  0  0  0  0  0  0  0  0
   21.2657  -19.5177  -14.8679 C   0  0  0  0  0  0  0  0  0  0  0  0
   22.3864  -20.2198  -14.0931 C   0  0  0  0  0  0  0  0  0  0  0  0
   23.6824  -20.1691  -14.8549 C   0  0  2  0  0  0  0  0  0  0  0  0
   23.4617  -20.5993  -16.1980 N   0  0  0  0  0  0  0  0  0  0  0  0
   24.7726  -20.9122  -14.2354 C   0  0  0  0  0  0  0  0  0  0  0  0
   24.7942  -22.1640  -14.3474 O   0  0  0  0  0  0  0  0  0  0  0  0
   29.6679  -19.2466  -14.6378 C   0  0  0  0  0  0  0  0  0  0  0  0
   28.4268  -20.0653  -14.4800 C   0  0  0  0  0  0  0  0  0  0  0  0
   28.1773  -20.3570  -13.0189 C   0  0  2  0  0  0  0  0  0  0  0  0
   29.3542  -21.0944  -12.4213 C   0  0  0  0  0  0  0  0  0  0  0  0
   26.8852  -21.0808  -12.8377 C   0  0  2  0  0  0  0  0  0  0  0  0
   25.8401  -20.3258  -13.4968 N   0  0  0  0  0  0  0  0  0  0  0  0
   26.5643  -21.3242  -11.4012 C   0  0  0  0  0  0  0  0  0  0  0  0
   27.4312  -21.8289  -10.6429 O   0  0  0  0  0  0  0  0  0  0  0  0
   27.2869  -21.3524   -7.0106 C   0  0  0  0  0  0  0  0  0  0  0  0
   27.2932  -20.3389   -8.0939 C   0  0  2  0  0  0  0  0  0  0  0  0
   27.9162  -19.0525   -7.5447 C   0  0  0  0  0  0  0  0  0  0  0  0
   26.0178  -20.0019   -8.7654 C   0  0  0  0  0  0  0  0  0  0  0  0
   25.1746  -21.0573   -9.3572 C   0  0  2  0  0  0  0  0  0  0  0  0
   25.3142  -21.0113  -10.8383 N   0  0  0  0  0  0  0  0  0  0  0  0
   23.7379  -21.0584   -9.0908 C   0  0  0  0  0  0  0  0  0  0  0  0
   22.8403  -20.6771   -9.8895 O   0  0  0  0  0  0  0  0  0  0  0  0
   23.2918  -21.5219   -7.8401 O   0  0  0  0  0  0  0  0  0  0  0  0
  1  2  1  0
  2  3  1  0
  3  4  1  0
  5  4  1  0
  5  6  1  6
  7  5  1  0
  8  7  2  0
 10 11  1  0
 10  9  1  0
 11 13  1  0
 11 12  1  6
 13 14  1  1
 14  7  1  0
 15 22  1  0
 15 13  1  0
 16 15  2  0
 18 19  1  1
 18 17  1  0
 21 20  1  1
 20 18  1  0
 21 22  1  0
 23 21  1  0
 24 23  2  0
 25 23  1  0
M  END
$$$$
