MIL.pdb
     RDKit          3D

 25 24  0  0  1  0  0  0  0  0999 V2000
   19.9921  -21.7894  -10.3938 C   0  0  0  0  0  0  0  0  0  0  0  0
   20.1304  -22.2042  -12.1315 S   0  0  0  0  0  0  0  0  0  0  0  0
   20.4164  -20.7420  -13.1642 C   0  0  0  0  0  0  0  0  0  0  0  0
   21.7378  -20.1038  -12.7216 C   0  0  0  0  0  0  0  0  0  0  0  0
   22.6930  -19.9849  -13.8775 C   0  0  2  0  0  0  0  0  0  0  0  0
   22.0590  -20.4519  -15.0683 N   0  0  0  0  0  0  0  0  0  0  0  0
   23.9746  -20.6468  -13.6680 C   0  0  0  0  0  0  0  0  0  0  0  0
   24.0582  -21.8848  -13.8691 O   0  0  0  0  0  0  0  0  0  0  0  0
   28.2937  -18.3977  -15.4235 C   0  0  0  0  0  0  0  0  0  0  0  0
   27.2878  -19.4115  -14.9810 C   0  0  0  0  0  0  0  0  0  0  0  0
   27.5263  -19.7864  -13.5371 C   0  0  2  0  0  0  0  0  0  0  0  0
   28.8985  -20.3998  -13.3729 C   0  0  0  0  0  0  0  0  0  0  0  0
   26.4322  -20.6663  -13.0320 C   0  0  2  0  0  0  0  0  0  0  0  0
   25.1677  -19.9938  -13.2448 N   0  0  0  0  0  0  0  0  0  0  0  0
   26.6192  -21.0445  -11.6010 C   0  0  0  0  0  0  0  0  0  0  0  0
   27.2271  -22.1057  -11.3082 O   0  0  0  0  0  0  0  0  0  0  0  0
   26.6056  -19.9406   -6.0607 C   0  0  0  0  0  0  0  0  0  0  0  0
   27.6939  -20.0311   -7.0648 C   0  0  2  0  0  0  0  0  0  0  0  0
   28.7790  -19.0179   -6.6899 C   0  0  0  0  0  0  0  0  0  0  0  0
   27.3608  -19.8645   -8.4974 C   0  0  0  0  0  0  0  0  0  0  0  0
   26.3650  -20.7368   -9.1472 C   0  0  2  0  0  0  0  0  0  0  0  0
   26.1400  -20.2579  -10.5384 N   0  0  0  0  0  0  0  0  0  0  0  0
   25.0376  -20.8744   -8.5521 C   0  0  0  0  0  0  0  0  0  0  0  0
   23.9843  -20.3179   -8.9641 O   0  0  0  0  0  0  0  0  0  0  0  0
   24.8965  -21.6954   -7.4189 O   0  0  0  0  0  0  0  0  0  0  0  0
  1  2  1  0
  2  3  1  0
  3  4  1  0
  5  4  1  0
  5  6  1  6
  7  5  1  0
  8  7  2  0
 10 11  1  0
 10  9  1  0
 11 13  1  0
 11 12  1  6
 13 14  1  1
 14  7  1  0
 15 22  1  0
 15 13  1  0
 16 15  2  0
 18 19  1  1
 18 17  1  0
 21 20  1  1
 20 18  1  0
 21 22  1  0
 23 21  1  0
 24 23  2  0
 25 23  1  0
M  END
$$$$
