MIL.pdb
     RDKit          3D

 25 24  0  0  1  0  0  0  0  0999 V2000
   26.0514  -18.8676  -18.7415 C   0  0  0  0  0  0  0  0  0  0  0  0
   27.8368  -18.8010  -18.6052 S   0  0  0  0  0  0  0  0  0  0  0  0
   28.4505  -19.7380  -17.1798 C   0  0  0  0  0  0  0  0  0  0  0  0
   27.2382  -20.2883  -16.4205 C   0  0  0  0  0  0  0  0  0  0  0  0
   27.6545  -20.9009  -15.1113 C   0  0  2  0  0  0  0  0  0  0  0  0
   28.5463  -21.9882  -15.3572 N   0  0  0  0  0  0  0  0  0  0  0  0
   26.5446  -21.3113  -14.2604 C   0  0  0  0  0  0  0  0  0  0  0  0
   25.9586  -22.3953  -14.5082 O   0  0  0  0  0  0  0  0  0  0  0  0
   26.8132  -20.4728   -9.0774 C   0  0  0  0  0  0  0  0  0  0  0  0
   26.4729  -21.0975  -10.3924 C   0  0  0  0  0  0  0  0  0  0  0  0
   25.1838  -20.5184  -10.9264 C   0  0  2  0  0  0  0  0  0  0  0  0
   24.0384  -20.8342   -9.9914 C   0  0  0  0  0  0  0  0  0  0  0  0
   24.9368  -20.9784  -12.3241 C   0  0  2  0  0  0  0  0  0  0  0  0
   26.0568  -20.5702  -13.1460 N   0  0  0  0  0  0  0  0  0  0  0  0
   23.6428  -20.4752  -12.8700 C   0  0  0  0  0  0  0  0  0  0  0  0
   23.4608  -19.2387  -13.0095 O   0  0  0  0  0  0  0  0  0  0  0  0
   21.9936  -20.1186  -16.8665 C   0  0  0  0  0  0  0  0  0  0  0  0
   21.7538  -21.4095  -16.1758 C   0  0  2  0  0  0  0  0  0  0  0  0
   21.1793  -22.3992  -17.1932 C   0  0  0  0  0  0  0  0  0  0  0  0
   20.9044  -21.4251  -14.9637 C   0  0  0  0  0  0  0  0  0  0  0  0
   21.3262  -20.7227  -13.7375 C   0  0  2  0  0  0  0  0  0  0  0  0
   22.5922  -21.3313  -13.2451 N   0  0  0  0  0  0  0  0  0  0  0  0
   20.4257  -20.6876  -12.5874 C   0  0  0  0  0  0  0  0  0  0  0  0
   20.4801  -21.4508  -11.5856 O   0  0  0  0  0  0  0  0  0  0  0  0
   19.3996  -19.7259  -12.5727 O   0  0  0  0  0  0  0  0  0  0  0  0
  1  2  1  0
  2  3  1  0
  3  4  1  0
  5  4  1  0
  5  6  1  6
  7  5  1  0
  8  7  2  0
 10 11  1  0
 10  9  1  0
 11 13  1  0
 11 12  1  1
 13 14  1  6
 14  7  1  0
 15 22  1  0
 15 13  1  0
 16 15  2  0
 18 19  1  6
 18 17  1  0
 21 20  1  6
 20 18  1  0
 21 22  1  0
 23 21  1  0
 24 23  2  0
 25 23  1  0
M  END
$$$$
