MIL.pdb
     RDKit          3D

 25 24  0  0  1  0  0  0  0  0999 V2000
   18.9343  -22.0994  -10.1452 C   0  0  0  0  0  0  0  0  0  0  0  0
   17.9883  -22.7324   -8.7614 S   0  0  0  0  0  0  0  0  0  0  0  0
   18.5934  -24.3461   -8.1989 C   0  0  0  0  0  0  0  0  0  0  0  0
   17.7309  -24.7844   -7.0102 C   0  0  0  0  0  0  0  0  0  0  0  0
   18.1709  -26.1255   -6.4901 C   0  0  2  0  0  0  0  0  0  0  0  0
   18.0115  -27.1080   -7.5134 N   0  0  0  0  0  0  0  0  0  0  0  0
   17.5122  -26.5369   -5.2567 C   0  0  0  0  0  0  0  0  0  0  0  0
   16.4706  -27.2368   -5.3294 O   0  0  0  0  0  0  0  0  0  0  0  0
   19.9949  -28.8419   -1.4420 C   0  0  0  0  0  0  0  0  0  0  0  0
   18.8907  -28.3780   -2.3371 C   0  0  0  0  0  0  0  0  0  0  0  0
   18.2453  -27.1363   -1.7680 C   0  0  2  0  0  0  0  0  0  0  0  0
   17.6428  -27.4308   -0.4129 C   0  0  0  0  0  0  0  0  0  0  0  0
   17.2591  -26.5648   -2.7308 C   0  0  2  0  0  0  0  0  0  0  0  0
   17.9598  -26.2050   -3.9458 N   0  0  0  0  0  0  0  0  0  0  0  0
   16.5138  -25.4041   -2.1623 C   0  0  0  0  0  0  0  0  0  0  0  0
   17.0938  -24.2977   -2.0181 O   0  0  0  0  0  0  0  0  0  0  0  0
   11.8257  -22.6720   -0.4826 C   0  0  0  0  0  0  0  0  0  0  0  0
   12.4384  -22.8192   -1.8257 C   0  0  2  0  0  0  0  0  0  0  0  0
   11.3200  -22.7808   -2.8708 C   0  0  0  0  0  0  0  0  0  0  0  0
   13.3011  -23.9918   -2.0935 C   0  0  0  0  0  0  0  0  0  0  0  0
   14.4990  -24.2507   -1.2732 C   0  0  2  0  0  0  0  0  0  0  0  0
   15.1657  -25.4851   -1.7706 N   0  0  0  0  0  0  0  0  0  0  0  0
   14.3531  -24.4287    0.1697 C   0  0  0  0  0  0  0  0  0  0  0  0
   14.2280  -25.5317    0.7669 O   0  0  0  0  0  0  0  0  0  0  0  0
   14.3498  -23.2835    0.9861 O   0  0  0  0  0  0  0  0  0  0  0  0
  1  2  1  0
  2  3  1  0
  3  4  1  0
  5  4  1  0
  5  6  1  6
  7  5  1  0
  8  7  2  0
 10 11  1  0
 10  9  1  0
 11 13  1  0
 11 12  1  1
 13 14  1  6
 14  7  1  0
 15 22  1  0
 15 13  1  0
 16 15  2  0
 18 19  1  6
 18 17  1  0
 21 20  1  6
 20 18  1  0
 21 22  1  0
 23 21  1  0
 24 23  2  0
 25 23  1  0
M  END
$$$$
